


 33 36  0  0  0  0  0  0  0  0999 V2000
    8.5990   38.1498   60.5785 C   0  0  0  0  0  0  0  0  0  0  0  0
    7.7797   38.1009   59.5150 N   0  0  0  0  0  0  0  0  0  0  0  0
    6.6284   37.4262   59.6430 C   0  0  0  0  0  0  0  0  0  0  0  0
    6.2286   36.7831   60.7331 N   0  0  0  0  0  0  0  0  0  0  0  0
    7.0778   36.8428   61.7667 C   0  0  0  0  0  0  0  0  0  0  0  0
    6.4689   36.0246   63.1573 Cl  0  0  0  0  0  0  0  0  0  0  0  0
    8.3010   37.4899   61.7633 C   0  0  0  0  0  0  0  0  0  0  0  0
    9.2017   37.5112   62.9592 C   0  0  0  0  0  0  0  0  0  0  0  0
    9.8080   38.8557   60.4629 N   0  0  0  0  0  0  0  0  0  0  0  0
   10.4134   38.9889   61.2278 H   0  0  0  0  0  0  0  0  0  0  0  0
   10.1074   39.3793   59.1312 C   0  0  0  0  0  0  0  0  0  0  0  0
    7.2856   43.8816   59.3642 C   0  0  0  0  0  0  0  0  0  0  0  0
    8.2178   42.7829   58.9908 C   0  0  0  0  0  0  0  0  0  0  0  0
    8.9763   42.7853   57.9176 N   0  0  0  0  0  0  0  0  0  0  0  0
    9.7157   41.6139   57.8504 C   0  0  0  0  0  0  0  0  0  0  0  0
   10.6400   41.4237   56.7004 C   0  0  0  0  0  0  0  0  0  0  0  0
    9.5010   40.7295   58.8944 C   0  0  0  0  0  0  0  0  0  0  0  0
    8.3607   41.3946   59.9893 S   0  0  0  0  0  0  0  0  0  0  0  0
    5.7826   37.3227   58.5638 O   0  0  0  0  0  0  0  0  0  0  0  0
    5.8169   36.0496   57.9199 C   0  0  0  0  0  0  0  0  0  0  0  0
    5.6402   36.1782   56.4034 C   0  0  0  0  0  0  0  0  0  0  0  0
    5.2681   34.8634   55.7104 C   0  0  0  0  0  0  0  0  0  0  0  0
    3.9761   34.9523   54.9384 C   0  0  0  0  0  0  0  0  0  0  0  0
    3.9115   34.5488   53.6107 C   0  0  0  0  0  0  0  0  0  0  0  0
    2.7042   34.6752   52.9333 C   0  0  0  0  0  0  0  0  0  0  0  0
    1.5890   35.2051   53.5939 C   0  0  0  0  0  0  0  0  0  0  0  0
    0.3482   35.3538   52.9505 C   0  0  0  0  0  0  0  0  0  0  0  0
   -0.7327   35.8944   53.6420 C   0  0  0  0  0  0  0  0  0  0  0  0
   -2.2501   36.0749   52.8540 Cl  0  0  0  0  0  0  0  0  0  0  0  0
   -0.5872   36.2925   54.9653 C   0  0  0  0  0  0  0  0  0  0  0  0
    0.6501   36.1396   55.5986 C   0  0  0  0  0  0  0  0  0  0  0  0
    1.7447   35.5988   54.9395 C   0  0  0  0  0  0  0  0  0  0  0  0
    2.9113   35.4752   55.5921 N   0  0  0  0  0  0  0  0  0  0  0  0
 12 13  1  0
 13 14  2  0
 14 15  1  0
 15 16  1  0
 15 17  2  0
 17 11  1  0
 11  9  1  0
  9  1  1  0
  1  2  2  0
  2  3  1  0
  3 19  1  0
 19 20  1  0
 20 21  1  0
 21 22  1  0
 22 23  1  0
 23 24  2  0
 24 25  1  0
 25 26  2  0
 26 27  1  0
 27 28  2  0
 28 29  1  0
 28 30  1  0
 30 31  2  0
 31 32  1  0
 32 33  2  0
  3  4  2  0
  4  5  1  0
  5  6  1  0
  5  7  2  0
  7  8  1  0
 17 18  1  0
 18 13  1  0
  7  1  1  0
 33 23  1  0
 32 26  1  0
  9 10  1  0
M  END
> <minimizedAffinity>
-9.72063

> <CNNscore>
0.9697284102

> <CNNaffinity>
8.7235097885

> <CNN_VS>
8.4594354630

> <CNNaffinity_variance>
0.0687811449

$$$$



 33 36  0  0  0  0  0  0  0  0999 V2000
    8.1832   38.1961   59.3165 C   0  0  0  0  0  0  0  0  0  0  0  0
    7.0991   37.9993   58.5481 N   0  0  0  0  0  0  0  0  0  0  0  0
    6.0554   37.3571   59.0916 C   0  0  0  0  0  0  0  0  0  0  0  0
    6.0030   36.8802   60.3292 N   0  0  0  0  0  0  0  0  0  0  0  0
    7.1070   37.0831   61.0592 C   0  0  0  0  0  0  0  0  0  0  0  0
    6.9453   36.4775   62.6659 Cl  0  0  0  0  0  0  0  0  0  0  0  0
    8.2557   37.7157   60.6173 C   0  0  0  0  0  0  0  0  0  0  0  0
    9.4564   37.9037   61.4919 C   0  0  0  0  0  0  0  0  0  0  0  0
    9.2845   38.8707   58.7639 N   0  0  0  0  0  0  0  0  0  0  0  0
    9.4551   38.8916   57.7945 H   0  0  0  0  0  0  0  0  0  0  0  0
   10.1606   39.5396   59.7243 C   0  0  0  0  0  0  0  0  0  0  0  0
   12.8760   42.6055   56.3309 C   0  0  0  0  0  0  0  0  0  0  0  0
   12.3064   41.9454   57.5373 C   0  0  0  0  0  0  0  0  0  0  0  0
   12.6629   42.2202   58.7720 N   0  0  0  0  0  0  0  0  0  0  0  0
   11.9582   41.4244   59.6628 C   0  0  0  0  0  0  0  0  0  0  0  0
   12.2219   41.5841   61.1182 C   0  0  0  0  0  0  0  0  0  0  0  0
   11.0628   40.5459   59.0758 C   0  0  0  0  0  0  0  0  0  0  0  0
   11.0967   40.7395   57.3720 S   0  0  0  0  0  0  0  0  0  0  0  0
    4.9433   37.1042   58.3235 O   0  0  0  0  0  0  0  0  0  0  0  0
    5.1830   37.1643   56.9180 C   0  0  0  0  0  0  0  0  0  0  0  0
    6.2314   36.1370   56.4788 C   0  0  0  0  0  0  0  0  0  0  0  0
    5.6387   34.7849   56.0693 C   0  0  0  0  0  0  0  0  0  0  0  0
    4.3932   34.9201   55.2304 C   0  0  0  0  0  0  0  0  0  0  0  0
    4.4467   34.7781   53.8495 C   0  0  0  0  0  0  0  0  0  0  0  0
    3.2762   34.9383   53.1169 C   0  0  0  0  0  0  0  0  0  0  0  0
    2.0790   35.2408   53.7772 C   0  0  0  0  0  0  0  0  0  0  0  0
    0.8712   35.4137   53.0795 C   0  0  0  0  0  0  0  0  0  0  0  0
   -0.2947   35.7234   53.7747 C   0  0  0  0  0  0  0  0  0  0  0  0
   -1.7717   35.9336   52.9200 Cl  0  0  0  0  0  0  0  0  0  0  0  0
   -0.2671   35.8674   55.1565 C   0  0  0  0  0  0  0  0  0  0  0  0
    0.9383   35.6921   55.8433 C   0  0  0  0  0  0  0  0  0  0  0  0
    2.1160   35.3770   55.1808 C   0  0  0  0  0  0  0  0  0  0  0  0
    3.2472   35.2211   55.8866 N   0  0  0  0  0  0  0  0  0  0  0  0
 12 13  1  0
 13 14  2  0
 14 15  1  0
 15 16  1  0
 15 17  2  0
 17 11  1  0
 11  9  1  0
  9  1  1  0
  1  2  2  0
  2  3  1  0
  3 19  1  0
 19 20  1  0
 20 21  1  0
 21 22  1  0
 22 23  1  0
 23 24  2  0
 24 25  1  0
 25 26  2  0
 26 27  1  0
 27 28  2  0
 28 29  1  0
 28 30  1  0
 30 31  2  0
 31 32  1  0
 32 33  2  0
  3  4  2  0
  4  5  1  0
  5  6  1  0
  5  7  2  0
  7  8  1  0
 17 18  1  0
 18 13  1  0
  7  1  1  0
 33 23  1  0
 32 26  1  0
  9 10  1  0
M  END
> <minimizedAffinity>
-9.20314

> <CNNscore>
0.9265944958

> <CNNaffinity>
8.7118825912

> <CNN_VS>
8.0723829269

> <CNNaffinity_variance>
0.0597507656

$$$$



 33 36  0  0  0  0  0  0  0  0999 V2000
    8.2018   38.2381   59.5251 C   0  0  0  0  0  0  0  0  0  0  0  0
    7.2116   37.8958   58.6843 N   0  0  0  0  0  0  0  0  0  0  0  0
    6.2209   37.1302   59.1633 C   0  0  0  0  0  0  0  0  0  0  0  0
    6.1381   36.6629   60.4029 N   0  0  0  0  0  0  0  0  0  0  0  0
    7.1501   37.0134   61.2068 C   0  0  0  0  0  0  0  0  0  0  0  0
    6.9482   36.4081   62.8090 Cl  0  0  0  0  0  0  0  0  0  0  0  0
    8.2383   37.7839   60.8368 C   0  0  0  0  0  0  0  0  0  0  0  0
    9.3370   38.1335   61.7921 C   0  0  0  0  0  0  0  0  0  0  0  0
    9.2461   39.0431   59.0405 N   0  0  0  0  0  0  0  0  0  0  0  0
    9.8877   38.7214   58.3666 H   0  0  0  0  0  0  0  0  0  0  0  0
    9.3166   40.3904   59.6036 C   0  0  0  0  0  0  0  0  0  0  0  0
   10.8354   43.3767   55.4729 C   0  0  0  0  0  0  0  0  0  0  0  0
   10.1567   42.8150   56.6726 C   0  0  0  0  0  0  0  0  0  0  0  0
    9.1744   43.4062   57.3149 N   0  0  0  0  0  0  0  0  0  0  0  0
    8.7726   42.6326   58.3936 C   0  0  0  0  0  0  0  0  0  0  0  0
    7.6661   43.1335   59.2526 C   0  0  0  0  0  0  0  0  0  0  0  0
    9.4700   41.4463   58.5509 C   0  0  0  0  0  0  0  0  0  0  0  0
   10.6403   41.2952   57.3062 S   0  0  0  0  0  0  0  0  0  0  0  0
    5.2102   36.7287   58.3220 O   0  0  0  0  0  0  0  0  0  0  0  0
    5.5314   36.8380   56.9358 C   0  0  0  0  0  0  0  0  0  0  0  0
    5.8268   35.4692   56.3143 C   0  0  0  0  0  0  0  0  0  0  0  0
    6.2042   35.5320   54.8307 C   0  0  0  0  0  0  0  0  0  0  0  0
    7.1038   34.3990   54.4058 C   0  0  0  0  0  0  0  0  0  0  0  0
    6.7604   33.0797   54.6725 C   0  0  0  0  0  0  0  0  0  0  0  0
    7.6354   32.0715   54.2846 C   0  0  0  0  0  0  0  0  0  0  0  0
    8.8354   32.4017   53.6430 C   0  0  0  0  0  0  0  0  0  0  0  0
    9.7521   31.4177   53.2340 C   0  0  0  0  0  0  0  0  0  0  0  0
   10.9384   31.7907   52.6077 C   0  0  0  0  0  0  0  0  0  0  0  0
   12.0583   30.5860   52.1071 Cl  0  0  0  0  0  0  0  0  0  0  0  0
   11.2217   33.1336   52.3904 C   0  0  0  0  0  0  0  0  0  0  0  0
   10.3037   34.1061   52.7988 C   0  0  0  0  0  0  0  0  0  0  0  0
    9.1101   33.7672   53.4197 C   0  0  0  0  0  0  0  0  0  0  0  0
    8.2635   34.7393   53.7944 N   0  0  0  0  0  0  0  0  0  0  0  0
 12 13  1  0
 13 14  2  0
 14 15  1  0
 15 16  1  0
 15 17  2  0
 17 11  1  0
 11  9  1  0
  9  1  1  0
  1  2  2  0
  2  3  1  0
  3 19  1  0
 19 20  1  0
 20 21  1  0
 21 22  1  0
 22 23  1  0
 23 24  2  0
 24 25  1  0
 25 26  2  0
 26 27  1  0
 27 28  2  0
 28 29  1  0
 28 30  1  0
 30 31  2  0
 31 32  1  0
 32 33  2  0
  3  4  2  0
  4  5  1  0
  5  6  1  0
  5  7  2  0
  7  8  1  0
 17 18  1  0
 18 13  1  0
  7  1  1  0
 33 23  1  0
 32 26  1  0
  9 10  1  0
M  END
> <minimizedAffinity>
-8.64958

> <CNNscore>
0.9069519043

> <CNNaffinity>
8.4782371521

> <CNN_VS>
7.6893534660

> <CNNaffinity_variance>
0.0319874920

$$$$



 33 36  0  0  0  0  0  0  0  0999 V2000
    8.4935   38.0910   59.9947 C   0  0  0  0  0  0  0  0  0  0  0  0
    7.6200   37.6472   59.0757 N   0  0  0  0  0  0  0  0  0  0  0  0
    6.5962   36.8924   59.4989 C   0  0  0  0  0  0  0  0  0  0  0  0
    6.3748   36.5282   60.7560 N   0  0  0  0  0  0  0  0  0  0  0  0
    7.2741   36.9778   61.6404 C   0  0  0  0  0  0  0  0  0  0  0  0
    6.8938   36.5027   63.2540 Cl  0  0  0  0  0  0  0  0  0  0  0  0
    8.3815   37.7499   61.3361 C   0  0  0  0  0  0  0  0  0  0  0  0
    9.3486   38.2142   62.3806 C   0  0  0  0  0  0  0  0  0  0  0  0
    9.5702   38.8864   59.5689 N   0  0  0  0  0  0  0  0  0  0  0  0
   10.4405   38.8820   60.0292 H   0  0  0  0  0  0  0  0  0  0  0  0
    9.3125   39.7211   58.3968 C   0  0  0  0  0  0  0  0  0  0  0  0
   13.5925   42.8708   58.6165 C   0  0  0  0  0  0  0  0  0  0  0  0
   12.3841   42.1088   58.1986 C   0  0  0  0  0  0  0  0  0  0  0  0
   11.8350   42.1826   57.0070 N   0  0  0  0  0  0  0  0  0  0  0  0
   10.7181   41.3631   56.9421 C   0  0  0  0  0  0  0  0  0  0  0  0
    9.9517   41.3082   55.6683 C   0  0  0  0  0  0  0  0  0  0  0  0
   10.4369   40.6691   58.1073 C   0  0  0  0  0  0  0  0  0  0  0  0
   11.6120   41.0425   59.2995 S   0  0  0  0  0  0  0  0  0  0  0  0
    5.7038   36.3888   58.5820 O   0  0  0  0  0  0  0  0  0  0  0  0
    5.9408   36.8225   57.2432 C   0  0  0  0  0  0  0  0  0  0  0  0
    5.0109   36.1202   56.2485 C   0  0  0  0  0  0  0  0  0  0  0  0
    5.6092   34.8514   55.6323 C   0  0  0  0  0  0  0  0  0  0  0  0
    4.7297   34.2451   54.5682 C   0  0  0  0  0  0  0  0  0  0  0  0
    5.0937   33.0651   53.9319 C   0  0  0  0  0  0  0  0  0  0  0  0
    4.2630   32.5597   52.9384 C   0  0  0  0  0  0  0  0  0  0  0  0
    3.0897   33.2445   52.5987 C   0  0  0  0  0  0  0  0  0  0  0  0
    2.2197   32.7737   51.6002 C   0  0  0  0  0  0  0  0  0  0  0  0
    1.0682   33.4911   51.2871 C   0  0  0  0  0  0  0  0  0  0  0  0
    0.0044   32.9136   50.0662 Cl  0  0  0  0  0  0  0  0  0  0  0  0
    0.7789   34.6747   51.9554 C   0  0  0  0  0  0  0  0  0  0  0  0
    1.6488   35.1353   52.9486 C   0  0  0  0  0  0  0  0  0  0  0  0
    2.8009   34.4406   53.2884 C   0  0  0  0  0  0  0  0  0  0  0  0
    3.6040   34.9267   54.2480 N   0  0  0  0  0  0  0  0  0  0  0  0
 12 13  1  0
 13 14  2  0
 14 15  1  0
 15 16  1  0
 15 17  2  0
 17 11  1  0
 11  9  1  0
  9  1  1  0
  1  2  2  0
  2  3  1  0
  3 19  1  0
 19 20  1  0
 20 21  1  0
 21 22  1  0
 22 23  1  0
 23 24  2  0
 24 25  1  0
 25 26  2  0
 26 27  1  0
 27 28  2  0
 28 29  1  0
 28 30  1  0
 30 31  2  0
 31 32  1  0
 32 33  2  0
  3  4  2  0
  4  5  1  0
  5  6  1  0
  5  7  2  0
  7  8  1  0
 17 18  1  0
 18 13  1  0
  7  1  1  0
 33 23  1  0
 32 26  1  0
  9 10  1  0
M  END
> <minimizedAffinity>
-8.21087

> <CNNscore>
0.7129175067

> <CNNaffinity>
8.0478191376

> <CNN_VS>
5.7374310493

> <CNNaffinity_variance>
0.0502060838

$$$$



 33 36  0  0  0  0  0  0  0  0999 V2000
    5.0524   35.2049   55.7899 C   0  0  0  0  0  0  0  0  0  0  0  0
    4.7539   35.6703   57.0141 N   0  0  0  0  0  0  0  0  0  0  0  0
    5.6357   36.4900   57.6038 C   0  0  0  0  0  0  0  0  0  0  0  0
    6.7962   36.8744   57.0868 N   0  0  0  0  0  0  0  0  0  0  0  0
    7.0646   36.3788   55.8722 C   0  0  0  0  0  0  0  0  0  0  0  0
    8.5645   36.9591   55.2495 Cl  0  0  0  0  0  0  0  0  0  0  0  0
    6.2511   35.5143   55.1611 C   0  0  0  0  0  0  0  0  0  0  0  0
    6.6198   34.9970   53.8052 C   0  0  0  0  0  0  0  0  0  0  0  0
    4.1377   34.3477   55.1558 N   0  0  0  0  0  0  0  0  0  0  0  0
    3.7758   33.5461   55.5982 H   0  0  0  0  0  0  0  0  0  0  0  0
    3.7589   34.7254   53.7952 C   0  0  0  0  0  0  0  0  0  0  0  0
   -1.2248   36.3504   54.6949 C   0  0  0  0  0  0  0  0  0  0  0  0
    0.0446   35.8620   54.0902 C   0  0  0  0  0  0  0  0  0  0  0  0
    0.1832   35.5213   52.8286 N   0  0  0  0  0  0  0  0  0  0  0  0
    1.4811   35.0967   52.5864 C   0  0  0  0  0  0  0  0  0  0  0  0
    1.8405   34.6642   51.2092 C   0  0  0  0  0  0  0  0  0  0  0  0
    2.3182   35.1255   53.6894 C   0  0  0  0  0  0  0  0  0  0  0  0
    1.4588   35.7156   55.0513 S   0  0  0  0  0  0  0  0  0  0  0  0
    5.3816   36.9556   58.8723 O   0  0  0  0  0  0  0  0  0  0  0  0
    6.4054   36.6502   59.8184 C   0  0  0  0  0  0  0  0  0  0  0  0
    7.0343   37.9202   60.4007 C   0  0  0  0  0  0  0  0  0  0  0  0
    8.2346   37.6530   61.3145 C   0  0  0  0  0  0  0  0  0  0  0  0
    9.4024   38.5634   61.0304 C   0  0  0  0  0  0  0  0  0  0  0  0
    9.9864   39.3094   62.0463 C   0  0  0  0  0  0  0  0  0  0  0  0
   11.0435   40.1548   61.7297 C   0  0  0  0  0  0  0  0  0  0  0  0
   11.4921   40.2405   60.4059 C   0  0  0  0  0  0  0  0  0  0  0  0
   12.5558   41.0821   60.0371 C   0  0  0  0  0  0  0  0  0  0  0  0
   12.9638   41.1441   58.7073 C   0  0  0  0  0  0  0  0  0  0  0  0
   14.2657   42.1732   58.2577 Cl  0  0  0  0  0  0  0  0  0  0  0  0
   12.3189   40.3804   57.7421 C   0  0  0  0  0  0  0  0  0  0  0  0
   11.2626   39.5445   58.1176 C   0  0  0  0  0  0  0  0  0  0  0  0
   10.8362   39.4552   59.4349 C   0  0  0  0  0  0  0  0  0  0  0  0
    9.8160   38.6389   59.7429 N   0  0  0  0  0  0  0  0  0  0  0  0
 12 13  1  0
 13 14  2  0
 14 15  1  0
 15 16  1  0
 15 17  2  0
 17 11  1  0
 11  9  1  0
  9  1  1  0
  1  2  2  0
  2  3  1  0
  3 19  1  0
 19 20  1  0
 20 21  1  0
 21 22  1  0
 22 23  1  0
 23 24  2  0
 24 25  1  0
 25 26  2  0
 26 27  1  0
 27 28  2  0
 28 29  1  0
 28 30  1  0
 30 31  2  0
 31 32  1  0
 32 33  2  0
  3  4  2  0
  4  5  1  0
  5  6  1  0
  5  7  2  0
  7  8  1  0
 17 18  1  0
 18 13  1  0
  7  1  1  0
 33 23  1  0
 32 26  1  0
  9 10  1  0
M  END
> <minimizedAffinity>
-9.50388

> <CNNscore>
0.7052651644

> <CNNaffinity>
7.8833794594

> <CNN_VS>
5.5598731041

> <CNNaffinity_variance>
0.4277356863

$$$$



 33 36  0  0  0  0  0  0  0  0999 V2000
    4.9161   31.3995   53.6947 C   0  0  0  0  0  0  0  0  0  0  0  0
    6.2410   31.6203   53.6753 N   0  0  0  0  0  0  0  0  0  0  0  0
    7.0432   30.5870   53.3821 C   0  0  0  0  0  0  0  0  0  0  0  0
    6.6416   29.3491   53.1212 N   0  0  0  0  0  0  0  0  0  0  0  0
    5.3160   29.1651   53.1639 C   0  0  0  0  0  0  0  0  0  0  0  0
    4.8706   27.5463   52.7697 Cl  0  0  0  0  0  0  0  0  0  0  0  0
    4.3806   30.1387   53.4673 C   0  0  0  0  0  0  0  0  0  0  0  0
    2.9102   29.8576   53.4995 C   0  0  0  0  0  0  0  0  0  0  0  0
    4.0608   32.4722   53.9965 N   0  0  0  0  0  0  0  0  0  0  0  0
    3.2026   32.3445   54.4618 H   0  0  0  0  0  0  0  0  0  0  0  0
    4.5299   33.7906   53.5737 C   0  0  0  0  0  0  0  0  0  0  0  0
    6.3305   36.7823   57.5856 C   0  0  0  0  0  0  0  0  0  0  0  0
    5.4987   36.1049   56.5537 C   0  0  0  0  0  0  0  0  0  0  0  0
    4.1996   36.2591   56.4287 N   0  0  0  0  0  0  0  0  0  0  0  0
    3.7229   35.4819   55.3837 C   0  0  0  0  0  0  0  0  0  0  0  0
    2.2668   35.5166   55.0809 C   0  0  0  0  0  0  0  0  0  0  0  0
    4.6880   34.7404   54.7225 C   0  0  0  0  0  0  0  0  0  0  0  0
    6.2259   35.0426   55.4190 S   0  0  0  0  0  0  0  0  0  0  0  0
    8.4064   30.7665   53.3902 O   0  0  0  0  0  0  0  0  0  0  0  0
    8.8661   31.7607   52.4755 C   0  0  0  0  0  0  0  0  0  0  0  0
   10.3822   31.9594   52.5715 C   0  0  0  0  0  0  0  0  0  0  0  0
   11.1959   30.8271   51.9365 C   0  0  0  0  0  0  0  0  0  0  0  0
   12.4053   31.3236   51.1853 C   0  0  0  0  0  0  0  0  0  0  0  0
   12.4595   32.6263   50.7058 C   0  0  0  0  0  0  0  0  0  0  0  0
   13.5847   33.0292   49.9958 C   0  0  0  0  0  0  0  0  0  0  0  0
   14.6291   32.1227   49.7761 C   0  0  0  0  0  0  0  0  0  0  0  0
   15.7854   32.4831   49.0628 C   0  0  0  0  0  0  0  0  0  0  0  0
   16.7960   31.5474   48.8589 C   0  0  0  0  0  0  0  0  0  0  0  0
   18.2102   31.9899   47.9870 Cl  0  0  0  0  0  0  0  0  0  0  0  0
   16.6628   30.2558   49.3540 C   0  0  0  0  0  0  0  0  0  0  0  0
   15.5101   29.9058   50.0641 C   0  0  0  0  0  0  0  0  0  0  0  0
   14.4879   30.8164   50.2897 C   0  0  0  0  0  0  0  0  0  0  0  0
   13.4008   30.4295   50.9757 N   0  0  0  0  0  0  0  0  0  0  0  0
 12 13  1  0
 13 14  2  0
 14 15  1  0
 15 16  1  0
 15 17  2  0
 17 11  1  0
 11  9  1  0
  9  1  1  0
  1  2  2  0
  2  3  1  0
  3 19  1  0
 19 20  1  0
 20 21  1  0
 21 22  1  0
 22 23  1  0
 23 24  2  0
 24 25  1  0
 25 26  2  0
 26 27  1  0
 27 28  2  0
 28 29  1  0
 28 30  1  0
 30 31  2  0
 31 32  1  0
 32 33  2  0
  3  4  2  0
  4  5  1  0
  5  6  1  0
  5  7  2  0
  7  8  1  0
 17 18  1  0
 18 13  1  0
  7  1  1  0
 33 23  1  0
 32 26  1  0
  9 10  1  0
M  END
> <minimizedAffinity>
-7.78130

> <CNNscore>
0.6046099067

> <CNNaffinity>
6.7728829384

> <CNN_VS>
4.0949521065

> <CNNaffinity_variance>
0.0003323419

$$$$



 33 36  0  0  0  0  0  0  0  0999 V2000
    8.1961   34.9473   52.4372 C   0  0  0  0  0  0  0  0  0  0  0  0
    7.0838   35.5131   52.9345 N   0  0  0  0  0  0  0  0  0  0  0  0
    6.3271   34.7812   53.7645 C   0  0  0  0  0  0  0  0  0  0  0  0
    6.5736   33.5294   54.1307 N   0  0  0  0  0  0  0  0  0  0  0  0
    7.6827   32.9954   53.6037 C   0  0  0  0  0  0  0  0  0  0  0  0
    7.9590   31.3870   54.1614 Cl  0  0  0  0  0  0  0  0  0  0  0  0
    8.5409   33.6334   52.7253 C   0  0  0  0  0  0  0  0  0  0  0  0
    9.7640   32.9698   52.1727 C   0  0  0  0  0  0  0  0  0  0  0  0
    9.0025   35.7014   51.5687 N   0  0  0  0  0  0  0  0  0  0  0  0
    8.8112   35.7752   50.6058 H   0  0  0  0  0  0  0  0  0  0  0  0
   10.1449   36.3694   52.1900 C   0  0  0  0  0  0  0  0  0  0  0  0
    9.0962   41.5431   52.8393 C   0  0  0  0  0  0  0  0  0  0  0  0
    9.3212   40.0837   53.0271 C   0  0  0  0  0  0  0  0  0  0  0  0
    9.2596   39.4659   54.1853 N   0  0  0  0  0  0  0  0  0  0  0  0
    9.5316   38.1156   54.0236 C   0  0  0  0  0  0  0  0  0  0  0  0
    9.5125   37.2394   55.2256 C   0  0  0  0  0  0  0  0  0  0  0  0
    9.7979   37.7276   52.7210 C   0  0  0  0  0  0  0  0  0  0  0  0
    9.6852   39.0855   51.6795 S   0  0  0  0  0  0  0  0  0  0  0  0
    5.1616   35.3140   54.2628 O   0  0  0  0  0  0  0  0  0  0  0  0
    4.6723   34.6510   55.4280 C   0  0  0  0  0  0  0  0  0  0  0  0
    5.4298   35.0867   56.6864 C   0  0  0  0  0  0  0  0  0  0  0  0
    5.2608   36.5708   57.0274 C   0  0  0  0  0  0  0  0  0  0  0  0
    6.2738   37.0613   58.0307 C   0  0  0  0  0  0  0  0  0  0  0  0
    7.3234   37.8824   57.6385 C   0  0  0  0  0  0  0  0  0  0  0  0
    8.2471   38.2867   58.5954 C   0  0  0  0  0  0  0  0  0  0  0  0
    8.1059   37.8599   59.9215 C   0  0  0  0  0  0  0  0  0  0  0  0
    9.0152   38.2409   60.9234 C   0  0  0  0  0  0  0  0  0  0  0  0
    8.8427   37.7857   62.2279 C   0  0  0  0  0  0  0  0  0  0  0  0
    9.9552   38.2533   63.4525 Cl  0  0  0  0  0  0  0  0  0  0  0  0
    7.7769   36.9511   62.5416 C   0  0  0  0  0  0  0  0  0  0  0  0
    6.8759   36.5781   61.5395 C   0  0  0  0  0  0  0  0  0  0  0  0
    7.0162   37.0195   60.2315 C   0  0  0  0  0  0  0  0  0  0  0  0
    6.1248   36.6307   59.3062 N   0  0  0  0  0  0  0  0  0  0  0  0
 12 13  1  0
 13 14  2  0
 14 15  1  0
 15 16  1  0
 15 17  2  0
 17 11  1  0
 11  9  1  0
  9  1  1  0
  1  2  2  0
  2  3  1  0
  3 19  1  0
 19 20  1  0
 20 21  1  0
 21 22  1  0
 22 23  1  0
 23 24  2  0
 24 25  1  0
 25 26  2  0
 26 27  1  0
 27 28  2  0
 28 29  1  0
 28 30  1  0
 30 31  2  0
 31 32  1  0
 32 33  2  0
  3  4  2  0
  4  5  1  0
  5  6  1  0
  5  7  2  0
  7  8  1  0
 17 18  1  0
 18 13  1  0
  7  1  1  0
 33 23  1  0
 32 26  1  0
  9 10  1  0
M  END
> <minimizedAffinity>
-7.78718

> <CNNscore>
0.5162762403

> <CNNaffinity>
7.6500220299

> <CNN_VS>
3.9495246410

> <CNNaffinity_variance>
0.0875169560

$$$$



 33 36  0  0  0  0  0  0  0  0999 V2000
    9.4722   39.7520   59.0876 C   0  0  0  0  0  0  0  0  0  0  0  0
    8.5975   39.0605   58.3386 N   0  0  0  0  0  0  0  0  0  0  0  0
    7.9559   38.0336   58.9140 C   0  0  0  0  0  0  0  0  0  0  0  0
    8.1209   37.6258   60.1663 N   0  0  0  0  0  0  0  0  0  0  0  0
    9.0107   38.3304   60.8766 C   0  0  0  0  0  0  0  0  0  0  0  0
    9.1352   37.7705   62.5030 Cl  0  0  0  0  0  0  0  0  0  0  0  0
    9.7500   39.3995   60.4017 C   0  0  0  0  0  0  0  0  0  0  0  0
   10.7323   40.1395   61.2559 C   0  0  0  0  0  0  0  0  0  0  0  0
   10.1506   40.8335   58.5015 N   0  0  0  0  0  0  0  0  0  0  0  0
   10.6767   41.4736   59.0331 H   0  0  0  0  0  0  0  0  0  0  0  0
   10.0233   40.9451   57.0494 C   0  0  0  0  0  0  0  0  0  0  0  0
   13.4997   44.8888   56.2438 C   0  0  0  0  0  0  0  0  0  0  0  0
   12.4564   43.8365   56.1035 C   0  0  0  0  0  0  0  0  0  0  0  0
   11.7945   43.5902   54.9953 N   0  0  0  0  0  0  0  0  0  0  0  0
   10.8860   42.5621   55.1978 C   0  0  0  0  0  0  0  0  0  0  0  0
   10.0341   42.1334   54.0561 C   0  0  0  0  0  0  0  0  0  0  0  0
   10.8771   42.0374   56.4795 C   0  0  0  0  0  0  0  0  0  0  0  0
   12.0474   42.8421   57.4410 S   0  0  0  0  0  0  0  0  0  0  0  0
    7.0816   37.2795   58.1673 O   0  0  0  0  0  0  0  0  0  0  0  0
    7.1334   37.5485   56.7668 C   0  0  0  0  0  0  0  0  0  0  0  0
    6.9771   36.2686   55.9392 C   0  0  0  0  0  0  0  0  0  0  0  0
    5.5895   35.6281   56.0466 C   0  0  0  0  0  0  0  0  0  0  0  0
    5.4177   34.4432   55.1302 C   0  0  0  0  0  0  0  0  0  0  0  0
    4.2124   34.2175   54.4775 C   0  0  0  0  0  0  0  0  0  0  0  0
    4.0943   33.0966   53.6639 C   0  0  0  0  0  0  0  0  0  0  0  0
    5.1797   32.2232   53.5224 C   0  0  0  0  0  0  0  0  0  0  0  0
    5.1074   31.0766   52.7126 C   0  0  0  0  0  0  0  0  0  0  0  0
    6.2075   30.2296   52.6077 C   0  0  0  0  0  0  0  0  0  0  0  0
    6.1181   28.8279   51.6162 Cl  0  0  0  0  0  0  0  0  0  0  0  0
    7.3756   30.5115   53.3056 C   0  0  0  0  0  0  0  0  0  0  0  0
    7.4399   31.6551   54.1077 C   0  0  0  0  0  0  0  0  0  0  0  0
    6.3636   32.5224   54.2286 C   0  0  0  0  0  0  0  0  0  0  0  0
    6.4759   33.6058   55.0132 N   0  0  0  0  0  0  0  0  0  0  0  0
 12 13  1  0
 13 14  2  0
 14 15  1  0
 15 16  1  0
 15 17  2  0
 17 11  1  0
 11  9  1  0
  9  1  1  0
  1  2  2  0
  2  3  1  0
  3 19  1  0
 19 20  1  0
 20 21  1  0
 21 22  1  0
 22 23  1  0
 23 24  2  0
 24 25  1  0
 25 26  2  0
 26 27  1  0
 27 28  2  0
 28 29  1  0
 28 30  1  0
 30 31  2  0
 31 32  1  0
 32 33  2  0
  3  4  2  0
  4  5  1  0
  5  6  1  0
  5  7  2  0
  7  8  1  0
 17 18  1  0
 18 13  1  0
  7  1  1  0
 33 23  1  0
 32 26  1  0
  9 10  1  0
M  END
> <minimizedAffinity>
-7.51838

> <CNNscore>
0.5098578930

> <CNNaffinity>
7.7032036781

> <CNN_VS>
3.9275391102

> <CNNaffinity_variance>
0.0573526435

$$$$



 33 36  0  0  0  0  0  0  0  0999 V2000
    8.1824   34.9819   52.5294 C   0  0  0  0  0  0  0  0  0  0  0  0
    7.0091   35.4905   52.9405 N   0  0  0  0  0  0  0  0  0  0  0  0
    6.2609   34.7475   53.7684 C   0  0  0  0  0  0  0  0  0  0  0  0
    6.5725   33.5354   54.2105 N   0  0  0  0  0  0  0  0  0  0  0  0
    7.7421   33.0567   53.7679 C   0  0  0  0  0  0  0  0  0  0  0  0
    8.0975   31.5007   54.4210 Cl  0  0  0  0  0  0  0  0  0  0  0  0
    8.6003   33.7112   52.9018 C   0  0  0  0  0  0  0  0  0  0  0  0
    9.8938   33.1102   52.4460 C   0  0  0  0  0  0  0  0  0  0  0  0
    8.9807   35.7488   51.6645 N   0  0  0  0  0  0  0  0  0  0  0  0
    8.9887   35.6040   50.6908 H   0  0  0  0  0  0  0  0  0  0  0  0
    9.7987   36.7762   52.3067 C   0  0  0  0  0  0  0  0  0  0  0  0
   14.5264   36.4100   49.8978 C   0  0  0  0  0  0  0  0  0  0  0  0
   13.2363   36.8747   50.4769 C   0  0  0  0  0  0  0  0  0  0  0  0
   12.8300   38.1245   50.4773 N   0  0  0  0  0  0  0  0  0  0  0  0
   11.5970   38.2276   51.1038 C   0  0  0  0  0  0  0  0  0  0  0  0
   10.9647   39.5701   51.2084 C   0  0  0  0  0  0  0  0  0  0  0  0
   11.0813   37.0313   51.5740 C   0  0  0  0  0  0  0  0  0  0  0  0
   12.1614   35.7516   51.2036 S   0  0  0  0  0  0  0  0  0  0  0  0
    5.0367   35.2195   54.1797 O   0  0  0  0  0  0  0  0  0  0  0  0
    4.5620   34.6259   55.3875 C   0  0  0  0  0  0  0  0  0  0  0  0
    5.3671   35.0966   56.6031 C   0  0  0  0  0  0  0  0  0  0  0  0
    5.2846   36.6059   56.8529 C   0  0  0  0  0  0  0  0  0  0  0  0
    6.2966   37.0900   57.8603 C   0  0  0  0  0  0  0  0  0  0  0  0
    7.3598   37.8946   57.4703 C   0  0  0  0  0  0  0  0  0  0  0  0
    8.2817   38.2934   58.4313 C   0  0  0  0  0  0  0  0  0  0  0  0
    8.1253   37.8774   59.7592 C   0  0  0  0  0  0  0  0  0  0  0  0
    9.0322   38.2533   60.7651 C   0  0  0  0  0  0  0  0  0  0  0  0
    8.8444   37.8093   62.0713 C   0  0  0  0  0  0  0  0  0  0  0  0
    9.9539   38.2706   63.3010 Cl  0  0  0  0  0  0  0  0  0  0  0  0
    7.7655   36.9908   62.3828 C   0  0  0  0  0  0  0  0  0  0  0  0
    6.8669   36.6228   61.3766 C   0  0  0  0  0  0  0  0  0  0  0  0
    7.0225   37.0534   60.0668 C   0  0  0  0  0  0  0  0  0  0  0  0
    6.1328   36.6700   59.1375 N   0  0  0  0  0  0  0  0  0  0  0  0
 12 13  1  0
 13 14  2  0
 14 15  1  0
 15 16  1  0
 15 17  2  0
 17 11  1  0
 11  9  1  0
  9  1  1  0
  1  2  2  0
  2  3  1  0
  3 19  1  0
 19 20  1  0
 20 21  1  0
 21 22  1  0
 22 23  1  0
 23 24  2  0
 24 25  1  0
 25 26  2  0
 26 27  1  0
 27 28  2  0
 28 29  1  0
 28 30  1  0
 30 31  2  0
 31 32  1  0
 32 33  2  0
  3  4  2  0
  4  5  1  0
  5  6  1  0
  5  7  2  0
  7  8  1  0
 17 18  1  0
 18 13  1  0
  7  1  1  0
 33 23  1  0
 32 26  1  0
  9 10  1  0
M  END
> <minimizedAffinity>
-7.53596

> <CNNscore>
0.4289239049

> <CNNaffinity>
7.4366011620

> <CNN_VS>
3.1897361279

> <CNNaffinity_variance>
0.0633847341

$$$$
