


 30 31  0  0  0  0  0  0  0  0999 V2000
   29.1453    2.0364    5.0958 C   0  0  0  0  0  0  0  0  0  0  0  0
   29.6364    2.9401    5.7695 O   0  0  0  0  0  0  0  0  0  0  0  0
   28.0807    2.2116    4.2155 N   0  0  0  0  0  0  0  0  0  0  0  0
   27.7780    1.4087    3.7330 H   0  0  0  0  0  0  0  0  0  0  0  0
   27.3851    3.4084    3.9350 C   0  0  0  0  0  0  0  0  0  0  0  0
   27.9820    4.5721    3.4536 C   0  0  0  0  0  0  0  0  0  0  0  0
   27.2149    5.7164    3.2049 C   0  0  0  0  0  0  0  0  0  0  0  0
   25.8348    5.7165    3.4354 C   0  0  0  0  0  0  0  0  0  0  0  0
   25.2143    4.5550    3.9216 C   0  0  0  0  0  0  0  0  0  0  0  0
   26.0024    3.4103    4.1665 C   0  0  0  0  0  0  0  0  0  0  0  0
   23.7281    4.5208    4.1823 C   0  0  0  0  0  0  0  0  0  0  0  0
   23.1829    5.7621    4.2653 F   0  0  0  0  0  0  0  0  0  0  0  0
   23.4168    3.8778    5.3382 F   0  0  0  0  0  0  0  0  0  0  0  0
   23.0319    3.8759    3.2036 F   0  0  0  0  0  0  0  0  0  0  0  0
   25.0897    6.9152    3.1668 C   0  0  0  0  0  0  0  0  0  0  0  0
   24.4868    7.8821    2.9523 N   0  0  0  0  0  0  0  0  0  0  0  0
   29.6660    0.5613    5.2059 C   0  0  0  0  0  0  0  0  0  0  0  0
   28.5032   -0.4104    4.9309 C   0  0  0  0  0  0  0  0  0  0  0  0
   30.2026   -0.6849    3.1816 C   0  0  0  0  0  0  0  0  0  0  0  0
   30.6185    0.2376    4.1769 O   0  0  0  0  0  0  0  0  0  0  0  0
   30.2217    0.3457    6.6375 C   0  0  0  0  0  0  0  0  0  0  0  0
   29.8389    1.4348    7.4836 O   0  0  0  0  0  0  0  0  0  0  0  0
   29.5656    1.1567    8.7927 C   0  0  0  0  0  0  0  0  0  0  0  0
   28.4465    1.5875    9.5098 C   0  0  0  0  0  0  0  0  0  0  0  0
   28.2894    1.2261   10.8541 C   0  0  0  0  0  0  0  0  0  0  0  0
   29.2503    0.4338   11.4812 C   0  0  0  0  0  0  0  0  0  0  0  0
   29.0424   -0.0033   13.1322 Cl  0  0  0  0  0  0  0  0  0  0  0  0
   30.3637    0.0069   10.7643 C   0  0  0  0  0  0  0  0  0  0  0  0
   31.3015   -0.7563   11.3447 F   0  0  0  0  0  0  0  0  0  0  0  0
   30.5242    0.3641    9.4285 C   0  0  0  0  0  0  0  0  0  0  0  0
 19 20  1  0
 20 17  1  0
 17 18  1  0
 17 21  1  0
 21 22  1  0
 22 23  1  0
 23 24  2  0
 24 25  1  0
 25 26  2  0
 26 27  1  0
 26 28  1  0
 28 29  1  0
 28 30  2  0
 17  1  1  0
  1  2  2  0
  1  3  1  0
  3  5  1  0
  5  6  2  0
  6  7  1  0
  7  8  2  0
  8 15  1  0
 15 16  3  0
  8  9  1  0
  9 11  1  0
 11 12  1  0
 11 13  1  0
 11 14  1  0
  9 10  2  0
 30 23  1  0
 10  5  1  0
  3  4  1  0
M  END
> <minimizedAffinity>
-10.07160

> <CNNscore>
0.9067562819

> <CNNaffinity>
8.0496053696

> <CNN_VS>
7.2990303040

> <CNNaffinity_variance>
0.1315958202

$$$$



 30 31  0  0  0  0  0  0  0  0999 V2000
   29.1044    1.7781    4.0925 C   0  0  0  0  0  0  0  0  0  0  0  0
   29.8970    2.6635    4.4080 O   0  0  0  0  0  0  0  0  0  0  0  0
   27.8078    2.0169    3.6447 N   0  0  0  0  0  0  0  0  0  0  0  0
   27.2705    1.2224    3.4227 H   0  0  0  0  0  0  0  0  0  0  0  0
   27.1744    3.2675    3.4722 C   0  0  0  0  0  0  0  0  0  0  0  0
   27.8050    4.4086    2.9798 C   0  0  0  0  0  0  0  0  0  0  0  0
   27.0998    5.6102    2.8437 C   0  0  0  0  0  0  0  0  0  0  0  0
   25.7492    5.6914    3.2001 C   0  0  0  0  0  0  0  0  0  0  0  0
   25.0958    4.5538    3.6996 C   0  0  0  0  0  0  0  0  0  0  0  0
   25.8214    3.3506    3.8299 C   0  0  0  0  0  0  0  0  0  0  0  0
   23.6400    4.6065    4.0945 C   0  0  0  0  0  0  0  0  0  0  0  0
   23.4019    4.0161    5.2945 F   0  0  0  0  0  0  0  0  0  0  0  0
   22.8323    3.9944    3.1893 F   0  0  0  0  0  0  0  0  0  0  0  0
   23.1663    5.8797    4.2085 F   0  0  0  0  0  0  0  0  0  0  0  0
   25.0679    6.9466    3.0441 C   0  0  0  0  0  0  0  0  0  0  0  0
   24.5160    7.9584    2.9168 N   0  0  0  0  0  0  0  0  0  0  0  0
   29.4859    0.2616    4.2106 C   0  0  0  0  0  0  0  0  0  0  0  0
   28.2000   -0.5851    4.2459 C   0  0  0  0  0  0  0  0  0  0  0  0
   30.4693   -1.6113    3.0007 C   0  0  0  0  0  0  0  0  0  0  0  0
   30.1704   -0.2244    3.0417 O   0  0  0  0  0  0  0  0  0  0  0  0
   30.2982    0.0631    5.5166 C   0  0  0  0  0  0  0  0  0  0  0  0
   30.0332    1.1338    6.4289 O   0  0  0  0  0  0  0  0  0  0  0  0
   29.9060    0.8234    7.7530 C   0  0  0  0  0  0  0  0  0  0  0  0
   30.5677   -0.2080    8.4243 C   0  0  0  0  0  0  0  0  0  0  0  0
   30.3443   -0.4156    9.7915 C   0  0  0  0  0  0  0  0  0  0  0  0
   29.4599    0.4076   10.4876 C   0  0  0  0  0  0  0  0  0  0  0  0
   29.1973    0.1412   12.1669 Cl  0  0  0  0  0  0  0  0  0  0  0  0
   28.8023    1.4334    9.8160 C   0  0  0  0  0  0  0  0  0  0  0  0
   27.9475    2.2391   10.4633 F   0  0  0  0  0  0  0  0  0  0  0  0
   29.0210    1.6431    8.4573 C   0  0  0  0  0  0  0  0  0  0  0  0
 19 20  1  0
 20 17  1  0
 17 18  1  0
 17 21  1  0
 21 22  1  0
 22 23  1  0
 23 24  2  0
 24 25  1  0
 25 26  2  0
 26 27  1  0
 26 28  1  0
 28 29  1  0
 28 30  2  0
 17  1  1  0
  1  2  2  0
  1  3  1  0
  3  5  1  0
  5  6  2  0
  6  7  1  0
  7  8  2  0
  8 15  1  0
 15 16  3  0
  8  9  1  0
  9 11  1  0
 11 12  1  0
 11 13  1  0
 11 14  1  0
  9 10  2  0
 30 23  1  0
 10  5  1  0
  3  4  1  0
M  END
> <minimizedAffinity>
-9.89341

> <CNNscore>
0.8771541715

> <CNNaffinity>
8.0331010818

> <CNN_VS>
7.0462679863

> <CNNaffinity_variance>
0.0615899973

$$$$



 30 31  0  0  0  0  0  0  0  0999 V2000
   28.8163    0.1023    4.7032 C   0  0  0  0  0  0  0  0  0  0  0  0
   27.8090   -0.5372    4.9996 O   0  0  0  0  0  0  0  0  0  0  0  0
   29.6266    0.7526    5.6302 N   0  0  0  0  0  0  0  0  0  0  0  0
   30.4062    1.2316    5.2668 H   0  0  0  0  0  0  0  0  0  0  0  0
   29.4593    0.8044    7.0316 C   0  0  0  0  0  0  0  0  0  0  0  0
   29.0744    1.9428    7.7375 C   0  0  0  0  0  0  0  0  0  0  0  0
   28.9350    1.9050    9.1299 C   0  0  0  0  0  0  0  0  0  0  0  0
   29.1802    0.7256    9.8417 C   0  0  0  0  0  0  0  0  0  0  0  0
   29.5703   -0.4318    9.1498 C   0  0  0  0  0  0  0  0  0  0  0  0
   29.7056   -0.3763    7.7463 C   0  0  0  0  0  0  0  0  0  0  0  0
   29.8438   -1.7205    9.8864 C   0  0  0  0  0  0  0  0  0  0  0  0
   30.6687   -1.5490   10.9519 F   0  0  0  0  0  0  0  0  0  0  0  0
   30.4187   -2.6619    9.0929 F   0  0  0  0  0  0  0  0  0  0  0  0
   28.7135   -2.2984   10.3832 F   0  0  0  0  0  0  0  0  0  0  0  0
   29.0254    0.7360   11.2701 C   0  0  0  0  0  0  0  0  0  0  0  0
   28.8983    0.7427   12.4226 N   0  0  0  0  0  0  0  0  0  0  0  0
   29.2615    0.2774    3.2098 C   0  0  0  0  0  0  0  0  0  0  0  0
   30.6214    0.9989    3.1657 C   0  0  0  0  0  0  0  0  0  0  0  0
   30.5900   -1.7630    3.1039 C   0  0  0  0  0  0  0  0  0  0  0  0
   29.5336   -0.9813    2.5675 O   0  0  0  0  0  0  0  0  0  0  0  0
   28.1831    1.1142    2.4740 C   0  0  0  0  0  0  0  0  0  0  0  0
   28.2687    2.4866    2.8714 O   0  0  0  0  0  0  0  0  0  0  0  0
   27.1055    3.1320    3.1814 C   0  0  0  0  0  0  0  0  0  0  0  0
   26.9865    4.4607    3.5969 C   0  0  0  0  0  0  0  0  0  0  0  0
   25.7251    4.9991    3.8825 C   0  0  0  0  0  0  0  0  0  0  0  0
   24.5831    4.2097    3.7525 C   0  0  0  0  0  0  0  0  0  0  0  0
   23.0408    4.8857    4.1053 Cl  0  0  0  0  0  0  0  0  0  0  0  0
   24.7052    2.8869    3.3389 C   0  0  0  0  0  0  0  0  0  0  0  0
   23.6219    2.1075    3.2056 F   0  0  0  0  0  0  0  0  0  0  0  0
   25.9566    2.3476    3.0545 C   0  0  0  0  0  0  0  0  0  0  0  0
 19 20  1  0
 20 17  1  0
 17 18  1  0
 17 21  1  0
 21 22  1  0
 22 23  1  0
 23 24  2  0
 24 25  1  0
 25 26  2  0
 26 27  1  0
 26 28  1  0
 28 29  1  0
 28 30  2  0
 17  1  1  0
  1  2  2  0
  1  3  1  0
  3  5  1  0
  5  6  2  0
  6  7  1  0
  7  8  2  0
  8 15  1  0
 15 16  3  0
  8  9  1  0
  9 11  1  0
 11 12  1  0
 11 13  1  0
 11 14  1  0
  9 10  2  0
 30 23  1  0
 10  5  1  0
  3  4  1  0
M  END
> <minimizedAffinity>
-7.60905

> <CNNscore>
0.7235071659

> <CNNaffinity>
7.8892536163

> <CNN_VS>
5.7079315186

> <CNNaffinity_variance>
0.0774598047

$$$$



 30 31  0  0  0  0  0  0  0  0999 V2000
   29.1511    2.0005    6.6947 C   0  0  0  0  0  0  0  0  0  0  0  0
   28.9694    2.8161    7.5966 O   0  0  0  0  0  0  0  0  0  0  0  0
   28.6915    2.1662    5.3907 N   0  0  0  0  0  0  0  0  0  0  0  0
   28.9020    1.4407    4.7594 H   0  0  0  0  0  0  0  0  0  0  0  0
   27.9583    3.2548    4.8693 C   0  0  0  0  0  0  0  0  0  0  0  0
   28.5319    4.3932    4.3060 C   0  0  0  0  0  0  0  0  0  0  0  0
   27.7274    5.4281    3.8146 C   0  0  0  0  0  0  0  0  0  0  0  0
   26.3323    5.3424    3.8800 C   0  0  0  0  0  0  0  0  0  0  0  0
   25.7347    4.2049    4.4451 C   0  0  0  0  0  0  0  0  0  0  0  0
   26.5604    3.1708    4.9351 C   0  0  0  0  0  0  0  0  0  0  0  0
   24.2331    4.0802    4.5324 C   0  0  0  0  0  0  0  0  0  0  0  0
   23.8273    3.4139    5.6445 F   0  0  0  0  0  0  0  0  0  0  0  0
   23.7020    3.4249    3.4671 F   0  0  0  0  0  0  0  0  0  0  0  0
   23.6014    5.2876    4.5739 F   0  0  0  0  0  0  0  0  0  0  0  0
   25.5485    6.4305    3.3643 C   0  0  0  0  0  0  0  0  0  0  0  0
   24.9147    7.3068    2.9462 N   0  0  0  0  0  0  0  0  0  0  0  0
   29.9018    0.6488    6.9561 C   0  0  0  0  0  0  0  0  0  0  0  0
   30.9201    0.8445    8.0948 C   0  0  0  0  0  0  0  0  0  0  0  0
   29.4157   -1.0095    8.6744 C   0  0  0  0  0  0  0  0  0  0  0  0
   29.0276   -0.3744    7.4659 O   0  0  0  0  0  0  0  0  0  0  0  0
   30.6269    0.2329    5.6500 C   0  0  0  0  0  0  0  0  0  0  0  0
   29.8139   -0.6792    4.9044 O   0  0  0  0  0  0  0  0  0  0  0  0
   28.9355   -0.1539    3.9998 C   0  0  0  0  0  0  0  0  0  0  0  0
   29.2666    0.4338    2.7762 C   0  0  0  0  0  0  0  0  0  0  0  0
   28.2602    0.9338    1.9398 C   0  0  0  0  0  0  0  0  0  0  0  0
   26.9233    0.8460    2.3261 C   0  0  0  0  0  0  0  0  0  0  0  0
   25.6986    1.4630    1.2872 Cl  0  0  0  0  0  0  0  0  0  0  0  0
   26.5971    0.2605    3.5454 C   0  0  0  0  0  0  0  0  0  0  0  0
   25.3188    0.1636    3.9392 F   0  0  0  0  0  0  0  0  0  0  0  0
   27.5940   -0.2372    4.3799 C   0  0  0  0  0  0  0  0  0  0  0  0
 19 20  1  0
 20 17  1  0
 17 18  1  0
 17 21  1  0
 21 22  1  0
 22 23  1  0
 23 24  2  0
 24 25  1  0
 25 26  2  0
 26 27  1  0
 26 28  1  0
 28 29  1  0
 28 30  2  0
 17  1  1  0
  1  2  2  0
  1  3  1  0
  3  5  1  0
  5  6  2  0
  6  7  1  0
  7  8  2  0
  8 15  1  0
 15 16  3  0
  8  9  1  0
  9 11  1  0
 11 12  1  0
 11 13  1  0
 11 14  1  0
  9 10  2  0
 30 23  1  0
 10  5  1  0
  3  4  1  0
M  END
> <minimizedAffinity>
-5.88705

> <CNNscore>
0.7154996991

> <CNNaffinity>
7.7180943489

> <CNN_VS>
5.5222940445

> <CNNaffinity_variance>
0.0589683205

$$$$



 30 31  0  0  0  0  0  0  0  0999 V2000
   28.6992    0.3940    4.7021 C   0  0  0  0  0  0  0  0  0  0  0  0
   27.7505   -0.3274    5.0039 O   0  0  0  0  0  0  0  0  0  0  0  0
   29.5515    0.9882    5.6292 N   0  0  0  0  0  0  0  0  0  0  0  0
   30.2755    1.5445    5.2610 H   0  0  0  0  0  0  0  0  0  0  0  0
   29.4972    0.8849    7.0367 C   0  0  0  0  0  0  0  0  0  0  0  0
   29.4407    1.9737    7.9048 C   0  0  0  0  0  0  0  0  0  0  0  0
   29.3917    1.7790    9.2903 C   0  0  0  0  0  0  0  0  0  0  0  0
   29.4000    0.4889    9.8321 C   0  0  0  0  0  0  0  0  0  0  0  0
   29.4580   -0.6213    8.9750 C   0  0  0  0  0  0  0  0  0  0  0  0
   29.5064   -0.4070    7.5812 C   0  0  0  0  0  0  0  0  0  0  0  0
   29.4696   -2.0264    9.5258 C   0  0  0  0  0  0  0  0  0  0  0  0
   28.5349   -2.8233    8.9457 F   0  0  0  0  0  0  0  0  0  0  0  0
   29.2396   -2.0630   10.8645 F   0  0  0  0  0  0  0  0  0  0  0  0
   30.6622   -2.6600    9.3400 F   0  0  0  0  0  0  0  0  0  0  0  0
   29.3500    0.3392   11.2602 C   0  0  0  0  0  0  0  0  0  0  0  0
   29.3073    0.2168   12.4124 N   0  0  0  0  0  0  0  0  0  0  0  0
   29.0121    0.7474    3.2067 C   0  0  0  0  0  0  0  0  0  0  0  0
   30.5079    1.0860    3.0663 C   0  0  0  0  0  0  0  0  0  0  0  0
   29.6289   -1.5319    2.6039 C   0  0  0  0  0  0  0  0  0  0  0  0
   28.8443   -0.3813    2.3298 O   0  0  0  0  0  0  0  0  0  0  0  0
   28.1430    1.9660    2.8012 C   0  0  0  0  0  0  0  0  0  0  0  0
   28.4502    3.0888    3.6340 O   0  0  0  0  0  0  0  0  0  0  0  0
   27.5626    4.1269    3.6536 C   0  0  0  0  0  0  0  0  0  0  0  0
   27.8163    5.4353    3.2339 C   0  0  0  0  0  0  0  0  0  0  0  0
   26.8094    6.4065    3.3080 C   0  0  0  0  0  0  0  0  0  0  0  0
   25.5493    6.0699    3.8011 C   0  0  0  0  0  0  0  0  0  0  0  0
   24.3225    7.2732    3.8842 Cl  0  0  0  0  0  0  0  0  0  0  0  0
   25.3002    4.7662    4.2186 C   0  0  0  0  0  0  0  0  0  0  0  0
   24.0964    4.4175    4.6959 F   0  0  0  0  0  0  0  0  0  0  0  0
   26.2979    3.7981    4.1472 C   0  0  0  0  0  0  0  0  0  0  0  0
 19 20  1  0
 20 17  1  0
 17 18  1  0
 17 21  1  0
 21 22  1  0
 22 23  1  0
 23 24  2  0
 24 25  1  0
 25 26  2  0
 26 27  1  0
 26 28  1  0
 28 29  1  0
 28 30  2  0
 17  1  1  0
  1  2  2  0
  1  3  1  0
  3  5  1  0
  5  6  2  0
  6  7  1  0
  7  8  2  0
  8 15  1  0
 15 16  3  0
  8  9  1  0
  9 11  1  0
 11 12  1  0
 11 13  1  0
 11 14  1  0
  9 10  2  0
 30 23  1  0
 10  5  1  0
  3  4  1  0
M  END
> <minimizedAffinity>
-8.17780

> <CNNscore>
0.6479172111

> <CNNaffinity>
7.6764202118

> <CNN_VS>
4.9736847878

> <CNNaffinity_variance>
0.0323610455

$$$$



 30 31  0  0  0  0  0  0  0  0999 V2000
   28.7439    0.1477    4.7075 C   0  0  0  0  0  0  0  0  0  0  0  0
   27.7712   -0.5316    5.0298 O   0  0  0  0  0  0  0  0  0  0  0  0
   29.6004    0.7623    5.6172 N   0  0  0  0  0  0  0  0  0  0  0  0
   30.3447    1.2798    5.2332 H   0  0  0  0  0  0  0  0  0  0  0  0
   29.5246    0.7290    7.0271 C   0  0  0  0  0  0  0  0  0  0  0  0
   29.3872    1.8559    7.8354 C   0  0  0  0  0  0  0  0  0  0  0  0
   29.3225    1.7307    9.2282 C   0  0  0  0  0  0  0  0  0  0  0  0
   29.3959    0.4732    9.8375 C   0  0  0  0  0  0  0  0  0  0  0  0
   29.5359   -0.6744    9.0414 C   0  0  0  0  0  0  0  0  0  0  0  0
   29.5990   -0.5301    7.6392 C   0  0  0  0  0  0  0  0  0  0  0  0
   29.6191   -2.0459    9.6658 C   0  0  0  0  0  0  0  0  0  0  0  0
   29.6541   -2.0015   11.0230 F   0  0  0  0  0  0  0  0  0  0  0  0
   30.7214   -2.7335    9.2675 F   0  0  0  0  0  0  0  0  0  0  0  0
   28.5566   -2.8391    9.3492 F   0  0  0  0  0  0  0  0  0  0  0  0
   29.3267    0.3950   11.2705 C   0  0  0  0  0  0  0  0  0  0  0  0
   29.2682    0.3309   12.4267 N   0  0  0  0  0  0  0  0  0  0  0  0
   29.0864    0.4192    3.2014 C   0  0  0  0  0  0  0  0  0  0  0  0
   30.4568    1.1160    3.1091 C   0  0  0  0  0  0  0  0  0  0  0  0
   30.2933   -1.6787    2.9167 C   0  0  0  0  0  0  0  0  0  0  0  0
   29.2819   -0.7959    2.4557 O   0  0  0  0  0  0  0  0  0  0  0  0
   27.9791    1.3263    2.6052 C   0  0  0  0  0  0  0  0  0  0  0  0
   28.3588    2.7022    2.7121 O   0  0  0  0  0  0  0  0  0  0  0  0
   27.3871    3.6062    3.0355 C   0  0  0  0  0  0  0  0  0  0  0  0
   26.0237    3.3348    3.1754 C   0  0  0  0  0  0  0  0  0  0  0  0
   25.1323    4.3613    3.5135 C   0  0  0  0  0  0  0  0  0  0  0  0
   25.6038    5.6584    3.7121 C   0  0  0  0  0  0  0  0  0  0  0  0
   24.4970    6.9080    4.1287 Cl  0  0  0  0  0  0  0  0  0  0  0  0
   26.9620    5.9253    3.5716 C   0  0  0  0  0  0  0  0  0  0  0  0
   27.4402    7.1643    3.7580 F   0  0  0  0  0  0  0  0  0  0  0  0
   27.8513    4.9084    3.2352 C   0  0  0  0  0  0  0  0  0  0  0  0
 19 20  1  0
 20 17  1  0
 17 18  1  0
 17 21  1  0
 21 22  1  0
 22 23  1  0
 23 24  2  0
 24 25  1  0
 25 26  2  0
 26 27  1  0
 26 28  1  0
 28 29  1  0
 28 30  2  0
 17  1  1  0
  1  2  2  0
  1  3  1  0
  3  5  1  0
  5  6  2  0
  6  7  1  0
  7  8  2  0
  8 15  1  0
 15 16  3  0
  8  9  1  0
  9 11  1  0
 11 12  1  0
 11 13  1  0
 11 14  1  0
  9 10  2  0
 30 23  1  0
 10  5  1  0
  3  4  1  0
M  END
> <minimizedAffinity>
-8.01722

> <CNNscore>
0.5533792973

> <CNNaffinity>
7.5524516106

> <CNN_VS>
4.1793704033

> <CNNaffinity_variance>
0.0758740604

$$$$



 30 31  0  0  0  0  0  0  0  0999 V2000
   32.1310    4.6210    7.8980 C   0  0  0  0  0  0  0  0  0  0  0  0
   31.2512    5.4196    8.2137 O   0  0  0  0  0  0  0  0  0  0  0  0
   31.9049    3.4691    7.1491 N   0  0  0  0  0  0  0  0  0  0  0  0
   32.6932    2.9099    6.9616 H   0  0  0  0  0  0  0  0  0  0  0  0
   30.6752    3.0103    6.6274 C   0  0  0  0  0  0  0  0  0  0  0  0
   29.9745    1.9088    7.1152 C   0  0  0  0  0  0  0  0  0  0  0  0
   28.7608    1.5219    6.5346 C   0  0  0  0  0  0  0  0  0  0  0  0
   28.2270    2.2309    5.4528 C   0  0  0  0  0  0  0  0  0  0  0  0
   28.9179    3.3425    4.9455 C   0  0  0  0  0  0  0  0  0  0  0  0
   30.1396    3.7191    5.5428 C   0  0  0  0  0  0  0  0  0  0  0  0
   28.3714    4.1291    3.7791 C   0  0  0  0  0  0  0  0  0  0  0  0
   27.1553    4.6751    4.0403 F   0  0  0  0  0  0  0  0  0  0  0  0
   28.2286    3.3707    2.6607 F   0  0  0  0  0  0  0  0  0  0  0  0
   29.1740    5.1701    3.4177 F   0  0  0  0  0  0  0  0  0  0  0  0
   26.9794    1.7949    4.8893 C   0  0  0  0  0  0  0  0  0  0  0  0
   25.9727    1.4408    4.4360 N   0  0  0  0  0  0  0  0  0  0  0  0
   33.6163    4.8184    8.3608 C   0  0  0  0  0  0  0  0  0  0  0  0
   34.0965    3.5470    9.0853 C   0  0  0  0  0  0  0  0  0  0  0  0
   35.5663    3.9686    7.1715 C   0  0  0  0  0  0  0  0  0  0  0  0
   34.5260    4.9309    7.2514 O   0  0  0  0  0  0  0  0  0  0  0  0
   33.6713    6.0375    9.3175 C   0  0  0  0  0  0  0  0  0  0  0  0
   34.8386    5.9639   10.1425 O   0  0  0  0  0  0  0  0  0  0  0  0
   35.2485    7.1075   10.7669 C   0  0  0  0  0  0  0  0  0  0  0  0
   35.5263    8.3292   10.1482 C   0  0  0  0  0  0  0  0  0  0  0  0
   35.9393    9.4280   10.9127 C   0  0  0  0  0  0  0  0  0  0  0  0
   36.0741    9.3059   12.2952 C   0  0  0  0  0  0  0  0  0  0  0  0
   36.5805   10.6649   13.2207 Cl  0  0  0  0  0  0  0  0  0  0  0  0
   35.7971    8.0878   12.9080 C   0  0  0  0  0  0  0  0  0  0  0  0
   35.9186    7.9452   14.2360 F   0  0  0  0  0  0  0  0  0  0  0  0
   35.3869    6.9931   12.1521 C   0  0  0  0  0  0  0  0  0  0  0  0
 19 20  1  0
 20 17  1  0
 17 18  1  0
 17 21  1  0
 21 22  1  0
 22 23  1  0
 23 24  2  0
 24 25  1  0
 25 26  2  0
 26 27  1  0
 26 28  1  0
 28 29  1  0
 28 30  2  0
 17  1  1  0
  1  2  2  0
  1  3  1  0
  3  5  1  0
  5  6  2  0
  6  7  1  0
  7  8  2  0
  8 15  1  0
 15 16  3  0
  8  9  1  0
  9 11  1  0
 11 12  1  0
 11 13  1  0
 11 14  1  0
  9 10  2  0
 30 23  1  0
 10  5  1  0
  3  4  1  0
M  END
> <minimizedAffinity>
34.80578

> <CNNscore>
0.5161106586

> <CNNaffinity>
6.4323077202

> <CNN_VS>
3.3197824955

> <CNNaffinity_variance>
0.6753012538

$$$$



 30 31  0  0  0  0  0  0  0  0999 V2000
   24.7044    7.6026    4.7296 C   0  0  0  0  0  0  0  0  0  0  0  0
   25.8697    7.7702    5.0839 O   0  0  0  0  0  0  0  0  0  0  0  0
   23.6638    8.4752    5.0371 N   0  0  0  0  0  0  0  0  0  0  0  0
   22.7740    8.2298    4.6944 H   0  0  0  0  0  0  0  0  0  0  0  0
   23.7373    9.6718    5.7837 C   0  0  0  0  0  0  0  0  0  0  0  0
   23.8536   10.9432    5.2248 C   0  0  0  0  0  0  0  0  0  0  0  0
   23.9229   12.0776    6.0421 C   0  0  0  0  0  0  0  0  0  0  0  0
   23.8785   11.9591    7.4356 C   0  0  0  0  0  0  0  0  0  0  0  0
   23.7632   10.6874    8.0187 C   0  0  0  0  0  0  0  0  0  0  0  0
   23.6940    9.5546    7.1801 C   0  0  0  0  0  0  0  0  0  0  0  0
   23.7136   10.5234    9.5182 C   0  0  0  0  0  0  0  0  0  0  0  0
   24.1845    9.3171    9.9283 F   0  0  0  0  0  0  0  0  0  0  0  0
   22.4539   10.6416   10.0137 F   0  0  0  0  0  0  0  0  0  0  0  0
   24.4578   11.4549   10.1793 F   0  0  0  0  0  0  0  0  0  0  0  0
   23.9546   13.1519    8.2330 C   0  0  0  0  0  0  0  0  0  0  0  0
   24.0177   14.1156    8.8747 N   0  0  0  0  0  0  0  0  0  0  0  0
   24.2742    6.3348    3.9130 C   0  0  0  0  0  0  0  0  0  0  0  0
   22.7453    6.1702    3.9972 C   0  0  0  0  0  0  0  0  0  0  0  0
   25.5687    7.3519    2.1162 C   0  0  0  0  0  0  0  0  0  0  0  0
   24.5140    6.4838    2.5019 O   0  0  0  0  0  0  0  0  0  0  0  0
   24.9840    5.0981    4.5225 C   0  0  0  0  0  0  0  0  0  0  0  0
   24.9417    4.0027    3.6020 O   0  0  0  0  0  0  0  0  0  0  0  0
   26.0790    3.2633    3.4418 C   0  0  0  0  0  0  0  0  0  0  0  0
   26.2554    2.2082    2.5430 C   0  0  0  0  0  0  0  0  0  0  0  0
   27.4812    1.5328    2.4814 C   0  0  0  0  0  0  0  0  0  0  0  0
   28.5304    1.9123    3.3177 C   0  0  0  0  0  0  0  0  0  0  0  0
   30.0304    1.0743    3.2292 Cl  0  0  0  0  0  0  0  0  0  0  0  0
   28.3512    2.9630    4.2120 C   0  0  0  0  0  0  0  0  0  0  0  0
   29.3452    3.3472    5.0264 F   0  0  0  0  0  0  0  0  0  0  0  0
   27.1347    3.6366    4.2769 C   0  0  0  0  0  0  0  0  0  0  0  0
 19 20  1  0
 20 17  1  0
 17 18  1  0
 17 21  1  0
 21 22  1  0
 22 23  1  0
 23 24  2  0
 24 25  1  0
 25 26  2  0
 26 27  1  0
 26 28  1  0
 28 29  1  0
 28 30  2  0
 17  1  1  0
  1  2  2  0
  1  3  1  0
  3  5  1  0
  5  6  2  0
  6  7  1  0
  7  8  2  0
  8 15  1  0
 15 16  3  0
  8  9  1  0
  9 11  1  0
 11 12  1  0
 11 13  1  0
 11 14  1  0
  9 10  2  0
 30 23  1  0
 10  5  1  0
  3  4  1  0
M  END
> <minimizedAffinity>
6.17421

> <CNNscore>
0.4539967179

> <CNNaffinity>
6.7103042603

> <CNN_VS>
3.0464560986

> <CNNaffinity_variance>
0.0662251860

$$$$



 30 31  0  0  0  0  0  0  0  0999 V2000
   34.8946    5.7259   11.3376 C   0  0  0  0  0  0  0  0  0  0  0  0
   34.9490    5.8541   10.1160 O   0  0  0  0  0  0  0  0  0  0  0  0
   35.4177    6.6471   12.2413 N   0  0  0  0  0  0  0  0  0  0  0  0
   35.3101    6.4301   13.1956 H   0  0  0  0  0  0  0  0  0  0  0  0
   36.0848    7.8566   11.9471 C   0  0  0  0  0  0  0  0  0  0  0  0
   36.8620    8.0711   10.8103 C   0  0  0  0  0  0  0  0  0  0  0  0
   37.4912    9.3037   10.5991 C   0  0  0  0  0  0  0  0  0  0  0  0
   37.3547   10.3445   11.5243 C   0  0  0  0  0  0  0  0  0  0  0  0
   36.5775   10.1484   12.6767 C   0  0  0  0  0  0  0  0  0  0  0  0
   35.9498    8.9000   12.8737 C   0  0  0  0  0  0  0  0  0  0  0  0
   36.4099   11.2491   13.6957 C   0  0  0  0  0  0  0  0  0  0  0  0
   37.5480   11.4903   14.3969 F   0  0  0  0  0  0  0  0  0  0  0  0
   35.4396   10.9728   14.6059 F   0  0  0  0  0  0  0  0  0  0  0  0
   36.0606   12.4421   13.1362 F   0  0  0  0  0  0  0  0  0  0  0  0
   38.0206   11.5909   11.2651 C   0  0  0  0  0  0  0  0  0  0  0  0
   38.5593   12.5967   11.0585 N   0  0  0  0  0  0  0  0  0  0  0  0
   34.2488    4.4581   11.9969 C   0  0  0  0  0  0  0  0  0  0  0  0
   35.2507    3.8326   12.9852 C   0  0  0  0  0  0  0  0  0  0  0  0
   33.4064    5.2843   14.1292 C   0  0  0  0  0  0  0  0  0  0  0  0
   33.1227    4.7868   12.8305 O   0  0  0  0  0  0  0  0  0  0  0  0
   33.8985    3.4487   10.8731 C   0  0  0  0  0  0  0  0  0  0  0  0
   33.8270    2.1225   11.4069 O   0  0  0  0  0  0  0  0  0  0  0  0
   32.7539    1.3535   11.0564 C   0  0  0  0  0  0  0  0  0  0  0  0
   32.0616    0.4751   11.8939 C   0  0  0  0  0  0  0  0  0  0  0  0
   30.9720   -0.2552   11.4023 C   0  0  0  0  0  0  0  0  0  0  0  0
   30.5742   -0.1073   10.0741 C   0  0  0  0  0  0  0  0  0  0  0  0
   29.2329   -1.0098    9.4855 Cl  0  0  0  0  0  0  0  0  0  0  0  0
   31.2660    0.7679    9.2427 C   0  0  0  0  0  0  0  0  0  0  0  0
   30.9025    0.9283    7.9617 F   0  0  0  0  0  0  0  0  0  0  0  0
   32.3497    1.4953    9.7268 C   0  0  0  0  0  0  0  0  0  0  0  0
 19 20  1  0
 20 17  1  0
 17 18  1  0
 17 21  1  0
 21 22  1  0
 22 23  1  0
 23 24  2  0
 24 25  1  0
 25 26  2  0
 26 27  1  0
 26 28  1  0
 28 29  1  0
 28 30  2  0
 17  1  1  0
  1  2  2  0
  1  3  1  0
  3  5  1  0
  5  6  2  0
  6  7  1  0
  7  8  2  0
  8 15  1  0
 15 16  3  0
  8  9  1  0
  9 11  1  0
 11 12  1  0
 11 13  1  0
 11 14  1  0
  9 10  2  0
 30 23  1  0
 10  5  1  0
  3  4  1  0
M  END
> <minimizedAffinity>
27.63625

> <CNNscore>
0.4487710297

> <CNNaffinity>
5.8872933388

> <CNN_VS>
2.6420466900

> <CNNaffinity_variance>
0.0719435140

$$$$
