


 21 21  0  0  0  0  0  0  0  0999 V2000
   33.1972   42.7483  -10.4250 C   0  0  0  0  0  0  0  0  0  0  0  0
   33.9716   42.4662   -8.0808 C   0  0  0  0  0  0  0  0  0  0  0  0
   33.1217   43.2374   -7.6470 O   0  0  0  0  0  0  0  0  0  0  0  0
   34.1421   42.2201   -9.4296 N   0  0  0  0  0  0  0  0  0  0  0  0
   34.9097   41.6816   -9.7296 H   0  0  0  0  0  0  0  0  0  0  0  0
   34.9481   41.7449   -7.1921 C   0  0  0  0  0  0  0  0  0  0  0  0
   35.3417   42.9240   -5.1130 O   0  0  0  0  0  0  0  0  0  0  0  0
   35.6724   42.6556   -6.2566 C   0  0  0  0  0  0  0  0  0  0  0  0
   36.7300   43.2710   -6.8222 O   0  0  0  0  0  0  0  0  0  0  0  0
   36.9796   43.0611   -7.7006 H   0  0  0  0  0  0  0  0  0  0  0  0
   33.7125   44.1000  -10.9559 C   0  0  0  0  0  0  0  0  0  0  0  0
   32.4561   45.0805  -11.8349 S   0  0  0  0  0  0  0  0  0  0  0  0
   32.0371   44.3991  -12.9348 H   0  0  0  0  0  0  0  0  0  0  0  0
   32.8812   41.6938  -11.5168 C   0  0  0  0  0  0  0  0  0  0  0  0
   31.5561   40.9803  -11.3518 C   0  0  0  0  0  0  0  0  0  0  0  0
   31.4289   39.9256  -10.4353 C   0  0  0  0  0  0  0  0  0  0  0  0
   30.2143   39.2525  -10.2903 C   0  0  0  0  0  0  0  0  0  0  0  0
   29.1173   39.6350  -11.0581 C   0  0  0  0  0  0  0  0  0  0  0  0
   27.4728   38.7237  -10.8646 Br  0  0  0  0  0  0  0  0  0  0  0  0
   29.2228   40.6875  -11.9644 C   0  0  0  0  0  0  0  0  0  0  0  0
   30.4384   41.3602  -12.1079 C   0  0  0  0  0  0  0  0  0  0  0  0
  7  8  2  0
  8  9  1  0
  8  6  1  0
  6  2  1  0
  2  3  2  0
  2  4  1  0
  4  1  1  0
  1 11  1  0
 11 12  1  0
  1 14  1  0
 14 15  1  0
 15 16  2  0
 16 17  1  0
 17 18  2  0
 18 19  1  0
 18 20  1  0
 20 21  2  0
 21 15  1  0
  9 10  1  0
  4  5  1  0
 12 13  1  0
M  END
> <minimizedAffinity>
-6.03333

> <CNNscore>
0.7346677184

> <CNNaffinity>
4.8874468803

> <CNN_VS>
3.5906493664

> <CNNaffinity_variance>
0.3257939517

$$$$



 21 21  0  0  0  0  0  0  0  0999 V2000
   33.7556   40.2539   -8.7577 C   0  0  0  0  0  0  0  0  0  0  0  0
   31.8173   38.7021   -8.6603 C   0  0  0  0  0  0  0  0  0  0  0  0
   31.0971   39.4711   -9.2890 O   0  0  0  0  0  0  0  0  0  0  0  0
   33.1069   39.0228   -8.2822 N   0  0  0  0  0  0  0  0  0  0  0  0
   33.6003   38.4164   -7.6838 H   0  0  0  0  0  0  0  0  0  0  0  0
   31.3546   37.3484   -8.1944 C   0  0  0  0  0  0  0  0  0  0  0  0
   32.6464   37.4274   -6.1467 O   0  0  0  0  0  0  0  0  0  0  0  0
   32.1848   36.7957   -7.0833 C   0  0  0  0  0  0  0  0  0  0  0  0
   32.4864   35.4913   -7.2399 O   0  0  0  0  0  0  0  0  0  0  0  0
   32.1291   35.0111   -7.9608 H   0  0  0  0  0  0  0  0  0  0  0  0
   35.1404   40.3934   -8.0965 C   0  0  0  0  0  0  0  0  0  0  0  0
   35.1258   41.3203   -6.5302 S   0  0  0  0  0  0  0  0  0  0  0  0
   34.7084   42.5939   -6.7610 H   0  0  0  0  0  0  0  0  0  0  0  0
   33.7595   40.3266  -10.3064 C   0  0  0  0  0  0  0  0  0  0  0  0
   33.5167   41.7057  -10.8822 C   0  0  0  0  0  0  0  0  0  0  0  0
   33.0388   41.8517  -12.1932 C   0  0  0  0  0  0  0  0  0  0  0  0
   32.8287   43.1207  -12.7360 C   0  0  0  0  0  0  0  0  0  0  0  0
   33.0903   44.2521  -11.9672 C   0  0  0  0  0  0  0  0  0  0  0  0
   32.8082   45.9710  -12.7009 Br  0  0  0  0  0  0  0  0  0  0  0  0
   33.5541   44.1252  -10.6599 C   0  0  0  0  0  0  0  0  0  0  0  0
   33.7632   42.8549  -10.1183 C   0  0  0  0  0  0  0  0  0  0  0  0
  7  8  2  0
  8  9  1  0
  8  6  1  0
  6  2  1  0
  2  3  2  0
  2  4  1  0
  4  1  1  0
  1 11  1  0
 11 12  1  0
  1 14  1  0
 14 15  1  0
 15 16  2  0
 16 17  1  0
 17 18  2  0
 18 19  1  0
 18 20  1  0
 20 21  2  0
 21 15  1  0
  9 10  1  0
  4  5  1  0
 12 13  1  0
M  END
> <minimizedAffinity>
-5.39747

> <CNNscore>
0.6441048384

> <CNNaffinity>
5.2374968529

> <CNN_VS>
3.3734970093

> <CNNaffinity_variance>
0.0574843772

$$$$



 21 21  0  0  0  0  0  0  0  0999 V2000
   39.6841   37.8617   -2.0937 C   0  0  0  0  0  0  0  0  0  0  0  0
   39.8736   35.6978   -0.8869 C   0  0  0  0  0  0  0  0  0  0  0  0
   40.1051   36.2501    0.1840 O   0  0  0  0  0  0  0  0  0  0  0  0
   39.7305   36.3920   -2.0728 N   0  0  0  0  0  0  0  0  0  0  0  0
   39.6583   35.8939   -2.9190 H   0  0  0  0  0  0  0  0  0  0  0  0
   39.7690   34.2037   -1.0282 C   0  0  0  0  0  0  0  0  0  0  0  0
   38.4119   33.1722    0.6929 O   0  0  0  0  0  0  0  0  0  0  0  0
   39.5046   33.5096    0.2670 C   0  0  0  0  0  0  0  0  0  0  0  0
   40.6090   33.3519    1.0236 O   0  0  0  0  0  0  0  0  0  0  0  0
   41.4455   33.6127    0.6916 H   0  0  0  0  0  0  0  0  0  0  0  0
   40.9260   38.4046   -2.8267 C   0  0  0  0  0  0  0  0  0  0  0  0
   40.9579   38.0345   -4.6085 S   0  0  0  0  0  0  0  0  0  0  0  0
   40.9938   36.6873   -4.7911 H   0  0  0  0  0  0  0  0  0  0  0  0
   38.3263   38.3748   -2.6384 C   0  0  0  0  0  0  0  0  0  0  0  0
   38.0067   39.8163   -2.3031 C   0  0  0  0  0  0  0  0  0  0  0  0
   37.3779   40.1388   -1.0911 C   0  0  0  0  0  0  0  0  0  0  0  0
   37.0653   41.4642   -0.7830 C   0  0  0  0  0  0  0  0  0  0  0  0
   37.3855   42.4761   -1.6845 C   0  0  0  0  0  0  0  0  0  0  0  0
   36.9614   44.2708   -1.2703 Br  0  0  0  0  0  0  0  0  0  0  0  0
   38.0203   42.1750   -2.8873 C   0  0  0  0  0  0  0  0  0  0  0  0
   38.3328   40.8486   -3.1936 C   0  0  0  0  0  0  0  0  0  0  0  0
  7  8  2  0
  8  9  1  0
  8  6  1  0
  6  2  1  0
  2  3  2  0
  2  4  1  0
  4  1  1  0
  1 11  1  0
 11 12  1  0
  1 14  1  0
 14 15  1  0
 15 16  2  0
 16 17  1  0
 17 18  2  0
 18 19  1  0
 18 20  1  0
 20 21  2  0
 21 15  1  0
  9 10  1  0
  4  5  1  0
 12 13  1  0
M  END
> <minimizedAffinity>
-4.44033

> <CNNscore>
0.5965375304

> <CNNaffinity>
4.5156006813

> <CNN_VS>
2.6937253475

> <CNNaffinity_variance>
0.0238872841

$$$$



 21 21  0  0  0  0  0  0  0  0999 V2000
   33.2243   41.9580   -8.9702 C   0  0  0  0  0  0  0  0  0  0  0  0
   35.0650   41.2112   -7.4774 C   0  0  0  0  0  0  0  0  0  0  0  0
   35.6793   40.6884   -8.4019 O   0  0  0  0  0  0  0  0  0  0  0  0
   33.8201   41.7889   -7.6365 N   0  0  0  0  0  0  0  0  0  0  0  0
   33.3231   42.0928   -6.8428 H   0  0  0  0  0  0  0  0  0  0  0  0
   35.5823   41.2352   -6.0649 C   0  0  0  0  0  0  0  0  0  0  0  0
   36.0396   43.0746   -4.5565 O   0  0  0  0  0  0  0  0  0  0  0  0
   36.1261   42.5662   -5.6625 C   0  0  0  0  0  0  0  0  0  0  0  0
   36.6724   43.2517   -6.6866 O   0  0  0  0  0  0  0  0  0  0  0  0
   36.7363   42.8565   -7.5337 H   0  0  0  0  0  0  0  0  0  0  0  0
   33.8033   43.2218   -9.6352 C   0  0  0  0  0  0  0  0  0  0  0  0
   33.3381   43.4208  -11.3835 S   0  0  0  0  0  0  0  0  0  0  0  0
   33.8300   42.3782  -12.1050 H   0  0  0  0  0  0  0  0  0  0  0  0
   33.3476   40.6612   -9.8109 C   0  0  0  0  0  0  0  0  0  0  0  0
   32.3989   39.5498   -9.4144 C   0  0  0  0  0  0  0  0  0  0  0  0
   31.1205   39.4719   -9.9871 C   0  0  0  0  0  0  0  0  0  0  0  0
   30.2347   38.4594   -9.6136 C   0  0  0  0  0  0  0  0  0  0  0  0
   30.6255   37.5147   -8.6680 C   0  0  0  0  0  0  0  0  0  0  0  0
   29.4271   36.1444   -8.1596 Br  0  0  0  0  0  0  0  0  0  0  0  0
   31.8952   37.5704   -8.0979 C   0  0  0  0  0  0  0  0  0  0  0  0
   32.7803   38.5836   -8.4731 C   0  0  0  0  0  0  0  0  0  0  0  0
  7  8  2  0
  8  9  1  0
  8  6  1  0
  6  2  1  0
  2  3  2  0
  2  4  1  0
  4  1  1  0
  1 11  1  0
 11 12  1  0
  1 14  1  0
 14 15  1  0
 15 16  2  0
 16 17  1  0
 17 18  2  0
 18 19  1  0
 18 20  1  0
 20 21  2  0
 21 15  1  0
  9 10  1  0
  4  5  1  0
 12 13  1  0
M  END
> <minimizedAffinity>
-6.25506

> <CNNscore>
0.5830031633

> <CNNaffinity>
5.6434364319

> <CNN_VS>
3.2901413441

> <CNNaffinity_variance>
0.1296545118

$$$$



 21 21  0  0  0  0  0  0  0  0999 V2000
   33.2569   42.3401   -8.7878 C   0  0  0  0  0  0  0  0  0  0  0  0
   35.0361   42.3763   -7.0535 C   0  0  0  0  0  0  0  0  0  0  0  0
   35.8070   41.7229   -7.7494 O   0  0  0  0  0  0  0  0  0  0  0  0
   33.7404   42.6640   -7.4373 N   0  0  0  0  0  0  0  0  0  0  0  0
   33.1300   43.0934   -6.7952 H   0  0  0  0  0  0  0  0  0  0  0  0
   35.4061   42.8915   -5.6893 C   0  0  0  0  0  0  0  0  0  0  0  0
   36.7521   41.2384   -4.5389 O   0  0  0  0  0  0  0  0  0  0  0  0
   36.6630   42.2875   -5.1557 C   0  0  0  0  0  0  0  0  0  0  0  0
   37.7472   43.0692   -5.3307 O   0  0  0  0  0  0  0  0  0  0  0  0
   37.6731   43.8738   -5.8052 H   0  0  0  0  0  0  0  0  0  0  0  0
   33.6182   43.4868   -9.7516 C   0  0  0  0  0  0  0  0  0  0  0  0
   33.3048   43.1105  -11.5045 S   0  0  0  0  0  0  0  0  0  0  0  0
   34.0800   42.0612  -11.8886 H   0  0  0  0  0  0  0  0  0  0  0  0
   33.7340   40.9344   -9.2350 C   0  0  0  0  0  0  0  0  0  0  0  0
   32.7528   39.8121   -8.9701 C   0  0  0  0  0  0  0  0  0  0  0  0
   32.9926   38.8900   -7.9403 C   0  0  0  0  0  0  0  0  0  0  0  0
   32.1005   37.8430   -7.7015 C   0  0  0  0  0  0  0  0  0  0  0  0
   30.9590   37.7159   -8.4891 C   0  0  0  0  0  0  0  0  0  0  0  0
   29.7509   36.2980   -8.1687 Br  0  0  0  0  0  0  0  0  0  0  0  0
   30.6995   38.6293   -9.5082 C   0  0  0  0  0  0  0  0  0  0  0  0
   31.5927   39.6764   -9.7454 C   0  0  0  0  0  0  0  0  0  0  0  0
  7  8  2  0
  8  9  1  0
  8  6  1  0
  6  2  1  0
  2  3  2  0
  2  4  1  0
  4  1  1  0
  1 11  1  0
 11 12  1  0
  1 14  1  0
 14 15  1  0
 15 16  2  0
 16 17  1  0
 17 18  2  0
 18 19  1  0
 18 20  1  0
 20 21  2  0
 21 15  1  0
  9 10  1  0
  4  5  1  0
 12 13  1  0
M  END
> <minimizedAffinity>
-6.26979

> <CNNscore>
0.5233733654

> <CNNaffinity>
5.6625237465

> <CNN_VS>
2.9636142254

> <CNNaffinity_variance>
0.1784638166

$$$$



 21 21  0  0  0  0  0  0  0  0999 V2000
   34.2310   41.3777   -8.1648 C   0  0  0  0  0  0  0  0  0  0  0  0
   33.4559   43.3215   -9.5047 C   0  0  0  0  0  0  0  0  0  0  0  0
   32.5601   43.5854   -8.7090 O   0  0  0  0  0  0  0  0  0  0  0  0
   34.2768   42.2183   -9.3705 N   0  0  0  0  0  0  0  0  0  0  0  0
   34.9036   41.9910  -10.0948 H   0  0  0  0  0  0  0  0  0  0  0  0
   33.7226   44.1450  -10.7353 C   0  0  0  0  0  0  0  0  0  0  0  0
   32.3370   45.8892  -11.6868 O   0  0  0  0  0  0  0  0  0  0  0  0
   32.4842   44.7324  -11.3272 C   0  0  0  0  0  0  0  0  0  0  0  0
   31.4463   43.8727  -11.3560 O   0  0  0  0  0  0  0  0  0  0  0  0
   31.5650   42.9855  -11.0787 H   0  0  0  0  0  0  0  0  0  0  0  0
   34.2136   42.2756   -6.9127 C   0  0  0  0  0  0  0  0  0  0  0  0
   35.8660   42.7570   -6.3207 S   0  0  0  0  0  0  0  0  0  0  0  0
   36.5583   41.6449   -5.9551 H   0  0  0  0  0  0  0  0  0  0  0  0
   33.0799   40.3421   -8.2435 C   0  0  0  0  0  0  0  0  0  0  0  0
   33.4839   38.9135   -7.9460 C   0  0  0  0  0  0  0  0  0  0  0  0
   34.8074   38.4948   -8.1495 C   0  0  0  0  0  0  0  0  0  0  0  0
   35.1828   37.1747   -7.8931 C   0  0  0  0  0  0  0  0  0  0  0  0
   34.2362   36.2665   -7.4256 C   0  0  0  0  0  0  0  0  0  0  0  0
   34.7419   34.4785   -7.0798 Br  0  0  0  0  0  0  0  0  0  0  0  0
   32.9205   36.6682   -7.2071 C   0  0  0  0  0  0  0  0  0  0  0  0
   32.5467   37.9893   -7.4636 C   0  0  0  0  0  0  0  0  0  0  0  0
  7  8  2  0
  8  9  1  0
  8  6  1  0
  6  2  1  0
  2  3  2  0
  2  4  1  0
  4  1  1  0
  1 11  1  0
 11 12  1  0
  1 14  1  0
 14 15  1  0
 15 16  2  0
 16 17  1  0
 17 18  2  0
 18 19  1  0
 18 20  1  0
 20 21  2  0
 21 15  1  0
  9 10  1  0
  4  5  1  0
 12 13  1  0
M  END
> <minimizedAffinity>
-5.22418

> <CNNscore>
0.5169699788

> <CNNaffinity>
5.3781132698

> <CNN_VS>
2.7803230286

> <CNNaffinity_variance>
0.3311098516

$$$$



 21 21  0  0  0  0  0  0  0  0999 V2000
   34.8439   40.8383   -7.9063 C   0  0  0  0  0  0  0  0  0  0  0  0
   33.3049   41.6796   -9.6665 C   0  0  0  0  0  0  0  0  0  0  0  0
   32.3800   40.9750   -9.2748 O   0  0  0  0  0  0  0  0  0  0  0  0
   34.5709   41.6295   -9.1153 N   0  0  0  0  0  0  0  0  0  0  0  0
   35.3031   42.1325   -9.5396 H   0  0  0  0  0  0  0  0  0  0  0  0
   33.1694   42.6371  -10.8190 C   0  0  0  0  0  0  0  0  0  0  0  0
   33.1767   45.0519  -11.0097 O   0  0  0  0  0  0  0  0  0  0  0  0
   32.8984   44.0402  -10.3866 C   0  0  0  0  0  0  0  0  0  0  0  0
   32.3772   44.1256   -9.1464 O   0  0  0  0  0  0  0  0  0  0  0  0
   32.1654   43.3455   -8.6725 H   0  0  0  0  0  0  0  0  0  0  0  0
   34.3282   41.5971   -6.6683 C   0  0  0  0  0  0  0  0  0  0  0  0
   35.5236   42.7785   -5.9698 S   0  0  0  0  0  0  0  0  0  0  0  0
   36.6283   42.1083   -5.5455 H   0  0  0  0  0  0  0  0  0  0  0  0
   34.3165   39.3876   -8.0514 C   0  0  0  0  0  0  0  0  0  0  0  0
   35.3347   38.3842   -8.5504 C   0  0  0  0  0  0  0  0  0  0  0  0
   36.0356   38.6197   -9.7427 C   0  0  0  0  0  0  0  0  0  0  0  0
   36.9637   37.6908  -10.2171 C   0  0  0  0  0  0  0  0  0  0  0  0
   37.2001   36.5223   -9.4974 C   0  0  0  0  0  0  0  0  0  0  0  0
   38.4546   35.2626  -10.1389 Br  0  0  0  0  0  0  0  0  0  0  0  0
   36.5215   36.2779   -8.3057 C   0  0  0  0  0  0  0  0  0  0  0  0
   35.5939   37.2085   -7.8323 C   0  0  0  0  0  0  0  0  0  0  0  0
  7  8  2  0
  8  9  1  0
  8  6  1  0
  6  2  1  0
  2  3  2  0
  2  4  1  0
  4  1  1  0
  1 11  1  0
 11 12  1  0
  1 14  1  0
 14 15  1  0
 15 16  2  0
 16 17  1  0
 17 18  2  0
 18 19  1  0
 18 20  1  0
 20 21  2  0
 21 15  1  0
  9 10  1  0
  4  5  1  0
 12 13  1  0
M  END
> <minimizedAffinity>
-4.95213

> <CNNscore>
0.4762061536

> <CNNaffinity>
5.2293028831

> <CNN_VS>
2.4902262688

> <CNNaffinity_variance>
0.2606454194

$$$$



 21 21  0  0  0  0  0  0  0  0999 V2000
   44.9767   35.6573   -0.7802 C   0  0  0  0  0  0  0  0  0  0  0  0
   45.2967   37.4832   -2.4350 C   0  0  0  0  0  0  0  0  0  0  0  0
   44.7034   36.8672   -3.3147 O   0  0  0  0  0  0  0  0  0  0  0  0
   45.5513   36.9484   -1.1868 N   0  0  0  0  0  0  0  0  0  0  0  0
   46.1277   37.4404   -0.5583 H   0  0  0  0  0  0  0  0  0  0  0  0
   45.8505   38.8670   -2.6398 C   0  0  0  0  0  0  0  0  0  0  0  0
   44.0271   40.0278   -3.7331 O   0  0  0  0  0  0  0  0  0  0  0  0
   45.1741   39.6115   -3.7431 C   0  0  0  0  0  0  0  0  0  0  0  0
   45.9289   39.7210   -4.8546 O   0  0  0  0  0  0  0  0  0  0  0  0
   46.8091   39.3996   -4.8568 H   0  0  0  0  0  0  0  0  0  0  0  0
   46.1121   34.6476   -0.5236 C   0  0  0  0  0  0  0  0  0  0  0  0
   46.3422   34.2185    1.2302 S   0  0  0  0  0  0  0  0  0  0  0  0
   46.6888   35.3332    1.9279 H   0  0  0  0  0  0  0  0  0  0  0  0
   43.9768   35.8297    0.3920 C   0  0  0  0  0  0  0  0  0  0  0  0
   42.5434   35.4653    0.0683 C   0  0  0  0  0  0  0  0  0  0  0  0
   41.5787   35.4138    1.0858 C   0  0  0  0  0  0  0  0  0  0  0  0
   40.2588   35.0622    0.7968 C   0  0  0  0  0  0  0  0  0  0  0  0
   39.8949   34.7654   -0.5143 C   0  0  0  0  0  0  0  0  0  0  0  0
   38.1091   34.2873   -0.9072 Br  0  0  0  0  0  0  0  0  0  0  0  0
   40.8373   34.8228   -1.5384 C   0  0  0  0  0  0  0  0  0  0  0  0
   42.1572   35.1753   -1.2477 C   0  0  0  0  0  0  0  0  0  0  0  0
  7  8  2  0
  8  9  1  0
  8  6  1  0
  6  2  1  0
  2  3  2  0
  2  4  1  0
  4  1  1  0
  1 11  1  0
 11 12  1  0
  1 14  1  0
 14 15  1  0
 15 16  2  0
 16 17  1  0
 17 18  2  0
 18 19  1  0
 18 20  1  0
 20 21  2  0
 21 15  1  0
  9 10  1  0
  4  5  1  0
 12 13  1  0
M  END
> <minimizedAffinity>
-4.04593

> <CNNscore>
0.4606942534

> <CNNaffinity>
4.2694683075

> <CNN_VS>
1.9669195414

> <CNNaffinity_variance>
0.0491270721

$$$$



 21 21  0  0  0  0  0  0  0  0999 V2000
   33.6348   41.3107   -9.9681 C   0  0  0  0  0  0  0  0  0  0  0  0
   34.4259   41.7784   -7.6594 C   0  0  0  0  0  0  0  0  0  0  0  0
   33.5247   42.5848   -7.4527 O   0  0  0  0  0  0  0  0  0  0  0  0
   34.6134   41.1604   -8.8808 N   0  0  0  0  0  0  0  0  0  0  0  0
   35.4164   40.6096   -9.0259 H   0  0  0  0  0  0  0  0  0  0  0  0
   35.4495   41.4146   -6.6185 C   0  0  0  0  0  0  0  0  0  0  0  0
   35.7616   42.9773   -4.7942 O   0  0  0  0  0  0  0  0  0  0  0  0
   36.0280   42.6034   -5.9248 C   0  0  0  0  0  0  0  0  0  0  0  0
   36.8452   43.3342   -6.7093 O   0  0  0  0  0  0  0  0  0  0  0  0
   37.0464   43.0424   -7.5766 H   0  0  0  0  0  0  0  0  0  0  0  0
   32.5609   40.2121   -9.8484 C   0  0  0  0  0  0  0  0  0  0  0  0
   32.4281   39.1403  -11.3134 S   0  0  0  0  0  0  0  0  0  0  0  0
   32.0597   39.8865  -12.3891 H   0  0  0  0  0  0  0  0  0  0  0  0
   33.0849   42.7588  -10.0349 C   0  0  0  0  0  0  0  0  0  0  0  0
   33.1483   43.4041  -11.4031 C   0  0  0  0  0  0  0  0  0  0  0  0
   32.8831   42.6488  -12.5553 C   0  0  0  0  0  0  0  0  0  0  0  0
   32.9562   43.2335  -13.8210 C   0  0  0  0  0  0  0  0  0  0  0  0
   33.2898   44.5803  -13.9408 C   0  0  0  0  0  0  0  0  0  0  0  0
   33.3911   45.3732  -15.6535 Br  0  0  0  0  0  0  0  0  0  0  0  0
   33.5449   45.3477  -12.8067 C   0  0  0  0  0  0  0  0  0  0  0  0
   33.4708   44.7613  -11.5412 C   0  0  0  0  0  0  0  0  0  0  0  0
  7  8  2  0
  8  9  1  0
  8  6  1  0
  6  2  1  0
  2  3  2  0
  2  4  1  0
  4  1  1  0
  1 11  1  0
 11 12  1  0
  1 14  1  0
 14 15  1  0
 15 16  2  0
 16 17  1  0
 17 18  2  0
 18 19  1  0
 18 20  1  0
 20 21  2  0
 21 15  1  0
  9 10  1  0
  4  5  1  0
 12 13  1  0
M  END
> <minimizedAffinity>
-6.87705

> <CNNscore>
0.3466157913

> <CNNaffinity>
4.8917498589

> <CNN_VS>
1.6955577135

> <CNNaffinity_variance>
0.0427963547

$$$$
