


 33 36  0  0  0  0  0  0  0  0999 V2000
    4.9557    7.5770   25.2947 C   0  0  0  0  0  0  0  0  0  0  0  0
    4.4249    8.6305   24.5488 C   0  0  0  0  0  0  0  0  0  0  0  0
    5.1405    9.8232   24.4129 C   0  0  0  0  0  0  0  0  0  0  0  0
    4.4026   11.1144   23.5359 Cl  0  0  0  0  0  0  0  0  0  0  0  0
    6.4064    9.9566   24.9947 C   0  0  0  0  0  0  0  0  0  0  0  0
    6.9286    8.8995   25.7484 C   0  0  0  0  0  0  0  0  0  0  0  0
    8.4672    9.0246   26.5207 Cl  0  0  0  0  0  0  0  0  0  0  0  0
    6.2120    7.7079   25.8854 C   0  0  0  0  0  0  0  0  0  0  0  0
    4.1901    6.3831   25.4229 N   0  0  0  0  0  0  0  0  0  0  0  0
    3.2178    6.4080   25.2703 H   0  0  0  0  0  0  0  0  0  0  0  0
    4.1005    3.8549   25.3371 O   0  0  0  0  0  0  0  0  0  0  0  0
    4.9371    4.9232   25.8351 S   0  0  0  0  0  0  0  0  0  0  0  0
    6.3319    5.0063   25.4552 O   0  0  0  0  0  0  0  0  0  0  0  0
    4.8616    4.8927   27.6089 C   0  0  0  0  0  0  0  0  0  0  0  0
    6.0691    4.8953   28.3258 C   0  0  0  0  0  0  0  0  0  0  0  0
    6.0539    4.8698   29.7211 C   0  0  0  0  0  0  0  0  0  0  0  0
    4.8371    4.8378   30.3970 C   0  0  0  0  0  0  0  0  0  0  0  0
    4.8169    4.8106   32.1162 Cl  0  0  0  0  0  0  0  0  0  0  0  0
    3.6352    4.8314   29.6908 C   0  0  0  0  0  0  0  0  0  0  0  0
    3.6417    4.8576   28.2911 C   0  0  0  0  0  0  0  0  0  0  0  0
    2.1010    4.8818   27.5112 Cl  0  0  0  0  0  0  0  0  0  0  0  0
    7.1042   11.1383   24.9076 O   0  0  0  0  0  0  0  0  0  0  0  0
    6.8639   12.0948   25.8654 C   0  0  0  0  0  0  0  0  0  0  0  0
    6.7806   13.4628   25.6563 C   0  0  0  0  0  0  0  0  0  0  0  0
    6.5470   14.3690   26.6372 N   0  0  0  0  0  0  0  0  0  0  0  0
    6.3998   13.9149   27.8930 C   0  0  0  0  0  0  0  0  0  0  0  0
    6.1600   14.8168   28.9212 C   0  0  0  0  0  0  0  0  0  0  0  0
    6.0021   14.3970   30.2459 C   0  0  0  0  0  0  0  0  0  0  0  0
    6.0864   13.0435   30.5500 C   0  0  0  0  0  0  0  0  0  0  0  0
    5.8748   12.4651   32.3360 Br  0  0  0  0  0  0  0  0  0  0  0  0
    6.3258   12.1124   29.5428 C   0  0  0  0  0  0  0  0  0  0  0  0
    6.4829   12.5419   28.2132 C   0  0  0  0  0  0  0  0  0  0  0  0
    6.7232   11.6356   27.1708 C   0  0  0  0  0  0  0  0  0  0  0  0
 11 12  2  0
 12 13  2  0
 12  9  1  0
  9  1  1  0
  1  2  2  0
  2  3  1  0
  3  4  1  0
  3  5  2  0
  5 22  1  0
 22 23  1  0
 23 24  2  0
 24 25  1  0
 25 26  2  0
 26 27  1  0
 27 28  2  0
 28 29  1  0
 29 30  1  0
 29 31  2  0
 31 32  1  0
 32 33  2  0
  5  6  1  0
  6  7  1  0
  6  8  2  0
 12 14  1  0
 14 15  2  0
 15 16  1  0
 16 17  2  0
 17 18  1  0
 17 19  1  0
 19 20  2  0
 20 21  1  0
  8  1  1  0
 20 14  1  0
 33 23  1  0
 32 26  1  0
  9 10  1  0
M  END
> <minimizedAffinity>
-11.62231

> <CNNscore>
0.9771482944

> <CNNaffinity>
8.7772912979

> <CNN_VS>
8.5767154694

> <CNNaffinity_variance>
0.1115390658

$$$$



 33 36  0  0  0  0  0  0  0  0999 V2000
    4.8188    7.5174   25.2248 C   0  0  0  0  0  0  0  0  0  0  0  0
    6.0707    7.6716   25.8220 C   0  0  0  0  0  0  0  0  0  0  0  0
    6.7656    8.8772   25.6919 C   0  0  0  0  0  0  0  0  0  0  0  0
    8.3389    8.9845   26.3946 Cl  0  0  0  0  0  0  0  0  0  0  0  0
    6.1968    9.9471   24.9915 C   0  0  0  0  0  0  0  0  0  0  0  0
    4.9451    9.7826   24.3880 C   0  0  0  0  0  0  0  0  0  0  0  0
    4.2148   11.0554   23.4791 Cl  0  0  0  0  0  0  0  0  0  0  0  0
    4.2516    8.5765   24.5169 C   0  0  0  0  0  0  0  0  0  0  0  0
    4.1483    6.2692   25.3669 N   0  0  0  0  0  0  0  0  0  0  0  0
    3.1778    6.2158   25.2105 H   0  0  0  0  0  0  0  0  0  0  0  0
    4.2617    3.7411   25.3079 O   0  0  0  0  0  0  0  0  0  0  0  0
    5.0052    4.8779   25.8020 S   0  0  0  0  0  0  0  0  0  0  0  0
    6.3927    5.0683   25.4342 O   0  0  0  0  0  0  0  0  0  0  0  0
    4.9143    4.8594   27.5753 C   0  0  0  0  0  0  0  0  0  0  0  0
    6.1149    4.8932   28.3027 C   0  0  0  0  0  0  0  0  0  0  0  0
    6.0877    4.8781   29.6981 C   0  0  0  0  0  0  0  0  0  0  0  0
    4.8658    4.8255   30.3634 C   0  0  0  0  0  0  0  0  0  0  0  0
    4.8306    4.8111   32.0825 Cl  0  0  0  0  0  0  0  0  0  0  0  0
    3.6707    4.7881   29.6466 C   0  0  0  0  0  0  0  0  0  0  0  0
    3.6893    4.8036   28.2469 C   0  0  0  0  0  0  0  0  0  0  0  0
    2.1556    4.7891   27.4531 Cl  0  0  0  0  0  0  0  0  0  0  0  0
    6.8856   11.1245   24.8169 O   0  0  0  0  0  0  0  0  0  0  0  0
    6.7557   12.0909   25.7860 C   0  0  0  0  0  0  0  0  0  0  0  0
    6.7946   13.4625   25.5877 C   0  0  0  0  0  0  0  0  0  0  0  0
    6.6672   14.3780   26.5794 N   0  0  0  0  0  0  0  0  0  0  0  0
    6.5062   13.9288   27.8353 C   0  0  0  0  0  0  0  0  0  0  0  0
    6.3734   14.8402   28.8744 C   0  0  0  0  0  0  0  0  0  0  0  0
    6.2064   14.4255   30.1996 C   0  0  0  0  0  0  0  0  0  0  0  0
    6.1718   13.0675   30.4930 C   0  0  0  0  0  0  0  0  0  0  0  0
    5.9469   12.4959   32.2796 Br  0  0  0  0  0  0  0  0  0  0  0  0
    6.3021   12.1269   29.4747 C   0  0  0  0  0  0  0  0  0  0  0  0
    6.4691   12.5513   28.1446 C   0  0  0  0  0  0  0  0  0  0  0  0
    6.6018   11.6356   27.0913 C   0  0  0  0  0  0  0  0  0  0  0  0
 11 12  2  0
 12 13  2  0
 12  9  1  0
  9  1  1  0
  1  2  2  0
  2  3  1  0
  3  4  1  0
  3  5  2  0
  5 22  1  0
 22 23  1  0
 23 24  2  0
 24 25  1  0
 25 26  2  0
 26 27  1  0
 27 28  2  0
 28 29  1  0
 29 30  1  0
 29 31  2  0
 31 32  1  0
 32 33  2  0
  5  6  1  0
  6  7  1  0
  6  8  2  0
 12 14  1  0
 14 15  2  0
 15 16  1  0
 16 17  2  0
 17 18  1  0
 17 19  1  0
 19 20  2  0
 20 21  1  0
  8  1  1  0
 20 14  1  0
 33 23  1  0
 32 26  1  0
  9 10  1  0
M  END
> <minimizedAffinity>
-11.63665

> <CNNscore>
0.9752087593

> <CNNaffinity>
8.7435235977

> <CNN_VS>
8.5267610550

> <CNNaffinity_variance>
0.1131269932

$$$$



 33 36  0  0  0  0  0  0  0  0999 V2000
    5.5569    7.5291   25.2631 C   0  0  0  0  0  0  0  0  0  0  0  0
    6.6473    8.3328   25.5990 C   0  0  0  0  0  0  0  0  0  0  0  0
    6.5502    9.7234   25.4990 C   0  0  0  0  0  0  0  0  0  0  0  0
    7.9536   10.6610   25.8627 Cl  0  0  0  0  0  0  0  0  0  0  0  0
    5.3504   10.3194   25.0943 C   0  0  0  0  0  0  0  0  0  0  0  0
    4.2639    9.5072   24.7507 C   0  0  0  0  0  0  0  0  0  0  0  0
    2.7736   10.1876   24.2073 Cl  0  0  0  0  0  0  0  0  0  0  0  0
    4.3620    8.1169   24.8492 C   0  0  0  0  0  0  0  0  0  0  0  0
    5.6992    6.1158   25.3634 N   0  0  0  0  0  0  0  0  0  0  0  0
    6.5590    5.6942   25.1347 H   0  0  0  0  0  0  0  0  0  0  0  0
    3.1945    5.9223   25.6740 O   0  0  0  0  0  0  0  0  0  0  0  0
    4.4036    5.1555   25.8720 S   0  0  0  0  0  0  0  0  0  0  0  0
    4.5517    3.8443   25.2758 O   0  0  0  0  0  0  0  0  0  0  0  0
    4.6608    4.9856   27.6207 C   0  0  0  0  0  0  0  0  0  0  0  0
    5.9808    4.9666   28.0996 C   0  0  0  0  0  0  0  0  0  0  0  0
    6.2266    4.8328   29.4669 C   0  0  0  0  0  0  0  0  0  0  0  0
    5.1579    4.7144   30.3514 C   0  0  0  0  0  0  0  0  0  0  0  0
    5.4593    4.5536   32.0366 Cl  0  0  0  0  0  0  0  0  0  0  0  0
    3.8455    4.7290   29.8816 C   0  0  0  0  0  0  0  0  0  0  0  0
    3.5903    4.8636   28.5117 C   0  0  0  0  0  0  0  0  0  0  0  0
    1.9309    4.9048   28.0348 Cl  0  0  0  0  0  0  0  0  0  0  0  0
    5.2517   11.6832   24.9485 O   0  0  0  0  0  0  0  0  0  0  0  0
    5.5452   12.2174   23.7162 C   0  0  0  0  0  0  0  0  0  0  0  0
    6.5767   13.0977   23.4278 C   0  0  0  0  0  0  0  0  0  0  0  0
    6.8226   13.6027   22.1940 N   0  0  0  0  0  0  0  0  0  0  0  0
    6.0083   13.2380   21.1897 C   0  0  0  0  0  0  0  0  0  0  0  0
    6.2322   13.7378   19.9136 C   0  0  0  0  0  0  0  0  0  0  0  0
    5.4128   13.3922   18.8342 C   0  0  0  0  0  0  0  0  0  0  0  0
    4.3440   12.5270   19.0352 C   0  0  0  0  0  0  0  0  0  0  0  0
    3.2305   12.0534   17.5843 Br  0  0  0  0  0  0  0  0  0  0  0  0
    4.0913   12.0076   20.3021 C   0  0  0  0  0  0  0  0  0  0  0  0
    4.9198   12.3590   21.3825 C   0  0  0  0  0  0  0  0  0  0  0  0
    4.6996   11.8560   22.6725 C   0  0  0  0  0  0  0  0  0  0  0  0
 11 12  2  0
 12 13  2  0
 12  9  1  0
  9  1  1  0
  1  2  2  0
  2  3  1  0
  3  4  1  0
  3  5  2  0
  5 22  1  0
 22 23  1  0
 23 24  2  0
 24 25  1  0
 25 26  2  0
 26 27  1  0
 27 28  2  0
 28 29  1  0
 29 30  1  0
 29 31  2  0
 31 32  1  0
 32 33  2  0
  5  6  1  0
  6  7  1  0
  6  8  2  0
 12 14  1  0
 14 15  2  0
 15 16  1  0
 16 17  2  0
 17 18  1  0
 17 19  1  0
 19 20  2  0
 20 21  1  0
  8  1  1  0
 20 14  1  0
 33 23  1  0
 32 26  1  0
  9 10  1  0
M  END
> <minimizedAffinity>
-10.15310

> <CNNscore>
0.9341219664

> <CNNaffinity>
8.2784509659

> <CNN_VS>
7.7330827713

> <CNNaffinity_variance>
0.3535276353

$$$$



 33 36  0  0  0  0  0  0  0  0999 V2000
    4.4075    7.6128   25.1587 C   0  0  0  0  0  0  0  0  0  0  0  0
    3.4833    8.5960   24.8023 C   0  0  0  0  0  0  0  0  0  0  0  0
    3.8765    9.9354   24.7334 C   0  0  0  0  0  0  0  0  0  0  0  0
    2.6730   11.1137   24.3541 Cl  0  0  0  0  0  0  0  0  0  0  0  0
    5.2050   10.2945   24.9880 C   0  0  0  0  0  0  0  0  0  0  0  0
    6.1241    9.3046   25.3532 C   0  0  0  0  0  0  0  0  0  0  0  0
    7.7653    9.6966   25.7169 Cl  0  0  0  0  0  0  0  0  0  0  0  0
    5.7302    7.9660   25.4237 C   0  0  0  0  0  0  0  0  0  0  0  0
    3.9655    6.2611   25.2329 N   0  0  0  0  0  0  0  0  0  0  0  0
    3.0246    6.0440   25.0414 H   0  0  0  0  0  0  0  0  0  0  0  0
    4.5020    3.7894   25.1302 O   0  0  0  0  0  0  0  0  0  0  0  0
    5.0435    5.0259   25.6470 S   0  0  0  0  0  0  0  0  0  0  0  0
    6.3797    5.4531   25.2882 O   0  0  0  0  0  0  0  0  0  0  0  0
    4.9551    4.9607   27.4194 C   0  0  0  0  0  0  0  0  0  0  0  0
    6.1533    5.0363   28.1478 C   0  0  0  0  0  0  0  0  0  0  0  0
    6.1280    4.9867   29.5424 C   0  0  0  0  0  0  0  0  0  0  0  0
    4.9108    4.8580   30.2059 C   0  0  0  0  0  0  0  0  0  0  0  0
    4.8779    4.8009   31.9241 Cl  0  0  0  0  0  0  0  0  0  0  0  0
    3.7184    4.7789   29.4880 C   0  0  0  0  0  0  0  0  0  0  0  0
    3.7350    4.8286   28.0891 C   0  0  0  0  0  0  0  0  0  0  0  0
    2.2032    4.7574   27.2947 Cl  0  0  0  0  0  0  0  0  0  0  0  0
    5.5981   11.6121   24.9675 O   0  0  0  0  0  0  0  0  0  0  0  0
    5.7904   12.2029   23.7410 C   0  0  0  0  0  0  0  0  0  0  0  0
    6.7187   13.1878   23.4410 C   0  0  0  0  0  0  0  0  0  0  0  0
    6.8665   13.7449   22.2140 N   0  0  0  0  0  0  0  0  0  0  0  0
    6.0539   13.3262   21.2295 C   0  0  0  0  0  0  0  0  0  0  0  0
    6.1786   13.8770   19.9609 C   0  0  0  0  0  0  0  0  0  0  0  0
    5.3562   13.4787   18.9021 C   0  0  0  0  0  0  0  0  0  0  0  0
    4.3859   12.5072   19.1166 C   0  0  0  0  0  0  0  0  0  0  0  0
    3.2694   11.9616   17.6936 Br  0  0  0  0  0  0  0  0  0  0  0  0
    4.2341   11.9343   20.3766 C   0  0  0  0  0  0  0  0  0  0  0  0
    5.0650   12.3393   21.4362 C   0  0  0  0  0  0  0  0  0  0  0  0
    4.9448   11.7854   22.7185 C   0  0  0  0  0  0  0  0  0  0  0  0
 11 12  2  0
 12 13  2  0
 12  9  1  0
  9  1  1  0
  1  2  2  0
  2  3  1  0
  3  4  1  0
  3  5  2  0
  5 22  1  0
 22 23  1  0
 23 24  2  0
 24 25  1  0
 25 26  2  0
 26 27  1  0
 27 28  2  0
 28 29  1  0
 29 30  1  0
 29 31  2  0
 31 32  1  0
 32 33  2  0
  5  6  1  0
  6  7  1  0
  6  8  2  0
 12 14  1  0
 14 15  2  0
 15 16  1  0
 16 17  2  0
 17 18  1  0
 17 19  1  0
 19 20  2  0
 20 21  1  0
  8  1  1  0
 20 14  1  0
 33 23  1  0
 32 26  1  0
  9 10  1  0
M  END
> <minimizedAffinity>
-9.67236

> <CNNscore>
0.8927465677

> <CNNaffinity>
8.2824316025

> <CNN_VS>
7.3941125870

> <CNNaffinity_variance>
0.1631093025

$$$$



 33 36  0  0  0  0  0  0  0  0999 V2000
    5.0523    7.4222   25.3171 C   0  0  0  0  0  0  0  0  0  0  0  0
    4.5713    8.5335   24.6232 C   0  0  0  0  0  0  0  0  0  0  0  0
    5.2750    9.7404   24.6589 C   0  0  0  0  0  0  0  0  0  0  0  0
    4.5951   11.0984   23.8375 Cl  0  0  0  0  0  0  0  0  0  0  0  0
    6.4816    9.8329   25.3619 C   0  0  0  0  0  0  0  0  0  0  0  0
    6.9535    8.7172   26.0623 C   0  0  0  0  0  0  0  0  0  0  0  0
    8.4150    8.7870   26.9781 Cl  0  0  0  0  0  0  0  0  0  0  0  0
    6.2487    7.5113   26.0278 C   0  0  0  0  0  0  0  0  0  0  0  0
    4.2996    6.2143   25.2692 N   0  0  0  0  0  0  0  0  0  0  0  0
    3.3645    6.2337   24.9617 H   0  0  0  0  0  0  0  0  0  0  0  0
    4.1427    3.6880   25.2508 O   0  0  0  0  0  0  0  0  0  0  0  0
    4.9984    4.7470   25.7359 S   0  0  0  0  0  0  0  0  0  0  0  0
    6.4019    4.7821   25.3818 O   0  0  0  0  0  0  0  0  0  0  0  0
    4.8880    4.7679   27.5081 C   0  0  0  0  0  0  0  0  0  0  0  0
    6.0802    4.7272   28.2489 C   0  0  0  0  0  0  0  0  0  0  0  0
    6.0375    4.7399   29.6438 C   0  0  0  0  0  0  0  0  0  0  0  0
    4.8082    4.7891   30.2956 C   0  0  0  0  0  0  0  0  0  0  0  0
    4.7542    4.8090   32.0142 Cl  0  0  0  0  0  0  0  0  0  0  0  0
    3.6211    4.8260   29.5657 C   0  0  0  0  0  0  0  0  0  0  0  0
    3.6553    4.8143   28.1662 C   0  0  0  0  0  0  0  0  0  0  0  0
    2.1330    4.8973   27.3549 Cl  0  0  0  0  0  0  0  0  0  0  0  0
    7.1635   11.0243   25.4434 O   0  0  0  0  0  0  0  0  0  0  0  0
    6.7815   11.9141   26.4194 C   0  0  0  0  0  0  0  0  0  0  0  0
    6.5621   11.6212   27.7565 C   0  0  0  0  0  0  0  0  0  0  0  0
    6.1796   12.5349   28.6821 N   0  0  0  0  0  0  0  0  0  0  0  0
    5.9883   13.8013   28.2764 C   0  0  0  0  0  0  0  0  0  0  0  0
    5.5956   14.7617   29.1992 C   0  0  0  0  0  0  0  0  0  0  0  0
    5.3802   16.0930   28.8287 C   0  0  0  0  0  0  0  0  0  0  0  0
    5.5610   16.4731   27.5042 C   0  0  0  0  0  0  0  0  0  0  0  0
    5.2727   18.2686   26.9924 Br  0  0  0  0  0  0  0  0  0  0  0  0
    5.9544   15.5351   26.5533 C   0  0  0  0  0  0  0  0  0  0  0  0
    6.1698   14.1985   26.9334 C   0  0  0  0  0  0  0  0  0  0  0  0
    6.5681   13.2251   26.0064 C   0  0  0  0  0  0  0  0  0  0  0  0
 11 12  2  0
 12 13  2  0
 12  9  1  0
  9  1  1  0
  1  2  2  0
  2  3  1  0
  3  4  1  0
  3  5  2  0
  5 22  1  0
 22 23  1  0
 23 24  2  0
 24 25  1  0
 25 26  2  0
 26 27  1  0
 27 28  2  0
 28 29  1  0
 29 30  1  0
 29 31  2  0
 31 32  1  0
 32 33  2  0
  5  6  1  0
  6  7  1  0
  6  8  2  0
 12 14  1  0
 14 15  2  0
 15 16  1  0
 16 17  2  0
 17 18  1  0
 17 19  1  0
 19 20  2  0
 20 21  1  0
  8  1  1  0
 20 14  1  0
 33 23  1  0
 32 26  1  0
  9 10  1  0
M  END
> <minimizedAffinity>
-11.20965

> <CNNscore>
0.7686910629

> <CNNaffinity>
8.3532018661

> <CNN_VS>
6.4210314751

> <CNNaffinity_variance>
0.1561857313

$$$$



 33 36  0  0  0  0  0  0  0  0999 V2000
    5.8206    7.5456   25.4191 C   0  0  0  0  0  0  0  0  0  0  0  0
    6.8059    8.5339   25.4078 C   0  0  0  0  0  0  0  0  0  0  0  0
    6.4808    9.8436   25.0441 C   0  0  0  0  0  0  0  0  0  0  0  0
    7.7553   11.0067   24.9828 Cl  0  0  0  0  0  0  0  0  0  0  0  0
    5.1608   10.1791   24.7219 C   0  0  0  0  0  0  0  0  0  0  0  0
    4.1798    9.1814   24.7270 C   0  0  0  0  0  0  0  0  0  0  0  0
    2.5444    9.5312   24.2996 Cl  0  0  0  0  0  0  0  0  0  0  0  0
    4.5056    7.8718   25.0890 C   0  0  0  0  0  0  0  0  0  0  0  0
    6.1935    6.2196   25.7806 N   0  0  0  0  0  0  0  0  0  0  0  0
    7.1465    5.9801   25.8418 H   0  0  0  0  0  0  0  0  0  0  0  0
    3.7485    5.5791   25.6439 O   0  0  0  0  0  0  0  0  0  0  0  0
    5.0132    5.0532   26.1054 S   0  0  0  0  0  0  0  0  0  0  0  0
    5.4984    3.7747   25.6295 O   0  0  0  0  0  0  0  0  0  0  0  0
    4.9601    4.9843   27.8790 C   0  0  0  0  0  0  0  0  0  0  0  0
    6.1671    5.1101   28.5855 C   0  0  0  0  0  0  0  0  0  0  0  0
    6.1695    5.0594   29.9803 C   0  0  0  0  0  0  0  0  0  0  0  0
    4.9710    4.8798   30.6658 C   0  0  0  0  0  0  0  0  0  0  0  0
    4.9720    4.8213   32.3843 Cl  0  0  0  0  0  0  0  0  0  0  0  0
    3.7701    4.7506   29.9698 C   0  0  0  0  0  0  0  0  0  0  0  0
    3.7590    4.8011   28.5708 C   0  0  0  0  0  0  0  0  0  0  0  0
    2.2172    4.6656   27.8045 Cl  0  0  0  0  0  0  0  0  0  0  0  0
    4.8325   11.4525   24.3197 O   0  0  0  0  0  0  0  0  0  0  0  0
    4.5611   11.6519   22.9867 C   0  0  0  0  0  0  0  0  0  0  0  0
    3.4804   11.1420   22.2840 C   0  0  0  0  0  0  0  0  0  0  0  0
    3.2587   11.3626   20.9649 N   0  0  0  0  0  0  0  0  0  0  0  0
    4.1486   12.1117   20.2927 C   0  0  0  0  0  0  0  0  0  0  0  0
    3.9514   12.3563   18.9402 C   0  0  0  0  0  0  0  0  0  0  0  0
    4.8487   13.1268   18.1937 C   0  0  0  0  0  0  0  0  0  0  0  0
    5.9699   13.6651   18.8138 C   0  0  0  0  0  0  0  0  0  0  0  0
    7.1887   14.7073   17.8152 Br  0  0  0  0  0  0  0  0  0  0  0  0
    6.1977   13.4391   20.1687 C   0  0  0  0  0  0  0  0  0  0  0  0
    5.2909   12.6639   20.9130 C   0  0  0  0  0  0  0  0  0  0  0  0
    5.4839   12.4153   22.2792 C   0  0  0  0  0  0  0  0  0  0  0  0
 11 12  2  0
 12 13  2  0
 12  9  1  0
  9  1  1  0
  1  2  2  0
  2  3  1  0
  3  4  1  0
  3  5  2  0
  5 22  1  0
 22 23  1  0
 23 24  2  0
 24 25  1  0
 25 26  2  0
 26 27  1  0
 27 28  2  0
 28 29  1  0
 29 30  1  0
 29 31  2  0
 31 32  1  0
 32 33  2  0
  5  6  1  0
  6  7  1  0
  6  8  2  0
 12 14  1  0
 14 15  2  0
 15 16  1  0
 16 17  2  0
 17 18  1  0
 17 19  1  0
 19 20  2  0
 20 21  1  0
  8  1  1  0
 20 14  1  0
 33 23  1  0
 32 26  1  0
  9 10  1  0
M  END
> <minimizedAffinity>
-10.24122

> <CNNscore>
0.7276670933

> <CNNaffinity>
7.8157095909

> <CNN_VS>
5.6872348785

> <CNNaffinity_variance>
0.5224512219

$$$$



 33 36  0  0  0  0  0  0  0  0999 V2000
    5.1852    7.4468   25.5336 C   0  0  0  0  0  0  0  0  0  0  0  0
    6.3213    7.3948   26.3425 C   0  0  0  0  0  0  0  0  0  0  0  0
    7.2219    8.4635   26.3555 C   0  0  0  0  0  0  0  0  0  0  0  0
    8.6434    8.3123   27.3236 Cl  0  0  0  0  0  0  0  0  0  0  0  0
    6.9734    9.6047   25.5844 C   0  0  0  0  0  0  0  0  0  0  0  0
    5.8369    9.6464   24.7692 C   0  0  0  0  0  0  0  0  0  0  0  0
    5.5024   11.0120   23.7679 Cl  0  0  0  0  0  0  0  0  0  0  0  0
    4.9377    8.5770   24.7552 C   0  0  0  0  0  0  0  0  0  0  0  0
    4.2990    6.3322   25.5360 N   0  0  0  0  0  0  0  0  0  0  0  0
    3.3536    6.4596   25.2923 H   0  0  0  0  0  0  0  0  0  0  0  0
    3.8825    3.8361   25.4773 O   0  0  0  0  0  0  0  0  0  0  0  0
    4.8568    4.7915   25.9537 S   0  0  0  0  0  0  0  0  0  0  0  0
    6.2452    4.6903   25.5555 O   0  0  0  0  0  0  0  0  0  0  0  0
    4.8023    4.7862   27.7286 C   0  0  0  0  0  0  0  0  0  0  0  0
    6.0136    4.6757   28.4304 C   0  0  0  0  0  0  0  0  0  0  0  0
    6.0147    4.6657   29.8260 C   0  0  0  0  0  0  0  0  0  0  0  0
    4.8099    4.7616   30.5172 C   0  0  0  0  0  0  0  0  0  0  0  0
    4.8101    4.7535   32.2367 Cl  0  0  0  0  0  0  0  0  0  0  0  0
    3.6039    4.8678   29.8260 C   0  0  0  0  0  0  0  0  0  0  0  0
    3.5943    4.8793   28.4262 C   0  0  0  0  0  0  0  0  0  0  0  0
    2.0533    5.0489   27.6651 Cl  0  0  0  0  0  0  0  0  0  0  0  0
    7.8711   10.6460   25.5520 O   0  0  0  0  0  0  0  0  0  0  0  0
    7.3991   11.9060   25.8346 C   0  0  0  0  0  0  0  0  0  0  0  0
    6.8024   12.3126   27.0180 C   0  0  0  0  0  0  0  0  0  0  0  0
    6.3466   13.5685   27.2473 N   0  0  0  0  0  0  0  0  0  0  0  0
    6.4685   14.4732   26.2616 C   0  0  0  0  0  0  0  0  0  0  0  0
    6.0111   15.7686   26.4637 C   0  0  0  0  0  0  0  0  0  0  0  0
    6.1115   16.7475   25.4698 C   0  0  0  0  0  0  0  0  0  0  0  0
    6.6821   16.4236   24.2447 C   0  0  0  0  0  0  0  0  0  0  0  0
    6.8226   17.7378   22.8948 Br  0  0  0  0  0  0  0  0  0  0  0  0
    7.1509   15.1338   24.0090 C   0  0  0  0  0  0  0  0  0  0  0  0
    7.0472   14.1551   25.0132 C   0  0  0  0  0  0  0  0  0  0  0  0
    7.5090   12.8462   24.8154 C   0  0  0  0  0  0  0  0  0  0  0  0
 11 12  2  0
 12 13  2  0
 12  9  1  0
  9  1  1  0
  1  2  2  0
  2  3  1  0
  3  4  1  0
  3  5  2  0
  5 22  1  0
 22 23  1  0
 23 24  2  0
 24 25  1  0
 25 26  2  0
 26 27  1  0
 27 28  2  0
 28 29  1  0
 29 30  1  0
 29 31  2  0
 31 32  1  0
 32 33  2  0
  5  6  1  0
  6  7  1  0
  6  8  2  0
 12 14  1  0
 14 15  2  0
 15 16  1  0
 16 17  2  0
 17 18  1  0
 17 19  1  0
 19 20  2  0
 20 21  1  0
  8  1  1  0
 20 14  1  0
 33 23  1  0
 32 26  1  0
  9 10  1  0
M  END
> <minimizedAffinity>
-9.83908

> <CNNscore>
0.6822413802

> <CNNaffinity>
8.0242271423

> <CNN_VS>
5.4744596481

> <CNNaffinity_variance>
0.3458434045

$$$$



 33 36  0  0  0  0  0  0  0  0999 V2000
    6.0472    7.3052   25.5686 C   0  0  0  0  0  0  0  0  0  0  0  0
    7.1502    7.7810   26.2791 C   0  0  0  0  0  0  0  0  0  0  0  0
    7.4192    9.1518   26.3201 C   0  0  0  0  0  0  0  0  0  0  0  0
    8.8358    9.6739   27.1576 Cl  0  0  0  0  0  0  0  0  0  0  0  0
    6.5670   10.0574   25.6780 C   0  0  0  0  0  0  0  0  0  0  0  0
    5.4679    9.5726   24.9603 C   0  0  0  0  0  0  0  0  0  0  0  0
    4.4070   10.6415   24.1168 Cl  0  0  0  0  0  0  0  0  0  0  0  0
    5.2003    8.2019   24.9182 C   0  0  0  0  0  0  0  0  0  0  0  0
    5.8145    5.9006   25.5375 N   0  0  0  0  0  0  0  0  0  0  0  0
    6.5313    5.2934   25.2430 H   0  0  0  0  0  0  0  0  0  0  0  0
    3.3218    6.2850   25.7530 O   0  0  0  0  0  0  0  0  0  0  0  0
    4.3172    5.2670   26.0024 S   0  0  0  0  0  0  0  0  0  0  0  0
    4.1848    3.9475   25.4212 O   0  0  0  0  0  0  0  0  0  0  0  0
    4.4662    5.0700   27.7609 C   0  0  0  0  0  0  0  0  0  0  0  0
    5.7540    5.0456   28.3202 C   0  0  0  0  0  0  0  0  0  0  0  0
    5.9152    4.8905   29.6978 C   0  0  0  0  0  0  0  0  0  0  0  0
    4.7942    4.7564   30.5125 C   0  0  0  0  0  0  0  0  0  0  0  0
    4.9912    4.5695   32.2104 Cl  0  0  0  0  0  0  0  0  0  0  0  0
    3.5133    4.7762   29.9626 C   0  0  0  0  0  0  0  0  0  0  0  0
    3.3430    4.9320   28.5818 C   0  0  0  0  0  0  0  0  0  0  0  0
    1.7162    4.9780   28.0039 Cl  0  0  0  0  0  0  0  0  0  0  0  0
    6.8416   11.4048   25.6716 O   0  0  0  0  0  0  0  0  0  0  0  0
    6.4315   12.1460   26.7545 C   0  0  0  0  0  0  0  0  0  0  0  0
    6.0591   11.6506   27.9946 C   0  0  0  0  0  0  0  0  0  0  0  0
    5.6552   12.4239   29.0322 N   0  0  0  0  0  0  0  0  0  0  0  0
    5.5995   13.7529   28.8437 C   0  0  0  0  0  0  0  0  0  0  0  0
    5.1892   14.5735   29.8861 C   0  0  0  0  0  0  0  0  0  0  0  0
    5.1109   15.9624   29.7416 C   0  0  0  0  0  0  0  0  0  0  0  0
    5.4502   16.5447   28.5262 C   0  0  0  0  0  0  0  0  0  0  0  0
    5.3479   18.4198   28.3197 Br  0  0  0  0  0  0  0  0  0  0  0  0
    5.8656   15.7509   27.4604 C   0  0  0  0  0  0  0  0  0  0  0  0
    5.9425   14.3552   27.6132 C   0  0  0  0  0  0  0  0  0  0  0  0
    6.3579   13.5221   26.5649 C   0  0  0  0  0  0  0  0  0  0  0  0
 11 12  2  0
 12 13  2  0
 12  9  1  0
  9  1  1  0
  1  2  2  0
  2  3  1  0
  3  4  1  0
  3  5  2  0
  5 22  1  0
 22 23  1  0
 23 24  2  0
 24 25  1  0
 25 26  2  0
 26 27  1  0
 27 28  2  0
 28 29  1  0
 29 30  1  0
 29 31  2  0
 31 32  1  0
 32 33  2  0
  5  6  1  0
  6  7  1  0
  6  8  2  0
 12 14  1  0
 14 15  2  0
 15 16  1  0
 16 17  2  0
 17 18  1  0
 17 19  1  0
 19 20  2  0
 20 21  1  0
  8  1  1  0
 20 14  1  0
 33 23  1  0
 32 26  1  0
  9 10  1  0
M  END
> <minimizedAffinity>
-10.79994

> <CNNscore>
0.6159310341

> <CNNaffinity>
8.2296419144

> <CNN_VS>
5.0688920021

> <CNNaffinity_variance>
0.2312230319

$$$$



 33 36  0  0  0  0  0  0  0  0999 V2000
    5.8746    7.5994   25.4454 C   0  0  0  0  0  0  0  0  0  0  0  0
    4.5678    7.7208   24.9707 C   0  0  0  0  0  0  0  0  0  0  0  0
    4.0835    8.9664   24.5621 C   0  0  0  0  0  0  0  0  0  0  0  0
    2.4380    9.0666   24.0491 Cl  0  0  0  0  0  0  0  0  0  0  0  0
    4.9149   10.0918   24.5947 C   0  0  0  0  0  0  0  0  0  0  0  0
    6.2212    9.9644   25.0800 C   0  0  0  0  0  0  0  0  0  0  0  0
    7.2766   11.3267   25.1794 Cl  0  0  0  0  0  0  0  0  0  0  0  0
    6.7044    8.7191   25.4900 C   0  0  0  0  0  0  0  0  0  0  0  0
    6.3270    6.3165   25.8667 N   0  0  0  0  0  0  0  0  0  0  0  0
    7.2897    6.1570   25.9971 H   0  0  0  0  0  0  0  0  0  0  0  0
    3.9436    5.4968   25.6331 O   0  0  0  0  0  0  0  0  0  0  0  0
    5.2245    5.0650   26.1450 S   0  0  0  0  0  0  0  0  0  0  0  0
    5.8218    3.8271   25.6895 O   0  0  0  0  0  0  0  0  0  0  0  0
    5.1061    4.9882   27.9151 C   0  0  0  0  0  0  0  0  0  0  0  0
    6.2876    5.1003   28.6657 C   0  0  0  0  0  0  0  0  0  0  0  0
    6.2386    5.0429   30.0594 C   0  0  0  0  0  0  0  0  0  0  0  0
    5.0145    4.8703   30.6998 C   0  0  0  0  0  0  0  0  0  0  0  0
    4.9523    4.8037   32.4169 Cl  0  0  0  0  0  0  0  0  0  0  0  0
    3.8387    4.7548   29.9599 C   0  0  0  0  0  0  0  0  0  0  0  0
    3.8791    4.8119   28.5617 C   0  0  0  0  0  0  0  0  0  0  0  0
    2.3652    4.6934   27.7391 Cl  0  0  0  0  0  0  0  0  0  0  0  0
    4.4409   11.3323   24.2379 O   0  0  0  0  0  0  0  0  0  0  0  0
    4.2246   11.5742   22.9019 C   0  0  0  0  0  0  0  0  0  0  0  0
    3.1185   11.1801   22.1651 C   0  0  0  0  0  0  0  0  0  0  0  0
    2.9534   11.4381   20.8445 N   0  0  0  0  0  0  0  0  0  0  0  0
    3.9284   12.1064   20.2060 C   0  0  0  0  0  0  0  0  0  0  0  0
    3.7909   12.3864   18.8529 C   0  0  0  0  0  0  0  0  0  0  0  0
    4.7772   13.0762   18.1406 C   0  0  0  0  0  0  0  0  0  0  0  0
    5.9284   13.4957   18.7964 C   0  0  0  0  0  0  0  0  0  0  0  0
    7.2674   14.4282   17.8442 Br  0  0  0  0  0  0  0  0  0  0  0  0
    6.0982   13.2313   20.1529 C   0  0  0  0  0  0  0  0  0  0  0  0
    5.1020   12.5377   20.8626 C   0  0  0  0  0  0  0  0  0  0  0  0
    5.2346   12.2540   22.2292 C   0  0  0  0  0  0  0  0  0  0  0  0
 11 12  2  0
 12 13  2  0
 12  9  1  0
  9  1  1  0
  1  2  2  0
  2  3  1  0
  3  4  1  0
  3  5  2  0
  5 22  1  0
 22 23  1  0
 23 24  2  0
 24 25  1  0
 25 26  2  0
 26 27  1  0
 27 28  2  0
 28 29  1  0
 29 30  1  0
 29 31  2  0
 31 32  1  0
 32 33  2  0
  5  6  1  0
  6  7  1  0
  6  8  2  0
 12 14  1  0
 14 15  2  0
 15 16  1  0
 16 17  2  0
 17 18  1  0
 17 19  1  0
 19 20  2  0
 20 21  1  0
  8  1  1  0
 20 14  1  0
 33 23  1  0
 32 26  1  0
  9 10  1  0
M  END
> <minimizedAffinity>
-10.37407

> <CNNscore>
0.6063840985

> <CNNaffinity>
7.7278361320

> <CNN_VS>
4.6860370636

> <CNNaffinity_variance>
0.6667380333

$$$$
