


 38 40  0  0  0  0  0  0  0  0999 V2000
   13.6196   10.0512    1.6353 C   0  0  0  0  0  0  0  0  0  0  0  0
   13.2172   10.3789    0.2814 O   0  0  0  0  0  0  0  0  0  0  0  0
   13.6554    9.2789   -0.5576 C   0  0  0  0  0  0  0  0  0  0  0  0
   14.4915    8.3173    0.2937 C   0  0  0  0  0  0  0  0  0  0  0  0
   13.6904    7.1932    0.6914 O   0  0  0  0  0  0  0  0  0  0  0  0
   14.8442    9.1524    1.5130 C   0  0  0  0  0  0  0  0  0  0  0  0
   15.0311    8.3335    2.6607 O   0  0  0  0  0  0  0  0  0  0  0  0
   12.9030    7.5077    1.1625 H   0  0  0  0  0  0  0  0  0  0  0  0
   14.2343    7.8011    2.8112 H   0  0  0  0  0  0  0  0  0  0  0  0
   14.3647    9.8160   -1.6957 N   0  0  0  0  0  0  0  0  0  0  0  0
   15.5860   10.4323   -1.6441 C   0  0  0  0  0  0  0  0  0  0  0  0
   16.0007   10.7972   -2.8404 N   0  0  0  0  0  0  0  0  0  0  0  0
   15.0007   10.4019   -3.7016 C   0  0  0  0  0  0  0  0  0  0  0  0
   14.8565   10.4934   -5.0941 C   0  0  0  0  0  0  0  0  0  0  0  0
   15.8014   11.0862   -5.9221 N   0  0  0  0  0  0  0  0  0  0  0  0
   13.7523    9.9542   -5.6628 N   0  0  0  0  0  0  0  0  0  0  0  0
   12.8247    9.3863   -4.8659 C   0  0  0  0  0  0  0  0  0  0  0  0
   12.8506    9.2500   -3.5237 N   0  0  0  0  0  0  0  0  0  0  0  0
   13.9729    9.7826   -3.0083 C   0  0  0  0  0  0  0  0  0  0  0  0
   16.6136   11.4859   -5.5349 H   0  0  0  0  0  0  0  0  0  0  0  0
   15.6590   11.1066   -6.8960 H   0  0  0  0  0  0  0  0  0  0  0  0
   13.9032   11.3233    2.4266 C   0  0  0  0  0  0  0  0  0  0  0  0
   14.4518   10.9573    3.6855 O   0  0  0  0  0  0  0  0  0  0  0  0
   15.9734   11.4024    4.0457 S   0  0  0  0  0  0  0  0  0  0  0  0
   16.8491   10.5666    3.2542 O   0  0  0  0  0  0  0  0  0  0  0  0
   16.0241   12.8461    3.9862 O   0  0  0  0  0  0  0  0  0  0  0  0
   15.7343    9.6777    6.0793 C   0  0  0  0  0  0  0  0  0  0  0  0
   15.3015    8.8077    5.3342 O   0  0  0  0  0  0  0  0  0  0  0  0
   16.1370   10.9389    5.6262 N   0  0  0  0  0  0  0  0  0  0  0  0
   16.5309   11.5719    6.2692 H   0  0  0  0  0  0  0  0  0  0  0  0
   15.9329    9.4272    7.5970 C   0  0  0  0  0  0  0  0  0  0  0  0
   16.2114    7.9803    7.8047 N   0  0  0  0  0  0  0  0  0  0  0  0
   15.4147    7.4310    7.4822 H   0  0  0  0  0  0  0  0  0  0  0  0
   16.3673    7.8031    8.7970 H   0  0  0  0  0  0  0  0  0  0  0  0
   13.9073    8.7458    8.9823 C   0  0  0  0  0  0  0  0  0  0  0  0
   14.7378    9.9415    8.4599 C   0  0  0  0  0  0  0  0  0  0  0  0
   15.1925   10.7871    9.6702 C   0  0  0  0  0  0  0  0  0  0  0  0
   13.8083   10.8099    7.5836 C   0  0  0  0  0  0  0  0  0  0  0  0
 35 36  1  0
 36 37  1  0
 36 38  1  0
 36 31  1  0
 31 32  1  0
 31 27  1  0
 27 28  2  0
 27 29  1  0
 29 24  1  0
 24 25  2  0
 24 26  2  0
 24 23  1  0
 23 22  1  0
  1 22  1  0
  1  2  1  0
  2  3  1  0
  3 10  1  0
 10 11  1  0
 11 12  2  0
 12 13  1  0
 13 14  2  0
 14 15  1  0
 14 16  1  0
 16 17  2  0
 17 18  1  0
 18 19  2  0
  3  4  1  0
  4  5  1  0
  4  6  1  0
  6  7  1  0
  6  1  1  0
 19 10  1  0
 19 13  1  0
 32 33  1  0
 32 34  1  0
 29 30  1  0
 15 20  1  0
 15 21  1  0
  5  8  1  0
  7  9  1  0
M  END
> <minimizedAffinity>
-10.19524

> <CNNscore>
0.9447126389

> <CNNaffinity>
6.3175444603

> <CNN_VS>
5.9682641029

> <CNNaffinity_variance>
0.6987746358

$$$$



 38 40  0  0  0  0  0  0  0  0999 V2000
   14.8914    9.9682    1.7656 C   0  0  0  0  0  0  0  0  0  0  0  0
   14.8670   10.9841    0.7314 O   0  0  0  0  0  0  0  0  0  0  0  0
   14.0035   10.4816   -0.3211 C   0  0  0  0  0  0  0  0  0  0  0  0
   13.6096    9.0395    0.0161 C   0  0  0  0  0  0  0  0  0  0  0  0
   12.2912    9.0130    0.5860 O   0  0  0  0  0  0  0  0  0  0  0  0
   14.6308    8.6389    1.0673 C   0  0  0  0  0  0  0  0  0  0  0  0
   14.1017    7.6581    1.9509 O   0  0  0  0  0  0  0  0  0  0  0  0
   12.2640    9.5907    1.3648 H   0  0  0  0  0  0  0  0  0  0  0  0
   13.2862    7.9935    2.3551 H   0  0  0  0  0  0  0  0  0  0  0  0
   14.6856   10.6181   -1.5872 N   0  0  0  0  0  0  0  0  0  0  0  0
   15.9558   11.1023   -1.7499 C   0  0  0  0  0  0  0  0  0  0  0  0
   16.3267   11.0870   -3.0143 N   0  0  0  0  0  0  0  0  0  0  0  0
   15.2464   10.5737   -3.6978 C   0  0  0  0  0  0  0  0  0  0  0  0
   15.0264   10.2986   -5.0558 C   0  0  0  0  0  0  0  0  0  0  0  0
   15.9664   10.5492   -6.0475 N   0  0  0  0  0  0  0  0  0  0  0  0
   13.8480    9.7367   -5.4152 N   0  0  0  0  0  0  0  0  0  0  0  0
   12.9255    9.4998   -4.4608 C   0  0  0  0  0  0  0  0  0  0  0  0
   13.0210    9.7300   -3.1347 N   0  0  0  0  0  0  0  0  0  0  0  0
   14.2136   10.2693   -2.8254 C   0  0  0  0  0  0  0  0  0  0  0  0
   16.8315   10.9570   -5.8140 H   0  0  0  0  0  0  0  0  0  0  0  0
   15.7674   10.3191   -6.9838 H   0  0  0  0  0  0  0  0  0  0  0  0
   16.2270    9.9919    2.5007 C   0  0  0  0  0  0  0  0  0  0  0  0
   16.4795    8.6923    3.0173 O   0  0  0  0  0  0  0  0  0  0  0  0
   17.7338    8.4718    4.0279 S   0  0  0  0  0  0  0  0  0  0  0  0
   18.2872    7.1702    3.7255 O   0  0  0  0  0  0  0  0  0  0  0  0
   18.5322    9.6766    3.9909 O   0  0  0  0  0  0  0  0  0  0  0  0
   16.4104    9.4779    6.1264 C   0  0  0  0  0  0  0  0  0  0  0  0
   16.3185   10.5727    5.5860 O   0  0  0  0  0  0  0  0  0  0  0  0
   17.0082    8.3717    5.5122 N   0  0  0  0  0  0  0  0  0  0  0  0
   16.9968    7.5048    5.9786 H   0  0  0  0  0  0  0  0  0  0  0  0
   15.8076    9.2078    7.5298 C   0  0  0  0  0  0  0  0  0  0  0  0
   16.1368    7.8114    7.9247 N   0  0  0  0  0  0  0  0  0  0  0  0
   15.7203    7.1621    7.2574 H   0  0  0  0  0  0  0  0  0  0  0  0
   15.7663    7.6254    8.8567 H   0  0  0  0  0  0  0  0  0  0  0  0
   14.0391   11.0391    7.6037 C   0  0  0  0  0  0  0  0  0  0  0  0
   14.2778    9.5108    7.6033 C   0  0  0  0  0  0  0  0  0  0  0  0
   13.4871    8.8926    6.4289 C   0  0  0  0  0  0  0  0  0  0  0  0
   13.7058    8.9474    8.9229 C   0  0  0  0  0  0  0  0  0  0  0  0
 35 36  1  0
 36 37  1  0
 36 38  1  0
 36 31  1  0
 31 32  1  0
 31 27  1  0
 27 28  2  0
 27 29  1  0
 29 24  1  0
 24 25  2  0
 24 26  2  0
 24 23  1  0
 23 22  1  0
  1 22  1  0
  1  2  1  0
  2  3  1  0
  3 10  1  0
 10 11  1  0
 11 12  2  0
 12 13  1  0
 13 14  2  0
 14 15  1  0
 14 16  1  0
 16 17  2  0
 17 18  1  0
 18 19  2  0
  3  4  1  0
  4  5  1  0
  4  6  1  0
  6  7  1  0
  6  1  1  0
 19 10  1  0
 19 13  1  0
 32 33  1  0
 32 34  1  0
 29 30  1  0
 15 20  1  0
 15 21  1  0
  5  8  1  0
  7  9  1  0
M  END
> <minimizedAffinity>
-10.07856

> <CNNscore>
0.9029076099

> <CNNaffinity>
6.2908287048

> <CNN_VS>
5.6800370216

> <CNNaffinity_variance>
0.3795808554

$$$$



 38 40  0  0  0  0  0  0  0  0999 V2000
   13.7786   10.4396    1.8771 C   0  0  0  0  0  0  0  0  0  0  0  0
   13.3475   10.8205    0.5463 O   0  0  0  0  0  0  0  0  0  0  0  0
   13.5507    9.6606   -0.3017 C   0  0  0  0  0  0  0  0  0  0  0  0
   14.2760    8.5821    0.5102 C   0  0  0  0  0  0  0  0  0  0  0  0
   13.3336    7.6022    0.9740 O   0  0  0  0  0  0  0  0  0  0  0  0
   14.8344    9.3562    1.6922 C   0  0  0  0  0  0  0  0  0  0  0  0
   14.9619    8.5237    2.8383 O   0  0  0  0  0  0  0  0  0  0  0  0
   12.6380    8.0408    1.4885 H   0  0  0  0  0  0  0  0  0  0  0  0
   14.1019    8.1261    3.0463 H   0  0  0  0  0  0  0  0  0  0  0  0
   14.2618   10.0719   -1.4899 N   0  0  0  0  0  0  0  0  0  0  0  0
   15.4744   10.7075   -1.5023 C   0  0  0  0  0  0  0  0  0  0  0  0
   15.8938   10.9368   -2.7303 N   0  0  0  0  0  0  0  0  0  0  0  0
   14.9063   10.4299   -3.5461 C   0  0  0  0  0  0  0  0  0  0  0  0
   14.7722   10.3570   -4.9407 C   0  0  0  0  0  0  0  0  0  0  0  0
   15.7158   10.8631   -5.8258 N   0  0  0  0  0  0  0  0  0  0  0  0
   13.6800    9.7396   -5.4501 N   0  0  0  0  0  0  0  0  0  0  0  0
   12.7537    9.2549   -4.5986 C   0  0  0  0  0  0  0  0  0  0  0  0
   12.7705    9.2758   -3.2496 N   0  0  0  0  0  0  0  0  0  0  0  0
   13.8812    9.8806   -2.7923 C   0  0  0  0  0  0  0  0  0  0  0  0
   16.5193   11.3166   -5.4825 H   0  0  0  0  0  0  0  0  0  0  0  0
   15.5810   10.7681   -6.7964 H   0  0  0  0  0  0  0  0  0  0  0  0
   14.3109   11.6540    2.6299 C   0  0  0  0  0  0  0  0  0  0  0  0
   15.7043   11.7666    2.3745 O   0  0  0  0  0  0  0  0  0  0  0  0
   16.6822   12.3222    3.5485 S   0  0  0  0  0  0  0  0  0  0  0  0
   16.3964   13.7325    3.6945 O   0  0  0  0  0  0  0  0  0  0  0  0
   16.5907   11.3982    4.6568 O   0  0  0  0  0  0  0  0  0  0  0  0
   18.3803   11.8731    1.5281 C   0  0  0  0  0  0  0  0  0  0  0  0
   17.4558   11.7476    0.7351 O   0  0  0  0  0  0  0  0  0  0  0  0
   18.1896   12.1864    2.8785 N   0  0  0  0  0  0  0  0  0  0  0  0
   18.9786   12.3309    3.4493 H   0  0  0  0  0  0  0  0  0  0  0  0
   19.8606   11.7553    1.0806 C   0  0  0  0  0  0  0  0  0  0  0  0
   20.0718   12.6453   -0.0931 N   0  0  0  0  0  0  0  0  0  0  0  0
   19.4713   12.3441   -0.8606 H   0  0  0  0  0  0  0  0  0  0  0  0
   21.0477   12.5964   -0.3856 H   0  0  0  0  0  0  0  0  0  0  0  0
   19.7255    9.8014   -0.5475 C   0  0  0  0  0  0  0  0  0  0  0  0
   20.2979   10.2817    0.8068 C   0  0  0  0  0  0  0  0  0  0  0  0
   21.8326   10.1073    0.7786 C   0  0  0  0  0  0  0  0  0  0  0  0
   19.7257    9.3633    1.9090 C   0  0  0  0  0  0  0  0  0  0  0  0
 35 36  1  0
 36 37  1  0
 36 38  1  0
 36 31  1  0
 31 32  1  0
 31 27  1  0
 27 28  2  0
 27 29  1  0
 29 24  1  0
 24 25  2  0
 24 26  2  0
 24 23  1  0
 23 22  1  0
  1 22  1  0
  1  2  1  0
  2  3  1  0
  3 10  1  0
 10 11  1  0
 11 12  2  0
 12 13  1  0
 13 14  2  0
 14 15  1  0
 14 16  1  0
 16 17  2  0
 17 18  1  0
 18 19  2  0
  3  4  1  0
  4  5  1  0
  4  6  1  0
  6  7  1  0
  6  1  1  0
 19 10  1  0
 19 13  1  0
 32 33  1  0
 32 34  1  0
 29 30  1  0
 15 20  1  0
 15 21  1  0
  5  8  1  0
  7  9  1  0
M  END
> <minimizedAffinity>
-9.86481

> <CNNscore>
0.7957693338

> <CNNaffinity>
5.9061789513

> <CNN_VS>
4.6999559402

> <CNNaffinity_variance>
0.4491755664

$$$$



 38 40  0  0  0  0  0  0  0  0999 V2000
   14.7200   10.1114    1.7857 C   0  0  0  0  0  0  0  0  0  0  0  0
   14.6953   11.0907    0.7168 O   0  0  0  0  0  0  0  0  0  0  0  0
   13.8823   10.5246   -0.3436 C   0  0  0  0  0  0  0  0  0  0  0  0
   13.5249    9.0822    0.0311 C   0  0  0  0  0  0  0  0  0  0  0  0
   12.1907    9.0307    0.5612 O   0  0  0  0  0  0  0  0  0  0  0  0
   14.5248    8.7515    1.1261 C   0  0  0  0  0  0  0  0  0  0  0  0
   14.0002    7.7837    2.0265 O   0  0  0  0  0  0  0  0  0  0  0  0
   12.1202    9.6329    1.3183 H   0  0  0  0  0  0  0  0  0  0  0  0
   13.1619    8.1049    2.3939 H   0  0  0  0  0  0  0  0  0  0  0  0
   14.5991   10.6413   -1.5922 N   0  0  0  0  0  0  0  0  0  0  0  0
   15.8749   11.1196   -1.7269 C   0  0  0  0  0  0  0  0  0  0  0  0
   16.2802   11.0855   -2.9802 N   0  0  0  0  0  0  0  0  0  0  0  0
   15.2174   10.5657   -3.6859 C   0  0  0  0  0  0  0  0  0  0  0  0
   15.0337   10.2722   -5.0454 C   0  0  0  0  0  0  0  0  0  0  0  0
   16.0013   10.5062   -6.0144 N   0  0  0  0  0  0  0  0  0  0  0  0
   13.8638    9.7087   -5.4291 N   0  0  0  0  0  0  0  0  0  0  0  0
   12.9148    9.4878   -4.4971 C   0  0  0  0  0  0  0  0  0  0  0  0
   12.9747    9.7364   -3.1723 N   0  0  0  0  0  0  0  0  0  0  0  0
   14.1601   10.2765   -2.8379 C   0  0  0  0  0  0  0  0  0  0  0  0
   16.8610   10.9148   -5.7629 H   0  0  0  0  0  0  0  0  0  0  0  0
   15.8273   10.2635   -6.9525 H   0  0  0  0  0  0  0  0  0  0  0  0
   16.0303   10.2044    2.5598 C   0  0  0  0  0  0  0  0  0  0  0  0
   16.1603    9.0413    3.3660 O   0  0  0  0  0  0  0  0  0  0  0  0
   17.4183    8.9236    4.3891 S   0  0  0  0  0  0  0  0  0  0  0  0
   18.3490    9.9692    4.0253 O   0  0  0  0  0  0  0  0  0  0  0  0
   16.8764    8.8039    5.7241 O   0  0  0  0  0  0  0  0  0  0  0  0
   19.3141    7.0385    4.5298 C   0  0  0  0  0  0  0  0  0  0  0  0
   19.9067    7.6529    5.4076 O   0  0  0  0  0  0  0  0  0  0  0  0
   18.1072    7.4771    3.9736 N   0  0  0  0  0  0  0  0  0  0  0  0
   17.6526    6.9060    3.3130 H   0  0  0  0  0  0  0  0  0  0  0  0
   19.8276    5.6741    4.0002 C   0  0  0  0  0  0  0  0  0  0  0  0
   19.3245    4.5992    4.8977 N   0  0  0  0  0  0  0  0  0  0  0  0
   19.6885    4.7445    5.8394 H   0  0  0  0  0  0  0  0  0  0  0  0
   19.6351    3.6923    4.5493 H   0  0  0  0  0  0  0  0  0  0  0  0
   22.0438    6.6904    4.7367 C   0  0  0  0  0  0  0  0  0  0  0  0
   21.3782    5.6352    3.8224 C   0  0  0  0  0  0  0  0  0  0  0  0
   21.9845    4.2525    4.1495 C   0  0  0  0  0  0  0  0  0  0  0  0
   21.7365    5.9885    2.3620 C   0  0  0  0  0  0  0  0  0  0  0  0
 35 36  1  0
 36 37  1  0
 36 38  1  0
 36 31  1  0
 31 32  1  0
 31 27  1  0
 27 28  2  0
 27 29  1  0
 29 24  1  0
 24 25  2  0
 24 26  2  0
 24 23  1  0
 23 22  1  0
  1 22  1  0
  1  2  1  0
  2  3  1  0
  3 10  1  0
 10 11  1  0
 11 12  2  0
 12 13  1  0
 13 14  2  0
 14 15  1  0
 14 16  1  0
 16 17  2  0
 17 18  1  0
 18 19  2  0
  3  4  1  0
  4  5  1  0
  4  6  1  0
  6  7  1  0
  6  1  1  0
 19 10  1  0
 19 13  1  0
 32 33  1  0
 32 34  1  0
 29 30  1  0
 15 20  1  0
 15 21  1  0
  5  8  1  0
  7  9  1  0
M  END
> <minimizedAffinity>
-8.98263

> <CNNscore>
0.4344764948

> <CNNaffinity>
5.1467971802

> <CNN_VS>
2.2361624241

> <CNNaffinity_variance>
0.7869083285

$$$$



 38 40  0  0  0  0  0  0  0  0999 V2000
   14.9065    9.7154    1.8381 C   0  0  0  0  0  0  0  0  0  0  0  0
   15.0284   10.7968    0.8799 O   0  0  0  0  0  0  0  0  0  0  0  0
   14.0806   10.5162   -0.1825 C   0  0  0  0  0  0  0  0  0  0  0  0
   13.4678    9.1330    0.0613 C   0  0  0  0  0  0  0  0  0  0  0  0
   12.1705    9.2717    0.6625 O   0  0  0  0  0  0  0  0  0  0  0  0
   14.4279    8.4995    1.0539 C   0  0  0  0  0  0  0  0  0  0  0  0
   13.7629    7.5510    1.8790 O   0  0  0  0  0  0  0  0  0  0  0  0
   12.2469    9.7868    1.4809 H   0  0  0  0  0  0  0  0  0  0  0  0
   13.0171    7.9793    2.3276 H   0  0  0  0  0  0  0  0  0  0  0  0
   14.7568   10.6378   -1.4532 N   0  0  0  0  0  0  0  0  0  0  0  0
   16.0368   11.0924   -1.6246 C   0  0  0  0  0  0  0  0  0  0  0  0
   16.3985   11.0695   -2.8914 N   0  0  0  0  0  0  0  0  0  0  0  0
   15.3018   10.5820   -3.5678 C   0  0  0  0  0  0  0  0  0  0  0  0
   15.0660   10.3131   -4.9244 C   0  0  0  0  0  0  0  0  0  0  0  0
   16.0047   10.5426   -5.9224 N   0  0  0  0  0  0  0  0  0  0  0  0
   13.8724    9.7791   -5.2759 N   0  0  0  0  0  0  0  0  0  0  0  0
   12.9513    9.5629   -4.3152 C   0  0  0  0  0  0  0  0  0  0  0  0
   13.0613    9.7898   -2.9897 N   0  0  0  0  0  0  0  0  0  0  0  0
   14.2683   10.3010   -2.6883 C   0  0  0  0  0  0  0  0  0  0  0  0
   16.8807   10.9299   -5.6947 H   0  0  0  0  0  0  0  0  0  0  0  0
   15.7939   10.3178   -6.8575 H   0  0  0  0  0  0  0  0  0  0  0  0
   16.2397    9.4739    2.5374 C   0  0  0  0  0  0  0  0  0  0  0  0
   16.9515   10.7030    2.5862 O   0  0  0  0  0  0  0  0  0  0  0  0
   18.5508   10.7041    2.2940 S   0  0  0  0  0  0  0  0  0  0  0  0
   18.7646    9.8457    1.1497 O   0  0  0  0  0  0  0  0  0  0  0  0
   18.9908   12.0811    2.3178 O   0  0  0  0  0  0  0  0  0  0  0  0
   20.0450    8.8422    3.5055 C   0  0  0  0  0  0  0  0  0  0  0  0
   20.4586    8.4268    2.4305 O   0  0  0  0  0  0  0  0  0  0  0  0
   19.1760    9.9331    3.6185 N   0  0  0  0  0  0  0  0  0  0  0  0
   18.9281   10.2529    4.5160 H   0  0  0  0  0  0  0  0  0  0  0  0
   20.5066    8.2240    4.8511 C   0  0  0  0  0  0  0  0  0  0  0  0
   19.4137    8.3900    5.8470 N   0  0  0  0  0  0  0  0  0  0  0  0
   19.2297    9.3834    5.9875 H   0  0  0  0  0  0  0  0  0  0  0  0
   19.6933    7.9676    6.7323 H   0  0  0  0  0  0  0  0  0  0  0  0
   22.9924    7.7553    5.1483 C   0  0  0  0  0  0  0  0  0  0  0  0
   21.8695    8.8000    5.3493 C   0  0  0  0  0  0  0  0  0  0  0  0
   22.2741   10.0995    4.6186 C   0  0  0  0  0  0  0  0  0  0  0  0
   21.7770    9.1026    6.8612 C   0  0  0  0  0  0  0  0  0  0  0  0
 35 36  1  0
 36 37  1  0
 36 38  1  0
 36 31  1  0
 31 32  1  0
 31 27  1  0
 27 28  2  0
 27 29  1  0
 29 24  1  0
 24 25  2  0
 24 26  2  0
 24 23  1  0
 23 22  1  0
  1 22  1  0
  1  2  1  0
  2  3  1  0
  3 10  1  0
 10 11  1  0
 11 12  2  0
 12 13  1  0
 13 14  2  0
 14 15  1  0
 14 16  1  0
 16 17  2  0
 17 18  1  0
 18 19  2  0
  3  4  1  0
  4  5  1  0
  4  6  1  0
  6  7  1  0
  6  1  1  0
 19 10  1  0
 19 13  1  0
 32 33  1  0
 32 34  1  0
 29 30  1  0
 15 20  1  0
 15 21  1  0
  5  8  1  0
  7  9  1  0
M  END
> <minimizedAffinity>
-8.97137

> <CNNscore>
0.4153341353

> <CNNaffinity>
5.3775963783

> <CNN_VS>
2.2334992886

> <CNNaffinity_variance>
0.4354752600

$$$$



 38 40  0  0  0  0  0  0  0  0999 V2000
   15.1557    9.8437    1.8170 C   0  0  0  0  0  0  0  0  0  0  0  0
   15.1368   10.8922    0.8157 O   0  0  0  0  0  0  0  0  0  0  0  0
   14.2084   10.4636   -0.2139 C   0  0  0  0  0  0  0  0  0  0  0  0
   13.7614    9.0309    0.0961 C   0  0  0  0  0  0  0  0  0  0  0  0
   12.4676    9.0463    0.7202 O   0  0  0  0  0  0  0  0  0  0  0  0
   14.8047    8.5507    1.0907 C   0  0  0  0  0  0  0  0  0  0  0  0
   14.2667    7.5673    1.9660 O   0  0  0  0  0  0  0  0  0  0  0  0
   12.4993    9.5995    1.5164 H   0  0  0  0  0  0  0  0  0  0  0  0
   13.4850    7.9264    2.4142 H   0  0  0  0  0  0  0  0  0  0  0  0
   14.8439   10.6092   -1.5030 N   0  0  0  0  0  0  0  0  0  0  0  0
   16.1134   11.0792   -1.7073 C   0  0  0  0  0  0  0  0  0  0  0  0
   16.4360   11.0772   -2.9849 N   0  0  0  0  0  0  0  0  0  0  0  0
   15.3239   10.5877   -3.6339 C   0  0  0  0  0  0  0  0  0  0  0  0
   15.0489   10.3347   -4.9862 C   0  0  0  0  0  0  0  0  0  0  0  0
   15.9540   10.5873   -6.0093 N   0  0  0  0  0  0  0  0  0  0  0  0
   13.8503    9.7934   -5.3082 N   0  0  0  0  0  0  0  0  0  0  0  0
   12.9615    9.5548   -4.3228 C   0  0  0  0  0  0  0  0  0  0  0  0
   13.1101    9.7649   -2.9982 N   0  0  0  0  0  0  0  0  0  0  0  0
   14.3207   10.2842   -2.7271 C   0  0  0  0  0  0  0  0  0  0  0  0
   16.8328   10.9805   -5.8033 H   0  0  0  0  0  0  0  0  0  0  0  0
   15.7167   10.3731   -6.9405 H   0  0  0  0  0  0  0  0  0  0  0  0
   16.5199    9.7830    2.4954 C   0  0  0  0  0  0  0  0  0  0  0  0
   16.5752    8.6062    3.2903 O   0  0  0  0  0  0  0  0  0  0  0  0
   17.9257    8.2851    4.1365 S   0  0  0  0  0  0  0  0  0  0  0  0
   17.6413    8.6183    5.5149 O   0  0  0  0  0  0  0  0  0  0  0  0
   18.3796    6.9713    3.7388 O   0  0  0  0  0  0  0  0  0  0  0  0
   20.1475    9.0403    2.8478 C   0  0  0  0  0  0  0  0  0  0  0  0
   20.3969    7.8841    2.5313 O   0  0  0  0  0  0  0  0  0  0  0  0
   19.0028    9.4046    3.5656 N   0  0  0  0  0  0  0  0  0  0  0  0
   18.8325   10.3591    3.7368 H   0  0  0  0  0  0  0  0  0  0  0  0
   21.0603   10.2185    2.4187 C   0  0  0  0  0  0  0  0  0  0  0  0
   21.5746   10.8883    3.6439 N   0  0  0  0  0  0  0  0  0  0  0  0
   20.7918   11.2583    4.1831 H   0  0  0  0  0  0  0  0  0  0  0  0
   22.1958   11.6525    3.3783 H   0  0  0  0  0  0  0  0  0  0  0  0
   19.2298   11.9729    2.1780 C   0  0  0  0  0  0  0  0  0  0  0  0
   20.3548   11.2096    1.4403 C   0  0  0  0  0  0  0  0  0  0  0  0
   21.3273   12.2426    0.8290 C   0  0  0  0  0  0  0  0  0  0  0  0
   19.7031   10.4154    0.2868 C   0  0  0  0  0  0  0  0  0  0  0  0
 35 36  1  0
 36 37  1  0
 36 38  1  0
 36 31  1  0
 31 32  1  0
 31 27  1  0
 27 28  2  0
 27 29  1  0
 29 24  1  0
 24 25  2  0
 24 26  2  0
 24 23  1  0
 23 22  1  0
  1 22  1  0
  1  2  1  0
  2  3  1  0
  3 10  1  0
 10 11  1  0
 11 12  2  0
 12 13  1  0
 13 14  2  0
 14 15  1  0
 14 16  1  0
 16 17  2  0
 17 18  1  0
 18 19  2  0
  3  4  1  0
  4  5  1  0
  4  6  1  0
  6  7  1  0
  6  1  1  0
 19 10  1  0
 19 13  1  0
 32 33  1  0
 32 34  1  0
 29 30  1  0
 15 20  1  0
 15 21  1  0
  5  8  1  0
  7  9  1  0
M  END
> <minimizedAffinity>
-8.83320

> <CNNscore>
0.2341819555

> <CNNaffinity>
4.9884524345

> <CNN_VS>
1.1682054996

> <CNNaffinity_variance>
0.7081694603

$$$$



 38 40  0  0  0  0  0  0  0  0999 V2000
   17.9213   10.4980    2.4461 C   0  0  0  0  0  0  0  0  0  0  0  0
   18.0124    9.9353    1.1130 O   0  0  0  0  0  0  0  0  0  0  0  0
   18.1298   11.0560    0.1986 C   0  0  0  0  0  0  0  0  0  0  0  0
   17.9489   12.3551    0.9912 C   0  0  0  0  0  0  0  0  0  0  0  0
   19.2307   12.9406    1.2699 O   0  0  0  0  0  0  0  0  0  0  0  0
   17.3081   11.8840    2.2856 C   0  0  0  0  0  0  0  0  0  0  0  0
   17.6354   12.7489    3.3661 O   0  0  0  0  0  0  0  0  0  0  0  0
   19.7837   12.2986    1.7421 H   0  0  0  0  0  0  0  0  0  0  0  0
   18.5998   12.8131    3.4482 H   0  0  0  0  0  0  0  0  0  0  0  0
   17.1719   10.8873   -0.8694 N   0  0  0  0  0  0  0  0  0  0  0  0
   17.4698   10.9053   -2.2055 C   0  0  0  0  0  0  0  0  0  0  0  0
   16.4008   10.6990   -2.9478 N   0  0  0  0  0  0  0  0  0  0  0  0
   15.3667   10.5448   -2.0508 C   0  0  0  0  0  0  0  0  0  0  0  0
   13.9973   10.2887   -2.2162 C   0  0  0  0  0  0  0  0  0  0  0  0
   13.3904   10.1548   -3.4586 N   0  0  0  0  0  0  0  0  0  0  0  0
   13.2329   10.1392   -1.1085 N   0  0  0  0  0  0  0  0  0  0  0  0
   13.8114   10.2781    0.1014 C   0  0  0  0  0  0  0  0  0  0  0  0
   15.1067   10.5324    0.3811 N   0  0  0  0  0  0  0  0  0  0  0  0
   15.8272   10.6533   -0.7481 C   0  0  0  0  0  0  0  0  0  0  0  0
   13.9228   10.2585   -4.2802 H   0  0  0  0  0  0  0  0  0  0  0  0
   12.4280    9.9561   -3.5174 H   0  0  0  0  0  0  0  0  0  0  0  0
   17.0918    9.5913    3.3488 C   0  0  0  0  0  0  0  0  0  0  0  0
   15.7732    9.5185    2.8241 O   0  0  0  0  0  0  0  0  0  0  0  0
   14.5178    9.9100    3.7801 S   0  0  0  0  0  0  0  0  0  0  0  0
   14.1372   11.2616    3.4333 O   0  0  0  0  0  0  0  0  0  0  0  0
   13.5818    8.8091    3.7323 O   0  0  0  0  0  0  0  0  0  0  0  0
   14.8299    9.0552    6.2978 C   0  0  0  0  0  0  0  0  0  0  0  0
   14.0442    8.1335    6.1176 O   0  0  0  0  0  0  0  0  0  0  0  0
   15.1942    9.9550    5.2900 N   0  0  0  0  0  0  0  0  0  0  0  0
   15.8758   10.6379    5.4857 H   0  0  0  0  0  0  0  0  0  0  0  0
   15.5426    9.2651    7.6593 C   0  0  0  0  0  0  0  0  0  0  0  0
   16.0164    7.9439    8.1534 N   0  0  0  0  0  0  0  0  0  0  0  0
   15.2166    7.3263    8.2926 H   0  0  0  0  0  0  0  0  0  0  0  0
   16.5081    8.0682    9.0383 H   0  0  0  0  0  0  0  0  0  0  0  0
   13.7169    9.0160    9.4177 C   0  0  0  0  0  0  0  0  0  0  0  0
   14.6548   10.0159    8.7013 C   0  0  0  0  0  0  0  0  0  0  0  0
   15.4850   10.7600    9.7707 C   0  0  0  0  0  0  0  0  0  0  0  0
   13.7680   11.0484    7.9709 C   0  0  0  0  0  0  0  0  0  0  0  0
 35 36  1  0
 36 37  1  0
 36 38  1  0
 36 31  1  0
 31 32  1  0
 31 27  1  0
 27 28  2  0
 27 29  1  0
 29 24  1  0
 24 25  2  0
 24 26  2  0
 24 23  1  0
 23 22  1  0
  1 22  1  0
  1  2  1  0
  2  3  1  0
  3 10  1  0
 10 11  1  0
 11 12  2  0
 12 13  1  0
 13 14  2  0
 14 15  1  0
 14 16  1  0
 16 17  2  0
 17 18  1  0
 18 19  2  0
  3  4  1  0
  4  5  1  0
  4  6  1  0
  6  7  1  0
  6  1  1  0
 19 10  1  0
 19 13  1  0
 32 33  1  0
 32 34  1  0
 29 30  1  0
 15 20  1  0
 15 21  1  0
  5  8  1  0
  7  9  1  0
M  END
> <minimizedAffinity>
-9.62960

> <CNNscore>
0.0944028050

> <CNNaffinity>
5.4025955200

> <CNN_VS>
0.5100201964

> <CNNaffinity_variance>
0.4104451239

$$$$



 38 40  0  0  0  0  0  0  0  0999 V2000
   18.8002    9.4496    3.3882 C   0  0  0  0  0  0  0  0  0  0  0  0
   19.5993    8.8054    4.4122 O   0  0  0  0  0  0  0  0  0  0  0  0
   20.9873    8.9980    4.0352 C   0  0  0  0  0  0  0  0  0  0  0  0
   21.0318    9.6512    2.6496 C   0  0  0  0  0  0  0  0  0  0  0  0
   21.2692   11.0618    2.7810 O   0  0  0  0  0  0  0  0  0  0  0  0
   19.6309    9.4151    2.1110 C   0  0  0  0  0  0  0  0  0  0  0  0
   19.2543   10.4340    1.1930 O   0  0  0  0  0  0  0  0  0  0  0  0
   20.5862   11.4533    3.3477 H   0  0  0  0  0  0  0  0  0  0  0  0
   19.3301   11.3004    1.6226 H   0  0  0  0  0  0  0  0  0  0  0  0
   21.6682    7.7257    4.1013 N   0  0  0  0  0  0  0  0  0  0  0  0
   21.4258    6.6584    3.2788 C   0  0  0  0  0  0  0  0  0  0  0  0
   22.2154    5.6400    3.5536 N   0  0  0  0  0  0  0  0  0  0  0  0
   22.9994    6.0679    4.6023 C   0  0  0  0  0  0  0  0  0  0  0  0
   24.0319    5.4542    5.3274 C   0  0  0  0  0  0  0  0  0  0  0  0
   24.4650    4.1560    5.0889 N   0  0  0  0  0  0  0  0  0  0  0  0
   24.6550    6.1722    6.2917 N   0  0  0  0  0  0  0  0  0  0  0  0
   24.2341    7.4294    6.5373 C   0  0  0  0  0  0  0  0  0  0  0  0
   23.2524    8.1154    5.9159 N   0  0  0  0  0  0  0  0  0  0  0  0
   22.6780    7.3688    4.9560 C   0  0  0  0  0  0  0  0  0  0  0  0
   24.0296    3.6118    4.3935 H   0  0  0  0  0  0  0  0  0  0  0  0
   25.2073    3.7802    5.6151 H   0  0  0  0  0  0  0  0  0  0  0  0
   17.4605    8.7376    3.2352 C   0  0  0  0  0  0  0  0  0  0  0  0
   16.5111    9.6682    2.7331 O   0  0  0  0  0  0  0  0  0  0  0  0
   15.0663    9.7994    3.4670 S   0  0  0  0  0  0  0  0  0  0  0  0
   14.7735   11.2128    3.5585 O   0  0  0  0  0  0  0  0  0  0  0  0
   14.1702    8.8666    2.8210 O   0  0  0  0  0  0  0  0  0  0  0  0
   15.3028   10.0927    6.1175 C   0  0  0  0  0  0  0  0  0  0  0  0
   14.9462   11.2623    6.0534 O   0  0  0  0  0  0  0  0  0  0  0  0
   15.3717    9.2539    4.9995 N   0  0  0  0  0  0  0  0  0  0  0  0
   15.6098    8.3074    5.1289 H   0  0  0  0  0  0  0  0  0  0  0  0
   15.6516    9.4191    7.4704 C   0  0  0  0  0  0  0  0  0  0  0  0
   16.5652    8.2746    7.2069 N   0  0  0  0  0  0  0  0  0  0  0  0
   16.0937    7.5931    6.6122 H   0  0  0  0  0  0  0  0  0  0  0  0
   16.8225    7.8345    8.0904 H   0  0  0  0  0  0  0  0  0  0  0  0
   14.7185    7.8071    9.2075 C   0  0  0  0  0  0  0  0  0  0  0  0
   14.3873    9.0061    8.2881 C   0  0  0  0  0  0  0  0  0  0  0  0
   13.8368   10.1550    9.1618 C   0  0  0  0  0  0  0  0  0  0  0  0
   13.2723    8.5578    7.3177 C   0  0  0  0  0  0  0  0  0  0  0  0
 35 36  1  0
 36 37  1  0
 36 38  1  0
 36 31  1  0
 31 32  1  0
 31 27  1  0
 27 28  2  0
 27 29  1  0
 29 24  1  0
 24 25  2  0
 24 26  2  0
 24 23  1  0
 23 22  1  0
  1 22  1  0
  1  2  1  0
  2  3  1  0
  3 10  1  0
 10 11  1  0
 11 12  2  0
 12 13  1  0
 13 14  2  0
 14 15  1  0
 14 16  1  0
 16 17  2  0
 17 18  1  0
 18 19  2  0
  3  4  1  0
  4  5  1  0
  4  6  1  0
  6  7  1  0
  6  1  1  0
 19 10  1  0
 19 13  1  0
 32 33  1  0
 32 34  1  0
 29 30  1  0
 15 20  1  0
 15 21  1  0
  5  8  1  0
  7  9  1  0
M  END
> <minimizedAffinity>
-8.51036

> <CNNscore>
0.0776916072

> <CNNaffinity>
4.8180918694

> <CNN_VS>
0.3743253052

> <CNNaffinity_variance>
0.5691254735

$$$$



 38 40  0  0  0  0  0  0  0  0999 V2000
   16.2876   11.1655    3.5960 C   0  0  0  0  0  0  0  0  0  0  0  0
   16.3467   10.1861    2.5285 O   0  0  0  0  0  0  0  0  0  0  0  0
   17.3214   10.6761    1.5717 C   0  0  0  0  0  0  0  0  0  0  0  0
   17.7600   12.0817    1.9964 C   0  0  0  0  0  0  0  0  0  0  0  0
   19.0248   12.0156    2.6743 O   0  0  0  0  0  0  0  0  0  0  0  0
   16.6756   12.5017    2.9741 C   0  0  0  0  0  0  0  0  0  0  0  0
   17.1782   13.4206    3.9361 O   0  0  0  0  0  0  0  0  0  0  0  0
   18.9556   11.4108    3.4295 H   0  0  0  0  0  0  0  0  0  0  0  0
   17.9378   13.0270    4.3933 H   0  0  0  0  0  0  0  0  0  0  0  0
   16.7432   10.6213    0.2491 N   0  0  0  0  0  0  0  0  0  0  0  0
   17.4508   10.6533   -0.9224 C   0  0  0  0  0  0  0  0  0  0  0  0
   16.6614   10.5610   -1.9734 N   0  0  0  0  0  0  0  0  0  0  0  0
   15.3876   10.4691   -1.4570 C   0  0  0  0  0  0  0  0  0  0  0  0
   14.1271   10.3356   -2.0584 C   0  0  0  0  0  0  0  0  0  0  0  0
   13.9387   10.2907   -3.4341 N   0  0  0  0  0  0  0  0  0  0  0  0
   13.0416   10.2192   -1.2574 N   0  0  0  0  0  0  0  0  0  0  0  0
   13.2139   10.2724    0.0788 C   0  0  0  0  0  0  0  0  0  0  0  0
   14.3678   10.4069    0.7652 N   0  0  0  0  0  0  0  0  0  0  0  0
   15.4166   10.4993   -0.0717 C   0  0  0  0  0  0  0  0  0  0  0  0
   14.7106   10.3729   -4.0396 H   0  0  0  0  0  0  0  0  0  0  0  0
   13.0333   10.1767   -3.8034 H   0  0  0  0  0  0  0  0  0  0  0  0
   14.8949   11.1903    4.2163 C   0  0  0  0  0  0  0  0  0  0  0  0
   14.4819    9.8506    4.4489 O   0  0  0  0  0  0  0  0  0  0  0  0
   14.9788    9.0917    5.7981 S   0  0  0  0  0  0  0  0  0  0  0  0
   13.9958    8.0708    6.0865 O   0  0  0  0  0  0  0  0  0  0  0  0
   16.3813    8.7852    5.6267 O   0  0  0  0  0  0  0  0  0  0  0  0
   15.1464   10.0180    8.3043 C   0  0  0  0  0  0  0  0  0  0  0  0
   15.6053    8.9548    8.7021 O   0  0  0  0  0  0  0  0  0  0  0  0
   14.8383   10.2610    6.9611 N   0  0  0  0  0  0  0  0  0  0  0  0
   14.5275   11.1576    6.6991 H   0  0  0  0  0  0  0  0  0  0  0  0
   14.9252   11.2194    9.2600 C   0  0  0  0  0  0  0  0  0  0  0  0
   16.0184   11.2278   10.2694 N   0  0  0  0  0  0  0  0  0  0  0  0
   15.9861   10.3652   10.8128 H   0  0  0  0  0  0  0  0  0  0  0  0
   15.8998   12.0267   10.8925 H   0  0  0  0  0  0  0  0  0  0  0  0
   13.6033   11.6410   11.3958 C   0  0  0  0  0  0  0  0  0  0  0  0
   13.5051   11.2274    9.9086 C   0  0  0  0  0  0  0  0  0  0  0  0
   12.5267   12.1883    9.1973 C   0  0  0  0  0  0  0  0  0  0  0  0
   12.9093    9.8032    9.8571 C   0  0  0  0  0  0  0  0  0  0  0  0
 35 36  1  0
 36 37  1  0
 36 38  1  0
 36 31  1  0
 31 32  1  0
 31 27  1  0
 27 28  2  0
 27 29  1  0
 29 24  1  0
 24 25  2  0
 24 26  2  0
 24 23  1  0
 23 22  1  0
  1 22  1  0
  1  2  1  0
  2  3  1  0
  3 10  1  0
 10 11  1  0
 11 12  2  0
 12 13  1  0
 13 14  2  0
 14 15  1  0
 14 16  1  0
 16 17  2  0
 17 18  1  0
 18 19  2  0
  3  4  1  0
  4  5  1  0
  4  6  1  0
  6  7  1  0
  6  1  1  0
 19 10  1  0
 19 13  1  0
 32 33  1  0
 32 34  1  0
 29 30  1  0
 15 20  1  0
 15 21  1  0
  5  8  1  0
  7  9  1  0
M  END
> <minimizedAffinity>
-9.64735

> <CNNscore>
0.0741796494

> <CNNaffinity>
5.4987626076

> <CNN_VS>
0.4078962803

> <CNNaffinity_variance>
0.2898098528

$$$$
