


 32 35  0  0  0  0  0  0  0  0999 V2000
   39.7518   37.6472   30.8988 C   0  0  0  0  0  0  0  0  0  0  0  0
   39.5876   38.3947   32.0836 C   0  0  0  0  0  0  0  0  0  0  0  0
   40.3984   39.4768   32.3033 O   0  0  0  0  0  0  0  0  0  0  0  0
   38.6195   38.0732   33.0359 C   0  0  0  0  0  0  0  0  0  0  0  0
   37.7758   36.9949   32.8118 C   0  0  0  0  0  0  0  0  0  0  0  0
   36.8460   36.7321   33.7819 O   0  0  0  0  0  0  0  0  0  0  0  0
   37.8932   36.2462   31.6386 C   0  0  0  0  0  0  0  0  0  0  0  0
   36.9912   35.1145   31.3769 C   0  0  0  0  0  0  0  0  0  0  0  0
   36.1238   34.7905   32.1821 O   0  0  0  0  0  0  0  0  0  0  0  0
   37.1646   34.3898   30.1138 C   0  0  0  0  0  0  0  0  0  0  0  0
   38.1251   34.8020   29.2790 C   0  0  0  0  0  0  0  0  0  0  0  0
   38.9760   35.8606   29.5134 O   0  0  0  0  0  0  0  0  0  0  0  0
   38.8681   36.5694   30.6857 C   0  0  0  0  0  0  0  0  0  0  0  0
   41.0536   39.7066   31.6741 H   0  0  0  0  0  0  0  0  0  0  0  0
   36.8084   37.2651   34.5516 H   0  0  0  0  0  0  0  0  0  0  0  0
   43.6339   39.3419   27.0209 C   0  0  0  0  0  0  0  0  0  0  0  0
   42.7061   38.9672   28.0839 N   0  0  0  0  0  0  0  0  0  0  0  0
   42.6557   37.5040   28.2486 C   0  0  0  0  0  0  0  0  0  0  0  0
   41.3789   37.0015   28.9453 C   0  0  0  0  0  0  0  0  0  0  0  0
   40.8311   38.0715   29.9029 C   0  0  0  0  0  0  0  0  0  0  0  0
   40.4380   39.3303   29.0882 C   0  0  0  0  0  0  0  0  0  0  0  0
   39.0918   39.2279   28.5984 O   0  0  0  0  0  0  0  0  0  0  0  0
   41.3727   39.5323   27.8675 C   0  0  0  0  0  0  0  0  0  0  0  0
   39.0235   38.4704   27.9964 H   0  0  0  0  0  0  0  0  0  0  0  0
   38.3562   34.1264   27.9948 C   0  0  0  0  0  0  0  0  0  0  0  0
   38.1175   32.7436   27.9091 C   0  0  0  0  0  0  0  0  0  0  0  0
   38.3130   32.0657   26.7048 C   0  0  0  0  0  0  0  0  0  0  0  0
   38.7451   32.7670   25.5859 C   0  0  0  0  0  0  0  0  0  0  0  0
   38.9312   32.1138   24.4319 F   0  0  0  0  0  0  0  0  0  0  0  0
   38.9867   34.1333   25.6436 C   0  0  0  0  0  0  0  0  0  0  0  0
   38.7916   34.8143   26.8468 C   0  0  0  0  0  0  0  0  0  0  0  0
   39.1201   36.5128   26.8688 Cl  0  0  0  0  0  0  0  0  0  0  0  0
 16 17  1  0
 17 18  1  0
 18 19  1  0
 19 20  1  0
 20  1  1  0
  1  2  2  0
  2  3  1  0
  2  4  1  0
  4  5  2  0
  5  6  1  0
  5  7  1  0
  7  8  1  0
  8  9  2  0
  8 10  1  0
 10 11  2  0
 11 25  1  0
 25 26  2  0
 26 27  1  0
 27 28  2  0
 28 29  1  0
 28 30  1  0
 30 31  2  0
 31 32  1  0
 11 12  1  0
 12 13  1  0
 20 21  1  0
 21 22  1  0
 21 23  1  0
 23 17  1  0
 13  1  1  0
 13  7  2  0
 31 25  1  0
  3 14  1  0
  6 15  1  0
 22 24  1  0
M  END
> <minimizedAffinity>
-10.80512

> <CNNscore>
0.6757835746

> <CNNaffinity>
5.4384970665

> <CNN_VS>
3.6752469540

> <CNNaffinity_variance>
0.1737719029

$$$$



 32 35  0  0  0  0  0  0  0  0999 V2000
   39.4871   37.4930   30.7409 C   0  0  0  0  0  0  0  0  0  0  0  0
   39.3085   38.2042   31.9459 C   0  0  0  0  0  0  0  0  0  0  0  0
   40.0520   39.3335   32.1664 O   0  0  0  0  0  0  0  0  0  0  0  0
   38.3921   37.7999   32.9175 C   0  0  0  0  0  0  0  0  0  0  0  0
   37.6154   36.6724   32.6936 C   0  0  0  0  0  0  0  0  0  0  0  0
   36.7338   36.3288   33.6833 O   0  0  0  0  0  0  0  0  0  0  0  0
   37.7478   35.9566   31.5016 C   0  0  0  0  0  0  0  0  0  0  0  0
   36.9153   34.7726   31.2406 C   0  0  0  0  0  0  0  0  0  0  0  0
   36.0952   34.3755   32.0623 O   0  0  0  0  0  0  0  0  0  0  0  0
   37.0993   34.0864   29.9576 C   0  0  0  0  0  0  0  0  0  0  0  0
   38.0056   34.5783   29.1056 C   0  0  0  0  0  0  0  0  0  0  0  0
   38.7911   35.6865   29.3392 O   0  0  0  0  0  0  0  0  0  0  0  0
   38.6708   36.3631   30.5291 C   0  0  0  0  0  0  0  0  0  0  0  0
   40.6718   39.6190   31.5243 H   0  0  0  0  0  0  0  0  0  0  0  0
   36.6835   36.8428   34.4652 H   0  0  0  0  0  0  0  0  0  0  0  0
   43.4876   39.4100   27.0938 C   0  0  0  0  0  0  0  0  0  0  0  0
   42.4478   38.8418   27.9465 N   0  0  0  0  0  0  0  0  0  0  0  0
   41.3717   39.8187   28.1884 C   0  0  0  0  0  0  0  0  0  0  0  0
   40.5313   39.5185   29.4420 C   0  0  0  0  0  0  0  0  0  0  0  0
   40.5063   38.0081   29.7249 C   0  0  0  0  0  0  0  0  0  0  0  0
   41.9486   37.5215   30.0183 C   0  0  0  0  0  0  0  0  0  0  0  0
   42.2703   37.6716   31.4099 O   0  0  0  0  0  0  0  0  0  0  0  0
   42.9958   38.3209   29.2005 C   0  0  0  0  0  0  0  0  0  0  0  0
   42.2358   38.6108   31.6502 H   0  0  0  0  0  0  0  0  0  0  0  0
   38.2432   33.9453   27.8010 C   0  0  0  0  0  0  0  0  0  0  0  0
   37.9677   32.5742   27.6579 C   0  0  0  0  0  0  0  0  0  0  0  0
   38.1681   31.9369   26.4324 C   0  0  0  0  0  0  0  0  0  0  0  0
   38.6418   32.6672   25.3496 C   0  0  0  0  0  0  0  0  0  0  0  0
   38.8326   32.0529   24.1751 F   0  0  0  0  0  0  0  0  0  0  0  0
   38.9204   34.0228   25.4640 C   0  0  0  0  0  0  0  0  0  0  0  0
   38.7205   34.6633   26.6886 C   0  0  0  0  0  0  0  0  0  0  0  0
   39.0959   36.3495   26.7818 Cl  0  0  0  0  0  0  0  0  0  0  0  0
 16 17  1  0
 17 18  1  0
 18 19  1  0
 19 20  1  0
 20  1  1  0
  1  2  2  0
  2  3  1  0
  2  4  1  0
  4  5  2  0
  5  6  1  0
  5  7  1  0
  7  8  1  0
  8  9  2  0
  8 10  1  0
 10 11  2  0
 11 25  1  0
 25 26  2  0
 26 27  1  0
 27 28  2  0
 28 29  1  0
 28 30  1  0
 30 31  2  0
 31 32  1  0
 11 12  1  0
 12 13  1  0
 20 21  1  0
 21 22  1  0
 21 23  1  0
 23 17  1  0
 13  1  1  0
 13  7  2  0
 31 25  1  0
  3 14  1  0
  6 15  1  0
 22 24  1  0
M  END
> <minimizedAffinity>
-10.89921

> <CNNscore>
0.5995351672

> <CNNaffinity>
5.6891922951

> <CNN_VS>
3.4108707905

> <CNNaffinity_variance>
0.0915812925

$$$$



 32 35  0  0  0  0  0  0  0  0999 V2000
   45.1808   34.7344   34.6895 C   0  0  0  0  0  0  0  0  0  0  0  0
   45.8245   33.9312   35.6540 C   0  0  0  0  0  0  0  0  0  0  0  0
   45.5717   34.1570   36.9812 O   0  0  0  0  0  0  0  0  0  0  0  0
   46.7043   32.9075   35.2998 C   0  0  0  0  0  0  0  0  0  0  0  0
   46.9479   32.6531   33.9579 C   0  0  0  0  0  0  0  0  0  0  0  0
   47.8185   31.6348   33.6752 O   0  0  0  0  0  0  0  0  0  0  0  0
   46.3099   33.4123   32.9744 C   0  0  0  0  0  0  0  0  0  0  0  0
   46.5409   33.1394   31.5478 C   0  0  0  0  0  0  0  0  0  0  0  0
   47.3050   32.2511   31.1838 O   0  0  0  0  0  0  0  0  0  0  0  0
   45.8191   33.9669   30.5757 C   0  0  0  0  0  0  0  0  0  0  0  0
   44.9961   34.9122   31.0428 C   0  0  0  0  0  0  0  0  0  0  0  0
   44.7718   35.1771   32.3766 O   0  0  0  0  0  0  0  0  0  0  0  0
   45.4294   34.4415   33.3329 C   0  0  0  0  0  0  0  0  0  0  0  0
   44.9836   34.8403   37.2365 H   0  0  0  0  0  0  0  0  0  0  0  0
   48.2208   31.1552   34.3724 H   0  0  0  0  0  0  0  0  0  0  0  0
   41.7737   38.9527   36.5811 C   0  0  0  0  0  0  0  0  0  0  0  0
   42.6093   37.9084   35.9959 N   0  0  0  0  0  0  0  0  0  0  0  0
   42.1853   36.5742   36.4553 C   0  0  0  0  0  0  0  0  0  0  0  0
   43.2762   35.4970   36.3240 C   0  0  0  0  0  0  0  0  0  0  0  0
   44.2248   35.8298   35.1615 C   0  0  0  0  0  0  0  0  0  0  0  0
   44.9442   37.1702   35.4595 C   0  0  0  0  0  0  0  0  0  0  0  0
   46.1351   36.9553   36.2330 O   0  0  0  0  0  0  0  0  0  0  0  0
   44.0319   38.1409   36.2531 C   0  0  0  0  0  0  0  0  0  0  0  0
   45.8985   36.5664   37.0896 H   0  0  0  0  0  0  0  0  0  0  0  0
   44.2381   35.7780   30.1289 C   0  0  0  0  0  0  0  0  0  0  0  0
   43.2443   36.6158   30.6645 C   0  0  0  0  0  0  0  0  0  0  0  0
   42.5096   37.4624   29.8328 C   0  0  0  0  0  0  0  0  0  0  0  0
   42.7671   37.4744   28.4675 C   0  0  0  0  0  0  0  0  0  0  0  0
   42.0609   38.2881   27.6724 F   0  0  0  0  0  0  0  0  0  0  0  0
   43.7441   36.6578   27.9135 C   0  0  0  0  0  0  0  0  0  0  0  0
   44.4811   35.8101   28.7431 C   0  0  0  0  0  0  0  0  0  0  0  0
   45.6766   34.8033   28.0012 Cl  0  0  0  0  0  0  0  0  0  0  0  0
 16 17  1  0
 17 18  1  0
 18 19  1  0
 19 20  1  0
 20  1  1  0
  1  2  2  0
  2  3  1  0
  2  4  1  0
  4  5  2  0
  5  6  1  0
  5  7  1  0
  7  8  1  0
  8  9  2  0
  8 10  1  0
 10 11  2  0
 11 25  1  0
 25 26  2  0
 26 27  1  0
 27 28  2  0
 28 29  1  0
 28 30  1  0
 30 31  2  0
 31 32  1  0
 11 12  1  0
 12 13  1  0
 20 21  1  0
 21 22  1  0
 21 23  1  0
 23 17  1  0
 13  1  1  0
 13  7  2  0
 31 25  1  0
  3 14  1  0
  6 15  1  0
 22 24  1  0
M  END
> <minimizedAffinity>
-6.76272

> <CNNscore>
0.3043348193

> <CNNaffinity>
4.7158317566

> <CNN_VS>
1.4351917505

> <CNNaffinity_variance>
0.2730390728

$$$$



 32 35  0  0  0  0  0  0  0  0999 V2000
   38.6358   37.1914   31.6741 C   0  0  0  0  0  0  0  0  0  0  0  0
   37.6907   36.7108   32.6045 C   0  0  0  0  0  0  0  0  0  0  0  0
   37.5430   37.3654   33.7987 O   0  0  0  0  0  0  0  0  0  0  0  0
   36.8943   35.5949   32.3443 C   0  0  0  0  0  0  0  0  0  0  0  0
   37.0172   34.9396   31.1276 C   0  0  0  0  0  0  0  0  0  0  0  0
   36.2068   33.8534   30.9317 O   0  0  0  0  0  0  0  0  0  0  0  0
   37.9255   35.4013   30.1724 C   0  0  0  0  0  0  0  0  0  0  0  0
   38.0506   34.7305   28.8696 C   0  0  0  0  0  0  0  0  0  0  0  0
   37.3740   33.7454   28.5916 O   0  0  0  0  0  0  0  0  0  0  0  0
   39.0125   35.2869   27.9124 C   0  0  0  0  0  0  0  0  0  0  0  0
   39.7112   36.3670   28.2788 C   0  0  0  0  0  0  0  0  0  0  0  0
   39.6025   37.0038   29.4963 O   0  0  0  0  0  0  0  0  0  0  0  0
   38.7260   36.5202   30.4375 C   0  0  0  0  0  0  0  0  0  0  0  0
   38.0698   38.1165   33.9895 H   0  0  0  0  0  0  0  0  0  0  0  0
   35.6137   33.5839   31.6052 H   0  0  0  0  0  0  0  0  0  0  0  0
   41.6625   41.9346   32.8239 C   0  0  0  0  0  0  0  0  0  0  0  0
   40.8443   40.7409   32.6320 N   0  0  0  0  0  0  0  0  0  0  0  0
   41.6879   39.5446   32.4639 C   0  0  0  0  0  0  0  0  0  0  0  0
   40.9745   38.3760   31.7615 C   0  0  0  0  0  0  0  0  0  0  0  0
   39.4628   38.4256   32.0340 C   0  0  0  0  0  0  0  0  0  0  0  0
   38.8815   39.7346   31.4408 C   0  0  0  0  0  0  0  0  0  0  0  0
   38.5220   39.5603   30.0613 O   0  0  0  0  0  0  0  0  0  0  0  0
   39.9032   40.8981   31.5214 C   0  0  0  0  0  0  0  0  0  0  0  0
   39.3147   39.3452   29.5453 H   0  0  0  0  0  0  0  0  0  0  0  0
   40.6910   36.9809   27.3720 C   0  0  0  0  0  0  0  0  0  0  0  0
   40.2201   37.7234   26.2750 C   0  0  0  0  0  0  0  0  0  0  0  0
   41.1171   38.3328   25.3963 C   0  0  0  0  0  0  0  0  0  0  0  0
   42.4834   38.2029   25.6125 C   0  0  0  0  0  0  0  0  0  0  0  0
   43.3413   38.7892   24.7680 F   0  0  0  0  0  0  0  0  0  0  0  0
   42.9745   37.4763   26.6891 C   0  0  0  0  0  0  0  0  0  0  0  0
   42.0795   36.8658   27.5702 C   0  0  0  0  0  0  0  0  0  0  0  0
   42.7429   35.9608   28.8871 Cl  0  0  0  0  0  0  0  0  0  0  0  0
 16 17  1  0
 17 18  1  0
 18 19  1  0
 19 20  1  0
 20  1  1  0
  1  2  2  0
  2  3  1  0
  2  4  1  0
  4  5  2  0
  5  6  1  0
  5  7  1  0
  7  8  1  0
  8  9  2  0
  8 10  1  0
 10 11  2  0
 11 25  1  0
 25 26  2  0
 26 27  1  0
 27 28  2  0
 28 29  1  0
 28 30  1  0
 30 31  2  0
 31 32  1  0
 11 12  1  0
 12 13  1  0
 20 21  1  0
 21 22  1  0
 21 23  1  0
 23 17  1  0
 13  1  1  0
 13  7  2  0
 31 25  1  0
  3 14  1  0
  6 15  1  0
 22 24  1  0
M  END
> <minimizedAffinity>
-8.86368

> <CNNscore>
0.2674083114

> <CNNaffinity>
4.4587483406

> <CNN_VS>
1.1923063993

> <CNNaffinity_variance>
0.6495328546

$$$$



 32 35  0  0  0  0  0  0  0  0999 V2000
   40.0449   39.0551   29.0456 C   0  0  0  0  0  0  0  0  0  0  0  0
   40.1146   40.0516   30.0415 C   0  0  0  0  0  0  0  0  0  0  0  0
   40.7111   41.2480   29.7424 O   0  0  0  0  0  0  0  0  0  0  0  0
   39.5875   39.8619   31.3195 C   0  0  0  0  0  0  0  0  0  0  0  0
   38.9583   38.6638   31.6255 C   0  0  0  0  0  0  0  0  0  0  0  0
   38.4602   38.5396   32.8948 O   0  0  0  0  0  0  0  0  0  0  0  0
   38.8493   37.6631   30.6572 C   0  0  0  0  0  0  0  0  0  0  0  0
   38.1653   36.3969   30.9601 C   0  0  0  0  0  0  0  0  0  0  0  0
   37.6852   36.1802   32.0682 O   0  0  0  0  0  0  0  0  0  0  0  0
   38.0745   35.4036   29.8849 C   0  0  0  0  0  0  0  0  0  0  0  0
   38.6132   35.7092   28.6993 C   0  0  0  0  0  0  0  0  0  0  0  0
   39.2563   36.8919   28.4040 O   0  0  0  0  0  0  0  0  0  0  0  0
   39.3821   37.8553   29.3758 C   0  0  0  0  0  0  0  0  0  0  0  0
   41.0701   41.3921   28.8890 H   0  0  0  0  0  0  0  0  0  0  0  0
   38.5596   39.2412   33.5079 H   0  0  0  0  0  0  0  0  0  0  0  0
   42.0555   40.1819   23.7855 C   0  0  0  0  0  0  0  0  0  0  0  0
   41.6092   39.9790   25.1606 N   0  0  0  0  0  0  0  0  0  0  0  0
   41.9562   38.6275   25.6338 C   0  0  0  0  0  0  0  0  0  0  0  0
   41.1065   38.1497   26.8245 C   0  0  0  0  0  0  0  0  0  0  0  0
   40.6398   39.3465   27.6680 C   0  0  0  0  0  0  0  0  0  0  0  0
   39.7340   40.2580   26.8009 C   0  0  0  0  0  0  0  0  0  0  0  0
   38.3663   39.8226   26.8503 O   0  0  0  0  0  0  0  0  0  0  0  0
   40.1795   40.2545   25.3156 C   0  0  0  0  0  0  0  0  0  0  0  0
   38.2985   38.9273   26.4832 H   0  0  0  0  0  0  0  0  0  0  0  0
   38.5589   34.7650   27.5747 C   0  0  0  0  0  0  0  0  0  0  0  0
   39.0099   35.1931   26.3139 C   0  0  0  0  0  0  0  0  0  0  0  0
   38.9866   34.3238   25.2221 C   0  0  0  0  0  0  0  0  0  0  0  0
   38.5151   33.0275   25.3882 C   0  0  0  0  0  0  0  0  0  0  0  0
   38.4946   32.1959   24.3389 F   0  0  0  0  0  0  0  0  0  0  0  0
   38.0653   32.5794   26.6232 C   0  0  0  0  0  0  0  0  0  0  0  0
   38.0878   33.4465   27.7174 C   0  0  0  0  0  0  0  0  0  0  0  0
   37.5037   32.8434   29.2301 Cl  0  0  0  0  0  0  0  0  0  0  0  0
 16 17  1  0
 17 18  1  0
 18 19  1  0
 19 20  1  0
 20  1  1  0
  1  2  2  0
  2  3  1  0
  2  4  1  0
  4  5  2  0
  5  6  1  0
  5  7  1  0
  7  8  1  0
  8  9  2  0
  8 10  1  0
 10 11  2  0
 11 25  1  0
 25 26  2  0
 26 27  1  0
 27 28  2  0
 28 29  1  0
 28 30  1  0
 30 31  2  0
 31 32  1  0
 11 12  1  0
 12 13  1  0
 20 21  1  0
 21 22  1  0
 21 23  1  0
 23 17  1  0
 13  1  1  0
 13  7  2  0
 31 25  1  0
  3 14  1  0
  6 15  1  0
 22 24  1  0
M  END
> <minimizedAffinity>
-10.27264

> <CNNscore>
0.2658613026

> <CNNaffinity>
5.2738342285

> <CNN_VS>
1.4021084309

> <CNNaffinity_variance>
0.2513629496

$$$$



 32 35  0  0  0  0  0  0  0  0999 V2000
   40.3893   36.8734   27.7950 C   0  0  0  0  0  0  0  0  0  0  0  0
   41.1021   37.4029   26.6990 C   0  0  0  0  0  0  0  0  0  0  0  0
   41.2162   36.6541   25.5575 O   0  0  0  0  0  0  0  0  0  0  0  0
   41.6877   38.6689   26.7362 C   0  0  0  0  0  0  0  0  0  0  0  0
   41.5565   39.4464   27.8777 C   0  0  0  0  0  0  0  0  0  0  0  0
   42.1514   40.6794   27.8514 O   0  0  0  0  0  0  0  0  0  0  0  0
   40.8373   38.9647   28.9739 C   0  0  0  0  0  0  0  0  0  0  0  0
   40.6707   39.7865   30.1821 C   0  0  0  0  0  0  0  0  0  0  0  0
   41.1660   40.9060   30.2656 O   0  0  0  0  0  0  0  0  0  0  0  0
   39.8855   39.2187   31.2830 C   0  0  0  0  0  0  0  0  0  0  0  0
   39.3682   37.9958   31.1209 C   0  0  0  0  0  0  0  0  0  0  0  0
   39.5176   37.2168   29.9939 O   0  0  0  0  0  0  0  0  0  0  0  0
   40.2530   37.6920   28.9348 C   0  0  0  0  0  0  0  0  0  0  0  0
   40.8290   35.8019   25.5156 H   0  0  0  0  0  0  0  0  0  0  0  0
   42.6232   40.9558   27.0905 H   0  0  0  0  0  0  0  0  0  0  0  0
   37.9234   31.7275   27.1467 C   0  0  0  0  0  0  0  0  0  0  0  0
   38.6490   32.9858   27.2927 N   0  0  0  0  0  0  0  0  0  0  0  0
   38.4579   33.5518   28.6395 C   0  0  0  0  0  0  0  0  0  0  0  0
   38.7320   35.0638   28.7219 C   0  0  0  0  0  0  0  0  0  0  0  0
   39.7711   35.4810   27.6692 C   0  0  0  0  0  0  0  0  0  0  0  0
   39.2035   35.1992   26.2544 C   0  0  0  0  0  0  0  0  0  0  0  0
   38.4284   36.3109   25.7790 O   0  0  0  0  0  0  0  0  0  0  0  0
   38.2898   33.9464   26.2476 C   0  0  0  0  0  0  0  0  0  0  0  0
   37.6678   36.4488   26.3650 H   0  0  0  0  0  0  0  0  0  0  0  0
   38.5688   37.3634   32.1793 C   0  0  0  0  0  0  0  0  0  0  0  0
   38.6999   37.8375   33.4963 C   0  0  0  0  0  0  0  0  0  0  0  0
   37.9500   37.2726   34.5290 C   0  0  0  0  0  0  0  0  0  0  0  0
   37.0685   36.2360   34.2481 C   0  0  0  0  0  0  0  0  0  0  0  0
   36.3502   35.6966   35.2411 F   0  0  0  0  0  0  0  0  0  0  0  0
   36.9193   35.7503   32.9558 C   0  0  0  0  0  0  0  0  0  0  0  0
   37.6677   36.3137   31.9204 C   0  0  0  0  0  0  0  0  0  0  0  0
   37.4547   35.6631   30.3316 Cl  0  0  0  0  0  0  0  0  0  0  0  0
 16 17  1  0
 17 18  1  0
 18 19  1  0
 19 20  1  0
 20  1  1  0
  1  2  2  0
  2  3  1  0
  2  4  1  0
  4  5  2  0
  5  6  1  0
  5  7  1  0
  7  8  1  0
  8  9  2  0
  8 10  1  0
 10 11  2  0
 11 25  1  0
 25 26  2  0
 26 27  1  0
 27 28  2  0
 28 29  1  0
 28 30  1  0
 30 31  2  0
 31 32  1  0
 11 12  1  0
 12 13  1  0
 20 21  1  0
 21 22  1  0
 21 23  1  0
 23 17  1  0
 13  1  1  0
 13  7  2  0
 31 25  1  0
  3 14  1  0
  6 15  1  0
 22 24  1  0
M  END
> <minimizedAffinity>
-8.95192

> <CNNscore>
0.2476587445

> <CNNaffinity>
5.7597336769

> <CNN_VS>
1.4264484644

> <CNNaffinity_variance>
0.0914255455

$$$$



 32 35  0  0  0  0  0  0  0  0999 V2000
   39.1525   35.8844   28.8091 C   0  0  0  0  0  0  0  0  0  0  0  0
   38.6936   34.7572   28.0961 C   0  0  0  0  0  0  0  0  0  0  0  0
   39.2309   34.4867   26.8653 O   0  0  0  0  0  0  0  0  0  0  0  0
   37.7161   33.9028   28.6076 C   0  0  0  0  0  0  0  0  0  0  0  0
   37.1836   34.1524   29.8641 C   0  0  0  0  0  0  0  0  0  0  0  0
   36.2303   33.2770   30.3109 O   0  0  0  0  0  0  0  0  0  0  0  0
   37.6308   35.2457   30.6094 C   0  0  0  0  0  0  0  0  0  0  0  0
   37.0919   35.5099   31.9520 C   0  0  0  0  0  0  0  0  0  0  0  0
   36.2310   34.7894   32.4471 O   0  0  0  0  0  0  0  0  0  0  0  0
   37.6264   36.6657   32.6796 C   0  0  0  0  0  0  0  0  0  0  0  0
   38.5691   37.4034   32.0828 C   0  0  0  0  0  0  0  0  0  0  0  0
   39.0815   37.1657   30.8256 O   0  0  0  0  0  0  0  0  0  0  0  0
   38.6103   36.1036   30.0920 C   0  0  0  0  0  0  0  0  0  0  0  0
   39.8882   35.0502   26.5070 H   0  0  0  0  0  0  0  0  0  0  0  0
   35.9645   32.5583   29.7716 H   0  0  0  0  0  0  0  0  0  0  0  0
   43.0726   39.2102   26.2493 C   0  0  0  0  0  0  0  0  0  0  0  0
   42.0741   38.4393   26.9840 N   0  0  0  0  0  0  0  0  0  0  0  0
   42.5860   37.0998   27.3223 C   0  0  0  0  0  0  0  0  0  0  0  0
   41.4815   36.0695   27.6168 C   0  0  0  0  0  0  0  0  0  0  0  0
   40.2324   36.7650   28.1807 C   0  0  0  0  0  0  0  0  0  0  0  0
   39.6698   37.7418   27.1165 C   0  0  0  0  0  0  0  0  0  0  0  0
   38.7659   37.0691   26.2259 O   0  0  0  0  0  0  0  0  0  0  0  0
   40.8031   38.3646   26.2608 C   0  0  0  0  0  0  0  0  0  0  0  0
   39.2426   36.3739   25.7458 H   0  0  0  0  0  0  0  0  0  0  0  0
   39.1528   38.5747   32.7511 C   0  0  0  0  0  0  0  0  0  0  0  0
   39.7100   38.4109   34.0314 C   0  0  0  0  0  0  0  0  0  0  0  0
   40.2852   39.4951   34.6960 C   0  0  0  0  0  0  0  0  0  0  0  0
   40.3061   40.7419   34.0833 C   0  0  0  0  0  0  0  0  0  0  0  0
   40.8592   41.7799   34.7234 F   0  0  0  0  0  0  0  0  0  0  0  0
   39.7638   40.9301   32.8188 C   0  0  0  0  0  0  0  0  0  0  0  0
   39.1880   39.8473   32.1512 C   0  0  0  0  0  0  0  0  0  0  0  0
   38.5144   40.1380   30.5844 Cl  0  0  0  0  0  0  0  0  0  0  0  0
 16 17  1  0
 17 18  1  0
 18 19  1  0
 19 20  1  0
 20  1  1  0
  1  2  2  0
  2  3  1  0
  2  4  1  0
  4  5  2  0
  5  6  1  0
  5  7  1  0
  7  8  1  0
  8  9  2  0
  8 10  1  0
 10 11  2  0
 11 25  1  0
 25 26  2  0
 26 27  1  0
 27 28  2  0
 28 29  1  0
 28 30  1  0
 30 31  2  0
 31 32  1  0
 11 12  1  0
 12 13  1  0
 20 21  1  0
 21 22  1  0
 21 23  1  0
 23 17  1  0
 13  1  1  0
 13  7  2  0
 31 25  1  0
  3 14  1  0
  6 15  1  0
 22 24  1  0
M  END
> <minimizedAffinity>
-9.48089

> <CNNscore>
0.2200611383

> <CNNaffinity>
4.9520606995

> <CNN_VS>
1.0897561312

> <CNNaffinity_variance>
0.1891920567

$$$$



 32 35  0  0  0  0  0  0  0  0999 V2000
   39.7054   37.5453   27.5312 C   0  0  0  0  0  0  0  0  0  0  0  0
   40.0978   37.3391   26.1921 C   0  0  0  0  0  0  0  0  0  0  0  0
   40.8025   38.3217   25.5484 O   0  0  0  0  0  0  0  0  0  0  0  0
   39.7992   36.1625   25.5040 C   0  0  0  0  0  0  0  0  0  0  0  0
   39.1083   35.1502   26.1542 C   0  0  0  0  0  0  0  0  0  0  0  0
   38.8478   34.0202   25.4261 O   0  0  0  0  0  0  0  0  0  0  0  0
   38.7244   35.3092   27.4876 C   0  0  0  0  0  0  0  0  0  0  0  0
   38.0115   34.2359   28.1966 C   0  0  0  0  0  0  0  0  0  0  0  0
   37.7248   33.1824   27.6369 O   0  0  0  0  0  0  0  0  0  0  0  0
   37.6598   34.4708   29.6009 C   0  0  0  0  0  0  0  0  0  0  0  0
   38.0102   35.6392   30.1499 C   0  0  0  0  0  0  0  0  0  0  0  0
   38.6780   36.6519   29.4957 O   0  0  0  0  0  0  0  0  0  0  0  0
   39.0229   36.4929   28.1751 C   0  0  0  0  0  0  0  0  0  0  0  0
   41.0115   39.1181   25.9958 H   0  0  0  0  0  0  0  0  0  0  0  0
   39.1271   33.9632   24.5335 H   0  0  0  0  0  0  0  0  0  0  0  0
   40.9858   42.6030   29.9315 C   0  0  0  0  0  0  0  0  0  0  0  0
   40.6178   41.2860   29.4204 N   0  0  0  0  0  0  0  0  0  0  0  0
   41.8075   40.5452   28.9659 C   0  0  0  0  0  0  0  0  0  0  0  0
   41.4920   39.4149   27.9704 C   0  0  0  0  0  0  0  0  0  0  0  0
   40.0799   38.8601   28.2152 C   0  0  0  0  0  0  0  0  0  0  0  0
   39.0415   39.9846   27.9691 C   0  0  0  0  0  0  0  0  0  0  0  0
   38.6653   40.0448   26.5844 O   0  0  0  0  0  0  0  0  0  0  0  0
   39.6024   41.3738   28.3691 C   0  0  0  0  0  0  0  0  0  0  0  0
   39.4440   40.2582   26.0467 H   0  0  0  0  0  0  0  0  0  0  0  0
   37.6936   35.9444   31.5520 C   0  0  0  0  0  0  0  0  0  0  0  0
   38.3736   37.0021   32.1808 C   0  0  0  0  0  0  0  0  0  0  0  0
   38.0941   37.3325   33.5078 C   0  0  0  0  0  0  0  0  0  0  0  0
   37.1357   36.6093   34.2069 C   0  0  0  0  0  0  0  0  0  0  0  0
   36.8697   36.9292   35.4797 F   0  0  0  0  0  0  0  0  0  0  0  0
   36.4489   35.5611   33.6086 C   0  0  0  0  0  0  0  0  0  0  0  0
   36.7260   35.2284   32.2811 C   0  0  0  0  0  0  0  0  0  0  0  0
   35.8526   33.9058   31.5874 Cl  0  0  0  0  0  0  0  0  0  0  0  0
 16 17  1  0
 17 18  1  0
 18 19  1  0
 19 20  1  0
 20  1  1  0
  1  2  2  0
  2  3  1  0
  2  4  1  0
  4  5  2  0
  5  6  1  0
  5  7  1  0
  7  8  1  0
  8  9  2  0
  8 10  1  0
 10 11  2  0
 11 25  1  0
 25 26  2  0
 26 27  1  0
 27 28  2  0
 28 29  1  0
 28 30  1  0
 30 31  2  0
 31 32  1  0
 11 12  1  0
 12 13  1  0
 20 21  1  0
 21 22  1  0
 21 23  1  0
 23 17  1  0
 13  1  1  0
 13  7  2  0
 31 25  1  0
  3 14  1  0
  6 15  1  0
 22 24  1  0
M  END
> <minimizedAffinity>
-10.56753

> <CNNscore>
0.2171419859

> <CNNaffinity>
5.1601066589

> <CNN_VS>
1.1204757690

> <CNNaffinity_variance>
0.7186198831

$$$$



 32 35  0  0  0  0  0  0  0  0999 V2000
   39.4652   37.1779   27.0815 C   0  0  0  0  0  0  0  0  0  0  0  0
   39.7318   36.7929   25.7509 C   0  0  0  0  0  0  0  0  0  0  0  0
   40.3238   37.6937   24.9055 O   0  0  0  0  0  0  0  0  0  0  0  0
   39.4201   35.5207   25.2697 C   0  0  0  0  0  0  0  0  0  0  0  0
   38.8439   34.5920   26.1242 C   0  0  0  0  0  0  0  0  0  0  0  0
   38.5639   33.3613   25.5932 O   0  0  0  0  0  0  0  0  0  0  0  0
   38.5873   34.9297   27.4549 C   0  0  0  0  0  0  0  0  0  0  0  0
   37.9978   33.9485   28.3782 C   0  0  0  0  0  0  0  0  0  0  0  0
   37.7050   32.8169   28.0050 O   0  0  0  0  0  0  0  0  0  0  0  0
   37.7769   34.3725   29.7647 C   0  0  0  0  0  0  0  0  0  0  0  0
   38.1265   35.6181   30.1046 C   0  0  0  0  0  0  0  0  0  0  0  0
   38.6795   36.5460   29.2485 O   0  0  0  0  0  0  0  0  0  0  0  0
   38.8985   36.2089   27.9345 C   0  0  0  0  0  0  0  0  0  0  0  0
   40.5397   38.5522   25.2123 H   0  0  0  0  0  0  0  0  0  0  0  0
   38.7556   33.1848   24.6932 H   0  0  0  0  0  0  0  0  0  0  0  0
   41.0849   42.3834   28.8871 C   0  0  0  0  0  0  0  0  0  0  0  0
   40.6775   41.0999   28.3233 N   0  0  0  0  0  0  0  0  0  0  0  0
   39.3429   40.7095   28.8104 C   0  0  0  0  0  0  0  0  0  0  0  0
   39.0591   39.2011   28.7008 C   0  0  0  0  0  0  0  0  0  0  0  0
   39.8456   38.5885   27.5312 C   0  0  0  0  0  0  0  0  0  0  0  0
   41.3640   38.7460   27.8010 C   0  0  0  0  0  0  0  0  0  0  0  0
   41.8662   37.6477   28.5782 O   0  0  0  0  0  0  0  0  0  0  0  0
   41.6711   40.0542   28.5749 C   0  0  0  0  0  0  0  0  0  0  0  0
   41.4265   37.6356   29.4427 H   0  0  0  0  0  0  0  0  0  0  0  0
   37.9371   36.1124   31.4754 C   0  0  0  0  0  0  0  0  0  0  0  0
   36.9161   35.5477   32.2596 C   0  0  0  0  0  0  0  0  0  0  0  0
   36.7103   35.9801   33.5706 C   0  0  0  0  0  0  0  0  0  0  0  0
   37.5236   36.9745   34.0998 C   0  0  0  0  0  0  0  0  0  0  0  0
   37.3239   37.3868   35.3580 F   0  0  0  0  0  0  0  0  0  0  0  0
   38.5399   37.5478   33.3468 C   0  0  0  0  0  0  0  0  0  0  0  0
   38.7485   37.1169   32.0351 C   0  0  0  0  0  0  0  0  0  0  0  0
   40.0184   37.8729   31.1357 Cl  0  0  0  0  0  0  0  0  0  0  0  0
 16 17  1  0
 17 18  1  0
 18 19  1  0
 19 20  1  0
 20  1  1  0
  1  2  2  0
  2  3  1  0
  2  4  1  0
  4  5  2  0
  5  6  1  0
  5  7  1  0
  7  8  1  0
  8  9  2  0
  8 10  1  0
 10 11  2  0
 11 25  1  0
 25 26  2  0
 26 27  1  0
 27 28  2  0
 28 29  1  0
 28 30  1  0
 30 31  2  0
 31 32  1  0
 11 12  1  0
 12 13  1  0
 20 21  1  0
 21 22  1  0
 21 23  1  0
 23 17  1  0
 13  1  1  0
 13  7  2  0
 31 25  1  0
  3 14  1  0
  6 15  1  0
 22 24  1  0
M  END
> <minimizedAffinity>
-9.98355

> <CNNscore>
0.1916200817

> <CNNaffinity>
4.8800525665

> <CNN_VS>
0.9351160526

> <CNNaffinity_variance>
1.0649377108

$$$$
