


 10  9  0  0  0  0  0  0  0  0999 V2000
   22.1125   54.8042   10.5154 C   0  0  0  0  0  0  0  0  0  0  0  0
   22.7898   56.1143   10.4788 N   0  0  0  0  0  0  0  0  0  0  0  0
   22.9364   56.3942    9.5090 H   0  0  0  0  0  0  0  0  0  0  0  0
   23.6905   56.0447   10.9525 H   0  0  0  0  0  0  0  0  0  0  0  0
   23.0409   53.8158    9.8088 C   0  0  0  0  0  0  0  0  0  0  0  0
   23.8827   53.1197   10.3701 O   0  0  0  0  0  0  0  0  0  0  0  0
   20.7215   54.9103    9.8659 C   0  0  0  0  0  0  0  0  0  0  0  0
   19.2161   53.2588    8.6290 C   0  0  0  0  0  0  0  0  0  0  0  0
   19.8092   53.6672    9.9791 C   0  0  0  0  0  0  0  0  0  0  0  0
   18.7041   53.8064   11.0226 C   0  0  0  0  0  0  0  0  0  0  0  0
  8  9  1  0
  9 10  1  0
  9  7  1  0
  7  1  1  0
  1  2  1  0
  1  5  1  0
  5  6  2  0
  2  3  1  0
  2  4  1  0
M  END
> <minimizedAffinity>
-2.80387

> <CNNscore>
0.7868665457

> <CNNaffinity>
3.4934813976

> <CNN_VS>
2.7489037514

> <CNNaffinity_variance>
0.2649216056

$$$$



 10  9  0  0  0  0  0  0  0  0999 V2000
   33.6646   55.2039   14.9706 C   0  0  0  0  0  0  0  0  0  0  0  0
   33.6232   53.9716   15.7807 N   0  0  0  0  0  0  0  0  0  0  0  0
   32.6533   53.7341   15.9890 H   0  0  0  0  0  0  0  0  0  0  0  0
   34.1315   54.1205   16.6524 H   0  0  0  0  0  0  0  0  0  0  0  0
   33.0158   56.3007   15.8157 C   0  0  0  0  0  0  0  0  0  0  0  0
   32.0682   56.1308   16.5783 O   0  0  0  0  0  0  0  0  0  0  0  0
   32.9616   54.9730   13.6214 C   0  0  0  0  0  0  0  0  0  0  0  0
   30.6281   55.8416   13.0520 C   0  0  0  0  0  0  0  0  0  0  0  0
   32.1267   56.1502   13.0668 C   0  0  0  0  0  0  0  0  0  0  0  0
   32.5811   56.6347   11.6925 C   0  0  0  0  0  0  0  0  0  0  0  0
  8  9  1  0
  9 10  1  0
  9  7  1  0
  7  1  1  0
  1  2  1  0
  1  5  1  0
  5  6  2  0
  2  3  1  0
  2  4  1  0
M  END
> <minimizedAffinity>
-3.09650

> <CNNscore>
0.7228414416

> <CNNaffinity>
2.8797423840

> <CNN_VS>
2.0815970898

> <CNNaffinity_variance>
0.7272312045

$$$$



 10  9  0  0  0  0  0  0  0  0999 V2000
   21.8933   54.3600   10.1212 C   0  0  0  0  0  0  0  0  0  0  0  0
   23.0511   53.4459   10.1401 N   0  0  0  0  0  0  0  0  0  0  0  0
   23.1745   53.0730   11.0814 H   0  0  0  0  0  0  0  0  0  0  0  0
   23.8906   53.9548    9.8632 H   0  0  0  0  0  0  0  0  0  0  0  0
   22.2138   55.4866   11.1042 C   0  0  0  0  0  0  0  0  0  0  0  0
   21.3871   56.0589   11.8094 O   0  0  0  0  0  0  0  0  0  0  0  0
   20.6069   53.5905   10.4690 C   0  0  0  0  0  0  0  0  0  0  0  0
   18.0856   53.9950   10.5248 C   0  0  0  0  0  0  0  0  0  0  0  0
   19.3435   53.9523    9.6546 C   0  0  0  0  0  0  0  0  0  0  0  0
   19.1163   53.0576    8.4391 C   0  0  0  0  0  0  0  0  0  0  0  0
  8  9  1  0
  9 10  1  0
  9  7  1  0
  7  1  1  0
  1  2  1  0
  1  5  1  0
  5  6  2  0
  2  3  1  0
  2  4  1  0
M  END
> <minimizedAffinity>
-2.64706

> <CNNscore>
0.6911879182

> <CNNaffinity>
3.2761890888

> <CNN_VS>
2.2644622326

> <CNNaffinity_variance>
0.0940715969

$$$$



 10  9  0  0  0  0  0  0  0  0999 V2000
   18.3665   45.7368    7.6923 C   0  0  0  0  0  0  0  0  0  0  0  0
   17.0995   45.3816    7.0252 N   0  0  0  0  0  0  0  0  0  0  0  0
   16.5760   46.2314    6.8149 H   0  0  0  0  0  0  0  0  0  0  0  0
   16.5465   44.7853    7.6409 H   0  0  0  0  0  0  0  0  0  0  0  0
   17.9881   46.4642    8.9831 C   0  0  0  0  0  0  0  0  0  0  0  0
   18.4690   47.5317    9.3537 O   0  0  0  0  0  0  0  0  0  0  0  0
   19.2425   46.5790    6.7483 C   0  0  0  0  0  0  0  0  0  0  0  0
   20.4397   44.3526    6.3833 C   0  0  0  0  0  0  0  0  0  0  0  0
   20.3498   45.8249    5.9766 C   0  0  0  0  0  0  0  0  0  0  0  0
   21.7234   46.4842    6.0680 C   0  0  0  0  0  0  0  0  0  0  0  0
  8  9  1  0
  9 10  1  0
  9  7  1  0
  7  1  1  0
  1  2  1  0
  1  5  1  0
  5  6  2  0
  2  3  1  0
  2  4  1  0
M  END
> <minimizedAffinity>
-3.64358

> <CNNscore>
0.6653732657

> <CNNaffinity>
3.2174460888

> <CNN_VS>
2.1408026218

> <CNNaffinity_variance>
0.2198487520

$$$$



 10  9  0  0  0  0  0  0  0  0999 V2000
   21.3204   46.5605    4.8149 C   0  0  0  0  0  0  0  0  0  0  0  0
   22.1286   46.3536    3.5982 N   0  0  0  0  0  0  0  0  0  0  0  0
   23.1105   46.5336    3.8076 H   0  0  0  0  0  0  0  0  0  0  0  0
   21.8140   46.9926    2.8682 H   0  0  0  0  0  0  0  0  0  0  0  0
   21.5200   48.0199    5.2254 C   0  0  0  0  0  0  0  0  0  0  0  0
   22.5920   48.6181    5.1911 O   0  0  0  0  0  0  0  0  0  0  0  0
   21.7367   45.5552    5.9030 C   0  0  0  0  0  0  0  0  0  0  0  0
   20.3368   43.5390    5.1968 C   0  0  0  0  0  0  0  0  0  0  0  0
   20.6740   44.5150    6.3259 C   0  0  0  0  0  0  0  0  0  0  0  0
   19.3974   45.1324    6.8908 C   0  0  0  0  0  0  0  0  0  0  0  0
  8  9  1  0
  9 10  1  0
  9  7  1  0
  7  1  1  0
  1  2  1  0
  1  5  1  0
  5  6  2  0
  2  3  1  0
  2  4  1  0
M  END
> <minimizedAffinity>
-2.54854

> <CNNscore>
0.5661592484

> <CNNaffinity>
3.4210145473

> <CNN_VS>
1.9368389845

> <CNNaffinity_variance>
0.0381666236

$$$$



 10  9  0  0  0  0  0  0  0  0999 V2000
   34.1629   55.2801   15.7650 C   0  0  0  0  0  0  0  0  0  0  0  0
   33.5958   53.9200   15.8354 N   0  0  0  0  0  0  0  0  0  0  0  0
   32.6135   53.9467   15.5620 H   0  0  0  0  0  0  0  0  0  0  0  0
   33.6737   53.5681   16.7896 H   0  0  0  0  0  0  0  0  0  0  0  0
   33.3591   56.1366   16.7441 C   0  0  0  0  0  0  0  0  0  0  0  0
   32.1341   56.2221   16.7595 O   0  0  0  0  0  0  0  0  0  0  0  0
   34.1162   55.7976   14.3166 C   0  0  0  0  0  0  0  0  0  0  0  0
   33.8867   54.8638   11.9504 C   0  0  0  0  0  0  0  0  0  0  0  0
   33.2333   55.0030   13.3270 C   0  0  0  0  0  0  0  0  0  0  0  0
   31.8160   55.5520   13.1872 C   0  0  0  0  0  0  0  0  0  0  0  0
  8  9  1  0
  9 10  1  0
  9  7  1  0
  7  1  1  0
  1  2  1  0
  1  5  1  0
  5  6  2  0
  2  3  1  0
  2  4  1  0
M  END
> <minimizedAffinity>
-3.31830

> <CNNscore>
0.5656741261

> <CNNaffinity>
2.7271375656

> <CNN_VS>
1.5426712036

> <CNNaffinity_variance>
0.8643663526

$$$$



 10  9  0  0  0  0  0  0  0  0999 V2000
   25.5737   53.8385   11.3495 C   0  0  0  0  0  0  0  0  0  0  0  0
   25.5772   52.6256   12.1892 N   0  0  0  0  0  0  0  0  0  0  0  0
   24.7854   52.6545   12.8316 H   0  0  0  0  0  0  0  0  0  0  0  0
   26.4460   52.5834   12.7220 H   0  0  0  0  0  0  0  0  0  0  0  0
   25.7028   55.0268   12.3031 C   0  0  0  0  0  0  0  0  0  0  0  0
   26.6626   55.7920   12.3449 O   0  0  0  0  0  0  0  0  0  0  0  0
   24.3000   53.8802   10.4870 C   0  0  0  0  0  0  0  0  0  0  0  0
   25.3593   55.3587    8.6937 C   0  0  0  0  0  0  0  0  0  0  0  0
   24.4980   54.1253    8.9734 C   0  0  0  0  0  0  0  0  0  0  0  0
   23.1931   54.2009    8.1851 C   0  0  0  0  0  0  0  0  0  0  0  0
  8  9  1  0
  9 10  1  0
  9  7  1  0
  7  1  1  0
  1  2  1  0
  1  5  1  0
  5  6  2  0
  2  3  1  0
  2  4  1  0
M  END
> <minimizedAffinity>
-3.22455

> <CNNscore>
0.5644029379

> <CNNaffinity>
2.9888107777

> <CNN_VS>
1.6868935823

> <CNNaffinity_variance>
0.2315078527

$$$$



 10  9  0  0  0  0  0  0  0  0999 V2000
   30.1612   56.5172   12.4836 C   0  0  0  0  0  0  0  0  0  0  0  0
   28.7283   56.1666   12.4978 N   0  0  0  0  0  0  0  0  0  0  0  0
   28.6050   55.2247   12.1263 H   0  0  0  0  0  0  0  0  0  0  0  0
   28.2102   56.8299   11.9215 H   0  0  0  0  0  0  0  0  0  0  0  0
   30.6083   56.4566   11.0226 C   0  0  0  0  0  0  0  0  0  0  0  0
   29.9653   56.8965   10.0732 O   0  0  0  0  0  0  0  0  0  0  0  0
   30.9466   55.5673   13.4049 C   0  0  0  0  0  0  0  0  0  0  0  0
   33.4599   55.2629   13.7431 C   0  0  0  0  0  0  0  0  0  0  0  0
   32.2369   56.1325   14.0421 C   0  0  0  0  0  0  0  0  0  0  0  0
   32.1229   56.3879   15.5426 C   0  0  0  0  0  0  0  0  0  0  0  0
  8  9  1  0
  9 10  1  0
  9  7  1  0
  7  1  1  0
  1  2  1  0
  1  5  1  0
  5  6  2  0
  2  3  1  0
  2  4  1  0
M  END
> <minimizedAffinity>
-2.46961

> <CNNscore>
0.5616781116

> <CNNaffinity>
2.6652257442

> <CNN_VS>
1.4969989061

> <CNNaffinity_variance>
0.6079373956

$$$$



 10  9  0  0  0  0  0  0  0  0999 V2000
   18.9573   46.6258    7.8857 C   0  0  0  0  0  0  0  0  0  0  0  0
   18.0900   45.4458    7.7074 N   0  0  0  0  0  0  0  0  0  0  0  0
   17.3261   45.6781    7.0726 H   0  0  0  0  0  0  0  0  0  0  0  0
   17.7081   45.1649    8.6105 H   0  0  0  0  0  0  0  0  0  0  0  0
   18.0785   47.7233    8.4867 C   0  0  0  0  0  0  0  0  0  0  0  0
   17.7056   47.7619    9.6563 O   0  0  0  0  0  0  0  0  0  0  0  0
   19.5965   47.0193    6.5424 C   0  0  0  0  0  0  0  0  0  0  0  0
   21.7762   47.7986    5.4628 C   0  0  0  0  0  0  0  0  0  0  0  0
   21.1198   46.7908    6.4087 C   0  0  0  0  0  0  0  0  0  0  0  0
   21.4969   45.3666    6.0094 C   0  0  0  0  0  0  0  0  0  0  0  0
  8  9  1  0
  9 10  1  0
  9  7  1  0
  7  1  1  0
  1  2  1  0
  1  5  1  0
  5  6  2  0
  2  3  1  0
  2  4  1  0
M  END
> <minimizedAffinity>
-3.83108

> <CNNscore>
0.5603641272

> <CNNaffinity>
3.2968170643

> <CNN_VS>
1.8474180698

> <CNNaffinity_variance>
0.1154211685

$$$$
