


 47 52  0  0  0  0  0  0  0  0999 V2000
   28.1563    7.9232   39.9482 C   0  0  0  0  0  0  0  0  0  0  0  0
   27.1291    8.5877   40.1273 O   0  0  0  0  0  0  0  0  0  0  0  0
   28.1919    6.7981   39.0827 N   0  0  0  0  0  0  0  0  0  0  0  0
   29.0303    5.6546   39.3358 C   0  0  0  0  0  0  0  0  0  0  0  0
   29.4253    5.3865   40.6668 C   0  0  0  0  0  0  0  0  0  0  0  0
   30.3132    4.3551   40.9978 C   0  0  0  0  0  0  0  0  0  0  0  0
   30.8306    3.5393   40.0051 C   0  0  0  0  0  0  0  0  0  0  0  0
   30.4068    3.7424   38.7003 C   0  0  0  0  0  0  0  0  0  0  0  0
   30.8549    2.9131   37.6967 O   0  0  0  0  0  0  0  0  0  0  0  0
   29.4851    4.7612   38.3485 C   0  0  0  0  0  0  0  0  0  0  0  0
   29.0705    4.7760   36.9857 N   0  0  0  0  0  0  0  0  0  0  0  0
   27.7177    4.7608   36.6841 C   0  0  0  0  0  0  0  0  0  0  0  0
   26.8893    5.7138   37.1536 C   0  0  0  0  0  0  0  0  0  0  0  0
   27.3055    6.9466   37.9145 C   0  0  0  0  0  0  0  0  0  0  0  0
   25.1755    5.6271   36.8551 S   0  0  0  0  0  0  0  0  0  0  0  0
   24.7887    6.7203   35.9815 O   0  0  0  0  0  0  0  0  0  0  0  0
   24.4948    5.4603   38.1266 O   0  0  0  0  0  0  0  0  0  0  0  0
   24.8942    4.1344   35.9499 C   0  0  0  0  0  0  0  0  0  0  0  0
   26.0173    3.7757   34.9791 C   0  0  0  0  0  0  0  0  0  0  0  0
   26.1941    4.8264   33.8664 C   0  0  0  0  0  0  0  0  0  0  0  0
   25.6659    2.4356   34.3023 C   0  0  0  0  0  0  0  0  0  0  0  0
   27.3137    3.6020   35.7878 C   0  0  0  0  0  0  0  0  0  0  0  0
   31.4644    2.2286   37.8916 H   0  0  0  0  0  0  0  0  0  0  0  0
   29.7396    4.7967   36.2637 H   0  0  0  0  0  0  0  0  0  0  0  0
   32.8930    9.0183   39.4987 C   0  0  0  0  0  0  0  0  0  0  0  0
   31.6654    8.9908   40.3593 C   0  0  0  0  0  0  0  0  0  0  0  0
   31.6886    9.5380   41.6381 C   0  0  0  0  0  0  0  0  0  0  0  0
   30.5208    9.5293   42.3951 C   0  0  0  0  0  0  0  0  0  0  0  0
   29.3649    8.9776   41.8560 C   0  0  0  0  0  0  0  0  0  0  0  0
   29.4197    8.4471   40.5714 C   0  0  0  0  0  0  0  0  0  0  0  0
   30.5488    8.4566   39.8175 N   0  0  0  0  0  0  0  0  0  0  0  0
   27.7293    8.0984   36.9899 C   0  0  0  0  0  0  0  0  0  0  0  0
   27.9187    9.3840   37.5330 C   0  0  0  0  0  0  0  0  0  0  0  0
   28.2882   10.4710   36.7308 C   0  0  0  0  0  0  0  0  0  0  0  0
   28.4719   10.2978   35.3619 C   0  0  0  0  0  0  0  0  0  0  0  0
   28.3067    9.0274   34.8134 C   0  0  0  0  0  0  0  0  0  0  0  0
   27.9465    7.9454   35.6183 C   0  0  0  0  0  0  0  0  0  0  0  0
   27.8221    6.7536   35.0225 F   0  0  0  0  0  0  0  0  0  0  0  0
   28.8063   11.2727   34.4616 O   0  0  0  0  0  0  0  0  0  0  0  0
   29.4031   10.8485   33.2376 C   0  0  0  0  0  0  0  0  0  0  0  0
   28.3248   10.8196   32.1813 C   0  0  0  0  0  0  0  0  0  0  0  0
   28.4693   10.0102   31.0437 C   0  0  0  0  0  0  0  0  0  0  0  0
   27.4861   10.0020   30.0548 C   0  0  0  0  0  0  0  0  0  0  0  0
   26.3624   10.8055   30.2000 C   0  0  0  0  0  0  0  0  0  0  0  0
   25.4225   10.7981   29.2479 F   0  0  0  0  0  0  0  0  0  0  0  0
   26.2040   11.6215   31.3132 C   0  0  0  0  0  0  0  0  0  0  0  0
   27.1860   11.6316   32.3031 C   0  0  0  0  0  0  0  0  0  0  0  0
 25 26  1  0
 26 27  2  0
 27 28  1  0
 28 29  2  0
 29 30  1  0
 30  1  1  0
  1  2  2  0
  1  3  1  0
  3  4  1  0
  4  5  2  0
  5  6  1  0
  6  7  2  0
  7  8  1  0
  8  9  1  0
  8 10  2  0
 10 11  1  0
 11 12  1  0
 12 13  2  0
 13 14  1  0
 14 32  1  0
 32 33  2  0
 33 34  1  0
 34 35  2  0
 35 39  1  0
 39 40  1  0
 40 41  1  0
 41 42  2  0
 42 43  1  0
 43 44  2  0
 44 45  1  0
 44 46  1  0
 46 47  2  0
 35 36  1  0
 36 37  2  0
 37 38  1  0
 13 15  1  0
 15 16  2  0
 15 17  2  0
 15 18  1  0
 18 19  1  0
 19 20  1  0
 19 21  1  0
 19 22  1  0
 30 31  2  0
 31 26  1  0
 14  3  1  0
 37 32  1  0
 10  4  1  0
 22 12  1  0
 47 41  1  0
  9 23  1  0
 11 24  1  0
M  END
> <minimizedAffinity>
-12.66133

> <CNNscore>
0.9876106381

> <CNNaffinity>
8.6242713928

> <CNN_VS>
8.5174217224

> <CNNaffinity_variance>
0.0537381880

$$$$



 47 52  0  0  0  0  0  0  0  0999 V2000
   28.1139    7.9272   39.8931 C   0  0  0  0  0  0  0  0  0  0  0  0
   27.0910    8.6153   39.9884 O   0  0  0  0  0  0  0  0  0  0  0  0
   28.1602    6.7383   39.1181 N   0  0  0  0  0  0  0  0  0  0  0  0
   28.9747    5.6083   39.4844 C   0  0  0  0  0  0  0  0  0  0  0  0
   29.3252    5.4392   40.8438 C   0  0  0  0  0  0  0  0  0  0  0  0
   30.1883    4.4263   41.2806 C   0  0  0  0  0  0  0  0  0  0  0  0
   30.7243    3.5304   40.3702 C   0  0  0  0  0  0  0  0  0  0  0  0
   30.3432    3.6370   39.0411 C   0  0  0  0  0  0  0  0  0  0  0  0
   30.8100    2.7277   38.1186 O   0  0  0  0  0  0  0  0  0  0  0  0
   29.4468    4.6362   38.5834 C   0  0  0  0  0  0  0  0  0  0  0  0
   29.0740    4.5505   37.2110 N   0  0  0  0  0  0  0  0  0  0  0  0
   27.7310    4.5276   36.8693 C   0  0  0  0  0  0  0  0  0  0  0  0
   26.9019    5.5234   37.2380 C   0  0  0  0  0  0  0  0  0  0  0  0
   27.3119    6.8064   37.9147 C   0  0  0  0  0  0  0  0  0  0  0  0
   25.1970    5.4336   36.8935 S   0  0  0  0  0  0  0  0  0  0  0  0
   24.8520    6.4605   35.9268 O   0  0  0  0  0  0  0  0  0  0  0  0
   24.4757    5.3733   38.1521 O   0  0  0  0  0  0  0  0  0  0  0  0
   24.9226    3.8788   36.0972 C   0  0  0  0  0  0  0  0  0  0  0  0
   26.0696    3.4334   35.1925 C   0  0  0  0  0  0  0  0  0  0  0  0
   26.2946    4.3930   34.0084 C   0  0  0  0  0  0  0  0  0  0  0  0
   25.7204    2.0492   34.6099 C   0  0  0  0  0  0  0  0  0  0  0  0
   27.3383    3.3078   36.0524 C   0  0  0  0  0  0  0  0  0  0  0  0
   31.4038    2.0533   38.3845 H   0  0  0  0  0  0  0  0  0  0  0  0
   29.7649    4.5078   36.5110 H   0  0  0  0  0  0  0  0  0  0  0  0
   30.4691    9.4667   43.8832 C   0  0  0  0  0  0  0  0  0  0  0  0
   30.4984    9.1955   42.4087 C   0  0  0  0  0  0  0  0  0  0  0  0
   31.6776    9.3495   41.6869 C   0  0  0  0  0  0  0  0  0  0  0  0
   31.6780    9.0527   40.3272 C   0  0  0  0  0  0  0  0  0  0  0  0
   30.5052    8.6102   39.7273 C   0  0  0  0  0  0  0  0  0  0  0  0
   29.3649    8.4832   40.5135 C   0  0  0  0  0  0  0  0  0  0  0  0
   29.3513    8.7601   41.8426 N   0  0  0  0  0  0  0  0  0  0  0  0
   27.7794    7.8785   36.9181 C   0  0  0  0  0  0  0  0  0  0  0  0
   27.9016    9.2137   37.3493 C   0  0  0  0  0  0  0  0  0  0  0  0
   28.3074   10.2312   36.4765 C   0  0  0  0  0  0  0  0  0  0  0  0
   28.5956    9.9366   35.1469 C   0  0  0  0  0  0  0  0  0  0  0  0
   28.4977    8.6168   34.7107 C   0  0  0  0  0  0  0  0  0  0  0  0
   28.1010    7.6047   35.5864 C   0  0  0  0  0  0  0  0  0  0  0  0
   28.0456    6.3598   35.0987 F   0  0  0  0  0  0  0  0  0  0  0  0
   28.9760   10.8325   34.1848 O   0  0  0  0  0  0  0  0  0  0  0  0
   27.9673   11.7001   33.6711 C   0  0  0  0  0  0  0  0  0  0  0  0
   27.5838   11.2038   32.2977 C   0  0  0  0  0  0  0  0  0  0  0  0
   28.4900   10.4452   31.5404 C   0  0  0  0  0  0  0  0  0  0  0  0
   28.1468   10.0079   30.2614 C   0  0  0  0  0  0  0  0  0  0  0  0
   26.9019   10.3325   29.7380 C   0  0  0  0  0  0  0  0  0  0  0  0
   26.5769    9.9145   28.5093 F   0  0  0  0  0  0  0  0  0  0  0  0
   25.9937   11.0905   30.4666 C   0  0  0  0  0  0  0  0  0  0  0  0
   26.3348   11.5292   31.7455 C   0  0  0  0  0  0  0  0  0  0  0  0
 25 26  1  0
 26 27  2  0
 27 28  1  0
 28 29  2  0
 29 30  1  0
 30  1  1  0
  1  2  2  0
  1  3  1  0
  3  4  1  0
  4  5  2  0
  5  6  1  0
  6  7  2  0
  7  8  1  0
  8  9  1  0
  8 10  2  0
 10 11  1  0
 11 12  1  0
 12 13  2  0
 13 14  1  0
 14 32  1  0
 32 33  2  0
 33 34  1  0
 34 35  2  0
 35 39  1  0
 39 40  1  0
 40 41  1  0
 41 42  2  0
 42 43  1  0
 43 44  2  0
 44 45  1  0
 44 46  1  0
 46 47  2  0
 35 36  1  0
 36 37  2  0
 37 38  1  0
 13 15  1  0
 15 16  2  0
 15 17  2  0
 15 18  1  0
 18 19  1  0
 19 20  1  0
 19 21  1  0
 19 22  1  0
 30 31  2  0
 31 26  1  0
 14  3  1  0
 37 32  1  0
 10  4  1  0
 22 12  1  0
 47 41  1  0
  9 23  1  0
 11 24  1  0
M  END
> <minimizedAffinity>
-12.10018

> <CNNscore>
0.9602205753

> <CNNaffinity>
8.3502473831

> <CNN_VS>
8.0180797577

> <CNNaffinity_variance>
0.0678621456

$$$$



 47 52  0  0  0  0  0  0  0  0999 V2000
   29.9235    6.3320   39.5320 C   0  0  0  0  0  0  0  0  0  0  0  0
   29.1969    7.0308   40.2480 O   0  0  0  0  0  0  0  0  0  0  0  0
   29.4006    5.3641   38.6342 N   0  0  0  0  0  0  0  0  0  0  0  0
   30.0918    4.1370   38.3323 C   0  0  0  0  0  0  0  0  0  0  0  0
   31.0097    3.6269   39.2793 C   0  0  0  0  0  0  0  0  0  0  0  0
   31.7956    2.4937   39.0344 C   0  0  0  0  0  0  0  0  0  0  0  0
   31.6812    1.8161   37.8318 C   0  0  0  0  0  0  0  0  0  0  0  0
   30.7408    2.2601   36.9143 C   0  0  0  0  0  0  0  0  0  0  0  0
   30.5585    1.5760   35.7333 O   0  0  0  0  0  0  0  0  0  0  0  0
   29.9139    3.3867   37.1554 C   0  0  0  0  0  0  0  0  0  0  0  0
   28.9285    3.6543   36.1620 N   0  0  0  0  0  0  0  0  0  0  0  0
   27.6006    3.7866   36.5367 C   0  0  0  0  0  0  0  0  0  0  0  0
   27.2219    4.7073   37.4443 C   0  0  0  0  0  0  0  0  0  0  0  0
   28.1089    5.7656   38.0488 C   0  0  0  0  0  0  0  0  0  0  0  0
   25.5684    4.7948   37.9845 S   0  0  0  0  0  0  0  0  0  0  0  0
   24.9829    6.0413   37.5248 O   0  0  0  0  0  0  0  0  0  0  0  0
   25.5289    4.4719   39.3995 O   0  0  0  0  0  0  0  0  0  0  0  0
   24.6974    3.4947   37.1613 C   0  0  0  0  0  0  0  0  0  0  0  0
   25.1891    3.2194   35.7418 C   0  0  0  0  0  0  0  0  0  0  0  0
   24.9831    4.4224   34.8018 C   0  0  0  0  0  0  0  0  0  0  0  0
   24.3825    2.0371   35.1682 C   0  0  0  0  0  0  0  0  0  0  0  0
   26.6729    2.8224   35.8162 C   0  0  0  0  0  0  0  0  0  0  0  0
   31.0866    0.8266   35.5397 H   0  0  0  0  0  0  0  0  0  0  0  0
   29.1887    3.7445   35.2167 H   0  0  0  0  0  0  0  0  0  0  0  0
   34.1109    6.7757   37.0608 C   0  0  0  0  0  0  0  0  0  0  0  0
   33.3807    6.8887   38.3656 C   0  0  0  0  0  0  0  0  0  0  0  0
   34.0266    7.3828   39.4943 C   0  0  0  0  0  0  0  0  0  0  0  0
   33.3080    7.5096   40.6794 C   0  0  0  0  0  0  0  0  0  0  0  0
   31.9679    7.1423   40.7050 C   0  0  0  0  0  0  0  0  0  0  0  0
   31.3916    6.6541   39.5370 C   0  0  0  0  0  0  0  0  0  0  0  0
   32.0771    6.5332   38.3713 N   0  0  0  0  0  0  0  0  0  0  0  0
   28.2200    7.0195   37.1676 C   0  0  0  0  0  0  0  0  0  0  0  0
   28.8755    6.9319   35.9241 C   0  0  0  0  0  0  0  0  0  0  0  0
   29.0184    8.0488   35.0911 C   0  0  0  0  0  0  0  0  0  0  0  0
   28.5125    9.2838   35.4865 C   0  0  0  0  0  0  0  0  0  0  0  0
   27.8446    9.3815   36.7056 C   0  0  0  0  0  0  0  0  0  0  0  0
   27.6972    8.2638   37.5286 C   0  0  0  0  0  0  0  0  0  0  0  0
   27.0303    8.4321   38.6765 F   0  0  0  0  0  0  0  0  0  0  0  0
   28.6037   10.4561   34.7864 O   0  0  0  0  0  0  0  0  0  0  0  0
   29.3206   10.4217   33.5538 C   0  0  0  0  0  0  0  0  0  0  0  0
   28.3228   10.5830   32.4323 C   0  0  0  0  0  0  0  0  0  0  0  0
   27.2400   11.4656   32.5691 C   0  0  0  0  0  0  0  0  0  0  0  0
   26.3033   11.5964   31.5443 C   0  0  0  0  0  0  0  0  0  0  0  0
   26.4456   10.8426   30.3864 C   0  0  0  0  0  0  0  0  0  0  0  0
   25.5434   10.9678   29.4064 F   0  0  0  0  0  0  0  0  0  0  0  0
   27.5043    9.9559   30.2342 C   0  0  0  0  0  0  0  0  0  0  0  0
   28.4419    9.8231   31.2578 C   0  0  0  0  0  0  0  0  0  0  0  0
 25 26  1  0
 26 27  2  0
 27 28  1  0
 28 29  2  0
 29 30  1  0
 30  1  1  0
  1  2  2  0
  1  3  1  0
  3  4  1  0
  4  5  2  0
  5  6  1  0
  6  7  2  0
  7  8  1  0
  8  9  1  0
  8 10  2  0
 10 11  1  0
 11 12  1  0
 12 13  2  0
 13 14  1  0
 14 32  1  0
 32 33  2  0
 33 34  1  0
 34 35  2  0
 35 39  1  0
 39 40  1  0
 40 41  1  0
 41 42  2  0
 42 43  1  0
 43 44  2  0
 44 45  1  0
 44 46  1  0
 46 47  2  0
 35 36  1  0
 36 37  2  0
 37 38  1  0
 13 15  1  0
 15 16  2  0
 15 17  2  0
 15 18  1  0
 18 19  1  0
 19 20  1  0
 19 21  1  0
 19 22  1  0
 30 31  2  0
 31 26  1  0
 14  3  1  0
 37 32  1  0
 10  4  1  0
 22 12  1  0
 47 41  1  0
  9 23  1  0
 11 24  1  0
M  END
> <minimizedAffinity>
-10.71720

> <CNNscore>
0.9155331850

> <CNNaffinity>
8.2372560501

> <CNN_VS>
7.5414814949

> <CNNaffinity_variance>
0.0235822722

$$$$



 47 52  0  0  0  0  0  0  0  0999 V2000
   28.1566    7.3710   39.7643 C   0  0  0  0  0  0  0  0  0  0  0  0
   27.0062    7.8177   39.6882 O   0  0  0  0  0  0  0  0  0  0  0  0
   28.5153    6.1023   39.2369 N   0  0  0  0  0  0  0  0  0  0  0  0
   29.5215    5.2695   39.8440 C   0  0  0  0  0  0  0  0  0  0  0  0
   29.7941    5.4330   41.2218 C   0  0  0  0  0  0  0  0  0  0  0  0
   30.8172    4.7360   41.8769 C   0  0  0  0  0  0  0  0  0  0  0  0
   31.6007    3.8332   41.1772 C   0  0  0  0  0  0  0  0  0  0  0  0
   31.3093    3.6085   39.8400 C   0  0  0  0  0  0  0  0  0  0  0  0
   32.0293    2.6751   39.1286 O   0  0  0  0  0  0  0  0  0  0  0  0
   30.2584    4.2811   39.1659 C   0  0  0  0  0  0  0  0  0  0  0  0
   30.0195    3.8663   37.8241 N   0  0  0  0  0  0  0  0  0  0  0  0
   28.7427    3.4811   37.4463 C   0  0  0  0  0  0  0  0  0  0  0  0
   27.6943    4.3156   37.5854 C   0  0  0  0  0  0  0  0  0  0  0  0
   27.7674    5.7588   38.0141 C   0  0  0  0  0  0  0  0  0  0  0  0
   26.0796    3.7847   37.2052 S   0  0  0  0  0  0  0  0  0  0  0  0
   25.5991    4.5150   36.0461 O   0  0  0  0  0  0  0  0  0  0  0  0
   25.2929    3.7937   38.4254 O   0  0  0  0  0  0  0  0  0  0  0  0
   26.2058    2.0900   36.7167 C   0  0  0  0  0  0  0  0  0  0  0  0
   27.4877    1.7565   35.9565 C   0  0  0  0  0  0  0  0  0  0  0  0
   27.5934    2.5108   34.6174 C   0  0  0  0  0  0  0  0  0  0  0  0
   27.4881    0.2471   35.6418 C   0  0  0  0  0  0  0  0  0  0  0  0
   28.6838    2.0768   36.8685 C   0  0  0  0  0  0  0  0  0  0  0  0
   32.7310    2.2109   39.5411 H   0  0  0  0  0  0  0  0  0  0  0  0
   30.7555    3.8533   37.1703 H   0  0  0  0  0  0  0  0  0  0  0  0
   29.9492    9.8978   43.5378 C   0  0  0  0  0  0  0  0  0  0  0  0
   30.0790    9.4824   42.1029 C   0  0  0  0  0  0  0  0  0  0  0  0
   31.1938    9.8554   41.3591 C   0  0  0  0  0  0  0  0  0  0  0  0
   31.2999    9.4206   40.0413 C   0  0  0  0  0  0  0  0  0  0  0  0
   30.2940    8.6264   39.5041 C   0  0  0  0  0  0  0  0  0  0  0  0
   29.2084    8.2965   40.3086 C   0  0  0  0  0  0  0  0  0  0  0  0
   29.0954    8.7054   41.5983 N   0  0  0  0  0  0  0  0  0  0  0  0
   28.0708    6.7093   36.8454 C   0  0  0  0  0  0  0  0  0  0  0  0
   29.3703    6.7420   36.3033 C   0  0  0  0  0  0  0  0  0  0  0  0
   29.7028    7.6022   35.2492 C   0  0  0  0  0  0  0  0  0  0  0  0
   28.7418    8.4559   34.7152 C   0  0  0  0  0  0  0  0  0  0  0  0
   27.4468    8.4209   35.2286 C   0  0  0  0  0  0  0  0  0  0  0  0
   27.1179    7.5560   36.2736 C   0  0  0  0  0  0  0  0  0  0  0  0
   25.8504    7.5678   36.7026 F   0  0  0  0  0  0  0  0  0  0  0  0
   28.9353    9.3607   33.7069 O   0  0  0  0  0  0  0  0  0  0  0  0
   28.0947   10.5129   33.6989 C   0  0  0  0  0  0  0  0  0  0  0  0
   27.5040   10.6466   32.3159 C   0  0  0  0  0  0  0  0  0  0  0  0
   26.5810   11.6662   32.0356 C   0  0  0  0  0  0  0  0  0  0  0  0
   26.0150   11.7752   30.7657 C   0  0  0  0  0  0  0  0  0  0  0  0
   26.3670   10.8634   29.7788 C   0  0  0  0  0  0  0  0  0  0  0  0
   25.8197   10.9684   28.5625 F   0  0  0  0  0  0  0  0  0  0  0  0
   27.2711    9.8408   30.0376 C   0  0  0  0  0  0  0  0  0  0  0  0
   27.8380    9.7296   31.3067 C   0  0  0  0  0  0  0  0  0  0  0  0
 25 26  1  0
 26 27  2  0
 27 28  1  0
 28 29  2  0
 29 30  1  0
 30  1  1  0
  1  2  2  0
  1  3  1  0
  3  4  1  0
  4  5  2  0
  5  6  1  0
  6  7  2  0
  7  8  1  0
  8  9  1  0
  8 10  2  0
 10 11  1  0
 11 12  1  0
 12 13  2  0
 13 14  1  0
 14 32  1  0
 32 33  2  0
 33 34  1  0
 34 35  2  0
 35 39  1  0
 39 40  1  0
 40 41  1  0
 41 42  2  0
 42 43  1  0
 43 44  2  0
 44 45  1  0
 44 46  1  0
 46 47  2  0
 35 36  1  0
 36 37  2  0
 37 38  1  0
 13 15  1  0
 15 16  2  0
 15 17  2  0
 15 18  1  0
 18 19  1  0
 19 20  1  0
 19 21  1  0
 19 22  1  0
 30 31  2  0
 31 26  1  0
 14  3  1  0
 37 32  1  0
 10  4  1  0
 22 12  1  0
 47 41  1  0
  9 23  1  0
 11 24  1  0
M  END
> <minimizedAffinity>
-10.74755

> <CNNscore>
0.6242058277

> <CNNaffinity>
7.6576132774

> <CNN_VS>
4.7799267769

> <CNNaffinity_variance>
0.0204975698

$$$$



 47 52  0  0  0  0  0  0  0  0999 V2000
   25.8024    4.8963   37.1049 C   0  0  0  0  0  0  0  0  0  0  0  0
   24.8612    5.2803   37.8089 O   0  0  0  0  0  0  0  0  0  0  0  0
   27.1069    5.4462   37.2146 N   0  0  0  0  0  0  0  0  0  0  0  0
   27.9880    5.5772   36.0827 C   0  0  0  0  0  0  0  0  0  0  0  0
   27.4212    5.6590   34.7899 C   0  0  0  0  0  0  0  0  0  0  0  0
   28.1987    5.6938   33.6254 C   0  0  0  0  0  0  0  0  0  0  0  0
   29.5807    5.6628   33.7122 C   0  0  0  0  0  0  0  0  0  0  0  0
   30.1599    5.6483   34.9723 C   0  0  0  0  0  0  0  0  0  0  0  0
   31.5308    5.6765   35.0975 O   0  0  0  0  0  0  0  0  0  0  0  0
   29.3911    5.6437   36.1640 C   0  0  0  0  0  0  0  0  0  0  0  0
   30.1318    5.7325   37.3777 N   0  0  0  0  0  0  0  0  0  0  0  0
   29.8150    6.7180   38.2995 C   0  0  0  0  0  0  0  0  0  0  0  0
   28.5749    6.8146   38.8167 C   0  0  0  0  0  0  0  0  0  0  0  0
   27.4486    5.8379   38.5938 C   0  0  0  0  0  0  0  0  0  0  0  0
   28.1604    8.1191   39.8937 S   0  0  0  0  0  0  0  0  0  0  0  0
   27.9025    7.5801   41.2169 O   0  0  0  0  0  0  0  0  0  0  0  0
   27.1494    8.9411   39.2532 O   0  0  0  0  0  0  0  0  0  0  0  0
   29.6002    9.1357   40.0351 C   0  0  0  0  0  0  0  0  0  0  0  0
   30.9150    8.3599   39.9916 C   0  0  0  0  0  0  0  0  0  0  0  0
   31.0640    7.3836   41.1739 C   0  0  0  0  0  0  0  0  0  0  0  0
   32.0782    9.3689   40.0716 C   0  0  0  0  0  0  0  0  0  0  0  0
   30.9898    7.6171   38.6471 C   0  0  0  0  0  0  0  0  0  0  0  0
   32.0711    5.6804   34.3320 H   0  0  0  0  0  0  0  0  0  0  0  0
   30.8628    5.0989   37.5603 H   0  0  0  0  0  0  0  0  0  0  0  0
   22.8779    1.2075   35.8092 C   0  0  0  0  0  0  0  0  0  0  0  0
   24.1529    1.9645   35.5861 C   0  0  0  0  0  0  0  0  0  0  0  0
   24.9933    1.6334   34.5282 C   0  0  0  0  0  0  0  0  0  0  0  0
   26.1498    2.3813   34.3278 C   0  0  0  0  0  0  0  0  0  0  0  0
   26.4341    3.4371   35.1855 C   0  0  0  0  0  0  0  0  0  0  0  0
   25.5472    3.7065   36.2226 C   0  0  0  0  0  0  0  0  0  0  0  0
   24.4108    2.9918   36.4252 N   0  0  0  0  0  0  0  0  0  0  0  0
   27.5042    4.6403   39.5550 C   0  0  0  0  0  0  0  0  0  0  0  0
   26.6890    4.6402   40.7036 C   0  0  0  0  0  0  0  0  0  0  0  0
   26.7145    3.5812   41.6198 C   0  0  0  0  0  0  0  0  0  0  0  0
   27.5625    2.4973   41.4106 C   0  0  0  0  0  0  0  0  0  0  0  0
   28.3608    2.4746   40.2687 C   0  0  0  0  0  0  0  0  0  0  0  0
   28.3258    3.5284   39.3540 C   0  0  0  0  0  0  0  0  0  0  0  0
   29.1090    3.4279   38.2736 F   0  0  0  0  0  0  0  0  0  0  0  0
   27.7064    1.4132   42.2333 O   0  0  0  0  0  0  0  0  0  0  0  0
   26.5134    0.7503   42.6477 C   0  0  0  0  0  0  0  0  0  0  0  0
   26.3954    0.9009   44.1453 C   0  0  0  0  0  0  0  0  0  0  0  0
   25.1927    0.5849   44.7963 C   0  0  0  0  0  0  0  0  0  0  0  0
   25.0741    0.7480   46.1762 C   0  0  0  0  0  0  0  0  0  0  0  0
   26.1540    1.2309   46.9039 C   0  0  0  0  0  0  0  0  0  0  0  0
   26.0360    1.3896   48.2271 F   0  0  0  0  0  0  0  0  0  0  0  0
   27.3504    1.5590   46.2783 C   0  0  0  0  0  0  0  0  0  0  0  0
   27.4712    1.3972   44.8986 C   0  0  0  0  0  0  0  0  0  0  0  0
 25 26  1  0
 26 27  2  0
 27 28  1  0
 28 29  2  0
 29 30  1  0
 30  1  1  0
  1  2  2  0
  1  3  1  0
  3  4  1  0
  4  5  2  0
  5  6  1  0
  6  7  2  0
  7  8  1  0
  8  9  1  0
  8 10  2  0
 10 11  1  0
 11 12  1  0
 12 13  2  0
 13 14  1  0
 14 32  1  0
 32 33  2  0
 33 34  1  0
 34 35  2  0
 35 39  1  0
 39 40  1  0
 40 41  1  0
 41 42  2  0
 42 43  1  0
 43 44  2  0
 44 45  1  0
 44 46  1  0
 46 47  2  0
 35 36  1  0
 36 37  2  0
 37 38  1  0
 13 15  1  0
 15 16  2  0
 15 17  2  0
 15 18  1  0
 18 19  1  0
 19 20  1  0
 19 21  1  0
 19 22  1  0
 30 31  2  0
 31 26  1  0
 14  3  1  0
 37 32  1  0
 10  4  1  0
 22 12  1  0
 47 41  1  0
  9 23  1  0
 11 24  1  0
M  END
> <minimizedAffinity>
-9.82146

> <CNNscore>
0.5560893416

> <CNNaffinity>
7.0730018616

> <CNN_VS>
3.9332208633

> <CNNaffinity_variance>
0.1042484567

$$$$



 47 52  0  0  0  0  0  0  0  0999 V2000
   29.4353    4.0596   36.1662 C   0  0  0  0  0  0  0  0  0  0  0  0
   30.4183    4.2510   35.4409 O   0  0  0  0  0  0  0  0  0  0  0  0
   29.3738    4.5340   37.5031 N   0  0  0  0  0  0  0  0  0  0  0  0
   28.6773    3.8229   38.5442 C   0  0  0  0  0  0  0  0  0  0  0  0
   28.4953    2.4275   38.4055 C   0  0  0  0  0  0  0  0  0  0  0  0
   27.7515    1.6687   39.3179 C   0  0  0  0  0  0  0  0  0  0  0  0
   27.1710    2.2787   40.4177 C   0  0  0  0  0  0  0  0  0  0  0  0
   27.3906    3.6346   40.6092 C   0  0  0  0  0  0  0  0  0  0  0  0
   26.8780    4.2620   41.7225 O   0  0  0  0  0  0  0  0  0  0  0  0
   28.1658    4.4147   39.7138 C   0  0  0  0  0  0  0  0  0  0  0  0
   28.3840    5.7678   40.1025 N   0  0  0  0  0  0  0  0  0  0  0  0
   29.6781    6.2610   40.1590 C   0  0  0  0  0  0  0  0  0  0  0  0
   30.4812    6.2335   39.0777 C   0  0  0  0  0  0  0  0  0  0  0  0
   30.0734    5.8182   37.6873 C   0  0  0  0  0  0  0  0  0  0  0  0
   32.1380    6.7595   39.1878 S   0  0  0  0  0  0  0  0  0  0  0  0
   32.3066    7.9685   38.4018 O   0  0  0  0  0  0  0  0  0  0  0  0
   33.0006    5.6203   38.9308 O   0  0  0  0  0  0  0  0  0  0  0  0
   32.4144    7.2120   40.8747 C   0  0  0  0  0  0  0  0  0  0  0  0
   31.2011    7.8418   41.5556 C   0  0  0  0  0  0  0  0  0  0  0  0
   30.7839    9.1742   40.9044 C   0  0  0  0  0  0  0  0  0  0  0  0
   31.5656    8.1358   43.0247 C   0  0  0  0  0  0  0  0  0  0  0  0
   30.0490    6.8238   41.5210 C   0  0  0  0  0  0  0  0  0  0  0  0
   26.3610    3.7784   42.3364 H   0  0  0  0  0  0  0  0  0  0  0  0
   27.6216    6.3480   40.3292 H   0  0  0  0  0  0  0  0  0  0  0  0
   24.8452    4.5003   34.5614 C   0  0  0  0  0  0  0  0  0  0  0  0
   26.0581    3.6365   34.7387 C   0  0  0  0  0  0  0  0  0  0  0  0
   26.0862    2.3459   34.2200 C   0  0  0  0  0  0  0  0  0  0  0  0
   27.2421    1.5854   34.3699 C   0  0  0  0  0  0  0  0  0  0  0  0
   28.3355    2.1329   35.0302 C   0  0  0  0  0  0  0  0  0  0  0  0
   28.2316    3.4290   35.5238 C   0  0  0  0  0  0  0  0  0  0  0  0
   27.1142    4.1863   35.3774 N   0  0  0  0  0  0  0  0  0  0  0  0
   29.4302    6.9646   36.8914 C   0  0  0  0  0  0  0  0  0  0  0  0
   29.5897    7.0066   35.4927 C   0  0  0  0  0  0  0  0  0  0  0  0
   29.0381    8.0387   34.7232 C   0  0  0  0  0  0  0  0  0  0  0  0
   28.3170    9.0587   35.3375 C   0  0  0  0  0  0  0  0  0  0  0  0
   28.1347    9.0201   36.7186 C   0  0  0  0  0  0  0  0  0  0  0  0
   28.6792    7.9848   37.4803 C   0  0  0  0  0  0  0  0  0  0  0  0
   28.4483    8.0074   38.7982 F   0  0  0  0  0  0  0  0  0  0  0  0
   27.7487   10.1358   34.7134 O   0  0  0  0  0  0  0  0  0  0  0  0
   28.5706   10.8684   33.8067 C   0  0  0  0  0  0  0  0  0  0  0  0
   27.9024   10.8459   32.4531 C   0  0  0  0  0  0  0  0  0  0  0  0
   26.7334   11.5893   32.2279 C   0  0  0  0  0  0  0  0  0  0  0  0
   26.1007   11.5492   30.9857 C   0  0  0  0  0  0  0  0  0  0  0  0
   26.6327   10.7632   29.9716 C   0  0  0  0  0  0  0  0  0  0  0  0
   26.0216   10.7241   28.7820 F   0  0  0  0  0  0  0  0  0  0  0  0
   27.7833   10.0120   30.1760 C   0  0  0  0  0  0  0  0  0  0  0  0
   28.4174   10.0502   31.4174 C   0  0  0  0  0  0  0  0  0  0  0  0
 25 26  1  0
 26 27  2  0
 27 28  1  0
 28 29  2  0
 29 30  1  0
 30  1  1  0
  1  2  2  0
  1  3  1  0
  3  4  1  0
  4  5  2  0
  5  6  1  0
  6  7  2  0
  7  8  1  0
  8  9  1  0
  8 10  2  0
 10 11  1  0
 11 12  1  0
 12 13  2  0
 13 14  1  0
 14 32  1  0
 32 33  2  0
 33 34  1  0
 34 35  2  0
 35 39  1  0
 39 40  1  0
 40 41  1  0
 41 42  2  0
 42 43  1  0
 43 44  2  0
 44 45  1  0
 44 46  1  0
 46 47  2  0
 35 36  1  0
 36 37  2  0
 37 38  1  0
 13 15  1  0
 15 16  2  0
 15 17  2  0
 15 18  1  0
 18 19  1  0
 19 20  1  0
 19 21  1  0
 19 22  1  0
 30 31  2  0
 31 26  1  0
 14  3  1  0
 37 32  1  0
 10  4  1  0
 22 12  1  0
 47 41  1  0
  9 23  1  0
 11 24  1  0
M  END
> <minimizedAffinity>
-10.81428

> <CNNscore>
0.3646100163

> <CNNaffinity>
7.1199970245

> <CNN_VS>
2.5960221291

> <CNNaffinity_variance>
0.2637826502

$$$$



 47 52  0  0  0  0  0  0  0  0999 V2000
   25.6633    5.2606   37.2959 C   0  0  0  0  0  0  0  0  0  0  0  0
   24.8532    5.6915   38.1247 O   0  0  0  0  0  0  0  0  0  0  0  0
   27.0284    5.6514   37.2937 N   0  0  0  0  0  0  0  0  0  0  0  0
   27.7962    5.7705   36.0809 C   0  0  0  0  0  0  0  0  0  0  0  0
   27.1117    6.0148   34.8680 C   0  0  0  0  0  0  0  0  0  0  0  0
   27.7623    6.0527   33.6282 C   0  0  0  0  0  0  0  0  0  0  0  0
   29.1322    5.8610   33.5570 C   0  0  0  0  0  0  0  0  0  0  0  0
   29.8335    5.6845   34.7404 C   0  0  0  0  0  0  0  0  0  0  0  0
   31.2036    5.5499   34.7122 O   0  0  0  0  0  0  0  0  0  0  0  0
   29.1980    5.6735   36.0081 C   0  0  0  0  0  0  0  0  0  0  0  0
   30.0663    5.5849   37.1341 N   0  0  0  0  0  0  0  0  0  0  0  0
   29.9671    6.5253   38.1475 C   0  0  0  0  0  0  0  0  0  0  0  0
   28.8080    6.7193   38.8060 C   0  0  0  0  0  0  0  0  0  0  0  0
   27.5561    5.8945   38.6483 C   0  0  0  0  0  0  0  0  0  0  0  0
   28.6665    7.9746   40.0050 S   0  0  0  0  0  0  0  0  0  0  0  0
   28.4854    7.3670   41.3111 O   0  0  0  0  0  0  0  0  0  0  0  0
   27.6997    8.9513   39.5369 O   0  0  0  0  0  0  0  0  0  0  0  0
   30.2242    8.8102   40.0493 C   0  0  0  0  0  0  0  0  0  0  0  0
   31.4253    7.8983   39.8081 C   0  0  0  0  0  0  0  0  0  0  0  0
   31.5791    6.8229   40.9005 C   0  0  0  0  0  0  0  0  0  0  0  0
   32.7026    8.7620   39.8221 C   0  0  0  0  0  0  0  0  0  0  0  0
   31.2706    7.2581   38.4185 C   0  0  0  0  0  0  0  0  0  0  0  0
   31.6579    5.5527   33.8927 H   0  0  0  0  0  0  0  0  0  0  0  0
   30.7315    4.8614   37.1919 H   0  0  0  0  0  0  0  0  0  0  0  0
   24.2740    0.6231   36.6617 C   0  0  0  0  0  0  0  0  0  0  0  0
   24.4949    1.9821   36.0676 C   0  0  0  0  0  0  0  0  0  0  0  0
   24.1492    2.2376   34.7445 C   0  0  0  0  0  0  0  0  0  0  0  0
   24.3327    3.5203   34.2367 C   0  0  0  0  0  0  0  0  0  0  0  0
   24.8532    4.5103   35.0614 C   0  0  0  0  0  0  0  0  0  0  0  0
   25.1776    4.1786   36.3727 C   0  0  0  0  0  0  0  0  0  0  0  0
   24.9958    2.9344   36.8848 N   0  0  0  0  0  0  0  0  0  0  0  0
   27.5682    4.6275   39.5175 C   0  0  0  0  0  0  0  0  0  0  0  0
   26.8517    4.6167   40.7300 C   0  0  0  0  0  0  0  0  0  0  0  0
   26.8442    3.4934   41.5665 C   0  0  0  0  0  0  0  0  0  0  0  0
   27.5599    2.3536   41.2113 C   0  0  0  0  0  0  0  0  0  0  0  0
   28.2580    2.3428   40.0052 C   0  0  0  0  0  0  0  0  0  0  0  0
   28.2556    3.4617   39.1708 C   0  0  0  0  0  0  0  0  0  0  0  0
   28.9358    3.3703   38.0220 F   0  0  0  0  0  0  0  0  0  0  0  0
   27.6598    1.2014   41.9428 O   0  0  0  0  0  0  0  0  0  0  0  0
   28.3317    0.1014   41.3322 C   0  0  0  0  0  0  0  0  0  0  0  0
   27.2884   -0.9105   40.9234 C   0  0  0  0  0  0  0  0  0  0  0  0
   27.4921   -1.7220   39.7965 C   0  0  0  0  0  0  0  0  0  0  0  0
   26.5180   -2.6390   39.4028 C   0  0  0  0  0  0  0  0  0  0  0  0
   25.3399   -2.7414   40.1312 C   0  0  0  0  0  0  0  0  0  0  0  0
   24.4057   -3.6197   39.7489 F   0  0  0  0  0  0  0  0  0  0  0  0
   25.1136   -1.9410   41.2440 C   0  0  0  0  0  0  0  0  0  0  0  0
   26.0860   -1.0231   41.6394 C   0  0  0  0  0  0  0  0  0  0  0  0
 25 26  1  0
 26 27  2  0
 27 28  1  0
 28 29  2  0
 29 30  1  0
 30  1  1  0
  1  2  2  0
  1  3  1  0
  3  4  1  0
  4  5  2  0
  5  6  1  0
  6  7  2  0
  7  8  1  0
  8  9  1  0
  8 10  2  0
 10 11  1  0
 11 12  1  0
 12 13  2  0
 13 14  1  0
 14 32  1  0
 32 33  2  0
 33 34  1  0
 34 35  2  0
 35 39  1  0
 39 40  1  0
 40 41  1  0
 41 42  2  0
 42 43  1  0
 43 44  2  0
 44 45  1  0
 44 46  1  0
 46 47  2  0
 35 36  1  0
 36 37  2  0
 37 38  1  0
 13 15  1  0
 15 16  2  0
 15 17  2  0
 15 18  1  0
 18 19  1  0
 19 20  1  0
 19 21  1  0
 19 22  1  0
 30 31  2  0
 31 26  1  0
 14  3  1  0
 37 32  1  0
 10  4  1  0
 22 12  1  0
 47 41  1  0
  9 23  1  0
 11 24  1  0
M  END
> <minimizedAffinity>
-9.64558

> <CNNscore>
0.2670395672

> <CNNaffinity>
6.6243672371

> <CNN_VS>
1.7689681053

> <CNNaffinity_variance>
0.4590141475

$$$$



 47 52  0  0  0  0  0  0  0  0999 V2000
   34.2335    4.3909   39.2371 C   0  0  0  0  0  0  0  0  0  0  0  0
   34.2972    4.8337   38.0844 O   0  0  0  0  0  0  0  0  0  0  0  0
   33.6295    5.1169   40.2975 N   0  0  0  0  0  0  0  0  0  0  0  0
   34.0965    5.0309   41.6573 C   0  0  0  0  0  0  0  0  0  0  0  0
   35.4411    4.6598   41.8887 C   0  0  0  0  0  0  0  0  0  0  0  0
   35.9585    4.4595   43.1748 C   0  0  0  0  0  0  0  0  0  0  0  0
   35.1489    4.6383   44.2843 C   0  0  0  0  0  0  0  0  0  0  0  0
   33.8447    5.0653   44.0844 C   0  0  0  0  0  0  0  0  0  0  0  0
   33.0295    5.3099   45.1666 O   0  0  0  0  0  0  0  0  0  0  0  0
   33.3107    5.3034   42.7923 C   0  0  0  0  0  0  0  0  0  0  0  0
   31.9900    5.8363   42.7578 N   0  0  0  0  0  0  0  0  0  0  0  0
   31.7407    6.9950   42.0392 C   0  0  0  0  0  0  0  0  0  0  0  0
   32.0196    7.0717   40.7235 C   0  0  0  0  0  0  0  0  0  0  0  0
   32.4845    5.9320   39.8533 C   0  0  0  0  0  0  0  0  0  0  0  0
   31.7999    8.5648   39.8540 S   0  0  0  0  0  0  0  0  0  0  0  0
   30.7240    8.4018   38.8928 O   0  0  0  0  0  0  0  0  0  0  0  0
   33.0979    9.0251   39.3946 O   0  0  0  0  0  0  0  0  0  0  0  0
   31.2458    9.7603   41.0332 C   0  0  0  0  0  0  0  0  0  0  0  0
   30.3406    9.1864   42.1212 C   0  0  0  0  0  0  0  0  0  0  0  0
   29.0231    8.6221   41.5563 C   0  0  0  0  0  0  0  0  0  0  0  0
   29.9789   10.3203   43.1014 C   0  0  0  0  0  0  0  0  0  0  0  0
   31.1274    8.1037   42.8784 C   0  0  0  0  0  0  0  0  0  0  0  0
   33.3481    5.1641   46.0357 H   0  0  0  0  0  0  0  0  0  0  0  0
   31.2602    5.3852   43.2406 H   0  0  0  0  0  0  0  0  0  0  0  0
   37.9040    1.2403   39.9002 C   0  0  0  0  0  0  0  0  0  0  0  0
   36.4273    1.4734   39.7827 C   0  0  0  0  0  0  0  0  0  0  0  0
   35.5310    0.4272   39.9762 C   0  0  0  0  0  0  0  0  0  0  0  0
   34.1660    0.6872   39.8971 C   0  0  0  0  0  0  0  0  0  0  0  0
   33.7344    1.9807   39.6294 C   0  0  0  0  0  0  0  0  0  0  0  0
   34.6903    2.9742   39.4451 C   0  0  0  0  0  0  0  0  0  0  0  0
   36.0247    2.7378   39.5282 N   0  0  0  0  0  0  0  0  0  0  0  0
   31.3213    5.0816   39.3196 C   0  0  0  0  0  0  0  0  0  0  0  0
   30.6853    4.1662   40.1805 C   0  0  0  0  0  0  0  0  0  0  0  0
   29.6317    3.3558   39.7389 C   0  0  0  0  0  0  0  0  0  0  0  0
   29.1926    3.4386   38.4206 C   0  0  0  0  0  0  0  0  0  0  0  0
   29.7996    4.3534   37.5624 C   0  0  0  0  0  0  0  0  0  0  0  0
   30.8436    5.1650   38.0094 C   0  0  0  0  0  0  0  0  0  0  0  0
   31.3657    6.0299   37.1319 F   0  0  0  0  0  0  0  0  0  0  0  0
   28.1962    2.6922   37.8524 O   0  0  0  0  0  0  0  0  0  0  0  0
   27.8935    2.9496   36.4825 C   0  0  0  0  0  0  0  0  0  0  0  0
   26.4791    2.4884   36.2254 C   0  0  0  0  0  0  0  0  0  0  0  0
   25.7087    1.9514   37.2685 C   0  0  0  0  0  0  0  0  0  0  0  0
   24.4110    1.5013   37.0269 C   0  0  0  0  0  0  0  0  0  0  0  0
   23.8860    1.5828   35.7436 C   0  0  0  0  0  0  0  0  0  0  0  0
   22.6420    1.1468   35.5142 F   0  0  0  0  0  0  0  0  0  0  0  0
   24.6347    2.1017   34.6947 C   0  0  0  0  0  0  0  0  0  0  0  0
   25.9325    2.5521   34.9338 C   0  0  0  0  0  0  0  0  0  0  0  0
 25 26  1  0
 26 27  2  0
 27 28  1  0
 28 29  2  0
 29 30  1  0
 30  1  1  0
  1  2  2  0
  1  3  1  0
  3  4  1  0
  4  5  2  0
  5  6  1  0
  6  7  2  0
  7  8  1  0
  8  9  1  0
  8 10  2  0
 10 11  1  0
 11 12  1  0
 12 13  2  0
 13 14  1  0
 14 32  1  0
 32 33  2  0
 33 34  1  0
 34 35  2  0
 35 39  1  0
 39 40  1  0
 40 41  1  0
 41 42  2  0
 42 43  1  0
 43 44  2  0
 44 45  1  0
 44 46  1  0
 46 47  2  0
 35 36  1  0
 36 37  2  0
 37 38  1  0
 13 15  1  0
 15 16  2  0
 15 17  2  0
 15 18  1  0
 18 19  1  0
 19 20  1  0
 19 21  1  0
 19 22  1  0
 30 31  2  0
 31 26  1  0
 14  3  1  0
 37 32  1  0
 10  4  1  0
 22 12  1  0
 47 41  1  0
  9 23  1  0
 11 24  1  0
M  END
> <minimizedAffinity>
-8.22898

> <CNNscore>
0.2585554123

> <CNNaffinity>
6.0044002533

> <CNN_VS>
1.5524702072

> <CNNaffinity_variance>
0.4397449791

$$$$



 47 52  0  0  0  0  0  0  0  0999 V2000
   31.1173    5.6127   37.9955 C   0  0  0  0  0  0  0  0  0  0  0  0
   32.0252    4.7787   37.8997 O   0  0  0  0  0  0  0  0  0  0  0  0
   29.8440    5.4217   37.3968 N   0  0  0  0  0  0  0  0  0  0  0  0
   29.0589    6.5153   36.8849 C   0  0  0  0  0  0  0  0  0  0  0  0
   29.7239    7.6989   36.4897 C   0  0  0  0  0  0  0  0  0  0  0  0
   29.0385    8.8456   36.0689 C   0  0  0  0  0  0  0  0  0  0  0  0
   27.6545    8.8459   36.0134 C   0  0  0  0  0  0  0  0  0  0  0  0
   26.9837    7.6752   36.3341 C   0  0  0  0  0  0  0  0  0  0  0  0
   25.6115    7.6213   36.2335 O   0  0  0  0  0  0  0  0  0  0  0  0
   27.6602    6.4943   36.7329 C   0  0  0  0  0  0  0  0  0  0  0  0
   26.8383    5.3473   36.9289 N   0  0  0  0  0  0  0  0  0  0  0  0
   27.1451    4.1676   36.2691 C   0  0  0  0  0  0  0  0  0  0  0  0
   28.3471    3.5782   36.4197 C   0  0  0  0  0  0  0  0  0  0  0  0
   29.4254    4.0085   37.3810 C   0  0  0  0  0  0  0  0  0  0  0  0
   28.7590    2.1538   35.5058 S   0  0  0  0  0  0  0  0  0  0  0  0
   28.8848    1.0267   36.4122 O   0  0  0  0  0  0  0  0  0  0  0  0
   29.8627    2.4785   34.6202 O   0  0  0  0  0  0  0  0  0  0  0  0
   27.3770    1.8070   34.4586 C   0  0  0  0  0  0  0  0  0  0  0  0
   26.0244    2.1403   35.0846 C   0  0  0  0  0  0  0  0  0  0  0  0
   25.7291    1.2943   36.3378 C   0  0  0  0  0  0  0  0  0  0  0  0
   24.9218    1.8394   34.0495 C   0  0  0  0  0  0  0  0  0  0  0  0
   26.0045    3.6425   35.4131 C   0  0  0  0  0  0  0  0  0  0  0  0
   25.1306    8.3821   35.9727 H   0  0  0  0  0  0  0  0  0  0  0  0
   26.0587    5.3922   37.5284 H   0  0  0  0  0  0  0  0  0  0  0  0
   30.2156    7.8724   42.2285 C   0  0  0  0  0  0  0  0  0  0  0  0
   30.9582    7.8509   40.9260 C   0  0  0  0  0  0  0  0  0  0  0  0
   31.9155    8.8201   40.6443 C   0  0  0  0  0  0  0  0  0  0  0  0
   32.6127    8.7479   39.4419 C   0  0  0  0  0  0  0  0  0  0  0  0
   32.3371    7.7124   38.5570 C   0  0  0  0  0  0  0  0  0  0  0  0
   31.3645    6.7819   38.9071 C   0  0  0  0  0  0  0  0  0  0  0  0
   30.6827    6.8339   40.0801 N   0  0  0  0  0  0  0  0  0  0  0  0
   29.2261    3.4321   38.7914 C   0  0  0  0  0  0  0  0  0  0  0  0
   28.2493    3.9963   39.6346 C   0  0  0  0  0  0  0  0  0  0  0  0
   28.0396    3.5190   40.9346 C   0  0  0  0  0  0  0  0  0  0  0  0
   28.8083    2.4670   41.4244 C   0  0  0  0  0  0  0  0  0  0  0  0
   29.7656    1.8862   40.5948 C   0  0  0  0  0  0  0  0  0  0  0  0
   29.9651    2.3597   39.2970 C   0  0  0  0  0  0  0  0  0  0  0  0
   30.8911    1.7411   38.5550 F   0  0  0  0  0  0  0  0  0  0  0  0
   28.7272    1.9216   42.6769 O   0  0  0  0  0  0  0  0  0  0  0  0
   28.4411    2.8109   43.7546 C   0  0  0  0  0  0  0  0  0  0  0  0
   27.4673    2.1210   44.6793 C   0  0  0  0  0  0  0  0  0  0  0  0
   26.0857    2.3141   44.5247 C   0  0  0  0  0  0  0  0  0  0  0  0
   25.1861    1.6980   45.3941 C   0  0  0  0  0  0  0  0  0  0  0  0
   25.6666    0.8941   46.4198 C   0  0  0  0  0  0  0  0  0  0  0  0
   24.8013    0.3072   47.2544 F   0  0  0  0  0  0  0  0  0  0  0  0
   27.0305    0.6974   46.5968 C   0  0  0  0  0  0  0  0  0  0  0  0
   27.9319    1.3127   45.7290 C   0  0  0  0  0  0  0  0  0  0  0  0
 25 26  1  0
 26 27  2  0
 27 28  1  0
 28 29  2  0
 29 30  1  0
 30  1  1  0
  1  2  2  0
  1  3  1  0
  3  4  1  0
  4  5  2  0
  5  6  1  0
  6  7  2  0
  7  8  1  0
  8  9  1  0
  8 10  2  0
 10 11  1  0
 11 12  1  0
 12 13  2  0
 13 14  1  0
 14 32  1  0
 32 33  2  0
 33 34  1  0
 34 35  2  0
 35 39  1  0
 39 40  1  0
 40 41  1  0
 41 42  2  0
 42 43  1  0
 43 44  2  0
 44 45  1  0
 44 46  1  0
 46 47  2  0
 35 36  1  0
 36 37  2  0
 37 38  1  0
 13 15  1  0
 15 16  2  0
 15 17  2  0
 15 18  1  0
 18 19  1  0
 19 20  1  0
 19 21  1  0
 19 22  1  0
 30 31  2  0
 31 26  1  0
 14  3  1  0
 37 32  1  0
 10  4  1  0
 22 12  1  0
 47 41  1  0
  9 23  1  0
 11 24  1  0
M  END
> <minimizedAffinity>
-8.96687

> <CNNscore>
0.2522144020

> <CNNaffinity>
6.3670601845

> <CNN_VS>
1.6058642864

> <CNNaffinity_variance>
0.2452386469

$$$$
