


 32 33  0  0  0  0  0  0  0  0999 V2000
   23.8004   27.1812    8.3367 C   0  0  0  0  0  0  0  0  0  0  0  0
   23.1765   27.2777    9.6075 O   0  0  0  0  0  0  0  0  0  0  0  0
   22.9659   27.9714    7.3531 C   0  0  0  0  0  0  0  0  0  0  0  0
   22.0529   27.4711    6.4963 C   0  0  0  0  0  0  0  0  0  0  0  0
   21.7501   26.0078    6.5360 C   0  0  0  0  0  0  0  0  0  0  0  0
   20.9068   25.5206    5.7814 O   0  0  0  0  0  0  0  0  0  0  0  0
   22.4204   25.1674    7.6176 C   0  0  0  0  0  0  0  0  0  0  0  0
   21.5991   25.2005    8.7794 O   0  0  0  0  0  0  0  0  0  0  0  0
   23.8153   25.6930    7.9317 C   0  0  0  0  0  0  0  0  0  0  0  0
   23.1539   28.2063    9.8869 H   0  0  0  0  0  0  0  0  0  0  0  0
   21.5048   26.1171    9.0826 H   0  0  0  0  0  0  0  0  0  0  0  0
   25.2676   27.7054    8.4187 C   0  0  0  0  0  0  0  0  0  0  0  0
   25.9432   28.0773    9.8056 C   0  0  0  0  0  0  0  0  0  0  0  0
   25.2123   27.3983   10.9780 C   0  0  0  0  0  0  0  0  0  0  0  0
   27.4138   27.6189    9.7894 C   0  0  0  0  0  0  0  0  0  0  0  0
   25.8337   29.6461    9.9280 C   0  0  0  0  0  0  0  0  0  0  0  0
   27.7941   30.0316    8.2539 C   0  0  0  0  0  0  0  0  0  0  0  0
   26.6487   30.6611    9.0537 C   0  0  0  0  0  0  0  0  0  0  0  0
   27.2863   31.6869   10.0241 C   0  0  0  0  0  0  0  0  0  0  0  0
   25.7372   31.4551    8.0938 C   0  0  0  0  0  0  0  0  0  0  0  0
   21.2379   28.3308    5.5627 C   0  0  0  0  0  0  0  0  0  0  0  0
   20.0342   28.9695    6.2525 C   0  0  0  0  0  0  0  0  0  0  0  0
   19.2710   29.8933    5.3180 C   0  0  0  0  0  0  0  0  0  0  0  0
   18.7205   30.9098    5.7202 O   0  0  0  0  0  0  0  0  0  0  0  0
   19.3282   29.4442    4.0055 N   0  0  0  0  0  0  0  0  0  0  0  0
   19.7711   28.5770    3.8606 H   0  0  0  0  0  0  0  0  0  0  0  0
   18.8251   30.0869    2.8573 C   0  0  0  0  0  0  0  0  0  0  0  0
   17.9135   29.5098    1.9701 C   0  0  0  0  0  0  0  0  0  0  0  0
   17.4380   30.2297    0.8711 C   0  0  0  0  0  0  0  0  0  0  0  0
   17.8680   31.5347    0.6468 C   0  0  0  0  0  0  0  0  0  0  0  0
   18.7853   32.1178    1.5210 C   0  0  0  0  0  0  0  0  0  0  0  0
   19.2639   31.3954    2.6161 C   0  0  0  0  0  0  0  0  0  0  0  0
 17 18  1  0
 18 19  1  0
 18 20  1  0
 18 16  1  0
 16 13  1  0
 13 14  1  0
 13 15  1  0
 13 12  1  0
 12  1  1  0
  1  2  1  0
  1  3  1  0
  3  4  2  0
  4 21  1  0
 21 22  1  0
 22 23  1  0
 23 24  2  0
 23 25  1  0
 25 27  1  0
 27 28  2  0
 28 29  1  0
 29 30  2  0
 30 31  1  0
 31 32  2  0
  4  5  1  0
  5  6  2  0
  5  7  1  0
  7  8  1  0
  7  9  1  0
  9  1  1  0
 32 27  1  0
  2 10  1  0
 25 26  1  0
  8 11  1  0
M  END
> <minimizedAffinity>
-4.82298

> <CNNscore>
0.3212989271

> <CNNaffinity>
4.8968200684

> <CNN_VS>
1.5733430386

> <CNNaffinity_variance>
0.0553237908

$$$$



 32 33  0  0  0  0  0  0  0  0999 V2000
   24.0407   27.4125    8.5171 C   0  0  0  0  0  0  0  0  0  0  0  0
   23.3407   27.5679    9.7415 O   0  0  0  0  0  0  0  0  0  0  0  0
   23.2031   28.0406    7.4252 C   0  0  0  0  0  0  0  0  0  0  0  0
   22.3820   27.3923    6.5746 C   0  0  0  0  0  0  0  0  0  0  0  0
   22.1937   25.9181    6.7343 C   0  0  0  0  0  0  0  0  0  0  0  0
   21.4352   25.2975    5.9875 O   0  0  0  0  0  0  0  0  0  0  0  0
   22.8663   25.2350    7.9203 C   0  0  0  0  0  0  0  0  0  0  0  0
   21.9810   25.3015    9.0325 O   0  0  0  0  0  0  0  0  0  0  0  0
   24.1955   25.9010    8.2523 C   0  0  0  0  0  0  0  0  0  0  0  0
   23.2293   28.5124    9.9326 H   0  0  0  0  0  0  0  0  0  0  0  0
   21.7978   26.2300    9.2449 H   0  0  0  0  0  0  0  0  0  0  0  0
   25.4551   28.0627    8.6219 C   0  0  0  0  0  0  0  0  0  0  0  0
   26.0492   28.5454   10.0119 C   0  0  0  0  0  0  0  0  0  0  0  0
   25.2967   27.9009   11.1902 C   0  0  0  0  0  0  0  0  0  0  0  0
   27.5381   28.1573   10.0863 C   0  0  0  0  0  0  0  0  0  0  0  0
   25.8638   30.1117   10.0359 C   0  0  0  0  0  0  0  0  0  0  0  0
   27.7113   30.4676    8.2320 C   0  0  0  0  0  0  0  0  0  0  0  0
   26.5969   31.1046    9.0686 C   0  0  0  0  0  0  0  0  0  0  0  0
   27.2600   32.1919    9.9509 C   0  0  0  0  0  0  0  0  0  0  0  0
   25.6084   31.8277    8.1291 C   0  0  0  0  0  0  0  0  0  0  0  0
   21.5554   28.0955    5.5270 C   0  0  0  0  0  0  0  0  0  0  0  0
   20.4065   28.9019    6.1288 C   0  0  0  0  0  0  0  0  0  0  0  0
   19.1286   28.0848    6.2196 C   0  0  0  0  0  0  0  0  0  0  0  0
   18.1903   28.2637    5.4542 O   0  0  0  0  0  0  0  0  0  0  0  0
   19.2078   27.1330    7.2273 N   0  0  0  0  0  0  0  0  0  0  0  0
   20.0178   27.1567    7.7864 H   0  0  0  0  0  0  0  0  0  0  0  0
   18.2621   26.1372    7.5417 C   0  0  0  0  0  0  0  0  0  0  0  0
   17.5435   26.0864    8.7383 C   0  0  0  0  0  0  0  0  0  0  0  0
   16.5978   25.0816    8.9575 C   0  0  0  0  0  0  0  0  0  0  0  0
   16.3594   24.1165    7.9828 C   0  0  0  0  0  0  0  0  0  0  0  0
   17.0778   24.1521    6.7877 C   0  0  0  0  0  0  0  0  0  0  0  0
   18.0266   25.1538    6.5720 C   0  0  0  0  0  0  0  0  0  0  0  0
 17 18  1  0
 18 19  1  0
 18 20  1  0
 18 16  1  0
 16 13  1  0
 13 14  1  0
 13 15  1  0
 13 12  1  0
 12  1  1  0
  1  2  1  0
  1  3  1  0
  3  4  2  0
  4 21  1  0
 21 22  1  0
 22 23  1  0
 23 24  2  0
 23 25  1  0
 25 27  1  0
 27 28  2  0
 28 29  1  0
 29 30  2  0
 30 31  1  0
 31 32  2  0
  4  5  1  0
  5  6  2  0
  5  7  1  0
  7  8  1  0
  7  9  1  0
  9  1  1  0
 32 27  1  0
  2 10  1  0
 25 26  1  0
  8 11  1  0
M  END
> <minimizedAffinity>
-4.31646

> <CNNscore>
0.3177924752

> <CNNaffinity>
4.8023591042

> <CNN_VS>
1.5261535645

> <CNNaffinity_variance>
0.0734136030

$$$$



 32 33  0  0  0  0  0  0  0  0999 V2000
   19.2505   27.4946    0.5758 C   0  0  0  0  0  0  0  0  0  0  0  0
   18.5732   28.2634   -0.4059 O   0  0  0  0  0  0  0  0  0  0  0  0
   20.7329   27.5833    0.2876 C   0  0  0  0  0  0  0  0  0  0  0  0
   21.4765   26.6673   -0.3649 C   0  0  0  0  0  0  0  0  0  0  0  0
   20.8007   25.4646   -0.9405 C   0  0  0  0  0  0  0  0  0  0  0  0
   21.4465   24.6181   -1.5603 O   0  0  0  0  0  0  0  0  0  0  0  0
   19.2808   25.3843   -0.8462 C   0  0  0  0  0  0  0  0  0  0  0  0
   18.7295   26.0346   -1.9858 O   0  0  0  0  0  0  0  0  0  0  0  0
   18.7780   26.0330    0.4370 C   0  0  0  0  0  0  0  0  0  0  0  0
   18.8528   29.1900   -0.3406 H   0  0  0  0  0  0  0  0  0  0  0  0
   19.0123   26.9624   -1.9969 H   0  0  0  0  0  0  0  0  0  0  0  0
   18.8959   28.0154    2.0031 C   0  0  0  0  0  0  0  0  0  0  0  0
   18.6670   27.0222    3.2194 C   0  0  0  0  0  0  0  0  0  0  0  0
   17.3676   26.2163    3.0399 C   0  0  0  0  0  0  0  0  0  0  0  0
   19.8593   26.0509    3.3090 C   0  0  0  0  0  0  0  0  0  0  0  0
   18.5724   27.9330    4.5037 C   0  0  0  0  0  0  0  0  0  0  0  0
   19.5672   29.3258    6.4696 C   0  0  0  0  0  0  0  0  0  0  0  0
   19.7284   28.8586    5.0193 C   0  0  0  0  0  0  0  0  0  0  0  0
   19.7230   30.1290    4.1325 C   0  0  0  0  0  0  0  0  0  0  0  0
   21.1132   28.1975    4.8511 C   0  0  0  0  0  0  0  0  0  0  0  0
   22.9496   26.8420   -0.6384 C   0  0  0  0  0  0  0  0  0  0  0  0
   23.2486   27.0780   -2.1174 C   0  0  0  0  0  0  0  0  0  0  0  0
   24.6761   27.5498   -2.3377 C   0  0  0  0  0  0  0  0  0  0  0  0
   25.6400   26.8569   -2.0393 O   0  0  0  0  0  0  0  0  0  0  0  0
   24.7079   28.8042   -2.9320 N   0  0  0  0  0  0  0  0  0  0  0  0
   23.8384   29.2479   -3.0598 H   0  0  0  0  0  0  0  0  0  0  0  0
   25.8414   29.5149   -3.3731 C   0  0  0  0  0  0  0  0  0  0  0  0
   25.9965   30.0224   -4.6652 C   0  0  0  0  0  0  0  0  0  0  0  0
   27.1399   30.7464   -5.0121 C   0  0  0  0  0  0  0  0  0  0  0  0
   28.1412   30.9717   -4.0713 C   0  0  0  0  0  0  0  0  0  0  0  0
   28.0012   30.4617   -2.7806 C   0  0  0  0  0  0  0  0  0  0  0  0
   26.8603   29.7336   -2.4366 C   0  0  0  0  0  0  0  0  0  0  0  0
 17 18  1  0
 18 19  1  0
 18 20  1  0
 18 16  1  0
 16 13  1  0
 13 14  1  0
 13 15  1  0
 13 12  1  0
 12  1  1  0
  1  2  1  0
  1  3  1  0
  3  4  2  0
  4 21  1  0
 21 22  1  0
 22 23  1  0
 23 24  2  0
 23 25  1  0
 25 27  1  0
 27 28  2  0
 28 29  1  0
 29 30  2  0
 30 31  1  0
 31 32  2  0
  4  5  1  0
  5  6  2  0
  5  7  1  0
  7  8  1  0
  7  9  1  0
  9  1  1  0
 32 27  1  0
  2 10  1  0
 25 26  1  0
  8 11  1  0
M  END
> <minimizedAffinity>
-5.90513

> <CNNscore>
0.2510233223

> <CNNaffinity>
5.1641445160

> <CNN_VS>
1.2963206768

> <CNNaffinity_variance>
0.3202718794

$$$$



 32 33  0  0  0  0  0  0  0  0999 V2000
   20.3803   26.0464    4.5811 C   0  0  0  0  0  0  0  0  0  0  0  0
   20.4887   24.8809    3.7790 O   0  0  0  0  0  0  0  0  0  0  0  0
   21.6029   26.1086    5.4699 C   0  0  0  0  0  0  0  0  0  0  0  0
   21.6758   25.7160    6.7576 C   0  0  0  0  0  0  0  0  0  0  0  0
   20.4773   25.0851    7.3899 C   0  0  0  0  0  0  0  0  0  0  0  0
   20.5155   24.6962    8.5584 O   0  0  0  0  0  0  0  0  0  0  0  0
   19.2580   24.8254    6.5115 C   0  0  0  0  0  0  0  0  0  0  0  0
   19.4086   23.5450    5.9090 O   0  0  0  0  0  0  0  0  0  0  0  0
   19.1118   25.9052    5.4470 C   0  0  0  0  0  0  0  0  0  0  0  0
   21.2808   24.9438    3.2226 H   0  0  0  0  0  0  0  0  0  0  0  0
   20.2144   23.5344    5.3691 H   0  0  0  0  0  0  0  0  0  0  0  0
   20.2456   27.3097    3.6756 C   0  0  0  0  0  0  0  0  0  0  0  0
   19.6059   27.2311    2.2255 C   0  0  0  0  0  0  0  0  0  0  0  0
   18.5312   26.1313    2.1526 C   0  0  0  0  0  0  0  0  0  0  0  0
   18.9667   28.5899    1.8817 C   0  0  0  0  0  0  0  0  0  0  0  0
   20.7985   26.8958    1.2491 C   0  0  0  0  0  0  0  0  0  0  0  0
   21.9628   26.8269   -1.0819 C   0  0  0  0  0  0  0  0  0  0  0  0
   20.6490   26.7157   -0.3014 C   0  0  0  0  0  0  0  0  0  0  0  0
   19.7273   27.8549   -0.8043 C   0  0  0  0  0  0  0  0  0  0  0  0
   19.9569   25.3838   -0.6618 C   0  0  0  0  0  0  0  0  0  0  0  0
   22.9439   25.7841    7.5715 C   0  0  0  0  0  0  0  0  0  0  0  0
   23.8207   26.9764    7.1944 C   0  0  0  0  0  0  0  0  0  0  0  0
   24.9284   27.2073    8.2086 C   0  0  0  0  0  0  0  0  0  0  0  0
   25.3574   26.3045    8.9151 O   0  0  0  0  0  0  0  0  0  0  0  0
   25.3750   28.5216    8.1790 N   0  0  0  0  0  0  0  0  0  0  0  0
   24.8853   29.1349    7.5846 H   0  0  0  0  0  0  0  0  0  0  0  0
   26.4484   29.0783    8.9018 C   0  0  0  0  0  0  0  0  0  0  0  0
   26.9923   28.5152   10.0585 C   0  0  0  0  0  0  0  0  0  0  0  0
   28.0806   29.1149   10.6973 C   0  0  0  0  0  0  0  0  0  0  0  0
   28.6378   30.2842   10.1866 C   0  0  0  0  0  0  0  0  0  0  0  0
   28.0970   30.8604    9.0372 C   0  0  0  0  0  0  0  0  0  0  0  0
   27.0058   30.2629    8.4028 C   0  0  0  0  0  0  0  0  0  0  0  0
 17 18  1  0
 18 19  1  0
 18 20  1  0
 18 16  1  0
 16 13  1  0
 13 14  1  0
 13 15  1  0
 13 12  1  0
 12  1  1  0
  1  2  1  0
  1  3  1  0
  3  4  2  0
  4 21  1  0
 21 22  1  0
 22 23  1  0
 23 24  2  0
 23 25  1  0
 25 27  1  0
 27 28  2  0
 28 29  1  0
 29 30  2  0
 30 31  1  0
 31 32  2  0
  4  5  1  0
  5  6  2  0
  5  7  1  0
  7  8  1  0
  7  9  1  0
  9  1  1  0
 32 27  1  0
  2 10  1  0
 25 26  1  0
  8 11  1  0
M  END
> <minimizedAffinity>
-6.62959

> <CNNscore>
0.2333626598

> <CNNaffinity>
4.8373761177

> <CNN_VS>
1.1288629770

> <CNNaffinity_variance>
0.3982820213

$$$$



 32 33  0  0  0  0  0  0  0  0999 V2000
   19.0489   27.5096   -0.0762 C   0  0  0  0  0  0  0  0  0  0  0  0
   20.0613   27.9457   -0.9697 O   0  0  0  0  0  0  0  0  0  0  0  0
   19.6628   27.4132    1.3031 C   0  0  0  0  0  0  0  0  0  0  0  0
   20.1131   26.2918    1.9010 C   0  0  0  0  0  0  0  0  0  0  0  0
   20.0901   25.0067    1.1380 C   0  0  0  0  0  0  0  0  0  0  0  0
   20.5128   23.9670    1.6465 O   0  0  0  0  0  0  0  0  0  0  0  0
   19.6487   25.0485   -0.3211 C   0  0  0  0  0  0  0  0  0  0  0  0
   20.7931   25.3134   -1.1245 O   0  0  0  0  0  0  0  0  0  0  0  0
   18.5822   26.1142   -0.5387 C   0  0  0  0  0  0  0  0  0  0  0  0
   20.3735   28.8238   -0.7008 H   0  0  0  0  0  0  0  0  0  0  0  0
   21.1765   26.1672   -0.8696 H   0  0  0  0  0  0  0  0  0  0  0  0
   17.8393   28.4942   -0.1148 C   0  0  0  0  0  0  0  0  0  0  0  0
   18.0463   30.0658   -0.1885 C   0  0  0  0  0  0  0  0  0  0  0  0
   17.0938   30.7961    0.7755 C   0  0  0  0  0  0  0  0  0  0  0  0
   19.5027   30.4010    0.1847 C   0  0  0  0  0  0  0  0  0  0  0  0
   17.7298   30.4697   -1.6801 C   0  0  0  0  0  0  0  0  0  0  0  0
   18.5979   32.8841   -2.1402 C   0  0  0  0  0  0  0  0  0  0  0  0
   17.4001   31.9286   -2.1510 C   0  0  0  0  0  0  0  0  0  0  0  0
   16.3568   32.5013   -1.1590 C   0  0  0  0  0  0  0  0  0  0  0  0
   16.7492   31.9481   -3.5506 C   0  0  0  0  0  0  0  0  0  0  0  0
   20.7404   26.2819    3.2727 C   0  0  0  0  0  0  0  0  0  0  0  0
   19.8069   25.7173    4.3416 C   0  0  0  0  0  0  0  0  0  0  0  0
   20.5212   25.5168    5.6677 C   0  0  0  0  0  0  0  0  0  0  0  0
   20.0896   24.7596    6.5272 O   0  0  0  0  0  0  0  0  0  0  0  0
   21.6932   26.2586    5.7278 N   0  0  0  0  0  0  0  0  0  0  0  0
   21.8688   26.8584    4.9671 H   0  0  0  0  0  0  0  0  0  0  0  0
   22.6602   26.2516    6.7523 C   0  0  0  0  0  0  0  0  0  0  0  0
   23.6045   27.2620    6.9479 C   0  0  0  0  0  0  0  0  0  0  0  0
   24.5087   27.1940    8.0109 C   0  0  0  0  0  0  0  0  0  0  0  0
   24.4788   26.1154    8.8906 C   0  0  0  0  0  0  0  0  0  0  0  0
   23.5461   25.0960    8.6995 C   0  0  0  0  0  0  0  0  0  0  0  0
   22.6464   25.1625    7.6336 C   0  0  0  0  0  0  0  0  0  0  0  0
 17 18  1  0
 18 19  1  0
 18 20  1  0
 18 16  1  0
 16 13  1  0
 13 14  1  0
 13 15  1  0
 13 12  1  0
 12  1  1  0
  1  2  1  0
  1  3  1  0
  3  4  2  0
  4 21  1  0
 21 22  1  0
 22 23  1  0
 23 24  2  0
 23 25  1  0
 25 27  1  0
 27 28  2  0
 28 29  1  0
 29 30  2  0
 30 31  1  0
 31 32  2  0
  4  5  1  0
  5  6  2  0
  5  7  1  0
  7  8  1  0
  7  9  1  0
  9  1  1  0
 32 27  1  0
  2 10  1  0
 25 26  1  0
  8 11  1  0
M  END
> <minimizedAffinity>
-5.61965

> <CNNscore>
0.2081110030

> <CNNaffinity>
4.9668307304

> <CNN_VS>
1.0336520672

> <CNNaffinity_variance>
0.0152736679

$$$$



 32 33  0  0  0  0  0  0  0  0999 V2000
   23.6713   26.4704    8.7692 C   0  0  0  0  0  0  0  0  0  0  0  0
   23.0770   26.5757   10.0535 O   0  0  0  0  0  0  0  0  0  0  0  0
   22.9568   27.4372    7.8509 C   0  0  0  0  0  0  0  0  0  0  0  0
   21.9740   27.1336    6.9792 C   0  0  0  0  0  0  0  0  0  0  0  0
   21.4576   25.7317    6.9316 C   0  0  0  0  0  0  0  0  0  0  0  0
   20.5463   25.4242    6.1615 O   0  0  0  0  0  0  0  0  0  0  0  0
   22.0028   24.7334    7.9472 C   0  0  0  0  0  0  0  0  0  0  0  0
   21.2033   24.8123    9.1219 O   0  0  0  0  0  0  0  0  0  0  0  0
   23.4623   25.0257    8.2712 C   0  0  0  0  0  0  0  0  0  0  0  0
   23.1944   27.4775   10.3911 H   0  0  0  0  0  0  0  0  0  0  0  0
   21.2481   25.7112    9.4837 H   0  0  0  0  0  0  0  0  0  0  0  0
   25.2005   26.7657    8.8604 C   0  0  0  0  0  0  0  0  0  0  0  0
   25.7633   27.9990    9.6853 C   0  0  0  0  0  0  0  0  0  0  0  0
   25.0223   28.1536   11.0258 C   0  0  0  0  0  0  0  0  0  0  0  0
   27.2642   27.7823    9.9560 C   0  0  0  0  0  0  0  0  0  0  0  0
   25.5221   29.2666    8.7780 C   0  0  0  0  0  0  0  0  0  0  0  0
   25.6615   31.8067    8.2099 C   0  0  0  0  0  0  0  0  0  0  0  0
   26.3202   30.6104    8.9049 C   0  0  0  0  0  0  0  0  0  0  0  0
   27.6925   30.3902    8.2203 C   0  0  0  0  0  0  0  0  0  0  0  0
   26.6045   30.9739   10.3779 C   0  0  0  0  0  0  0  0  0  0  0  0
   21.2895   28.1629    6.1147 C   0  0  0  0  0  0  0  0  0  0  0  0
   19.9491   28.6155    6.6901 C   0  0  0  0  0  0  0  0  0  0  0  0
   20.0830   29.0969    8.1251 C   0  0  0  0  0  0  0  0  0  0  0  0
   19.6059   28.4734    9.0641 O   0  0  0  0  0  0  0  0  0  0  0  0
   20.8231   30.2694    8.1979 N   0  0  0  0  0  0  0  0  0  0  0  0
   21.0914   30.6693    7.3392 H   0  0  0  0  0  0  0  0  0  0  0  0
   21.2342   30.9525    9.3593 C   0  0  0  0  0  0  0  0  0  0  0  0
   22.4045   30.6661   10.0661 C   0  0  0  0  0  0  0  0  0  0  0  0
   22.7566   31.4153   11.1916 C   0  0  0  0  0  0  0  0  0  0  0  0
   21.9431   32.4595   11.6232 C   0  0  0  0  0  0  0  0  0  0  0  0
   20.7674   32.7484   10.9305 C   0  0  0  0  0  0  0  0  0  0  0  0
   20.4138   31.9954    9.8088 C   0  0  0  0  0  0  0  0  0  0  0  0
 17 18  1  0
 18 19  1  0
 18 20  1  0
 18 16  1  0
 16 13  1  0
 13 14  1  0
 13 15  1  0
 13 12  1  0
 12  1  1  0
  1  2  1  0
  1  3  1  0
  3  4  2  0
  4 21  1  0
 21 22  1  0
 22 23  1  0
 23 24  2  0
 23 25  1  0
 25 27  1  0
 27 28  2  0
 28 29  1  0
 29 30  2  0
 30 31  1  0
 31 32  2  0
  4  5  1  0
  5  6  2  0
  5  7  1  0
  7  8  1  0
  7  9  1  0
  9  1  1  0
 32 27  1  0
  2 10  1  0
 25 26  1  0
  8 11  1  0
M  END
> <minimizedAffinity>
-4.39610

> <CNNscore>
0.2079003155

> <CNNaffinity>
4.6167063713

> <CNN_VS>
0.9598147273

> <CNNaffinity_variance>
0.2178758830

$$$$



 32 33  0  0  0  0  0  0  0  0999 V2000
   19.1118   28.2919    0.3185 C   0  0  0  0  0  0  0  0  0  0  0  0
   20.2484   29.0321   -0.0984 O   0  0  0  0  0  0  0  0  0  0  0  0
   19.4446   27.6463    1.6455 C   0  0  0  0  0  0  0  0  0  0  0  0
   19.8448   26.3732    1.8370 C   0  0  0  0  0  0  0  0  0  0  0  0
   20.0643   25.4975    0.6456 C   0  0  0  0  0  0  0  0  0  0  0  0
   20.4495   24.3353    0.7832 O   0  0  0  0  0  0  0  0  0  0  0  0
   19.9199   26.1223   -0.7380 C   0  0  0  0  0  0  0  0  0  0  0  0
   21.1796   26.6676   -1.1134 O   0  0  0  0  0  0  0  0  0  0  0  0
   18.8457   27.2024   -0.7402 C   0  0  0  0  0  0  0  0  0  0  0  0
   20.4385   29.7264    0.5518 H   0  0  0  0  0  0  0  0  0  0  0  0
   21.4437   27.3440   -0.4702 H   0  0  0  0  0  0  0  0  0  0  0  0
   17.8679   29.2287    0.4148 C   0  0  0  0  0  0  0  0  0  0  0  0
   17.8148   30.6236   -0.3398 C   0  0  0  0  0  0  0  0  0  0  0  0
   17.7829   30.4271   -1.8663 C   0  0  0  0  0  0  0  0  0  0  0  0
   16.5521   31.3880    0.1008 C   0  0  0  0  0  0  0  0  0  0  0  0
   19.1260   31.3905    0.0854 C   0  0  0  0  0  0  0  0  0  0  0  0
   20.6164   32.9600    1.5378 C   0  0  0  0  0  0  0  0  0  0  0  0
   19.2549   32.2767    1.3726 C   0  0  0  0  0  0  0  0  0  0  0  0
   19.0703   31.3377    2.5911 C   0  0  0  0  0  0  0  0  0  0  0  0
   18.1406   33.3419    1.4516 C   0  0  0  0  0  0  0  0  0  0  0  0
   20.1861   25.8097    3.1939 C   0  0  0  0  0  0  0  0  0  0  0  0
   21.3145   26.5757    3.8813 C   0  0  0  0  0  0  0  0  0  0  0  0
   21.4520   26.1883    5.3441 C   0  0  0  0  0  0  0  0  0  0  0  0
   20.5549   25.6161    5.9492 O   0  0  0  0  0  0  0  0  0  0  0  0
   22.7006   26.5340    5.8433 N   0  0  0  0  0  0  0  0  0  0  0  0
   23.2890   27.0371    5.2351 H   0  0  0  0  0  0  0  0  0  0  0  0
   23.2222   26.2475    7.1202 C   0  0  0  0  0  0  0  0  0  0  0  0
   22.9032   25.1073    7.8612 C   0  0  0  0  0  0  0  0  0  0  0  0
   23.4919   24.8820    9.1081 C   0  0  0  0  0  0  0  0  0  0  0  0
   24.4066   25.7937    9.6282 C   0  0  0  0  0  0  0  0  0  0  0  0
   24.7256   26.9405    8.9011 C   0  0  0  0  0  0  0  0  0  0  0  0
   24.1325   27.1672    7.6573 C   0  0  0  0  0  0  0  0  0  0  0  0
 17 18  1  0
 18 19  1  0
 18 20  1  0
 18 16  1  0
 16 13  1  0
 13 14  1  0
 13 15  1  0
 13 12  1  0
 12  1  1  0
  1  2  1  0
  1  3  1  0
  3  4  2  0
  4 21  1  0
 21 22  1  0
 22 23  1  0
 23 24  2  0
 23 25  1  0
 25 27  1  0
 27 28  2  0
 28 29  1  0
 29 30  2  0
 30 31  1  0
 31 32  2  0
  4  5  1  0
  5  6  2  0
  5  7  1  0
  7  8  1  0
  7  9  1  0
  9  1  1  0
 32 27  1  0
  2 10  1  0
 25 26  1  0
  8 11  1  0
M  END
> <minimizedAffinity>
-5.67558

> <CNNscore>
0.2052734047

> <CNNaffinity>
4.6443018913

> <CNN_VS>
0.9533516765

> <CNNaffinity_variance>
0.0396237187

$$$$



 32 33  0  0  0  0  0  0  0  0999 V2000
   20.3354   26.0652    4.7863 C   0  0  0  0  0  0  0  0  0  0  0  0
   20.3577   24.9297    3.9356 O   0  0  0  0  0  0  0  0  0  0  0  0
   21.6162   26.0623    5.5913 C   0  0  0  0  0  0  0  0  0  0  0  0
   21.7648   25.6179    6.8555 C   0  0  0  0  0  0  0  0  0  0  0  0
   20.5947   24.9926    7.5441 C   0  0  0  0  0  0  0  0  0  0  0  0
   20.7007   24.5573    8.6918 O   0  0  0  0  0  0  0  0  0  0  0  0
   19.3125   24.7977    6.7418 C   0  0  0  0  0  0  0  0  0  0  0  0
   19.3872   23.5385    6.0830 O   0  0  0  0  0  0  0  0  0  0  0  0
   19.1246   25.9216    5.7309 C   0  0  0  0  0  0  0  0  0  0  0  0
   21.1120   24.9947    3.3293 H   0  0  0  0  0  0  0  0  0  0  0  0
   20.1543   23.5291    5.4893 H   0  0  0  0  0  0  0  0  0  0  0  0
   20.1747   27.3659    3.9400 C   0  0  0  0  0  0  0  0  0  0  0  0
   19.4399   27.3594    2.5335 C   0  0  0  0  0  0  0  0  0  0  0  0
   20.3670   26.8261    1.4262 C   0  0  0  0  0  0  0  0  0  0  0  0
   18.1880   26.4661    2.6223 C   0  0  0  0  0  0  0  0  0  0  0  0
   19.0526   28.8612    2.2460 C   0  0  0  0  0  0  0  0  0  0  0  0
   19.4828   29.8640    4.6131 C   0  0  0  0  0  0  0  0  0  0  0  0
   18.6197   29.8900    3.3474 C   0  0  0  0  0  0  0  0  0  0  0  0
   17.1783   29.5169    3.7761 C   0  0  0  0  0  0  0  0  0  0  0  0
   18.5677   31.3320    2.7992 C   0  0  0  0  0  0  0  0  0  0  0  0
   23.0861   25.6228    7.5830 C   0  0  0  0  0  0  0  0  0  0  0  0
   23.9375   26.8452    7.2464 C   0  0  0  0  0  0  0  0  0  0  0  0
   24.9515   27.1462    8.3375 C   0  0  0  0  0  0  0  0  0  0  0  0
   25.3494   26.2818    9.1073 O   0  0  0  0  0  0  0  0  0  0  0  0
   25.3578   28.4732    8.2978 N   0  0  0  0  0  0  0  0  0  0  0  0
   24.8992   29.0500    7.6450 H   0  0  0  0  0  0  0  0  0  0  0  0
   26.3511   29.0890    9.0844 C   0  0  0  0  0  0  0  0  0  0  0  0
   26.2151   29.3644   10.4470 C   0  0  0  0  0  0  0  0  0  0  0  0
   27.2636   29.9485   11.1624 C   0  0  0  0  0  0  0  0  0  0  0  0
   28.4600   30.2634   10.5238 C   0  0  0  0  0  0  0  0  0  0  0  0
   28.6036   30.0013    9.1614 C   0  0  0  0  0  0  0  0  0  0  0  0
   27.5530   29.4224    8.4463 C   0  0  0  0  0  0  0  0  0  0  0  0
 17 18  1  0
 18 19  1  0
 18 20  1  0
 18 16  1  0
 16 13  1  0
 13 14  1  0
 13 15  1  0
 13 12  1  0
 12  1  1  0
  1  2  1  0
  1  3  1  0
  3  4  2  0
  4 21  1  0
 21 22  1  0
 22 23  1  0
 23 24  2  0
 23 25  1  0
 25 27  1  0
 27 28  2  0
 28 29  1  0
 29 30  2  0
 30 31  1  0
 31 32  2  0
  4  5  1  0
  5  6  2  0
  5  7  1  0
  7  8  1  0
  7  9  1  0
  9  1  1  0
 32 27  1  0
  2 10  1  0
 25 26  1  0
  8 11  1  0
M  END
> <minimizedAffinity>
-5.95027

> <CNNscore>
0.1938423514

> <CNNaffinity>
4.7370448112

> <CNN_VS>
0.9182398915

> <CNNaffinity_variance>
0.1725341231

$$$$



 32 33  0  0  0  0  0  0  0  0999 V2000
   23.4295   26.5649    8.8509 C   0  0  0  0  0  0  0  0  0  0  0  0
   22.8236   27.6369    9.5560 O   0  0  0  0  0  0  0  0  0  0  0  0
   23.0548   26.7037    7.3918 C   0  0  0  0  0  0  0  0  0  0  0  0
   22.0713   26.0391    6.7524 C   0  0  0  0  0  0  0  0  0  0  0  0
   21.1928   25.1184    7.5365 C   0  0  0  0  0  0  0  0  0  0  0  0
   20.2717   24.5109    6.9881 O   0  0  0  0  0  0  0  0  0  0  0  0
   21.3915   25.0534    9.0471 C   0  0  0  0  0  0  0  0  0  0  0  0
   20.5867   26.0632    9.6453 O   0  0  0  0  0  0  0  0  0  0  0  0
   22.8571   25.2481    9.4141 C   0  0  0  0  0  0  0  0  0  0  0  0
   23.1671   28.4797    9.2204 H   0  0  0  0  0  0  0  0  0  0  0  0
   20.8585   26.9328    9.3123 H   0  0  0  0  0  0  0  0  0  0  0  0
   24.9746   26.5866    9.0667 C   0  0  0  0  0  0  0  0  0  0  0  0
   25.7004   27.8095    9.7710 C   0  0  0  0  0  0  0  0  0  0  0  0
   25.0191   28.1648   11.1050 C   0  0  0  0  0  0  0  0  0  0  0  0
   27.1721   27.4388   10.0347 C   0  0  0  0  0  0  0  0  0  0  0  0
   25.5857   29.0151    8.7603 C   0  0  0  0  0  0  0  0  0  0  0  0
   25.7960   31.5416    8.1547 C   0  0  0  0  0  0  0  0  0  0  0  0
   26.4262   30.3352    8.8584 C   0  0  0  0  0  0  0  0  0  0  0  0
   27.7824   30.0631    8.1605 C   0  0  0  0  0  0  0  0  0  0  0  0
   26.7401   30.7099   10.3226 C   0  0  0  0  0  0  0  0  0  0  0  0
   21.7398   26.2543    5.2967 C   0  0  0  0  0  0  0  0  0  0  0  0
   20.9468   27.5376    5.0583 C   0  0  0  0  0  0  0  0  0  0  0  0
   20.2088   27.5080    3.7303 C   0  0  0  0  0  0  0  0  0  0  0  0
   19.2251   28.2057    3.5210 O   0  0  0  0  0  0  0  0  0  0  0  0
   20.8175   26.6409    2.8329 N   0  0  0  0  0  0  0  0  0  0  0  0
   21.5742   26.1154    3.1799 H   0  0  0  0  0  0  0  0  0  0  0  0
   20.4766   26.4268    1.4829 C   0  0  0  0  0  0  0  0  0  0  0  0
   20.9123   27.2296    0.4261 C   0  0  0  0  0  0  0  0  0  0  0  0
   20.5548   26.9275   -0.8904 C   0  0  0  0  0  0  0  0  0  0  0  0
   19.7580   25.8193   -1.1653 C   0  0  0  0  0  0  0  0  0  0  0  0
   19.3096   25.0160   -0.1169 C   0  0  0  0  0  0  0  0  0  0  0  0
   19.6632   25.3220    1.1989 C   0  0  0  0  0  0  0  0  0  0  0  0
 17 18  1  0
 18 19  1  0
 18 20  1  0
 18 16  1  0
 16 13  1  0
 13 14  1  0
 13 15  1  0
 13 12  1  0
 12  1  1  0
  1  2  1  0
  1  3  1  0
  3  4  2  0
  4 21  1  0
 21 22  1  0
 22 23  1  0
 23 24  2  0
 23 25  1  0
 25 27  1  0
 27 28  2  0
 28 29  1  0
 29 30  2  0
 30 31  1  0
 31 32  2  0
  4  5  1  0
  5  6  2  0
  5  7  1  0
  7  8  1  0
  7  9  1  0
  9  1  1  0
 32 27  1  0
  2 10  1  0
 25 26  1  0
  8 11  1  0
M  END
> <minimizedAffinity>
-5.85298

> <CNNscore>
0.1922544390

> <CNNaffinity>
4.6081576347

> <CNN_VS>
0.8859387636

> <CNNaffinity_variance>
0.2834327519

$$$$
