


 23 26  0  0  0  0  0  0  0  0999 V2000
   27.2497   17.2973   -4.0153 C   0  0  0  0  0  0  0  0  0  0  0  0
   28.5594   16.6041   -4.0248 C   0  0  0  0  0  0  0  0  0  0  0  0
   29.3020   16.4422   -5.1012 N   0  0  0  0  0  0  0  0  0  0  0  0
   30.4961   15.8969   -4.7223 N   0  0  0  0  0  0  0  0  0  0  0  0
   30.4681   15.7285   -3.4181 C   0  0  0  0  0  0  0  0  0  0  0  0
   29.2451   16.1233   -2.9198 N   0  0  0  0  0  0  0  0  0  0  0  0
   28.8161   15.9607   -1.5771 C   0  0  0  0  0  0  0  0  0  0  0  0
   27.4722   15.6400   -1.3202 C   0  0  0  0  0  0  0  0  0  0  0  0
   27.0422   15.3806   -0.0162 C   0  0  0  0  0  0  0  0  0  0  0  0
   27.9503   15.4250    1.0354 C   0  0  0  0  0  0  0  0  0  0  0  0
   27.4220   15.0867    2.6359 Cl  0  0  0  0  0  0  0  0  0  0  0  0
   29.2846   15.7441    0.7998 C   0  0  0  0  0  0  0  0  0  0  0  0
   29.7262   16.0355   -0.5033 C   0  0  0  0  0  0  0  0  0  0  0  0
   31.1483   16.4871   -0.6538 C   0  0  0  0  0  0  0  0  0  0  0  0
   31.9640   16.0687   -1.5603 N   0  0  0  0  0  0  0  0  0  0  0  0
   31.5174   15.1194   -2.5707 C   0  0  0  0  0  0  0  0  0  0  0  0
   31.6816   17.5055    0.3102 C   0  0  0  0  0  0  0  0  0  0  0  0
   30.8203   18.2774    1.1039 C   0  0  0  0  0  0  0  0  0  0  0  0
   31.3484   19.2229    1.9860 C   0  0  0  0  0  0  0  0  0  0  0  0
   32.7260   19.4004    2.0618 C   0  0  0  0  0  0  0  0  0  0  0  0
   33.2268   20.3087    2.9089 F   0  0  0  0  0  0  0  0  0  0  0  0
   33.5897   18.6552    1.2675 C   0  0  0  0  0  0  0  0  0  0  0  0
   33.0674   17.7086    0.3845 C   0  0  0  0  0  0  0  0  0  0  0  0
  1  2  1  0
  2  3  2  0
  3  4  1  0
  4  5  2  0
  5  6  1  0
  6  7  1  0
  7  8  2  0
  8  9  1  0
  9 10  2  0
 10 11  1  0
 10 12  1  0
 12 13  2  0
 13 14  1  0
 14 17  1  0
 17 18  2  0
 18 19  1  0
 19 20  2  0
 20 21  1  0
 20 22  1  0
 22 23  2  0
 14 15  2  0
 15 16  1  0
  6  2  1  0
 13  7  1  0
 23 17  1  0
 16  5  1  0
M  END
> <minimizedAffinity>
-9.91162

> <CNNscore>
0.8244872093

> <CNNaffinity>
6.3853945732

> <CNN_VS>
5.2646760941

> <CNNaffinity_variance>
0.1125571728

$$$$



 23 26  0  0  0  0  0  0  0  0999 V2000
   33.2450   18.4740    0.2265 C   0  0  0  0  0  0  0  0  0  0  0  0
   31.9378   17.9001    0.6235 C   0  0  0  0  0  0  0  0  0  0  0  0
   31.2257   18.3230    1.6484 N   0  0  0  0  0  0  0  0  0  0  0  0
   30.0229   17.6752    1.6334 N   0  0  0  0  0  0  0  0  0  0  0  0
   30.0150   16.8606    0.6008 C   0  0  0  0  0  0  0  0  0  0  0  0
   31.2229   16.9285   -0.0600 N   0  0  0  0  0  0  0  0  0  0  0  0
   31.6149   16.0942   -1.1388 C   0  0  0  0  0  0  0  0  0  0  0  0
   32.9518   15.6707   -1.2280 C   0  0  0  0  0  0  0  0  0  0  0  0
   33.3461   14.7732   -2.2238 C   0  0  0  0  0  0  0  0  0  0  0  0
   32.4091   14.2824   -3.1258 C   0  0  0  0  0  0  0  0  0  0  0  0
   32.8937   13.1638   -4.3378 Cl  0  0  0  0  0  0  0  0  0  0  0  0
   31.0811   14.6934   -3.0543 C   0  0  0  0  0  0  0  0  0  0  0  0
   30.6751   15.6180   -2.0753 C   0  0  0  0  0  0  0  0  0  0  0  0
   29.2567   16.1002   -2.1427 C   0  0  0  0  0  0  0  0  0  0  0  0
   28.4674   16.2167   -1.1299 N   0  0  0  0  0  0  0  0  0  0  0  0
   28.9442   15.9156    0.2131 C   0  0  0  0  0  0  0  0  0  0  0  0
   28.6944   16.4854   -3.4792 C   0  0  0  0  0  0  0  0  0  0  0  0
   29.4423   16.3295   -4.6557 C   0  0  0  0  0  0  0  0  0  0  0  0
   28.8927   16.7053   -5.8836 C   0  0  0  0  0  0  0  0  0  0  0  0
   27.6107   17.2433   -5.9288 C   0  0  0  0  0  0  0  0  0  0  0  0
   27.0890   17.6023   -7.1088 F   0  0  0  0  0  0  0  0  0  0  0  0
   26.8662   17.4204   -4.7685 C   0  0  0  0  0  0  0  0  0  0  0  0
   27.4102   17.0462   -3.5386 C   0  0  0  0  0  0  0  0  0  0  0  0
  1  2  1  0
  2  3  2  0
  3  4  1  0
  4  5  2  0
  5  6  1  0
  6  7  1  0
  7  8  2  0
  8  9  1  0
  9 10  2  0
 10 11  1  0
 10 12  1  0
 12 13  2  0
 13 14  1  0
 14 17  1  0
 17 18  2  0
 18 19  1  0
 19 20  2  0
 20 21  1  0
 20 22  1  0
 22 23  2  0
 14 15  2  0
 15 16  1  0
  6  2  1  0
 13  7  1  0
 23 17  1  0
 16  5  1  0
M  END
> <minimizedAffinity>
-7.86662

> <CNNscore>
0.6440694928

> <CNNaffinity>
5.8332481384

> <CNN_VS>
3.7570171356

> <CNNaffinity_variance>
0.0885407701

$$$$



 23 26  0  0  0  0  0  0  0  0999 V2000
   28.9354   16.9539   -5.4302 C   0  0  0  0  0  0  0  0  0  0  0  0
   30.1439   16.2243   -4.9798 C   0  0  0  0  0  0  0  0  0  0  0  0
   31.1834   15.9703   -5.7489 N   0  0  0  0  0  0  0  0  0  0  0  0
   32.1654   15.4173   -4.9765 N   0  0  0  0  0  0  0  0  0  0  0  0
   31.7132   15.3362   -3.7441 C   0  0  0  0  0  0  0  0  0  0  0  0
   30.4156   15.7980   -3.6887 N   0  0  0  0  0  0  0  0  0  0  0  0
   29.5718   15.7368   -2.5495 C   0  0  0  0  0  0  0  0  0  0  0  0
   28.2026   15.4725   -2.7231 C   0  0  0  0  0  0  0  0  0  0  0  0
   27.3657   15.3121   -1.6157 C   0  0  0  0  0  0  0  0  0  0  0  0
   27.8903   15.3998   -0.3314 C   0  0  0  0  0  0  0  0  0  0  0  0
   26.8615   15.1832    1.0288 Cl  0  0  0  0  0  0  0  0  0  0  0  0
   29.2435   15.6642   -0.1406 C   0  0  0  0  0  0  0  0  0  0  0  0
   30.0928   15.8561   -1.2451 C   0  0  0  0  0  0  0  0  0  0  0  0
   31.5082   16.2558   -0.9527 C   0  0  0  0  0  0  0  0  0  0  0  0
   32.5500   15.7553   -1.5240 N   0  0  0  0  0  0  0  0  0  0  0  0
   32.4050   14.7545   -2.5723 C   0  0  0  0  0  0  0  0  0  0  0  0
   31.7535   17.3199    0.0761 C   0  0  0  0  0  0  0  0  0  0  0  0
   33.0553   17.6771    0.4575 C   0  0  0  0  0  0  0  0  0  0  0  0
   33.2495   18.6665    1.4242 C   0  0  0  0  0  0  0  0  0  0  0  0
   32.1486   19.2823    2.0107 C   0  0  0  0  0  0  0  0  0  0  0  0
   32.3408   20.2298    2.9372 F   0  0  0  0  0  0  0  0  0  0  0  0
   30.8534   18.9246    1.6553 C   0  0  0  0  0  0  0  0  0  0  0  0
   30.6533   17.9367    0.6894 C   0  0  0  0  0  0  0  0  0  0  0  0
  1  2  1  0
  2  3  2  0
  3  4  1  0
  4  5  2  0
  5  6  1  0
  6  7  1  0
  7  8  2  0
  8  9  1  0
  9 10  2  0
 10 11  1  0
 10 12  1  0
 12 13  2  0
 13 14  1  0
 14 17  1  0
 17 18  2  0
 18 19  1  0
 19 20  2  0
 20 21  1  0
 20 22  1  0
 22 23  2  0
 14 15  2  0
 15 16  1  0
  6  2  1  0
 13  7  1  0
 23 17  1  0
 16  5  1  0
M  END
> <minimizedAffinity>
-9.55149

> <CNNscore>
0.6403627396

> <CNNaffinity>
6.2093644142

> <CNN_VS>
3.9762456417

> <CNNaffinity_variance>
0.2554025948

$$$$



 23 26  0  0  0  0  0  0  0  0999 V2000
   32.3880   14.9548    0.1802 C   0  0  0  0  0  0  0  0  0  0  0  0
   32.0585   15.4101   -1.1909 C   0  0  0  0  0  0  0  0  0  0  0  0
   32.9569   15.7565   -2.0905 N   0  0  0  0  0  0  0  0  0  0  0  0
   32.3155   15.9784   -3.2762 N   0  0  0  0  0  0  0  0  0  0  0  0
   31.0310   15.7685   -3.0867 C   0  0  0  0  0  0  0  0  0  0  0  0
   30.7981   15.4420   -1.7679 N   0  0  0  0  0  0  0  0  0  0  0  0
   29.5181   15.2776   -1.1780 C   0  0  0  0  0  0  0  0  0  0  0  0
   29.3090   15.7154    0.1409 C   0  0  0  0  0  0  0  0  0  0  0  0
   28.0365   15.6538    0.7148 C   0  0  0  0  0  0  0  0  0  0  0  0
   26.9642   15.1699   -0.0258 C   0  0  0  0  0  0  0  0  0  0  0  0
   25.3963   15.1132    0.6768 Cl  0  0  0  0  0  0  0  0  0  0  0  0
   27.1535   14.7290   -1.3325 C   0  0  0  0  0  0  0  0  0  0  0  0
   28.4338   14.7583   -1.9140 C   0  0  0  0  0  0  0  0  0  0  0  0
   28.5740   14.1541   -3.2793 C   0  0  0  0  0  0  0  0  0  0  0  0
   29.2266   14.6829   -4.2574 N   0  0  0  0  0  0  0  0  0  0  0  0
   29.9402   15.9391   -4.0722 C   0  0  0  0  0  0  0  0  0  0  0  0
   27.9169   12.8325   -3.5480 C   0  0  0  0  0  0  0  0  0  0  0  0
   28.6751   11.6668   -3.7324 C   0  0  0  0  0  0  0  0  0  0  0  0
   28.0330   10.4531   -3.9889 C   0  0  0  0  0  0  0  0  0  0  0  0
   26.6450   10.4122   -4.0716 C   0  0  0  0  0  0  0  0  0  0  0  0
   26.0347    9.2460   -4.3182 F   0  0  0  0  0  0  0  0  0  0  0  0
   25.8828   11.5631   -3.9093 C   0  0  0  0  0  0  0  0  0  0  0  0
   26.5193   12.7788   -3.6524 C   0  0  0  0  0  0  0  0  0  0  0  0
  1  2  1  0
  2  3  2  0
  3  4  1  0
  4  5  2  0
  5  6  1  0
  6  7  1  0
  7  8  2  0
  8  9  1  0
  9 10  2  0
 10 11  1  0
 10 12  1  0
 12 13  2  0
 13 14  1  0
 14 17  1  0
 17 18  2  0
 18 19  1  0
 19 20  2  0
 20 21  1  0
 20 22  1  0
 22 23  2  0
 14 15  2  0
 15 16  1  0
  6  2  1  0
 13  7  1  0
 23 17  1  0
 16  5  1  0
M  END
> <minimizedAffinity>
-6.36069

> <CNNscore>
0.5347714424

> <CNNaffinity>
5.1775345802

> <CNN_VS>
2.7687976360

> <CNNaffinity_variance>
0.4435563982

$$$$



 23 26  0  0  0  0  0  0  0  0999 V2000
   29.5688   16.4758    0.0700 C   0  0  0  0  0  0  0  0  0  0  0  0
   30.6856   16.3539   -0.8963 C   0  0  0  0  0  0  0  0  0  0  0  0
   31.9550   16.5191   -0.5834 N   0  0  0  0  0  0  0  0  0  0  0  0
   32.7128   16.1916   -1.6720 N   0  0  0  0  0  0  0  0  0  0  0  0
   31.8972   15.8331   -2.6396 C   0  0  0  0  0  0  0  0  0  0  0  0
   30.5896   15.9533   -2.2202 N   0  0  0  0  0  0  0  0  0  0  0  0
   29.4460   15.7779   -3.0418 C   0  0  0  0  0  0  0  0  0  0  0  0
   28.3269   16.6048   -2.8457 C   0  0  0  0  0  0  0  0  0  0  0  0
   27.2243   16.5196   -3.6998 C   0  0  0  0  0  0  0  0  0  0  0  0
   27.2366   15.6216   -4.7609 C   0  0  0  0  0  0  0  0  0  0  0  0
   25.8864   15.5327   -5.8211 Cl  0  0  0  0  0  0  0  0  0  0  0  0
   28.3353   14.7926   -4.9683 C   0  0  0  0  0  0  0  0  0  0  0  0
   29.4405   14.8469   -4.1001 C   0  0  0  0  0  0  0  0  0  0  0  0
   30.5281   13.8383   -4.3208 C   0  0  0  0  0  0  0  0  0  0  0  0
   31.7907   14.0992   -4.3090 N   0  0  0  0  0  0  0  0  0  0  0  0
   32.2609   15.4474   -4.0212 C   0  0  0  0  0  0  0  0  0  0  0  0
   30.1404   12.4109   -4.5716 C   0  0  0  0  0  0  0  0  0  0  0  0
   29.5642   11.6251   -3.5625 C   0  0  0  0  0  0  0  0  0  0  0  0
   29.2217   10.2968   -3.8260 C   0  0  0  0  0  0  0  0  0  0  0  0
   29.4663    9.7592   -5.0855 C   0  0  0  0  0  0  0  0  0  0  0  0
   29.1364    8.4851   -5.3324 F   0  0  0  0  0  0  0  0  0  0  0  0
   30.0537   10.5213   -6.0886 C   0  0  0  0  0  0  0  0  0  0  0  0
   30.3976   11.8495   -5.8309 C   0  0  0  0  0  0  0  0  0  0  0  0
  1  2  1  0
  2  3  2  0
  3  4  1  0
  4  5  2  0
  5  6  1  0
  6  7  1  0
  7  8  2  0
  8  9  1  0
  9 10  2  0
 10 11  1  0
 10 12  1  0
 12 13  2  0
 13 14  1  0
 14 17  1  0
 17 18  2  0
 18 19  1  0
 19 20  2  0
 20 21  1  0
 20 22  1  0
 22 23  2  0
 14 15  2  0
 15 16  1  0
  6  2  1  0
 13  7  1  0
 23 17  1  0
 16  5  1  0
M  END
> <minimizedAffinity>
-5.82862

> <CNNscore>
0.4442051351

> <CNNaffinity>
5.0469722748

> <CNN_VS>
2.2418909073

> <CNNaffinity_variance>
0.1420571208

$$$$



 23 26  0  0  0  0  0  0  0  0999 V2000
   32.6985   13.9449   -3.1744 C   0  0  0  0  0  0  0  0  0  0  0  0
   31.3930   14.5484   -3.5313 C   0  0  0  0  0  0  0  0  0  0  0  0
   30.6965   14.2233   -4.6017 N   0  0  0  0  0  0  0  0  0  0  0  0
   29.4898   14.8610   -4.5400 N   0  0  0  0  0  0  0  0  0  0  0  0
   29.4640   15.5718   -3.4337 C   0  0  0  0  0  0  0  0  0  0  0  0
   30.6637   15.4459   -2.7666 N   0  0  0  0  0  0  0  0  0  0  0  0
   31.0370   16.1737   -1.6071 C   0  0  0  0  0  0  0  0  0  0  0  0
   32.3702   16.5928   -1.4597 C   0  0  0  0  0  0  0  0  0  0  0  0
   32.7464   17.3916   -0.3766 C   0  0  0  0  0  0  0  0  0  0  0  0
   31.7951   17.7884    0.5561 C   0  0  0  0  0  0  0  0  0  0  0  0
   32.2575   18.7868    1.8769 Cl  0  0  0  0  0  0  0  0  0  0  0  0
   30.4706   17.3801    0.4276 C   0  0  0  0  0  0  0  0  0  0  0  0
   30.0825   16.5526   -0.6415 C   0  0  0  0  0  0  0  0  0  0  0  0
   28.6663   16.0596   -0.6398 C   0  0  0  0  0  0  0  0  0  0  0  0
   27.8907   16.0379   -1.6695 N   0  0  0  0  0  0  0  0  0  0  0  0
   28.3827   16.4698   -2.9706 C   0  0  0  0  0  0  0  0  0  0  0  0
   28.0893   15.5442    0.6456 C   0  0  0  0  0  0  0  0  0  0  0  0
   26.7708   15.0702    0.7131 C   0  0  0  0  0  0  0  0  0  0  0  0
   26.2609   14.6043    1.9272 C   0  0  0  0  0  0  0  0  0  0  0  0
   27.0620   14.6253    3.0642 C   0  0  0  0  0  0  0  0  0  0  0  0
   26.5678   14.1778    4.2256 F   0  0  0  0  0  0  0  0  0  0  0  0
   28.3640   15.1096    3.0151 C   0  0  0  0  0  0  0  0  0  0  0  0
   28.8789   15.5761    1.8044 C   0  0  0  0  0  0  0  0  0  0  0  0
  1  2  1  0
  2  3  2  0
  3  4  1  0
  4  5  2  0
  5  6  1  0
  6  7  1  0
  7  8  2  0
  8  9  1  0
  9 10  2  0
 10 11  1  0
 10 12  1  0
 12 13  2  0
 13 14  1  0
 14 17  1  0
 17 18  2  0
 18 19  1  0
 19 20  2  0
 20 21  1  0
 20 22  1  0
 22 23  2  0
 14 15  2  0
 15 16  1  0
  6  2  1  0
 13  7  1  0
 23 17  1  0
 16  5  1  0
M  END
> <minimizedAffinity>
-8.55311

> <CNNscore>
0.3438742161

> <CNNaffinity>
5.3881187439

> <CNN_VS>
1.8528350592

> <CNNaffinity_variance>
0.3547586203

$$$$



 23 26  0  0  0  0  0  0  0  0999 V2000
   30.9616   16.6993   -6.6598 C   0  0  0  0  0  0  0  0  0  0  0  0
   31.8644   15.7979   -5.9058 C   0  0  0  0  0  0  0  0  0  0  0  0
   33.0149   15.3500   -6.3664 N   0  0  0  0  0  0  0  0  0  0  0  0
   33.6456   14.6713   -5.3623 N   0  0  0  0  0  0  0  0  0  0  0  0
   32.8712   14.7091   -4.2999 C   0  0  0  0  0  0  0  0  0  0  0  0
   31.7029   15.3790   -4.5941 N   0  0  0  0  0  0  0  0  0  0  0  0
   30.5856   15.4973   -3.7274 C   0  0  0  0  0  0  0  0  0  0  0  0
   29.2896   15.4549   -4.2691 C   0  0  0  0  0  0  0  0  0  0  0  0
   28.1707   15.4732   -3.4322 C   0  0  0  0  0  0  0  0  0  0  0  0
   28.3369   15.5193   -2.0528 C   0  0  0  0  0  0  0  0  0  0  0  0
   26.9586   15.5225   -1.0255 Cl  0  0  0  0  0  0  0  0  0  0  0  0
   29.6131   15.5650   -1.4990 C   0  0  0  0  0  0  0  0  0  0  0  0
   30.7482   15.5759   -2.3295 C   0  0  0  0  0  0  0  0  0  0  0  0
   32.0787   15.7484   -1.6595 C   0  0  0  0  0  0  0  0  0  0  0  0
   33.1369   15.0640   -1.9317 N   0  0  0  0  0  0  0  0  0  0  0  0
   33.1143   14.0640   -2.9905 C   0  0  0  0  0  0  0  0  0  0  0  0
   32.2122   16.7937   -0.5917 C   0  0  0  0  0  0  0  0  0  0  0  0
   33.4709   17.2012   -0.1254 C   0  0  0  0  0  0  0  0  0  0  0  0
   33.5607   18.1713    0.8756 C   0  0  0  0  0  0  0  0  0  0  0  0
   32.3992   18.7178    1.4115 C   0  0  0  0  0  0  0  0  0  0  0  0
   32.4913   19.6471    2.3713 F   0  0  0  0  0  0  0  0  0  0  0  0
   31.1455   18.3095    0.9716 C   0  0  0  0  0  0  0  0  0  0  0  0
   31.0497   17.3406   -0.0288 C   0  0  0  0  0  0  0  0  0  0  0  0
  1  2  1  0
  2  3  2  0
  3  4  1  0
  4  5  2  0
  5  6  1  0
  6  7  1  0
  7  8  2  0
  8  9  1  0
  9 10  2  0
 10 11  1  0
 10 12  1  0
 12 13  2  0
 13 14  1  0
 14 17  1  0
 17 18  2  0
 18 19  1  0
 19 20  2  0
 20 21  1  0
 20 22  1  0
 22 23  2  0
 14 15  2  0
 15 16  1  0
  6  2  1  0
 13  7  1  0
 23 17  1  0
 16  5  1  0
M  END
> <minimizedAffinity>
-8.31044

> <CNNscore>
0.2741224468

> <CNNaffinity>
5.2162384987

> <CNN_VS>
1.4298880100

> <CNNaffinity_variance>
0.6017503142

$$$$



 23 26  0  0  0  0  0  0  0  0999 V2000
   27.5924   15.4585    0.2607 C   0  0  0  0  0  0  0  0  0  0  0  0
   29.0036   15.9080    0.2110 C   0  0  0  0  0  0  0  0  0  0  0  0
   29.7567   16.0975    1.2756 N   0  0  0  0  0  0  0  0  0  0  0  0
   31.0303   16.3651    0.8598 N   0  0  0  0  0  0  0  0  0  0  0  0
   31.0403   16.3396   -0.4552 C   0  0  0  0  0  0  0  0  0  0  0  0
   29.7698   16.0927   -0.9297 N   0  0  0  0  0  0  0  0  0  0  0  0
   29.3841   16.1252   -2.2948 C   0  0  0  0  0  0  0  0  0  0  0  0
   28.1192   16.6318   -2.6386 C   0  0  0  0  0  0  0  0  0  0  0  0
   27.7494   16.7645   -3.9796 C   0  0  0  0  0  0  0  0  0  0  0  0
   28.6417   16.4073   -4.9838 C   0  0  0  0  0  0  0  0  0  0  0  0
   28.1908   16.5896   -6.6326 Cl  0  0  0  0  0  0  0  0  0  0  0  0
   29.8976   15.9008   -4.6617 C   0  0  0  0  0  0  0  0  0  0  0  0
   30.2733   15.7348   -3.3165 C   0  0  0  0  0  0  0  0  0  0  0  0
   31.5928   15.0713   -3.0564 C   0  0  0  0  0  0  0  0  0  0  0  0
   32.4640   15.4725   -2.1947 N   0  0  0  0  0  0  0  0  0  0  0  0
   32.1853   16.6246   -1.3483 C   0  0  0  0  0  0  0  0  0  0  0  0
   31.9443   13.8439   -3.8441 C   0  0  0  0  0  0  0  0  0  0  0  0
   33.0408   13.8298   -4.7189 C   0  0  0  0  0  0  0  0  0  0  0  0
   33.3368   12.6732   -5.4440 C   0  0  0  0  0  0  0  0  0  0  0  0
   32.5335   11.5465   -5.3017 C   0  0  0  0  0  0  0  0  0  0  0  0
   32.8216   10.4406   -5.9997 F   0  0  0  0  0  0  0  0  0  0  0  0
   31.4332   11.5531   -4.4524 C   0  0  0  0  0  0  0  0  0  0  0  0
   31.1329   12.7061   -3.7251 C   0  0  0  0  0  0  0  0  0  0  0  0
  1  2  1  0
  2  3  2  0
  3  4  1  0
  4  5  2  0
  5  6  1  0
  6  7  1  0
  7  8  2  0
  8  9  1  0
  9 10  2  0
 10 11  1  0
 10 12  1  0
 12 13  2  0
 13 14  1  0
 14 17  1  0
 17 18  2  0
 18 19  1  0
 19 20  2  0
 20 21  1  0
 20 22  1  0
 22 23  2  0
 14 15  2  0
 15 16  1  0
  6  2  1  0
 13  7  1  0
 23 17  1  0
 16  5  1  0
M  END
> <minimizedAffinity>
-7.44942

> <CNNscore>
0.2682439983

> <CNNaffinity>
5.0469613075

> <CNN_VS>
1.3538171053

> <CNNaffinity_variance>
0.7056465149

$$$$



 23 26  0  0  0  0  0  0  0  0999 V2000
   27.4942   15.4609    0.2313 C   0  0  0  0  0  0  0  0  0  0  0  0
   26.9864   14.9307    1.5185 C   0  0  0  0  0  0  0  0  0  0  0  0
   27.6186   15.0511    2.6683 N   0  0  0  0  0  0  0  0  0  0  0  0
   26.8032   14.5819    3.6591 N   0  0  0  0  0  0  0  0  0  0  0  0
   25.6826   14.1765    3.1026 C   0  0  0  0  0  0  0  0  0  0  0  0
   25.7529   14.3357    1.7352 N   0  0  0  0  0  0  0  0  0  0  0  0
   24.7796   13.8845    0.8065 C   0  0  0  0  0  0  0  0  0  0  0  0
   25.1993   13.3752   -0.4342 C   0  0  0  0  0  0  0  0  0  0  0  0
   24.2716   12.8363   -1.3296 C   0  0  0  0  0  0  0  0  0  0  0  0
   22.9249   12.7889   -0.9883 C   0  0  0  0  0  0  0  0  0  0  0  0
   21.7888   12.1080   -2.0841 Cl  0  0  0  0  0  0  0  0  0  0  0  0
   22.4909   13.2916    0.2350 C   0  0  0  0  0  0  0  0  0  0  0  0
   23.4089   13.8628    1.1346 C   0  0  0  0  0  0  0  0  0  0  0  0
   22.8449   14.4893    2.3748 C   0  0  0  0  0  0  0  0  0  0  0  0
   23.3229   14.3364    3.5624 N   0  0  0  0  0  0  0  0  0  0  0  0
   24.5261   13.5435    3.7749 C   0  0  0  0  0  0  0  0  0  0  0  0
   21.6355   15.3678    2.2465 C   0  0  0  0  0  0  0  0  0  0  0  0
   20.7314   15.2110    1.1854 C   0  0  0  0  0  0  0  0  0  0  0  0
   19.6191   16.0505    1.0901 C   0  0  0  0  0  0  0  0  0  0  0  0
   19.4228   17.0448    2.0430 C   0  0  0  0  0  0  0  0  0  0  0  0
   18.3550   17.8471    1.9464 F   0  0  0  0  0  0  0  0  0  0  0  0
   20.3209   17.2228    3.0888 C   0  0  0  0  0  0  0  0  0  0  0  0
   21.4340   16.3865    3.1892 C   0  0  0  0  0  0  0  0  0  0  0  0
  1  2  1  0
  2  3  2  0
  3  4  1  0
  4  5  2  0
  5  6  1  0
  6  7  1  0
  7  8  2  0
  8  9  1  0
  9 10  2  0
 10 11  1  0
 10 12  1  0
 12 13  2  0
 13 14  1  0
 14 17  1  0
 17 18  2  0
 18 19  1  0
 19 20  2  0
 20 21  1  0
 20 22  1  0
 22 23  2  0
 14 15  2  0
 15 16  1  0
  6  2  1  0
 13  7  1  0
 23 17  1  0
 16  5  1  0
M  END
> <minimizedAffinity>
-6.44245

> <CNNscore>
0.2599848807

> <CNNaffinity>
4.5411472321

> <CNN_VS>
1.1806296110

> <CNNaffinity_variance>
0.4404182136

$$$$
