


 17 17  0  0  0  0  0  0  0  0999 V2000
   30.8614   67.7672   18.8152 C   0  0  0  0  0  0  0  0  0  0  0  0
   30.9842   66.5836   19.7897 C   0  0  0  0  0  0  0  0  0  0  0  0
   30.1791   65.4645   19.0826 C   0  0  0  0  0  0  0  0  0  0  0  0
   31.0049   64.6940   18.1201 N   0  0  0  0  0  0  0  0  0  0  0  0
   29.0408   66.2148   18.3477 C   0  0  0  0  0  0  0  0  0  0  0  0
   29.3468   67.7234   18.5171 C   0  0  0  0  0  0  0  0  0  0  0  0
   31.3837   65.3261   17.4149 H   0  0  0  0  0  0  0  0  0  0  0  0
   30.4271   63.9860   17.6669 H   0  0  0  0  0  0  0  0  0  0  0  0
   27.4052   65.8334   19.0853 S   0  0  0  0  0  0  0  0  0  0  0  0
   26.6480   65.1269   17.6029 C   0  0  0  0  0  0  0  0  0  0  0  0
   27.6029   64.7442   20.0975 O   0  0  0  0  0  0  0  0  0  0  0  0
   32.5406   68.5712   17.3274 C   0  0  0  0  0  0  0  0  0  0  0  0
   31.6541   67.5058   17.6431 O   0  0  0  0  0  0  0  0  0  0  0  0
   32.3179   66.1433   20.0645 O   0  0  0  0  0  0  0  0  0  0  0  0
   33.1058   67.1280   20.7169 C   0  0  0  0  0  0  0  0  0  0  0  0
   29.0331   68.5249   17.3751 O   0  0  0  0  0  0  0  0  0  0  0  0
   28.7298   67.7787   16.2060 C   0  0  0  0  0  0  0  0  0  0  0  0
 12 13  1  0
  1 13  1  0
  1  2  1  0
  2 14  1  0
 14 15  1  0
  2  3  1  0
  3  4  1  0
  3  5  1  0
  5  9  1  0
  9 10  1  0
  9 11  2  0
  5  6  1  0
  6 16  1  0
 16 17  1  0
  6  1  1  0
  4  7  1  0
  4  8  1  0
M  END
> <minimizedAffinity>
-4.28768

> <CNNscore>
0.2945773304

> <CNNaffinity>
3.6984393597

> <CNN_VS>
1.0894763470

> <CNNaffinity_variance>
1.6071194410

$$$$



 17 17  0  0  0  0  0  0  0  0999 V2000
   23.6309   64.9112   13.0427 C   0  0  0  0  0  0  0  0  0  0  0  0
   23.3825   63.3981   12.9230 C   0  0  0  0  0  0  0  0  0  0  0  0
   24.6660   62.8884   12.2204 C   0  0  0  0  0  0  0  0  0  0  0  0
   25.7550   62.5837   13.1812 N   0  0  0  0  0  0  0  0  0  0  0  0
   25.0761   64.0481   11.2793 C   0  0  0  0  0  0  0  0  0  0  0  0
   24.1252   65.2239   11.6134 C   0  0  0  0  0  0  0  0  0  0  0  0
   25.9807   63.4222   13.7164 H   0  0  0  0  0  0  0  0  0  0  0  0
   26.5818   62.2734   12.6708 H   0  0  0  0  0  0  0  0  0  0  0  0
   24.8775   63.5795    9.5171 S   0  0  0  0  0  0  0  0  0  0  0  0
   24.7194   61.7964    9.7737 C   0  0  0  0  0  0  0  0  0  0  0  0
   23.5611   64.1221    9.0451 O   0  0  0  0  0  0  0  0  0  0  0  0
   24.2111   66.0260   15.0676 C   0  0  0  0  0  0  0  0  0  0  0  0
   24.6457   65.1523   14.0339 O   0  0  0  0  0  0  0  0  0  0  0  0
   23.1788   62.7042   14.1579 O   0  0  0  0  0  0  0  0  0  0  0  0
   21.9081   62.9602   14.7371 C   0  0  0  0  0  0  0  0  0  0  0  0
   24.7368   66.5154   11.5613 O   0  0  0  0  0  0  0  0  0  0  0  0
   24.0782   67.4371   10.7056 C   0  0  0  0  0  0  0  0  0  0  0  0
 12 13  1  0
  1 13  1  0
  1  2  1  0
  2 14  1  0
 14 15  1  0
  2  3  1  0
  3  4  1  0
  3  5  1  0
  5  9  1  0
  9 10  1  0
  9 11  2  0
  5  6  1  0
  6 16  1  0
 16 17  1  0
  6  1  1  0
  4  7  1  0
  4  8  1  0
M  END
> <minimizedAffinity>
-4.20635

> <CNNscore>
0.2190070301

> <CNNaffinity>
3.0597202778

> <CNN_VS>
0.6701002717

> <CNNaffinity_variance>
0.4756642580

$$$$



 17 17  0  0  0  0  0  0  0  0999 V2000
   34.5900   69.8216   18.5838 C   0  0  0  0  0  0  0  0  0  0  0  0
   34.9005   69.9882   20.0810 C   0  0  0  0  0  0  0  0  0  0  0  0
   35.0875   68.5277   20.5631 C   0  0  0  0  0  0  0  0  0  0  0  0
   36.4782   68.0438   20.3789 N   0  0  0  0  0  0  0  0  0  0  0  0
   34.1035   67.7063   19.6937 C   0  0  0  0  0  0  0  0  0  0  0  0
   33.5367   68.6938   18.6440 C   0  0  0  0  0  0  0  0  0  0  0  0
   36.7306   68.1022   19.3924 H   0  0  0  0  0  0  0  0  0  0  0  0
   36.5450   67.0748   20.6902 H   0  0  0  0  0  0  0  0  0  0  0  0
   32.7301   67.0264   20.7017 S   0  0  0  0  0  0  0  0  0  0  0  0
   31.7024   68.5143   20.7164 C   0  0  0  0  0  0  0  0  0  0  0  0
   32.0449   65.9694   19.8872 O   0  0  0  0  0  0  0  0  0  0  0  0
   36.0949   70.2559   16.7876 C   0  0  0  0  0  0  0  0  0  0  0  0
   35.7833   69.4147   17.8904 O   0  0  0  0  0  0  0  0  0  0  0  0
   36.0590   70.7695   20.3901 O   0  0  0  0  0  0  0  0  0  0  0  0
   35.8577   72.1622   20.2008 C   0  0  0  0  0  0  0  0  0  0  0  0
   33.3280   68.1274   17.3477 O   0  0  0  0  0  0  0  0  0  0  0  0
   31.9729   68.1261   16.9245 C   0  0  0  0  0  0  0  0  0  0  0  0
 12 13  1  0
  1 13  1  0
  1  2  1  0
  2 14  1  0
 14 15  1  0
  2  3  1  0
  3  4  1  0
  3  5  1  0
  5  9  1  0
  9 10  1  0
  9 11  2  0
  5  6  1  0
  6 16  1  0
 16 17  1  0
  6  1  1  0
  4  7  1  0
  4  8  1  0
M  END
> <minimizedAffinity>
-4.67150

> <CNNscore>
0.1958985031

> <CNNaffinity>
2.7298612595

> <CNN_VS>
0.5347757339

> <CNNaffinity_variance>
1.1733708382

$$$$



 17 17  0  0  0  0  0  0  0  0999 V2000
   27.2662   65.7066    9.7181 C   0  0  0  0  0  0  0  0  0  0  0  0
   27.8426   66.0035   11.1129 C   0  0  0  0  0  0  0  0  0  0  0  0
   28.0987   64.5896   11.6926 C   0  0  0  0  0  0  0  0  0  0  0  0
   29.4287   64.0531   11.3112 N   0  0  0  0  0  0  0  0  0  0  0  0
   26.9662   63.7179   11.0957 C   0  0  0  0  0  0  0  0  0  0  0  0
   26.2298   64.6184   10.0735 C   0  0  0  0  0  0  0  0  0  0  0  0
   29.5001   64.0126   10.2945 H   0  0  0  0  0  0  0  0  0  0  0  0
   29.5408   63.1158   11.6976 H   0  0  0  0  0  0  0  0  0  0  0  0
   25.7898   63.1723   12.3930 S   0  0  0  0  0  0  0  0  0  0  0  0
   26.9995   62.9605   13.7204 C   0  0  0  0  0  0  0  0  0  0  0  0
   24.9024   64.3355   12.7240 O   0  0  0  0  0  0  0  0  0  0  0  0
   28.4353   65.9379    7.6542 C   0  0  0  0  0  0  0  0  0  0  0  0
   28.3112   65.2047    8.8657 O   0  0  0  0  0  0  0  0  0  0  0  0
   29.0456   66.7784   11.1339 O   0  0  0  0  0  0  0  0  0  0  0  0
   29.2510   67.4539   12.3657 C   0  0  0  0  0  0  0  0  0  0  0  0
   25.7856   63.9396    8.8959 O   0  0  0  0  0  0  0  0  0  0  0  0
   24.6636   63.0939    9.0999 C   0  0  0  0  0  0  0  0  0  0  0  0
 12 13  1  0
  1 13  1  0
  1  2  1  0
  2 14  1  0
 14 15  1  0
  2  3  1  0
  3  4  1  0
  3  5  1  0
  5  9  1  0
  9 10  1  0
  9 11  2  0
  5  6  1  0
  6 16  1  0
 16 17  1  0
  6  1  1  0
  4  7  1  0
  4  8  1  0
M  END
> <minimizedAffinity>
-4.70242

> <CNNscore>
0.1695079803

> <CNNaffinity>
3.1860706806

> <CNN_VS>
0.5400643945

> <CNNaffinity_variance>
1.0143839121

$$$$



 17 17  0  0  0  0  0  0  0  0999 V2000
   24.4454   63.2404   12.8225 C   0  0  0  0  0  0  0  0  0  0  0  0
   25.5403   63.6554   13.8198 C   0  0  0  0  0  0  0  0  0  0  0  0
   26.3589   64.7025   13.0235 C   0  0  0  0  0  0  0  0  0  0  0  0
   25.7986   66.0712   13.1447 N   0  0  0  0  0  0  0  0  0  0  0  0
   26.2886   64.2112   11.5563 C   0  0  0  0  0  0  0  0  0  0  0  0
   25.2968   63.0218   11.5528 C   0  0  0  0  0  0  0  0  0  0  0  0
   24.8362   66.0758   12.8067 H   0  0  0  0  0  0  0  0  0  0  0  0
   26.3575   66.7179   12.5881 H   0  0  0  0  0  0  0  0  0  0  0  0
   27.9291   63.6446   10.9629 S   0  0  0  0  0  0  0  0  0  0  0  0
   28.8157   63.8423   12.5266 C   0  0  0  0  0  0  0  0  0  0  0  0
   27.8208   62.1825   10.6461 O   0  0  0  0  0  0  0  0  0  0  0  0
   22.2291   64.0219   13.2185 C   0  0  0  0  0  0  0  0  0  0  0  0
   23.5056   64.3190   12.6681 O   0  0  0  0  0  0  0  0  0  0  0  0
   25.0758   64.2153   15.0522 O   0  0  0  0  0  0  0  0  0  0  0  0
   26.0708   64.2346   16.0648 C   0  0  0  0  0  0  0  0  0  0  0  0
   24.4641   62.9463   10.3927 O   0  0  0  0  0  0  0  0  0  0  0  0
   24.6046   61.7428    9.6529 C   0  0  0  0  0  0  0  0  0  0  0  0
 12 13  1  0
  1 13  1  0
  1  2  1  0
  2 14  1  0
 14 15  1  0
  2  3  1  0
  3  4  1  0
  3  5  1  0
  5  9  1  0
  9 10  1  0
  9 11  2  0
  5  6  1  0
  6 16  1  0
 16 17  1  0
  6  1  1  0
  4  7  1  0
  4  8  1  0
M  END
> <minimizedAffinity>
-4.10874

> <CNNscore>
0.1501723081

> <CNNaffinity>
2.7456512451

> <CNN_VS>
0.4123207927

> <CNNaffinity_variance>
0.8633950353

$$$$



 17 17  0  0  0  0  0  0  0  0999 V2000
   25.9091   64.7707    9.9845 C   0  0  0  0  0  0  0  0  0  0  0  0
   27.1652   65.4954    9.4719 C   0  0  0  0  0  0  0  0  0  0  0  0
   28.2571   65.0557   10.4794 C   0  0  0  0  0  0  0  0  0  0  0  0
   28.8996   63.7744   10.0953 N   0  0  0  0  0  0  0  0  0  0  0  0
   27.5029   64.9073   11.8240 C   0  0  0  0  0  0  0  0  0  0  0  0
   26.0014   65.0910   11.4923 C   0  0  0  0  0  0  0  0  0  0  0  0
   28.1908   63.0434   10.0346 H   0  0  0  0  0  0  0  0  0  0  0  0
   29.5932   63.5179   10.7978 H   0  0  0  0  0  0  0  0  0  0  0  0
   28.0270   66.1881   13.0279 S   0  0  0  0  0  0  0  0  0  0  0  0
   29.1691   67.0694   11.9376 C   0  0  0  0  0  0  0  0  0  0  0  0
   26.8432   67.0665   13.3055 O   0  0  0  0  0  0  0  0  0  0  0  0
   24.8237   62.7879    9.2294 C   0  0  0  0  0  0  0  0  0  0  0  0
   26.0285   63.3615    9.7195 O   0  0  0  0  0  0  0  0  0  0  0  0
   27.5613   65.1771    8.1340 O   0  0  0  0  0  0  0  0  0  0  0  0
   28.3449   66.1947    7.5287 C   0  0  0  0  0  0  0  0  0  0  0  0
   25.1204   64.2507   12.2425 O   0  0  0  0  0  0  0  0  0  0  0  0
   23.7913   64.7400   12.3391 C   0  0  0  0  0  0  0  0  0  0  0  0
 12 13  1  0
  1 13  1  0
  1  2  1  0
  2 14  1  0
 14 15  1  0
  2  3  1  0
  3  4  1  0
  3  5  1  0
  5  9  1  0
  9 10  1  0
  9 11  2  0
  5  6  1  0
  6 16  1  0
 16 17  1  0
  6  1  1  0
  4  7  1  0
  4  8  1  0
M  END
> <minimizedAffinity>
-4.27713

> <CNNscore>
0.1466428488

> <CNNaffinity>
3.2565348148

> <CNN_VS>
0.4775475562

> <CNNaffinity_variance>
0.9234354496

$$$$



 17 17  0  0  0  0  0  0  0  0999 V2000
   26.0299   63.4831   11.0421 C   0  0  0  0  0  0  0  0  0  0  0  0
   24.9536   62.9308   10.0923 C   0  0  0  0  0  0  0  0  0  0  0  0
   24.5692   64.1686    9.2433 C   0  0  0  0  0  0  0  0  0  0  0  0
   25.4517   64.3424    8.0630 N   0  0  0  0  0  0  0  0  0  0  0  0
   24.7171   65.3641   10.2169 C   0  0  0  0  0  0  0  0  0  0  0  0
   25.3441   64.7855   11.5092 C   0  0  0  0  0  0  0  0  0  0  0  0
   26.4186   64.4401    8.3728 H   0  0  0  0  0  0  0  0  0  0  0  0
   25.1728   65.1789    7.5502 H   0  0  0  0  0  0  0  0  0  0  0  0
   23.0885   66.1129   10.6063 S   0  0  0  0  0  0  0  0  0  0  0  0
   23.6672   67.8123   10.8236 C   0  0  0  0  0  0  0  0  0  0  0  0
   22.2442   66.0405    9.3686 O   0  0  0  0  0  0  0  0  0  0  0  0
   28.4055   63.3019   10.9804 C   0  0  0  0  0  0  0  0  0  0  0  0
   27.2361   63.7394   10.3007 O   0  0  0  0  0  0  0  0  0  0  0  0
   25.3677   61.8530    9.2467 O   0  0  0  0  0  0  0  0  0  0  0  0
   24.2892   61.0330    8.8219 C   0  0  0  0  0  0  0  0  0  0  0  0
   26.2850   65.6500   12.1514 O   0  0  0  0  0  0  0  0  0  0  0  0
   26.5153   65.3462   13.5189 C   0  0  0  0  0  0  0  0  0  0  0  0
 12 13  1  0
  1 13  1  0
  1  2  1  0
  2 14  1  0
 14 15  1  0
  2  3  1  0
  3  4  1  0
  3  5  1  0
  5  9  1  0
  9 10  1  0
  9 11  2  0
  5  6  1  0
  6 16  1  0
 16 17  1  0
  6  1  1  0
  4  7  1  0
  4  8  1  0
M  END
> <minimizedAffinity>
-4.41048

> <CNNscore>
0.1451673210

> <CNNaffinity>
2.9640617371

> <CNN_VS>
0.4302848876

> <CNNaffinity_variance>
0.4847567976

$$$$



 17 17  0  0  0  0  0  0  0  0999 V2000
   26.5247   65.5347   12.1537 C   0  0  0  0  0  0  0  0  0  0  0  0
   27.4383   64.3341   12.4530 C   0  0  0  0  0  0  0  0  0  0  0  0
   27.5573   63.6345   11.0757 C   0  0  0  0  0  0  0  0  0  0  0  0
   28.6516   64.1977   10.2467 N   0  0  0  0  0  0  0  0  0  0  0  0
   26.1832   63.8736   10.4024 C   0  0  0  0  0  0  0  0  0  0  0  0
   25.4137   64.8395   11.3369 C   0  0  0  0  0  0  0  0  0  0  0  0
   28.4886   65.1938   10.0996 H   0  0  0  0  0  0  0  0  0  0  0  0
   28.6757   63.7204    9.3456 H   0  0  0  0  0  0  0  0  0  0  0  0
   25.2434   62.3079   10.2292 S   0  0  0  0  0  0  0  0  0  0  0  0
   24.2809   62.7818    8.7734 C   0  0  0  0  0  0  0  0  0  0  0  0
   26.2145   61.2322    9.8418 O   0  0  0  0  0  0  0  0  0  0  0  0
   27.2671   67.7921   11.9729 C   0  0  0  0  0  0  0  0  0  0  0  0
   27.2481   66.5033   11.3734 O   0  0  0  0  0  0  0  0  0  0  0  0
   28.7355   64.6553   12.9649 O   0  0  0  0  0  0  0  0  0  0  0  0
   28.6949   65.2329   14.2613 C   0  0  0  0  0  0  0  0  0  0  0  0
   24.6060   65.8048   10.6581 O   0  0  0  0  0  0  0  0  0  0  0  0
   23.2358   65.7810   11.0287 C   0  0  0  0  0  0  0  0  0  0  0  0
 12 13  1  0
  1 13  1  0
  1  2  1  0
  2 14  1  0
 14 15  1  0
  2  3  1  0
  3  4  1  0
  3  5  1  0
  5  9  1  0
  9 10  1  0
  9 11  2  0
  5  6  1  0
  6 16  1  0
 16 17  1  0
  6  1  1  0
  4  7  1  0
  4  8  1  0
M  END
> <minimizedAffinity>
-4.18747

> <CNNscore>
0.1370998621

> <CNNaffinity>
3.4887402058

> <CNN_VS>
0.4783057868

> <CNNaffinity_variance>
0.5471962094

$$$$



 17 17  0  0  0  0  0  0  0  0999 V2000
   28.2779   65.1461    9.2608 C   0  0  0  0  0  0  0  0  0  0  0  0
   27.1167   64.5584   10.0805 C   0  0  0  0  0  0  0  0  0  0  0  0
   26.7054   65.7376   10.9977 C   0  0  0  0  0  0  0  0  0  0  0  0
   25.7248   66.6438   10.3503 N   0  0  0  0  0  0  0  0  0  0  0  0
   28.0323   66.4833   11.2843 C   0  0  0  0  0  0  0  0  0  0  0  0
   29.1001   65.8128   10.3852 C   0  0  0  0  0  0  0  0  0  0  0  0
   26.1240   67.0172    9.4891 H   0  0  0  0  0  0  0  0  0  0  0  0
   25.5026   67.4122   10.9831 H   0  0  0  0  0  0  0  0  0  0  0  0
   28.5221   66.3214   13.0445 S   0  0  0  0  0  0  0  0  0  0  0  0
   29.4591   67.8637   13.1612 C   0  0  0  0  0  0  0  0  0  0  0  0
   27.2805   66.4418   13.8775 O   0  0  0  0  0  0  0  0  0  0  0  0
   28.2978   65.9433    7.0149 C   0  0  0  0  0  0  0  0  0  0  0  0
   27.7622   66.1065    8.3216 O   0  0  0  0  0  0  0  0  0  0  0  0
   25.9934   64.0990    9.3222 O   0  0  0  0  0  0  0  0  0  0  0  0
   25.3307   62.9958    9.9220 C   0  0  0  0  0  0  0  0  0  0  0  0
   30.0668   66.7137    9.8384 O   0  0  0  0  0  0  0  0  0  0  0  0
   31.2249   66.0788    9.3178 C   0  0  0  0  0  0  0  0  0  0  0  0
 12 13  1  0
  1 13  1  0
  1  2  1  0
  2 14  1  0
 14 15  1  0
  2  3  1  0
  3  4  1  0
  3  5  1  0
  5  9  1  0
  9 10  1  0
  9 11  2  0
  5  6  1  0
  6 16  1  0
 16 17  1  0
  6  1  1  0
  4  7  1  0
  4  8  1  0
M  END
> <minimizedAffinity>
-3.80242

> <CNNscore>
0.1366305053

> <CNNaffinity>
3.0374958515

> <CNN_VS>
0.4150145948

> <CNNaffinity_variance>
0.7818589807

$$$$
