


 30 31  0  0  0  0  0  0  0  0999 V2000
   35.7826   24.1865   30.2675 C   0  0  0  0  0  0  0  0  0  0  0  0
   35.0780   23.5763   29.3044 C   0  0  0  0  0  0  0  0  0  0  0  0
   35.7553   22.8573   28.3782 F   0  0  0  0  0  0  0  0  0  0  0  0
   33.7035   23.6818   29.1998 N   0  0  0  0  0  0  0  0  0  0  0  0
   32.9893   24.5241   30.0243 C   0  0  0  0  0  0  0  0  0  0  0  0
   31.8071   24.8035   29.8300 O   0  0  0  0  0  0  0  0  0  0  0  0
   33.6787   25.0800   31.0602 N   0  0  0  0  0  0  0  0  0  0  0  0
   35.0319   25.0194   31.2375 C   0  0  0  0  0  0  0  0  0  0  0  0
   35.5773   25.6502   32.1369 O   0  0  0  0  0  0  0  0  0  0  0  0
   33.1571   25.5666   31.7386 H   0  0  0  0  0  0  0  0  0  0  0  0
   32.9773   23.0249   28.1103 C   0  0  0  0  0  0  0  0  0  0  0  0
   32.8971   21.6252   28.3713 O   0  0  0  0  0  0  0  0  0  0  0  0
   32.1557   20.8956   27.3818 C   0  0  0  0  0  0  0  0  0  0  0  0
   32.8176   21.0456   26.0079 C   0  0  0  0  0  0  0  0  0  0  0  0
   32.0583   20.3763   24.9988 O   0  0  0  0  0  0  0  0  0  0  0  0
   32.9150   22.5278   25.6459 C   0  0  0  0  0  0  0  0  0  0  0  0
   33.6155   22.6567   24.3982 O   0  0  0  0  0  0  0  0  0  0  0  0
   33.6244   23.3301   26.7379 C   0  0  0  0  0  0  0  0  0  0  0  0
   33.5624   24.7173   26.3556 O   0  0  0  0  0  0  0  0  0  0  0  0
   31.1723   20.7679   24.9478 H   0  0  0  0  0  0  0  0  0  0  0  0
   34.5108   22.2954   24.4913 H   0  0  0  0  0  0  0  0  0  0  0  0
   32.6351   24.9840   26.2559 H   0  0  0  0  0  0  0  0  0  0  0  0
   32.0963   19.4200   27.8073 C   0  0  0  0  0  0  0  0  0  0  0  0
   30.7732   18.8961   27.6578 O   0  0  0  0  0  0  0  0  0  0  0  0
   30.1617   19.3970   28.2199 H   0  0  0  0  0  0  0  0  0  0  0  0
   38.3902   23.9512   30.4437 C   0  0  0  0  0  0  0  0  0  0  0  0
   37.1973   24.0625   30.3541 C   0  0  0  0  0  0  0  0  0  0  0  0
   39.8481   23.8116   30.5693 C   0  0  0  0  0  0  0  0  0  0  0  0
   41.7965   23.5515   32.1859 C   0  0  0  0  0  0  0  0  0  0  0  0
   40.3087   23.8362   32.0266 C   0  0  0  0  0  0  0  0  0  0  0  0
 29 30  1  0
 30 28  1  0
 28 26  1  0
 26 27  3  0
 27  1  1  0
  1  2  2  0
  2  3  1  0
  2  4  1  0
 11  4  1  0
 11 12  1  0
 12 13  1  0
 13 23  1  0
 23 24  1  0
 13 14  1  0
 14 15  1  0
 14 16  1  0
 16 17  1  0
 16 18  1  0
 18 19  1  0
  4  5  1  0
  5  6  2  0
  5  7  1  0
  7  8  1  0
  8  9  2  0
  8  1  1  0
 18 11  1  0
 24 25  1  0
 15 20  1  0
 17 21  1  0
 19 22  1  0
  7 10  1  0
M  END
> <minimizedAffinity>
-11.01784

> <CNNscore>
0.9024758935

> <CNNaffinity>
5.1196174622

> <CNN_VS>
4.6203312874

> <CNNaffinity_variance>
0.5364275575

$$$$



 30 31  0  0  0  0  0  0  0  0999 V2000
   36.0642   24.3217   30.9094 C   0  0  0  0  0  0  0  0  0  0  0  0
   35.2798   23.9016   29.9071 C   0  0  0  0  0  0  0  0  0  0  0  0
   35.8730   23.5199   28.7512 F   0  0  0  0  0  0  0  0  0  0  0  0
   33.9002   23.8782   29.9940 N   0  0  0  0  0  0  0  0  0  0  0  0
   33.2469   24.4002   31.0895 C   0  0  0  0  0  0  0  0  0  0  0  0
   32.0314   24.5877   31.1144 O   0  0  0  0  0  0  0  0  0  0  0  0
   34.0307   24.7479   32.1488 N   0  0  0  0  0  0  0  0  0  0  0  0
   35.3960   24.7938   32.1459 C   0  0  0  0  0  0  0  0  0  0  0  0
   36.0127   25.2322   33.1111 O   0  0  0  0  0  0  0  0  0  0  0  0
   33.5740   24.9863   32.9877 H   0  0  0  0  0  0  0  0  0  0  0  0
   33.0803   23.4428   28.8608 C   0  0  0  0  0  0  0  0  0  0  0  0
   33.7627   22.4108   28.1517 O   0  0  0  0  0  0  0  0  0  0  0  0
   33.0154   21.8785   27.0476 C   0  0  0  0  0  0  0  0  0  0  0  0
   32.7174   22.9837   26.0287 C   0  0  0  0  0  0  0  0  0  0  0  0
   31.9206   22.4852   24.9520 O   0  0  0  0  0  0  0  0  0  0  0  0
   31.9591   24.1206   26.7142 C   0  0  0  0  0  0  0  0  0  0  0  0
   31.7646   25.1857   25.7699 O   0  0  0  0  0  0  0  0  0  0  0  0
   32.7052   24.6342   27.9467 C   0  0  0  0  0  0  0  0  0  0  0  0
   31.8603   25.6147   28.5782 O   0  0  0  0  0  0  0  0  0  0  0  0
   31.0741   22.1624   25.2987 H   0  0  0  0  0  0  0  0  0  0  0  0
   32.6270   25.5159   25.4728 H   0  0  0  0  0  0  0  0  0  0  0  0
   31.0119   25.2073   28.8131 H   0  0  0  0  0  0  0  0  0  0  0  0
   33.8320   20.7444   26.4080 C   0  0  0  0  0  0  0  0  0  0  0  0
   33.3068   19.4648   26.7744 O   0  0  0  0  0  0  0  0  0  0  0  0
   33.3500   19.3614   27.7379 H   0  0  0  0  0  0  0  0  0  0  0  0
   38.6810   24.3395   30.7148 C   0  0  0  0  0  0  0  0  0  0  0  0
   37.4823   24.3364   30.7957 C   0  0  0  0  0  0  0  0  0  0  0  0
   40.1485   24.3370   30.6310 C   0  0  0  0  0  0  0  0  0  0  0  0
   42.3061   23.5311   31.7137 C   0  0  0  0  0  0  0  0  0  0  0  0
   40.7971   23.6850   31.8518 C   0  0  0  0  0  0  0  0  0  0  0  0
 29 30  1  0
 30 28  1  0
 28 26  1  0
 26 27  3  0
 27  1  1  0
  1  2  2  0
  2  3  1  0
  2  4  1  0
 11  4  1  0
 11 12  1  0
 12 13  1  0
 13 23  1  0
 23 24  1  0
 13 14  1  0
 14 15  1  0
 14 16  1  0
 16 17  1  0
 16 18  1  0
 18 19  1  0
  4  5  1  0
  5  6  2  0
  5  7  1  0
  7  8  1  0
  8  9  2  0
  8  1  1  0
 18 11  1  0
 24 25  1  0
 15 20  1  0
 17 21  1  0
 19 22  1  0
  7 10  1  0
M  END
> <minimizedAffinity>
-9.17478

> <CNNscore>
0.6956121325

> <CNNaffinity>
4.9116458893

> <CNN_VS>
3.4166004658

> <CNNaffinity_variance>
0.3276468813

$$$$



 30 31  0  0  0  0  0  0  0  0999 V2000
   44.4796   20.9388   28.6708 C   0  0  0  0  0  0  0  0  0  0  0  0
   43.6802   21.2864   29.6889 C   0  0  0  0  0  0  0  0  0  0  0  0
   43.6572   20.4876   30.7820 F   0  0  0  0  0  0  0  0  0  0  0  0
   42.8588   22.3979   29.6514 N   0  0  0  0  0  0  0  0  0  0  0  0
   42.7332   23.1521   28.5048 C   0  0  0  0  0  0  0  0  0  0  0  0
   41.8661   24.0133   28.3644 O   0  0  0  0  0  0  0  0  0  0  0  0
   43.6028   22.8634   27.4959 N   0  0  0  0  0  0  0  0  0  0  0  0
   44.4472   21.7902   27.4574 C   0  0  0  0  0  0  0  0  0  0  0  0
   45.1097   21.5468   26.4544 O   0  0  0  0  0  0  0  0  0  0  0  0
   43.6244   23.4810   26.7295 H   0  0  0  0  0  0  0  0  0  0  0  0
   41.9756   22.7213   30.7746 C   0  0  0  0  0  0  0  0  0  0  0  0
   40.7393   23.2261   30.2744 O   0  0  0  0  0  0  0  0  0  0  0  0
   39.7814   23.5260   31.3008 C   0  0  0  0  0  0  0  0  0  0  0  0
   40.3376   24.5950   32.2475 C   0  0  0  0  0  0  0  0  0  0  0  0
   39.4220   24.8616   33.3120 O   0  0  0  0  0  0  0  0  0  0  0  0
   41.6583   24.1107   32.8465 C   0  0  0  0  0  0  0  0  0  0  0  0
   42.2106   25.1570   33.6615 O   0  0  0  0  0  0  0  0  0  0  0  0
   42.6547   23.7024   31.7604 C   0  0  0  0  0  0  0  0  0  0  0  0
   43.8109   23.1593   32.4254 O   0  0  0  0  0  0  0  0  0  0  0  0
   39.2797   24.0518   33.8266 H   0  0  0  0  0  0  0  0  0  0  0  0
   42.3810   25.9385   33.1127 H   0  0  0  0  0  0  0  0  0  0  0  0
   43.5441   22.4045   32.9732 H   0  0  0  0  0  0  0  0  0  0  0  0
   38.4832   24.0038   30.6312 C   0  0  0  0  0  0  0  0  0  0  0  0
   37.4529   24.2138   31.6017 O   0  0  0  0  0  0  0  0  0  0  0  0
   37.2663   23.3800   32.0608 H   0  0  0  0  0  0  0  0  0  0  0  0
   46.0084   18.8095   28.7901 C   0  0  0  0  0  0  0  0  0  0  0  0
   45.3161   19.7898   28.7333 C   0  0  0  0  0  0  0  0  0  0  0  0
   46.8428   17.6016   28.8658 C   0  0  0  0  0  0  0  0  0  0  0  0
   45.0176   16.7807   27.2937 C   0  0  0  0  0  0  0  0  0  0  0  0
   46.4095   16.5346   27.8608 C   0  0  0  0  0  0  0  0  0  0  0  0
 29 30  1  0
 30 28  1  0
 28 26  1  0
 26 27  3  0
 27  1  1  0
  1  2  2  0
  2  3  1  0
  2  4  1  0
 11  4  1  0
 11 12  1  0
 12 13  1  0
 13 23  1  0
 23 24  1  0
 13 14  1  0
 14 15  1  0
 14 16  1  0
 16 17  1  0
 16 18  1  0
 18 19  1  0
  4  5  1  0
  5  6  2  0
  5  7  1  0
  7  8  1  0
  8  9  2  0
  8  1  1  0
 18 11  1  0
 24 25  1  0
 15 20  1  0
 17 21  1  0
 19 22  1  0
  7 10  1  0
M  END
> <minimizedAffinity>
28.67239

> <CNNscore>
0.5581068993

> <CNNaffinity>
5.7235579491

> <CNN_VS>
3.1943571568

> <CNNaffinity_variance>
0.8428573608

$$$$



 30 31  0  0  0  0  0  0  0  0999 V2000
   36.0075   24.6283   31.1689 C   0  0  0  0  0  0  0  0  0  0  0  0
   35.8979   24.0447   29.9673 C   0  0  0  0  0  0  0  0  0  0  0  0
   37.0362   23.7597   29.2915 F   0  0  0  0  0  0  0  0  0  0  0  0
   34.6789   23.7589   29.3811 N   0  0  0  0  0  0  0  0  0  0  0  0
   33.4970   24.1687   29.9597 C   0  0  0  0  0  0  0  0  0  0  0  0
   32.4159   24.1201   29.3748 O   0  0  0  0  0  0  0  0  0  0  0  0
   33.5893   24.6823   31.2187 N   0  0  0  0  0  0  0  0  0  0  0  0
   34.7511   24.9892   31.8685 C   0  0  0  0  0  0  0  0  0  0  0  0
   34.7328   25.5578   32.9551 O   0  0  0  0  0  0  0  0  0  0  0  0
   32.7469   24.8462   31.7009 H   0  0  0  0  0  0  0  0  0  0  0  0
   34.6060   23.1508   28.0503 C   0  0  0  0  0  0  0  0  0  0  0  0
   34.7825   24.1600   27.0584 O   0  0  0  0  0  0  0  0  0  0  0  0
   34.7785   23.6548   25.7147 C   0  0  0  0  0  0  0  0  0  0  0  0
   33.4403   22.9732   25.4097 C   0  0  0  0  0  0  0  0  0  0  0  0
   33.4411   22.4097   24.0963 O   0  0  0  0  0  0  0  0  0  0  0  0
   33.1930   21.8551   26.4227 C   0  0  0  0  0  0  0  0  0  0  0  0
   31.8972   21.2848   26.1788 O   0  0  0  0  0  0  0  0  0  0  0  0
   33.2853   22.3663   27.8614 C   0  0  0  0  0  0  0  0  0  0  0  0
   33.1521   21.2242   28.7286 O   0  0  0  0  0  0  0  0  0  0  0  0
   34.1391   21.7392   24.0326 H   0  0  0  0  0  0  0  0  0  0  0  0
   31.2172   21.9675   26.2904 H   0  0  0  0  0  0  0  0  0  0  0  0
   33.8511   20.5824   28.5276 H   0  0  0  0  0  0  0  0  0  0  0  0
   35.0326   24.8263   24.7528 C   0  0  0  0  0  0  0  0  0  0  0  0
   36.3314   24.7305   24.1600 O   0  0  0  0  0  0  0  0  0  0  0  0
   37.0071   24.7591   24.8554 H   0  0  0  0  0  0  0  0  0  0  0  0
   38.3400   25.1697   32.2423 C   0  0  0  0  0  0  0  0  0  0  0  0
   37.2740   24.9123   31.7514 C   0  0  0  0  0  0  0  0  0  0  0  0
   39.6420   25.5003   32.8392 C   0  0  0  0  0  0  0  0  0  0  0  0
   40.6436   26.6898   34.8539 C   0  0  0  0  0  0  0  0  0  0  0  0
   39.5577   26.6974   33.7859 C   0  0  0  0  0  0  0  0  0  0  0  0
 29 30  1  0
 30 28  1  0
 28 26  1  0
 26 27  3  0
 27  1  1  0
  1  2  2  0
  2  3  1  0
  2  4  1  0
 11  4  1  0
 11 12  1  0
 12 13  1  0
 13 23  1  0
 23 24  1  0
 13 14  1  0
 14 15  1  0
 14 16  1  0
 16 17  1  0
 16 18  1  0
 18 19  1  0
  4  5  1  0
  5  6  2  0
  5  7  1  0
  7  8  1  0
  8  9  2  0
  8  1  1  0
 18 11  1  0
 24 25  1  0
 15 20  1  0
 17 21  1  0
 19 22  1  0
  7 10  1  0
M  END
> <minimizedAffinity>
-9.62889

> <CNNscore>
0.3900068700

> <CNNaffinity>
4.5637297630

> <CNN_VS>
1.7798860073

> <CNNaffinity_variance>
0.7249352336

$$$$



 30 31  0  0  0  0  0  0  0  0999 V2000
   44.2963   19.0034   26.5414 C   0  0  0  0  0  0  0  0  0  0  0  0
   44.0608   19.4694   27.7758 C   0  0  0  0  0  0  0  0  0  0  0  0
   43.7394   18.5776   28.7427 F   0  0  0  0  0  0  0  0  0  0  0  0
   44.0970   20.8157   28.0885 N   0  0  0  0  0  0  0  0  0  0  0  0
   44.2672   21.7699   27.1088 C   0  0  0  0  0  0  0  0  0  0  0  0
   44.0980   22.9714   27.3112 O   0  0  0  0  0  0  0  0  0  0  0  0
   44.5946   21.3082   25.8690 N   0  0  0  0  0  0  0  0  0  0  0  0
   44.5869   19.9983   25.4812 C   0  0  0  0  0  0  0  0  0  0  0  0
   44.7825   19.6876   24.3110 O   0  0  0  0  0  0  0  0  0  0  0  0
   44.8593   21.9756   25.1954 H   0  0  0  0  0  0  0  0  0  0  0  0
   43.7995   21.2833   29.4445 C   0  0  0  0  0  0  0  0  0  0  0  0
   42.7242   22.2188   29.3974 O   0  0  0  0  0  0  0  0  0  0  0  0
   42.3213   22.6997   30.6887 C   0  0  0  0  0  0  0  0  0  0  0  0
   43.4904   23.4136   31.3757 C   0  0  0  0  0  0  0  0  0  0  0  0
   43.1255   23.8452   32.6884 O   0  0  0  0  0  0  0  0  0  0  0  0
   44.6792   22.4586   31.4864 C   0  0  0  0  0  0  0  0  0  0  0  0
   45.7939   23.1673   32.0513 O   0  0  0  0  0  0  0  0  0  0  0  0
   45.0589   21.8700   30.1267 C   0  0  0  0  0  0  0  0  0  0  0  0
   46.1042   20.9064   30.3566 O   0  0  0  0  0  0  0  0  0  0  0  0
   42.8876   23.0748   33.2276 H   0  0  0  0  0  0  0  0  0  0  0  0
   46.0356   23.9056   31.4706 H   0  0  0  0  0  0  0  0  0  0  0  0
   45.7867   20.2249   30.9694 H   0  0  0  0  0  0  0  0  0  0  0  0
   41.1270   23.6492   30.5041 C   0  0  0  0  0  0  0  0  0  0  0  0
   40.3603   23.7488   31.7082 O   0  0  0  0  0  0  0  0  0  0  0  0
   40.0160   22.8736   31.9456 H   0  0  0  0  0  0  0  0  0  0  0  0
   44.1992   16.4386   25.9956 C   0  0  0  0  0  0  0  0  0  0  0  0
   44.2533   17.6127   26.2444 C   0  0  0  0  0  0  0  0  0  0  0  0
   44.1173   15.0019   25.6958 C   0  0  0  0  0  0  0  0  0  0  0  0
   44.8546   14.5452   23.3031 C   0  0  0  0  0  0  0  0  0  0  0  0
   43.6811   14.7350   24.2554 C   0  0  0  0  0  0  0  0  0  0  0  0
 29 30  1  0
 30 28  1  0
 28 26  1  0
 26 27  3  0
 27  1  1  0
  1  2  2  0
  2  3  1  0
  2  4  1  0
 11  4  1  0
 11 12  1  0
 12 13  1  0
 13 23  1  0
 23 24  1  0
 13 14  1  0
 14 15  1  0
 14 16  1  0
 16 17  1  0
 16 18  1  0
 18 19  1  0
  4  5  1  0
  5  6  2  0
  5  7  1  0
  7  8  1  0
  8  9  2  0
  8  1  1  0
 18 11  1  0
 24 25  1  0
 15 20  1  0
 17 21  1  0
 19 22  1  0
  7 10  1  0
M  END
> <minimizedAffinity>
43.80425

> <CNNscore>
0.3714721501

> <CNNaffinity>
5.5378704071

> <CNN_VS>
2.0571646690

> <CNNaffinity_variance>
0.3176450431

$$$$



 30 31  0  0  0  0  0  0  0  0999 V2000
   36.0080   24.2896   30.4948 C   0  0  0  0  0  0  0  0  0  0  0  0
   35.3429   23.9308   29.3879 C   0  0  0  0  0  0  0  0  0  0  0  0
   36.0643   23.5720   28.2996 F   0  0  0  0  0  0  0  0  0  0  0  0
   33.9630   23.9480   29.3037 N   0  0  0  0  0  0  0  0  0  0  0  0
   33.1933   24.4509   30.3303 C   0  0  0  0  0  0  0  0  0  0  0  0
   31.9896   24.6758   30.2131 O   0  0  0  0  0  0  0  0  0  0  0  0
   33.8488   24.7353   31.4908 N   0  0  0  0  0  0  0  0  0  0  0  0
   35.2046   24.7380   31.6575 C   0  0  0  0  0  0  0  0  0  0  0  0
   35.7086   25.1218   32.7078 O   0  0  0  0  0  0  0  0  0  0  0  0
   33.2982   24.9579   32.2760 H   0  0  0  0  0  0  0  0  0  0  0  0
   33.2785   23.5798   28.0620 C   0  0  0  0  0  0  0  0  0  0  0  0
   32.0437   24.2878   27.9743 O   0  0  0  0  0  0  0  0  0  0  0  0
   31.3178   24.0332   26.7623 C   0  0  0  0  0  0  0  0  0  0  0  0
   30.9748   22.5435   26.6540 C   0  0  0  0  0  0  0  0  0  0  0  0
   30.3056   22.2611   25.4231 O   0  0  0  0  0  0  0  0  0  0  0  0
   32.2596   21.7170   26.7144 C   0  0  0  0  0  0  0  0  0  0  0  0
   31.9162   20.3220   26.7006 O   0  0  0  0  0  0  0  0  0  0  0  0
   33.0856   22.0476   27.9586 C   0  0  0  0  0  0  0  0  0  0  0  0
   34.3166   21.3065   27.8619 O   0  0  0  0  0  0  0  0  0  0  0  0
   30.8860   22.4887   24.6799 H   0  0  0  0  0  0  0  0  0  0  0  0
   31.3716   20.1154   27.4762 H   0  0  0  0  0  0  0  0  0  0  0  0
   34.7789   21.5526   27.0454 H   0  0  0  0  0  0  0  0  0  0  0  0
   30.0443   24.8934   26.7671 C   0  0  0  0  0  0  0  0  0  0  0  0
   29.8984   25.5866   28.0103 O   0  0  0  0  0  0  0  0  0  0  0  0
   29.8306   24.9433   28.7332 H   0  0  0  0  0  0  0  0  0  0  0  0
   38.6284   24.2454   30.6267 C   0  0  0  0  0  0  0  0  0  0  0  0
   37.4291   24.2634   30.5569 C   0  0  0  0  0  0  0  0  0  0  0  0
   40.0948   24.2298   30.7271 C   0  0  0  0  0  0  0  0  0  0  0  0
   42.0786   23.5218   32.1555 C   0  0  0  0  0  0  0  0  0  0  0  0
   40.5762   23.7660   32.1017 C   0  0  0  0  0  0  0  0  0  0  0  0
 29 30  1  0
 30 28  1  0
 28 26  1  0
 26 27  3  0
 27  1  1  0
  1  2  2  0
  2  3  1  0
  2  4  1  0
 11  4  1  0
 11 12  1  0
 12 13  1  0
 13 23  1  0
 23 24  1  0
 13 14  1  0
 14 15  1  0
 14 16  1  0
 16 17  1  0
 16 18  1  0
 18 19  1  0
  4  5  1  0
  5  6  2  0
  5  7  1  0
  7  8  1  0
  8  9  2  0
  8  1  1  0
 18 11  1  0
 24 25  1  0
 15 20  1  0
 17 21  1  0
 19 22  1  0
  7 10  1  0
M  END
> <minimizedAffinity>
-9.32321

> <CNNscore>
0.2690081596

> <CNNaffinity>
4.5112285614

> <CNN_VS>
1.2135572433

> <CNNaffinity_variance>
0.4780995846

$$$$



 30 31  0  0  0  0  0  0  0  0999 V2000
   36.0388   24.1329   30.3154 C   0  0  0  0  0  0  0  0  0  0  0  0
   37.3738   24.0416   30.3917 C   0  0  0  0  0  0  0  0  0  0  0  0
   37.9933   23.1120   29.6264 F   0  0  0  0  0  0  0  0  0  0  0  0
   38.1317   24.8269   31.2404 N   0  0  0  0  0  0  0  0  0  0  0  0
   37.5352   25.6764   32.1470 C   0  0  0  0  0  0  0  0  0  0  0  0
   38.1578   26.2298   33.0522 O   0  0  0  0  0  0  0  0  0  0  0  0
   36.1886   25.8435   32.0197 N   0  0  0  0  0  0  0  0  0  0  0  0
   35.3708   25.1135   31.2046 C   0  0  0  0  0  0  0  0  0  0  0  0
   34.1533   25.2565   31.2438 O   0  0  0  0  0  0  0  0  0  0  0  0
   35.7695   26.5508   32.5613 H   0  0  0  0  0  0  0  0  0  0  0  0
   39.5862   24.6696   31.3158 C   0  0  0  0  0  0  0  0  0  0  0  0
   40.0218   23.7923   30.2792 O   0  0  0  0  0  0  0  0  0  0  0  0
   41.4454   23.6128   30.2360 C   0  0  0  0  0  0  0  0  0  0  0  0
   41.9430   23.0107   31.5544 C   0  0  0  0  0  0  0  0  0  0  0  0
   43.3664   22.8822   31.5528 O   0  0  0  0  0  0  0  0  0  0  0  0
   41.5337   23.9155   32.7168 C   0  0  0  0  0  0  0  0  0  0  0  0
   41.9293   23.2950   33.9507 O   0  0  0  0  0  0  0  0  0  0  0  0
   40.0284   24.1867   32.7182 C   0  0  0  0  0  0  0  0  0  0  0  0
   39.7667   25.1312   33.7734 O   0  0  0  0  0  0  0  0  0  0  0  0
   43.7701   23.7587   31.4536 H   0  0  0  0  0  0  0  0  0  0  0  0
   41.4787   22.4409   34.0421 H   0  0  0  0  0  0  0  0  0  0  0  0
   40.2794   25.9399   33.6179 H   0  0  0  0  0  0  0  0  0  0  0  0
   41.7854   22.6980   29.0488 C   0  0  0  0  0  0  0  0  0  0  0  0
   42.4338   21.5020   29.4922 O   0  0  0  0  0  0  0  0  0  0  0  0
   43.2614   21.7310   29.9433 H   0  0  0  0  0  0  0  0  0  0  0  0
   34.6535   22.6221   28.6771 C   0  0  0  0  0  0  0  0  0  0  0  0
   35.2807   23.3133   29.4337 C   0  0  0  0  0  0  0  0  0  0  0  0
   33.8972   21.7797   27.7396 C   0  0  0  0  0  0  0  0  0  0  0  0
   33.2804   21.7517   25.2706 C   0  0  0  0  0  0  0  0  0  0  0  0
   33.3611   22.5750   26.5495 C   0  0  0  0  0  0  0  0  0  0  0  0
 29 30  1  0
 30 28  1  0
 28 26  1  0
 26 27  3  0
 27  1  1  0
  1  2  2  0
  2  3  1  0
  2  4  1  0
 11  4  1  0
 11 12  1  0
 12 13  1  0
 13 23  1  0
 23 24  1  0
 13 14  1  0
 14 15  1  0
 14 16  1  0
 16 17  1  0
 16 18  1  0
 18 19  1  0
  4  5  1  0
  5  6  2  0
  5  7  1  0
  7  8  1  0
  8  9  2  0
  8  1  1  0
 18 11  1  0
 24 25  1  0
 15 20  1  0
 17 21  1  0
 19 22  1  0
  7 10  1  0
M  END
> <minimizedAffinity>
-7.67852

> <CNNscore>
0.2508374155

> <CNNaffinity>
4.8833637238

> <CNN_VS>
1.2249302864

> <CNNaffinity_variance>
0.3691447675

$$$$



 30 31  0  0  0  0  0  0  0  0999 V2000
   37.7237   24.3278   30.9626 C   0  0  0  0  0  0  0  0  0  0  0  0
   36.7974   23.9506   30.0704 C   0  0  0  0  0  0  0  0  0  0  0  0
   37.2138   23.3111   28.9518 F   0  0  0  0  0  0  0  0  0  0  0  0
   35.4505   24.2191   30.2289 N   0  0  0  0  0  0  0  0  0  0  0  0
   34.9978   24.9991   31.2711 C   0  0  0  0  0  0  0  0  0  0  0  0
   33.8475   25.4311   31.3303 O   0  0  0  0  0  0  0  0  0  0  0  0
   35.9138   25.3135   32.2299 N   0  0  0  0  0  0  0  0  0  0  0  0
   37.2576   25.0805   32.1520 C   0  0  0  0  0  0  0  0  0  0  0  0
   38.0206   25.5048   33.0135 O   0  0  0  0  0  0  0  0  0  0  0  0
   35.5785   25.7453   33.0486 H   0  0  0  0  0  0  0  0  0  0  0  0
   34.4764   23.8174   29.2112 C   0  0  0  0  0  0  0  0  0  0  0  0
   35.0169   24.0647   27.9149 O   0  0  0  0  0  0  0  0  0  0  0  0
   34.1546   23.6551   26.8428 C   0  0  0  0  0  0  0  0  0  0  0  0
   32.8256   24.4149   26.9131 C   0  0  0  0  0  0  0  0  0  0  0  0
   31.9305   23.9751   25.8894 O   0  0  0  0  0  0  0  0  0  0  0  0
   32.1705   24.1751   28.2735 C   0  0  0  0  0  0  0  0  0  0  0  0
   30.9717   24.9624   28.3575 O   0  0  0  0  0  0  0  0  0  0  0  0
   33.1157   24.5235   29.4245 C   0  0  0  0  0  0  0  0  0  0  0  0
   32.4501   24.1572   30.6479 O   0  0  0  0  0  0  0  0  0  0  0  0
   31.7415   23.0312   26.0088 H   0  0  0  0  0  0  0  0  0  0  0  0
   31.1961   25.9027   28.2769 H   0  0  0  0  0  0  0  0  0  0  0  0
   32.2369   23.2111   30.6293 H   0  0  0  0  0  0  0  0  0  0  0  0
   34.8728   23.9221   25.5105 C   0  0  0  0  0  0  0  0  0  0  0  0
   36.0630   24.6899   25.7145 O   0  0  0  0  0  0  0  0  0  0  0  0
   35.8322   25.5452   26.1096 H   0  0  0  0  0  0  0  0  0  0  0  0
   40.2695   23.7840   30.6332 C   0  0  0  0  0  0  0  0  0  0  0  0
   39.1044   24.0395   30.7770 C   0  0  0  0  0  0  0  0  0  0  0  0
   41.6946   23.4622   30.4709 C   0  0  0  0  0  0  0  0  0  0  0  0
   41.5207   23.5298   33.0091 C   0  0  0  0  0  0  0  0  0  0  0  0
   42.4472   23.4791   31.8012 C   0  0  0  0  0  0  0  0  0  0  0  0
 29 30  1  0
 30 28  1  0
 28 26  1  0
 26 27  3  0
 27  1  1  0
  1  2  2  0
  2  3  1  0
  2  4  1  0
 11  4  1  0
 11 12  1  0
 12 13  1  0
 13 23  1  0
 23 24  1  0
 13 14  1  0
 14 15  1  0
 14 16  1  0
 16 17  1  0
 16 18  1  0
 18 19  1  0
  4  5  1  0
  5  6  2  0
  5  7  1  0
  7  8  1  0
  8  9  2  0
  8  1  1  0
 18 11  1  0
 24 25  1  0
 15 20  1  0
 17 21  1  0
 19 22  1  0
  7 10  1  0
M  END
> <minimizedAffinity>
-9.86800

> <CNNscore>
0.2478647381

> <CNNaffinity>
4.4841580391

> <CNN_VS>
1.1114646196

> <CNNaffinity_variance>
0.7048457265

$$$$



 30 31  0  0  0  0  0  0  0  0999 V2000
   42.9578   26.7993   19.7337 C   0  0  0  0  0  0  0  0  0  0  0  0
   42.9856   27.8679   18.9252 C   0  0  0  0  0  0  0  0  0  0  0  0
   41.8063   28.3508   18.4672 F   0  0  0  0  0  0  0  0  0  0  0  0
   44.1620   28.4674   18.5152 N   0  0  0  0  0  0  0  0  0  0  0  0
   45.3872   27.9202   18.8294 C   0  0  0  0  0  0  0  0  0  0  0  0
   46.4385   28.2989   18.3152 O   0  0  0  0  0  0  0  0  0  0  0  0
   45.3754   26.8891   19.7206 N   0  0  0  0  0  0  0  0  0  0  0  0
   44.2600   26.2459   20.1769 C   0  0  0  0  0  0  0  0  0  0  0  0
   44.3542   25.2510   20.8880 O   0  0  0  0  0  0  0  0  0  0  0  0
   46.2449   26.5816   20.0649 H   0  0  0  0  0  0  0  0  0  0  0  0
   44.1463   29.6137   17.6031 C   0  0  0  0  0  0  0  0  0  0  0  0
   44.8409   30.7052   18.2027 O   0  0  0  0  0  0  0  0  0  0  0  0
   44.9260   31.8661   17.3624 C   0  0  0  0  0  0  0  0  0  0  0  0
   43.5218   32.3770   17.0222 C   0  0  0  0  0  0  0  0  0  0  0  0
   43.5858   33.4960   16.1355 O   0  0  0  0  0  0  0  0  0  0  0  0
   42.7212   31.2625   16.3482 C   0  0  0  0  0  0  0  0  0  0  0  0
   41.3820   31.7273   16.1155 O   0  0  0  0  0  0  0  0  0  0  0  0
   42.7012   29.9896   17.1961 C   0  0  0  0  0  0  0  0  0  0  0  0
   42.0258   28.9763   16.4273 O   0  0  0  0  0  0  0  0  0  0  0  0
   44.0150   33.2285   15.3078 H   0  0  0  0  0  0  0  0  0  0  0  0
   40.9643   31.9474   16.9629 H   0  0  0  0  0  0  0  0  0  0  0  0
   42.4920   28.8434   15.5871 H   0  0  0  0  0  0  0  0  0  0  0  0
   45.7410   32.9415   18.0980 C   0  0  0  0  0  0  0  0  0  0  0  0
   45.3228   33.0587   19.4614 O   0  0  0  0  0  0  0  0  0  0  0  0
   44.3879   33.3154   19.4919 H   0  0  0  0  0  0  0  0  0  0  0  0
   40.7056   25.6781   20.4794 C   0  0  0  0  0  0  0  0  0  0  0  0
   41.7338   26.1998   20.1418 C   0  0  0  0  0  0  0  0  0  0  0  0
   39.4514   25.0265   20.8836 C   0  0  0  0  0  0  0  0  0  0  0  0
   37.7334   23.6663   19.5893 C   0  0  0  0  0  0  0  0  0  0  0  0
   39.1728   23.7573   20.0789 C   0  0  0  0  0  0  0  0  0  0  0  0
 29 30  1  0
 30 28  1  0
 28 26  1  0
 26 27  3  0
 27  1  1  0
  1  2  2  0
  2  3  1  0
  2  4  1  0
 11  4  1  0
 11 12  1  0
 12 13  1  0
 13 23  1  0
 23 24  1  0
 13 14  1  0
 14 15  1  0
 14 16  1  0
 16 17  1  0
 16 18  1  0
 18 19  1  0
  4  5  1  0
  5  6  2  0
  5  7  1  0
  7  8  1  0
  8  9  2  0
  8  1  1  0
 18 11  1  0
 24 25  1  0
 15 20  1  0
 17 21  1  0
 19 22  1  0
  7 10  1  0
M  END
> <minimizedAffinity>
11.16578

> <CNNscore>
0.2475055307

> <CNNaffinity>
4.5182414055

> <CNN_VS>
1.1182897091

> <CNNaffinity_variance>
0.3077607453

$$$$
