


 29 30  0  0  0  0  0  0  0  0999 V2000
  -23.1411  -33.4940   15.4718 C   0  0  0  0  0  0  0  0  0  0  0  0
  -24.1881  -34.5799   15.7010 C   0  0  0  0  0  0  0  0  0  0  0  0
  -25.4726  -33.7884   15.6035 C   0  0  0  0  0  0  0  0  0  0  0  0
  -25.0866  -32.4832   16.3052 C   0  0  0  0  0  0  0  0  0  0  0  0
  -23.6824  -32.2791   16.0261 O   0  0  0  0  0  0  0  0  0  0  0  0
  -18.1615  -33.5608   15.2117 C   0  0  0  0  0  0  0  0  0  0  0  0
  -19.4626  -33.8273   15.8946 C   0  0  0  0  0  0  0  0  0  0  0  0
  -20.6638  -33.5540   15.3697 C   0  0  0  0  0  0  0  0  0  0  0  0
  -21.8430  -33.8226   16.0364 N   0  0  0  0  0  0  0  0  0  0  0  0
  -21.8472  -34.3867   17.3065 C   0  0  0  0  0  0  0  0  0  0  0  0
  -22.8737  -34.6035   17.9484 O   0  0  0  0  0  0  0  0  0  0  0  0
  -20.6201  -34.6853   17.8301 N   0  0  0  0  0  0  0  0  0  0  0  0
  -19.4131  -34.4349   17.2444 C   0  0  0  0  0  0  0  0  0  0  0  0
  -18.3536  -34.6912   17.8042 O   0  0  0  0  0  0  0  0  0  0  0  0
  -20.6059  -35.1220   18.7123 H   0  0  0  0  0  0  0  0  0  0  0  0
  -25.7224  -33.5800   14.2038 O   0  0  0  0  0  0  0  0  0  0  0  0
  -26.1052  -32.2596   13.8746 C   0  0  0  0  0  0  0  0  0  0  0  0
  -25.4018  -31.7489   12.6367 N   0  0  0  0  0  0  0  0  0  0  0  0
  -24.5114  -30.5748   13.0128 C   0  0  0  0  0  0  0  0  0  0  0  0
  -26.4406  -31.2841   11.6270 C   0  0  0  0  0  0  0  0  0  0  0  0
  -24.5608  -32.8554   12.0311 C   0  0  0  0  0  0  0  0  0  0  0  0
  -25.2876  -32.5483   17.8228 C   0  0  0  0  0  0  0  0  0  0  0  0
  -26.6818  -32.5608   18.0932 O   0  0  0  0  0  0  0  0  0  0  0  0
  -27.3796  -31.1874   18.5157 P   0  0  0  0  0  0  0  0  0  0  0  0
  -28.2971  -30.5883   17.5091 O   0  0  0  0  0  0  0  0  0  0  0  0
  -26.2098  -30.1912   18.9420 O   0  0  0  0  0  0  0  0  0  0  0  0
  -28.1253  -31.4898   19.8931 O   0  0  0  0  0  0  0  0  0  0  0  0
  -25.6922  -29.9464   18.1590 H   0  0  0  0  0  0  0  0  0  0  0  0
  -28.8647  -32.0972   19.7340 H   0  0  0  0  0  0  0  0  0  0  0  0
  6  7  1  0
  7  8  2  0
  8  9  1  0
  1  9  1  0
  1  2  1  0
  2  3  1  0
  3 16  1  0
 16 17  1  0
 17 18  1  0
 18 19  1  0
 18 20  1  0
 18 21  1  0
  3  4  1  0
  4 22  1  0
 22 23  1  0
 23 24  1  0
 24 25  2  0
 24 26  1  0
 24 27  1  0
  4  5  1  0
  9 10  1  0
 10 11  2  0
 10 12  1  0
 12 13  1  0
 13 14  2  0
 13  7  1  0
  5  1  1  0
 26 28  1  0
 27 29  1  0
 12 15  1  0
M  CHG 1  18   1
M  END
> <minimizedAffinity>
-6.65896

> <CNNscore>
0.8344852924

> <CNNaffinity>
5.2726378441

> <CNN_VS>
4.3999385834

> <CNNaffinity_variance>
0.0100830430

$$$$



 29 30  0  0  0  0  0  0  0  0999 V2000
  -23.3949  -33.2374   16.7196 C   0  0  0  0  0  0  0  0  0  0  0  0
  -23.7761  -32.1896   15.6783 C   0  0  0  0  0  0  0  0  0  0  0  0
  -25.2615  -32.4316   15.5339 C   0  0  0  0  0  0  0  0  0  0  0  0
  -25.3366  -33.9588   15.6193 C   0  0  0  0  0  0  0  0  0  0  0  0
  -24.2700  -34.3625   16.5086 O   0  0  0  0  0  0  0  0  0  0  0  0
  -19.0159  -33.4146   14.3399 C   0  0  0  0  0  0  0  0  0  0  0  0
  -19.9062  -33.6730   15.5107 C   0  0  0  0  0  0  0  0  0  0  0  0
  -21.2057  -33.3533   15.5597 C   0  0  0  0  0  0  0  0  0  0  0  0
  -21.9929  -33.6161   16.6635 N   0  0  0  0  0  0  0  0  0  0  0  0
  -21.4716  -34.2229   17.7998 C   0  0  0  0  0  0  0  0  0  0  0  0
  -22.1300  -34.4369   18.8164 O   0  0  0  0  0  0  0  0  0  0  0  0
  -20.1503  -34.5687   17.7379 N   0  0  0  0  0  0  0  0  0  0  0  0
  -19.3038  -34.3274   16.6950 C   0  0  0  0  0  0  0  0  0  0  0  0
  -18.1166  -34.6279   16.7388 O   0  0  0  0  0  0  0  0  0  0  0  0
  -19.7743  -35.0354   18.5189 H   0  0  0  0  0  0  0  0  0  0  0  0
  -25.8920  -31.8092   16.6653 O   0  0  0  0  0  0  0  0  0  0  0  0
  -27.2973  -31.9576   16.6989 C   0  0  0  0  0  0  0  0  0  0  0  0
  -27.8279  -32.0897   18.1092 N   0  0  0  0  0  0  0  0  0  0  0  0
  -29.3060  -32.4434   18.0594 C   0  0  0  0  0  0  0  0  0  0  0  0
  -27.6564  -30.7632   18.8343 C   0  0  0  0  0  0  0  0  0  0  0  0
  -27.0665  -33.1751   18.8443 C   0  0  0  0  0  0  0  0  0  0  0  0
  -25.1336  -34.6358   14.2599 C   0  0  0  0  0  0  0  0  0  0  0  0
  -26.3281  -35.3222   13.9147 O   0  0  0  0  0  0  0  0  0  0  0  0
  -26.7184  -36.6239   14.7544 P   0  0  0  0  0  0  0  0  0  0  0  0
  -25.7929  -37.7817   14.6256 O   0  0  0  0  0  0  0  0  0  0  0  0
  -28.2168  -36.9949   14.3545 O   0  0  0  0  0  0  0  0  0  0  0  0
  -26.8518  -36.1357   16.2673 O   0  0  0  0  0  0  0  0  0  0  0  0
  -28.2384  -37.3074   13.4364 H   0  0  0  0  0  0  0  0  0  0  0  0
  -25.9776  -35.8843   16.6042 H   0  0  0  0  0  0  0  0  0  0  0  0
  6  7  1  0
  7  8  2  0
  8  9  1  0
  1  9  1  0
  1  2  1  0
  2  3  1  0
  3 16  1  0
 16 17  1  0
 17 18  1  0
 18 19  1  0
 18 20  1  0
 18 21  1  0
  3  4  1  0
  4 22  1  0
 22 23  1  0
 23 24  1  0
 24 25  2  0
 24 26  1  0
 24 27  1  0
  4  5  1  0
  9 10  1  0
 10 11  2  0
 10 12  1  0
 12 13  1  0
 13 14  2  0
 13  7  1  0
  5  1  1  0
 26 28  1  0
 27 29  1  0
 12 15  1  0
M  CHG 1  18   1
M  END
> <minimizedAffinity>
-5.90058

> <CNNscore>
0.7264460921

> <CNNaffinity>
5.1884465218

> <CNN_VS>
3.7691266537

> <CNNaffinity_variance>
0.0782876238

$$$$



 29 30  0  0  0  0  0  0  0  0999 V2000
  -26.5118  -32.4343   16.5989 C   0  0  0  0  0  0  0  0  0  0  0  0
  -27.6568  -33.4418   16.5618 C   0  0  0  0  0  0  0  0  0  0  0  0
  -28.8630  -32.5302   16.5534 C   0  0  0  0  0  0  0  0  0  0  0  0
  -28.4200  -31.4208   17.5116 C   0  0  0  0  0  0  0  0  0  0  0  0
  -26.9882  -31.2996   17.3483 O   0  0  0  0  0  0  0  0  0  0  0  0
  -21.5548  -32.9757   16.5368 C   0  0  0  0  0  0  0  0  0  0  0  0
  -22.9125  -33.2111   17.1123 C   0  0  0  0  0  0  0  0  0  0  0  0
  -24.0499  -32.7343   16.5904 C   0  0  0  0  0  0  0  0  0  0  0  0
  -25.2857  -32.9818   17.1547 N   0  0  0  0  0  0  0  0  0  0  0  0
  -25.4170  -33.7377   18.3134 C   0  0  0  0  0  0  0  0  0  0  0  0
  -26.4948  -33.9464   18.8680 O   0  0  0  0  0  0  0  0  0  0  0  0
  -24.2564  -34.2420   18.8309 N   0  0  0  0  0  0  0  0  0  0  0  0
  -22.9993  -34.0281   18.3447 C   0  0  0  0  0  0  0  0  0  0  0  0
  -22.0031  -34.4791   18.8978 O   0  0  0  0  0  0  0  0  0  0  0  0
  -24.3348  -34.8129   19.6290 H   0  0  0  0  0  0  0  0  0  0  0  0
  -29.0002  -32.0414   15.2090 O   0  0  0  0  0  0  0  0  0  0  0  0
  -30.3371  -31.8170   14.8084 C   0  0  0  0  0  0  0  0  0  0  0  0
  -30.6318  -30.3503   14.5849 N   0  0  0  0  0  0  0  0  0  0  0  0
  -31.5545  -30.1999   13.3856 C   0  0  0  0  0  0  0  0  0  0  0  0
  -29.3290  -29.6151   14.3075 C   0  0  0  0  0  0  0  0  0  0  0  0
  -31.2948  -29.7666   15.8170 C   0  0  0  0  0  0  0  0  0  0  0  0
  -28.7273  -31.7497   18.9762 C   0  0  0  0  0  0  0  0  0  0  0  0
  -29.5763  -30.7373   19.4974 O   0  0  0  0  0  0  0  0  0  0  0  0
  -28.9974  -29.2526   19.6091 P   0  0  0  0  0  0  0  0  0  0  0  0
  -29.2788  -28.3571   18.4548 O   0  0  0  0  0  0  0  0  0  0  0  0
  -27.4369  -29.3904   19.9064 O   0  0  0  0  0  0  0  0  0  0  0  0
  -29.5810  -28.6651   20.9726 O   0  0  0  0  0  0  0  0  0  0  0  0
  -26.9886  -29.7458   19.1230 H   0  0  0  0  0  0  0  0  0  0  0  0
  -30.5398  -28.5446   20.8886 H   0  0  0  0  0  0  0  0  0  0  0  0
  6  7  1  0
  7  8  2  0
  8  9  1  0
  1  9  1  0
  1  2  1  0
  2  3  1  0
  3 16  1  0
 16 17  1  0
 17 18  1  0
 18 19  1  0
 18 20  1  0
 18 21  1  0
  3  4  1  0
  4 22  1  0
 22 23  1  0
 23 24  1  0
 24 25  2  0
 24 26  1  0
 24 27  1  0
  4  5  1  0
  9 10  1  0
 10 11  2  0
 10 12  1  0
 12 13  1  0
 13 14  2  0
 13  7  1  0
  5  1  1  0
 26 28  1  0
 27 29  1  0
 12 15  1  0
M  CHG 1  18   1
M  END
> <minimizedAffinity>
-6.93442

> <CNNscore>
0.6585783958

> <CNNaffinity>
4.3597865105

> <CNN_VS>
2.8712611198

> <CNNaffinity_variance>
0.4465823174

$$$$



 29 30  0  0  0  0  0  0  0  0999 V2000
  -24.9908  -33.2728   17.3381 C   0  0  0  0  0  0  0  0  0  0  0  0
  -25.4231  -32.2635   16.2789 C   0  0  0  0  0  0  0  0  0  0  0  0
  -26.8853  -32.6087   16.1095 C   0  0  0  0  0  0  0  0  0  0  0  0
  -26.8568  -34.1366   16.2097 C   0  0  0  0  0  0  0  0  0  0  0  0
  -25.7822  -34.4575   17.1228 O   0  0  0  0  0  0  0  0  0  0  0  0
  -20.6336  -33.5057   14.9237 C   0  0  0  0  0  0  0  0  0  0  0  0
  -21.4912  -33.6412   16.1387 C   0  0  0  0  0  0  0  0  0  0  0  0
  -22.8102  -33.4115   16.1648 C   0  0  0  0  0  0  0  0  0  0  0  0
  -23.5653  -33.5545   17.3121 N   0  0  0  0  0  0  0  0  0  0  0  0
  -22.9898  -33.9377   18.5176 C   0  0  0  0  0  0  0  0  0  0  0  0
  -23.6209  -34.0369   19.5686 O   0  0  0  0  0  0  0  0  0  0  0  0
  -21.6473  -34.1934   18.4824 N   0  0  0  0  0  0  0  0  0  0  0  0
  -20.8308  -34.0580   17.3973 C   0  0  0  0  0  0  0  0  0  0  0  0
  -19.6243  -34.2623   17.4623 O   0  0  0  0  0  0  0  0  0  0  0  0
  -21.2304  -34.5045   19.3183 H   0  0  0  0  0  0  0  0  0  0  0  0
  -27.5787  -32.0208   17.2223 O   0  0  0  0  0  0  0  0  0  0  0  0
  -28.5496  -31.0604   16.8573 C   0  0  0  0  0  0  0  0  0  0  0  0
  -29.4828  -30.7236   17.9990 N   0  0  0  0  0  0  0  0  0  0  0  0
  -28.7593  -29.8279   18.9923 C   0  0  0  0  0  0  0  0  0  0  0  0
  -29.9013  -32.0084   18.6984 C   0  0  0  0  0  0  0  0  0  0  0  0
  -30.7095  -30.0101   17.4657 C   0  0  0  0  0  0  0  0  0  0  0  0
  -26.5815  -34.8105   14.8615 C   0  0  0  0  0  0  0  0  0  0  0  0
  -27.7719  -35.4510   14.4258 O   0  0  0  0  0  0  0  0  0  0  0  0
  -27.6391  -36.6807   13.4148 P   0  0  0  0  0  0  0  0  0  0  0  0
  -28.8406  -37.5487   13.2861 O   0  0  0  0  0  0  0  0  0  0  0  0
  -26.3423  -37.4977   13.8549 O   0  0  0  0  0  0  0  0  0  0  0  0
  -27.2146  -36.0430   12.0155 O   0  0  0  0  0  0  0  0  0  0  0  0
  -26.5057  -37.9281   14.7087 H   0  0  0  0  0  0  0  0  0  0  0  0
  -27.9505  -35.5188   11.6626 H   0  0  0  0  0  0  0  0  0  0  0  0
  6  7  1  0
  7  8  2  0
  8  9  1  0
  1  9  1  0
  1  2  1  0
  2  3  1  0
  3 16  1  0
 16 17  1  0
 17 18  1  0
 18 19  1  0
 18 20  1  0
 18 21  1  0
  3  4  1  0
  4 22  1  0
 22 23  1  0
 23 24  1  0
 24 25  2  0
 24 26  1  0
 24 27  1  0
  4  5  1  0
  9 10  1  0
 10 11  2  0
 10 12  1  0
 12 13  1  0
 13 14  2  0
 13  7  1  0
  5  1  1  0
 26 28  1  0
 27 29  1  0
 12 15  1  0
M  CHG 1  18   1
M  END
> <minimizedAffinity>
-5.61159

> <CNNscore>
0.6519400477

> <CNNaffinity>
5.0957608223

> <CNN_VS>
3.3221304417

> <CNNaffinity_variance>
0.0353441425

$$$$



 29 30  0  0  0  0  0  0  0  0999 V2000
  -22.1331  -34.0282   15.7474 C   0  0  0  0  0  0  0  0  0  0  0  0
  -22.5915  -32.5817   15.9063 C   0  0  0  0  0  0  0  0  0  0  0  0
  -23.7250  -32.5112   14.9083 C   0  0  0  0  0  0  0  0  0  0  0  0
  -23.1773  -33.3591   13.7566 C   0  0  0  0  0  0  0  0  0  0  0  0
  -22.3537  -34.3789   14.3674 O   0  0  0  0  0  0  0  0  0  0  0  0
  -17.2333  -33.5219   14.9698 C   0  0  0  0  0  0  0  0  0  0  0  0
  -18.4159  -33.9688   15.7647 C   0  0  0  0  0  0  0  0  0  0  0  0
  -19.6897  -33.8044   15.3859 C   0  0  0  0  0  0  0  0  0  0  0  0
  -20.7533  -34.2388   16.1521 N   0  0  0  0  0  0  0  0  0  0  0  0
  -20.5581  -34.8669   17.3763 C   0  0  0  0  0  0  0  0  0  0  0  0
  -21.4791  -35.2315   18.1054 O   0  0  0  0  0  0  0  0  0  0  0  0
  -19.2563  -35.0536   17.7495 N   0  0  0  0  0  0  0  0  0  0  0  0
  -18.1543  -34.6384   17.0598 C   0  0  0  0  0  0  0  0  0  0  0  0
  -17.0185  -34.8037   17.4890 O   0  0  0  0  0  0  0  0  0  0  0  0
  -19.0989  -35.5325   18.5952 H   0  0  0  0  0  0  0  0  0  0  0  0
  -24.8600  -33.1365   15.5294 O   0  0  0  0  0  0  0  0  0  0  0  0
  -25.3925  -32.4147   16.6219 C   0  0  0  0  0  0  0  0  0  0  0  0
  -25.9393  -33.3240   17.6999 N   0  0  0  0  0  0  0  0  0  0  0  0
  -26.6749  -34.4865   17.0517 C   0  0  0  0  0  0  0  0  0  0  0  0
  -26.9116  -32.5406   18.5692 C   0  0  0  0  0  0  0  0  0  0  0  0
  -24.8020  -33.8501   18.5530 C   0  0  0  0  0  0  0  0  0  0  0  0
  -22.3198  -32.5455   12.7817 C   0  0  0  0  0  0  0  0  0  0  0  0
  -21.9434  -33.3871   11.7014 O   0  0  0  0  0  0  0  0  0  0  0  0
  -21.8127  -32.7353   10.2488 P   0  0  0  0  0  0  0  0  0  0  0  0
  -20.4572  -32.2491    9.8745 O   0  0  0  0  0  0  0  0  0  0  0  0
  -22.9167  -31.5880   10.1604 O   0  0  0  0  0  0  0  0  0  0  0  0
  -22.3490  -33.8409    9.2315 O   0  0  0  0  0  0  0  0  0  0  0  0
  -22.6746  -30.8599   10.7538 H   0  0  0  0  0  0  0  0  0  0  0  0
  -21.7342  -34.5910    9.2156 H   0  0  0  0  0  0  0  0  0  0  0  0
  6  7  1  0
  7  8  2  0
  8  9  1  0
  1  9  1  0
  1  2  1  0
  2  3  1  0
  3 16  1  0
 16 17  1  0
 17 18  1  0
 18 19  1  0
 18 20  1  0
 18 21  1  0
  3  4  1  0
  4 22  1  0
 22 23  1  0
 23 24  1  0
 24 25  2  0
 24 26  1  0
 24 27  1  0
  4  5  1  0
  9 10  1  0
 10 11  2  0
 10 12  1  0
 12 13  1  0
 13 14  2  0
 13  7  1  0
  5  1  1  0
 26 28  1  0
 27 29  1  0
 12 15  1  0
M  CHG 1  18   1
M  END
> <minimizedAffinity>
-6.11361

> <CNNscore>
0.6317214370

> <CNNaffinity>
4.8801894188

> <CNN_VS>
3.0829203129

> <CNNaffinity_variance>
0.1901520491

$$$$



 29 30  0  0  0  0  0  0  0  0999 V2000
  -21.7030  -34.3169   14.5246 C   0  0  0  0  0  0  0  0  0  0  0  0
  -21.8873  -33.0730   13.6608 C   0  0  0  0  0  0  0  0  0  0  0  0
  -20.9447  -33.3577   12.5135 C   0  0  0  0  0  0  0  0  0  0  0  0
  -19.7660  -34.0159   13.2366 C   0  0  0  0  0  0  0  0  0  0  0  0
  -20.3342  -34.7342   14.3559 O   0  0  0  0  0  0  0  0  0  0  0  0
  -24.8364  -32.7091   18.0553 C   0  0  0  0  0  0  0  0  0  0  0  0
  -23.5640  -33.3377   17.5904 C   0  0  0  0  0  0  0  0  0  0  0  0
  -23.2323  -33.5164   16.3054 C   0  0  0  0  0  0  0  0  0  0  0  0
  -22.0407  -34.0989   15.9212 N   0  0  0  0  0  0  0  0  0  0  0  0
  -21.1159  -34.5465   16.8569 C   0  0  0  0  0  0  0  0  0  0  0  0
  -20.0629  -35.1060   16.5552 O   0  0  0  0  0  0  0  0  0  0  0  0
  -21.4473  -34.3420   18.1674 N   0  0  0  0  0  0  0  0  0  0  0  0
  -22.6090  -33.7927   18.6270 C   0  0  0  0  0  0  0  0  0  0  0  0
  -22.8495  -33.6885   19.8241 O   0  0  0  0  0  0  0  0  0  0  0  0
  -20.7859  -34.6169   18.8429 H   0  0  0  0  0  0  0  0  0  0  0  0
  -21.6177  -34.2874   11.6488 O   0  0  0  0  0  0  0  0  0  0  0  0
  -21.0575  -34.3837   10.3545 C   0  0  0  0  0  0  0  0  0  0  0  0
  -22.1135  -34.4188    9.2722 N   0  0  0  0  0  0  0  0  0  0  0  0
  -21.4451  -34.6414    7.9245 C   0  0  0  0  0  0  0  0  0  0  0  0
  -22.8510  -33.0882    9.2497 C   0  0  0  0  0  0  0  0  0  0  0  0
  -23.0944  -35.5412    9.5486 C   0  0  0  0  0  0  0  0  0  0  0  0
  -18.7533  -32.9941   13.7640 C   0  0  0  0  0  0  0  0  0  0  0  0
  -17.4553  -33.5658   13.6900 O   0  0  0  0  0  0  0  0  0  0  0  0
  -16.8058  -34.1365   15.0332 P   0  0  0  0  0  0  0  0  0  0  0  0
  -16.8571  -35.6138   15.2029 O   0  0  0  0  0  0  0  0  0  0  0  0
  -17.4977  -33.3606   16.2423 O   0  0  0  0  0  0  0  0  0  0  0  0
  -15.3080  -33.5881   15.0534 O   0  0  0  0  0  0  0  0  0  0  0  0
  -18.4265  -33.6319   16.3113 H   0  0  0  0  0  0  0  0  0  0  0  0
  -14.8000  -34.0087   14.3421 H   0  0  0  0  0  0  0  0  0  0  0  0
  6  7  1  0
  7  8  2  0
  8  9  1  0
  1  9  1  0
  1  2  1  0
  2  3  1  0
  3 16  1  0
 16 17  1  0
 17 18  1  0
 18 19  1  0
 18 20  1  0
 18 21  1  0
  3  4  1  0
  4 22  1  0
 22 23  1  0
 23 24  1  0
 24 25  2  0
 24 26  1  0
 24 27  1  0
  4  5  1  0
  9 10  1  0
 10 11  2  0
 10 12  1  0
 12 13  1  0
 13 14  2  0
 13  7  1  0
  5  1  1  0
 26 28  1  0
 27 29  1  0
 12 15  1  0
M  CHG 1  18   1
M  END
> <minimizedAffinity>
-6.03612

> <CNNscore>
0.6312655210

> <CNNaffinity>
4.6297717094

> <CNN_VS>
2.9226152897

> <CNNaffinity_variance>
0.1704976112

$$$$



 29 30  0  0  0  0  0  0  0  0999 V2000
  -24.7474  -33.8532   16.8491 C   0  0  0  0  0  0  0  0  0  0  0  0
  -25.2206  -32.5292   16.2569 C   0  0  0  0  0  0  0  0  0  0  0  0
  -26.5620  -32.9179   15.6777 C   0  0  0  0  0  0  0  0  0  0  0  0
  -26.2673  -34.3148   15.1234 C   0  0  0  0  0  0  0  0  0  0  0  0
  -25.2754  -34.8929   16.0028 O   0  0  0  0  0  0  0  0  0  0  0  0
  -20.1725  -33.7815   14.8657 C   0  0  0  0  0  0  0  0  0  0  0  0
  -21.1255  -33.8818   16.0111 C   0  0  0  0  0  0  0  0  0  0  0  0
  -22.4586  -33.8347   15.8940 C   0  0  0  0  0  0  0  0  0  0  0  0
  -23.3027  -33.9365   16.9823 N   0  0  0  0  0  0  0  0  0  0  0  0
  -22.8093  -34.0836   18.2731 C   0  0  0  0  0  0  0  0  0  0  0  0
  -23.5267  -34.1373   19.2708 O   0  0  0  0  0  0  0  0  0  0  0  0
  -21.4488  -34.1542   18.3867 N   0  0  0  0  0  0  0  0  0  0  0  0
  -20.5496  -34.0435   17.3661 C   0  0  0  0  0  0  0  0  0  0  0  0
  -19.3399  -34.0698   17.5601 O   0  0  0  0  0  0  0  0  0  0  0  0
  -21.0834  -34.2983   19.2895 H   0  0  0  0  0  0  0  0  0  0  0  0
  -27.4853  -32.9717   16.7775 O   0  0  0  0  0  0  0  0  0  0  0  0
  -28.0753  -31.7280   17.0991 C   0  0  0  0  0  0  0  0  0  0  0  0
  -28.4302  -31.6222   18.5657 N   0  0  0  0  0  0  0  0  0  0  0  0
  -27.8854  -30.3159   19.1219 C   0  0  0  0  0  0  0  0  0  0  0  0
  -27.8012  -32.7857   19.3176 C   0  0  0  0  0  0  0  0  0  0  0  0
  -29.9364  -31.6610   18.7332 C   0  0  0  0  0  0  0  0  0  0  0  0
  -25.7065  -34.2769   13.6980 C   0  0  0  0  0  0  0  0  0  0  0  0
  -24.6984  -35.2707   13.5833 O   0  0  0  0  0  0  0  0  0  0  0  0
  -23.5739  -35.0776   12.4652 P   0  0  0  0  0  0  0  0  0  0  0  0
  -22.2905  -35.7912   12.7045 O   0  0  0  0  0  0  0  0  0  0  0  0
  -23.3722  -33.5061   12.2849 O   0  0  0  0  0  0  0  0  0  0  0  0
  -24.2528  -35.5212   11.0915 O   0  0  0  0  0  0  0  0  0  0  0  0
  -22.9587  -33.1397   13.0821 H   0  0  0  0  0  0  0  0  0  0  0  0
  -24.4171  -36.4771   11.1059 H   0  0  0  0  0  0  0  0  0  0  0  0
  6  7  1  0
  7  8  2  0
  8  9  1  0
  1  9  1  0
  1  2  1  0
  2  3  1  0
  3 16  1  0
 16 17  1  0
 17 18  1  0
 18 19  1  0
 18 20  1  0
 18 21  1  0
  3  4  1  0
  4 22  1  0
 22 23  1  0
 23 24  1  0
 24 25  2  0
 24 26  1  0
 24 27  1  0
  4  5  1  0
  9 10  1  0
 10 11  2  0
 10 12  1  0
 12 13  1  0
 13 14  2  0
 13  7  1  0
  5  1  1  0
 26 28  1  0
 27 29  1  0
 12 15  1  0
M  CHG 1  18   1
M  END
> <minimizedAffinity>
-5.60310

> <CNNscore>
0.5927989483

> <CNNaffinity>
4.7255291939

> <CNN_VS>
2.8012888432

> <CNNaffinity_variance>
0.0232881065

$$$$



 29 30  0  0  0  0  0  0  0  0999 V2000
  -22.2981  -33.9937   16.1408 C   0  0  0  0  0  0  0  0  0  0  0  0
  -22.7034  -32.5334   16.3163 C   0  0  0  0  0  0  0  0  0  0  0  0
  -23.9229  -32.4479   15.4267 C   0  0  0  0  0  0  0  0  0  0  0  0
  -23.5063  -33.3273   14.2442 C   0  0  0  0  0  0  0  0  0  0  0  0
  -22.6551  -34.3593   14.7936 O   0  0  0  0  0  0  0  0  0  0  0  0
  -17.4742  -33.5078   14.9735 C   0  0  0  0  0  0  0  0  0  0  0  0
  -18.5920  -33.9738   15.8472 C   0  0  0  0  0  0  0  0  0  0  0  0
  -19.8907  -33.7811   15.5837 C   0  0  0  0  0  0  0  0  0  0  0  0
  -20.8922  -34.2347   16.4193 N   0  0  0  0  0  0  0  0  0  0  0  0
  -20.6038  -34.9132   17.5973 C   0  0  0  0  0  0  0  0  0  0  0  0
  -21.4654  -35.2970   18.3866 O   0  0  0  0  0  0  0  0  0  0  0  0
  -19.2780  -35.1282   17.8520 N   0  0  0  0  0  0  0  0  0  0  0  0
  -18.2321  -34.6972   17.0885 C   0  0  0  0  0  0  0  0  0  0  0  0
  -17.0666  -34.8914   17.4138 O   0  0  0  0  0  0  0  0  0  0  0  0
  -19.0569  -35.6421   18.6621 H   0  0  0  0  0  0  0  0  0  0  0  0
  -25.0103  -33.0336   16.1613 O   0  0  0  0  0  0  0  0  0  0  0  0
  -25.2228  -32.4603   17.4358 C   0  0  0  0  0  0  0  0  0  0  0  0
  -26.6924  -32.2993   17.7559 N   0  0  0  0  0  0  0  0  0  0  0  0
  -26.9025  -30.9967   18.5120 C   0  0  0  0  0  0  0  0  0  0  0  0
  -27.1445  -33.4611   18.6280 C   0  0  0  0  0  0  0  0  0  0  0  0
  -27.4982  -32.2813   16.4719 C   0  0  0  0  0  0  0  0  0  0  0  0
  -22.7235  -32.5515   13.1798 C   0  0  0  0  0  0  0  0  0  0  0  0
  -21.6612  -33.3712   12.7141 O   0  0  0  0  0  0  0  0  0  0  0  0
  -20.6154  -32.7373   11.6863 P   0  0  0  0  0  0  0  0  0  0  0  0
  -21.1996  -32.0997   10.4755 O   0  0  0  0  0  0  0  0  0  0  0  0
  -19.5728  -33.8884   11.3250 O   0  0  0  0  0  0  0  0  0  0  0  0
  -19.7452  -31.7072   12.5387 O   0  0  0  0  0  0  0  0  0  0  0  0
  -20.0158  -34.5723   10.7987 H   0  0  0  0  0  0  0  0  0  0  0  0
  -20.3015  -30.9599   12.8086 H   0  0  0  0  0  0  0  0  0  0  0  0
  6  7  1  0
  7  8  2  0
  8  9  1  0
  1  9  1  0
  1  2  1  0
  2  3  1  0
  3 16  1  0
 16 17  1  0
 17 18  1  0
 18 19  1  0
 18 20  1  0
 18 21  1  0
  3  4  1  0
  4 22  1  0
 22 23  1  0
 23 24  1  0
 24 25  2  0
 24 26  1  0
 24 27  1  0
  4  5  1  0
  9 10  1  0
 10 11  2  0
 10 12  1  0
 12 13  1  0
 13 14  2  0
 13  7  1  0
  5  1  1  0
 26 28  1  0
 27 29  1  0
 12 15  1  0
M  CHG 1  18   1
M  END
> <minimizedAffinity>
-6.18217

> <CNNscore>
0.5157800913

> <CNNaffinity>
4.8652348518

> <CNN_VS>
2.5093913078

> <CNNaffinity_variance>
0.0785382241

$$$$



 29 30  0  0  0  0  0  0  0  0999 V2000
  -24.4496  -32.5966   14.6333 C   0  0  0  0  0  0  0  0  0  0  0  0
  -23.8956  -31.2284   14.2476 C   0  0  0  0  0  0  0  0  0  0  0  0
  -24.4335  -31.0679   12.8438 C   0  0  0  0  0  0  0  0  0  0  0  0
  -24.2979  -32.4911   12.2951 C   0  0  0  0  0  0  0  0  0  0  0  0
  -24.4997  -33.3750   13.4218 O   0  0  0  0  0  0  0  0  0  0  0  0
  -20.1036  -33.6166   16.8560 C   0  0  0  0  0  0  0  0  0  0  0  0
  -21.5884  -33.7123   16.7286 C   0  0  0  0  0  0  0  0  0  0  0  0
  -22.3044  -33.1339   15.7559 C   0  0  0  0  0  0  0  0  0  0  0  0
  -23.6777  -33.2536   15.6747 N   0  0  0  0  0  0  0  0  0  0  0  0
  -24.4006  -33.9791   16.6141 C   0  0  0  0  0  0  0  0  0  0  0  0
  -25.6267  -34.0755   16.5987 O   0  0  0  0  0  0  0  0  0  0  0  0
  -23.6646  -34.5871   17.5926 N   0  0  0  0  0  0  0  0  0  0  0  0
  -22.3118  -34.5020   17.7518 C   0  0  0  0  0  0  0  0  0  0  0  0
  -21.7324  -35.0406   18.6876 O   0  0  0  0  0  0  0  0  0  0  0  0
  -24.1565  -35.1380   18.2436 H   0  0  0  0  0  0  0  0  0  0  0  0
  -25.8118  -30.6821   12.9727 O   0  0  0  0  0  0  0  0  0  0  0  0
  -26.4907  -30.5403   11.7409 C   0  0  0  0  0  0  0  0  0  0  0  0
  -27.3628  -29.3050   11.7041 N   0  0  0  0  0  0  0  0  0  0  0  0
  -28.0690  -29.2279   10.3595 C   0  0  0  0  0  0  0  0  0  0  0  0
  -26.4901  -28.0713   11.8809 C   0  0  0  0  0  0  0  0  0  0  0  0
  -28.3890  -29.3680   12.8181 C   0  0  0  0  0  0  0  0  0  0  0  0
  -22.9153  -32.7612   11.6926 C   0  0  0  0  0  0  0  0  0  0  0  0
  -22.5003  -34.0628   12.0810 O   0  0  0  0  0  0  0  0  0  0  0  0
  -22.1918  -35.1292   10.9323 P   0  0  0  0  0  0  0  0  0  0  0  0
  -22.6902  -36.5097   11.1766 O   0  0  0  0  0  0  0  0  0  0  0  0
  -20.6182  -35.0864   10.6779 O   0  0  0  0  0  0  0  0  0  0  0  0
  -22.7977  -34.5072    9.5941 O   0  0  0  0  0  0  0  0  0  0  0  0
  -20.1560  -35.4500   11.4493 H   0  0  0  0  0  0  0  0  0  0  0  0
  -23.7657  -34.4909    9.6546 H   0  0  0  0  0  0  0  0  0  0  0  0
  6  7  1  0
  7  8  2  0
  8  9  1  0
  1  9  1  0
  1  2  1  0
  2  3  1  0
  3 16  1  0
 16 17  1  0
 17 18  1  0
 18 19  1  0
 18 20  1  0
 18 21  1  0
  3  4  1  0
  4 22  1  0
 22 23  1  0
 23 24  1  0
 24 25  2  0
 24 26  1  0
 24 27  1  0
  4  5  1  0
  9 10  1  0
 10 11  2  0
 10 12  1  0
 12 13  1  0
 13 14  2  0
 13  7  1  0
  5  1  1  0
 26 28  1  0
 27 29  1  0
 12 15  1  0
M  CHG 1  18   1
M  END
> <minimizedAffinity>
-5.04400

> <CNNscore>
0.5013271570

> <CNNaffinity>
4.8968176842

> <CNN_VS>
2.4549076557

> <CNNaffinity_variance>
0.2148576975

$$$$
