


 39 41  0  0  0  0  0  0  0  0999 V2000
  -20.8106   30.7861    9.2674 C   0  0  0  0  0  0  0  0  0  0  0  0
  -20.0308   30.0809   10.1052 C   0  0  0  0  0  0  0  0  0  0  0  0
  -20.0571   30.1010   11.6080 C   0  0  0  0  0  0  0  0  0  0  0  0
  -18.9838   29.2538   12.0647 O   0  0  0  0  0  0  0  0  0  0  0  0
  -18.4787   29.7954   13.3020 C   0  0  0  0  0  0  0  0  0  0  0  0
  -19.3338   31.0113   13.6701 C   0  0  0  0  0  0  0  0  0  0  0  0
  -20.4583   30.6386   14.4931 O   0  0  0  0  0  0  0  0  0  0  0  0
  -19.8609   31.4489   12.3139 C   0  0  0  0  0  0  0  0  0  0  0  0
  -21.0610   32.2050   12.4420 O   0  0  0  0  0  0  0  0  0  0  0  0
  -20.9859   29.9661   14.0344 H   0  0  0  0  0  0  0  0  0  0  0  0
  -21.7206   31.6848   12.9271 H   0  0  0  0  0  0  0  0  0  0  0  0
  -17.0697   30.1239   13.1451 N   0  0  0  0  0  0  0  0  0  0  0  0
  -16.5817   31.0172   12.2337 C   0  0  0  0  0  0  0  0  0  0  0  0
  -15.2716   31.0803   12.2755 N   0  0  0  0  0  0  0  0  0  0  0  0
  -14.8769   30.2042   13.2801 C   0  0  0  0  0  0  0  0  0  0  0  0
  -16.0021   29.6045   13.8242 C   0  0  0  0  0  0  0  0  0  0  0  0
  -13.4364   30.0072   13.6633 C   0  0  0  0  0  0  0  0  0  0  0  0
  -12.8071   29.1261   12.8409 F   0  0  0  0  0  0  0  0  0  0  0  0
  -13.2861   29.5447   14.9328 F   0  0  0  0  0  0  0  0  0  0  0  0
  -12.7341   31.1730   13.5922 F   0  0  0  0  0  0  0  0  0  0  0  0
  -20.7253   30.7085    7.7761 C   0  0  0  0  0  0  0  0  0  0  0  0
  -22.9163   31.7906    6.4057 O   0  0  0  0  0  0  0  0  0  0  0  0
  -22.8647   30.5785    6.5889 C   0  0  0  0  0  0  0  0  0  0  0  0
  -21.8687   29.9705    7.3114 N   0  0  0  0  0  0  0  0  0  0  0  0
  -21.9384   29.0099    7.5155 H   0  0  0  0  0  0  0  0  0  0  0  0
  -23.9251   29.6994    6.0092 C   0  0  0  0  0  0  0  0  0  0  0  0
  -24.9487   30.3258    5.2790 C   0  0  0  0  0  0  0  0  0  0  0  0
  -25.9714   29.5535    4.7088 C   0  0  0  0  0  0  0  0  0  0  0  0
  -26.0182   28.1685    4.8449 C   0  0  0  0  0  0  0  0  0  0  0  0
  -27.2785   27.1886    4.1868 Cl  0  0  0  0  0  0  0  0  0  0  0  0
  -24.9953   27.5544    5.5684 C   0  0  0  0  0  0  0  0  0  0  0  0
  -24.9436   26.1934    5.7601 O   0  0  0  0  0  0  0  0  0  0  0  0
  -23.9593   28.3052    6.1426 C   0  0  0  0  0  0  0  0  0  0  0  0
  -22.9895   27.6174    6.8298 O   0  0  0  0  0  0  0  0  0  0  0  0
  -25.6105   25.6436    5.3982 H   0  0  0  0  0  0  0  0  0  0  0  0
  -23.0390   26.6845    6.9022 H   0  0  0  0  0  0  0  0  0  0  0  0
  -26.9960   30.2408    3.9633 N   0  0  0  0  0  0  0  0  0  0  0  0
  -27.1940   29.8615    2.8029 O   0  0  0  0  0  0  0  0  0  0  0  0
  -27.5777   31.1664    4.5411 O   0  0  0  0  0  0  0  0  0  0  0  0
 22 23  2  0
 23 24  1  0
 24 21  1  0
 21  1  1  0
  1  2  2  0
  3  2  1  0
  3  4  1  0
  4  5  1  0
  5 12  1  0
 12 13  1  0
 13 14  2  0
 14 15  1  0
 15 17  1  0
 17 18  1  0
 17 19  1  0
 17 20  1  0
 15 16  2  0
  5  6  1  0
  6  7  1  0
  6  8  1  0
  8  9  1  0
 23 26  1  0
 26 27  2  0
 27 28  1  0
 28 37  1  0
 37 38  2  0
 37 39  1  0
 28 29  2  0
 29 30  1  0
 29 31  1  0
 31 32  1  0
 31 33  2  0
 33 34  1  0
  8  3  1  0
 33 26  1  0
 16 12  1  0
 24 25  1  0
  7 10  1  0
  9 11  1  0
 32 35  1  0
 34 36  1  0
M  CHG 1  37   1
M  CHG 1  39  -1
M  END
> <minimizedAffinity>
-10.27293

> <CNNscore>
0.8875509501

> <CNNaffinity>
7.0080657005

> <CNN_VS>
6.2200155258

> <CNNaffinity_variance>
0.1739433557

$$$$



 39 41  0  0  0  0  0  0  0  0999 V2000
  -20.6285   30.7691   10.3289 C   0  0  0  0  0  0  0  0  0  0  0  0
  -19.9135   30.9396   11.4545 C   0  0  0  0  0  0  0  0  0  0  0  0
  -20.1611   31.9414   12.5477 C   0  0  0  0  0  0  0  0  0  0  0  0
  -20.6994   33.1258   11.9268 O   0  0  0  0  0  0  0  0  0  0  0  0
  -21.6166   33.7420   12.8533 C   0  0  0  0  0  0  0  0  0  0  0  0
  -21.5944   32.9300   14.1514 C   0  0  0  0  0  0  0  0  0  0  0  0
  -20.6013   33.4284   15.0713 O   0  0  0  0  0  0  0  0  0  0  0  0
  -21.1461   31.5634   13.6615 C   0  0  0  0  0  0  0  0  0  0  0  0
  -20.5553   30.8032   14.7109 O   0  0  0  0  0  0  0  0  0  0  0  0
  -19.7317   33.4243   14.6416 H   0  0  0  0  0  0  0  0  0  0  0  0
  -19.8168   31.3013   15.0948 H   0  0  0  0  0  0  0  0  0  0  0  0
  -22.9398   33.8064   12.2511 N   0  0  0  0  0  0  0  0  0  0  0  0
  -23.1753   34.0571   10.9288 C   0  0  0  0  0  0  0  0  0  0  0  0
  -24.4609   34.1090   10.6703 N   0  0  0  0  0  0  0  0  0  0  0  0
  -25.1054   33.8559   11.8758 C   0  0  0  0  0  0  0  0  0  0  0  0
  -24.1537   33.6673   12.8659 C   0  0  0  0  0  0  0  0  0  0  0  0
  -26.6030   33.7993   11.9973 C   0  0  0  0  0  0  0  0  0  0  0  0
  -27.0546   34.5163   13.0605 F   0  0  0  0  0  0  0  0  0  0  0  0
  -27.0734   32.5321   12.1424 F   0  0  0  0  0  0  0  0  0  0  0  0
  -27.2159   34.3140   10.8943 F   0  0  0  0  0  0  0  0  0  0  0  0
  -20.3190   29.7431    9.2856 C   0  0  0  0  0  0  0  0  0  0  0  0
  -21.1040   30.8604    6.8392 O   0  0  0  0  0  0  0  0  0  0  0  0
  -21.8080   29.9989    7.3566 C   0  0  0  0  0  0  0  0  0  0  0  0
  -21.5405   29.4499    8.5857 N   0  0  0  0  0  0  0  0  0  0  0  0
  -22.1980   28.8431    8.9965 H   0  0  0  0  0  0  0  0  0  0  0  0
  -23.0211   29.5070    6.6356 C   0  0  0  0  0  0  0  0  0  0  0  0
  -23.8098   30.4664    5.9794 C   0  0  0  0  0  0  0  0  0  0  0  0
  -24.9600   30.0657    5.2837 C   0  0  0  0  0  0  0  0  0  0  0  0
  -25.3627   28.7342    5.2216 C   0  0  0  0  0  0  0  0  0  0  0  0
  -26.7897   28.2076    4.4044 Cl  0  0  0  0  0  0  0  0  0  0  0  0
  -24.5711   27.7876    5.8729 C   0  0  0  0  0  0  0  0  0  0  0  0
  -24.8757   26.4463    5.8713 O   0  0  0  0  0  0  0  0  0  0  0  0
  -23.4137   28.1638    6.5698 C   0  0  0  0  0  0  0  0  0  0  0  0
  -22.6899   27.1651    7.1737 O   0  0  0  0  0  0  0  0  0  0  0  0
  -25.6380   26.1395    5.4210 H   0  0  0  0  0  0  0  0  0  0  0  0
  -22.9774   26.2754    7.1124 H   0  0  0  0  0  0  0  0  0  0  0  0
  -25.7335   31.0857    4.6208 N   0  0  0  0  0  0  0  0  0  0  0  0
  -26.9641   30.9688    4.6593 O   0  0  0  0  0  0  0  0  0  0  0  0
  -25.0999   31.9821    4.0518 O   0  0  0  0  0  0  0  0  0  0  0  0
 22 23  2  0
 23 24  1  0
 24 21  1  0
 21  1  1  0
  1  2  2  0
  3  2  1  0
  3  4  1  0
  4  5  1  0
  5 12  1  0
 12 13  1  0
 13 14  2  0
 14 15  1  0
 15 17  1  0
 17 18  1  0
 17 19  1  0
 17 20  1  0
 15 16  2  0
  5  6  1  0
  6  7  1  0
  6  8  1  0
  8  9  1  0
 23 26  1  0
 26 27  2  0
 27 28  1  0
 28 37  1  0
 37 38  2  0
 37 39  1  0
 28 29  2  0
 29 30  1  0
 29 31  1  0
 31 32  1  0
 31 33  2  0
 33 34  1  0
  8  3  1  0
 33 26  1  0
 16 12  1  0
 24 25  1  0
  7 10  1  0
  9 11  1  0
 32 35  1  0
 34 36  1  0
M  CHG 1  37   1
M  CHG 1  39  -1
M  END
> <minimizedAffinity>
-7.72101

> <CNNscore>
0.6876075864

> <CNNaffinity>
6.6275038719

> <CNN_VS>
4.5571217537

> <CNNaffinity_variance>
0.0739666149

$$$$



 39 41  0  0  0  0  0  0  0  0999 V2000
  -21.6848   33.9254    6.7093 C   0  0  0  0  0  0  0  0  0  0  0  0
  -20.4428   33.7344    6.2313 C   0  0  0  0  0  0  0  0  0  0  0  0
  -19.7166   34.5768    5.2200 C   0  0  0  0  0  0  0  0  0  0  0  0
  -19.4640   35.8566    5.8337 O   0  0  0  0  0  0  0  0  0  0  0  0
  -18.2181   36.3656    5.3159 C   0  0  0  0  0  0  0  0  0  0  0  0
  -17.7014   35.3752    4.2685 C   0  0  0  0  0  0  0  0  0  0  0  0
  -18.1834   35.7005    2.9485 O   0  0  0  0  0  0  0  0  0  0  0  0
  -18.3588   34.0781    4.7089 C   0  0  0  0  0  0  0  0  0  0  0  0
  -18.4605   33.1544    3.6297 O   0  0  0  0  0  0  0  0  0  0  0  0
  -19.1530   35.7273    2.9558 H   0  0  0  0  0  0  0  0  0  0  0  0
  -18.9449   33.5656    2.8967 H   0  0  0  0  0  0  0  0  0  0  0  0
  -17.2841   36.5628    6.4144 N   0  0  0  0  0  0  0  0  0  0  0  0
  -17.6467   36.9250    7.6809 C   0  0  0  0  0  0  0  0  0  0  0  0
  -16.5988   37.0822    8.4551 N   0  0  0  0  0  0  0  0  0  0  0  0
  -15.4919   36.7855    7.6680 C   0  0  0  0  0  0  0  0  0  0  0  0
  -15.9203   36.4612    6.3902 C   0  0  0  0  0  0  0  0  0  0  0  0
  -14.0863   36.8211    8.2006 C   0  0  0  0  0  0  0  0  0  0  0  0
  -13.3407   37.7891    7.6042 F   0  0  0  0  0  0  0  0  0  0  0  0
  -13.4259   35.6456    8.0269 F   0  0  0  0  0  0  0  0  0  0  0  0
  -14.0626   37.0826    9.5379 F   0  0  0  0  0  0  0  0  0  0  0  0
  -22.3396   33.0404    7.7217 C   0  0  0  0  0  0  0  0  0  0  0  0
  -21.6701   30.3617    7.2463 O   0  0  0  0  0  0  0  0  0  0  0  0
  -22.7666   30.7773    6.8851 C   0  0  0  0  0  0  0  0  0  0  0  0
  -23.1503   32.0891    7.0106 N   0  0  0  0  0  0  0  0  0  0  0  0
  -23.9976   32.3847    6.6057 H   0  0  0  0  0  0  0  0  0  0  0  0
  -23.7495   29.8310    6.2756 C   0  0  0  0  0  0  0  0  0  0  0  0
  -24.7351   30.3810    5.4392 C   0  0  0  0  0  0  0  0  0  0  0  0
  -25.6847   29.5431    4.8363 C   0  0  0  0  0  0  0  0  0  0  0  0
  -25.6950   28.1659    5.0416 C   0  0  0  0  0  0  0  0  0  0  0  0
  -26.8677   27.1074    4.3444 Cl  0  0  0  0  0  0  0  0  0  0  0  0
  -24.7101   27.6278    5.8705 C   0  0  0  0  0  0  0  0  0  0  0  0
  -24.6272   26.2810    6.1373 O   0  0  0  0  0  0  0  0  0  0  0  0
  -23.7467   28.4449    6.4796 C   0  0  0  0  0  0  0  0  0  0  0  0
  -22.8094   27.8295    7.2724 O   0  0  0  0  0  0  0  0  0  0  0  0
  -25.2456   25.6891    5.7565 H   0  0  0  0  0  0  0  0  0  0  0  0
  -22.8328   26.9002    7.3902 H   0  0  0  0  0  0  0  0  0  0  0  0
  -26.6722   30.1531    3.9814 N   0  0  0  0  0  0  0  0  0  0  0  0
  -27.6010   29.4330    3.5962 O   0  0  0  0  0  0  0  0  0  0  0  0
  -26.4963   31.3415    3.6887 O   0  0  0  0  0  0  0  0  0  0  0  0
 22 23  2  0
 23 24  1  0
 24 21  1  0
 21  1  1  0
  1  2  2  0
  3  2  1  0
  3  4  1  0
  4  5  1  0
  5 12  1  0
 12 13  1  0
 13 14  2  0
 14 15  1  0
 15 17  1  0
 17 18  1  0
 17 19  1  0
 17 20  1  0
 15 16  2  0
  5  6  1  0
  6  7  1  0
  6  8  1  0
  8  9  1  0
 23 26  1  0
 26 27  2  0
 27 28  1  0
 28 37  1  0
 37 38  2  0
 37 39  1  0
 28 29  2  0
 29 30  1  0
 29 31  1  0
 31 32  1  0
 31 33  2  0
 33 34  1  0
  8  3  1  0
 33 26  1  0
 16 12  1  0
 24 25  1  0
  7 10  1  0
  9 11  1  0
 32 35  1  0
 34 36  1  0
M  CHG 1  37   1
M  CHG 1  39  -1
M  END
> <minimizedAffinity>
-7.26730

> <CNNscore>
0.5347173214

> <CNNaffinity>
5.8005485535

> <CNN_VS>
3.1016538143

> <CNNaffinity_variance>
0.0411333293

$$$$



 39 41  0  0  0  0  0  0  0  0999 V2000
  -20.8238   33.5287    5.6610 C   0  0  0  0  0  0  0  0  0  0  0  0
  -20.4846   32.6388    4.7123 C   0  0  0  0  0  0  0  0  0  0  0  0
  -19.5861   32.8671    3.5289 C   0  0  0  0  0  0  0  0  0  0  0  0
  -20.4264   33.2584    2.4247 O   0  0  0  0  0  0  0  0  0  0  0  0
  -19.6829   34.1755    1.5968 C   0  0  0  0  0  0  0  0  0  0  0  0
  -18.2750   34.3082    2.1842 C   0  0  0  0  0  0  0  0  0  0  0  0
  -17.3713   33.3363    1.6189 O   0  0  0  0  0  0  0  0  0  0  0  0
  -18.5064   33.9510    3.6428 C   0  0  0  0  0  0  0  0  0  0  0  0
  -17.3074   33.4978    4.2635 O   0  0  0  0  0  0  0  0  0  0  0  0
  -17.7262   32.4446    1.7597 H   0  0  0  0  0  0  0  0  0  0  0  0
  -16.9509   32.7447    3.7669 H   0  0  0  0  0  0  0  0  0  0  0  0
  -20.3886   35.4466    1.5314 N   0  0  0  0  0  0  0  0  0  0  0  0
  -21.6284   35.6144    0.9825 C   0  0  0  0  0  0  0  0  0  0  0  0
  -22.0015   36.8722    1.0117 N   0  0  0  0  0  0  0  0  0  0  0  0
  -20.9682   37.5649    1.6322 C   0  0  0  0  0  0  0  0  0  0  0  0
  -19.9578   36.6730    1.9569 C   0  0  0  0  0  0  0  0  0  0  0  0
  -21.0234   39.0458    1.8857 C   0  0  0  0  0  0  0  0  0  0  0  0
  -19.8403   39.5265    2.3524 F   0  0  0  0  0  0  0  0  0  0  0  0
  -21.9784   39.3917    2.7893 F   0  0  0  0  0  0  0  0  0  0  0  0
  -21.3013   39.7401    0.7464 F   0  0  0  0  0  0  0  0  0  0  0  0
  -21.7253   33.2228    6.8147 C   0  0  0  0  0  0  0  0  0  0  0  0
  -24.5080   33.0278    6.5536 O   0  0  0  0  0  0  0  0  0  0  0  0
  -23.8150   32.0421    6.3220 C   0  0  0  0  0  0  0  0  0  0  0  0
  -22.4534   32.0249    6.4940 N   0  0  0  0  0  0  0  0  0  0  0  0
  -21.9655   31.1755    6.3959 H   0  0  0  0  0  0  0  0  0  0  0  0
  -24.4594   30.7871    5.8290 C   0  0  0  0  0  0  0  0  0  0  0  0
  -25.5958   30.9269    5.0152 C   0  0  0  0  0  0  0  0  0  0  0  0
  -26.2434   29.7855    4.5201 C   0  0  0  0  0  0  0  0  0  0  0  0
  -25.8027   28.4974    4.8126 C   0  0  0  0  0  0  0  0  0  0  0  0
  -26.5933   27.0692    4.2499 Cl  0  0  0  0  0  0  0  0  0  0  0  0
  -24.6709   28.3681    5.6183 C   0  0  0  0  0  0  0  0  0  0  0  0
  -24.1498   27.1433    5.9649 O   0  0  0  0  0  0  0  0  0  0  0  0
  -24.0034   29.4948    6.1201 C   0  0  0  0  0  0  0  0  0  0  0  0
  -22.8928   29.2744    6.8973 O   0  0  0  0  0  0  0  0  0  0  0  0
  -24.5563   26.3571    5.6572 H   0  0  0  0  0  0  0  0  0  0  0  0
  -22.6117   28.3984    7.0749 H   0  0  0  0  0  0  0  0  0  0  0  0
  -27.4016   29.9799    3.6841 N   0  0  0  0  0  0  0  0  0  0  0  0
  -27.5776   31.1154    3.2265 O   0  0  0  0  0  0  0  0  0  0  0  0
  -28.1334   28.9985    3.5109 O   0  0  0  0  0  0  0  0  0  0  0  0
 22 23  2  0
 23 24  1  0
 24 21  1  0
 21  1  1  0
  1  2  2  0
  3  2  1  0
  3  4  1  0
  4  5  1  0
  5 12  1  0
 12 13  1  0
 13 14  2  0
 14 15  1  0
 15 17  1  0
 17 18  1  0
 17 19  1  0
 17 20  1  0
 15 16  2  0
  5  6  1  0
  6  7  1  0
  6  8  1  0
  8  9  1  0
 23 26  1  0
 26 27  2  0
 27 28  1  0
 28 37  1  0
 37 38  2  0
 37 39  1  0
 28 29  2  0
 29 30  1  0
 29 31  1  0
 31 32  1  0
 31 33  2  0
 33 34  1  0
  8  3  1  0
 33 26  1  0
 16 12  1  0
 24 25  1  0
  7 10  1  0
  9 11  1  0
 32 35  1  0
 34 36  1  0
M  CHG 1  37   1
M  CHG 1  39  -1
M  END
> <minimizedAffinity>
-5.87727

> <CNNscore>
0.4079403877

> <CNNaffinity>
5.6951346397

> <CNN_VS>
2.3232753277

> <CNNaffinity_variance>
0.3869723976

$$$$



 39 41  0  0  0  0  0  0  0  0999 V2000
  -20.4822   31.7173    7.1083 C   0  0  0  0  0  0  0  0  0  0  0  0
  -20.5895   32.2595    5.8828 C   0  0  0  0  0  0  0  0  0  0  0  0
  -19.9846   33.5486    5.4012 C   0  0  0  0  0  0  0  0  0  0  0  0
  -18.8192   33.2086    4.6237 O   0  0  0  0  0  0  0  0  0  0  0  0
  -18.6744   34.1904    3.5775 C   0  0  0  0  0  0  0  0  0  0  0  0
  -19.7751   35.2397    3.7580 C   0  0  0  0  0  0  0  0  0  0  0  0
  -19.3383   36.3262    4.6005 O   0  0  0  0  0  0  0  0  0  0  0  0
  -20.8395   34.4554    4.5065 C   0  0  0  0  0  0  0  0  0  0  0  0
  -21.7067   35.3197    5.2340 O   0  0  0  0  0  0  0  0  0  0  0  0
  -19.0468   35.9746    5.4563 H   0  0  0  0  0  0  0  0  0  0  0  0
  -21.1831   35.8702    5.8371 H   0  0  0  0  0  0  0  0  0  0  0  0
  -18.7338   33.5281    2.2831 N   0  0  0  0  0  0  0  0  0  0  0  0
  -19.8510   32.9304    1.7718 C   0  0  0  0  0  0  0  0  0  0  0  0
  -19.6073   32.3670    0.6119 N   0  0  0  0  0  0  0  0  0  0  0  0
  -18.2705   32.6265    0.3323 C   0  0  0  0  0  0  0  0  0  0  0  0
  -17.7230   33.3525    1.3786 C   0  0  0  0  0  0  0  0  0  0  0  0
  -17.6043   32.1680   -0.9352 C   0  0  0  0  0  0  0  0  0  0  0  0
  -16.8073   31.0860   -0.7283 F   0  0  0  0  0  0  0  0  0  0  0  0
  -16.8301   33.1306   -1.5029 F   0  0  0  0  0  0  0  0  0  0  0  0
  -18.5175   31.8019   -1.8782 F   0  0  0  0  0  0  0  0  0  0  0  0
  -21.1141   30.4229    7.5114 C   0  0  0  0  0  0  0  0  0  0  0  0
  -22.7022   28.1151    7.4731 O   0  0  0  0  0  0  0  0  0  0  0  0
  -22.9898   29.0514    6.7341 C   0  0  0  0  0  0  0  0  0  0  0  0
  -22.2285   30.1889    6.6332 N   0  0  0  0  0  0  0  0  0  0  0  0
  -22.4497   30.8581    5.9459 H   0  0  0  0  0  0  0  0  0  0  0  0
  -24.2222   28.9747    5.8924 C   0  0  0  0  0  0  0  0  0  0  0  0
  -24.7347   30.1840    5.3942 C   0  0  0  0  0  0  0  0  0  0  0  0
  -25.8882   30.1763    4.5962 C   0  0  0  0  0  0  0  0  0  0  0  0
  -26.5617   28.9999    4.2778 C   0  0  0  0  0  0  0  0  0  0  0  0
  -28.0026   28.9543    3.3276 Cl  0  0  0  0  0  0  0  0  0  0  0  0
  -26.0433   27.8031    4.7736 C   0  0  0  0  0  0  0  0  0  0  0  0
  -26.6279   26.5849    4.5164 O   0  0  0  0  0  0  0  0  0  0  0  0
  -24.8881   27.7854    5.5685 C   0  0  0  0  0  0  0  0  0  0  0  0
  -24.4434   26.5618    6.0057 O   0  0  0  0  0  0  0  0  0  0  0  0
  -27.4021   26.5384    3.9906 H   0  0  0  0  0  0  0  0  0  0  0  0
  -24.9098   25.7833    5.7729 H   0  0  0  0  0  0  0  0  0  0  0  0
  -26.3722   31.4415    4.1032 N   0  0  0  0  0  0  0  0  0  0  0  0
  -25.7158   32.4466    4.4007 O   0  0  0  0  0  0  0  0  0  0  0  0
  -27.4156   31.4175    3.4401 O   0  0  0  0  0  0  0  0  0  0  0  0
 22 23  2  0
 23 24  1  0
 24 21  1  0
 21  1  1  0
  1  2  2  0
  3  2  1  0
  3  4  1  0
  4  5  1  0
  5 12  1  0
 12 13  1  0
 13 14  2  0
 14 15  1  0
 15 17  1  0
 17 18  1  0
 17 19  1  0
 17 20  1  0
 15 16  2  0
  5  6  1  0
  6  7  1  0
  6  8  1  0
  8  9  1  0
 23 26  1  0
 26 27  2  0
 27 28  1  0
 28 37  1  0
 37 38  2  0
 37 39  1  0
 28 29  2  0
 29 30  1  0
 29 31  1  0
 31 32  1  0
 31 33  2  0
 33 34  1  0
  8  3  1  0
 33 26  1  0
 16 12  1  0
 24 25  1  0
  7 10  1  0
  9 11  1  0
 32 35  1  0
 34 36  1  0
M  CHG 1  37   1
M  CHG 1  39  -1
M  END
> <minimizedAffinity>
-7.31913

> <CNNscore>
0.3868426085

> <CNNaffinity>
5.8804931641

> <CNN_VS>
2.2748253345

> <CNNaffinity_variance>
0.1682989001

$$$$



 39 41  0  0  0  0  0  0  0  0999 V2000
  -22.2659   33.0836    9.4565 C   0  0  0  0  0  0  0  0  0  0  0  0
  -23.0909   33.8141   10.2266 C   0  0  0  0  0  0  0  0  0  0  0  0
  -23.3364   33.6582   11.7014 C   0  0  0  0  0  0  0  0  0  0  0  0
  -22.7643   32.3957   12.0978 O   0  0  0  0  0  0  0  0  0  0  0  0
  -22.2828   32.5252   13.4508 C   0  0  0  0  0  0  0  0  0  0  0  0
  -22.6384   33.9296   13.9471 C   0  0  0  0  0  0  0  0  0  0  0  0
  -23.9303   33.9537   14.5882 O   0  0  0  0  0  0  0  0  0  0  0  0
  -22.7380   34.7083   12.6462 C   0  0  0  0  0  0  0  0  0  0  0  0
  -23.5500   35.8687   12.7960 O   0  0  0  0  0  0  0  0  0  0  0  0
  -24.6025   33.6195   13.9738 H   0  0  0  0  0  0  0  0  0  0  0  0
  -24.4264   35.6102   13.1218 H   0  0  0  0  0  0  0  0  0  0  0  0
  -20.8518   32.2622   13.4807 N   0  0  0  0  0  0  0  0  0  0  0  0
  -19.9876   32.7941   14.3956 C   0  0  0  0  0  0  0  0  0  0  0  0
  -18.7497   32.4301   14.1566 N   0  0  0  0  0  0  0  0  0  0  0  0
  -18.8021   31.5976   13.0444 C   0  0  0  0  0  0  0  0  0  0  0  0
  -20.1177   31.4930   12.6203 C   0  0  0  0  0  0  0  0  0  0  0  0
  -17.5793   30.9427   12.4645 C   0  0  0  0  0  0  0  0  0  0  0  0
  -17.4355   29.6614   12.8958 F   0  0  0  0  0  0  0  0  0  0  0  0
  -16.4305   31.5995   12.7762 F   0  0  0  0  0  0  0  0  0  0  0  0
  -17.6358   30.8896   11.1039 F   0  0  0  0  0  0  0  0  0  0  0  0
  -22.0730   33.3035    7.9897 C   0  0  0  0  0  0  0  0  0  0  0  0
  -21.3055   30.8236    6.9358 O   0  0  0  0  0  0  0  0  0  0  0  0
  -22.4829   31.1627    6.8705 C   0  0  0  0  0  0  0  0  0  0  0  0
  -22.9356   32.3873    7.2937 N   0  0  0  0  0  0  0  0  0  0  0  0
  -23.8696   32.6436    7.1173 H   0  0  0  0  0  0  0  0  0  0  0  0
  -23.4925   30.2161    6.3067 C   0  0  0  0  0  0  0  0  0  0  0  0
  -24.4942   30.7610    5.4863 C   0  0  0  0  0  0  0  0  0  0  0  0
  -25.4691   29.9227    4.9260 C   0  0  0  0  0  0  0  0  0  0  0  0
  -25.4894   28.5500    5.1590 C   0  0  0  0  0  0  0  0  0  0  0  0
  -26.6923   27.4919    4.5150 Cl  0  0  0  0  0  0  0  0  0  0  0  0
  -24.4884   28.0168    5.9718 C   0  0  0  0  0  0  0  0  0  0  0  0
  -24.4134   26.6747    6.2631 O   0  0  0  0  0  0  0  0  0  0  0  0
  -23.4997   28.8344    6.5383 C   0  0  0  0  0  0  0  0  0  0  0  0
  -22.5482   28.2238    7.3177 O   0  0  0  0  0  0  0  0  0  0  0  0
  -25.0485   26.0826    5.9110 H   0  0  0  0  0  0  0  0  0  0  0  0
  -22.5788   27.2973    7.4547 H   0  0  0  0  0  0  0  0  0  0  0  0
  -26.4725   30.5273    4.0859 N   0  0  0  0  0  0  0  0  0  0  0  0
  -27.5252   29.8974    3.9290 O   0  0  0  0  0  0  0  0  0  0  0  0
  -26.1878   31.6172    3.5762 O   0  0  0  0  0  0  0  0  0  0  0  0
 22 23  2  0
 23 24  1  0
 24 21  1  0
 21  1  1  0
  1  2  2  0
  3  2  1  0
  3  4  1  0
  4  5  1  0
  5 12  1  0
 12 13  1  0
 13 14  2  0
 14 15  1  0
 15 17  1  0
 17 18  1  0
 17 19  1  0
 17 20  1  0
 15 16  2  0
  5  6  1  0
  6  7  1  0
  6  8  1  0
  8  9  1  0
 23 26  1  0
 26 27  2  0
 27 28  1  0
 28 37  1  0
 37 38  2  0
 37 39  1  0
 28 29  2  0
 29 30  1  0
 29 31  1  0
 31 32  1  0
 31 33  2  0
 33 34  1  0
  8  3  1  0
 33 26  1  0
 16 12  1  0
 24 25  1  0
  7 10  1  0
  9 11  1  0
 32 35  1  0
 34 36  1  0
M  CHG 1  37   1
M  CHG 1  39  -1
M  END
> <minimizedAffinity>
-8.71975

> <CNNscore>
0.3619509935

> <CNNaffinity>
5.6233267784

> <CNN_VS>
2.0353686810

> <CNNaffinity_variance>
0.2209056169

$$$$



 39 41  0  0  0  0  0  0  0  0999 V2000
  -20.6693   30.0782    8.7442 C   0  0  0  0  0  0  0  0  0  0  0  0
  -20.0562   30.7024    9.7649 C   0  0  0  0  0  0  0  0  0  0  0  0
  -19.7835   30.1523   11.1370 C   0  0  0  0  0  0  0  0  0  0  0  0
  -19.4148   31.2645   11.9768 O   0  0  0  0  0  0  0  0  0  0  0  0
  -19.8812   30.9925   13.3139 C   0  0  0  0  0  0  0  0  0  0  0  0
  -20.5165   29.5992   13.3189 C   0  0  0  0  0  0  0  0  0  0  0  0
  -19.5490   28.5768   13.6343 O   0  0  0  0  0  0  0  0  0  0  0  0
  -20.9268   29.4340   11.8654 C   0  0  0  0  0  0  0  0  0  0  0  0
  -21.0519   28.0596   11.5136 O   0  0  0  0  0  0  0  0  0  0  0  0
  -18.8128   28.6230   13.0044 H   0  0  0  0  0  0  0  0  0  0  0  0
  -20.2179   27.6009   11.7003 H   0  0  0  0  0  0  0  0  0  0  0  0
  -20.8089   32.0366   13.7227 N   0  0  0  0  0  0  0  0  0  0  0  0
  -20.4438   33.1868   14.3633 C   0  0  0  0  0  0  0  0  0  0  0  0
  -21.4876   33.9252   14.6590 N   0  0  0  0  0  0  0  0  0  0  0  0
  -22.5936   33.2408   14.1678 C   0  0  0  0  0  0  0  0  0  0  0  0
  -22.1693   32.0580   13.5825 C   0  0  0  0  0  0  0  0  0  0  0  0
  -23.9939   33.7760   14.2825 C   0  0  0  0  0  0  0  0  0  0  0  0
  -24.5442   33.5052   15.4959 F   0  0  0  0  0  0  0  0  0  0  0  0
  -24.8326   33.2665   13.3418 F   0  0  0  0  0  0  0  0  0  0  0  0
  -24.0272   35.1305   14.1355 F   0  0  0  0  0  0  0  0  0  0  0  0
  -20.9015   30.6948    7.4014 C   0  0  0  0  0  0  0  0  0  0  0  0
  -23.3042   32.0108    6.8144 O   0  0  0  0  0  0  0  0  0  0  0  0
  -23.1848   30.8251    6.5221 C   0  0  0  0  0  0  0  0  0  0  0  0
  -22.0740   30.0829    6.8369 N   0  0  0  0  0  0  0  0  0  0  0  0
  -22.0801   29.1122    6.6730 H   0  0  0  0  0  0  0  0  0  0  0  0
  -24.2871   30.1318    5.7891 C   0  0  0  0  0  0  0  0  0  0  0  0
  -25.2429   30.9415    5.1535 C   0  0  0  0  0  0  0  0  0  0  0  0
  -26.3004   30.3489    4.4478 C   0  0  0  0  0  0  0  0  0  0  0  0
  -26.4481   28.9674    4.3556 C   0  0  0  0  0  0  0  0  0  0  0  0
  -27.7545   28.2022    3.5254 Cl  0  0  0  0  0  0  0  0  0  0  0  0
  -25.4919   28.1709    4.9866 C   0  0  0  0  0  0  0  0  0  0  0  0
  -25.5412   26.7967    4.9548 O   0  0  0  0  0  0  0  0  0  0  0  0
  -24.4227   28.7407    5.6929 C   0  0  0  0  0  0  0  0  0  0  0  0
  -23.5236   27.8814    6.2751 O   0  0  0  0  0  0  0  0  0  0  0  0
  -26.2343   26.3632    4.4969 H   0  0  0  0  0  0  0  0  0  0  0  0
  -23.6404   26.9553    6.1938 H   0  0  0  0  0  0  0  0  0  0  0  0
  -27.2525   31.2213    3.8071 N   0  0  0  0  0  0  0  0  0  0  0  0
  -27.2121   31.2839    2.5725 O   0  0  0  0  0  0  0  0  0  0  0  0
  -28.0174   31.8496    4.5481 O   0  0  0  0  0  0  0  0  0  0  0  0
 22 23  2  0
 23 24  1  0
 24 21  1  0
 21  1  1  0
  1  2  2  0
  3  2  1  0
  3  4  1  0
  4  5  1  0
  5 12  1  0
 12 13  1  0
 13 14  2  0
 14 15  1  0
 15 17  1  0
 17 18  1  0
 17 19  1  0
 17 20  1  0
 15 16  2  0
  5  6  1  0
  6  7  1  0
  6  8  1  0
  8  9  1  0
 23 26  1  0
 26 27  2  0
 27 28  1  0
 28 37  1  0
 37 38  2  0
 37 39  1  0
 28 29  2  0
 29 30  1  0
 29 31  1  0
 31 32  1  0
 31 33  2  0
 33 34  1  0
  8  3  1  0
 33 26  1  0
 16 12  1  0
 24 25  1  0
  7 10  1  0
  9 11  1  0
 32 35  1  0
 34 36  1  0
M  CHG 1  37   1
M  CHG 1  39  -1
M  END
> <minimizedAffinity>
-8.92786

> <CNNscore>
0.2988509536

> <CNNaffinity>
5.9154629707

> <CNN_VS>
1.7678416967

> <CNNaffinity_variance>
0.1294324249

$$$$



 39 41  0  0  0  0  0  0  0  0999 V2000
  -20.0975   32.3323    5.6362 C   0  0  0  0  0  0  0  0  0  0  0  0
  -20.1947   33.6645    5.4840 C   0  0  0  0  0  0  0  0  0  0  0  0
  -19.4328   34.5289    4.5186 C   0  0  0  0  0  0  0  0  0  0  0  0
  -19.8281   35.8933    4.7643 O   0  0  0  0  0  0  0  0  0  0  0  0
  -18.6955   36.7448    4.4970 C   0  0  0  0  0  0  0  0  0  0  0  0
  -17.5505   35.8635    3.9899 C   0  0  0  0  0  0  0  0  0  0  0  0
  -17.5753   35.7373    2.5532 O   0  0  0  0  0  0  0  0  0  0  0  0
  -17.9005   34.5133    4.5924 C   0  0  0  0  0  0  0  0  0  0  0  0
  -17.3056   33.4471    3.8593 O   0  0  0  0  0  0  0  0  0  0  0  0
  -18.4358   35.3871    2.2742 H   0  0  0  0  0  0  0  0  0  0  0  0
  -17.5788   33.5016    2.9302 H   0  0  0  0  0  0  0  0  0  0  0  0
  -18.3491   37.4798    5.7044 N   0  0  0  0  0  0  0  0  0  0  0  0
  -18.8649   38.6993    6.0410 C   0  0  0  0  0  0  0  0  0  0  0  0
  -18.3397   39.1532    7.1547 N   0  0  0  0  0  0  0  0  0  0  0  0
  -17.4520   38.1747    7.5873 C   0  0  0  0  0  0  0  0  0  0  0  0
  -17.4569   37.1273    6.6792 C   0  0  0  0  0  0  0  0  0  0  0  0
  -16.6605   38.3042    8.8591 C   0  0  0  0  0  0  0  0  0  0  0  0
  -16.7353   37.1809    9.6214 F   0  0  0  0  0  0  0  0  0  0  0  0
  -17.0741   39.3409    9.6352 F   0  0  0  0  0  0  0  0  0  0  0  0
  -15.3377   38.5147    8.6078 F   0  0  0  0  0  0  0  0  0  0  0  0
  -20.8961   31.5398    6.6217 C   0  0  0  0  0  0  0  0  0  0  0  0
  -22.2854   29.2083    7.3172 O   0  0  0  0  0  0  0  0  0  0  0  0
  -22.6968   29.8948    6.3872 C   0  0  0  0  0  0  0  0  0  0  0  0
  -22.0411   31.0108    5.9309 N   0  0  0  0  0  0  0  0  0  0  0  0
  -22.3610   31.4582    5.1144 H   0  0  0  0  0  0  0  0  0  0  0  0
  -23.9699   29.5193    5.7006 C   0  0  0  0  0  0  0  0  0  0  0  0
  -24.7468   30.5644    5.1739 C   0  0  0  0  0  0  0  0  0  0  0  0
  -25.9514   30.2748    4.5163 C   0  0  0  0  0  0  0  0  0  0  0  0
  -26.4203   28.9721    4.3676 C   0  0  0  0  0  0  0  0  0  0  0  0
  -27.9138   28.5795    3.5950 Cl  0  0  0  0  0  0  0  0  0  0  0  0
  -25.6403   27.9400    4.8902 C   0  0  0  0  0  0  0  0  0  0  0  0
  -26.0085   26.6182    4.7951 O   0  0  0  0  0  0  0  0  0  0  0  0
  -24.4296   28.2048    5.5466 C   0  0  0  0  0  0  0  0  0  0  0  0
  -23.7222   27.1278    6.0216 O   0  0  0  0  0  0  0  0  0  0  0  0
  -26.8082   26.3842    4.3666 H   0  0  0  0  0  0  0  0  0  0  0  0
  -24.0550   26.2599    5.9037 H   0  0  0  0  0  0  0  0  0  0  0  0
  -26.7104   31.3803    3.9873 N   0  0  0  0  0  0  0  0  0  0  0  0
  -26.6783   31.5463    2.7622 O   0  0  0  0  0  0  0  0  0  0  0  0
  -27.3147   32.0824    4.8064 O   0  0  0  0  0  0  0  0  0  0  0  0
 22 23  2  0
 23 24  1  0
 24 21  1  0
 21  1  1  0
  1  2  2  0
  3  2  1  0
  3  4  1  0
  4  5  1  0
  5 12  1  0
 12 13  1  0
 13 14  2  0
 14 15  1  0
 15 17  1  0
 17 18  1  0
 17 19  1  0
 17 20  1  0
 15 16  2  0
  5  6  1  0
  6  7  1  0
  6  8  1  0
  8  9  1  0
 23 26  1  0
 26 27  2  0
 27 28  1  0
 28 37  1  0
 37 38  2  0
 37 39  1  0
 28 29  2  0
 29 30  1  0
 29 31  1  0
 31 32  1  0
 31 33  2  0
 33 34  1  0
  8  3  1  0
 33 26  1  0
 16 12  1  0
 24 25  1  0
  7 10  1  0
  9 11  1  0
 32 35  1  0
 34 36  1  0
M  CHG 1  37   1
M  CHG 1  39  -1
M  END
> <minimizedAffinity>
-6.81535

> <CNNscore>
0.2876762152

> <CNNaffinity>
5.1614036560

> <CNN_VS>
1.4848130941

> <CNNaffinity_variance>
0.2974965870

$$$$



 39 41  0  0  0  0  0  0  0  0999 V2000
  -21.2100   36.9367    9.6560 C   0  0  0  0  0  0  0  0  0  0  0  0
  -20.6503   36.7776   10.8679 C   0  0  0  0  0  0  0  0  0  0  0  0
  -21.3378   36.3760   12.1429 C   0  0  0  0  0  0  0  0  0  0  0  0
  -21.6850   34.9823   12.0195 O   0  0  0  0  0  0  0  0  0  0  0  0
  -21.6082   34.3821   13.3284 C   0  0  0  0  0  0  0  0  0  0  0  0
  -21.2594   35.4831   14.3339 C   0  0  0  0  0  0  0  0  0  0  0  0
  -22.4450   36.1002   14.8763 O   0  0  0  0  0  0  0  0  0  0  0  0
  -20.5526   36.5011   13.4549 C   0  0  0  0  0  0  0  0  0  0  0  0
  -20.6021   37.8047   14.0265 O   0  0  0  0  0  0  0  0  0  0  0  0
  -22.9888   36.4477   14.1522 H   0  0  0  0  0  0  0  0  0  0  0  0
  -21.5262   38.0538   14.1838 H   0  0  0  0  0  0  0  0  0  0  0  0
  -20.6288   33.3058   13.3086 N   0  0  0  0  0  0  0  0  0  0  0  0
  -19.7403   33.0515   14.3148 C   0  0  0  0  0  0  0  0  0  0  0  0
  -18.9408   32.0562   14.0108 N   0  0  0  0  0  0  0  0  0  0  0  0
  -19.3369   31.6160   12.7529 C   0  0  0  0  0  0  0  0  0  0  0  0
  -20.3929   32.3987   12.3125 C   0  0  0  0  0  0  0  0  0  0  0  0
  -18.6793   30.4574   12.0561 C   0  0  0  0  0  0  0  0  0  0  0  0
  -18.0730   29.6138   12.9332 F   0  0  0  0  0  0  0  0  0  0  0  0
  -17.7341   30.8475   11.1602 F   0  0  0  0  0  0  0  0  0  0  0  0
  -19.5833   29.7104   11.3619 F   0  0  0  0  0  0  0  0  0  0  0  0
  -20.4544   37.3371    8.4288 C   0  0  0  0  0  0  0  0  0  0  0  0
  -18.4070   36.2512    6.8544 O   0  0  0  0  0  0  0  0  0  0  0  0
  -18.1162   36.8402    7.8908 C   0  0  0  0  0  0  0  0  0  0  0  0
  -19.0549   37.3390    8.7590 N   0  0  0  0  0  0  0  0  0  0  0  0
  -18.7642   37.7055    9.6253 H   0  0  0  0  0  0  0  0  0  0  0  0
  -16.6787   37.0364    8.2488 C   0  0  0  0  0  0  0  0  0  0  0  0
  -16.4023   37.7824    9.4065 C   0  0  0  0  0  0  0  0  0  0  0  0
  -15.0722   37.9990    9.7953 C   0  0  0  0  0  0  0  0  0  0  0  0
  -13.9958   37.5024    9.0647 C   0  0  0  0  0  0  0  0  0  0  0  0
  -12.3458   37.7772    9.4929 Cl  0  0  0  0  0  0  0  0  0  0  0  0
  -14.2797   36.7592    7.9185 C   0  0  0  0  0  0  0  0  0  0  0  0
  -13.2923   36.2203    7.1270 O   0  0  0  0  0  0  0  0  0  0  0  0
  -15.6017   36.5246    7.5132 C   0  0  0  0  0  0  0  0  0  0  0  0
  -15.7886   35.7752    6.3777 O   0  0  0  0  0  0  0  0  0  0  0  0
  -12.3913   36.3462    7.3512 H   0  0  0  0  0  0  0  0  0  0  0  0
  -15.0486   35.4462    5.9065 H   0  0  0  0  0  0  0  0  0  0  0  0
  -14.8391   38.7652   10.9940 N   0  0  0  0  0  0  0  0  0  0  0  0
  -14.6108   38.1290   12.0297 O   0  0  0  0  0  0  0  0  0  0  0  0
  -14.9069   39.9954   10.8896 O   0  0  0  0  0  0  0  0  0  0  0  0
 22 23  2  0
 23 24  1  0
 24 21  1  0
 21  1  1  0
  1  2  2  0
  3  2  1  0
  3  4  1  0
  4  5  1  0
  5 12  1  0
 12 13  1  0
 13 14  2  0
 14 15  1  0
 15 17  1  0
 17 18  1  0
 17 19  1  0
 17 20  1  0
 15 16  2  0
  5  6  1  0
  6  7  1  0
  6  8  1  0
  8  9  1  0
 23 26  1  0
 26 27  2  0
 27 28  1  0
 28 37  1  0
 37 38  2  0
 37 39  1  0
 28 29  2  0
 29 30  1  0
 29 31  1  0
 31 32  1  0
 31 33  2  0
 33 34  1  0
  8  3  1  0
 33 26  1  0
 16 12  1  0
 24 25  1  0
  7 10  1  0
  9 11  1  0
 32 35  1  0
 34 36  1  0
M  CHG 1  37   1
M  CHG 1  39  -1
M  END
> <minimizedAffinity>
-6.35620

> <CNNscore>
0.2340652943

> <CNNaffinity>
4.4353442192

> <CNN_VS>
1.0381602049

> <CNNaffinity_variance>
0.6858903766

$$$$
