


 34 35  0  0  0  0  0  0  0  0999 V2000
   20.4729   35.3604    4.1338 C   0  0  0  0  0  0  0  0  0  0  0  0
   18.6111   33.7170    4.6998 C   0  0  0  0  0  0  0  0  0  0  0  0
   17.8340   32.5818    4.4247 C   0  0  0  0  0  0  0  0  0  0  0  0
   16.9013   32.1701    5.3418 O   0  0  0  0  0  0  0  0  0  0  0  0
   18.0349   31.8663    3.2418 C   0  0  0  0  0  0  0  0  0  0  0  0
   16.9670   30.3342    2.8783 Br  0  0  0  0  0  0  0  0  0  0  0  0
   19.0263   32.2748    2.3473 C   0  0  0  0  0  0  0  0  0  0  0  0
   19.2225   31.5573    1.1930 O   0  0  0  0  0  0  0  0  0  0  0  0
   19.8198   33.4000    2.6289 C   0  0  0  0  0  0  0  0  0  0  0  0
   21.0544   33.8250    1.4868 Cl  0  0  0  0  0  0  0  0  0  0  0  0
   19.6222   34.1475    3.8049 C   0  0  0  0  0  0  0  0  0  0  0  0
   16.7746   32.6573    6.1321 H   0  0  0  0  0  0  0  0  0  0  0  0
   18.6902   30.8080    1.0108 H   0  0  0  0  0  0  0  0  0  0  0  0
   18.3984   34.4416    5.9705 C   0  0  0  0  0  0  0  0  0  0  0  0
   17.3968   35.1004    6.2071 O   0  0  0  0  0  0  0  0  0  0  0  0
   19.5288   35.0592    7.9147 C   0  0  0  0  0  0  0  0  0  0  0  0
   19.4035   34.1439    6.8255 O   0  0  0  0  0  0  0  0  0  0  0  0
   21.8493   34.9664    4.6698 C   0  0  0  0  0  0  0  0  0  0  0  0
   22.4665   36.1157    5.4398 C   0  0  0  0  0  0  0  0  0  0  0  0
   21.7794   36.8335    6.1596 O   0  0  0  0  0  0  0  0  0  0  0  0
   23.8261   36.2206    5.2603 N   0  0  0  0  0  0  0  0  0  0  0  0
   24.2130   35.5686    4.6324 H   0  0  0  0  0  0  0  0  0  0  0  0
   24.7571   37.1189    5.8366 C   0  0  0  0  0  0  0  0  0  0  0  0
   25.7016   37.6382    4.9367 C   0  0  0  0  0  0  0  0  0  0  0  0
   26.6840   38.5236    5.3699 C   0  0  0  0  0  0  0  0  0  0  0  0
   27.5828   38.9917    4.4493 O   0  0  0  0  0  0  0  0  0  0  0  0
   26.7657   38.9315    6.7006 C   0  0  0  0  0  0  0  0  0  0  0  0
   25.8344   38.4276    7.6019 C   0  0  0  0  0  0  0  0  0  0  0  0
   24.8404   37.5301    7.1764 C   0  0  0  0  0  0  0  0  0  0  0  0
   24.0087   37.1299    8.1833 O   0  0  0  0  0  0  0  0  0  0  0  0
   27.5251   38.7156    3.5558 H   0  0  0  0  0  0  0  0  0  0  0  0
   24.1358   37.4548    9.0529 H   0  0  0  0  0  0  0  0  0  0  0  0
   27.7820   39.8065    6.9820 O   0  0  0  0  0  0  0  0  0  0  0  0
   28.8427   39.3040    7.7881 C   0  0  0  0  0  0  0  0  0  0  0  0
 16 17  1  0
 17 14  1  0
 14 15  2  0
 14  2  1  0
  2  3  2  0
  3  4  1  0
  3  5  1  0
  5  6  1  0
  5  7  2  0
  7  8  1  0
  7  9  1  0
  9 10  1  0
  9 11  2  0
 11  1  1  0
  1 18  1  0
 18 19  1  0
 19 20  2  0
 19 21  1  0
 21 23  1  0
 23 24  2  0
 24 25  1  0
 25 26  1  0
 25 27  2  0
 27 33  1  0
 33 34  1  0
 27 28  1  0
 28 29  2  0
 29 30  1  0
 11  2  1  0
 29 23  1  0
  4 12  1  0
  8 13  1  0
 21 22  1  0
 26 31  1  0
 30 32  1  0
M  END
> <minimizedAffinity>
-7.36075

> <CNNscore>
0.8104032278

> <CNNaffinity>
6.3408074379

> <CNN_VS>
5.1386108398

> <CNNaffinity_variance>
0.0327837206

$$$$



 34 35  0  0  0  0  0  0  0  0999 V2000
   20.6321   35.3040    4.3608 C   0  0  0  0  0  0  0  0  0  0  0  0
   18.6370   33.7905    4.8258 C   0  0  0  0  0  0  0  0  0  0  0  0
   17.8013   32.7091    4.5089 C   0  0  0  0  0  0  0  0  0  0  0  0
   16.7958   32.3633    5.3748 O   0  0  0  0  0  0  0  0  0  0  0  0
   18.0163   31.9785    3.3377 C   0  0  0  0  0  0  0  0  0  0  0  0
   16.8691   30.5202    2.9169 Br  0  0  0  0  0  0  0  0  0  0  0  0
   19.0790   32.3172    2.4976 C   0  0  0  0  0  0  0  0  0  0  0  0
   19.2877   31.5849    1.3547 O   0  0  0  0  0  0  0  0  0  0  0  0
   19.9300   33.3875    2.8218 C   0  0  0  0  0  0  0  0  0  0  0  0
   21.2492   33.7258    1.7473 Cl  0  0  0  0  0  0  0  0  0  0  0  0
   19.7208   34.1499    3.9862 C   0  0  0  0  0  0  0  0  0  0  0  0
   16.6602   32.8601    6.1576 H   0  0  0  0  0  0  0  0  0  0  0  0
   18.7168   30.8724    1.1440 H   0  0  0  0  0  0  0  0  0  0  0  0
   18.4062   34.5313    6.0839 C   0  0  0  0  0  0  0  0  0  0  0  0
   17.4689   35.2979    6.2482 O   0  0  0  0  0  0  0  0  0  0  0  0
   19.4554   35.0231    8.1079 C   0  0  0  0  0  0  0  0  0  0  0  0
   19.3002   34.1203    7.0121 O   0  0  0  0  0  0  0  0  0  0  0  0
   21.5752   34.9403    5.5078 C   0  0  0  0  0  0  0  0  0  0  0  0
   22.2355   33.6023    5.2464 C   0  0  0  0  0  0  0  0  0  0  0  0
   21.7013   32.5558    5.6000 O   0  0  0  0  0  0  0  0  0  0  0  0
   23.4285   33.7092    4.5703 N   0  0  0  0  0  0  0  0  0  0  0  0
   23.7160   34.6313    4.3798 H   0  0  0  0  0  0  0  0  0  0  0  0
   24.3085   32.7017    4.1051 C   0  0  0  0  0  0  0  0  0  0  0  0
   24.5406   32.7227    2.7205 C   0  0  0  0  0  0  0  0  0  0  0  0
   25.3755   31.7816    2.1256 C   0  0  0  0  0  0  0  0  0  0  0  0
   25.5590   31.8462    0.7703 O   0  0  0  0  0  0  0  0  0  0  0  0
   26.0136   30.7932    2.8737 C   0  0  0  0  0  0  0  0  0  0  0  0
   25.7953   30.7629    4.2466 C   0  0  0  0  0  0  0  0  0  0  0  0
   24.9513   31.7058    4.8576 C   0  0  0  0  0  0  0  0  0  0  0  0
   24.8427   31.5367    6.2085 O   0  0  0  0  0  0  0  0  0  0  0  0
   25.1287   32.5117    0.2705 H   0  0  0  0  0  0  0  0  0  0  0  0
   25.3084   30.8430    6.6328 H   0  0  0  0  0  0  0  0  0  0  0  0
   26.8061   29.9369    2.1550 O   0  0  0  0  0  0  0  0  0  0  0  0
   26.5303   28.5478    2.3022 C   0  0  0  0  0  0  0  0  0  0  0  0
 16 17  1  0
 17 14  1  0
 14 15  2  0
 14  2  1  0
  2  3  2  0
  3  4  1  0
  3  5  1  0
  5  6  1  0
  5  7  2  0
  7  8  1  0
  7  9  1  0
  9 10  1  0
  9 11  2  0
 11  1  1  0
  1 18  1  0
 18 19  1  0
 19 20  2  0
 19 21  1  0
 21 23  1  0
 23 24  2  0
 24 25  1  0
 25 26  1  0
 25 27  2  0
 27 33  1  0
 33 34  1  0
 27 28  1  0
 28 29  2  0
 29 30  1  0
 11  2  1  0
 29 23  1  0
  4 12  1  0
  8 13  1  0
 21 22  1  0
 26 31  1  0
 30 32  1  0
M  END
> <minimizedAffinity>
-8.33077

> <CNNscore>
0.7728908658

> <CNNaffinity>
6.2645983696

> <CNN_VS>
4.8418507576

> <CNNaffinity_variance>
0.0649149492

$$$$



 34 35  0  0  0  0  0  0  0  0999 V2000
   20.9943   35.2300    4.3558 C   0  0  0  0  0  0  0  0  0  0  0  0
   19.1929   33.5366    4.9679 C   0  0  0  0  0  0  0  0  0  0  0  0
   18.3434   32.4641    4.6576 C   0  0  0  0  0  0  0  0  0  0  0  0
   17.5571   31.9255    5.6434 O   0  0  0  0  0  0  0  0  0  0  0  0
   18.3267   31.9363    3.3642 C   0  0  0  0  0  0  0  0  0  0  0  0
   17.1627   30.4878    2.9562 Br  0  0  0  0  0  0  0  0  0  0  0  0
   19.1746   32.4678    2.3903 C   0  0  0  0  0  0  0  0  0  0  0  0
   19.1579   31.9337    1.1253 O   0  0  0  0  0  0  0  0  0  0  0  0
   20.0410   33.5292    2.7027 C   0  0  0  0  0  0  0  0  0  0  0  0
   21.0895   34.1127    1.4499 Cl  0  0  0  0  0  0  0  0  0  0  0  0
   20.0609   34.0897    3.9936 C   0  0  0  0  0  0  0  0  0  0  0  0
   17.5758   32.2871    6.5076 H   0  0  0  0  0  0  0  0  0  0  0  0
   18.5779   31.2260    0.9231 H   0  0  0  0  0  0  0  0  0  0  0  0
   19.2125   34.0601    6.3501 C   0  0  0  0  0  0  0  0  0  0  0  0
   18.4149   34.8878    6.7648 O   0  0  0  0  0  0  0  0  0  0  0  0
   20.7183   34.1495    8.1287 C   0  0  0  0  0  0  0  0  0  0  0  0
   20.1420   33.3879    7.0669 O   0  0  0  0  0  0  0  0  0  0  0  0
   22.2021   35.3008    3.4211 C   0  0  0  0  0  0  0  0  0  0  0  0
   23.4530   34.8331    4.1360 C   0  0  0  0  0  0  0  0  0  0  0  0
   24.4839   34.5971    3.5138 O   0  0  0  0  0  0  0  0  0  0  0  0
   23.2974   34.7450    5.4997 N   0  0  0  0  0  0  0  0  0  0  0  0
   22.3939   34.9566    5.8285 H   0  0  0  0  0  0  0  0  0  0  0  0
   24.2323   34.3979    6.5054 C   0  0  0  0  0  0  0  0  0  0  0  0
   24.2196   33.0425    6.8719 C   0  0  0  0  0  0  0  0  0  0  0  0
   25.0781   32.5648    7.8575 C   0  0  0  0  0  0  0  0  0  0  0  0
   25.0163   31.2353    8.1788 O   0  0  0  0  0  0  0  0  0  0  0  0
   25.9807   33.4032    8.5104 C   0  0  0  0  0  0  0  0  0  0  0  0
   26.0062   34.7472    8.1548 C   0  0  0  0  0  0  0  0  0  0  0  0
   25.1414   35.2413    7.1636 C   0  0  0  0  0  0  0  0  0  0  0  0
   25.2917   36.5796    6.9353 O   0  0  0  0  0  0  0  0  0  0  0  0
   24.4086   30.6746    7.7381 H   0  0  0  0  0  0  0  0  0  0  0  0
   25.9253   37.0695    7.4216 H   0  0  0  0  0  0  0  0  0  0  0  0
   26.7636   32.7951    9.4564 O   0  0  0  0  0  0  0  0  0  0  0  0
   28.1469   32.6674    9.1441 C   0  0  0  0  0  0  0  0  0  0  0  0
 16 17  1  0
 17 14  1  0
 14 15  2  0
 14  2  1  0
  2  3  2  0
  3  4  1  0
  3  5  1  0
  5  6  1  0
  5  7  2  0
  7  8  1  0
  7  9  1  0
  9 10  1  0
  9 11  2  0
 11  1  1  0
  1 18  1  0
 18 19  1  0
 19 20  2  0
 19 21  1  0
 21 23  1  0
 23 24  2  0
 24 25  1  0
 25 26  1  0
 25 27  2  0
 27 33  1  0
 33 34  1  0
 27 28  1  0
 28 29  2  0
 29 30  1  0
 11  2  1  0
 29 23  1  0
  4 12  1  0
  8 13  1  0
 21 22  1  0
 26 31  1  0
 30 32  1  0
M  END
> <minimizedAffinity>
-6.35093

> <CNNscore>
0.6748481989

> <CNNaffinity>
5.9124045372

> <CNN_VS>
3.9899754524

> <CNNaffinity_variance>
0.0064658062

$$$$



 34 35  0  0  0  0  0  0  0  0999 V2000
   21.0397   35.0398    4.2500 C   0  0  0  0  0  0  0  0  0  0  0  0
   19.1462   33.4476    4.8554 C   0  0  0  0  0  0  0  0  0  0  0  0
   18.2572   32.4061    4.5499 C   0  0  0  0  0  0  0  0  0  0  0  0
   17.4200   31.9318    5.5268 O   0  0  0  0  0  0  0  0  0  0  0  0
   18.2520   31.8432    3.2713 C   0  0  0  0  0  0  0  0  0  0  0  0
   17.0343   30.4377    2.8692 Br  0  0  0  0  0  0  0  0  0  0  0  0
   19.1500   32.3080    2.3083 C   0  0  0  0  0  0  0  0  0  0  0  0
   19.1437   31.7395    1.0582 O   0  0  0  0  0  0  0  0  0  0  0  0
   20.0553   33.3376    2.6168 C   0  0  0  0  0  0  0  0  0  0  0  0
   21.1637   33.8374    1.3794 Cl  0  0  0  0  0  0  0  0  0  0  0  0
   20.0653   33.9331    3.8920 C   0  0  0  0  0  0  0  0  0  0  0  0
   17.4315   32.3166    6.3811 H   0  0  0  0  0  0  0  0  0  0  0  0
   18.5376   31.0533    0.8586 H   0  0  0  0  0  0  0  0  0  0  0  0
   19.1516   34.0087    6.2229 C   0  0  0  0  0  0  0  0  0  0  0  0
   19.9866   33.7141    7.0651 O   0  0  0  0  0  0  0  0  0  0  0  0
   17.8903   35.3454    7.6586 C   0  0  0  0  0  0  0  0  0  0  0  0
   18.1928   34.9581    6.3176 O   0  0  0  0  0  0  0  0  0  0  0  0
   22.4030   34.8394    3.5876 C   0  0  0  0  0  0  0  0  0  0  0  0
   23.0472   33.5594    4.0788 C   0  0  0  0  0  0  0  0  0  0  0  0
   22.5953   32.9576    5.0479 O   0  0  0  0  0  0  0  0  0  0  0  0
   24.1237   33.1674    3.3177 N   0  0  0  0  0  0  0  0  0  0  0  0
   24.3587   33.7811    2.5847 H   0  0  0  0  0  0  0  0  0  0  0  0
   24.9473   32.0200    3.4225 C   0  0  0  0  0  0  0  0  0  0  0  0
   25.1793   31.5856    4.7373 C   0  0  0  0  0  0  0  0  0  0  0  0
   25.9815   30.4763    4.9882 C   0  0  0  0  0  0  0  0  0  0  0  0
   26.1785   30.1032    6.2906 O   0  0  0  0  0  0  0  0  0  0  0  0
   26.5765   29.7551    3.9540 C   0  0  0  0  0  0  0  0  0  0  0  0
   26.3522   30.1723    2.6466 C   0  0  0  0  0  0  0  0  0  0  0  0
   25.5471   31.2931    2.3817 C   0  0  0  0  0  0  0  0  0  0  0  0
   25.4298   31.5699    1.0493 O   0  0  0  0  0  0  0  0  0  0  0  0
   25.7772   30.5901    6.9833 H   0  0  0  0  0  0  0  0  0  0  0  0
   25.8655   31.0309    0.4188 H   0  0  0  0  0  0  0  0  0  0  0  0
   27.3378   28.6867    4.3496 O   0  0  0  0  0  0  0  0  0  0  0  0
   26.7853   27.3958    4.1136 C   0  0  0  0  0  0  0  0  0  0  0  0
 16 17  1  0
 17 14  1  0
 14 15  2  0
 14  2  1  0
  2  3  2  0
  3  4  1  0
  3  5  1  0
  5  6  1  0
  5  7  2  0
  7  8  1  0
  7  9  1  0
  9 10  1  0
  9 11  2  0
 11  1  1  0
  1 18  1  0
 18 19  1  0
 19 20  2  0
 19 21  1  0
 21 23  1  0
 23 24  2  0
 24 25  1  0
 25 26  1  0
 25 27  2  0
 27 33  1  0
 33 34  1  0
 27 28  1  0
 28 29  2  0
 29 30  1  0
 11  2  1  0
 29 23  1  0
  4 12  1  0
  8 13  1  0
 21 22  1  0
 26 31  1  0
 30 32  1  0
M  END
> <minimizedAffinity>
-8.25021

> <CNNscore>
0.6243270636

> <CNNaffinity>
5.9764938354

> <CNN_VS>
3.7312867641

> <CNNaffinity_variance>
0.1490883082

$$$$



 34 35  0  0  0  0  0  0  0  0999 V2000
   20.5326   35.1695    4.3599 C   0  0  0  0  0  0  0  0  0  0  0  0
   18.7671   33.3761    4.7521 C   0  0  0  0  0  0  0  0  0  0  0  0
   18.0311   32.2521    4.3479 C   0  0  0  0  0  0  0  0  0  0  0  0
   17.1519   31.6752    5.2280 O   0  0  0  0  0  0  0  0  0  0  0  0
   18.2197   31.7140    3.0726 C   0  0  0  0  0  0  0  0  0  0  0  0
   17.2077   30.1950    2.5355 Br  0  0  0  0  0  0  0  0  0  0  0  0
   19.1585   32.2875    2.2127 C   0  0  0  0  0  0  0  0  0  0  0  0
   19.3435   31.7433    0.9655 O   0  0  0  0  0  0  0  0  0  0  0  0
   19.9115   33.4015    2.6214 C   0  0  0  0  0  0  0  0  0  0  0  0
   21.0833   34.0368    1.5112 Cl  0  0  0  0  0  0  0  0  0  0  0  0
   19.7246   33.9725    3.8942 C   0  0  0  0  0  0  0  0  0  0  0  0
   17.0330   32.0441    6.0810 H   0  0  0  0  0  0  0  0  0  0  0  0
   18.8384   31.0005    0.6988 H   0  0  0  0  0  0  0  0  0  0  0  0
   18.5697   33.9108    6.1159 C   0  0  0  0  0  0  0  0  0  0  0  0
   19.3538   33.7155    7.0326 O   0  0  0  0  0  0  0  0  0  0  0  0
   17.3406   35.4827    7.3232 C   0  0  0  0  0  0  0  0  0  0  0  0
   17.4885   34.7237    6.1225 O   0  0  0  0  0  0  0  0  0  0  0  0
   21.1389   34.9474    5.7457 C   0  0  0  0  0  0  0  0  0  0  0  0
   22.5718   34.4706    5.6265 C   0  0  0  0  0  0  0  0  0  0  0  0
   22.9087   33.3724    6.0577 O   0  0  0  0  0  0  0  0  0  0  0  0
   23.3895   35.3670    4.9789 N   0  0  0  0  0  0  0  0  0  0  0  0
   22.9540   36.2092    4.7140 H   0  0  0  0  0  0  0  0  0  0  0  0
   24.7595   35.2694    4.6333 C   0  0  0  0  0  0  0  0  0  0  0  0
   25.6360   35.8889    5.5385 C   0  0  0  0  0  0  0  0  0  0  0  0
   27.0097   35.8808    5.3163 C   0  0  0  0  0  0  0  0  0  0  0  0
   27.8153   36.5072    6.2291 O   0  0  0  0  0  0  0  0  0  0  0  0
   27.5664   35.2583    4.1998 C   0  0  0  0  0  0  0  0  0  0  0  0
   26.7101   34.6379    3.2969 C   0  0  0  0  0  0  0  0  0  0  0  0
   25.3210   34.6430    3.5092 C   0  0  0  0  0  0  0  0  0  0  0  0
   24.6237   33.9934    2.5307 O   0  0  0  0  0  0  0  0  0  0  0  0
   27.4379   36.9246    6.9783 H   0  0  0  0  0  0  0  0  0  0  0  0
   25.0797   33.6014    1.8121 H   0  0  0  0  0  0  0  0  0  0  0  0
   28.9320   35.3288    4.1120 O   0  0  0  0  0  0  0  0  0  0  0  0
   29.6470   34.1371    4.4216 C   0  0  0  0  0  0  0  0  0  0  0  0
 16 17  1  0
 17 14  1  0
 14 15  2  0
 14  2  1  0
  2  3  2  0
  3  4  1  0
  3  5  1  0
  5  6  1  0
  5  7  2  0
  7  8  1  0
  7  9  1  0
  9 10  1  0
  9 11  2  0
 11  1  1  0
  1 18  1  0
 18 19  1  0
 19 20  2  0
 19 21  1  0
 21 23  1  0
 23 24  2  0
 24 25  1  0
 25 26  1  0
 25 27  2  0
 27 33  1  0
 33 34  1  0
 27 28  1  0
 28 29  2  0
 29 30  1  0
 11  2  1  0
 29 23  1  0
  4 12  1  0
  8 13  1  0
 21 22  1  0
 26 31  1  0
 30 32  1  0
M  END
> <minimizedAffinity>
-6.41765

> <CNNscore>
0.5950570703

> <CNNaffinity>
6.2763080597

> <CNN_VS>
3.7347614765

> <CNNaffinity_variance>
0.0350717232

$$$$



 34 35  0  0  0  0  0  0  0  0999 V2000
   22.1021   35.5851    4.5370 C   0  0  0  0  0  0  0  0  0  0  0  0
   24.1684   34.5137    3.5027 C   0  0  0  0  0  0  0  0  0  0  0  0
   25.0466   33.4344    3.3233 C   0  0  0  0  0  0  0  0  0  0  0  0
   26.0783   33.5520    2.4277 O   0  0  0  0  0  0  0  0  0  0  0  0
   24.8479   32.2458    4.0299 C   0  0  0  0  0  0  0  0  0  0  0  0
   26.0525   30.7940    3.7828 Br  0  0  0  0  0  0  0  0  0  0  0  0
   23.7598   32.1316    4.8975 C   0  0  0  0  0  0  0  0  0  0  0  0
   23.5678   30.9545    5.5783 O   0  0  0  0  0  0  0  0  0  0  0  0
   22.8668   33.2038    5.0649 C   0  0  0  0  0  0  0  0  0  0  0  0
   21.5192   32.9746    6.1329 Cl  0  0  0  0  0  0  0  0  0  0  0  0
   23.0583   34.4175    4.3785 C   0  0  0  0  0  0  0  0  0  0  0  0
   26.2027   34.3538    1.9590 H   0  0  0  0  0  0  0  0  0  0  0  0
   24.1666   30.2433    5.4625 H   0  0  0  0  0  0  0  0  0  0  0  0
   24.3836   35.7513    2.7237 C   0  0  0  0  0  0  0  0  0  0  0  0
   25.0597   36.6869    3.1249 O   0  0  0  0  0  0  0  0  0  0  0  0
   24.7733   35.7015    0.4249 C   0  0  0  0  0  0  0  0  0  0  0  0
   23.8340   35.6053    1.4964 O   0  0  0  0  0  0  0  0  0  0  0  0
   21.3320   35.8740    3.2483 C   0  0  0  0  0  0  0  0  0  0  0  0
   20.6328   34.6230    2.7575 C   0  0  0  0  0  0  0  0  0  0  0  0
   21.0272   34.0314    1.7575 O   0  0  0  0  0  0  0  0  0  0  0  0
   19.5787   34.2427    3.5549 N   0  0  0  0  0  0  0  0  0  0  0  0
   19.3914   34.8457    4.3102 H   0  0  0  0  0  0  0  0  0  0  0  0
   18.7201   33.1203    3.4605 C   0  0  0  0  0  0  0  0  0  0  0  0
   19.0384   32.2268    2.4252 C   0  0  0  0  0  0  0  0  0  0  0  0
   18.2704   31.0864    2.2094 C   0  0  0  0  0  0  0  0  0  0  0  0
   18.6236   30.2552    1.1804 O   0  0  0  0  0  0  0  0  0  0  0  0
   17.1684   30.7848    3.0084 C   0  0  0  0  0  0  0  0  0  0  0  0
   16.8440   31.6594    4.0396 C   0  0  0  0  0  0  0  0  0  0  0  0
   17.6100   32.8158    4.2644 C   0  0  0  0  0  0  0  0  0  0  0  0
   17.1580   33.5667    5.3119 O   0  0  0  0  0  0  0  0  0  0  0  0
   19.3648   30.4608    0.6453 H   0  0  0  0  0  0  0  0  0  0  0  0
   16.4063   33.2890    5.7975 H   0  0  0  0  0  0  0  0  0  0  0  0
   16.5079   29.6299    2.6806 O   0  0  0  0  0  0  0  0  0  0  0  0
   15.0862   29.7018    2.6524 C   0  0  0  0  0  0  0  0  0  0  0  0
 16 17  1  0
 17 14  1  0
 14 15  2  0
 14  2  1  0
  2  3  2  0
  3  4  1  0
  3  5  1  0
  5  6  1  0
  5  7  2  0
  7  8  1  0
  7  9  1  0
  9 10  1  0
  9 11  2  0
 11  1  1  0
  1 18  1  0
 18 19  1  0
 19 20  2  0
 19 21  1  0
 21 23  1  0
 23 24  2  0
 24 25  1  0
 25 26  1  0
 25 27  2  0
 27 33  1  0
 33 34  1  0
 27 28  1  0
 28 29  2  0
 29 30  1  0
 11  2  1  0
 29 23  1  0
  4 12  1  0
  8 13  1  0
 21 22  1  0
 26 31  1  0
 30 32  1  0
M  END
> <minimizedAffinity>
-7.58315

> <CNNscore>
0.5766512156

> <CNNaffinity>
5.7252230644

> <CNN_VS>
3.3014569283

> <CNNaffinity_variance>
0.3926993310

$$$$



 34 35  0  0  0  0  0  0  0  0999 V2000
   21.1158   34.9687    4.4454 C   0  0  0  0  0  0  0  0  0  0  0  0
   19.2252   33.3359    4.9425 C   0  0  0  0  0  0  0  0  0  0  0  0
   18.3395   32.3143    4.5683 C   0  0  0  0  0  0  0  0  0  0  0  0
   17.5016   31.7757    5.5107 O   0  0  0  0  0  0  0  0  0  0  0  0
   18.3384   31.8351    3.2560 C   0  0  0  0  0  0  0  0  0  0  0  0
   17.1252   30.4555    2.7613 Br  0  0  0  0  0  0  0  0  0  0  0  0
   19.2371   32.3634    2.3270 C   0  0  0  0  0  0  0  0  0  0  0  0
   19.2348   31.8769    1.0428 O   0  0  0  0  0  0  0  0  0  0  0  0
   20.1391   33.3732    2.7034 C   0  0  0  0  0  0  0  0  0  0  0  0
   21.2487   33.9546    1.5033 Cl  0  0  0  0  0  0  0  0  0  0  0  0
   20.1450   33.8850    4.0144 C   0  0  0  0  0  0  0  0  0  0  0  0
   17.5104   32.1045    6.3881 H   0  0  0  0  0  0  0  0  0  0  0  0
   18.6310   31.2035    0.7980 H   0  0  0  0  0  0  0  0  0  0  0  0
   19.2264   33.8075    6.3434 C   0  0  0  0  0  0  0  0  0  0  0  0
   20.0725   33.4777    7.1610 O   0  0  0  0  0  0  0  0  0  0  0  0
   18.4338   35.5819    7.6327 C   0  0  0  0  0  0  0  0  0  0  0  0
   18.2476   34.7273    6.5036 O   0  0  0  0  0  0  0  0  0  0  0  0
   22.4498   34.3888    4.9158 C   0  0  0  0  0  0  0  0  0  0  0  0
   23.4222   35.5011    5.2504 C   0  0  0  0  0  0  0  0  0  0  0  0
   23.0197   36.6121    5.5809 O   0  0  0  0  0  0  0  0  0  0  0  0
   24.7391   35.1125    5.1707 N   0  0  0  0  0  0  0  0  0  0  0  0
   24.8804   34.1850    4.8725 H   0  0  0  0  0  0  0  0  0  0  0  0
   25.9239   35.8364    5.4500 C   0  0  0  0  0  0  0  0  0  0  0  0
   26.8090   35.1916    6.3287 C   0  0  0  0  0  0  0  0  0  0  0  0
   28.0070   35.7946    6.6999 C   0  0  0  0  0  0  0  0  0  0  0  0
   28.8274   35.1221    7.5655 O   0  0  0  0  0  0  0  0  0  0  0  0
   28.3760   37.0484    6.2145 C   0  0  0  0  0  0  0  0  0  0  0  0
   27.5103   37.6968    5.3407 C   0  0  0  0  0  0  0  0  0  0  0  0
   26.2962   37.0991    4.9619 C   0  0  0  0  0  0  0  0  0  0  0  0
   25.5630   37.8662    4.1020 O   0  0  0  0  0  0  0  0  0  0  0  0
   28.5765   34.2796    7.8898 H   0  0  0  0  0  0  0  0  0  0  0  0
   25.8874   38.7006    3.8255 H   0  0  0  0  0  0  0  0  0  0  0  0
   29.5826   37.5170    6.6643 O   0  0  0  0  0  0  0  0  0  0  0  0
   30.6301   37.5891    5.7027 C   0  0  0  0  0  0  0  0  0  0  0  0
 16 17  1  0
 17 14  1  0
 14 15  2  0
 14  2  1  0
  2  3  2  0
  3  4  1  0
  3  5  1  0
  5  6  1  0
  5  7  2  0
  7  8  1  0
  7  9  1  0
  9 10  1  0
  9 11  2  0
 11  1  1  0
  1 18  1  0
 18 19  1  0
 19 20  2  0
 19 21  1  0
 21 23  1  0
 23 24  2  0
 24 25  1  0
 25 26  1  0
 25 27  2  0
 27 33  1  0
 33 34  1  0
 27 28  1  0
 28 29  2  0
 29 30  1  0
 11  2  1  0
 29 23  1  0
  4 12  1  0
  8 13  1  0
 21 22  1  0
 26 31  1  0
 30 32  1  0
M  END
> <minimizedAffinity>
-6.43913

> <CNNscore>
0.5694116950

> <CNNaffinity>
5.8258328438

> <CNN_VS>
3.3172974586

> <CNNaffinity_variance>
0.0089145554

$$$$



 34 35  0  0  0  0  0  0  0  0999 V2000
   20.6178   35.6721    5.5333 C   0  0  0  0  0  0  0  0  0  0  0  0
   20.1367   33.8219    3.8502 C   0  0  0  0  0  0  0  0  0  0  0  0
   19.3225   32.8099    3.3199 C   0  0  0  0  0  0  0  0  0  0  0  0
   19.7228   32.1545    2.1839 O   0  0  0  0  0  0  0  0  0  0  0  0
   18.1048   32.4999    3.9304 C   0  0  0  0  0  0  0  0  0  0  0  0
   17.0157   31.1187    3.2050 Br  0  0  0  0  0  0  0  0  0  0  0  0
   17.6942   33.2166    5.0562 C   0  0  0  0  0  0  0  0  0  0  0  0
   16.4900   32.9108    5.6413 O   0  0  0  0  0  0  0  0  0  0  0  0
   18.4981   34.2443    5.5784 C   0  0  0  0  0  0  0  0  0  0  0  0
   17.9048   35.1132    6.9577 Cl  0  0  0  0  0  0  0  0  0  0  0  0
   19.7376   34.5608    4.9919 C   0  0  0  0  0  0  0  0  0  0  0  0
   20.5415   32.3702    1.7824 H   0  0  0  0  0  0  0  0  0  0  0  0
   15.9585   32.2246    5.2884 H   0  0  0  0  0  0  0  0  0  0  0  0
   21.4078   34.1502    3.1710 C   0  0  0  0  0  0  0  0  0  0  0  0
   21.6988   35.2782    2.8018 O   0  0  0  0  0  0  0  0  0  0  0  0
   22.9933   32.8975    4.3355 C   0  0  0  0  0  0  0  0  0  0  0  0
   22.2007   33.0543    3.1578 O   0  0  0  0  0  0  0  0  0  0  0  0
   21.2594   35.2957    6.8688 C   0  0  0  0  0  0  0  0  0  0  0  0
   22.4345   36.2041    7.1665 C   0  0  0  0  0  0  0  0  0  0  0  0
   22.3290   37.1307    7.9638 O   0  0  0  0  0  0  0  0  0  0  0  0
   23.5778   35.8517    6.4880 N   0  0  0  0  0  0  0  0  0  0  0  0
   23.4773   35.0885    5.8743 H   0  0  0  0  0  0  0  0  0  0  0  0
   24.8770   36.4139    6.5331 C   0  0  0  0  0  0  0  0  0  0  0  0
   25.1272   37.3859    5.5512 C   0  0  0  0  0  0  0  0  0  0  0  0
   26.3673   38.0124    5.4713 C   0  0  0  0  0  0  0  0  0  0  0  0
   26.5565   38.9470    4.4888 O   0  0  0  0  0  0  0  0  0  0  0  0
   27.3993   37.7075    6.3578 C   0  0  0  0  0  0  0  0  0  0  0  0
   27.1639   36.7492    7.3374 C   0  0  0  0  0  0  0  0  0  0  0  0
   25.9169   36.1075    7.4252 C   0  0  0  0  0  0  0  0  0  0  0  0
   25.8509   35.1939    8.4384 O   0  0  0  0  0  0  0  0  0  0  0  0
   25.8609   39.1495    3.8946 H   0  0  0  0  0  0  0  0  0  0  0  0
   26.5951   35.0508    8.9894 H   0  0  0  0  0  0  0  0  0  0  0  0
   28.5632   38.4033    6.1608 O   0  0  0  0  0  0  0  0  0  0  0  0
   29.6719   37.6544    5.6739 C   0  0  0  0  0  0  0  0  0  0  0  0
 16 17  1  0
 17 14  1  0
 14 15  2  0
 14  2  1  0
  2  3  2  0
  3  4  1  0
  3  5  1  0
  5  6  1  0
  5  7  2  0
  7  8  1  0
  7  9  1  0
  9 10  1  0
  9 11  2  0
 11  1  1  0
  1 18  1  0
 18 19  1  0
 19 20  2  0
 19 21  1  0
 21 23  1  0
 23 24  2  0
 24 25  1  0
 25 26  1  0
 25 27  2  0
 27 33  1  0
 33 34  1  0
 27 28  1  0
 28 29  2  0
 29 30  1  0
 11  2  1  0
 29 23  1  0
  4 12  1  0
  8 13  1  0
 21 22  1  0
 26 31  1  0
 30 32  1  0
M  END
> <minimizedAffinity>
-6.70533

> <CNNscore>
0.5181873441

> <CNNaffinity>
5.9165892601

> <CNN_VS>
3.0659017563

> <CNNaffinity_variance>
0.0833386183

$$$$



 34 35  0  0  0  0  0  0  0  0999 V2000
   20.8956   35.6013    6.0571 C   0  0  0  0  0  0  0  0  0  0  0  0
   20.3443   33.9238    4.2215 C   0  0  0  0  0  0  0  0  0  0  0  0
   19.4725   33.0327    3.5780 C   0  0  0  0  0  0  0  0  0  0  0  0
   19.8758   32.4202    2.4193 O   0  0  0  0  0  0  0  0  0  0  0  0
   18.1981   32.8004    4.1011 C   0  0  0  0  0  0  0  0  0  0  0  0
   17.0303   31.5822    3.2224 Br  0  0  0  0  0  0  0  0  0  0  0  0
   17.7908   33.4755    5.2535 C   0  0  0  0  0  0  0  0  0  0  0  0
   16.5318   33.2478    5.7524 O   0  0  0  0  0  0  0  0  0  0  0  0
   18.6544   34.3836    5.8896 C   0  0  0  0  0  0  0  0  0  0  0  0
   18.0648   35.2102    7.2962 Cl  0  0  0  0  0  0  0  0  0  0  0  0
   19.9496   34.6187    5.3919 C   0  0  0  0  0  0  0  0  0  0  0  0
   20.7327   32.5830    2.0771 H   0  0  0  0  0  0  0  0  0  0  0  0
   15.9607   32.6411    5.3238 H   0  0  0  0  0  0  0  0  0  0  0  0
   21.6775   34.1737    3.6340 C   0  0  0  0  0  0  0  0  0  0  0  0
   22.5737   33.3430    3.6275 O   0  0  0  0  0  0  0  0  0  0  0  0
   22.9511   36.0167    2.9855 C   0  0  0  0  0  0  0  0  0  0  0  0
   21.6737   35.3788    3.0196 O   0  0  0  0  0  0  0  0  0  0  0  0
   21.5577   35.0071    7.3004 C   0  0  0  0  0  0  0  0  0  0  0  0
   22.9467   34.5011    6.9699 C   0  0  0  0  0  0  0  0  0  0  0  0
   23.8231   35.2696    6.5867 O   0  0  0  0  0  0  0  0  0  0  0  0
   23.0948   33.1494    7.1762 N   0  0  0  0  0  0  0  0  0  0  0  0
   22.2793   32.6831    7.4708 H   0  0  0  0  0  0  0  0  0  0  0  0
   24.2355   32.3226    7.0315 C   0  0  0  0  0  0  0  0  0  0  0  0
   24.3326   31.6729    5.7905 C   0  0  0  0  0  0  0  0  0  0  0  0
   25.3972   30.8197    5.5163 C   0  0  0  0  0  0  0  0  0  0  0  0
   25.4358   30.2080    4.2921 O   0  0  0  0  0  0  0  0  0  0  0  0
   26.4038   30.5823    6.4513 C   0  0  0  0  0  0  0  0  0  0  0  0
   26.3220   31.2220    7.6833 C   0  0  0  0  0  0  0  0  0  0  0  0
   25.2496   32.0827    7.9725 C   0  0  0  0  0  0  0  0  0  0  0  0
   25.3177   32.6275    9.2231 O   0  0  0  0  0  0  0  0  0  0  0  0
   24.7577   30.3697    3.6660 H   0  0  0  0  0  0  0  0  0  0  0  0
   26.0326   32.4125    9.7894 H   0  0  0  0  0  0  0  0  0  0  0  0
   27.3887   29.7214    6.0434 O   0  0  0  0  0  0  0  0  0  0  0  0
   27.4246   28.4522    6.6876 C   0  0  0  0  0  0  0  0  0  0  0  0
 16 17  1  0
 17 14  1  0
 14 15  2  0
 14  2  1  0
  2  3  2  0
  3  4  1  0
  3  5  1  0
  5  6  1  0
  5  7  2  0
  7  8  1  0
  7  9  1  0
  9 10  1  0
  9 11  2  0
 11  1  1  0
  1 18  1  0
 18 19  1  0
 19 20  2  0
 19 21  1  0
 21 23  1  0
 23 24  2  0
 24 25  1  0
 25 26  1  0
 25 27  2  0
 27 33  1  0
 33 34  1  0
 27 28  1  0
 28 29  2  0
 29 30  1  0
 11  2  1  0
 29 23  1  0
  4 12  1  0
  8 13  1  0
 21 22  1  0
 26 31  1  0
 30 32  1  0
M  END
> <minimizedAffinity>
-6.45605

> <CNNscore>
0.4707796574

> <CNNaffinity>
6.2978529930

> <CNN_VS>
2.9649009705

> <CNNaffinity_variance>
0.0238465890

$$$$
