


 25 26  0  0  0  0  0  0  0  0999 V2000
   32.6586   21.2485   27.0968 C   0  0  0  0  0  0  0  0  0  0  0  0
   33.6667   21.9854   27.8048 O   0  0  0  0  0  0  0  0  0  0  0  0
   33.1306   23.1311   28.4709 C   0  0  0  0  0  0  0  0  0  0  0  0
   32.5993   24.1489   27.4367 C   0  0  0  0  0  0  0  0  0  0  0  0
   31.5273   23.4646   26.5697 C   0  0  0  0  0  0  0  0  0  0  0  0
   32.0137   22.1152   25.9959 C   0  0  0  0  0  0  0  0  0  0  0  0
   34.1937   23.7016   29.3092 N   0  0  0  0  0  0  0  0  0  0  0  0
   35.4942   23.7751   28.8372 C   0  0  0  0  0  0  0  0  0  0  0  0
   36.4671   24.3443   29.5470 C   0  0  0  0  0  0  0  0  0  0  0  0
   37.7344   24.4220   29.1024 F   0  0  0  0  0  0  0  0  0  0  0  0
   36.1653   24.9274   30.8669 C   0  0  0  0  0  0  0  0  0  0  0  0
   37.0167   25.4653   31.5650 O   0  0  0  0  0  0  0  0  0  0  0  0
   34.8545   24.8262   31.2533 N   0  0  0  0  0  0  0  0  0  0  0  0
   33.8349   24.2390   30.5426 C   0  0  0  0  0  0  0  0  0  0  0  0
   32.7030   24.2034   31.0179 O   0  0  0  0  0  0  0  0  0  0  0  0
   34.6194   25.2128   32.1277 H   0  0  0  0  0  0  0  0  0  0  0  0
   32.0191   25.2695   28.1314 O   0  0  0  0  0  0  0  0  0  0  0  0
   30.6035   25.3224   28.0156 C   0  0  0  0  0  0  0  0  0  0  0  0
   31.2127   24.3394   25.4616 O   0  0  0  0  0  0  0  0  0  0  0  0
   29.8242   24.3335   25.1473 C   0  0  0  0  0  0  0  0  0  0  0  0
   30.8688   21.4291   25.4614 O   0  0  0  0  0  0  0  0  0  0  0  0
   29.9233   21.0808   26.4663 C   0  0  0  0  0  0  0  0  0  0  0  0
   33.3595   19.9958   26.5304 C   0  0  0  0  0  0  0  0  0  0  0  0
   32.1162   18.8804   28.2223 C   0  0  0  0  0  0  0  0  0  0  0  0
   33.1499   18.7868   27.2520 O   0  0  0  0  0  0  0  0  0  0  0  0
 24 25  1  0
 25 23  1  0
  1 23  1  0
  1  2  1  0
  2  3  1  0
  3  7  1  0
  7  8  1  0
  8  9  2  0
  9 10  1  0
  9 11  1  0
 11 12  2  0
 11 13  1  0
 13 14  1  0
 14 15  2  0
  3  4  1  0
  4 17  1  0
 17 18  1  0
  4  5  1  0
  5 19  1  0
 19 20  1  0
  5  6  1  0
  6 21  1  0
 21 22  1  0
  6  1  1  0
 14  7  1  0
 13 16  1  0
M  END
> <minimizedAffinity>
-7.24223

> <CNNscore>
0.2313277274

> <CNNaffinity>
4.3256001472

> <CNN_VS>
1.0006312132

> <CNNaffinity_variance>
0.5314414501

$$$$



 25 26  0  0  0  0  0  0  0  0999 V2000
   23.7168   23.3985   28.8345 C   0  0  0  0  0  0  0  0  0  0  0  0
   24.0836   24.4219   29.7719 O   0  0  0  0  0  0  0  0  0  0  0  0
   24.7447   25.5210   29.1405 C   0  0  0  0  0  0  0  0  0  0  0  0
   26.1003   25.0637   28.5568 C   0  0  0  0  0  0  0  0  0  0  0  0
   25.8516   23.9219   27.5550 C   0  0  0  0  0  0  0  0  0  0  0  0
   24.9651   22.8053   28.1499 C   0  0  0  0  0  0  0  0  0  0  0  0
   24.9065   26.5834   30.1423 N   0  0  0  0  0  0  0  0  0  0  0  0
   25.1462   27.8891   29.7458 C   0  0  0  0  0  0  0  0  0  0  0  0
   25.2339   28.8848   30.6263 C   0  0  0  0  0  0  0  0  0  0  0  0
   25.4673   30.1570   30.2564 F   0  0  0  0  0  0  0  0  0  0  0  0
   25.0612   28.6081   32.0639 C   0  0  0  0  0  0  0  0  0  0  0  0
   25.1290   29.4817   32.9205 O   0  0  0  0  0  0  0  0  0  0  0  0
   24.8133   27.2958   32.3704 N   0  0  0  0  0  0  0  0  0  0  0  0
   24.7244   26.2507   31.4820 C   0  0  0  0  0  0  0  0  0  0  0  0
   24.5126   25.1144   31.8974 O   0  0  0  0  0  0  0  0  0  0  0  0
   24.6860   27.0798   33.3225 H   0  0  0  0  0  0  0  0  0  0  0  0
   26.7233   26.1739   27.8827 O   0  0  0  0  0  0  0  0  0  0  0  0
   28.0371   26.4433   28.3535 C   0  0  0  0  0  0  0  0  0  0  0  0
   27.1287   23.3434   27.1993 O   0  0  0  0  0  0  0  0  0  0  0  0
   27.4880   23.6184   25.8495 C   0  0  0  0  0  0  0  0  0  0  0  0
   24.5530   21.9515   27.0689 O   0  0  0  0  0  0  0  0  0  0  0  0
   24.0761   20.6896   27.5219 C   0  0  0  0  0  0  0  0  0  0  0  0
   22.9235   22.3452   29.6361 C   0  0  0  0  0  0  0  0  0  0  0  0
   21.5189   23.9698   30.6562 C   0  0  0  0  0  0  0  0  0  0  0  0
   22.3153   22.8071   30.8374 O   0  0  0  0  0  0  0  0  0  0  0  0
 24 25  1  0
 25 23  1  0
  1 23  1  0
  1  2  1  0
  2  3  1  0
  3  7  1  0
  7  8  1  0
  8  9  2  0
  9 10  1  0
  9 11  1  0
 11 12  2  0
 11 13  1  0
 13 14  1  0
 14 15  2  0
  3  4  1  0
  4 17  1  0
 17 18  1  0
  4  5  1  0
  5 19  1  0
 19 20  1  0
  5  6  1  0
  6 21  1  0
 21 22  1  0
  6  1  1  0
 14  7  1  0
 13 16  1  0
M  END
> <minimizedAffinity>
-5.95078

> <CNNscore>
0.2204937935

> <CNNaffinity>
4.4184021950

> <CNN_VS>
0.9742302895

> <CNNaffinity_variance>
0.2509649694

$$$$



 25 26  0  0  0  0  0  0  0  0999 V2000
   30.6184   24.4536   26.5134 C   0  0  0  0  0  0  0  0  0  0  0  0
   31.5452   24.3704   27.6064 O   0  0  0  0  0  0  0  0  0  0  0  0
   32.7988   23.8089   27.2101 C   0  0  0  0  0  0  0  0  0  0  0  0
   32.6118   22.3358   26.7828 C   0  0  0  0  0  0  0  0  0  0  0  0
   31.5933   22.2769   25.6301 C   0  0  0  0  0  0  0  0  0  0  0  0
   30.2972   23.0519   25.9554 C   0  0  0  0  0  0  0  0  0  0  0  0
   33.7275   23.9408   28.3407 N   0  0  0  0  0  0  0  0  0  0  0  0
   35.0924   23.8051   28.1452 C   0  0  0  0  0  0  0  0  0  0  0  0
   35.9642   23.9822   29.1367 C   0  0  0  0  0  0  0  0  0  0  0  0
   37.2918   23.8528   28.9624 F   0  0  0  0  0  0  0  0  0  0  0  0
   35.4801   24.3448   30.4811 C   0  0  0  0  0  0  0  0  0  0  0  0
   36.2327   24.5224   31.4317 O   0  0  0  0  0  0  0  0  0  0  0  0
   34.1199   24.4735   30.5864 N   0  0  0  0  0  0  0  0  0  0  0  0
   33.2005   24.2902   29.5813 C   0  0  0  0  0  0  0  0  0  0  0  0
   32.0029   24.4226   29.8197 O   0  0  0  0  0  0  0  0  0  0  0  0
   33.7658   24.7221   31.4707 H   0  0  0  0  0  0  0  0  0  0  0  0
   33.8768   21.8078   26.3402 O   0  0  0  0  0  0  0  0  0  0  0  0
   33.9936   20.4053   26.5393 C   0  0  0  0  0  0  0  0  0  0  0  0
   31.2458   20.8916   25.4012 O   0  0  0  0  0  0  0  0  0  0  0  0
   30.4252   20.3632   26.4376 C   0  0  0  0  0  0  0  0  0  0  0  0
   29.5501   23.1869   24.7344 O   0  0  0  0  0  0  0  0  0  0  0  0
   28.7832   24.3850   24.6936 C   0  0  0  0  0  0  0  0  0  0  0  0
   29.3689   25.1735   27.0628 C   0  0  0  0  0  0  0  0  0  0  0  0
   28.4329   26.7478   28.5787 C   0  0  0  0  0  0  0  0  0  0  0  0
   29.5755   25.9865   28.2128 O   0  0  0  0  0  0  0  0  0  0  0  0
 24 25  1  0
 25 23  1  0
  1 23  1  0
  1  2  1  0
  2  3  1  0
  3  7  1  0
  7  8  1  0
  8  9  2  0
  9 10  1  0
  9 11  1  0
 11 12  2  0
 11 13  1  0
 13 14  1  0
 14 15  2  0
  3  4  1  0
  4 17  1  0
 17 18  1  0
  4  5  1  0
  5 19  1  0
 19 20  1  0
  5  6  1  0
  6 21  1  0
 21 22  1  0
  6  1  1  0
 14  7  1  0
 13 16  1  0
M  END
> <minimizedAffinity>
-8.09939

> <CNNscore>
0.2081957012

> <CNNaffinity>
3.7204513550

> <CNN_VS>
0.7745819688

> <CNNaffinity_variance>
1.0260167122

$$$$



 25 26  0  0  0  0  0  0  0  0999 V2000
   34.6612   24.6012   30.8405 C   0  0  0  0  0  0  0  0  0  0  0  0
   35.1024   24.9949   32.1484 O   0  0  0  0  0  0  0  0  0  0  0  0
   36.3986   25.5974   32.1226 C   0  0  0  0  0  0  0  0  0  0  0  0
   37.4584   24.5635   31.6804 C   0  0  0  0  0  0  0  0  0  0  0  0
   37.0758   24.0209   30.2917 C   0  0  0  0  0  0  0  0  0  0  0  0
   35.6074   23.5445   30.2346 C   0  0  0  0  0  0  0  0  0  0  0  0
   36.6738   26.1288   33.4643 N   0  0  0  0  0  0  0  0  0  0  0  0
   36.0748   25.5627   34.5780 C   0  0  0  0  0  0  0  0  0  0  0  0
   36.3527   25.9798   35.8122 C   0  0  0  0  0  0  0  0  0  0  0  0
   35.7784   25.4407   36.9028 F   0  0  0  0  0  0  0  0  0  0  0  0
   37.3310   27.0636   36.0158 C   0  0  0  0  0  0  0  0  0  0  0  0
   37.6289   27.4885   37.1259 O   0  0  0  0  0  0  0  0  0  0  0  0
   37.8876   27.5584   34.8656 N   0  0  0  0  0  0  0  0  0  0  0  0
   37.6132   27.1497   33.5822 C   0  0  0  0  0  0  0  0  0  0  0  0
   38.1761   27.6943   32.6362 O   0  0  0  0  0  0  0  0  0  0  0  0
   38.5506   28.2789   34.9688 H   0  0  0  0  0  0  0  0  0  0  0  0
   38.7460   25.2057   31.6128 O   0  0  0  0  0  0  0  0  0  0  0  0
   39.7064   24.6174   32.4798 C   0  0  0  0  0  0  0  0  0  0  0  0
   37.9290   22.8913   29.9945 O   0  0  0  0  0  0  0  0  0  0  0  0
   39.1810   23.2906   29.4470 C   0  0  0  0  0  0  0  0  0  0  0  0
   35.2675   23.3396   28.8527 O   0  0  0  0  0  0  0  0  0  0  0  0
   34.6011   22.1016   28.6325 C   0  0  0  0  0  0  0  0  0  0  0  0
   33.2199   24.0772   31.0123 C   0  0  0  0  0  0  0  0  0  0  0  0
   32.8785   25.0027   28.8491 C   0  0  0  0  0  0  0  0  0  0  0  0
   32.2769   24.5232   30.0437 O   0  0  0  0  0  0  0  0  0  0  0  0
 24 25  1  0
 25 23  1  0
  1 23  1  0
  1  2  1  0
  2  3  1  0
  3  7  1  0
  7  8  1  0
  8  9  2  0
  9 10  1  0
  9 11  1  0
 11 12  2  0
 11 13  1  0
 13 14  1  0
 14 15  2  0
  3  4  1  0
  4 17  1  0
 17 18  1  0
  4  5  1  0
  5 19  1  0
 19 20  1  0
  5  6  1  0
  6 21  1  0
 21 22  1  0
  6  1  1  0
 14  7  1  0
 13 16  1  0
M  END
> <minimizedAffinity>
-4.21711

> <CNNscore>
0.1560790539

> <CNNaffinity>
3.9154574871

> <CNN_VS>
0.6111208797

> <CNNaffinity_variance>
0.8816075921

$$$$



 25 26  0  0  0  0  0  0  0  0999 V2000
   28.7599   25.2674   27.5163 C   0  0  0  0  0  0  0  0  0  0  0  0
   27.6471   25.5216   28.3866 O   0  0  0  0  0  0  0  0  0  0  0  0
   26.5522   24.6371   28.1360 C   0  0  0  0  0  0  0  0  0  0  0  0
   25.9732   24.8919   26.7262 C   0  0  0  0  0  0  0  0  0  0  0  0
   27.0900   24.6939   25.6857 C   0  0  0  0  0  0  0  0  0  0  0  0
   28.3671   25.4872   26.0411 C   0  0  0  0  0  0  0  0  0  0  0  0
   25.5512   24.8517   29.1897 N   0  0  0  0  0  0  0  0  0  0  0  0
   24.9303   23.7717   29.7961 C   0  0  0  0  0  0  0  0  0  0  0  0
   24.0665   23.9305   30.7975 C   0  0  0  0  0  0  0  0  0  0  0  0
   23.4552   22.8918   31.3952 F   0  0  0  0  0  0  0  0  0  0  0  0
   23.7619   25.2849   31.2936 C   0  0  0  0  0  0  0  0  0  0  0  0
   22.9781   25.4943   32.2120 O   0  0  0  0  0  0  0  0  0  0  0  0
   24.4277   26.2953   30.6507 N   0  0  0  0  0  0  0  0  0  0  0  0
   25.3178   26.1577   29.6123 C   0  0  0  0  0  0  0  0  0  0  0  0
   25.8329   27.1557   29.1153 O   0  0  0  0  0  0  0  0  0  0  0  0
   24.2510   27.2117   30.9640 H   0  0  0  0  0  0  0  0  0  0  0  0
   24.9064   23.9564   26.4773 O   0  0  0  0  0  0  0  0  0  0  0  0
   23.6449   24.5868   26.2999 C   0  0  0  0  0  0  0  0  0  0  0  0
   26.6074   25.1646   24.4060 O   0  0  0  0  0  0  0  0  0  0  0  0
   26.7776   24.1964   23.3763 C   0  0  0  0  0  0  0  0  0  0  0  0
   29.4265   25.0137   25.1921 O   0  0  0  0  0  0  0  0  0  0  0  0
   29.7077   23.6327   25.3893 C   0  0  0  0  0  0  0  0  0  0  0  0
   29.8901   26.2123   27.9759 C   0  0  0  0  0  0  0  0  0  0  0  0
   31.8276   24.8485   28.1731 C   0  0  0  0  0  0  0  0  0  0  0  0
   31.1905   25.9129   27.4802 O   0  0  0  0  0  0  0  0  0  0  0  0
 24 25  1  0
 25 23  1  0
  1 23  1  0
  1  2  1  0
  2  3  1  0
  3  7  1  0
  7  8  1  0
  8  9  2  0
  9 10  1  0
  9 11  1  0
 11 12  2  0
 11 13  1  0
 13 14  1  0
 14 15  2  0
  3  4  1  0
  4 17  1  0
 17 18  1  0
  4  5  1  0
  5 19  1  0
 19 20  1  0
  5  6  1  0
  6 21  1  0
 21 22  1  0
  6  1  1  0
 14  7  1  0
 13 16  1  0
M  END
> <minimizedAffinity>
-7.16037

> <CNNscore>
0.1532570720

> <CNNaffinity>
4.3930740356

> <CNN_VS>
0.6732696891

> <CNNaffinity_variance>
0.3192642927

$$$$



 25 26  0  0  0  0  0  0  0  0999 V2000
   27.0357   23.8412   27.4690 C   0  0  0  0  0  0  0  0  0  0  0  0
   28.1883   22.9910   27.3742 O   0  0  0  0  0  0  0  0  0  0  0  0
   29.3399   23.6931   26.9000 C   0  0  0  0  0  0  0  0  0  0  0  0
   29.1166   24.1616   25.4446 C   0  0  0  0  0  0  0  0  0  0  0  0
   27.8665   25.0585   25.3962 C   0  0  0  0  0  0  0  0  0  0  0  0
   26.6495   24.4022   26.0851 C   0  0  0  0  0  0  0  0  0  0  0  0
   30.4949   22.7929   27.0179 N   0  0  0  0  0  0  0  0  0  0  0  0
   31.6335   23.1996   27.6944 C   0  0  0  0  0  0  0  0  0  0  0  0
   32.6718   22.3846   27.8736 C   0  0  0  0  0  0  0  0  0  0  0  0
   33.7842   22.7657   28.5272 F   0  0  0  0  0  0  0  0  0  0  0  0
   32.6183   21.0058   27.3548 C   0  0  0  0  0  0  0  0  0  0  0  0
   33.5402   20.2099   27.4898 O   0  0  0  0  0  0  0  0  0  0  0  0
   31.4532   20.6789   26.7119 N   0  0  0  0  0  0  0  0  0  0  0  0
   30.3717   21.5027   26.5091 C   0  0  0  0  0  0  0  0  0  0  0  0
   29.3922   21.0827   25.8985 O   0  0  0  0  0  0  0  0  0  0  0  0
   31.3838   19.7621   26.3600 H   0  0  0  0  0  0  0  0  0  0  0  0
   30.2675   24.9092   25.0069 O   0  0  0  0  0  0  0  0  0  0  0  0
   31.4947   24.2377   25.2588 C   0  0  0  0  0  0  0  0  0  0  0  0
   27.5287   25.2925   24.0094 O   0  0  0  0  0  0  0  0  0  0  0  0
   27.2397   24.0846   23.3137 C   0  0  0  0  0  0  0  0  0  0  0  0
   25.6408   25.4138   26.2476 O   0  0  0  0  0  0  0  0  0  0  0  0
   24.4908   25.1714   25.4452 C   0  0  0  0  0  0  0  0  0  0  0  0
   25.9168   22.9809   28.0931 C   0  0  0  0  0  0  0  0  0  0  0  0
   23.7924   22.0548   27.5624 C   0  0  0  0  0  0  0  0  0  0  0  0
   25.1539   22.1974   27.1819 O   0  0  0  0  0  0  0  0  0  0  0  0
 24 25  1  0
 25 23  1  0
  1 23  1  0
  1  2  1  0
  2  3  1  0
  3  7  1  0
  7  8  1  0
  8  9  2  0
  9 10  1  0
  9 11  1  0
 11 12  2  0
 11 13  1  0
 13 14  1  0
 14 15  2  0
  3  4  1  0
  4 17  1  0
 17 18  1  0
  4  5  1  0
  5 19  1  0
 19 20  1  0
  5  6  1  0
  6 21  1  0
 21 22  1  0
  6  1  1  0
 14  7  1  0
 13 16  1  0
M  END
> <minimizedAffinity>
-3.77194

> <CNNscore>
0.1526434571

> <CNNaffinity>
3.9595749378

> <CNN_VS>
0.6044031978

> <CNNaffinity_variance>
0.6010267138

$$$$



 25 26  0  0  0  0  0  0  0  0999 V2000
   37.8065   26.2464   33.5498 C   0  0  0  0  0  0  0  0  0  0  0  0
   38.9750   25.4405   33.3365 O   0  0  0  0  0  0  0  0  0  0  0  0
   39.1790   25.1401   31.9537 C   0  0  0  0  0  0  0  0  0  0  0  0
   38.0285   24.2543   31.4253 C   0  0  0  0  0  0  0  0  0  0  0  0
   36.6942   24.9920   31.6373 C   0  0  0  0  0  0  0  0  0  0  0  0
   36.5350   25.5074   33.0849 C   0  0  0  0  0  0  0  0  0  0  0  0
   40.4855   24.4806   31.8254 N   0  0  0  0  0  0  0  0  0  0  0  0
   40.8442   23.8624   30.6384 C   0  0  0  0  0  0  0  0  0  0  0  0
   42.0453   23.3119   30.4692 C   0  0  0  0  0  0  0  0  0  0  0  0
   42.4073   22.7073   29.3233 F   0  0  0  0  0  0  0  0  0  0  0  0
   43.0350   23.3645   31.5605 C   0  0  0  0  0  0  0  0  0  0  0  0
   44.1556   22.8780   31.4639 O   0  0  0  0  0  0  0  0  0  0  0  0
   42.6071   24.0053   32.6936 N   0  0  0  0  0  0  0  0  0  0  0  0
   41.3725   24.5752   32.8945 C   0  0  0  0  0  0  0  0  0  0  0  0
   41.1147   25.1062   33.9716 O   0  0  0  0  0  0  0  0  0  0  0  0
   43.2482   24.0634   33.4384 H   0  0  0  0  0  0  0  0  0  0  0  0
   38.2288   24.0077   30.0203 O   0  0  0  0  0  0  0  0  0  0  0  0
   37.0121   23.8170   29.3107 C   0  0  0  0  0  0  0  0  0  0  0  0
   35.6157   24.0671   31.3660 O   0  0  0  0  0  0  0  0  0  0  0  0
   34.5971   24.6484   30.5590 C   0  0  0  0  0  0  0  0  0  0  0  0
   35.4225   26.4180   33.1051 O   0  0  0  0  0  0  0  0  0  0  0  0
   34.4351   26.0519   34.0622 C   0  0  0  0  0  0  0  0  0  0  0  0
   37.7818   26.5780   35.0567 C   0  0  0  0  0  0  0  0  0  0  0  0
   39.6596   27.2847   36.3323 C   0  0  0  0  0  0  0  0  0  0  0  0
   38.6002   27.6682   35.4666 O   0  0  0  0  0  0  0  0  0  0  0  0
 24 25  1  0
 25 23  1  0
  1 23  1  0
  1  2  1  0
  2  3  1  0
  3  7  1  0
  7  8  1  0
  8  9  2  0
  9 10  1  0
  9 11  1  0
 11 12  2  0
 11 13  1  0
 13 14  1  0
 14 15  2  0
  3  4  1  0
  4 17  1  0
 17 18  1  0
  4  5  1  0
  5 19  1  0
 19 20  1  0
  5  6  1  0
  6 21  1  0
 21 22  1  0
  6  1  1  0
 14  7  1  0
 13 16  1  0
M  END
> <minimizedAffinity>
-4.45499

> <CNNscore>
0.1464187205

> <CNNaffinity>
4.1722006798

> <CNN_VS>
0.6108883023

> <CNNaffinity_variance>
0.7923354506

$$$$



 25 26  0  0  0  0  0  0  0  0999 V2000
   36.7373   24.9209   29.8597 C   0  0  0  0  0  0  0  0  0  0  0  0
   36.2154   23.9271   28.9651 O   0  0  0  0  0  0  0  0  0  0  0  0
   34.8063   24.0651   28.7673 C   0  0  0  0  0  0  0  0  0  0  0  0
   34.0532   23.7921   30.0886 C   0  0  0  0  0  0  0  0  0  0  0  0
   34.5572   24.7743   31.1613 C   0  0  0  0  0  0  0  0  0  0  0  0
   36.0989   24.7934   31.2580 C   0  0  0  0  0  0  0  0  0  0  0  0
   34.4086   23.1327   27.7039 N   0  0  0  0  0  0  0  0  0  0  0  0
   33.9186   21.8762   28.0214 C   0  0  0  0  0  0  0  0  0  0  0  0
   33.4902   21.0327   27.0836 C   0  0  0  0  0  0  0  0  0  0  0  0
   33.0130   19.8095   27.3765 F   0  0  0  0  0  0  0  0  0  0  0  0
   33.5202   21.4370   25.6663 C   0  0  0  0  0  0  0  0  0  0  0  0
   33.1384   20.7063   24.7597 O   0  0  0  0  0  0  0  0  0  0  0  0
   34.0047   22.6985   25.4391 N   0  0  0  0  0  0  0  0  0  0  0  0
   34.4579   23.5841   26.3876 C   0  0  0  0  0  0  0  0  0  0  0  0
   34.8831   24.6830   26.0411 O   0  0  0  0  0  0  0  0  0  0  0  0
   34.0309   23.0008   24.5025 H   0  0  0  0  0  0  0  0  0  0  0  0
   32.6417   23.9866   29.8772 O   0  0  0  0  0  0  0  0  0  0  0  0
   32.3581   24.9660   28.8869 C   0  0  0  0  0  0  0  0  0  0  0  0
   34.0294   24.3583   32.4422 O   0  0  0  0  0  0  0  0  0  0  0  0
   35.0318   24.3227   33.4525 C   0  0  0  0  0  0  0  0  0  0  0  0
   36.4730   25.9294   32.0560 O   0  0  0  0  0  0  0  0  0  0  0  0
   37.3174   25.5762   33.1457 C   0  0  0  0  0  0  0  0  0  0  0  0
   38.2666   24.7159   29.8855 C   0  0  0  0  0  0  0  0  0  0  0  0
   40.0012   24.3552   31.4709 C   0  0  0  0  0  0  0  0  0  0  0  0
   38.7663   23.8977   30.9377 O   0  0  0  0  0  0  0  0  0  0  0  0
 24 25  1  0
 25 23  1  0
  1 23  1  0
  1  2  1  0
  2  3  1  0
  3  7  1  0
  7  8  1  0
  8  9  2  0
  9 10  1  0
  9 11  1  0
 11 12  2  0
 11 13  1  0
 13 14  1  0
 14 15  2  0
  3  4  1  0
  4 17  1  0
 17 18  1  0
  4  5  1  0
  5 19  1  0
 19 20  1  0
  5  6  1  0
  6 21  1  0
 21 22  1  0
  6  1  1  0
 14  7  1  0
 13 16  1  0
M  END
> <minimizedAffinity>
-6.93069

> <CNNscore>
0.1399279237

> <CNNaffinity>
4.2620339394

> <CNN_VS>
0.5963775516

> <CNNaffinity_variance>
0.5607479215

$$$$



 25 26  0  0  0  0  0  0  0  0999 V2000
   27.0329   23.5246   26.3586 C   0  0  0  0  0  0  0  0  0  0  0  0
   26.4419   24.0249   27.5673 O   0  0  0  0  0  0  0  0  0  0  0  0
   25.0168   24.0995   27.4811 C   0  0  0  0  0  0  0  0  0  0  0  0
   24.6009   25.1411   26.4182 C   0  0  0  0  0  0  0  0  0  0  0  0
   25.2141   24.7427   25.0637 C   0  0  0  0  0  0  0  0  0  0  0  0
   26.7289   24.4583   25.1691 C   0  0  0  0  0  0  0  0  0  0  0  0
   24.5033   24.4386   28.8151 N   0  0  0  0  0  0  0  0  0  0  0  0
   24.9339   25.5867   29.4602 C   0  0  0  0  0  0  0  0  0  0  0  0
   24.4400   25.9550   30.6412 C   0  0  0  0  0  0  0  0  0  0  0  0
   24.8490   27.0661   31.2799 F   0  0  0  0  0  0  0  0  0  0  0  0
   23.3977   25.1362   31.2864 C   0  0  0  0  0  0  0  0  0  0  0  0
   22.9042   25.4241   32.3704 O   0  0  0  0  0  0  0  0  0  0  0  0
   23.0178   24.0270   30.5771 N   0  0  0  0  0  0  0  0  0  0  0  0
   23.5159   23.6229   29.3614 C   0  0  0  0  0  0  0  0  0  0  0  0
   23.0942   22.5927   28.8424 O   0  0  0  0  0  0  0  0  0  0  0  0
   22.3178   23.4630   30.9785 H   0  0  0  0  0  0  0  0  0  0  0  0
   23.1643   25.1617   26.3133 O   0  0  0  0  0  0  0  0  0  0  0  0
   22.6209   23.9206   25.8836 C   0  0  0  0  0  0  0  0  0  0  0  0
   25.0236   25.8385   24.1389 O   0  0  0  0  0  0  0  0  0  0  0  0
   24.1441   25.4974   23.0727 C   0  0  0  0  0  0  0  0  0  0  0  0
   27.1401   23.8205   23.9479 O   0  0  0  0  0  0  0  0  0  0  0  0
   28.1862   24.5257   23.2895 C   0  0  0  0  0  0  0  0  0  0  0  0
   28.5448   23.3964   26.6401 C   0  0  0  0  0  0  0  0  0  0  0  0
   30.5849   22.4801   25.8335 C   0  0  0  0  0  0  0  0  0  0  0  0
   29.1947   22.2778   26.0463 O   0  0  0  0  0  0  0  0  0  0  0  0
 24 25  1  0
 25 23  1  0
  1 23  1  0
  1  2  1  0
  2  3  1  0
  3  7  1  0
  7  8  1  0
  8  9  2  0
  9 10  1  0
  9 11  1  0
 11 12  2  0
 11 13  1  0
 13 14  1  0
 14 15  2  0
  3  4  1  0
  4 17  1  0
 17 18  1  0
  4  5  1  0
  5 19  1  0
 19 20  1  0
  5  6  1  0
  6 21  1  0
 21 22  1  0
  6  1  1  0
 14  7  1  0
 13 16  1  0
M  END
> <minimizedAffinity>
-5.92273

> <CNNscore>
0.1282523423

> <CNNaffinity>
3.9997432232

> <CNN_VS>
0.5129764080

> <CNNaffinity_variance>
0.4109061956

$$$$
