


 21 23  0  0  0  0  0  0  0  0999 V2000
    6.5425   61.3078   -0.0548 O   0  0  0  0  0  0  0  0  0  0  0  0
    6.0693   60.2349    0.3029 C   0  0  0  0  0  0  0  0  0  0  0  0
    4.8356   60.1795    0.9255 N   0  0  0  0  0  0  0  0  0  0  0  0
    4.2324   59.0261    1.3450 C   0  0  0  0  0  0  0  0  0  0  0  0
    4.8266   57.8380    1.1918 C   0  0  0  0  0  0  0  0  0  0  0  0
    6.1531   57.7707    0.5653 C   0  0  0  0  0  0  0  0  0  0  0  0
    6.8754   56.5990    0.3634 C   0  0  0  0  0  0  0  0  0  0  0  0
    8.0649   56.6069   -0.2626 N   0  0  0  0  0  0  0  0  0  0  0  0
    8.5523   57.7885   -0.6714 C   0  0  0  0  0  0  0  0  0  0  0  0
    9.7434   57.7724   -1.2860 F   0  0  0  0  0  0  0  0  0  0  0  0
    7.9670   58.9716   -0.5113 N   0  0  0  0  0  0  0  0  0  0  0  0
    6.7698   58.9257    0.1045 C   0  0  0  0  0  0  0  0  0  0  0  0
    4.3594   61.0278    1.0769 H   0  0  0  0  0  0  0  0  0  0  0  0
    6.3380   55.3701    0.8042 N   0  0  0  0  0  0  0  0  0  0  0  0
    5.5090   55.0036    0.4199 H   0  0  0  0  0  0  0  0  0  0  0  0
    7.0747   54.6603    1.8662 C   0  0  0  0  0  0  0  0  0  0  0  0
    6.0593   54.0742    2.8598 C   0  0  0  0  0  0  0  0  0  0  0  0
    5.1485   53.0117    2.2372 C   0  0  0  0  0  0  0  0  0  0  0  0
    5.8273   52.1907    1.1415 C   0  0  0  0  0  0  0  0  0  0  0  0
    7.3366   52.1472    1.3218 C   0  0  0  0  0  0  0  0  0  0  0  0
    7.9614   53.5455    1.2726 C   0  0  0  0  0  0  0  0  0  0  0  0
  1  2  2  0
  2  3  1  0
  3  4  1  0
  4  5  2  0
  5  6  1  0
  6  7  2  0
  7 14  1  0
 14 16  1  0
 16 17  1  0
 17 18  1  0
 18 19  1  0
 19 20  1  0
 20 21  1  0
  7  8  1  0
  8  9  2  0
  9 10  1  0
  9 11  1  0
 11 12  2  0
 12  2  1  0
 12  6  1  0
 21 16  1  0
  3 13  1  0
 14 15  1  0
M  END
> <minimizedAffinity>
-8.18726

> <CNNscore>
0.9755050540

> <CNNaffinity>
7.0293498039

> <CNN_VS>
6.8571662903

> <CNNaffinity_variance>
0.1499080360

$$$$



 21 23  0  0  0  0  0  0  0  0999 V2000
    6.0244   60.9565   -0.3103 O   0  0  0  0  0  0  0  0  0  0  0  0
    5.7987   59.9315    0.3232 C   0  0  0  0  0  0  0  0  0  0  0  0
    4.6431   59.8042    1.0723 N   0  0  0  0  0  0  0  0  0  0  0  0
    4.3103   58.6935    1.7974 C   0  0  0  0  0  0  0  0  0  0  0  0
    5.1187   57.6295    1.8456 C   0  0  0  0  0  0  0  0  0  0  0  0
    6.3893   57.6554    1.1097 C   0  0  0  0  0  0  0  0  0  0  0  0
    7.3166   56.6185    1.0933 C   0  0  0  0  0  0  0  0  0  0  0  0
    8.4383   56.6917    0.3562 N   0  0  0  0  0  0  0  0  0  0  0  0
    8.6529   57.8110   -0.3524 C   0  0  0  0  0  0  0  0  0  0  0  0
    9.7817   57.8643   -1.0733 F   0  0  0  0  0  0  0  0  0  0  0  0
    7.8547   58.8735   -0.3937 N   0  0  0  0  0  0  0  0  0  0  0  0
    6.7324   58.7602    0.3427 C   0  0  0  0  0  0  0  0  0  0  0  0
    4.0178   60.5645    1.0842 H   0  0  0  0  0  0  0  0  0  0  0  0
    7.0645   55.4525    1.8485 N   0  0  0  0  0  0  0  0  0  0  0  0
    7.5682   55.2529    2.6705 H   0  0  0  0  0  0  0  0  0  0  0  0
    6.0125   54.5472    1.3502 C   0  0  0  0  0  0  0  0  0  0  0  0
    6.6721   53.4499    0.5002 C   0  0  0  0  0  0  0  0  0  0  0  0
    7.6165   52.5495    1.3022 C   0  0  0  0  0  0  0  0  0  0  0  0
    7.1816   52.3459    2.7531 C   0  0  0  0  0  0  0  0  0  0  0  0
    5.6807   52.5227    2.9225 C   0  0  0  0  0  0  0  0  0  0  0  0
    5.2188   53.9270    2.5192 C   0  0  0  0  0  0  0  0  0  0  0  0
  1  2  2  0
  2  3  1  0
  3  4  1  0
  4  5  2  0
  5  6  1  0
  6  7  2  0
  7 14  1  0
 14 16  1  0
 16 17  1  0
 17 18  1  0
 18 19  1  0
 19 20  1  0
 20 21  1  0
  7  8  1  0
  8  9  2  0
  9 10  1  0
  9 11  1  0
 11 12  2  0
 12  2  1  0
 12  6  1  0
 21 16  1  0
  3 13  1  0
 14 15  1  0
M  END
> <minimizedAffinity>
-7.57781

> <CNNscore>
0.9393203259

> <CNNaffinity>
6.8674888611

> <CNN_VS>
6.4507718086

> <CNNaffinity_variance>
0.1846269965

$$$$



 21 23  0  0  0  0  0  0  0  0999 V2000
    5.6035   61.2450    0.1357 O   0  0  0  0  0  0  0  0  0  0  0  0
    5.8249   60.0522    0.3116 C   0  0  0  0  0  0  0  0  0  0  0  0
    4.9195   59.2587    0.9922 N   0  0  0  0  0  0  0  0  0  0  0  0
    5.0839   57.9206    1.2218 C   0  0  0  0  0  0  0  0  0  0  0  0
    6.1782   57.2752    0.8048 C   0  0  0  0  0  0  0  0  0  0  0  0
    7.2249   58.0177    0.0907 C   0  0  0  0  0  0  0  0  0  0  0  0
    8.4103   57.4615   -0.3793 C   0  0  0  0  0  0  0  0  0  0  0  0
    9.3030   58.1921   -1.0694 N   0  0  0  0  0  0  0  0  0  0  0  0
    9.0285   59.4894   -1.2756 C   0  0  0  0  0  0  0  0  0  0  0  0
    9.9370   60.1994   -1.9592 F   0  0  0  0  0  0  0  0  0  0  0  0
    7.9454   60.1345   -0.8533 N   0  0  0  0  0  0  0  0  0  0  0  0
    7.0645   59.3696   -0.1799 C   0  0  0  0  0  0  0  0  0  0  0  0
    4.1013   59.6860    1.3346 H   0  0  0  0  0  0  0  0  0  0  0  0
    8.6726   56.0937   -0.1477 N   0  0  0  0  0  0  0  0  0  0  0  0
    8.2106   55.3880   -0.6554 H   0  0  0  0  0  0  0  0  0  0  0  0
    9.6701   55.7701    0.8890 C   0  0  0  0  0  0  0  0  0  0  0  0
    8.9386   55.5559    2.2234 C   0  0  0  0  0  0  0  0  0  0  0  0
    7.9879   54.3552    2.2058 C   0  0  0  0  0  0  0  0  0  0  0  0
    8.4646   53.2111    1.3118 C   0  0  0  0  0  0  0  0  0  0  0  0
    9.9762   53.2165    1.1462 C   0  0  0  0  0  0  0  0  0  0  0  0
   10.4789   54.5136    0.5038 C   0  0  0  0  0  0  0  0  0  0  0  0
  1  2  2  0
  2  3  1  0
  3  4  1  0
  4  5  2  0
  5  6  1  0
  6  7  2  0
  7 14  1  0
 14 16  1  0
 16 17  1  0
 17 18  1  0
 18 19  1  0
 19 20  1  0
 20 21  1  0
  7  8  1  0
  8  9  2  0
  9 10  1  0
  9 11  1  0
 11 12  2  0
 12  2  1  0
 12  6  1  0
 21 16  1  0
  3 13  1  0
 14 15  1  0
M  END
> <minimizedAffinity>
-8.02573

> <CNNscore>
0.9290499687

> <CNNaffinity>
6.6153569221

> <CNN_VS>
6.1459970474

> <CNNaffinity_variance>
0.0607357025

$$$$



 21 23  0  0  0  0  0  0  0  0999 V2000
    7.1950   61.1025   -0.1884 O   0  0  0  0  0  0  0  0  0  0  0  0
    7.4751   59.9104   -0.2456 C   0  0  0  0  0  0  0  0  0  0  0  0
    8.6416   59.4875   -0.8565 N   0  0  0  0  0  0  0  0  0  0  0  0
    9.0336   58.1809   -0.9537 C   0  0  0  0  0  0  0  0  0  0  0  0
    8.2780   57.1925   -0.4639 C   0  0  0  0  0  0  0  0  0  0  0  0
    7.0017   57.5153    0.1869 C   0  0  0  0  0  0  0  0  0  0  0  0
    6.1254   56.5764    0.7218 C   0  0  0  0  0  0  0  0  0  0  0  0
    4.9955   56.9480    1.3481 N   0  0  0  0  0  0  0  0  0  0  0  0
    4.7213   58.2594    1.4247 C   0  0  0  0  0  0  0  0  0  0  0  0
    3.5854   58.6053    2.0466 F   0  0  0  0  0  0  0  0  0  0  0  0
    5.4669   59.2427    0.9298 N   0  0  0  0  0  0  0  0  0  0  0  0
    6.5993   58.8366    0.3236 C   0  0  0  0  0  0  0  0  0  0  0  0
    9.2295   60.1734   -1.2478 H   0  0  0  0  0  0  0  0  0  0  0  0
    6.4397   55.2033    0.6266 N   0  0  0  0  0  0  0  0  0  0  0  0
    6.2000   54.6745   -0.1685 H   0  0  0  0  0  0  0  0  0  0  0  0
    7.1432   54.5971    1.7721 C   0  0  0  0  0  0  0  0  0  0  0  0
    6.0997   53.9904    2.7232 C   0  0  0  0  0  0  0  0  0  0  0  0
    5.3071   52.8394    2.0962 C   0  0  0  0  0  0  0  0  0  0  0  0
    6.1147   52.0159    1.0937 C   0  0  0  0  0  0  0  0  0  0  0  0
    7.6069   52.0850    1.3786 C   0  0  0  0  0  0  0  0  0  0  0  0
    8.1410   53.5190    1.2994 C   0  0  0  0  0  0  0  0  0  0  0  0
  1  2  2  0
  2  3  1  0
  3  4  1  0
  4  5  2  0
  5  6  1  0
  6  7  2  0
  7 14  1  0
 14 16  1  0
 16 17  1  0
 17 18  1  0
 18 19  1  0
 19 20  1  0
 20 21  1  0
  7  8  1  0
  8  9  2  0
  9 10  1  0
  9 11  1  0
 11 12  2  0
 12  2  1  0
 12  6  1  0
 21 16  1  0
  3 13  1  0
 14 15  1  0
M  END
> <minimizedAffinity>
-8.02338

> <CNNscore>
0.9207685590

> <CNNaffinity>
6.5149383545

> <CNN_VS>
5.9987502098

> <CNNaffinity_variance>
0.1237685382

$$$$



 21 23  0  0  0  0  0  0  0  0999 V2000
    6.0784   61.2594    0.0570 O   0  0  0  0  0  0  0  0  0  0  0  0
    6.7917   60.2786   -0.1220 C   0  0  0  0  0  0  0  0  0  0  0  0
    8.0190   60.4025   -0.7473 N   0  0  0  0  0  0  0  0  0  0  0  0
    8.8786   59.3637   -0.9758 C   0  0  0  0  0  0  0  0  0  0  0  0
    8.5679   58.1146   -0.6136 C   0  0  0  0  0  0  0  0  0  0  0  0
    7.2782   57.8525    0.0380 C   0  0  0  0  0  0  0  0  0  0  0  0
    6.8379   56.5980    0.4476 C   0  0  0  0  0  0  0  0  0  0  0  0
    5.6644   56.4393    1.0836 N   0  0  0  0  0  0  0  0  0  0  0  0
    4.9113   57.5298    1.2949 C   0  0  0  0  0  0  0  0  0  0  0  0
    3.7419   57.3457    1.9237 F   0  0  0  0  0  0  0  0  0  0  0  0
    5.2146   58.7708    0.9268 N   0  0  0  0  0  0  0  0  0  0  0  0
    6.4041   58.8967    0.3071 C   0  0  0  0  0  0  0  0  0  0  0  0
    8.2923   61.2991   -1.0483 H   0  0  0  0  0  0  0  0  0  0  0  0
    7.6512   55.4682    0.2121 N   0  0  0  0  0  0  0  0  0  0  0  0
    7.5414   54.9142   -0.5943 H   0  0  0  0  0  0  0  0  0  0  0  0
    8.6727   55.1557    1.2287 C   0  0  0  0  0  0  0  0  0  0  0  0
    7.9644   54.6620    2.5000 C   0  0  0  0  0  0  0  0  0  0  0  0
    7.2004   53.3503    2.2958 C   0  0  0  0  0  0  0  0  0  0  0  0
    7.8507   52.4166    1.2756 C   0  0  0  0  0  0  0  0  0  0  0  0
    9.3471   52.6615    1.1598 C   0  0  0  0  0  0  0  0  0  0  0  0
    9.6618   54.0915    0.7084 C   0  0  0  0  0  0  0  0  0  0  0  0
  1  2  2  0
  2  3  1  0
  3  4  1  0
  4  5  2  0
  5  6  1  0
  6  7  2  0
  7 14  1  0
 14 16  1  0
 16 17  1  0
 17 18  1  0
 18 19  1  0
 19 20  1  0
 20 21  1  0
  7  8  1  0
  8  9  2  0
  9 10  1  0
  9 11  1  0
 11 12  2  0
 12  2  1  0
 12  6  1  0
 21 16  1  0
  3 13  1  0
 14 15  1  0
M  END
> <minimizedAffinity>
-8.14348

> <CNNscore>
0.8983725905

> <CNNaffinity>
6.2979788780

> <CNN_VS>
5.6579318047

> <CNNaffinity_variance>
0.0027044658

$$$$



 21 23  0  0  0  0  0  0  0  0999 V2000
    5.7230   60.0212   -0.0325 O   0  0  0  0  0  0  0  0  0  0  0  0
    5.6641   58.9257    0.5144 C   0  0  0  0  0  0  0  0  0  0  0  0
    4.5349   58.5469    1.2173 N   0  0  0  0  0  0  0  0  0  0  0  0
    4.3836   57.3418    1.8459 C   0  0  0  0  0  0  0  0  0  0  0  0
    5.3598   56.4281    1.8369 C   0  0  0  0  0  0  0  0  0  0  0  0
    6.6193   56.7255    1.1428 C   0  0  0  0  0  0  0  0  0  0  0  0
    7.7092   55.8635    1.0749 C   0  0  0  0  0  0  0  0  0  0  0  0
    8.8139   56.1825    0.3788 N   0  0  0  0  0  0  0  0  0  0  0  0
    8.8471   57.3749   -0.2360 C   0  0  0  0  0  0  0  0  0  0  0  0
    9.9620   57.6742   -0.9173 F   0  0  0  0  0  0  0  0  0  0  0  0
    7.8811   58.2882   -0.2200 N   0  0  0  0  0  0  0  0  0  0  0  0
    6.7825   57.9299    0.4724 C   0  0  0  0  0  0  0  0  0  0  0  0
    3.7896   59.1881    1.2686 H   0  0  0  0  0  0  0  0  0  0  0  0
    7.6462   54.6153    1.7317 N   0  0  0  0  0  0  0  0  0  0  0  0
    7.6780   54.5481    2.7134 H   0  0  0  0  0  0  0  0  0  0  0  0
    7.5308   53.4166    0.8806 C   0  0  0  0  0  0  0  0  0  0  0  0
    8.3543   52.2842    1.5139 C   0  0  0  0  0  0  0  0  0  0  0  0
    7.8260   51.8453    2.8829 C   0  0  0  0  0  0  0  0  0  0  0  0
    6.3083   51.9626    3.0187 C   0  0  0  0  0  0  0  0  0  0  0  0
    5.6124   51.8746    1.6695 C   0  0  0  0  0  0  0  0  0  0  0  0
    6.0555   52.9932    0.7206 C   0  0  0  0  0  0  0  0  0  0  0  0
  1  2  2  0
  2  3  1  0
  3  4  1  0
  4  5  2  0
  5  6  1  0
  6  7  2  0
  7 14  1  0
 14 16  1  0
 16 17  1  0
 17 18  1  0
 18 19  1  0
 19 20  1  0
 20 21  1  0
  7  8  1  0
  8  9  2  0
  9 10  1  0
  9 11  1  0
 11 12  2  0
 12  2  1  0
 12  6  1  0
 21 16  1  0
  3 13  1  0
 14 15  1  0
M  END
> <minimizedAffinity>
-7.04612

> <CNNscore>
0.7643700838

> <CNNaffinity>
6.4350605011

> <CNN_VS>
4.9187679291

> <CNNaffinity_variance>
0.2055399269

$$$$



 21 23  0  0  0  0  0  0  0  0999 V2000
    8.0989   60.0216   -1.1011 O   0  0  0  0  0  0  0  0  0  0  0  0
    8.2608   58.9593   -0.5110 C   0  0  0  0  0  0  0  0  0  0  0  0
    9.4745   58.2986   -0.5660 N   0  0  0  0  0  0  0  0  0  0  0  0
    9.7415   57.1179    0.0704 C   0  0  0  0  0  0  0  0  0  0  0  0
    8.8071   56.4953    0.7965 C   0  0  0  0  0  0  0  0  0  0  0  0
    7.4683   57.0879    0.9094 C   0  0  0  0  0  0  0  0  0  0  0  0
    6.4125   56.5298    1.6231 C   0  0  0  0  0  0  0  0  0  0  0  0
    5.2262   57.1538    1.7241 N   0  0  0  0  0  0  0  0  0  0  0  0
    5.0786   58.3294    1.0939 C   0  0  0  0  0  0  0  0  0  0  0  0
    3.8846   58.9289    1.2023 F   0  0  0  0  0  0  0  0  0  0  0  0
    6.0036   58.9450    0.3638 N   0  0  0  0  0  0  0  0  0  0  0  0
    7.1849   58.3009    0.2971 C   0  0  0  0  0  0  0  0  0  0  0  0
   10.1950   58.7057   -1.0993 H   0  0  0  0  0  0  0  0  0  0  0  0
    6.5965   55.2917    2.2762 N   0  0  0  0  0  0  0  0  0  0  0  0
    7.2000   55.2022    3.0488 H   0  0  0  0  0  0  0  0  0  0  0  0
    5.8436   54.1387    1.7487 C   0  0  0  0  0  0  0  0  0  0  0  0
    6.6859   53.4613    0.6564 C   0  0  0  0  0  0  0  0  0  0  0  0
    7.9949   52.8664    1.1842 C   0  0  0  0  0  0  0  0  0  0  0  0
    7.8955   52.3457    2.6176 C   0  0  0  0  0  0  0  0  0  0  0  0
    6.4712   51.9535    2.9781 C   0  0  0  0  0  0  0  0  0  0  0  0
    5.5054   53.1386    2.8741 C   0  0  0  0  0  0  0  0  0  0  0  0
  1  2  2  0
  2  3  1  0
  3  4  1  0
  4  5  2  0
  5  6  1  0
  6  7  2  0
  7 14  1  0
 14 16  1  0
 16 17  1  0
 17 18  1  0
 18 19  1  0
 19 20  1  0
 20 21  1  0
  7  8  1  0
  8  9  2  0
  9 10  1  0
  9 11  1  0
 11 12  2  0
 12  2  1  0
 12  6  1  0
 21 16  1  0
  3 13  1  0
 14 15  1  0
M  END
> <minimizedAffinity>
-7.26371

> <CNNscore>
0.6769598126

> <CNNaffinity>
6.2039966583

> <CNN_VS>
4.1998562813

> <CNNaffinity_variance>
0.0677372739

$$$$



 21 23  0  0  0  0  0  0  0  0999 V2000
    4.2546   58.8156    1.6018 O   0  0  0  0  0  0  0  0  0  0  0  0
    4.7846   57.7102    1.6125 C   0  0  0  0  0  0  0  0  0  0  0  0
    4.2031   56.6546    2.2909 N   0  0  0  0  0  0  0  0  0  0  0  0
    4.7215   55.3902    2.3439 C   0  0  0  0  0  0  0  0  0  0  0  0
    5.8744   55.0879    1.7377 C   0  0  0  0  0  0  0  0  0  0  0  0
    6.5995   56.1337    1.0048 C   0  0  0  0  0  0  0  0  0  0  0  0
    7.8106   55.9454    0.3467 C   0  0  0  0  0  0  0  0  0  0  0  0
    8.3941   56.9379   -0.3470 N   0  0  0  0  0  0  0  0  0  0  0  0
    7.7834   58.1326   -0.3695 C   0  0  0  0  0  0  0  0  0  0  0  0
    8.3880   59.1089   -1.0609 F   0  0  0  0  0  0  0  0  0  0  0  0
    6.6420   58.4371    0.2406 N   0  0  0  0  0  0  0  0  0  0  0  0
    6.0760   57.4160    0.9125 C   0  0  0  0  0  0  0  0  0  0  0  0
    3.3589   56.8249    2.7679 H   0  0  0  0  0  0  0  0  0  0  0  0
    8.4306   54.6775    0.3875 N   0  0  0  0  0  0  0  0  0  0  0  0
    8.2795   54.0079   -0.3182 H   0  0  0  0  0  0  0  0  0  0  0  0
    9.3146   54.4018    1.5351 C   0  0  0  0  0  0  0  0  0  0  0  0
    8.8294   53.1206    2.2312 C   0  0  0  0  0  0  0  0  0  0  0  0
    8.9353   51.8747    1.3466 C   0  0  0  0  0  0  0  0  0  0  0  0
   10.1153   51.9126    0.3762 C   0  0  0  0  0  0  0  0  0  0  0  0
   11.2382   52.8016    0.8874 C   0  0  0  0  0  0  0  0  0  0  0  0
   10.7810   54.2515    1.0787 C   0  0  0  0  0  0  0  0  0  0  0  0
  1  2  2  0
  2  3  1  0
  3  4  1  0
  4  5  2  0
  5  6  1  0
  6  7  2  0
  7 14  1  0
 14 16  1  0
 16 17  1  0
 17 18  1  0
 18 19  1  0
 19 20  1  0
 20 21  1  0
  7  8  1  0
  8  9  2  0
  9 10  1  0
  9 11  1  0
 11 12  2  0
 12  2  1  0
 12  6  1  0
 21 16  1  0
  3 13  1  0
 14 15  1  0
M  END
> <minimizedAffinity>
-7.38705

> <CNNscore>
0.2827713490

> <CNNaffinity>
5.6136908531

> <CNN_VS>
1.5873908997

> <CNNaffinity_variance>
0.0065132338

$$$$



 21 23  0  0  0  0  0  0  0  0999 V2000
   11.1685   57.9780   -0.7916 O   0  0  0  0  0  0  0  0  0  0  0  0
   10.3339   57.1759   -0.3879 C   0  0  0  0  0  0  0  0  0  0  0  0
   10.6878   55.8685   -0.1088 N   0  0  0  0  0  0  0  0  0  0  0  0
    9.8231   54.9155    0.3544 C   0  0  0  0  0  0  0  0  0  0  0  0
    8.5305   55.1918    0.5559 C   0  0  0  0  0  0  0  0  0  0  0  0
    8.0289   56.5423    0.2707 C   0  0  0  0  0  0  0  0  0  0  0  0
    6.7068   56.9460    0.4276 C   0  0  0  0  0  0  0  0  0  0  0  0
    6.3279   58.2143    0.1939 N   0  0  0  0  0  0  0  0  0  0  0  0
    7.2626   59.0835   -0.2203 C   0  0  0  0  0  0  0  0  0  0  0  0
    6.8596   60.3402   -0.4546 F   0  0  0  0  0  0  0  0  0  0  0  0
    8.5463   58.8078   -0.4302 N   0  0  0  0  0  0  0  0  0  0  0  0
    8.8953   57.5328   -0.1707 C   0  0  0  0  0  0  0  0  0  0  0  0
   11.6256   55.6060   -0.2533 H   0  0  0  0  0  0  0  0  0  0  0  0
    5.7446   56.0098    0.8648 N   0  0  0  0  0  0  0  0  0  0  0  0
    5.4522   55.2659    0.2900 H   0  0  0  0  0  0  0  0  0  0  0  0
    5.1975   56.1967    2.2214 C   0  0  0  0  0  0  0  0  0  0  0  0
    4.4350   54.9242    2.6223 C   0  0  0  0  0  0  0  0  0  0  0  0
    5.3342   53.6889    2.7290 C   0  0  0  0  0  0  0  0  0  0  0  0
    6.7539   54.0050    3.1983 C   0  0  0  0  0  0  0  0  0  0  0  0
    6.8040   55.2794    4.0265 C   0  0  0  0  0  0  0  0  0  0  0  0
    6.3225   56.4990    3.2335 C   0  0  0  0  0  0  0  0  0  0  0  0
  1  2  2  0
  2  3  1  0
  3  4  1  0
  4  5  2  0
  5  6  1  0
  6  7  2  0
  7 14  1  0
 14 16  1  0
 16 17  1  0
 17 18  1  0
 18 19  1  0
 19 20  1  0
 20 21  1  0
  7  8  1  0
  8  9  2  0
  9 10  1  0
  9 11  1  0
 11 12  2  0
 12  2  1  0
 12  6  1  0
 21 16  1  0
  3 13  1  0
 14 15  1  0
M  END
> <minimizedAffinity>
-7.59069

> <CNNscore>
0.2099910527

> <CNNaffinity>
5.6451296806

> <CNN_VS>
1.1854267120

> <CNNaffinity_variance>
0.1832018048

$$$$
