


 38 38  0  0  0  0  0  0  0  0999 V2000
   36.6378   42.0992   -3.2555 C   0  0  0  0  0  0  0  0  0  0  0  0
   37.7410   39.9427   -3.7707 N   0  0  0  0  0  0  0  0  0  0  0  0
   37.9221   41.3036   -3.5893 C   0  0  0  0  0  0  0  0  0  0  0  0
   39.0342   41.8149   -3.7136 O   0  0  0  0  0  0  0  0  0  0  0  0
   36.8313   39.5663   -3.7642 H   0  0  0  0  0  0  0  0  0  0  0  0
   38.8948   39.0558   -3.9730 C   0  0  0  0  0  0  0  0  0  0  0  0
   39.5363   38.7009   -2.6135 C   0  0  0  0  0  0  0  0  0  0  0  0
   37.5766   38.4727   -0.9898 C   0  0  0  0  0  0  0  0  0  0  0  0
   38.7003   37.7451   -1.7315 C   0  0  0  0  0  0  0  0  0  0  0  0
   39.6121   37.0448   -0.7201 C   0  0  0  0  0  0  0  0  0  0  0  0
   38.4783   37.7600   -4.7472 C   0  0  0  0  0  0  0  0  0  0  0  0
   39.6308   36.9816   -5.4309 N   0  0  0  0  0  0  0  0  0  0  0  0
   39.7897   35.6451   -4.6951 C   0  0  0  0  0  0  0  0  0  0  0  0
   39.2825   36.6591   -6.8896 C   0  0  0  0  0  0  0  0  0  0  0  0
   40.9499   37.7268   -5.3697 C   0  0  0  0  0  0  0  0  0  0  0  0
   35.6393   41.8030   -4.2714 N   0  0  0  0  0  0  0  0  0  0  0  0
   34.7542   42.1336   -3.8872 H   0  0  0  0  0  0  0  0  0  0  0  0
   35.6769   42.3477   -5.8058 P   0  0  0  0  0  0  0  0  0  0  0  0
   34.6267   43.3666   -6.1229 O   0  0  0  0  0  0  0  0  0  0  0  0
   37.1406   42.9853   -5.9722 O   0  0  0  0  0  0  0  0  0  0  0  0
   37.2286   43.7510   -5.3832 H   0  0  0  0  0  0  0  0  0  0  0  0
   35.6785   40.9471   -6.9598 C   0  0  0  0  0  0  0  0  0  0  0  0
   35.0980   41.2938   -8.2456 N   0  0  0  0  0  0  0  0  0  0  0  0
   34.1599   40.5260   -8.8584 C   0  0  0  0  0  0  0  0  0  0  0  0
   33.7334   39.4765   -8.3975 O   0  0  0  0  0  0  0  0  0  0  0  0
   35.3968   42.1193   -8.6911 H   0  0  0  0  0  0  0  0  0  0  0  0
   33.7992   41.1037  -10.0199 O   0  0  0  0  0  0  0  0  0  0  0  0
   33.2093   42.4047   -9.9199 C   0  0  0  0  0  0  0  0  0  0  0  0
   33.2150   43.0298  -11.2906 C   0  0  0  0  0  0  0  0  0  0  0  0
   33.6183   44.3599  -11.4740 C   0  0  0  0  0  0  0  0  0  0  0  0
   33.6246   44.9277  -12.7502 C   0  0  0  0  0  0  0  0  0  0  0  0
   33.2342   44.1712  -13.8537 C   0  0  0  0  0  0  0  0  0  0  0  0
   32.8468   42.8432  -13.6839 C   0  0  0  0  0  0  0  0  0  0  0  0
   32.8396   42.2730  -12.4102 C   0  0  0  0  0  0  0  0  0  0  0  0
   36.2279   41.9376   -1.7786 C   0  0  0  0  0  0  0  0  0  0  0  0
   36.5265   43.0230   -0.7182 C   0  0  0  0  0  0  0  0  0  0  0  0
   37.1342   42.5139    0.5870 C   0  0  0  0  0  0  0  0  0  0  0  0
   37.3461   44.1971   -1.2517 C   0  0  0  0  0  0  0  0  0  0  0  0
  8  9  1  0
  9 10  1  0
  9  7  1  0
  6  7  1  0
  6 11  1  0
 11 12  1  0
 12 13  1  0
 12 14  1  0
 12 15  1  0
  6  2  1  0
  2  3  1  0
  3  4  2  0
  3  1  1  0
  1 35  1  0
 35 36  1  0
 36 37  1  0
 36 38  1  0
  1 16  1  0
 16 18  1  0
 18 19  2  0
 18 20  1  0
 18 22  1  0
 22 23  1  0
 23 24  1  0
 24 25  2  0
 24 27  1  0
 27 28  1  0
 28 29  1  0
 29 30  2  0
 30 31  1  0
 31 32  2  0
 32 33  1  0
 33 34  2  0
 34 29  1  0
  2  5  1  0
 16 17  1  0
 20 21  1  0
 23 26  1  0
M  CHG 1  12   1
M  END
> <minimizedAffinity>
-8.61374

> <CNNscore>
0.5648103356

> <CNNaffinity>
7.1927046776

> <CNN_VS>
4.0625138283

> <CNNaffinity_variance>
0.0907409787

$$$$



 38 38  0  0  0  0  0  0  0  0999 V2000
   37.3682   41.3592   -4.0542 C   0  0  0  0  0  0  0  0  0  0  0  0
   37.9408   38.9896   -4.4899 N   0  0  0  0  0  0  0  0  0  0  0  0
   38.3994   40.2066   -4.0141 C   0  0  0  0  0  0  0  0  0  0  0  0
   39.5565   40.3335   -3.6158 O   0  0  0  0  0  0  0  0  0  0  0  0
   37.0454   38.9300   -4.8947 H   0  0  0  0  0  0  0  0  0  0  0  0
   38.7792   37.7867   -4.3958 C   0  0  0  0  0  0  0  0  0  0  0  0
   39.6084   37.6151   -5.6875 C   0  0  0  0  0  0  0  0  0  0  0  0
   40.5380   35.7293   -7.1396 C   0  0  0  0  0  0  0  0  0  0  0  0
   39.2888   36.3385   -6.4988 C   0  0  0  0  0  0  0  0  0  0  0  0
   38.2607   36.6612   -7.5869 C   0  0  0  0  0  0  0  0  0  0  0  0
   39.7119   37.8488   -3.1396 C   0  0  0  0  0  0  0  0  0  0  0  0
   39.3255   36.9156   -1.9643 N   0  0  0  0  0  0  0  0  0  0  0  0
   38.8025   37.7972   -0.8231 C   0  0  0  0  0  0  0  0  0  0  0  0
   38.1860   35.9713   -2.3682 C   0  0  0  0  0  0  0  0  0  0  0  0
   40.5037   36.1103   -1.4519 C   0  0  0  0  0  0  0  0  0  0  0  0
   36.4534   41.1162   -5.1591 N   0  0  0  0  0  0  0  0  0  0  0  0
   35.7229   40.5139   -4.7797 H   0  0  0  0  0  0  0  0  0  0  0  0
   35.6706   42.2734   -5.9962 P   0  0  0  0  0  0  0  0  0  0  0  0
   35.2510   43.4513   -5.1726 O   0  0  0  0  0  0  0  0  0  0  0  0
   36.7135   42.7280   -7.1286 O   0  0  0  0  0  0  0  0  0  0  0  0
   37.4874   43.1365   -6.7102 H   0  0  0  0  0  0  0  0  0  0  0  0
   34.3016   41.5395   -6.9345 C   0  0  0  0  0  0  0  0  0  0  0  0
   34.3913   41.8295   -8.3551 N   0  0  0  0  0  0  0  0  0  0  0  0
   33.5497   42.6914   -8.9829 C   0  0  0  0  0  0  0  0  0  0  0  0
   32.6398   43.2841   -8.4203 O   0  0  0  0  0  0  0  0  0  0  0  0
   35.0909   41.3831   -8.8847 H   0  0  0  0  0  0  0  0  0  0  0  0
   33.8824   42.7716  -10.2851 O   0  0  0  0  0  0  0  0  0  0  0  0
   33.6198   44.0248  -10.9264 C   0  0  0  0  0  0  0  0  0  0  0  0
   33.3056   43.7547  -12.3748 C   0  0  0  0  0  0  0  0  0  0  0  0
   32.9295   42.4739  -12.8036 C   0  0  0  0  0  0  0  0  0  0  0  0
   32.6353   42.2360  -14.1481 C   0  0  0  0  0  0  0  0  0  0  0  0
   32.7085   43.2751  -15.0741 C   0  0  0  0  0  0  0  0  0  0  0  0
   33.0660   44.5553  -14.6551 C   0  0  0  0  0  0  0  0  0  0  0  0
   33.3603   44.7963  -13.3123 C   0  0  0  0  0  0  0  0  0  0  0  0
   36.7583   41.6347   -2.6657 C   0  0  0  0  0  0  0  0  0  0  0  0
   37.4616   42.5329   -1.6216 C   0  0  0  0  0  0  0  0  0  0  0  0
   37.5494   44.0137   -1.9845 C   0  0  0  0  0  0  0  0  0  0  0  0
   36.9137   42.3753   -0.2039 C   0  0  0  0  0  0  0  0  0  0  0  0
  8  9  1  0
  9 10  1  0
  9  7  1  0
  6  7  1  0
  6 11  1  0
 11 12  1  0
 12 13  1  0
 12 14  1  0
 12 15  1  0
  6  2  1  0
  2  3  1  0
  3  4  2  0
  3  1  1  0
  1 35  1  0
 35 36  1  0
 36 37  1  0
 36 38  1  0
  1 16  1  0
 16 18  1  0
 18 19  2  0
 18 20  1  0
 18 22  1  0
 22 23  1  0
 23 24  1  0
 24 25  2  0
 24 27  1  0
 27 28  1  0
 28 29  1  0
 29 30  2  0
 30 31  1  0
 31 32  2  0
 32 33  1  0
 33 34  2  0
 34 29  1  0
  2  5  1  0
 16 17  1  0
 20 21  1  0
 23 26  1  0
M  CHG 1  12   1
M  END
> <minimizedAffinity>
-7.92079

> <CNNscore>
0.5461007953

> <CNNaffinity>
7.1015801430

> <CNN_VS>
3.8781785965

> <CNNaffinity_variance>
0.2123254687

$$$$



 38 38  0  0  0  0  0  0  0  0999 V2000
   36.5248   42.1382   -2.9683 C   0  0  0  0  0  0  0  0  0  0  0  0
   37.7857   40.0096   -3.0768 N   0  0  0  0  0  0  0  0  0  0  0  0
   37.8450   41.3822   -3.2497 C   0  0  0  0  0  0  0  0  0  0  0  0
   38.8829   41.9276   -3.6225 O   0  0  0  0  0  0  0  0  0  0  0  0
   36.9234   39.5801   -2.8735 H   0  0  0  0  0  0  0  0  0  0  0  0
   38.9985   39.1885   -3.1942 C   0  0  0  0  0  0  0  0  0  0  0  0
   39.3609   38.5777   -1.8227 C   0  0  0  0  0  0  0  0  0  0  0  0
   37.7089   36.6381   -2.0173 C   0  0  0  0  0  0  0  0  0  0  0  0
   38.2199   37.7859   -1.1434 C   0  0  0  0  0  0  0  0  0  0  0  0
   37.0618   38.7308   -0.8105 C   0  0  0  0  0  0  0  0  0  0  0  0
   38.8158   38.0676   -4.2722 C   0  0  0  0  0  0  0  0  0  0  0  0
   40.1179   37.3924   -4.7723 N   0  0  0  0  0  0  0  0  0  0  0  0
   39.9484   37.1074   -6.2699 C   0  0  0  0  0  0  0  0  0  0  0  0
   41.3164   38.3382   -4.6222 C   0  0  0  0  0  0  0  0  0  0  0  0
   40.4029   36.0842   -4.0605 C   0  0  0  0  0  0  0  0  0  0  0  0
   35.5848   41.8298   -4.0352 N   0  0  0  0  0  0  0  0  0  0  0  0
   34.7724   42.4214   -3.8611 H   0  0  0  0  0  0  0  0  0  0  0  0
   35.8964   41.9775   -5.6269 P   0  0  0  0  0  0  0  0  0  0  0  0
   36.7788   43.1355   -5.9762 O   0  0  0  0  0  0  0  0  0  0  0  0
   36.6053   40.5949   -6.0297 O   0  0  0  0  0  0  0  0  0  0  0  0
   37.4544   40.5201   -5.5668 H   0  0  0  0  0  0  0  0  0  0  0  0
   34.3433   41.9600   -6.5656 C   0  0  0  0  0  0  0  0  0  0  0  0
   34.5525   42.2230   -7.9789 N   0  0  0  0  0  0  0  0  0  0  0  0
   33.6705   42.9298   -8.7324 C   0  0  0  0  0  0  0  0  0  0  0  0
   32.6239   43.3915   -8.2997 O   0  0  0  0  0  0  0  0  0  0  0  0
   35.3670   41.8746   -8.4083 H   0  0  0  0  0  0  0  0  0  0  0  0
   34.1357   43.0255   -9.9923 O   0  0  0  0  0  0  0  0  0  0  0  0
   33.3499   42.3861  -11.0043 C   0  0  0  0  0  0  0  0  0  0  0  0
   33.2634   43.3138  -12.1881 C   0  0  0  0  0  0  0  0  0  0  0  0
   33.5778   44.6743  -12.0616 C   0  0  0  0  0  0  0  0  0  0  0  0
   33.4992   45.5243  -13.1672 C   0  0  0  0  0  0  0  0  0  0  0  0
   33.1121   45.0226  -14.4084 C   0  0  0  0  0  0  0  0  0  0  0  0
   32.8130   43.6686  -14.5481 C   0  0  0  0  0  0  0  0  0  0  0  0
   32.8907   42.8166  -13.4454 C   0  0  0  0  0  0  0  0  0  0  0  0
   36.0488   41.9446   -1.5152 C   0  0  0  0  0  0  0  0  0  0  0  0
   36.5512   42.8397   -0.3585 C   0  0  0  0  0  0  0  0  0  0  0  0
   36.9261   42.1022    0.9251 C   0  0  0  0  0  0  0  0  0  0  0  0
   37.6766   43.7920   -0.7601 C   0  0  0  0  0  0  0  0  0  0  0  0
  8  9  1  0
  9 10  1  0
  9  7  1  0
  6  7  1  0
  6 11  1  0
 11 12  1  0
 12 13  1  0
 12 14  1  0
 12 15  1  0
  6  2  1  0
  2  3  1  0
  3  4  2  0
  3  1  1  0
  1 35  1  0
 35 36  1  0
 36 37  1  0
 36 38  1  0
  1 16  1  0
 16 18  1  0
 18 19  2  0
 18 20  1  0
 18 22  1  0
 22 23  1  0
 23 24  1  0
 24 25  2  0
 24 27  1  0
 27 28  1  0
 28 29  1  0
 29 30  2  0
 30 31  1  0
 31 32  2  0
 32 33  1  0
 33 34  2  0
 34 29  1  0
  2  5  1  0
 16 17  1  0
 20 21  1  0
 23 26  1  0
M  CHG 1  12   1
M  END
> <minimizedAffinity>
-8.84558

> <CNNscore>
0.5189863443

> <CNNaffinity>
6.9404373169

> <CNN_VS>
3.6019921303

> <CNNaffinity_variance>
0.5002195239

$$$$



 38 38  0  0  0  0  0  0  0  0999 V2000
   36.7097   42.0408   -3.2456 C   0  0  0  0  0  0  0  0  0  0  0  0
   37.6206   39.8415   -3.9285 N   0  0  0  0  0  0  0  0  0  0  0  0
   37.9248   41.1535   -3.6064 C   0  0  0  0  0  0  0  0  0  0  0  0
   39.0862   41.5581   -3.6361 O   0  0  0  0  0  0  0  0  0  0  0  0
   36.6793   39.5608   -3.9945 H   0  0  0  0  0  0  0  0  0  0  0  0
   38.6907   38.8646   -4.1725 C   0  0  0  0  0  0  0  0  0  0  0  0
   38.8997   37.9827   -2.9219 C   0  0  0  0  0  0  0  0  0  0  0  0
   41.3126   38.8029   -3.1055 C   0  0  0  0  0  0  0  0  0  0  0  0
   40.2431   38.2037   -2.1894 C   0  0  0  0  0  0  0  0  0  0  0  0
   40.7448   36.8748   -1.6173 C   0  0  0  0  0  0  0  0  0  0  0  0
   38.3720   37.9843   -5.4276 C   0  0  0  0  0  0  0  0  0  0  0  0
   38.5194   36.4538   -5.2345 N   0  0  0  0  0  0  0  0  0  0  0  0
   40.0171   36.1237   -5.2619 C   0  0  0  0  0  0  0  0  0  0  0  0
   37.9836   36.0219   -3.8634 C   0  0  0  0  0  0  0  0  0  0  0  0
   37.8299   35.6623   -6.3287 C   0  0  0  0  0  0  0  0  0  0  0  0
   35.6756   41.8292   -4.2469 N   0  0  0  0  0  0  0  0  0  0  0  0
   34.8731   42.3718   -3.9278 H   0  0  0  0  0  0  0  0  0  0  0  0
   35.8265   42.1690   -5.8326 P   0  0  0  0  0  0  0  0  0  0  0  0
   36.9025   43.1608   -6.1496 O   0  0  0  0  0  0  0  0  0  0  0  0
   36.1514   40.7552   -6.5195 O   0  0  0  0  0  0  0  0  0  0  0  0
   37.0091   40.4312   -6.2025 H   0  0  0  0  0  0  0  0  0  0  0  0
   34.2123   42.6279   -6.5234 C   0  0  0  0  0  0  0  0  0  0  0  0
   34.2540   42.7728   -7.9683 N   0  0  0  0  0  0  0  0  0  0  0  0
   33.9629   41.7530   -8.8170 C   0  0  0  0  0  0  0  0  0  0  0  0
   33.6573   40.6277   -8.4480 O   0  0  0  0  0  0  0  0  0  0  0  0
   34.5036   43.6462   -8.3480 H   0  0  0  0  0  0  0  0  0  0  0  0
   34.0687   42.1854  -10.0877 O   0  0  0  0  0  0  0  0  0  0  0  0
   33.7275   43.5571  -10.3168 C   0  0  0  0  0  0  0  0  0  0  0  0
   33.4679   43.7370  -11.7898 C   0  0  0  0  0  0  0  0  0  0  0  0
   33.6889   44.9725  -12.4146 C   0  0  0  0  0  0  0  0  0  0  0  0
   33.4498   45.1265  -13.7821 C   0  0  0  0  0  0  0  0  0  0  0  0
   32.9940   44.0478  -14.5378 C   0  0  0  0  0  0  0  0  0  0  0  0
   32.7865   42.8114  -13.9293 C   0  0  0  0  0  0  0  0  0  0  0  0
   33.0246   42.6542  -12.5631 C   0  0  0  0  0  0  0  0  0  0  0  0
   36.3124   41.8981   -1.7633 C   0  0  0  0  0  0  0  0  0  0  0  0
   37.1394   42.5387   -0.6244 C   0  0  0  0  0  0  0  0  0  0  0  0
   37.3501   44.0470   -0.7364 C   0  0  0  0  0  0  0  0  0  0  0  0
   36.6388   42.1848    0.7753 C   0  0  0  0  0  0  0  0  0  0  0  0
  8  9  1  0
  9 10  1  0
  9  7  1  0
  6  7  1  0
  6 11  1  0
 11 12  1  0
 12 13  1  0
 12 14  1  0
 12 15  1  0
  6  2  1  0
  2  3  1  0
  3  4  2  0
  3  1  1  0
  1 35  1  0
 35 36  1  0
 36 37  1  0
 36 38  1  0
  1 16  1  0
 16 18  1  0
 18 19  2  0
 18 20  1  0
 18 22  1  0
 22 23  1  0
 23 24  1  0
 24 25  2  0
 24 27  1  0
 27 28  1  0
 28 29  1  0
 29 30  2  0
 30 31  1  0
 31 32  2  0
 32 33  1  0
 33 34  2  0
 34 29  1  0
  2  5  1  0
 16 17  1  0
 20 21  1  0
 23 26  1  0
M  CHG 1  12   1
M  END
> <minimizedAffinity>
-8.16079

> <CNNscore>
0.4219362736

> <CNNaffinity>
6.9029488564

> <CNN_VS>
2.9126045704

> <CNNaffinity_variance>
0.1403710842

$$$$



 38 38  0  0  0  0  0  0  0  0999 V2000
   34.0130   39.3002   -9.9000 C   0  0  0  0  0  0  0  0  0  0  0  0
   32.9339   41.0255  -11.3113 N   0  0  0  0  0  0  0  0  0  0  0  0
   33.4226   39.7307  -11.2638 C   0  0  0  0  0  0  0  0  0  0  0  0
   33.3943   39.0079  -12.2590 O   0  0  0  0  0  0  0  0  0  0  0  0
   33.0531   41.6209  -10.5364 H   0  0  0  0  0  0  0  0  0  0  0  0
   32.2388   41.5183  -12.5084 C   0  0  0  0  0  0  0  0  0  0  0  0
   30.7483   41.7695  -12.1911 C   0  0  0  0  0  0  0  0  0  0  0  0
   28.7379   41.0382  -13.5886 C   0  0  0  0  0  0  0  0  0  0  0  0
   29.7995   40.6099  -12.5727 C   0  0  0  0  0  0  0  0  0  0  0  0
   29.1152   40.0666  -11.3152 C   0  0  0  0  0  0  0  0  0  0  0  0
   32.9180   42.8182  -13.0570 C   0  0  0  0  0  0  0  0  0  0  0  0
   32.9976   44.0081  -12.0674 N   0  0  0  0  0  0  0  0  0  0  0  0
   33.8378   45.1078  -12.7291 C   0  0  0  0  0  0  0  0  0  0  0  0
   31.6048   44.5954  -11.8057 C   0  0  0  0  0  0  0  0  0  0  0  0
   33.6501   43.6264  -10.7530 C   0  0  0  0  0  0  0  0  0  0  0  0
   33.5961   40.2668   -8.8957 N   0  0  0  0  0  0  0  0  0  0  0  0
   32.6781   39.9529   -8.5809 H   0  0  0  0  0  0  0  0  0  0  0  0
   34.4234   40.6195   -7.5379 P   0  0  0  0  0  0  0  0  0  0  0  0
   34.2263   39.6376   -6.4248 O   0  0  0  0  0  0  0  0  0  0  0  0
   35.9615   40.6413   -7.9963 O   0  0  0  0  0  0  0  0  0  0  0  0
   36.2261   39.7531   -8.2827 H   0  0  0  0  0  0  0  0  0  0  0  0
   34.0933   42.3330   -7.0396 C   0  0  0  0  0  0  0  0  0  0  0  0
   34.5550   42.6118   -5.6908 N   0  0  0  0  0  0  0  0  0  0  0  0
   35.8479   42.9158   -5.4056 C   0  0  0  0  0  0  0  0  0  0  0  0
   36.7353   42.9672   -6.2455 O   0  0  0  0  0  0  0  0  0  0  0  0
   33.9041   42.5790   -4.9529 H   0  0  0  0  0  0  0  0  0  0  0  0
   35.9729   43.1396   -4.0838 O   0  0  0  0  0  0  0  0  0  0  0  0
   36.0955   41.9769   -3.2568 C   0  0  0  0  0  0  0  0  0  0  0  0
   36.6850   42.3996   -1.9364 C   0  0  0  0  0  0  0  0  0  0  0  0
   37.4177   43.5895   -1.8226 C   0  0  0  0  0  0  0  0  0  0  0  0
   37.9553   43.9742   -0.5922 C   0  0  0  0  0  0  0  0  0  0  0  0
   37.7612   43.1780    0.5351 C   0  0  0  0  0  0  0  0  0  0  0  0
   37.0209   42.0015    0.4357 C   0  0  0  0  0  0  0  0  0  0  0  0
   36.4822   41.6143   -0.7922 C   0  0  0  0  0  0  0  0  0  0  0  0
   33.7595   37.8082   -9.6080 C   0  0  0  0  0  0  0  0  0  0  0  0
   32.4535   37.3094   -8.9468 C   0  0  0  0  0  0  0  0  0  0  0  0
   32.5629   36.9566   -7.4650 C   0  0  0  0  0  0  0  0  0  0  0  0
   31.2557   38.2299   -9.1764 C   0  0  0  0  0  0  0  0  0  0  0  0
  8  9  1  0
  9 10  1  0
  9  7  1  0
  6  7  1  0
  6 11  1  0
 11 12  1  0
 12 13  1  0
 12 14  1  0
 12 15  1  0
  6  2  1  0
  2  3  1  0
  3  4  2  0
  3  1  1  0
  1 35  1  0
 35 36  1  0
 36 37  1  0
 36 38  1  0
  1 16  1  0
 16 18  1  0
 18 19  2  0
 18 20  1  0
 18 22  1  0
 22 23  1  0
 23 24  1  0
 24 25  2  0
 24 27  1  0
 27 28  1  0
 28 29  1  0
 29 30  2  0
 30 31  1  0
 31 32  2  0
 32 33  1  0
 33 34  2  0
 34 29  1  0
  2  5  1  0
 16 17  1  0
 20 21  1  0
 23 26  1  0
M  CHG 1  12   1
M  END
> <minimizedAffinity>
-7.42567

> <CNNscore>
0.4065995216

> <CNNaffinity>
6.3917269707

> <CNN_VS>
2.5988731384

> <CNNaffinity_variance>
0.4921284616

$$$$



 38 38  0  0  0  0  0  0  0  0999 V2000
   37.6774   40.9440   -4.0590 C   0  0  0  0  0  0  0  0  0  0  0  0
   39.7672   39.6224   -3.9219 N   0  0  0  0  0  0  0  0  0  0  0  0
   38.3833   39.5739   -3.9242 C   0  0  0  0  0  0  0  0  0  0  0  0
   37.7886   38.5037   -3.8036 O   0  0  0  0  0  0  0  0  0  0  0  0
   40.2250   40.4940   -3.9208 H   0  0  0  0  0  0  0  0  0  0  0  0
   40.5583   38.3842   -3.9212 C   0  0  0  0  0  0  0  0  0  0  0  0
   41.5292   38.3753   -2.7200 C   0  0  0  0  0  0  0  0  0  0  0  0
   43.7155   37.0888   -2.4132 C   0  0  0  0  0  0  0  0  0  0  0  0
   43.0252   38.2719   -3.0960 C   0  0  0  0  0  0  0  0  0  0  0  0
   43.7438   39.5707   -2.7197 C   0  0  0  0  0  0  0  0  0  0  0  0
   39.6291   37.1241   -3.8954 C   0  0  0  0  0  0  0  0  0  0  0  0
   39.7210   36.2428   -2.6241 N   0  0  0  0  0  0  0  0  0  0  0  0
   38.4195   35.4374   -2.5215 C   0  0  0  0  0  0  0  0  0  0  0  0
   40.8715   35.2347   -2.7398 C   0  0  0  0  0  0  0  0  0  0  0  0
   39.8820   37.0641   -1.3597 C   0  0  0  0  0  0  0  0  0  0  0  0
   36.8896   40.9342   -5.2822 N   0  0  0  0  0  0  0  0  0  0  0  0
   36.2693   40.1287   -5.1995 H   0  0  0  0  0  0  0  0  0  0  0  0
   35.9458   42.1580   -5.7958 P   0  0  0  0  0  0  0  0  0  0  0  0
   35.4435   43.0485   -4.7020 O   0  0  0  0  0  0  0  0  0  0  0  0
   36.8755   42.9878   -6.8076 O   0  0  0  0  0  0  0  0  0  0  0  0
   37.6209   43.3723   -6.3202 H   0  0  0  0  0  0  0  0  0  0  0  0
   34.6185   41.5143   -6.8529 C   0  0  0  0  0  0  0  0  0  0  0  0
   34.7091   42.0133   -8.2141 N   0  0  0  0  0  0  0  0  0  0  0  0
   33.8182   42.8981   -8.7324 C   0  0  0  0  0  0  0  0  0  0  0  0
   32.8601   43.3395   -8.1136 O   0  0  0  0  0  0  0  0  0  0  0  0
   35.4466   41.6972   -8.7846 H   0  0  0  0  0  0  0  0  0  0  0  0
   34.1642   43.1894  -10.0006 O   0  0  0  0  0  0  0  0  0  0  0  0
   33.2662   44.0431  -10.7184 C   0  0  0  0  0  0  0  0  0  0  0  0
   33.0610   43.4601  -12.0923 C   0  0  0  0  0  0  0  0  0  0  0  0
   33.0893   44.2757  -13.2324 C   0  0  0  0  0  0  0  0  0  0  0  0
   32.9031   43.7236  -14.5019 C   0  0  0  0  0  0  0  0  0  0  0  0
   32.6930   42.3532  -14.6442 C   0  0  0  0  0  0  0  0  0  0  0  0
   32.6790   41.5318  -13.5184 C   0  0  0  0  0  0  0  0  0  0  0  0
   32.8649   42.0802  -12.2486 C   0  0  0  0  0  0  0  0  0  0  0  0
   36.9699   41.3582   -2.7538 C   0  0  0  0  0  0  0  0  0  0  0  0
   37.6133   42.3368   -1.7439 C   0  0  0  0  0  0  0  0  0  0  0  0
   37.5186   43.8155   -2.1134 C   0  0  0  0  0  0  0  0  0  0  0  0
   37.1493   42.1289   -0.3030 C   0  0  0  0  0  0  0  0  0  0  0  0
  8  9  1  0
  9 10  1  0
  9  7  1  0
  6  7  1  0
  6 11  1  0
 11 12  1  0
 12 13  1  0
 12 14  1  0
 12 15  1  0
  6  2  1  0
  2  3  1  0
  3  4  2  0
  3  1  1  0
  1 35  1  0
 35 36  1  0
 36 37  1  0
 36 38  1  0
  1 16  1  0
 16 18  1  0
 18 19  2  0
 18 20  1  0
 18 22  1  0
 22 23  1  0
 23 24  1  0
 24 25  2  0
 24 27  1  0
 27 28  1  0
 28 29  1  0
 29 30  2  0
 30 31  1  0
 31 32  2  0
 32 33  1  0
 33 34  2  0
 34 29  1  0
  2  5  1  0
 16 17  1  0
 20 21  1  0
 23 26  1  0
M  CHG 1  12   1
M  END
> <minimizedAffinity>
-7.75495

> <CNNscore>
0.3690019250

> <CNNaffinity>
6.3973155022

> <CNN_VS>
2.3606216908

> <CNNaffinity_variance>
0.2180058956

$$$$



 38 38  0  0  0  0  0  0  0  0999 V2000
   33.3467   42.2776   -9.7598 C   0  0  0  0  0  0  0  0  0  0  0  0
   32.8504   41.1226  -11.8935 N   0  0  0  0  0  0  0  0  0  0  0  0
   32.3960   41.4087  -10.6171 C   0  0  0  0  0  0  0  0  0  0  0  0
   31.3186   40.9696  -10.2170 O   0  0  0  0  0  0  0  0  0  0  0  0
   33.7561   41.3993  -12.1625 H   0  0  0  0  0  0  0  0  0  0  0  0
   31.9926   40.4094  -12.8497 C   0  0  0  0  0  0  0  0  0  0  0  0
   32.2345   38.8874  -12.7473 C   0  0  0  0  0  0  0  0  0  0  0  0
   34.5960   37.9600  -12.4434 C   0  0  0  0  0  0  0  0  0  0  0  0
   33.3346   38.4714  -11.7437 C   0  0  0  0  0  0  0  0  0  0  0  0
   32.7951   37.3888  -10.8047 C   0  0  0  0  0  0  0  0  0  0  0  0
   30.4828   40.7504  -12.6126 C   0  0  0  0  0  0  0  0  0  0  0  0
   29.7987   41.5930  -13.7187 N   0  0  0  0  0  0  0  0  0  0  0  0
   29.4842   42.9721  -13.1251 C   0  0  0  0  0  0  0  0  0  0  0  0
   30.7479   41.8136  -14.9034 C   0  0  0  0  0  0  0  0  0  0  0  0
   28.5048   40.9699  -14.2054 C   0  0  0  0  0  0  0  0  0  0  0  0
   34.3721   41.4132   -9.1956 N   0  0  0  0  0  0  0  0  0  0  0  0
   35.2609   41.8461   -9.4465 H   0  0  0  0  0  0  0  0  0  0  0  0
   34.5064   41.0287   -7.6187 P   0  0  0  0  0  0  0  0  0  0  0  0
   33.7122   39.8276   -7.2084 O   0  0  0  0  0  0  0  0  0  0  0  0
   36.0741   40.7616   -7.4004 O   0  0  0  0  0  0  0  0  0  0  0  0
   36.3455   39.9879   -7.9186 H   0  0  0  0  0  0  0  0  0  0  0  0
   34.1667   42.4880   -6.5948 C   0  0  0  0  0  0  0  0  0  0  0  0
   34.9984   42.5299   -5.4045 N   0  0  0  0  0  0  0  0  0  0  0  0
   36.2956   42.9322   -5.4293 C   0  0  0  0  0  0  0  0  0  0  0  0
   36.8809   43.2775   -6.4460 O   0  0  0  0  0  0  0  0  0  0  0  0
   34.6057   42.2554   -4.5445 H   0  0  0  0  0  0  0  0  0  0  0  0
   36.8023   42.8827   -4.1828 O   0  0  0  0  0  0  0  0  0  0  0  0
   36.1334   42.0104   -3.2650 C   0  0  0  0  0  0  0  0  0  0  0  0
   36.6328   42.3166   -1.8770 C   0  0  0  0  0  0  0  0  0  0  0  0
   36.3696   41.4475   -0.8088 C   0  0  0  0  0  0  0  0  0  0  0  0
   36.8420   41.7387    0.4730 C   0  0  0  0  0  0  0  0  0  0  0  0
   37.5854   42.8960    0.6978 C   0  0  0  0  0  0  0  0  0  0  0  0
   37.8660   43.7582   -0.3606 C   0  0  0  0  0  0  0  0  0  0  0  0
   37.3955   43.4700   -1.6426 C   0  0  0  0  0  0  0  0  0  0  0  0
   33.8085   43.5406  -10.5128 C   0  0  0  0  0  0  0  0  0  0  0  0
   32.9568   44.1915  -11.6275 C   0  0  0  0  0  0  0  0  0  0  0  0
   31.8308   45.1027  -11.1438 C   0  0  0  0  0  0  0  0  0  0  0  0
   33.7825   44.9058  -12.6965 C   0  0  0  0  0  0  0  0  0  0  0  0
  8  9  1  0
  9 10  1  0
  9  7  1  0
  6  7  1  0
  6 11  1  0
 11 12  1  0
 12 13  1  0
 12 14  1  0
 12 15  1  0
  6  2  1  0
  2  3  1  0
  3  4  2  0
  3  1  1  0
  1 35  1  0
 35 36  1  0
 36 37  1  0
 36 38  1  0
  1 16  1  0
 16 18  1  0
 18 19  2  0
 18 20  1  0
 18 22  1  0
 22 23  1  0
 23 24  1  0
 24 25  2  0
 24 27  1  0
 27 28  1  0
 28 29  1  0
 29 30  2  0
 30 31  1  0
 31 32  2  0
 32 33  1  0
 33 34  2  0
 34 29  1  0
  2  5  1  0
 16 17  1  0
 20 21  1  0
 23 26  1  0
M  CHG 1  12   1
M  END
> <minimizedAffinity>
-7.03539

> <CNNscore>
0.2645909786

> <CNNaffinity>
6.1623053551

> <CNN_VS>
1.6304904222

> <CNNaffinity_variance>
0.3462607861

$$$$



 38 38  0  0  0  0  0  0  0  0999 V2000
   37.9882   41.1687   -2.7750 C   0  0  0  0  0  0  0  0  0  0  0  0
   39.1155   39.1129   -3.5722 N   0  0  0  0  0  0  0  0  0  0  0  0
   38.4478   39.7138   -2.5184 C   0  0  0  0  0  0  0  0  0  0  0  0
   38.2687   39.1135   -1.4595 O   0  0  0  0  0  0  0  0  0  0  0  0
   39.3356   39.6395   -4.3744 H   0  0  0  0  0  0  0  0  0  0  0  0
   39.4983   37.6960   -3.5036 C   0  0  0  0  0  0  0  0  0  0  0  0
   38.2826   36.8012   -3.8304 C   0  0  0  0  0  0  0  0  0  0  0  0
   38.6963   35.8968   -1.4766 C   0  0  0  0  0  0  0  0  0  0  0  0
   38.0474   35.6388   -2.8385 C   0  0  0  0  0  0  0  0  0  0  0  0
   38.5961   34.3366   -3.4287 C   0  0  0  0  0  0  0  0  0  0  0  0
   40.6914   37.3890   -4.4702 C   0  0  0  0  0  0  0  0  0  0  0  0
   42.0657   37.1544   -3.7938 N   0  0  0  0  0  0  0  0  0  0  0  0
   42.9613   38.3529   -4.1325 C   0  0  0  0  0  0  0  0  0  0  0  0
   41.9231   37.1106   -2.2670 C   0  0  0  0  0  0  0  0  0  0  0  0
   42.7446   35.8901   -4.2835 C   0  0  0  0  0  0  0  0  0  0  0  0
   37.8712   41.3646   -4.2119 N   0  0  0  0  0  0  0  0  0  0  0  0
   37.9564   40.4341   -4.6210 H   0  0  0  0  0  0  0  0  0  0  0  0
   36.5993   42.0531   -4.9608 P   0  0  0  0  0  0  0  0  0  0  0  0
   35.7273   42.8746   -4.0627 O   0  0  0  0  0  0  0  0  0  0  0  0
   37.2526   42.9760   -6.1001 O   0  0  0  0  0  0  0  0  0  0  0  0
   37.7713   43.6831   -5.6855 H   0  0  0  0  0  0  0  0  0  0  0  0
   35.6766   40.7987   -5.8927 C   0  0  0  0  0  0  0  0  0  0  0  0
   34.6704   41.3876   -6.7594 N   0  0  0  0  0  0  0  0  0  0  0  0
   34.5498   41.0602   -8.0722 C   0  0  0  0  0  0  0  0  0  0  0  0
   35.2780   40.2605   -8.6430 O   0  0  0  0  0  0  0  0  0  0  0  0
   34.0504   42.0514   -6.3796 H   0  0  0  0  0  0  0  0  0  0  0  0
   33.5261   41.7484   -8.6119 O   0  0  0  0  0  0  0  0  0  0  0  0
   33.8535   43.0206   -9.1821 C   0  0  0  0  0  0  0  0  0  0  0  0
   33.5217   42.9764  -10.6510 C   0  0  0  0  0  0  0  0  0  0  0  0
   33.0188   41.8082  -11.2410 C   0  0  0  0  0  0  0  0  0  0  0  0
   32.7097   41.7802  -12.6029 C   0  0  0  0  0  0  0  0  0  0  0  0
   32.8943   42.9187  -13.3851 C   0  0  0  0  0  0  0  0  0  0  0  0
   33.3786   44.0896  -12.8047 C   0  0  0  0  0  0  0  0  0  0  0  0
   33.6883   44.1209  -11.4443 C   0  0  0  0  0  0  0  0  0  0  0  0
   36.7808   41.5543   -1.8981 C   0  0  0  0  0  0  0  0  0  0  0  0
   36.8700   42.6502   -0.8107 C   0  0  0  0  0  0  0  0  0  0  0  0
   36.8922   42.1435    0.6297 C   0  0  0  0  0  0  0  0  0  0  0  0
   38.0082   43.6457   -1.0306 C   0  0  0  0  0  0  0  0  0  0  0  0
  8  9  1  0
  9 10  1  0
  9  7  1  0
  6  7  1  0
  6 11  1  0
 11 12  1  0
 12 13  1  0
 12 14  1  0
 12 15  1  0
  6  2  1  0
  2  3  1  0
  3  4  2  0
  3  1  1  0
  1 35  1  0
 35 36  1  0
 36 37  1  0
 36 38  1  0
  1 16  1  0
 16 18  1  0
 18 19  2  0
 18 20  1  0
 18 22  1  0
 22 23  1  0
 23 24  1  0
 24 25  2  0
 24 27  1  0
 27 28  1  0
 28 29  1  0
 29 30  2  0
 30 31  1  0
 31 32  2  0
 32 33  1  0
 33 34  2  0
 34 29  1  0
  2  5  1  0
 16 17  1  0
 20 21  1  0
 23 26  1  0
M  CHG 1  12   1
M  END
> <minimizedAffinity>
-7.52738

> <CNNscore>
0.2626850605

> <CNNaffinity>
6.2634468079

> <CNN_VS>
1.6453138590

> <CNNaffinity_variance>
0.1305801868

$$$$



 38 38  0  0  0  0  0  0  0  0999 V2000
   32.6056   43.0043  -10.3591 C   0  0  0  0  0  0  0  0  0  0  0  0
   31.3562   40.8706  -10.2203 N   0  0  0  0  0  0  0  0  0  0  0  0
   32.3915   41.5496  -10.8406 C   0  0  0  0  0  0  0  0  0  0  0  0
   33.0596   41.0128  -11.7232 O   0  0  0  0  0  0  0  0  0  0  0  0
   30.7707   41.3461   -9.5875 H   0  0  0  0  0  0  0  0  0  0  0  0
   31.1241   39.4467  -10.4983 C   0  0  0  0  0  0  0  0  0  0  0  0
   30.2808   39.2871  -11.7824 C   0  0  0  0  0  0  0  0  0  0  0  0
   27.7263   39.3494  -11.7775 C   0  0  0  0  0  0  0  0  0  0  0  0
   28.9741   38.4802  -11.6042 C   0  0  0  0  0  0  0  0  0  0  0  0
   28.9548   37.8266  -10.2196 C   0  0  0  0  0  0  0  0  0  0  0  0
   32.4783   38.6704  -10.6216 C   0  0  0  0  0  0  0  0  0  0  0  0
   32.7470   37.6030   -9.5307 N   0  0  0  0  0  0  0  0  0  0  0  0
   32.2224   36.2602  -10.0549 C   0  0  0  0  0  0  0  0  0  0  0  0
   34.2524   37.4387   -9.2857 C   0  0  0  0  0  0  0  0  0  0  0  0
   32.0448   37.9195   -8.2245 C   0  0  0  0  0  0  0  0  0  0  0  0
   32.7893   42.9860   -8.9159 N   0  0  0  0  0  0  0  0  0  0  0  0
   31.9449   42.5547   -8.5399 H   0  0  0  0  0  0  0  0  0  0  0  0
   34.0269   42.2654   -8.1404 P   0  0  0  0  0  0  0  0  0  0  0  0
   34.2168   40.8224   -8.4919 O   0  0  0  0  0  0  0  0  0  0  0  0
   35.3198   43.1171   -8.5641 O   0  0  0  0  0  0  0  0  0  0  0  0
   35.4714   43.0221   -9.5174 H   0  0  0  0  0  0  0  0  0  0  0  0
   33.8859   42.5480   -6.3533 C   0  0  0  0  0  0  0  0  0  0  0  0
   35.1209   43.0516   -5.7774 N   0  0  0  0  0  0  0  0  0  0  0  0
   36.1337   42.2360   -5.3845 C   0  0  0  0  0  0  0  0  0  0  0  0
   36.0940   41.0163   -5.4639 O   0  0  0  0  0  0  0  0  0  0  0  0
   35.2282   44.0240   -5.6673 H   0  0  0  0  0  0  0  0  0  0  0  0
   37.1486   42.9819   -4.9086 O   0  0  0  0  0  0  0  0  0  0  0  0
   38.0763   42.3089   -4.0502 C   0  0  0  0  0  0  0  0  0  0  0  0
   37.5842   42.4395   -2.6323 C   0  0  0  0  0  0  0  0  0  0  0  0
   37.2879   41.3039   -1.8652 C   0  0  0  0  0  0  0  0  0  0  0  0
   36.8373   41.4366   -0.5498 C   0  0  0  0  0  0  0  0  0  0  0  0
   36.6844   42.7027    0.0123 C   0  0  0  0  0  0  0  0  0  0  0  0
   36.9915   43.8372   -0.7366 C   0  0  0  0  0  0  0  0  0  0  0  0
   37.4421   43.7080   -2.0512 C   0  0  0  0  0  0  0  0  0  0  0  0
   33.6605   43.7420  -11.2068 C   0  0  0  0  0  0  0  0  0  0  0  0
   33.2882   44.5152  -12.4933 C   0  0  0  0  0  0  0  0  0  0  0  0
   32.1802   43.8884  -13.3368 C   0  0  0  0  0  0  0  0  0  0  0  0
   32.9904   45.9954  -12.2585 C   0  0  0  0  0  0  0  0  0  0  0  0
  8  9  1  0
  9 10  1  0
  9  7  1  0
  6  7  1  0
  6 11  1  0
 11 12  1  0
 12 13  1  0
 12 14  1  0
 12 15  1  0
  6  2  1  0
  2  3  1  0
  3  4  2  0
  3  1  1  0
  1 35  1  0
 35 36  1  0
 36 37  1  0
 36 38  1  0
  1 16  1  0
 16 18  1  0
 18 19  2  0
 18 20  1  0
 18 22  1  0
 22 23  1  0
 23 24  1  0
 24 25  2  0
 24 27  1  0
 27 28  1  0
 28 29  1  0
 29 30  2  0
 30 31  1  0
 31 32  2  0
 32 33  1  0
 33 34  2  0
 34 29  1  0
  2  5  1  0
 16 17  1  0
 20 21  1  0
 23 26  1  0
M  CHG 1  12   1
M  END
> <minimizedAffinity>
-7.11954

> <CNNscore>
0.2399238646

> <CNNaffinity>
6.2694973946

> <CNN_VS>
1.5042020082

> <CNNaffinity_variance>
0.0481124036

$$$$
