


 26 28  0  0  0  0  0  0  0  0999 V2000
   52.1545   40.2633   17.4301 N   0  0  0  0  0  0  0  0  0  0  0  0
   52.9585   40.3963   18.5476 C   0  0  0  0  0  0  0  0  0  0  0  0
   52.4556   41.0191   19.6239 N   0  0  0  0  0  0  0  0  0  0  0  0
   53.2364   41.1635   20.7155 C   0  0  0  0  0  0  0  0  0  0  0  0
   52.4590   42.0642   22.2021 Br  0  0  0  0  0  0  0  0  0  0  0  0
   54.5110   40.7639   20.8651 N   0  0  0  0  0  0  0  0  0  0  0  0
   54.9953   40.1226   19.7821 C   0  0  0  0  0  0  0  0  0  0  0  0
   56.2567   39.5291   19.5191 C   0  0  0  0  0  0  0  0  0  0  0  0
   56.3028   39.0217   18.2723 N   0  0  0  0  0  0  0  0  0  0  0  0
   55.0673   39.2424   17.7872 N   0  0  0  0  0  0  0  0  0  0  0  0
   54.2550   39.9347   18.6321 C   0  0  0  0  0  0  0  0  0  0  0  0
   51.2360   40.6175   17.4396 H   0  0  0  0  0  0  0  0  0  0  0  0
   52.5007   39.8143   16.6253 H   0  0  0  0  0  0  0  0  0  0  0  0
   54.7764   38.9308   16.8998 H   0  0  0  0  0  0  0  0  0  0  0  0
   57.4395   39.4274   20.4383 C   0  0  0  0  0  0  0  0  0  0  0  0
   57.8900   38.0529   20.5605 O   0  0  0  0  0  0  0  0  0  0  0  0
   58.0527   37.7600   21.9626 C   0  0  0  0  0  0  0  0  0  0  0  0
   57.0543   38.6599   22.6765 C   0  0  0  0  0  0  0  0  0  0  0  0
   57.3944   38.8901   24.0417 O   0  0  0  0  0  0  0  0  0  0  0  0
   57.1509   39.9392   21.8595 C   0  0  0  0  0  0  0  0  0  0  0  0
   58.2404   40.7451   22.3479 O   0  0  0  0  0  0  0  0  0  0  0  0
   58.2824   39.2772   24.0929 H   0  0  0  0  0  0  0  0  0  0  0  0
   59.0611   40.2287   22.3230 H   0  0  0  0  0  0  0  0  0  0  0  0
   57.7952   36.2777   22.2303 C   0  0  0  0  0  0  0  0  0  0  0  0
   56.5825   36.1127   22.9654 O   0  0  0  0  0  0  0  0  0  0  0  0
   56.6534   36.5764   23.8145 H   0  0  0  0  0  0  0  0  0  0  0  0
  1  2  1  0
  2  3  2  0
  3  4  1  0
  4  5  1  0
  4  6  2  0
  6  7  1  0
  7  8  1  0
 15  8  1  0
 15 16  1  0
 16 17  1  0
 17 24  1  0
 24 25  1  0
 17 18  1  0
 18 19  1  0
 18 20  1  0
 20 21  1  0
  8  9  2  0
  9 10  1  0
 10 11  1  0
 11  2  1  0
 11  7  2  0
 20 15  1  0
  1 12  1  0
  1 13  1  0
 25 26  1  0
 19 22  1  0
 21 23  1  0
 10 14  1  0
M  END
> <minimizedAffinity>
-7.87036

> <CNNscore>
0.8943884969

> <CNNaffinity>
7.1437835693

> <CNN_VS>
6.3893179893

> <CNNaffinity_variance>
0.3154131174

$$$$



 26 28  0  0  0  0  0  0  0  0999 V2000
   59.3119   37.4356   24.2486 N   0  0  0  0  0  0  0  0  0  0  0  0
   58.3013   37.5746   23.3147 C   0  0  0  0  0  0  0  0  0  0  0  0
   57.2625   36.7276   23.3690 N   0  0  0  0  0  0  0  0  0  0  0  0
   56.2766   36.8484   22.4550 C   0  0  0  0  0  0  0  0  0  0  0  0
   54.8386   35.6075   22.5884 Br  0  0  0  0  0  0  0  0  0  0  0  0
   56.2051   37.7320   21.4446 N   0  0  0  0  0  0  0  0  0  0  0  0
   57.2464   38.5883   21.4155 C   0  0  0  0  0  0  0  0  0  0  0  0
   57.5585   39.6700   20.5522 C   0  0  0  0  0  0  0  0  0  0  0  0
   58.7351   40.2334   20.8874 N   0  0  0  0  0  0  0  0  0  0  0  0
   59.1207   39.5511   21.9811 N   0  0  0  0  0  0  0  0  0  0  0  0
   58.2889   38.5278   22.3185 C   0  0  0  0  0  0  0  0  0  0  0  0
   59.2554   36.7309   24.9338 H   0  0  0  0  0  0  0  0  0  0  0  0
   60.0877   38.0412   24.2282 H   0  0  0  0  0  0  0  0  0  0  0  0
   59.9326   39.7723   22.4920 H   0  0  0  0  0  0  0  0  0  0  0  0
   56.7528   40.1931   19.3983 C   0  0  0  0  0  0  0  0  0  0  0  0
   55.5980   40.9400   19.8630 O   0  0  0  0  0  0  0  0  0  0  0  0
   54.4416   40.4648   19.1455 C   0  0  0  0  0  0  0  0  0  0  0  0
   54.7515   39.0141   18.8053 C   0  0  0  0  0  0  0  0  0  0  0  0
   53.9909   38.5299   17.7010 O   0  0  0  0  0  0  0  0  0  0  0  0
   56.2329   39.0848   18.4676 C   0  0  0  0  0  0  0  0  0  0  0  0
   56.3978   39.4538   17.0850 O   0  0  0  0  0  0  0  0  0  0  0  0
   54.1515   39.0916   16.9267 H   0  0  0  0  0  0  0  0  0  0  0  0
   55.9408   40.2928   16.9176 H   0  0  0  0  0  0  0  0  0  0  0  0
   53.1863   40.6053   20.0057 C   0  0  0  0  0  0  0  0  0  0  0  0
   52.0362   40.1837   19.2724 O   0  0  0  0  0  0  0  0  0  0  0  0
   51.9368   40.7360   18.4813 H   0  0  0  0  0  0  0  0  0  0  0  0
  1  2  1  0
  2  3  2  0
  3  4  1  0
  4  5  1  0
  4  6  2  0
  6  7  1  0
  7  8  1  0
 15  8  1  0
 15 16  1  0
 16 17  1  0
 17 24  1  0
 24 25  1  0
 17 18  1  0
 18 19  1  0
 18 20  1  0
 20 21  1  0
  8  9  2  0
  9 10  1  0
 10 11  1  0
 11  2  1  0
 11  7  2  0
 20 15  1  0
  1 12  1  0
  1 13  1  0
 25 26  1  0
 19 22  1  0
 21 23  1  0
 10 14  1  0
M  END
> <minimizedAffinity>
-5.89235

> <CNNscore>
0.5097935200

> <CNNaffinity>
6.1616225243

> <CNN_VS>
3.1411552429

> <CNNaffinity_variance>
0.1307261586

$$$$



 26 28  0  0  0  0  0  0  0  0999 V2000
   61.5202   33.5207   33.0405 N   0  0  0  0  0  0  0  0  0  0  0  0
   62.2440   33.2590   31.8914 C   0  0  0  0  0  0  0  0  0  0  0  0
   63.5826   33.2314   31.9739 N   0  0  0  0  0  0  0  0  0  0  0  0
   64.2981   32.9877   30.8556 C   0  0  0  0  0  0  0  0  0  0  0  0
   66.1925   32.9714   31.0465 Br  0  0  0  0  0  0  0  0  0  0  0  0
   63.8257   32.7778   29.6148 N   0  0  0  0  0  0  0  0  0  0  0  0
   62.4787   32.7893   29.5522 C   0  0  0  0  0  0  0  0  0  0  0  0
   61.5797   32.5956   28.4720 C   0  0  0  0  0  0  0  0  0  0  0  0
   60.3015   32.7273   28.8758 N   0  0  0  0  0  0  0  0  0  0  0  0
   60.4011   32.9399   30.2007 N   0  0  0  0  0  0  0  0  0  0  0  0
   61.6816   33.0282   30.6538 C   0  0  0  0  0  0  0  0  0  0  0  0
   61.9884   33.6765   33.8924 H   0  0  0  0  0  0  0  0  0  0  0  0
   60.5367   33.5511   33.0065 H   0  0  0  0  0  0  0  0  0  0  0  0
   59.6172   33.0242   30.7902 H   0  0  0  0  0  0  0  0  0  0  0  0
   61.9089   32.2807   27.0413 C   0  0  0  0  0  0  0  0  0  0  0  0
   60.7356   32.4040   26.1956 O   0  0  0  0  0  0  0  0  0  0  0  0
   60.6474   31.2186   25.3799 C   0  0  0  0  0  0  0  0  0  0  0  0
   61.3015   30.1183   26.2033 C   0  0  0  0  0  0  0  0  0  0  0  0
   61.7582   29.0280   25.4065 O   0  0  0  0  0  0  0  0  0  0  0  0
   62.4646   30.8604   26.8436 C   0  0  0  0  0  0  0  0  0  0  0  0
   63.5892   30.8679   25.9435 O   0  0  0  0  0  0  0  0  0  0  0  0
   62.3812   29.3544   24.7384 H   0  0  0  0  0  0  0  0  0  0  0  0
   63.3230   31.2594   25.0969 H   0  0  0  0  0  0  0  0  0  0  0  0
   59.1884   30.9079   25.0482 C   0  0  0  0  0  0  0  0  0  0  0  0
   58.5222   30.3835   26.1969 O   0  0  0  0  0  0  0  0  0  0  0  0
   58.9601   29.5653   26.4791 H   0  0  0  0  0  0  0  0  0  0  0  0
  1  2  1  0
  2  3  2  0
  3  4  1  0
  4  5  1  0
  4  6  2  0
  6  7  1  0
  7  8  1  0
 15  8  1  0
 15 16  1  0
 16 17  1  0
 17 24  1  0
 24 25  1  0
 17 18  1  0
 18 19  1  0
 18 20  1  0
 20 21  1  0
  8  9  2  0
  9 10  1  0
 10 11  1  0
 11  2  1  0
 11  7  2  0
 20 15  1  0
  1 12  1  0
  1 13  1  0
 25 26  1  0
 19 22  1  0
 21 23  1  0
 10 14  1  0
M  END
> <minimizedAffinity>
-5.66521

> <CNNscore>
0.3782600164

> <CNNaffinity>
4.3508777618

> <CNN_VS>
1.6457630396

> <CNNaffinity_variance>
0.0345210172

$$$$



 26 28  0  0  0  0  0  0  0  0999 V2000
   45.7398   43.8981   28.0232 N   0  0  0  0  0  0  0  0  0  0  0  0
   45.4697   43.8274   26.6686 C   0  0  0  0  0  0  0  0  0  0  0  0
   45.5604   44.9508   25.9413 N   0  0  0  0  0  0  0  0  0  0  0  0
   45.2880   44.8940   24.6205 C   0  0  0  0  0  0  0  0  0  0  0  0
   45.4295   46.5282   23.6535 Br  0  0  0  0  0  0  0  0  0  0  0  0
   44.9048   43.8177   23.9123 N   0  0  0  0  0  0  0  0  0  0  0  0
   44.8373   42.6931   24.6534 C   0  0  0  0  0  0  0  0  0  0  0  0
   44.5029   41.3563   24.3165 C   0  0  0  0  0  0  0  0  0  0  0  0
   44.5403   40.5593   25.4016 N   0  0  0  0  0  0  0  0  0  0  0  0
   44.9512   41.3760   26.3889 N   0  0  0  0  0  0  0  0  0  0  0  0
   45.1046   42.6736   26.0077 C   0  0  0  0  0  0  0  0  0  0  0  0
   45.9956   44.7573   28.4300 H   0  0  0  0  0  0  0  0  0  0  0  0
   45.6761   43.0891   28.5807 H   0  0  0  0  0  0  0  0  0  0  0  0
   45.1254   41.0627   27.3058 H   0  0  0  0  0  0  0  0  0  0  0  0
   44.1447   40.8059   22.9662 C   0  0  0  0  0  0  0  0  0  0  0  0
   43.1806   39.7267   23.0805 O   0  0  0  0  0  0  0  0  0  0  0  0
   43.6538   38.6203   22.2869 C   0  0  0  0  0  0  0  0  0  0  0  0
   45.1704   38.7477   22.2889 C   0  0  0  0  0  0  0  0  0  0  0  0
   45.7834   38.0802   21.1884 O   0  0  0  0  0  0  0  0  0  0  0  0
   45.3548   40.2545   22.1938 C   0  0  0  0  0  0  0  0  0  0  0  0
   45.3134   40.6616   20.8127 O   0  0  0  0  0  0  0  0  0  0  0  0
   45.4244   38.4294   20.3577 H   0  0  0  0  0  0  0  0  0  0  0  0
   44.4803   40.3660   20.4133 H   0  0  0  0  0  0  0  0  0  0  0  0
   43.1804   37.2957   22.8840 C   0  0  0  0  0  0  0  0  0  0  0  0
   44.2972   36.4462   23.1475 O   0  0  0  0  0  0  0  0  0  0  0  0
   44.7684   36.2654   22.3192 H   0  0  0  0  0  0  0  0  0  0  0  0
  1  2  1  0
  2  3  2  0
  3  4  1  0
  4  5  1  0
  4  6  2  0
  6  7  1  0
  7  8  1  0
 15  8  1  0
 15 16  1  0
 16 17  1  0
 17 24  1  0
 24 25  1  0
 17 18  1  0
 18 19  1  0
 18 20  1  0
 20 21  1  0
  8  9  2  0
  9 10  1  0
 10 11  1  0
 11  2  1  0
 11  7  2  0
 20 15  1  0
  1 12  1  0
  1 13  1  0
 25 26  1  0
 19 22  1  0
 21 23  1  0
 10 14  1  0
M  END
> <minimizedAffinity>
-7.00320

> <CNNscore>
0.3332311511

> <CNNaffinity>
4.4708080292

> <CNN_VS>
1.4898124933

> <CNNaffinity_variance>
0.3434787989

$$$$



 26 28  0  0  0  0  0  0  0  0999 V2000
   56.3113   29.2733   21.0106 N   0  0  0  0  0  0  0  0  0  0  0  0
   56.6526   30.1797   21.9980 C   0  0  0  0  0  0  0  0  0  0  0  0
   56.1904   31.4350   21.8981 N   0  0  0  0  0  0  0  0  0  0  0  0
   56.5272   32.3296   22.8511 C   0  0  0  0  0  0  0  0  0  0  0  0
   55.8415   34.0933   22.6400 Br  0  0  0  0  0  0  0  0  0  0  0  0
   57.3125   32.1233   23.9224 N   0  0  0  0  0  0  0  0  0  0  0  0
   57.7530   30.8524   24.0189 C   0  0  0  0  0  0  0  0  0  0  0  0
   58.5708   30.2046   24.9802 C   0  0  0  0  0  0  0  0  0  0  0  0
   58.7771   28.9151   24.6507 N   0  0  0  0  0  0  0  0  0  0  0  0
   58.0483   28.7463   23.5323 N   0  0  0  0  0  0  0  0  0  0  0  0
   57.4472   29.8827   23.0850 C   0  0  0  0  0  0  0  0  0  0  0  0
   55.7385   29.5546   20.2609 H   0  0  0  0  0  0  0  0  0  0  0  0
   56.6410   28.3469   21.0575 H   0  0  0  0  0  0  0  0  0  0  0  0
   57.9578   27.8778   23.0776 H   0  0  0  0  0  0  0  0  0  0  0  0
   59.1701   30.7884   26.2270 C   0  0  0  0  0  0  0  0  0  0  0  0
   60.2906   31.6557   25.9119 O   0  0  0  0  0  0  0  0  0  0  0  0
   61.3924   31.2888   26.7661 C   0  0  0  0  0  0  0  0  0  0  0  0
   61.1932   29.8090   27.0605 C   0  0  0  0  0  0  0  0  0  0  0  0
   61.8574   29.3869   28.2493 O   0  0  0  0  0  0  0  0  0  0  0  0
   59.6821   29.7238   27.2116 C   0  0  0  0  0  0  0  0  0  0  0  0
   59.3110   30.0521   28.5642 O   0  0  0  0  0  0  0  0  0  0  0  0
   61.5458   29.9170   28.9994 H   0  0  0  0  0  0  0  0  0  0  0  0
   59.6553   30.9304   28.7898 H   0  0  0  0  0  0  0  0  0  0  0  0
   62.7230   31.5695   26.0691 C   0  0  0  0  0  0  0  0  0  0  0  0
   62.6316   31.2438   24.6821 O   0  0  0  0  0  0  0  0  0  0  0  0
   62.4197   30.3023   24.5843 H   0  0  0  0  0  0  0  0  0  0  0  0
  1  2  1  0
  2  3  2  0
  3  4  1  0
  4  5  1  0
  4  6  2  0
  6  7  1  0
  7  8  1  0
 15  8  1  0
 15 16  1  0
 16 17  1  0
 17 24  1  0
 24 25  1  0
 17 18  1  0
 18 19  1  0
 18 20  1  0
 20 21  1  0
  8  9  2  0
  9 10  1  0
 10 11  1  0
 11  2  1  0
 11  7  2  0
 20 15  1  0
  1 12  1  0
  1 13  1  0
 25 26  1  0
 19 22  1  0
 21 23  1  0
 10 14  1  0
M  END
> <minimizedAffinity>
-5.33776

> <CNNscore>
0.3104583919

> <CNNaffinity>
3.8630087376

> <CNN_VS>
1.1993035078

> <CNNaffinity_variance>
0.3662464321

$$$$



 26 28  0  0  0  0  0  0  0  0999 V2000
   63.8207   35.3451   18.3588 N   0  0  0  0  0  0  0  0  0  0  0  0
   63.5684   36.2107   19.4076 C   0  0  0  0  0  0  0  0  0  0  0  0
   64.6127   36.7518   20.0525 N   0  0  0  0  0  0  0  0  0  0  0  0
   64.3766   37.5893   21.0845 C   0  0  0  0  0  0  0  0  0  0  0  0
   65.9061   38.3131   21.9574 Br  0  0  0  0  0  0  0  0  0  0  0  0
   63.1823   37.9533   21.5826 N   0  0  0  0  0  0  0  0  0  0  0  0
   62.1430   37.4165   20.9115 C   0  0  0  0  0  0  0  0  0  0  0  0
   60.7402   37.5453   21.0792 C   0  0  0  0  0  0  0  0  0  0  0  0
   60.0741   36.7920   20.1831 N   0  0  0  0  0  0  0  0  0  0  0  0
   61.0476   36.2493   19.4292 N   0  0  0  0  0  0  0  0  0  0  0  0
   62.3070   36.5553   19.8451 C   0  0  0  0  0  0  0  0  0  0  0  0
   64.7487   35.1434   18.0994 H   0  0  0  0  0  0  0  0  0  0  0  0
   63.0723   34.9307   17.8716 H   0  0  0  0  0  0  0  0  0  0  0  0
   60.8651   35.6812   18.6462 H   0  0  0  0  0  0  0  0  0  0  0  0
   60.0029   38.3819   22.0846 C   0  0  0  0  0  0  0  0  0  0  0  0
   59.2843   37.5488   23.0315 O   0  0  0  0  0  0  0  0  0  0  0  0
   57.9355   38.0477   23.1302 C   0  0  0  0  0  0  0  0  0  0  0  0
   57.6444   38.6809   21.7771 C   0  0  0  0  0  0  0  0  0  0  0  0
   56.5943   39.6436   21.8310 O   0  0  0  0  0  0  0  0  0  0  0  0
   58.9776   39.3348   21.4478 C   0  0  0  0  0  0  0  0  0  0  0  0
   59.0405   40.6396   22.0550 O   0  0  0  0  0  0  0  0  0  0  0  0
   56.8199   40.3325   22.4755 H   0  0  0  0  0  0  0  0  0  0  0  0
   58.8953   40.5588   23.0107 H   0  0  0  0  0  0  0  0  0  0  0  0
   56.9698   36.9103   23.4603 C   0  0  0  0  0  0  0  0  0  0  0  0
   56.1411   36.6243   22.3335 O   0  0  0  0  0  0  0  0  0  0  0  0
   55.6273   37.4136   22.1013 H   0  0  0  0  0  0  0  0  0  0  0  0
  1  2  1  0
  2  3  2  0
  3  4  1  0
  4  5  1  0
  4  6  2  0
  6  7  1  0
  7  8  1  0
 15  8  1  0
 15 16  1  0
 16 17  1  0
 17 24  1  0
 24 25  1  0
 17 18  1  0
 18 19  1  0
 18 20  1  0
 20 21  1  0
  8  9  2  0
  9 10  1  0
 10 11  1  0
 11  2  1  0
 11  7  2  0
 20 15  1  0
  1 12  1  0
  1 13  1  0
 25 26  1  0
 19 22  1  0
 21 23  1  0
 10 14  1  0
M  END
> <minimizedAffinity>
-6.20517

> <CNNscore>
0.2793481052

> <CNNaffinity>
5.3342342377

> <CNN_VS>
1.4901082516

> <CNNaffinity_variance>
0.0454927646

$$$$



 26 28  0  0  0  0  0  0  0  0999 V2000
   65.6928   38.7272   21.4933 N   0  0  0  0  0  0  0  0  0  0  0  0
   64.5675   38.0057   21.1384 C   0  0  0  0  0  0  0  0  0  0  0  0
   64.7201   36.9396   20.3388 N   0  0  0  0  0  0  0  0  0  0  0  0
   63.6264   36.2356   19.9780 C   0  0  0  0  0  0  0  0  0  0  0  0
   63.9179   34.7404   18.8357 Br  0  0  0  0  0  0  0  0  0  0  0  0
   62.3490   36.4838   20.3149 N   0  0  0  0  0  0  0  0  0  0  0  0
   62.2145   37.5464   21.1343 C   0  0  0  0  0  0  0  0  0  0  0  0
   61.0751   38.1377   21.7382 C   0  0  0  0  0  0  0  0  0  0  0  0
   61.4183   39.2179   22.4660 N   0  0  0  0  0  0  0  0  0  0  0  0
   62.7593   39.2627   22.3660 N   0  0  0  0  0  0  0  0  0  0  0  0
   63.2868   38.3114   21.5477 C   0  0  0  0  0  0  0  0  0  0  0  0
   66.5786   38.4514   21.1638 H   0  0  0  0  0  0  0  0  0  0  0  0
   65.6081   39.5167   22.0755 H   0  0  0  0  0  0  0  0  0  0  0  0
   63.3103   39.9249   22.8426 H   0  0  0  0  0  0  0  0  0  0  0  0
   59.6439   37.6942   21.6422 C   0  0  0  0  0  0  0  0  0  0  0  0
   58.9576   38.3737   20.5586 O   0  0  0  0  0  0  0  0  0  0  0  0
   57.7098   38.8824   21.0707 C   0  0  0  0  0  0  0  0  0  0  0  0
   57.9611   39.1406   22.5494 C   0  0  0  0  0  0  0  0  0  0  0  0
   56.7614   39.1618   23.3193 O   0  0  0  0  0  0  0  0  0  0  0  0
   58.8386   37.9566   22.9258 C   0  0  0  0  0  0  0  0  0  0  0  0
   58.0105   36.8248   23.2548 O   0  0  0  0  0  0  0  0  0  0  0  0
   56.2901   38.3214   23.2068 H   0  0  0  0  0  0  0  0  0  0  0  0
   57.4231   36.6262   22.5088 H   0  0  0  0  0  0  0  0  0  0  0  0
   57.3030   40.1496   20.3197 C   0  0  0  0  0  0  0  0  0  0  0  0
   56.7709   39.8141   19.0381 O   0  0  0  0  0  0  0  0  0  0  0  0
   57.4449   39.3464   18.5205 H   0  0  0  0  0  0  0  0  0  0  0  0
  1  2  1  0
  2  3  2  0
  3  4  1  0
  4  5  1  0
  4  6  2  0
  6  7  1  0
  7  8  1  0
 15  8  1  0
 15 16  1  0
 16 17  1  0
 17 24  1  0
 24 25  1  0
 17 18  1  0
 18 19  1  0
 18 20  1  0
 20 21  1  0
  8  9  2  0
  9 10  1  0
 10 11  1  0
 11  2  1  0
 11  7  2  0
 20 15  1  0
  1 12  1  0
  1 13  1  0
 25 26  1  0
 19 22  1  0
 21 23  1  0
 10 14  1  0
M  END
> <minimizedAffinity>
-6.60876

> <CNNscore>
0.2381254733

> <CNNaffinity>
5.2415871620

> <CNN_VS>
1.2481554747

> <CNNaffinity_variance>
0.0822939053

$$$$



 26 28  0  0  0  0  0  0  0  0999 V2000
   58.6976   28.8089   21.8808 N   0  0  0  0  0  0  0  0  0  0  0  0
   58.3455   29.5443   22.9980 C   0  0  0  0  0  0  0  0  0  0  0  0
   57.3081   30.3893   22.9038 N   0  0  0  0  0  0  0  0  0  0  0  0
   56.9638   31.1194   23.9856 C   0  0  0  0  0  0  0  0  0  0  0  0
   55.4869   32.3029   23.7761 Br  0  0  0  0  0  0  0  0  0  0  0  0
   57.5604   31.1237   25.1901 N   0  0  0  0  0  0  0  0  0  0  0  0
   58.5886   30.2553   25.2746 C   0  0  0  0  0  0  0  0  0  0  0  0
   59.4645   29.9265   26.3410 C   0  0  0  0  0  0  0  0  0  0  0  0
   60.3741   29.0107   25.9560 N   0  0  0  0  0  0  0  0  0  0  0  0
   60.0314   28.7284   24.6858 N   0  0  0  0  0  0  0  0  0  0  0  0
   58.9957   29.4738   24.2119 C   0  0  0  0  0  0  0  0  0  0  0  0
   58.1878   28.9095   21.0446 H   0  0  0  0  0  0  0  0  0  0  0  0
   59.4579   28.1849   21.9218 H   0  0  0  0  0  0  0  0  0  0  0  0
   60.4893   28.0435   24.1469 H   0  0  0  0  0  0  0  0  0  0  0  0
   59.4585   30.4673   27.7416 C   0  0  0  0  0  0  0  0  0  0  0  0
   59.7595   31.8872   27.7551 O   0  0  0  0  0  0  0  0  0  0  0  0
   60.7775   32.1178   28.7493 C   0  0  0  0  0  0  0  0  0  0  0  0
   61.5734   30.8221   28.8131 C   0  0  0  0  0  0  0  0  0  0  0  0
   62.2759   30.6641   30.0436 O   0  0  0  0  0  0  0  0  0  0  0  0
   60.4777   29.7778   28.6641 C   0  0  0  0  0  0  0  0  0  0  0  0
   59.8983   29.4960   29.9524 O   0  0  0  0  0  0  0  0  0  0  0  0
   61.6477   30.7018   30.7817 H   0  0  0  0  0  0  0  0  0  0  0  0
   59.5717   30.3196   30.3472 H   0  0  0  0  0  0  0  0  0  0  0  0
   61.6437   33.3141   28.3570 C   0  0  0  0  0  0  0  0  0  0  0  0
   61.6784   33.4533   26.9366 O   0  0  0  0  0  0  0  0  0  0  0  0
   62.0554   32.6513   26.5422 H   0  0  0  0  0  0  0  0  0  0  0  0
  1  2  1  0
  2  3  2  0
  3  4  1  0
  4  5  1  0
  4  6  2  0
  6  7  1  0
  7  8  1  0
 15  8  1  0
 15 16  1  0
 16 17  1  0
 17 24  1  0
 24 25  1  0
 17 18  1  0
 18 19  1  0
 18 20  1  0
 20 21  1  0
  8  9  2  0
  9 10  1  0
 10 11  1  0
 11  2  1  0
 11  7  2  0
 20 15  1  0
  1 12  1  0
  1 13  1  0
 25 26  1  0
 19 22  1  0
 21 23  1  0
 10 14  1  0
M  END
> <minimizedAffinity>
-5.21786

> <CNNscore>
0.1970288157

> <CNNaffinity>
3.6443264484

> <CNN_VS>
0.7180373073

> <CNNaffinity_variance>
0.7252804637

$$$$



 26 28  0  0  0  0  0  0  0  0999 V2000
   56.5584   29.7065   19.9420 N   0  0  0  0  0  0  0  0  0  0  0  0
   56.9916   29.9959   21.2232 C   0  0  0  0  0  0  0  0  0  0  0  0
   56.2594   30.8369   21.9687 N   0  0  0  0  0  0  0  0  0  0  0  0
   56.6799   31.1340   23.2164 C   0  0  0  0  0  0  0  0  0  0  0  0
   55.5950   32.3402   24.2132 Br  0  0  0  0  0  0  0  0  0  0  0  0
   57.7921   30.6927   23.8289 N   0  0  0  0  0  0  0  0  0  0  0  0
   58.5067   29.8335   23.0741 C   0  0  0  0  0  0  0  0  0  0  0  0
   59.7101   29.1264   23.3273 C   0  0  0  0  0  0  0  0  0  0  0  0
   60.0763   28.3945   22.2576 N   0  0  0  0  0  0  0  0  0  0  0  0
   59.0829   28.5956   21.3726 N   0  0  0  0  0  0  0  0  0  0  0  0
   58.1373   29.4805   21.7916 C   0  0  0  0  0  0  0  0  0  0  0  0
   55.7288   30.1112   19.5997 H   0  0  0  0  0  0  0  0  0  0  0  0
   57.0797   29.0959   19.3722 H   0  0  0  0  0  0  0  0  0  0  0  0
   59.0435   28.1428   20.4993 H   0  0  0  0  0  0  0  0  0  0  0  0
   60.5346   29.1258   24.5821 C   0  0  0  0  0  0  0  0  0  0  0  0
   59.9741   30.0225   25.5765 O   0  0  0  0  0  0  0  0  0  0  0  0
   61.0402   30.8516   26.0806 C   0  0  0  0  0  0  0  0  0  0  0  0
   62.0363   30.9608   24.9351 C   0  0  0  0  0  0  0  0  0  0  0  0
   63.3498   31.2991   25.3741 O   0  0  0  0  0  0  0  0  0  0  0  0
   61.9928   29.5568   24.3518 C   0  0  0  0  0  0  0  0  0  0  0  0
   62.9022   28.7039   25.0732 O   0  0  0  0  0  0  0  0  0  0  0  0
   63.6562   30.6391   26.0156 H   0  0  0  0  0  0  0  0  0  0  0  0
   62.6790   28.7183   26.0171 H   0  0  0  0  0  0  0  0  0  0  0  0
   60.4973   32.2135   26.5115 C   0  0  0  0  0  0  0  0  0  0  0  0
   61.5427   33.1859   26.5045 O   0  0  0  0  0  0  0  0  0  0  0  0
   62.2391   32.9164   27.1236 H   0  0  0  0  0  0  0  0  0  0  0  0
  1  2  1  0
  2  3  2  0
  3  4  1  0
  4  5  1  0
  4  6  2  0
  6  7  1  0
  7  8  1  0
 15  8  1  0
 15 16  1  0
 16 17  1  0
 17 24  1  0
 24 25  1  0
 17 18  1  0
 18 19  1  0
 18 20  1  0
 20 21  1  0
  8  9  2  0
  9 10  1  0
 10 11  1  0
 11  2  1  0
 11  7  2  0
 20 15  1  0
  1 12  1  0
  1 13  1  0
 25 26  1  0
 19 22  1  0
 21 23  1  0
 10 14  1  0
M  END
> <minimizedAffinity>
-5.61739

> <CNNscore>
0.1487858891

> <CNNaffinity>
4.2420310974

> <CNN_VS>
0.6311543584

> <CNNaffinity_variance>
0.0690248609

$$$$
