


 36 37  0  0  0  0  0  0  0  0999 V2000
   25.3038   27.9102    8.9778 C   0  0  0  0  0  0  0  0  0  0  0  0
   24.9375   27.1444    7.8131 O   0  0  0  0  0  0  0  0  0  0  0  0
   25.1239   29.3726    8.6311 C   0  0  0  0  0  0  0  0  0  0  0  0
   26.0054   30.3603    8.8976 C   0  0  0  0  0  0  0  0  0  0  0  0
   27.2616   30.0347    9.6493 C   0  0  0  0  0  0  0  0  0  0  0  0
   28.1459   30.8633    9.8251 O   0  0  0  0  0  0  0  0  0  0  0  0
   27.3648   28.6303   10.2443 C   0  0  0  0  0  0  0  0  0  0  0  0
   28.6819   28.2091   10.5295 O   0  0  0  0  0  0  0  0  0  0  0  0
   26.7797   27.6331    9.2574 C   0  0  0  0  0  0  0  0  0  0  0  0
   24.0022   27.2976    7.6065 H   0  0  0  0  0  0  0  0  0  0  0  0
   29.1921   28.1632    9.7058 H   0  0  0  0  0  0  0  0  0  0  0  0
   24.2997   27.5347   10.1264 C   0  0  0  0  0  0  0  0  0  0  0  0
   23.0604   28.5483   10.4613 N   0  0  0  0  0  0  0  0  0  0  0  0
   22.1060   27.8247   11.4107 C   0  0  0  0  0  0  0  0  0  0  0  0
   23.7711   29.6528   11.2796 C   0  0  0  0  0  0  0  0  0  0  0  0
   22.4692   29.0316    9.1412 C   0  0  0  0  0  0  0  0  0  0  0  0
   21.5251   28.1785    8.2326 N   0  0  0  0  0  0  0  0  0  0  0  0
   22.1574   28.0063    6.8516 C   0  0  0  0  0  0  0  0  0  0  0  0
   21.2157   26.8325    8.8235 C   0  0  0  0  0  0  0  0  0  0  0  0
   20.2565   29.0798    8.1044 C   0  0  0  0  0  0  0  0  0  0  0  0
   19.4637   29.6657   10.3649 C   0  0  0  0  0  0  0  0  0  0  0  0
   19.9843   30.2737    9.0065 N   0  0  0  0  0  0  0  0  0  0  0  0
   18.8294   31.1753    8.5325 C   0  0  0  0  0  0  0  0  0  0  0  0
   21.1737   31.1417    9.4034 C   0  0  0  0  0  0  0  0  0  0  0  0
   25.8107   31.7866    8.4393 C   0  0  0  0  0  0  0  0  0  0  0  0
   24.5765   32.4644    9.0461 C   0  0  0  0  0  0  0  0  0  0  0  0
   24.8573   33.9167    9.4006 C   0  0  0  0  0  0  0  0  0  0  0  0
   24.4322   34.3975   10.4457 O   0  0  0  0  0  0  0  0  0  0  0  0
   25.6738   34.5325    8.4714 N   0  0  0  0  0  0  0  0  0  0  0  0
   25.9563   33.9816    7.7059 H   0  0  0  0  0  0  0  0  0  0  0  0
   26.1491   35.8618    8.4948 C   0  0  0  0  0  0  0  0  0  0  0  0
   25.6165   36.8981    7.7253 C   0  0  0  0  0  0  0  0  0  0  0  0
   26.1522   38.1881    7.8084 C   0  0  0  0  0  0  0  0  0  0  0  0
   27.2221   38.4533    8.6599 C   0  0  0  0  0  0  0  0  0  0  0  0
   27.7613   37.4269    9.4305 C   0  0  0  0  0  0  0  0  0  0  0  0
   27.2291   36.1375    9.3460 C   0  0  0  0  0  0  0  0  0  0  0  0
 21 22  1  0
 22 23  1  0
 22 24  1  0
 22 20  1  0
 20 17  1  0
 17 18  1  0
 17 19  1  0
 17 16  1  0
 16 13  1  0
 13 14  1  0
 13 15  1  0
 13 12  1  0
 12  1  1  0
  1  2  1  0
  1  3  1  0
  3  4  2  0
  4 25  1  0
 25 26  1  0
 26 27  1  0
 27 28  2  0
 27 29  1  0
 29 31  1  0
 31 32  2  0
 32 33  1  0
 33 34  2  0
 34 35  1  0
 35 36  2  0
  4  5  1  0
  5  6  2  0
  5  7  1  0
  7  8  1  0
  7  9  1  0
  9  1  1  0
 36 31  1  0
  2 10  1  0
 29 30  1  0
  8 11  1  0
M  CHG 1  13   1
M  CHG 1  17   1
M  CHG 1  22   1
M  END
> <minimizedAffinity>
-4.72036

> <CNNscore>
0.3934909105

> <CNNaffinity>
4.8298821449

> <CNN_VS>
1.9005147219

> <CNNaffinity_variance>
0.1127477512

$$$$



 36 37  0  0  0  0  0  0  0  0999 V2000
   25.2752   28.0783    8.9408 C   0  0  0  0  0  0  0  0  0  0  0  0
   24.8665   27.3976    7.7380 O   0  0  0  0  0  0  0  0  0  0  0  0
   25.1725   29.5650    8.6748 C   0  0  0  0  0  0  0  0  0  0  0  0
   26.1057   30.4887    8.9903 C   0  0  0  0  0  0  0  0  0  0  0  0
   27.3442   30.0566    9.7173 C   0  0  0  0  0  0  0  0  0  0  0  0
   28.2716   30.8264    9.9335 O   0  0  0  0  0  0  0  0  0  0  0  0
   27.3739   28.6184   10.2346 C   0  0  0  0  0  0  0  0  0  0  0  0
   28.6673   28.1133   10.4902 O   0  0  0  0  0  0  0  0  0  0  0  0
   26.7348   27.7087    9.1978 C   0  0  0  0  0  0  0  0  0  0  0  0
   23.9402   27.6111    7.5445 H   0  0  0  0  0  0  0  0  0  0  0  0
   29.1728   28.0853    9.6628 H   0  0  0  0  0  0  0  0  0  0  0  0
   24.2547   27.6945   10.0721 C   0  0  0  0  0  0  0  0  0  0  0  0
   22.6721   28.0553    9.8706 N   0  0  0  0  0  0  0  0  0  0  0  0
   21.9152   27.5464   11.0970 C   0  0  0  0  0  0  0  0  0  0  0  0
   22.6901   29.6006    9.9515 C   0  0  0  0  0  0  0  0  0  0  0  0
   22.2257   27.5056    8.5201 C   0  0  0  0  0  0  0  0  0  0  0  0
   21.4518   26.1608    8.3270 N   0  0  0  0  0  0  0  0  0  0  0  0
   22.4301   25.0568    7.9263 C   0  0  0  0  0  0  0  0  0  0  0  0
   20.6935   25.7490    9.5567 C   0  0  0  0  0  0  0  0  0  0  0  0
   20.5097   26.4705    7.1209 C   0  0  0  0  0  0  0  0  0  0  0  0
   22.5622   26.4407    5.7541 C   0  0  0  0  0  0  0  0  0  0  0  0
   21.0163   26.7482    5.7139 N   0  0  0  0  0  0  0  0  0  0  0  0
   20.9395   28.2277    5.2937 C   0  0  0  0  0  0  0  0  0  0  0  0
   20.4784   25.8734    4.5867 C   0  0  0  0  0  0  0  0  0  0  0  0
   25.9861   31.9461    8.6111 C   0  0  0  0  0  0  0  0  0  0  0  0
   24.6124   32.5519    8.9229 C   0  0  0  0  0  0  0  0  0  0  0  0
   24.6945   34.0620    9.0860 C   0  0  0  0  0  0  0  0  0  0  0  0
   23.8430   34.6677    9.7278 O   0  0  0  0  0  0  0  0  0  0  0  0
   25.8364   34.5877    8.5124 N   0  0  0  0  0  0  0  0  0  0  0  0
   26.4357   33.9463    8.0667 H   0  0  0  0  0  0  0  0  0  0  0  0
   26.2416   35.9402    8.4927 C   0  0  0  0  0  0  0  0  0  0  0  0
   25.7069   36.9061    7.6378 C   0  0  0  0  0  0  0  0  0  0  0  0
   26.1704   38.2255    7.6834 C   0  0  0  0  0  0  0  0  0  0  0  0
   27.1698   38.5906    8.5824 C   0  0  0  0  0  0  0  0  0  0  0  0
   27.7104   37.6350    9.4383 C   0  0  0  0  0  0  0  0  0  0  0  0
   27.2504   36.3163    9.3914 C   0  0  0  0  0  0  0  0  0  0  0  0
 21 22  1  0
 22 23  1  0
 22 24  1  0
 22 20  1  0
 20 17  1  0
 17 18  1  0
 17 19  1  0
 17 16  1  0
 16 13  1  0
 13 14  1  0
 13 15  1  0
 13 12  1  0
 12  1  1  0
  1  2  1  0
  1  3  1  0
  3  4  2  0
  4 25  1  0
 25 26  1  0
 26 27  1  0
 27 28  2  0
 27 29  1  0
 29 31  1  0
 31 32  2  0
 32 33  1  0
 33 34  2  0
 34 35  1  0
 35 36  2  0
  4  5  1  0
  5  6  2  0
  5  7  1  0
  7  8  1  0
  7  9  1  0
  9  1  1  0
 36 31  1  0
  2 10  1  0
 29 30  1  0
  8 11  1  0
M  CHG 1  13   1
M  CHG 1  17   1
M  CHG 1  22   1
M  END
> <minimizedAffinity>
-5.45087

> <CNNscore>
0.2421126515

> <CNNaffinity>
4.4755883217

> <CNN_VS>
1.0835965872

> <CNNaffinity_variance>
0.3076070547

$$$$



 36 37  0  0  0  0  0  0  0  0999 V2000
   20.7106   26.2924    4.3991 C   0  0  0  0  0  0  0  0  0  0  0  0
   21.1376   25.9520    3.0652 O   0  0  0  0  0  0  0  0  0  0  0  0
   21.9128   26.8534    5.1281 C   0  0  0  0  0  0  0  0  0  0  0  0
   22.3013   26.5232    6.3786 C   0  0  0  0  0  0  0  0  0  0  0  0
   21.4682   25.5611    7.1720 C   0  0  0  0  0  0  0  0  0  0  0  0
   21.8257   25.1417    8.2655 O   0  0  0  0  0  0  0  0  0  0  0  0
   20.1140   25.1706    6.5799 C   0  0  0  0  0  0  0  0  0  0  0  0
   19.5782   23.9658    7.0848 O   0  0  0  0  0  0  0  0  0  0  0  0
   20.2648   24.9983    5.0771 C   0  0  0  0  0  0  0  0  0  0  0  0
   21.4286   26.7544    2.6043 H   0  0  0  0  0  0  0  0  0  0  0  0
   20.1663   23.2293    6.8555 H   0  0  0  0  0  0  0  0  0  0  0  0
   19.6225   27.4189    4.2750 C   0  0  0  0  0  0  0  0  0  0  0  0
   18.1622   27.0467    3.6392 N   0  0  0  0  0  0  0  0  0  0  0  0
   18.3304   25.7944    2.7793 C   0  0  0  0  0  0  0  0  0  0  0  0
   17.3672   26.6331    4.9008 C   0  0  0  0  0  0  0  0  0  0  0  0
   17.6180   28.2857    2.9362 C   0  0  0  0  0  0  0  0  0  0  0  0
   17.8350   28.6076    1.4216 N   0  0  0  0  0  0  0  0  0  0  0  0
   16.7145   27.9763    0.5955 C   0  0  0  0  0  0  0  0  0  0  0  0
   17.9012   30.0833    1.1483 C   0  0  0  0  0  0  0  0  0  0  0  0
   19.1786   27.8803    1.0995 C   0  0  0  0  0  0  0  0  0  0  0  0
   21.1869   27.3900   -0.2453 C   0  0  0  0  0  0  0  0  0  0  0  0
   19.6169   27.5198   -0.3117 N   0  0  0  0  0  0  0  0  0  0  0  0
   19.3763   28.6291   -1.3523 C   0  0  0  0  0  0  0  0  0  0  0  0
   19.1433   26.1848   -0.8764 C   0  0  0  0  0  0  0  0  0  0  0  0
   23.5672   27.0471    7.0153 C   0  0  0  0  0  0  0  0  0  0  0  0
   23.3595   28.3261    7.8350 C   0  0  0  0  0  0  0  0  0  0  0  0
   24.6315   28.7327    8.5633 C   0  0  0  0  0  0  0  0  0  0  0  0
   25.1865   27.9547    9.3319 O   0  0  0  0  0  0  0  0  0  0  0  0
   25.0714   29.9868    8.1851 N   0  0  0  0  0  0  0  0  0  0  0  0
   24.5197   30.4610    7.5218 H   0  0  0  0  0  0  0  0  0  0  0  0
   26.2221   30.6657    8.6418 C   0  0  0  0  0  0  0  0  0  0  0  0
   26.1983   31.7214    9.5554 C   0  0  0  0  0  0  0  0  0  0  0  0
   27.3888   32.3407    9.9518 C   0  0  0  0  0  0  0  0  0  0  0  0
   28.6109   31.9109    9.4402 C   0  0  0  0  0  0  0  0  0  0  0  0
   28.6456   30.8600    8.5278 C   0  0  0  0  0  0  0  0  0  0  0  0
   27.4570   30.2428    8.1289 C   0  0  0  0  0  0  0  0  0  0  0  0
 21 22  1  0
 22 23  1  0
 22 24  1  0
 22 20  1  0
 20 17  1  0
 17 18  1  0
 17 19  1  0
 17 16  1  0
 16 13  1  0
 13 14  1  0
 13 15  1  0
 13 12  1  0
 12  1  1  0
  1  2  1  0
  1  3  1  0
  3  4  2  0
  4 25  1  0
 25 26  1  0
 26 27  1  0
 27 28  2  0
 27 29  1  0
 29 31  1  0
 31 32  2  0
 32 33  1  0
 33 34  2  0
 34 35  1  0
 35 36  2  0
  4  5  1  0
  5  6  2  0
  5  7  1  0
  7  8  1  0
  7  9  1  0
  9  1  1  0
 36 31  1  0
  2 10  1  0
 29 30  1  0
  8 11  1  0
M  CHG 1  13   1
M  CHG 1  17   1
M  CHG 1  22   1
M  END
> <minimizedAffinity>
-5.71150

> <CNNscore>
0.2326518148

> <CNNaffinity>
4.5889887810

> <CNN_VS>
1.0676366091

> <CNNaffinity_variance>
0.3769103587

$$$$



 36 37  0  0  0  0  0  0  0  0999 V2000
   22.8784   26.8443    7.0017 C   0  0  0  0  0  0  0  0  0  0  0  0
   23.7523   26.7880    5.8570 O   0  0  0  0  0  0  0  0  0  0  0  0
   23.7440   27.0933    8.2183 C   0  0  0  0  0  0  0  0  0  0  0  0
   23.6549   26.4394    9.3965 C   0  0  0  0  0  0  0  0  0  0  0  0
   22.5838   25.4056    9.5787 C   0  0  0  0  0  0  0  0  0  0  0  0
   22.5213   24.7057   10.5815 O   0  0  0  0  0  0  0  0  0  0  0  0
   21.5287   25.3041    8.4771 C   0  0  0  0  0  0  0  0  0  0  0  0
   20.8364   24.0742    8.4390 O   0  0  0  0  0  0  0  0  0  0  0  0
   22.2071   25.4780    7.1278 C   0  0  0  0  0  0  0  0  0  0  0  0
   24.1967   27.6432    5.7472 H   0  0  0  0  0  0  0  0  0  0  0  0
   21.4608   23.3576    8.2454 H   0  0  0  0  0  0  0  0  0  0  0  0
   21.9176   28.0716    6.8040 C   0  0  0  0  0  0  0  0  0  0  0  0
   20.5990   27.9032    5.8510 N   0  0  0  0  0  0  0  0  0  0  0  0
   19.4498   27.4010    6.7246 C   0  0  0  0  0  0  0  0  0  0  0  0
   20.2873   29.3740    5.4844 C   0  0  0  0  0  0  0  0  0  0  0  0
   20.9793   27.0297    4.6603 C   0  0  0  0  0  0  0  0  0  0  0  0
   19.9563   26.4448    3.6326 N   0  0  0  0  0  0  0  0  0  0  0  0
   19.6657   24.9827    3.9709 C   0  0  0  0  0  0  0  0  0  0  0  0
   18.6723   27.2233    3.5888 C   0  0  0  0  0  0  0  0  0  0  0  0
   20.7403   26.5106    2.2839 C   0  0  0  0  0  0  0  0  0  0  0  0
   19.9853   25.0030    0.4842 C   0  0  0  0  0  0  0  0  0  0  0  0
   20.0628   26.5157    0.9222 N   0  0  0  0  0  0  0  0  0  0  0  0
   20.8866   27.1868   -0.1925 C   0  0  0  0  0  0  0  0  0  0  0  0
   18.6221   27.0108    0.8547 C   0  0  0  0  0  0  0  0  0  0  0  0
   24.6128   26.6678   10.5421 C   0  0  0  0  0  0  0  0  0  0  0  0
   26.0484   26.9655   10.0932 C   0  0  0  0  0  0  0  0  0  0  0  0
   26.4681   28.3777   10.4719 C   0  0  0  0  0  0  0  0  0  0  0  0
   25.7158   29.1007   11.1164 O   0  0  0  0  0  0  0  0  0  0  0  0
   27.7618   28.6612   10.0778 N   0  0  0  0  0  0  0  0  0  0  0  0
   28.2392   27.9449    9.6001 H   0  0  0  0  0  0  0  0  0  0  0  0
   28.4769   29.8615   10.2820 C   0  0  0  0  0  0  0  0  0  0  0  0
   28.9651   30.2816   11.5209 C   0  0  0  0  0  0  0  0  0  0  0  0
   29.6621   31.4896   11.6337 C   0  0  0  0  0  0  0  0  0  0  0  0
   29.8774   32.2863   10.5116 C   0  0  0  0  0  0  0  0  0  0  0  0
   29.3937   31.8772    9.2719 C   0  0  0  0  0  0  0  0  0  0  0  0
   28.6948   30.6724    9.1587 C   0  0  0  0  0  0  0  0  0  0  0  0
 21 22  1  0
 22 23  1  0
 22 24  1  0
 22 20  1  0
 20 17  1  0
 17 18  1  0
 17 19  1  0
 17 16  1  0
 16 13  1  0
 13 14  1  0
 13 15  1  0
 13 12  1  0
 12  1  1  0
  1  2  1  0
  1  3  1  0
  3  4  2  0
  4 25  1  0
 25 26  1  0
 26 27  1  0
 27 28  2  0
 27 29  1  0
 29 31  1  0
 31 32  2  0
 32 33  1  0
 33 34  2  0
 34 35  1  0
 35 36  2  0
  4  5  1  0
  5  6  2  0
  5  7  1  0
  7  8  1  0
  7  9  1  0
  9  1  1  0
 36 31  1  0
  2 10  1  0
 29 30  1  0
  8 11  1  0
M  CHG 1  13   1
M  CHG 1  17   1
M  CHG 1  22   1
M  END
> <minimizedAffinity>
-5.52612

> <CNNscore>
0.2001641095

> <CNNaffinity>
4.8476600647

> <CNN_VS>
0.9703275561

> <CNNaffinity_variance>
0.4087711275

$$$$



 36 37  0  0  0  0  0  0  0  0999 V2000
   20.0512   25.3238    5.1285 C   0  0  0  0  0  0  0  0  0  0  0  0
   20.6060   24.7474    3.9296 O   0  0  0  0  0  0  0  0  0  0  0  0
   21.2102   25.6911    6.0304 C   0  0  0  0  0  0  0  0  0  0  0  0
   21.2931   25.4312    7.3529 C   0  0  0  0  0  0  0  0  0  0  0  0
   20.1358   24.7708    8.0413 C   0  0  0  0  0  0  0  0  0  0  0  0
   20.1947   24.4129    9.2108 O   0  0  0  0  0  0  0  0  0  0  0  0
   18.8481   24.6174    7.2317 C   0  0  0  0  0  0  0  0  0  0  0  0
   17.9675   23.6240    7.7125 O   0  0  0  0  0  0  0  0  0  0  0  0
   19.2065   24.2443    5.8023 C   0  0  0  0  0  0  0  0  0  0  0  0
   21.1506   25.4088    3.4749 H   0  0  0  0  0  0  0  0  0  0  0  0
   18.3967   22.7561    7.6548 H   0  0  0  0  0  0  0  0  0  0  0  0
   19.2945   26.6375    4.7159 C   0  0  0  0  0  0  0  0  0  0  0  0
   18.0287   26.5350    3.6850 N   0  0  0  0  0  0  0  0  0  0  0  0
   16.8962   25.8026    4.4041 C   0  0  0  0  0  0  0  0  0  0  0  0
   17.6072   28.0185    3.5577 C   0  0  0  0  0  0  0  0  0  0  0  0
   18.5225   25.9120    2.3837 C   0  0  0  0  0  0  0  0  0  0  0  0
   19.2303   26.7065    1.2380 N   0  0  0  0  0  0  0  0  0  0  0  0
   18.5561   28.0672    1.0626 C   0  0  0  0  0  0  0  0  0  0  0  0
   20.6998   26.8935    1.4872 C   0  0  0  0  0  0  0  0  0  0  0  0
   18.9456   25.8296   -0.0221 C   0  0  0  0  0  0  0  0  0  0  0  0
   17.4042   24.2494   -1.1217 C   0  0  0  0  0  0  0  0  0  0  0  0
   17.5866   25.7581   -0.7015 N   0  0  0  0  0  0  0  0  0  0  0  0
   17.5020   26.5302   -2.0311 C   0  0  0  0  0  0  0  0  0  0  0  0
   16.3586   26.0734    0.1459 C   0  0  0  0  0  0  0  0  0  0  0  0
   22.5199   25.7380    8.1794 C   0  0  0  0  0  0  0  0  0  0  0  0
   23.4948   26.7050    7.4971 C   0  0  0  0  0  0  0  0  0  0  0  0
   24.7248   26.9536    8.3569 C   0  0  0  0  0  0  0  0  0  0  0  0
   25.2733   26.0272    8.9444 O   0  0  0  0  0  0  0  0  0  0  0  0
   25.1404   28.2704    8.3052 N   0  0  0  0  0  0  0  0  0  0  0  0
   24.6004   28.8767    7.7484 H   0  0  0  0  0  0  0  0  0  0  0  0
   26.2513   28.8453    8.9602 C   0  0  0  0  0  0  0  0  0  0  0  0
   26.6096   28.5721   10.2818 C   0  0  0  0  0  0  0  0  0  0  0  0
   27.7268   29.1903   10.8540 C   0  0  0  0  0  0  0  0  0  0  0  0
   28.4946   30.0846   10.1117 C   0  0  0  0  0  0  0  0  0  0  0  0
   28.1453   30.3648    8.7935 C   0  0  0  0  0  0  0  0  0  0  0  0
   27.0279   29.7503    8.2221 C   0  0  0  0  0  0  0  0  0  0  0  0
 21 22  1  0
 22 23  1  0
 22 24  1  0
 22 20  1  0
 20 17  1  0
 17 18  1  0
 17 19  1  0
 17 16  1  0
 16 13  1  0
 13 14  1  0
 13 15  1  0
 13 12  1  0
 12  1  1  0
  1  2  1  0
  1  3  1  0
  3  4  2  0
  4 25  1  0
 25 26  1  0
 26 27  1  0
 27 28  2  0
 27 29  1  0
 29 31  1  0
 31 32  2  0
 32 33  1  0
 33 34  2  0
 34 35  1  0
 35 36  2  0
  4  5  1  0
  5  6  2  0
  5  7  1  0
  7  8  1  0
  7  9  1  0
  9  1  1  0
 36 31  1  0
  2 10  1  0
 29 30  1  0
  8 11  1  0
M  CHG 1  13   1
M  CHG 1  17   1
M  CHG 1  22   1
M  END
> <minimizedAffinity>
-5.29160

> <CNNscore>
0.1921676099

> <CNNaffinity>
4.4515147209

> <CNN_VS>
0.8554369211

> <CNNaffinity_variance>
0.3393691480

$$$$



 36 37  0  0  0  0  0  0  0  0999 V2000
   22.6488   27.7588    7.5169 C   0  0  0  0  0  0  0  0  0  0  0  0
   22.5081   28.3155    6.1949 O   0  0  0  0  0  0  0  0  0  0  0  0
   23.7592   28.5187    8.2105 C   0  0  0  0  0  0  0  0  0  0  0  0
   24.7657   27.9683    8.9229 C   0  0  0  0  0  0  0  0  0  0  0  0
   24.7960   26.4812    9.1153 C   0  0  0  0  0  0  0  0  0  0  0  0
   25.7376   25.9160    9.6570 O   0  0  0  0  0  0  0  0  0  0  0  0
   23.5635   25.7014    8.6574 C   0  0  0  0  0  0  0  0  0  0  0  0
   23.7908   24.3271    8.4268 O   0  0  0  0  0  0  0  0  0  0  0  0
   23.0605   26.2971    7.3524 C   0  0  0  0  0  0  0  0  0  0  0  0
   22.2462   29.2470    6.2626 H   0  0  0  0  0  0  0  0  0  0  0  0
   24.4287   24.2218    7.7037 H   0  0  0  0  0  0  0  0  0  0  0  0
   21.3025   28.0162    8.2848 C   0  0  0  0  0  0  0  0  0  0  0  0
   19.8944   27.9828    7.4532 N   0  0  0  0  0  0  0  0  0  0  0  0
   19.9547   29.0741    6.3847 C   0  0  0  0  0  0  0  0  0  0  0  0
   19.9932   26.6214    6.7240 C   0  0  0  0  0  0  0  0  0  0  0  0
   18.7472   28.0739    8.4536 C   0  0  0  0  0  0  0  0  0  0  0  0
   18.0271   29.4034    8.8516 N   0  0  0  0  0  0  0  0  0  0  0  0
   17.5474   30.1258    7.5927 C   0  0  0  0  0  0  0  0  0  0  0  0
   16.8698   29.1774    9.7824 C   0  0  0  0  0  0  0  0  0  0  0  0
   19.1710   30.2353    9.5130 C   0  0  0  0  0  0  0  0  0  0  0  0
   20.2006   32.1074   10.7446 C   0  0  0  0  0  0  0  0  0  0  0  0
   19.1406   31.7513    9.6330 N   0  0  0  0  0  0  0  0  0  0  0  0
   17.8176   32.3166   10.1820 C   0  0  0  0  0  0  0  0  0  0  0  0
   19.5712   32.5625    8.4158 C   0  0  0  0  0  0  0  0  0  0  0  0
   25.8990   28.7759    9.5108 C   0  0  0  0  0  0  0  0  0  0  0  0
   27.1363   28.8470    8.6081 C   0  0  0  0  0  0  0  0  0  0  0  0
   27.6693   30.2680    8.5057 C   0  0  0  0  0  0  0  0  0  0  0  0
   27.1012   31.0987    7.8049 O   0  0  0  0  0  0  0  0  0  0  0  0
   28.7589   30.4775    9.3292 N   0  0  0  0  0  0  0  0  0  0  0  0
   29.0622   29.7036    9.8568 H   0  0  0  0  0  0  0  0  0  0  0  0
   29.4870   31.6751    9.5001 C   0  0  0  0  0  0  0  0  0  0  0  0
   30.4725   32.1256    8.6194 C   0  0  0  0  0  0  0  0  0  0  0  0
   31.1483   33.3253    8.8680 C   0  0  0  0  0  0  0  0  0  0  0  0
   30.8454   34.0841    9.9961 C   0  0  0  0  0  0  0  0  0  0  0  0
   29.8654   33.6432   10.8812 C   0  0  0  0  0  0  0  0  0  0  0  0
   29.1919   32.4437   10.6355 C   0  0  0  0  0  0  0  0  0  0  0  0
 21 22  1  0
 22 23  1  0
 22 24  1  0
 22 20  1  0
 20 17  1  0
 17 18  1  0
 17 19  1  0
 17 16  1  0
 16 13  1  0
 13 14  1  0
 13 15  1  0
 13 12  1  0
 12  1  1  0
  1  2  1  0
  1  3  1  0
  3  4  2  0
  4 25  1  0
 25 26  1  0
 26 27  1  0
 27 28  2  0
 27 29  1  0
 29 31  1  0
 31 32  2  0
 32 33  1  0
 33 34  2  0
 34 35  1  0
 35 36  2  0
  4  5  1  0
  5  6  2  0
  5  7  1  0
  7  8  1  0
  7  9  1  0
  9  1  1  0
 36 31  1  0
  2 10  1  0
 29 30  1  0
  8 11  1  0
M  CHG 1  13   1
M  CHG 1  17   1
M  CHG 1  22   1
M  END
> <minimizedAffinity>
-5.24684

> <CNNscore>
0.1902090907

> <CNNaffinity>
4.3232479095

> <CNN_VS>
0.8223210573

> <CNNaffinity_variance>
0.7102439404

$$$$



 36 37  0  0  0  0  0  0  0  0999 V2000
   20.8919   26.3013    5.0222 C   0  0  0  0  0  0  0  0  0  0  0  0
   21.3723   26.1216    3.6752 O   0  0  0  0  0  0  0  0  0  0  0  0
   22.1037   26.3963    5.9244 C   0  0  0  0  0  0  0  0  0  0  0  0
   22.2642   25.7506    7.0996 C   0  0  0  0  0  0  0  0  0  0  0  0
   21.1476   24.8965    7.6219 C   0  0  0  0  0  0  0  0  0  0  0  0
   21.2746   24.2034    8.6233 O   0  0  0  0  0  0  0  0  0  0  0  0
   19.8135   24.9758    6.8797 C   0  0  0  0  0  0  0  0  0  0  0  0
   18.9595   23.8709    7.0879 O   0  0  0  0  0  0  0  0  0  0  0  0
   20.0849   25.0566    5.3861 C   0  0  0  0  0  0  0  0  0  0  0  0
   21.8913   26.8972    3.4108 H   0  0  0  0  0  0  0  0  0  0  0  0
   19.3815   23.0672    6.7461 H   0  0  0  0  0  0  0  0  0  0  0  0
   20.1166   27.6670    5.0700 C   0  0  0  0  0  0  0  0  0  0  0  0
   18.7390   27.8295    4.2034 N   0  0  0  0  0  0  0  0  0  0  0  0
   18.2883   26.4340    3.7727 C   0  0  0  0  0  0  0  0  0  0  0  0
   17.7450   28.3191    5.2837 C   0  0  0  0  0  0  0  0  0  0  0  0
   18.9937   28.8362    3.0867 C   0  0  0  0  0  0  0  0  0  0  0  0
   18.0406   29.0621    1.8680 N   0  0  0  0  0  0  0  0  0  0  0  0
   18.2945   27.9884    0.8100 C   0  0  0  0  0  0  0  0  0  0  0  0
   16.5905   29.0589    2.2604 C   0  0  0  0  0  0  0  0  0  0  0  0
   18.5055   30.4455    1.3132 C   0  0  0  0  0  0  0  0  0  0  0  0
   18.5907   32.4517   -0.1186 C   0  0  0  0  0  0  0  0  0  0  0  0
   18.2093   30.9219   -0.1006 N   0  0  0  0  0  0  0  0  0  0  0  0
   16.7157   30.9037   -0.4750 C   0  0  0  0  0  0  0  0  0  0  0  0
   19.0230   30.3084   -1.2350 C   0  0  0  0  0  0  0  0  0  0  0  0
   23.5391   25.8117    7.9078 C   0  0  0  0  0  0  0  0  0  0  0  0
   23.3364   26.3263    9.3378 C   0  0  0  0  0  0  0  0  0  0  0  0
   24.4151   27.3255    9.7275 C   0  0  0  0  0  0  0  0  0  0  0  0
   24.8598   27.3500   10.8702 O   0  0  0  0  0  0  0  0  0  0  0  0
   24.8388   28.0824    8.6519 N   0  0  0  0  0  0  0  0  0  0  0  0
   24.3964   27.9027    7.7909 H   0  0  0  0  0  0  0  0  0  0  0  0
   25.8338   29.0841    8.6470 C   0  0  0  0  0  0  0  0  0  0  0  0
   25.5672   30.4531    8.5799 C   0  0  0  0  0  0  0  0  0  0  0  0
   26.6166   31.3787    8.5770 C   0  0  0  0  0  0  0  0  0  0  0  0
   27.9387   30.9451    8.6417 C   0  0  0  0  0  0  0  0  0  0  0  0
   28.2154   29.5824    8.7076 C   0  0  0  0  0  0  0  0  0  0  0  0
   27.1683   28.6570    8.7075 C   0  0  0  0  0  0  0  0  0  0  0  0
 21 22  1  0
 22 23  1  0
 22 24  1  0
 22 20  1  0
 20 17  1  0
 17 18  1  0
 17 19  1  0
 17 16  1  0
 16 13  1  0
 13 14  1  0
 13 15  1  0
 13 12  1  0
 12  1  1  0
  1  2  1  0
  1  3  1  0
  3  4  2  0
  4 25  1  0
 25 26  1  0
 26 27  1  0
 27 28  2  0
 27 29  1  0
 29 31  1  0
 31 32  2  0
 32 33  1  0
 33 34  2  0
 34 35  1  0
 35 36  2  0
  4  5  1  0
  5  6  2  0
  5  7  1  0
  7  8  1  0
  7  9  1  0
  9  1  1  0
 36 31  1  0
  2 10  1  0
 29 30  1  0
  8 11  1  0
M  CHG 1  13   1
M  CHG 1  17   1
M  CHG 1  22   1
M  END
> <minimizedAffinity>
-4.99758

> <CNNscore>
0.1661320180

> <CNNaffinity>
4.5017795563

> <CNN_VS>
0.7478896976

> <CNNaffinity_variance>
0.2835978568

$$$$



 36 37  0  0  0  0  0  0  0  0999 V2000
   25.2714   28.0024    8.9152 C   0  0  0  0  0  0  0  0  0  0  0  0
   24.9250   27.7084    7.5474 O   0  0  0  0  0  0  0  0  0  0  0  0
   24.9054   29.4486    9.1723 C   0  0  0  0  0  0  0  0  0  0  0  0
   25.6832   30.3599    9.7954 C   0  0  0  0  0  0  0  0  0  0  0  0
   27.0114   29.9324   10.3453 C   0  0  0  0  0  0  0  0  0  0  0  0
   27.8046   30.7340   10.8225 O   0  0  0  0  0  0  0  0  0  0  0  0
   27.3096   28.4330   10.3401 C   0  0  0  0  0  0  0  0  0  0  0  0
   28.6809   28.1072   10.4227 O   0  0  0  0  0  0  0  0  0  0  0  0
   26.7834   27.8306    9.0474 C   0  0  0  0  0  0  0  0  0  0  0  0
   23.9676   27.8082    7.4277 H   0  0  0  0  0  0  0  0  0  0  0  0
   29.1424   28.4504    9.6416 H   0  0  0  0  0  0  0  0  0  0  0  0
   24.3878   27.0852    9.8350 C   0  0  0  0  0  0  0  0  0  0  0  0
   23.1932   26.1960    9.1583 N   0  0  0  0  0  0  0  0  0  0  0  0
   23.8432   25.1392    8.2658 C   0  0  0  0  0  0  0  0  0  0  0  0
   22.6128   25.4614   10.3904 C   0  0  0  0  0  0  0  0  0  0  0  0
   22.2144   27.1491    8.4808 C   0  0  0  0  0  0  0  0  0  0  0  0
   20.9808   26.6928    7.6353 N   0  0  0  0  0  0  0  0  0  0  0  0
   21.0894   25.1987    7.3313 C   0  0  0  0  0  0  0  0  0  0  0  0
   19.6741   26.9808    8.3181 C   0  0  0  0  0  0  0  0  0  0  0  0
   21.1507   27.4975    6.3081 C   0  0  0  0  0  0  0  0  0  0  0  0
   20.9868   26.7764    3.9554 C   0  0  0  0  0  0  0  0  0  0  0  0
   20.1722   27.4112    5.1468 N   0  0  0  0  0  0  0  0  0  0  0  0
   19.7142   28.7767    4.6019 C   0  0  0  0  0  0  0  0  0  0  0  0
   18.9605   26.5005    5.3135 C   0  0  0  0  0  0  0  0  0  0  0  0
   25.3000   31.8144    9.9359 C   0  0  0  0  0  0  0  0  0  0  0  0
   26.0913   32.7505    9.0147 C   0  0  0  0  0  0  0  0  0  0  0  0
   25.7077   34.2054    9.2378 C   0  0  0  0  0  0  0  0  0  0  0  0
   26.1085   35.0802    8.4775 O   0  0  0  0  0  0  0  0  0  0  0  0
   24.8366   34.3588   10.2994 N   0  0  0  0  0  0  0  0  0  0  0  0
   24.5866   33.5372   10.7807 H   0  0  0  0  0  0  0  0  0  0  0  0
   24.2642   35.5597   10.7724 C   0  0  0  0  0  0  0  0  0  0  0  0
   22.9100   35.8804   10.6587 C   0  0  0  0  0  0  0  0  0  0  0  0
   22.4273   37.0970   11.1535 C   0  0  0  0  0  0  0  0  0  0  0  0
   23.2918   38.0015   11.7657 C   0  0  0  0  0  0  0  0  0  0  0  0
   24.6441   37.6919   11.8830 C   0  0  0  0  0  0  0  0  0  0  0  0
   25.1278   36.4786   11.3864 C   0  0  0  0  0  0  0  0  0  0  0  0
 21 22  1  0
 22 23  1  0
 22 24  1  0
 22 20  1  0
 20 17  1  0
 17 18  1  0
 17 19  1  0
 17 16  1  0
 16 13  1  0
 13 14  1  0
 13 15  1  0
 13 12  1  0
 12  1  1  0
  1  2  1  0
  1  3  1  0
  3  4  2  0
  4 25  1  0
 25 26  1  0
 26 27  1  0
 27 28  2  0
 27 29  1  0
 29 31  1  0
 31 32  2  0
 32 33  1  0
 33 34  2  0
 34 35  1  0
 35 36  2  0
  4  5  1  0
  5  6  2  0
  5  7  1  0
  7  8  1  0
  7  9  1  0
  9  1  1  0
 36 31  1  0
  2 10  1  0
 29 30  1  0
  8 11  1  0
M  CHG 1  13   1
M  CHG 1  17   1
M  CHG 1  22   1
M  END
> <minimizedAffinity>
-4.53239

> <CNNscore>
0.1643965691

> <CNNaffinity>
3.9896841049

> <CNN_VS>
0.6558904052

> <CNNaffinity_variance>
0.7537431121

$$$$



 36 37  0  0  0  0  0  0  0  0999 V2000
   22.3661   27.7233    7.6567 C   0  0  0  0  0  0  0  0  0  0  0  0
   22.1995   28.4890    6.4471 O   0  0  0  0  0  0  0  0  0  0  0  0
   23.3469   28.4724    8.5333 C   0  0  0  0  0  0  0  0  0  0  0  0
   24.3913   27.9264    9.1927 C   0  0  0  0  0  0  0  0  0  0  0  0
   24.6045   26.4436    9.1228 C   0  0  0  0  0  0  0  0  0  0  0  0
   25.5919   25.9063    9.6083 O   0  0  0  0  0  0  0  0  0  0  0  0
   23.4973   25.6178    8.4677 C   0  0  0  0  0  0  0  0  0  0  0  0
   23.9055   24.3451    8.0127 O   0  0  0  0  0  0  0  0  0  0  0  0
   22.9660   26.3753    7.2615 C   0  0  0  0  0  0  0  0  0  0  0  0
   21.8188   29.3549    6.6624 H   0  0  0  0  0  0  0  0  0  0  0  0
   24.5751   24.4493    7.3187 H   0  0  0  0  0  0  0  0  0  0  0  0
   20.9733   27.6748    8.3820 C   0  0  0  0  0  0  0  0  0  0  0  0
   19.9214   28.9086    8.1660 N   0  0  0  0  0  0  0  0  0  0  0  0
   18.6196   28.5457    8.8799 C   0  0  0  0  0  0  0  0  0  0  0  0
   20.5923   30.0391    8.9826 C   0  0  0  0  0  0  0  0  0  0  0  0
   19.8203   29.1932    6.6713 C   0  0  0  0  0  0  0  0  0  0  0  0
   18.7738   28.5321    5.7161 N   0  0  0  0  0  0  0  0  0  0  0  0
   19.0961   27.0474    5.5479 C   0  0  0  0  0  0  0  0  0  0  0  0
   17.3623   28.6957    6.2036 C   0  0  0  0  0  0  0  0  0  0  0  0
   19.0258   29.2659    4.3611 C   0  0  0  0  0  0  0  0  0  0  0  0
   18.9589   31.0726    2.6838 C   0  0  0  0  0  0  0  0  0  0  0  0
   18.1334   30.3793    3.8344 N   0  0  0  0  0  0  0  0  0  0  0  0
   17.8726   31.5127    4.8437 C   0  0  0  0  0  0  0  0  0  0  0  0
   16.8186   29.9755    3.1759 C   0  0  0  0  0  0  0  0  0  0  0  0
   25.3922   28.7439    9.9750 C   0  0  0  0  0  0  0  0  0  0  0  0
   26.5660   29.2522    9.1295 C   0  0  0  0  0  0  0  0  0  0  0  0
   27.2190   30.4724    9.7608 C   0  0  0  0  0  0  0  0  0  0  0  0
   26.8256   30.9028   10.8397 O   0  0  0  0  0  0  0  0  0  0  0  0
   28.2945   30.9292    9.0232 N   0  0  0  0  0  0  0  0  0  0  0  0
   28.4960   30.4369    8.1948 H   0  0  0  0  0  0  0  0  0  0  0  0
   29.1374   32.0218    9.3225 C   0  0  0  0  0  0  0  0  0  0  0  0
   28.8074   33.0450   10.2135 C   0  0  0  0  0  0  0  0  0  0  0  0
   29.7032   34.0938   10.4491 C   0  0  0  0  0  0  0  0  0  0  0  0
   30.9342   34.1287    9.7982 C   0  0  0  0  0  0  0  0  0  0  0  0
   31.2723   33.1141    8.9070 C   0  0  0  0  0  0  0  0  0  0  0  0
   30.3772   32.0678    8.6686 C   0  0  0  0  0  0  0  0  0  0  0  0
 21 22  1  0
 22 23  1  0
 22 24  1  0
 22 20  1  0
 20 17  1  0
 17 18  1  0
 17 19  1  0
 17 16  1  0
 16 13  1  0
 13 14  1  0
 13 15  1  0
 13 12  1  0
 12  1  1  0
  1  2  1  0
  1  3  1  0
  3  4  2  0
  4 25  1  0
 25 26  1  0
 26 27  1  0
 27 28  2  0
 27 29  1  0
 29 31  1  0
 31 32  2  0
 32 33  1  0
 33 34  2  0
 34 35  1  0
 35 36  2  0
  4  5  1  0
  5  6  2  0
  5  7  1  0
  7  8  1  0
  7  9  1  0
  9  1  1  0
 36 31  1  0
  2 10  1  0
 29 30  1  0
  8 11  1  0
M  CHG 1  13   1
M  CHG 1  17   1
M  CHG 1  22   1
M  END
> <minimizedAffinity>
-4.99075

> <CNNscore>
0.1551816761

> <CNNaffinity>
4.3400783539

> <CNN_VS>
0.6735006571

> <CNNaffinity_variance>
0.4088905752

$$$$
