


 26 28  0  0  0  0  0  0  0  0999 V2000
    0.2463    5.8246   26.3601 C   0  0  0  0  0  0  0  0  0  0  0  0
    0.0393    4.4877   26.5738 C   0  0  0  0  0  0  0  0  0  0  0  0
    0.9303    3.9144   27.4367 C   0  0  0  0  0  0  0  0  0  0  0  0
    0.8191    2.2454   27.8221 Cl  0  0  0  0  0  0  0  0  0  0  0  0
    1.9365    4.5550   28.0448 N   0  0  0  0  0  0  0  0  0  0  0  0
    2.0638    5.8557   27.7809 C   0  0  0  0  0  0  0  0  0  0  0  0
    1.2434    6.5150   26.9499 N   0  0  0  0  0  0  0  0  0  0  0  0
   -1.5043    8.2758   23.9310 C   0  0  0  0  0  0  0  0  0  0  0  0
   -2.4275    7.3954   24.2369 N   0  0  0  0  0  0  0  0  0  0  0  0
   -1.9289    6.4258   25.0929 C   0  0  0  0  0  0  0  0  0  0  0  0
   -2.8477    5.3299   25.5021 C   0  0  0  0  0  0  0  0  0  0  0  0
   -0.6036    6.5994   25.4607 C   0  0  0  0  0  0  0  0  0  0  0  0
    0.0212    7.9918   24.6735 S   0  0  0  0  0  0  0  0  0  0  0  0
   -0.8288   10.3688   22.8698 C   0  0  0  0  0  0  0  0  0  0  0  0
   -1.7746    9.2980   23.0847 N   0  0  0  0  0  0  0  0  0  0  0  0
   -2.6345    9.3117   22.6055 H   0  0  0  0  0  0  0  0  0  0  0  0
    3.0667    6.6340   28.3492 N   0  0  0  0  0  0  0  0  0  0  0  0
    3.3527    6.3064   29.2324 H   0  0  0  0  0  0  0  0  0  0  0  0
    3.7587    7.7797   27.9424 C   0  0  0  0  0  0  0  0  0  0  0  0
    4.9367    8.2370   28.5427 C   0  0  0  0  0  0  0  0  0  0  0  0
    5.5818    9.3918   28.0852 C   0  0  0  0  0  0  0  0  0  0  0  0
    5.0531   10.1025   27.0182 C   0  0  0  0  0  0  0  0  0  0  0  0
    5.7131   11.2205   26.6052 O   0  0  0  0  0  0  0  0  0  0  0  0
    3.8866    9.6770   26.3988 C   0  0  0  0  0  0  0  0  0  0  0  0
    3.2475    8.5216   26.8620 C   0  0  0  0  0  0  0  0  0  0  0  0
    6.4992   11.4878   27.0396 H   0  0  0  0  0  0  0  0  0  0  0  0
 14 15  1  0
 15  8  1  0
  8  9  2  0
  9 10  1  0
 10 11  1  0
 10 12  2  0
 12  1  1  0
  1  2  2  0
  2  3  1  0
  3  4  1  0
  3  5  2  0
  5  6  1  0
  6 17  1  0
 17 19  1  0
 19 20  2  0
 20 21  1  0
 21 22  2  0
 22 23  1  0
 22 24  1  0
 24 25  2  0
  6  7  2  0
 12 13  1  0
 13  8  1  0
  7  1  1  0
 25 19  1  0
 15 16  1  0
 17 18  1  0
 23 26  1  0
M  END
> <minimizedAffinity>
-7.94404

> <CNNscore>
0.9445302486

> <CNNaffinity>
7.4799885750

> <CNN_VS>
7.0650753975

> <CNNaffinity_variance>
0.0366384722

$$$$



 26 28  0  0  0  0  0  0  0  0999 V2000
    0.0635    6.3014   26.1273 C   0  0  0  0  0  0  0  0  0  0  0  0
    0.0217    5.1076   26.7975 C   0  0  0  0  0  0  0  0  0  0  0  0
    1.1179    4.8643   27.5761 C   0  0  0  0  0  0  0  0  0  0  0  0
    1.2336    3.4153   28.4890 Cl  0  0  0  0  0  0  0  0  0  0  0  0
    2.1686    5.6838   27.7065 N   0  0  0  0  0  0  0  0  0  0  0  0
    2.1256    6.8256   27.0195 C   0  0  0  0  0  0  0  0  0  0  0  0
    1.0972    7.1617   26.2270 N   0  0  0  0  0  0  0  0  0  0  0  0
   -2.3625    7.8059   23.5151 C   0  0  0  0  0  0  0  0  0  0  0  0
   -3.1130    7.0226   24.2528 N   0  0  0  0  0  0  0  0  0  0  0  0
   -2.3623    6.3866   25.2292 C   0  0  0  0  0  0  0  0  0  0  0  0
   -3.0662    5.4305   26.1253 C   0  0  0  0  0  0  0  0  0  0  0  0
   -1.0176    6.7233   25.2415 C   0  0  0  0  0  0  0  0  0  0  0  0
   -0.7034    7.8319   23.9683 S   0  0  0  0  0  0  0  0  0  0  0  0
   -4.1111    9.2682   22.6388 C   0  0  0  0  0  0  0  0  0  0  0  0
   -2.8941    8.5050   22.4840 N   0  0  0  0  0  0  0  0  0  0  0  0
   -2.4413    8.4929   21.6099 H   0  0  0  0  0  0  0  0  0  0  0  0
    3.1530    7.7618   27.0700 N   0  0  0  0  0  0  0  0  0  0  0  0
    3.1828    8.3421   26.2752 H   0  0  0  0  0  0  0  0  0  0  0  0
    4.1532    8.0608   28.0011 C   0  0  0  0  0  0  0  0  0  0  0  0
    5.0885    9.0889   27.8422 C   0  0  0  0  0  0  0  0  0  0  0  0
    6.0643    9.3373   28.8144 C   0  0  0  0  0  0  0  0  0  0  0  0
    6.1134    8.5570   29.9598 C   0  0  0  0  0  0  0  0  0  0  0  0
    7.0791    8.8332   30.8803 O   0  0  0  0  0  0  0  0  0  0  0  0
    5.2007    7.5294   30.1504 C   0  0  0  0  0  0  0  0  0  0  0  0
    4.2283    7.2873   29.1738 C   0  0  0  0  0  0  0  0  0  0  0  0
    7.6842    9.5325   30.7291 H   0  0  0  0  0  0  0  0  0  0  0  0
 14 15  1  0
 15  8  1  0
  8  9  2  0
  9 10  1  0
 10 11  1  0
 10 12  2  0
 12  1  1  0
  1  2  2  0
  2  3  1  0
  3  4  1  0
  3  5  2  0
  5  6  1  0
  6 17  1  0
 17 19  1  0
 19 20  2  0
 20 21  1  0
 21 22  2  0
 22 23  1  0
 22 24  1  0
 24 25  2  0
  6  7  2  0
 12 13  1  0
 13  8  1  0
  7  1  1  0
 25 19  1  0
 15 16  1  0
 17 18  1  0
 23 26  1  0
M  END
> <minimizedAffinity>
-8.41419

> <CNNscore>
0.7724691033

> <CNNaffinity>
7.2148671150

> <CNN_VS>
5.5732617378

> <CNNaffinity_variance>
0.0523566008

$$$$



 26 28  0  0  0  0  0  0  0  0999 V2000
    0.4450    6.7231   25.7149 C   0  0  0  0  0  0  0  0  0  0  0  0
   -0.4413    5.7350   26.0526 C   0  0  0  0  0  0  0  0  0  0  0  0
   -1.5116    5.6312   25.2096 C   0  0  0  0  0  0  0  0  0  0  0  0
   -2.7219    4.4445   25.4803 Cl  0  0  0  0  0  0  0  0  0  0  0  0
   -1.7258    6.4025   24.1363 N   0  0  0  0  0  0  0  0  0  0  0  0
   -0.8115    7.3386   23.8804 C   0  0  0  0  0  0  0  0  0  0  0  0
    0.2755    7.5243   24.6435 N   0  0  0  0  0  0  0  0  0  0  0  0
    3.4441    6.8986   28.1536 C   0  0  0  0  0  0  0  0  0  0  0  0
    3.5643    7.9671   27.4020 N   0  0  0  0  0  0  0  0  0  0  0  0
    2.5580    8.0240   26.4503 C   0  0  0  0  0  0  0  0  0  0  0  0
    2.5798    9.1616   25.4922 C   0  0  0  0  0  0  0  0  0  0  0  0
    1.6427    6.9845   26.5077 C   0  0  0  0  0  0  0  0  0  0  0  0
    2.0958    5.9044   27.7635 S   0  0  0  0  0  0  0  0  0  0  0  0
    5.1943    7.6709   29.6715 C   0  0  0  0  0  0  0  0  0  0  0  0
    4.3412    6.6362   29.1337 N   0  0  0  0  0  0  0  0  0  0  0  0
    4.4136    5.7203   29.4876 H   0  0  0  0  0  0  0  0  0  0  0  0
   -0.9171    8.2029   22.7957 N   0  0  0  0  0  0  0  0  0  0  0  0
   -0.0444    8.4355   22.4040 H   0  0  0  0  0  0  0  0  0  0  0  0
   -1.9900    8.8145   22.1388 C   0  0  0  0  0  0  0  0  0  0  0  0
   -3.2834    8.9009   22.6648 C   0  0  0  0  0  0  0  0  0  0  0  0
   -4.3136    9.5292   21.9556 C   0  0  0  0  0  0  0  0  0  0  0  0
   -4.0584   10.0801   20.7087 C   0  0  0  0  0  0  0  0  0  0  0  0
   -5.0898   10.6822   20.0530 O   0  0  0  0  0  0  0  0  0  0  0  0
   -2.7870   10.0132   20.1571 C   0  0  0  0  0  0  0  0  0  0  0  0
   -1.7625    9.3832   20.8723 C   0  0  0  0  0  0  0  0  0  0  0  0
   -5.9397   10.7148   20.4462 H   0  0  0  0  0  0  0  0  0  0  0  0
 14 15  1  0
 15  8  1  0
  8  9  2  0
  9 10  1  0
 10 11  1  0
 10 12  2  0
 12  1  1  0
  1  2  2  0
  2  3  1  0
  3  4  1  0
  3  5  2  0
  5  6  1  0
  6 17  1  0
 17 19  1  0
 19 20  2  0
 20 21  1  0
 21 22  2  0
 22 23  1  0
 22 24  1  0
 24 25  2  0
  6  7  2  0
 12 13  1  0
 13  8  1  0
  7  1  1  0
 25 19  1  0
 15 16  1  0
 17 18  1  0
 23 26  1  0
M  END
> <minimizedAffinity>
-8.72150

> <CNNscore>
0.5442582965

> <CNNaffinity>
6.9344630241

> <CNN_VS>
3.7741389275

> <CNNaffinity_variance>
0.0137825049

$$$$



 26 28  0  0  0  0  0  0  0  0999 V2000
    0.5614    6.9804   26.0415 C   0  0  0  0  0  0  0  0  0  0  0  0
    0.2903    5.7579   26.5962 C   0  0  0  0  0  0  0  0  0  0  0  0
    1.2660    5.2943   27.4330 C   0  0  0  0  0  0  0  0  0  0  0  0
    1.0921    3.7778   28.2181 Cl  0  0  0  0  0  0  0  0  0  0  0  0
    2.4062    5.9355   27.7182 N   0  0  0  0  0  0  0  0  0  0  0  0
    2.5878    7.1209   27.1355 C   0  0  0  0  0  0  0  0  0  0  0  0
    1.6935    7.6668   26.2985 N   0  0  0  0  0  0  0  0  0  0  0  0
   -2.2150    8.1371   23.6070 C   0  0  0  0  0  0  0  0  0  0  0  0
   -1.3631    9.1343   23.6370 N   0  0  0  0  0  0  0  0  0  0  0  0
   -0.3129    8.8680   24.5017 C   0  0  0  0  0  0  0  0  0  0  0  0
    0.7203    9.9238   24.6759 C   0  0  0  0  0  0  0  0  0  0  0  0
   -0.3644    7.6261   25.1155 C   0  0  0  0  0  0  0  0  0  0  0  0
   -1.7886    6.8088   24.6132 S   0  0  0  0  0  0  0  0  0  0  0  0
   -3.3630    8.9702   21.6191 C   0  0  0  0  0  0  0  0  0  0  0  0
   -3.3309    8.2016   22.8421 N   0  0  0  0  0  0  0  0  0  0  0  0
   -4.1378    7.7140   23.1256 H   0  0  0  0  0  0  0  0  0  0  0  0
    3.7288    7.8868   27.3501 N   0  0  0  0  0  0  0  0  0  0  0  0
    3.9843    8.4230   26.5650 H   0  0  0  0  0  0  0  0  0  0  0  0
    4.5933    8.0633   28.4356 C   0  0  0  0  0  0  0  0  0  0  0  0
    4.5384    7.3068   29.6111 C   0  0  0  0  0  0  0  0  0  0  0  0
    5.4359    7.5331   30.6610 C   0  0  0  0  0  0  0  0  0  0  0  0
    6.4012    8.5218   30.5442 C   0  0  0  0  0  0  0  0  0  0  0  0
    7.2545    8.7085   31.5899 O   0  0  0  0  0  0  0  0  0  0  0  0
    6.4849    9.2906   29.3921 C   0  0  0  0  0  0  0  0  0  0  0  0
    5.5839    9.0583   28.3470 C   0  0  0  0  0  0  0  0  0  0  0  0
    7.1782    8.1766   32.3575 H   0  0  0  0  0  0  0  0  0  0  0  0
 14 15  1  0
 15  8  1  0
  8  9  2  0
  9 10  1  0
 10 11  1  0
 10 12  2  0
 12  1  1  0
  1  2  2  0
  2  3  1  0
  3  4  1  0
  3  5  2  0
  5  6  1  0
  6 17  1  0
 17 19  1  0
 19 20  2  0
 20 21  1  0
 21 22  2  0
 22 23  1  0
 22 24  1  0
 24 25  2  0
  6  7  2  0
 12 13  1  0
 13  8  1  0
  7  1  1  0
 25 19  1  0
 15 16  1  0
 17 18  1  0
 23 26  1  0
M  END
> <minimizedAffinity>
-7.74601

> <CNNscore>
0.5114283562

> <CNNaffinity>
6.8337655067

> <CNN_VS>
3.4949815273

> <CNNaffinity_variance>
0.0150028570

$$$$



 26 28  0  0  0  0  0  0  0  0999 V2000
   -0.6474    7.0603   25.0665 C   0  0  0  0  0  0  0  0  0  0  0  0
   -1.3837    5.9417   24.7793 C   0  0  0  0  0  0  0  0  0  0  0  0
   -1.1090    4.8698   25.5810 C   0  0  0  0  0  0  0  0  0  0  0  0
   -1.9405    3.3839   25.3640 Cl  0  0  0  0  0  0  0  0  0  0  0  0
   -0.2084    4.8583   26.5716 N   0  0  0  0  0  0  0  0  0  0  0  0
    0.4626    5.9909   26.7833 C   0  0  0  0  0  0  0  0  0  0  0  0
    0.2696    7.1000   26.0546 N   0  0  0  0  0  0  0  0  0  0  0  0
   -1.5354   10.0336   22.7548 C   0  0  0  0  0  0  0  0  0  0  0  0
   -0.4714   10.4301   23.4119 N   0  0  0  0  0  0  0  0  0  0  0  0
   -0.0495    9.4620   24.3099 C   0  0  0  0  0  0  0  0  0  0  0  0
    1.1277    9.7794   25.1620 C   0  0  0  0  0  0  0  0  0  0  0  0
   -0.8010    8.2972   24.3063 C   0  0  0  0  0  0  0  0  0  0  0  0
   -2.0817    8.4572   23.1735 S   0  0  0  0  0  0  0  0  0  0  0  0
   -1.5422   11.0614   20.5396 C   0  0  0  0  0  0  0  0  0  0  0  0
   -2.1271   10.8406   21.8422 N   0  0  0  0  0  0  0  0  0  0  0  0
   -2.9743   11.2866   22.0714 H   0  0  0  0  0  0  0  0  0  0  0  0
    1.4237    6.1091   27.7817 N   0  0  0  0  0  0  0  0  0  0  0  0
    1.2163    5.5711   28.5797 H   0  0  0  0  0  0  0  0  0  0  0  0
    2.6201    6.8239   27.9020 C   0  0  0  0  0  0  0  0  0  0  0  0
    3.4945    6.7094   28.9880 C   0  0  0  0  0  0  0  0  0  0  0  0
    4.6788    7.4531   29.0462 C   0  0  0  0  0  0  0  0  0  0  0  0
    5.0014    8.3212   28.0140 C   0  0  0  0  0  0  0  0  0  0  0  0
    6.1636    9.0255   28.1110 O   0  0  0  0  0  0  0  0  0  0  0  0
    4.1575    8.4590   26.9212 C   0  0  0  0  0  0  0  0  0  0  0  0
    2.9753    7.7122   26.8705 C   0  0  0  0  0  0  0  0  0  0  0  0
    6.7172    8.9153   28.8590 H   0  0  0  0  0  0  0  0  0  0  0  0
 14 15  1  0
 15  8  1  0
  8  9  2  0
  9 10  1  0
 10 11  1  0
 10 12  2  0
 12  1  1  0
  1  2  2  0
  2  3  1  0
  3  4  1  0
  3  5  2  0
  5  6  1  0
  6 17  1  0
 17 19  1  0
 19 20  2  0
 20 21  1  0
 21 22  2  0
 22 23  1  0
 22 24  1  0
 24 25  2  0
  6  7  2  0
 12 13  1  0
 13  8  1  0
  7  1  1  0
 25 19  1  0
 15 16  1  0
 17 18  1  0
 23 26  1  0
M  END
> <minimizedAffinity>
-8.63253

> <CNNscore>
0.4886148274

> <CNNaffinity>
6.6547884941

> <CNN_VS>
3.2516283989

> <CNNaffinity_variance>
0.0912912861

$$$$



 26 28  0  0  0  0  0  0  0  0999 V2000
   -0.8267    9.1555   23.9070 C   0  0  0  0  0  0  0  0  0  0  0  0
   -1.7336    9.5219   22.9482 C   0  0  0  0  0  0  0  0  0  0  0  0
   -2.8145    8.6914   22.8538 C   0  0  0  0  0  0  0  0  0  0  0  0
   -4.0529    9.0003   21.7061 Cl  0  0  0  0  0  0  0  0  0  0  0  0
   -3.0176    7.6015   23.6045 N   0  0  0  0  0  0  0  0  0  0  0  0
   -2.0849    7.3196   24.5146 C   0  0  0  0  0  0  0  0  0  0  0  0
   -0.9866    8.0689   24.6895 N   0  0  0  0  0  0  0  0  0  0  0  0
    2.1379   11.6299   24.1556 C   0  0  0  0  0  0  0  0  0  0  0  0
    2.5395   10.5641   24.8065 N   0  0  0  0  0  0  0  0  0  0  0  0
    1.5549    9.5884   24.8229 C   0  0  0  0  0  0  0  0  0  0  0  0
    1.8453    8.3293   25.5598 C   0  0  0  0  0  0  0  0  0  0  0  0
    0.3940    9.9211   24.1423 C   0  0  0  0  0  0  0  0  0  0  0  0
    0.5479   11.5103   23.5102 S   0  0  0  0  0  0  0  0  0  0  0  0
    2.6542   13.9420   24.7482 C   0  0  0  0  0  0  0  0  0  0  0  0
    2.9400   12.7151   24.0407 N   0  0  0  0  0  0  0  0  0  0  0  0
    3.7353   12.6669   23.4624 H   0  0  0  0  0  0  0  0  0  0  0  0
   -2.1786    6.2168   25.3570 N   0  0  0  0  0  0  0  0  0  0  0  0
   -3.1085    5.9420   25.5274 H   0  0  0  0  0  0  0  0  0  0  0  0
   -1.2429    5.4119   26.0153 C   0  0  0  0  0  0  0  0  0  0  0  0
   -0.1210    5.9068   26.6887 C   0  0  0  0  0  0  0  0  0  0  0  0
    0.7772    5.0460   27.3301 C   0  0  0  0  0  0  0  0  0  0  0  0
    0.5602    3.6765   27.3045 C   0  0  0  0  0  0  0  0  0  0  0  0
    1.4591    2.8751   27.9416 O   0  0  0  0  0  0  0  0  0  0  0  0
   -0.5428    3.1513   26.6466 C   0  0  0  0  0  0  0  0  0  0  0  0
   -1.4360    4.0185   26.0077 C   0  0  0  0  0  0  0  0  0  0  0  0
    2.1964    3.2533   28.3791 H   0  0  0  0  0  0  0  0  0  0  0  0
 14 15  1  0
 15  8  1  0
  8  9  2  0
  9 10  1  0
 10 11  1  0
 10 12  2  0
 12  1  1  0
  1  2  2  0
  2  3  1  0
  3  4  1  0
  3  5  2  0
  5  6  1  0
  6 17  1  0
 17 19  1  0
 19 20  2  0
 20 21  1  0
 21 22  2  0
 22 23  1  0
 22 24  1  0
 24 25  2  0
  6  7  2  0
 12 13  1  0
 13  8  1  0
  7  1  1  0
 25 19  1  0
 15 16  1  0
 17 18  1  0
 23 26  1  0
M  END
> <minimizedAffinity>
-9.02203

> <CNNscore>
0.4006481171

> <CNNaffinity>
6.2055225372

> <CNN_VS>
2.4862308502

> <CNNaffinity_variance>
0.2322226018

$$$$



 26 28  0  0  0  0  0  0  0  0999 V2000
    0.3598    6.9314   25.8001 C   0  0  0  0  0  0  0  0  0  0  0  0
   -0.3259    5.7479   25.8701 C   0  0  0  0  0  0  0  0  0  0  0  0
   -1.4723    5.7205   25.1271 C   0  0  0  0  0  0  0  0  0  0  0  0
   -2.4567    4.3147   25.0957 Cl  0  0  0  0  0  0  0  0  0  0  0  0
   -1.9325    6.7329   24.3814 N   0  0  0  0  0  0  0  0  0  0  0  0
   -1.2013    7.8476   24.3694 C   0  0  0  0  0  0  0  0  0  0  0  0
   -0.0605    7.9791   25.0622 N   0  0  0  0  0  0  0  0  0  0  0  0
    3.7657    7.9586   27.3224 C   0  0  0  0  0  0  0  0  0  0  0  0
    3.3874    6.9186   28.0268 N   0  0  0  0  0  0  0  0  0  0  0  0
    2.1522    6.4521   27.6045 C   0  0  0  0  0  0  0  0  0  0  0  0
    1.5666    5.2957   28.3342 C   0  0  0  0  0  0  0  0  0  0  0  0
    1.6023    7.1441   26.5366 C   0  0  0  0  0  0  0  0  0  0  0  0
    2.6553    8.4267   26.0950 S   0  0  0  0  0  0  0  0  0  0  0  0
    5.1411    9.9750   27.2445 C   0  0  0  0  0  0  0  0  0  0  0  0
    4.9361    8.5866   27.5875 N   0  0  0  0  0  0  0  0  0  0  0  0
    5.6631    8.0859   28.0234 H   0  0  0  0  0  0  0  0  0  0  0  0
   -1.5696    8.9695   23.6344 N   0  0  0  0  0  0  0  0  0  0  0  0
   -1.3791    9.8144   24.1024 H   0  0  0  0  0  0  0  0  0  0  0  0
   -2.1510    9.1620   22.3767 C   0  0  0  0  0  0  0  0  0  0  0  0
   -3.4820    8.8549   22.0744 C   0  0  0  0  0  0  0  0  0  0  0  0
   -4.0032    9.0740   20.7941 C   0  0  0  0  0  0  0  0  0  0  0  0
   -3.1950    9.6052   19.8002 C   0  0  0  0  0  0  0  0  0  0  0  0
   -3.7429    9.8023   18.5684 O   0  0  0  0  0  0  0  0  0  0  0  0
   -1.8704    9.9221   20.0653 C   0  0  0  0  0  0  0  0  0  0  0  0
   -1.3567    9.7000   21.3478 C   0  0  0  0  0  0  0  0  0  0  0  0
   -4.6400    9.5804   18.4137 H   0  0  0  0  0  0  0  0  0  0  0  0
 14 15  1  0
 15  8  1  0
  8  9  2  0
  9 10  1  0
 10 11  1  0
 10 12  2  0
 12  1  1  0
  1  2  2  0
  2  3  1  0
  3  4  1  0
  3  5  2  0
  5  6  1  0
  6 17  1  0
 17 19  1  0
 19 20  2  0
 20 21  1  0
 21 22  2  0
 22 23  1  0
 22 24  1  0
 24 25  2  0
  6  7  2  0
 12 13  1  0
 13  8  1  0
  7  1  1  0
 25 19  1  0
 15 16  1  0
 17 18  1  0
 23 26  1  0
M  END
> <minimizedAffinity>
-8.73434

> <CNNscore>
0.2767603695

> <CNNaffinity>
6.3634982109

> <CNN_VS>
1.7611640692

> <CNNaffinity_variance>
0.0702462196

$$$$



 26 28  0  0  0  0  0  0  0  0999 V2000
   -2.3217    8.7811   22.8917 C   0  0  0  0  0  0  0  0  0  0  0  0
   -1.2899    9.6548   23.1110 C   0  0  0  0  0  0  0  0  0  0  0  0
   -0.4548    9.2903   24.1293 C   0  0  0  0  0  0  0  0  0  0  0  0
    0.8942   10.2681   24.5418 Cl  0  0  0  0  0  0  0  0  0  0  0  0
   -0.5885    8.1897   24.8799 N   0  0  0  0  0  0  0  0  0  0  0  0
   -1.6201    7.3941   24.5967 C   0  0  0  0  0  0  0  0  0  0  0  0
   -2.4982    7.6588   23.6183 N   0  0  0  0  0  0  0  0  0  0  0  0
   -4.5494    9.0940   19.7434 C   0  0  0  0  0  0  0  0  0  0  0  0
   -5.1912    9.7624   20.6720 N   0  0  0  0  0  0  0  0  0  0  0  0
   -4.5136    9.7144   21.8803 C   0  0  0  0  0  0  0  0  0  0  0  0
   -5.1367   10.3951   23.0469 C   0  0  0  0  0  0  0  0  0  0  0  0
   -3.3175    9.0143   21.8498 C   0  0  0  0  0  0  0  0  0  0  0  0
   -3.0775    8.3785   20.2728 S   0  0  0  0  0  0  0  0  0  0  0  0
   -5.1952    7.7118   17.8365 C   0  0  0  0  0  0  0  0  0  0  0  0
   -5.0522    8.9925   18.4898 N   0  0  0  0  0  0  0  0  0  0  0  0
   -5.3262    9.8093   18.0134 H   0  0  0  0  0  0  0  0  0  0  0  0
   -1.8686    6.2210   25.3015 N   0  0  0  0  0  0  0  0  0  0  0  0
   -2.8235    5.9822   25.3246 H   0  0  0  0  0  0  0  0  0  0  0  0
   -1.0610    5.3058   25.9847 C   0  0  0  0  0  0  0  0  0  0  0  0
   -1.2952    3.9269   26.0169 C   0  0  0  0  0  0  0  0  0  0  0  0
   -0.4458    3.0640   26.7190 C   0  0  0  0  0  0  0  0  0  0  0  0
    0.6507    3.5741   27.3977 C   0  0  0  0  0  0  0  0  0  0  0  0
    1.4513    2.6988   28.0680 O   0  0  0  0  0  0  0  0  0  0  0  0
    0.9134    4.9365   27.3864 C   0  0  0  0  0  0  0  0  0  0  0  0
    0.0595    5.7927   26.6822 C   0  0  0  0  0  0  0  0  0  0  0  0
    1.2532    1.7830   28.0609 H   0  0  0  0  0  0  0  0  0  0  0  0
 14 15  1  0
 15  8  1  0
  8  9  2  0
  9 10  1  0
 10 11  1  0
 10 12  2  0
 12  1  1  0
  1  2  2  0
  2  3  1  0
  3  4  1  0
  3  5  2  0
  5  6  1  0
  6 17  1  0
 17 19  1  0
 19 20  2  0
 20 21  1  0
 21 22  2  0
 22 23  1  0
 22 24  1  0
 24 25  2  0
  6  7  2  0
 12 13  1  0
 13  8  1  0
  7  1  1  0
 25 19  1  0
 15 16  1  0
 17 18  1  0
 23 26  1  0
M  END
> <minimizedAffinity>
-9.96189

> <CNNscore>
0.2538014948

> <CNNaffinity>
5.9186406136

> <CNN_VS>
1.5021598339

> <CNNaffinity_variance>
0.3697735369

$$$$



 26 28  0  0  0  0  0  0  0  0999 V2000
   -0.5942    9.1326   24.0365 C   0  0  0  0  0  0  0  0  0  0  0  0
   -1.4402    9.6444   23.0887 C   0  0  0  0  0  0  0  0  0  0  0  0
   -2.5474    8.8785   22.8546 C   0  0  0  0  0  0  0  0  0  0  0  0
   -3.7176    9.3693   21.6988 Cl  0  0  0  0  0  0  0  0  0  0  0  0
   -2.8281    7.7213   23.4666 N   0  0  0  0  0  0  0  0  0  0  0  0
   -1.9509    7.2977   24.3769 C   0  0  0  0  0  0  0  0  0  0  0  0
   -0.8332    7.9730   24.6822 N   0  0  0  0  0  0  0  0  0  0  0  0
    2.7927   10.4201   25.3944 C   0  0  0  0  0  0  0  0  0  0  0  0
    2.3374   11.4019   24.6529 N   0  0  0  0  0  0  0  0  0  0  0  0
    1.1241   11.0676   24.0718 C   0  0  0  0  0  0  0  0  0  0  0  0
    0.4957   12.0666   23.1665 C   0  0  0  0  0  0  0  0  0  0  0  0
    0.6432    9.8119   24.4088 C   0  0  0  0  0  0  0  0  0  0  0  0
    1.7716    9.0368   25.4455 S   0  0  0  0  0  0  0  0  0  0  0  0
    4.3641    9.6018   27.0750 C   0  0  0  0  0  0  0  0  0  0  0  0
    3.9807   10.5291   26.0355 N   0  0  0  0  0  0  0  0  0  0  0  0
    4.5965   11.2562   25.7878 H   0  0  0  0  0  0  0  0  0  0  0  0
   -2.1272    6.1124   25.0830 N   0  0  0  0  0  0  0  0  0  0  0  0
   -3.0565    5.7881   25.0624 H   0  0  0  0  0  0  0  0  0  0  0  0
   -1.2752    5.2795   25.8158 C   0  0  0  0  0  0  0  0  0  0  0  0
   -1.4419    3.8952   25.9305 C   0  0  0  0  0  0  0  0  0  0  0  0
   -0.5508    3.1176   26.6790 C   0  0  0  0  0  0  0  0  0  0  0  0
    0.5205    3.7197   27.3217 C   0  0  0  0  0  0  0  0  0  0  0  0
    1.3635    2.9256   28.0394 O   0  0  0  0  0  0  0  0  0  0  0  0
    0.7166    5.0902   27.2287 C   0  0  0  0  0  0  0  0  0  0  0  0
   -0.1788    5.8607   26.4787 C   0  0  0  0  0  0  0  0  0  0  0  0
    1.2102    2.0024   28.0873 H   0  0  0  0  0  0  0  0  0  0  0  0
 14 15  1  0
 15  8  1  0
  8  9  2  0
  9 10  1  0
 10 11  1  0
 10 12  2  0
 12  1  1  0
  1  2  2  0
  2  3  1  0
  3  4  1  0
  3  5  2  0
  5  6  1  0
  6 17  1  0
 17 19  1  0
 19 20  2  0
 20 21  1  0
 21 22  2  0
 22 23  1  0
 22 24  1  0
 24 25  2  0
  6  7  2  0
 12 13  1  0
 13  8  1  0
  7  1  1  0
 25 19  1  0
 15 16  1  0
 17 18  1  0
 23 26  1  0
M  END
> <minimizedAffinity>
-9.04658

> <CNNscore>
0.2438192517

> <CNNaffinity>
6.1559157372

> <CNN_VS>
1.5009307861

> <CNNaffinity_variance>
0.2199252844

$$$$
