


 27 28  0  0  0  0  0  0  0  0999 V2000
  -24.3123    7.0219  -13.5257 C   0  0  0  0  0  0  0  0  0  0  0  0
  -23.4023    7.7993  -12.7897 C   0  0  0  0  0  0  0  0  0  0  0  0
  -22.1422    8.0616  -13.3135 C   0  0  0  0  0  0  0  0  0  0  0  0
  -20.9016    9.0742  -12.3084 Br  0  0  0  0  0  0  0  0  0  0  0  0
  -21.7884    7.5766  -14.5689 C   0  0  0  0  0  0  0  0  0  0  0  0
  -22.7074    6.8346  -15.3190 C   0  0  0  0  0  0  0  0  0  0  0  0
  -23.9860    6.5607  -14.8214 C   0  0  0  0  0  0  0  0  0  0  0  0
  -29.7102    7.4402  -10.8617 C   0  0  0  0  0  0  0  0  0  0  0  0
  -28.3111    7.8098  -11.3471 C   0  0  0  0  0  0  0  0  0  0  0  0
  -28.1247    9.3373  -11.3736 C   0  0  0  0  0  0  0  0  0  0  0  0
  -26.7492    9.7226  -11.9479 C   0  0  0  0  0  0  0  0  0  0  0  0
  -26.6119   11.2398  -12.0499 C   0  0  0  0  0  0  0  0  0  0  0  0
  -26.5308    9.0595  -13.3189 C   0  0  0  0  0  0  0  0  0  0  0  0
  -26.7153    7.6093  -13.2134 N   0  0  0  0  0  0  0  0  0  0  0  0
  -25.6508    6.7437  -12.9376 C   0  0  0  0  0  0  0  0  0  0  0  0
  -25.7620    5.7490  -12.2199 O   0  0  0  0  0  0  0  0  0  0  0  0
  -28.0391    7.2166  -12.7353 C   0  0  0  0  0  0  0  0  0  0  0  0
  -24.9628    5.8580  -15.5701 N   0  0  0  0  0  0  0  0  0  0  0  0
  -25.6653    6.2875  -16.6795 C   0  0  0  0  0  0  0  0  0  0  0  0
  -25.5057    7.3463  -17.2762 O   0  0  0  0  0  0  0  0  0  0  0  0
  -25.1671    4.9464  -15.2597 H   0  0  0  0  0  0  0  0  0  0  0  0
  -26.6736    5.2574  -17.1486 C   0  0  0  0  0  0  0  0  0  0  0  0
  -27.5107    4.7369  -15.9880 C   0  0  0  0  0  0  0  0  0  0  0  0
  -26.9911    3.4149  -15.5037 C   0  0  0  0  0  0  0  0  0  0  0  0
  -26.9503    3.0183  -14.3521 O   0  0  0  0  0  0  0  0  0  0  0  0
  -26.5217    2.6521  -16.5100 O   0  0  0  0  0  0  0  0  0  0  0  0
  -26.5577    2.9661  -17.3920 H   0  0  0  0  0  0  0  0  0  0  0  0
  9  8  1  0
  9 10  1  0
 10 11  1  0
 11 12  1  0
 11 13  1  0
 13 14  1  0
 14 15  1  0
 15 16  2  0
 15  1  1  0
  1  2  2  0
  2  3  1  0
  3  4  1  0
  3  5  2  0
  5  6  1  0
  6  7  2  0
  7 18  1  0
 18 19  1  0
 19 20  2  0
 19 22  1  0
 22 23  1  0
 23 24  1  0
 24 25  2  0
 24 26  1  0
 14 17  1  0
 17  9  1  0
  7  1  1  0
 18 21  1  0
 26 27  1  0
M  END
> <minimizedAffinity>
-6.84494

> <CNNscore>
0.9468184710

> <CNNaffinity>
5.5559372902

> <CNN_VS>
5.2604641914

> <CNNaffinity_variance>
0.0641353577

$$$$



 27 28  0  0  0  0  0  0  0  0999 V2000
  -25.0082    7.6642  -13.1916 C   0  0  0  0  0  0  0  0  0  0  0  0
  -23.8359    8.3083  -12.7612 C   0  0  0  0  0  0  0  0  0  0  0  0
  -22.6996    8.2727  -13.5602 C   0  0  0  0  0  0  0  0  0  0  0  0
  -21.1093    9.1047  -12.9659 Br  0  0  0  0  0  0  0  0  0  0  0  0
  -22.7257    7.6220  -14.7900 C   0  0  0  0  0  0  0  0  0  0  0  0
  -23.9036    7.0129  -15.2367 C   0  0  0  0  0  0  0  0  0  0  0  0
  -25.0656    7.0387  -14.4579 C   0  0  0  0  0  0  0  0  0  0  0  0
  -29.8016    9.3673   -9.9465 C   0  0  0  0  0  0  0  0  0  0  0  0
  -28.5233    9.4446  -10.7769 C   0  0  0  0  0  0  0  0  0  0  0  0
  -28.3559   10.8427  -11.3982 C   0  0  0  0  0  0  0  0  0  0  0  0
  -27.1177   10.9039  -12.3112 C   0  0  0  0  0  0  0  0  0  0  0  0
  -27.0128   12.2682  -12.9887 C   0  0  0  0  0  0  0  0  0  0  0  0
  -27.1603    9.7754  -13.3561 C   0  0  0  0  0  0  0  0  0  0  0  0
  -27.3114    8.4777  -12.6916 N   0  0  0  0  0  0  0  0  0  0  0  0
  -26.2079    7.7051  -12.3121 C   0  0  0  0  0  0  0  0  0  0  0  0
  -26.1735    7.0486  -11.2707 O   0  0  0  0  0  0  0  0  0  0  0  0
  -28.5170    8.3713  -11.8728 C   0  0  0  0  0  0  0  0  0  0  0  0
  -26.2917    6.4796  -14.8964 N   0  0  0  0  0  0  0  0  0  0  0  0
  -26.8330    5.2478  -14.5830 C   0  0  0  0  0  0  0  0  0  0  0  0
  -26.3775    4.4346  -13.7868 O   0  0  0  0  0  0  0  0  0  0  0  0
  -26.8267    7.0414  -15.5025 H   0  0  0  0  0  0  0  0  0  0  0  0
  -28.1367    4.9961  -15.3145 C   0  0  0  0  0  0  0  0  0  0  0  0
  -28.1347    3.6318  -15.9910 C   0  0  0  0  0  0  0  0  0  0  0  0
  -27.0838    3.5660  -17.0603 C   0  0  0  0  0  0  0  0  0  0  0  0
  -27.0059    4.2611  -18.0583 O   0  0  0  0  0  0  0  0  0  0  0  0
  -26.1777    2.5972  -16.8257 O   0  0  0  0  0  0  0  0  0  0  0  0
  -26.2463    2.0681  -16.0554 H   0  0  0  0  0  0  0  0  0  0  0  0
  9  8  1  0
  9 10  1  0
 10 11  1  0
 11 12  1  0
 11 13  1  0
 13 14  1  0
 14 15  1  0
 15 16  2  0
 15  1  1  0
  1  2  2  0
  2  3  1  0
  3  4  1  0
  3  5  2  0
  5  6  1  0
  6  7  2  0
  7 18  1  0
 18 19  1  0
 19 20  2  0
 19 22  1  0
 22 23  1  0
 23 24  1  0
 24 25  2  0
 24 26  1  0
 14 17  1  0
 17  9  1  0
  7  1  1  0
 18 21  1  0
 26 27  1  0
M  END
> <minimizedAffinity>
-5.75023

> <CNNscore>
0.8987134099

> <CNNaffinity>
5.6370949745

> <CNN_VS>
5.0661330223

> <CNNaffinity_variance>
0.0404399559

$$$$



 27 28  0  0  0  0  0  0  0  0999 V2000
  -24.0030    8.6299  -13.9697 C   0  0  0  0  0  0  0  0  0  0  0  0
  -22.9766    9.2269  -13.2185 C   0  0  0  0  0  0  0  0  0  0  0  0
  -21.7334    8.6107  -13.1425 C   0  0  0  0  0  0  0  0  0  0  0  0
  -20.3625    9.3912  -12.1004 Br  0  0  0  0  0  0  0  0  0  0  0  0
  -21.4967    7.4201  -13.8230 C   0  0  0  0  0  0  0  0  0  0  0  0
  -22.5064    6.8447  -14.6022 C   0  0  0  0  0  0  0  0  0  0  0  0
  -23.7657    7.4457  -14.7042 C   0  0  0  0  0  0  0  0  0  0  0  0
  -29.8213   10.1041  -13.3516 C   0  0  0  0  0  0  0  0  0  0  0  0
  -28.5313    9.2887  -13.3242 C   0  0  0  0  0  0  0  0  0  0  0  0
  -28.6554    8.0969  -12.3582 C   0  0  0  0  0  0  0  0  0  0  0  0
  -27.3296    7.3212  -12.2544 C   0  0  0  0  0  0  0  0  0  0  0  0
  -27.4407    6.1960  -11.2284 C   0  0  0  0  0  0  0  0  0  0  0  0
  -26.1731    8.2724  -11.9011 C   0  0  0  0  0  0  0  0  0  0  0  0
  -26.1119    9.3733  -12.8668 N   0  0  0  0  0  0  0  0  0  0  0  0
  -25.3294    9.3023  -14.0249 C   0  0  0  0  0  0  0  0  0  0  0  0
  -25.6859    9.7709  -15.1066 O   0  0  0  0  0  0  0  0  0  0  0  0
  -27.3366   10.1678  -12.9336 C   0  0  0  0  0  0  0  0  0  0  0  0
  -24.7975    6.9233  -15.5232 N   0  0  0  0  0  0  0  0  0  0  0  0
  -25.6378    5.8569  -15.2679 C   0  0  0  0  0  0  0  0  0  0  0  0
  -25.6962    5.2097  -14.2285 O   0  0  0  0  0  0  0  0  0  0  0  0
  -24.9329    7.3791  -16.3853 H   0  0  0  0  0  0  0  0  0  0  0  0
  -26.5656    5.5717  -16.4323 C   0  0  0  0  0  0  0  0  0  0  0  0
  -25.8053    5.5544  -17.7515 C   0  0  0  0  0  0  0  0  0  0  0  0
  -25.8229    6.9090  -18.3974 C   0  0  0  0  0  0  0  0  0  0  0  0
  -26.7978    7.6075  -18.6139 O   0  0  0  0  0  0  0  0  0  0  0  0
  -24.5918    7.3155  -18.7632 O   0  0  0  0  0  0  0  0  0  0  0  0
  -23.8486    6.7711  -18.5921 H   0  0  0  0  0  0  0  0  0  0  0  0
  9  8  1  0
  9 10  1  0
 10 11  1  0
 11 12  1  0
 11 13  1  0
 13 14  1  0
 14 15  1  0
 15 16  2  0
 15  1  1  0
  1  2  2  0
  2  3  1  0
  3  4  1  0
  3  5  2  0
  5  6  1  0
  6  7  2  0
  7 18  1  0
 18 19  1  0
 19 20  2  0
 19 22  1  0
 22 23  1  0
 23 24  1  0
 24 25  2  0
 24 26  1  0
 14 17  1  0
 17  9  1  0
  7  1  1  0
 18 21  1  0
 26 27  1  0
M  END
> <minimizedAffinity>
-7.09103

> <CNNscore>
0.8729144931

> <CNNaffinity>
5.5052227974

> <CNN_VS>
4.8055887222

> <CNNaffinity_variance>
0.2429085374

$$$$



 27 28  0  0  0  0  0  0  0  0999 V2000
  -24.2711    8.8150  -13.9155 C   0  0  0  0  0  0  0  0  0  0  0  0
  -23.0537    9.4476  -13.6125 C   0  0  0  0  0  0  0  0  0  0  0  0
  -21.9596    8.6829  -13.2261 C   0  0  0  0  0  0  0  0  0  0  0  0
  -20.3316    9.5341  -12.7797 Br  0  0  0  0  0  0  0  0  0  0  0  0
  -22.0600    7.2965  -13.1596 C   0  0  0  0  0  0  0  0  0  0  0  0
  -23.2608    6.6629  -13.4979 C   0  0  0  0  0  0  0  0  0  0  0  0
  -24.3770    7.4055  -13.8978 C   0  0  0  0  0  0  0  0  0  0  0  0
  -29.4991   11.8217  -14.1049 C   0  0  0  0  0  0  0  0  0  0  0  0
  -28.4060   10.8611  -13.6447 C   0  0  0  0  0  0  0  0  0  0  0  0
  -28.5891   10.4906  -12.1621 C   0  0  0  0  0  0  0  0  0  0  0  0
  -27.4404    9.5946  -11.6640 C   0  0  0  0  0  0  0  0  0  0  0  0
  -27.5877    9.3068  -10.1718 C   0  0  0  0  0  0  0  0  0  0  0  0
  -26.0787   10.2444  -11.9646 C   0  0  0  0  0  0  0  0  0  0  0  0
  -25.9739   10.5596  -13.3922 N   0  0  0  0  0  0  0  0  0  0  0  0
  -25.4319    9.6566  -14.3139 C   0  0  0  0  0  0  0  0  0  0  0  0
  -25.8727    9.5156  -15.4553 O   0  0  0  0  0  0  0  0  0  0  0  0
  -27.0147   11.4649  -13.8741 C   0  0  0  0  0  0  0  0  0  0  0  0
  -25.5941    6.7999  -14.2981 N   0  0  0  0  0  0  0  0  0  0  0  0
  -25.8553    6.0781  -15.4468 C   0  0  0  0  0  0  0  0  0  0  0  0
  -25.0408    5.7561  -16.3043 O   0  0  0  0  0  0  0  0  0  0  0  0
  -26.3509    6.9074  -13.6778 H   0  0  0  0  0  0  0  0  0  0  0  0
  -27.3083    5.6551  -15.5351 C   0  0  0  0  0  0  0  0  0  0  0  0
  -27.4608    4.3711  -16.3395 C   0  0  0  0  0  0  0  0  0  0  0  0
  -27.1570    3.1698  -15.4928 C   0  0  0  0  0  0  0  0  0  0  0  0
  -27.0224    3.1388  -14.2820 O   0  0  0  0  0  0  0  0  0  0  0  0
  -27.0153    2.0502  -16.2285 O   0  0  0  0  0  0  0  0  0  0  0  0
  -27.1208    2.0846  -17.1589 H   0  0  0  0  0  0  0  0  0  0  0  0
  9  8  1  0
  9 10  1  0
 10 11  1  0
 11 12  1  0
 11 13  1  0
 13 14  1  0
 14 15  1  0
 15 16  2  0
 15  1  1  0
  1  2  2  0
  2  3  1  0
  3  4  1  0
  3  5  2  0
  5  6  1  0
  6  7  2  0
  7 18  1  0
 18 19  1  0
 19 20  2  0
 19 22  1  0
 22 23  1  0
 23 24  1  0
 24 25  2  0
 24 26  1  0
 14 17  1  0
 17  9  1  0
  7  1  1  0
 18 21  1  0
 26 27  1  0
M  END
> <minimizedAffinity>
-6.62838

> <CNNscore>
0.8605872393

> <CNNaffinity>
5.5045399666

> <CNN_VS>
4.7371368408

> <CNNaffinity_variance>
0.0138206603

$$$$



 27 28  0  0  0  0  0  0  0  0999 V2000
  -24.3414    6.9157  -13.6563 C   0  0  0  0  0  0  0  0  0  0  0  0
  -23.4634    7.6987  -12.8882 C   0  0  0  0  0  0  0  0  0  0  0  0
  -22.1960    7.9904  -13.3777 C   0  0  0  0  0  0  0  0  0  0  0  0
  -20.9981    9.0106  -12.3294 Br  0  0  0  0  0  0  0  0  0  0  0  0
  -21.8035    7.5290  -14.6305 C   0  0  0  0  0  0  0  0  0  0  0  0
  -22.6908    6.7813  -15.4125 C   0  0  0  0  0  0  0  0  0  0  0  0
  -23.9759    6.4782  -14.9498 C   0  0  0  0  0  0  0  0  0  0  0  0
  -29.7457    7.1691  -10.9844 C   0  0  0  0  0  0  0  0  0  0  0  0
  -28.3369    7.5580  -11.4245 C   0  0  0  0  0  0  0  0  0  0  0  0
  -28.1208    9.0764  -11.2953 C   0  0  0  0  0  0  0  0  0  0  0  0
  -26.7347    9.4905  -11.8222 C   0  0  0  0  0  0  0  0  0  0  0  0
  -26.5675   11.0073  -11.7693 C   0  0  0  0  0  0  0  0  0  0  0  0
  -26.5212    8.9655  -13.2525 C   0  0  0  0  0  0  0  0  0  0  0  0
  -26.7344    7.5160  -13.2953 N   0  0  0  0  0  0  0  0  0  0  0  0
  -25.6884    6.6060  -13.1046 C   0  0  0  0  0  0  0  0  0  0  0  0
  -25.8231    5.5461  -12.4919 O   0  0  0  0  0  0  0  0  0  0  0  0
  -28.0683    7.1032  -12.8646 C   0  0  0  0  0  0  0  0  0  0  0  0
  -24.9217    5.7689  -15.7313 N   0  0  0  0  0  0  0  0  0  0  0  0
  -25.6715    6.2293  -16.7964 C   0  0  0  0  0  0  0  0  0  0  0  0
  -25.5902    7.3351  -17.3189 O   0  0  0  0  0  0  0  0  0  0  0  0
  -25.0626    4.8266  -15.4831 H   0  0  0  0  0  0  0  0  0  0  0  0
  -26.6229    5.1724  -17.3218 C   0  0  0  0  0  0  0  0  0  0  0  0
  -26.2165    3.7822  -16.8518 C   0  0  0  0  0  0  0  0  0  0  0  0
  -25.1795    3.1913  -17.7617 C   0  0  0  0  0  0  0  0  0  0  0  0
  -24.3997    3.7951  -18.4775 O   0  0  0  0  0  0  0  0  0  0  0  0
  -25.1897    1.8445  -17.7394 O   0  0  0  0  0  0  0  0  0  0  0  0
  -25.7932    1.3896  -17.1855 H   0  0  0  0  0  0  0  0  0  0  0  0
  9  8  1  0
  9 10  1  0
 10 11  1  0
 11 12  1  0
 11 13  1  0
 13 14  1  0
 14 15  1  0
 15 16  2  0
 15  1  1  0
  1  2  2  0
  2  3  1  0
  3  4  1  0
  3  5  2  0
  5  6  1  0
  6  7  2  0
  7 18  1  0
 18 19  1  0
 19 20  2  0
 19 22  1  0
 22 23  1  0
 23 24  1  0
 24 25  2  0
 24 26  1  0
 14 17  1  0
 17  9  1  0
  7  1  1  0
 18 21  1  0
 26 27  1  0
M  END
> <minimizedAffinity>
-6.60200

> <CNNscore>
0.8282414079

> <CNNaffinity>
5.2061505318

> <CNN_VS>
4.3119492531

> <CNNaffinity_variance>
0.1992583722

$$$$



 27 28  0  0  0  0  0  0  0  0999 V2000
  -24.1548    8.6060  -13.9312 C   0  0  0  0  0  0  0  0  0  0  0  0
  -23.0356    9.2753  -13.4083 C   0  0  0  0  0  0  0  0  0  0  0  0
  -21.8019    8.6362  -13.3850 C   0  0  0  0  0  0  0  0  0  0  0  0
  -20.3024    9.5194  -12.6460 Br  0  0  0  0  0  0  0  0  0  0  0  0
  -21.6681    7.3486  -13.8956 C   0  0  0  0  0  0  0  0  0  0  0  0
  -22.7739    6.6957  -14.4512 C   0  0  0  0  0  0  0  0  0  0  0  0
  -24.0270    7.3164  -14.4958 C   0  0  0  0  0  0  0  0  0  0  0  0
  -29.9353   10.1575  -13.1646 C   0  0  0  0  0  0  0  0  0  0  0  0
  -28.6621    9.3165  -13.1983 C   0  0  0  0  0  0  0  0  0  0  0  0
  -28.8008    8.0740  -12.3006 C   0  0  0  0  0  0  0  0  0  0  0  0
  -27.4901    7.2675  -12.2561 C   0  0  0  0  0  0  0  0  0  0  0  0
  -27.6138    6.0878  -11.2948 C   0  0  0  0  0  0  0  0  0  0  0  0
  -26.3109    8.1737  -11.8622 C   0  0  0  0  0  0  0  0  0  0  0  0
  -26.2370    9.3267  -12.7641 N   0  0  0  0  0  0  0  0  0  0  0  0
  -25.4677    9.3067  -13.9330 C   0  0  0  0  0  0  0  0  0  0  0  0
  -25.8255    9.8434  -14.9822 O   0  0  0  0  0  0  0  0  0  0  0  0
  -27.4457   10.1478  -12.7716 C   0  0  0  0  0  0  0  0  0  0  0  0
  -25.1587    6.7107  -15.0961 N   0  0  0  0  0  0  0  0  0  0  0  0
  -25.3588    6.3978  -16.4268 C   0  0  0  0  0  0  0  0  0  0  0  0
  -24.5415    6.5163  -17.3326 O   0  0  0  0  0  0  0  0  0  0  0  0
  -25.8976    6.4835  -14.4864 H   0  0  0  0  0  0  0  0  0  0  0  0
  -26.7377    5.8186  -16.6742 C   0  0  0  0  0  0  0  0  0  0  0  0
  -27.2614    5.0955  -15.4407 C   0  0  0  0  0  0  0  0  0  0  0  0
  -26.8429    3.6542  -15.4471 C   0  0  0  0  0  0  0  0  0  0  0  0
  -26.4356    3.0112  -16.3988 O   0  0  0  0  0  0  0  0  0  0  0  0
  -26.9797    3.0783  -14.2370 O   0  0  0  0  0  0  0  0  0  0  0  0
  -27.2937    3.5813  -13.5115 H   0  0  0  0  0  0  0  0  0  0  0  0
  9  8  1  0
  9 10  1  0
 10 11  1  0
 11 12  1  0
 11 13  1  0
 13 14  1  0
 14 15  1  0
 15 16  2  0
 15  1  1  0
  1  2  2  0
  2  3  1  0
  3  4  1  0
  3  5  2  0
  5  6  1  0
  6  7  2  0
  7 18  1  0
 18 19  1  0
 19 20  2  0
 19 22  1  0
 22 23  1  0
 23 24  1  0
 24 25  2  0
 24 26  1  0
 14 17  1  0
 17  9  1  0
  7  1  1  0
 18 21  1  0
 26 27  1  0
M  END
> <minimizedAffinity>
-6.77243

> <CNNscore>
0.8171694279

> <CNNaffinity>
5.4373440742

> <CNN_VS>
4.4432315826

> <CNNaffinity_variance>
0.0386926979

$$$$



 27 28  0  0  0  0  0  0  0  0999 V2000
  -25.0041    7.7826  -13.4471 C   0  0  0  0  0  0  0  0  0  0  0  0
  -23.8069    8.3042  -12.9287 C   0  0  0  0  0  0  0  0  0  0  0  0
  -22.6747    8.3554  -13.7327 C   0  0  0  0  0  0  0  0  0  0  0  0
  -21.0521    9.0202  -13.0257 Br  0  0  0  0  0  0  0  0  0  0  0  0
  -22.7288    7.9131  -15.0510 C   0  0  0  0  0  0  0  0  0  0  0  0
  -23.9303    7.4289  -15.5800 C   0  0  0  0  0  0  0  0  0  0  0  0
  -25.0886    7.3723  -14.7972 C   0  0  0  0  0  0  0  0  0  0  0  0
  -29.8099    9.1135  -10.0499 C   0  0  0  0  0  0  0  0  0  0  0  0
  -28.5382    9.2851  -10.8762 C   0  0  0  0  0  0  0  0  0  0  0  0
  -28.4008   10.7336  -11.3781 C   0  0  0  0  0  0  0  0  0  0  0  0
  -27.1694   10.8954  -12.2880 C   0  0  0  0  0  0  0  0  0  0  0  0
  -27.0942   12.3136  -12.8485 C   0  0  0  0  0  0  0  0  0  0  0  0
  -27.1967    9.8582  -13.4240 C   0  0  0  0  0  0  0  0  0  0  0  0
  -27.3194    8.5065  -12.8707 N   0  0  0  0  0  0  0  0  0  0  0  0
  -26.1993    7.7262  -12.5623 C   0  0  0  0  0  0  0  0  0  0  0  0
  -26.1463    6.9851  -11.5801 O   0  0  0  0  0  0  0  0  0  0  0  0
  -28.5179    8.3083  -12.0587 C   0  0  0  0  0  0  0  0  0  0  0  0
  -26.3364    6.9379  -15.3096 N   0  0  0  0  0  0  0  0  0  0  0  0
  -26.6522    5.7191  -15.8783 C   0  0  0  0  0  0  0  0  0  0  0  0
  -25.9131    4.7453  -15.9683 O   0  0  0  0  0  0  0  0  0  0  0  0
  -27.0732    7.5884  -15.2529 H   0  0  0  0  0  0  0  0  0  0  0  0
  -28.0869    5.6729  -16.3655 C   0  0  0  0  0  0  0  0  0  0  0  0
  -28.8417    6.9373  -15.9778 C   0  0  0  0  0  0  0  0  0  0  0  0
  -29.9431    6.6268  -15.0067 C   0  0  0  0  0  0  0  0  0  0  0  0
  -30.1228    5.5801  -14.4091 O   0  0  0  0  0  0  0  0  0  0  0  0
  -30.7904    7.6621  -14.8488 O   0  0  0  0  0  0  0  0  0  0  0  0
  -30.6435    8.4628  -15.3129 H   0  0  0  0  0  0  0  0  0  0  0  0
  9  8  1  0
  9 10  1  0
 10 11  1  0
 11 12  1  0
 11 13  1  0
 13 14  1  0
 14 15  1  0
 15 16  2  0
 15  1  1  0
  1  2  2  0
  2  3  1  0
  3  4  1  0
  3  5  2  0
  5  6  1  0
  6  7  2  0
  7 18  1  0
 18 19  1  0
 19 20  2  0
 19 22  1  0
 22 23  1  0
 23 24  1  0
 24 25  2  0
 24 26  1  0
 14 17  1  0
 17  9  1  0
  7  1  1  0
 18 21  1  0
 26 27  1  0
M  END
> <minimizedAffinity>
-5.13410

> <CNNscore>
0.8164657354

> <CNNaffinity>
5.3533229828

> <CNN_VS>
4.3708047867

> <CNNaffinity_variance>
0.1957936734

$$$$



 27 28  0  0  0  0  0  0  0  0999 V2000
  -24.2683    6.8921  -13.7695 C   0  0  0  0  0  0  0  0  0  0  0  0
  -23.4281    7.6558  -12.9418 C   0  0  0  0  0  0  0  0  0  0  0  0
  -22.1544    7.9951  -13.3816 C   0  0  0  0  0  0  0  0  0  0  0  0
  -21.0072    8.9889  -12.2544 Br  0  0  0  0  0  0  0  0  0  0  0  0
  -21.7185    7.6006  -14.6429 C   0  0  0  0  0  0  0  0  0  0  0  0
  -22.5683    6.8727  -15.4831 C   0  0  0  0  0  0  0  0  0  0  0  0
  -23.8587    6.5228  -15.0711 C   0  0  0  0  0  0  0  0  0  0  0  0
  -29.7279    6.8981  -11.2003 C   0  0  0  0  0  0  0  0  0  0  0  0
  -28.3147    7.3313  -11.5807 C   0  0  0  0  0  0  0  0  0  0  0  0
  -28.1172    8.8378  -11.3350 C   0  0  0  0  0  0  0  0  0  0  0  0
  -26.7252    9.3023  -11.8007 C   0  0  0  0  0  0  0  0  0  0  0  0
  -26.5751   10.8124  -11.6323 C   0  0  0  0  0  0  0  0  0  0  0  0
  -26.4772    8.8867  -13.2611 C   0  0  0  0  0  0  0  0  0  0  0  0
  -26.6742    7.4425  -13.4155 N   0  0  0  0  0  0  0  0  0  0  0  0
  -25.6228    6.5303  -13.2707 C   0  0  0  0  0  0  0  0  0  0  0  0
  -25.7588    5.4268  -12.7409 O   0  0  0  0  0  0  0  0  0  0  0  0
  -28.0122    6.9869  -13.0445 C   0  0  0  0  0  0  0  0  0  0  0  0
  -24.7678    5.8321  -15.9106 N   0  0  0  0  0  0  0  0  0  0  0  0
  -24.5163    5.2096  -17.1180 C   0  0  0  0  0  0  0  0  0  0  0  0
  -23.4207    5.0703  -17.6500 O   0  0  0  0  0  0  0  0  0  0  0  0
  -25.6985    5.7904  -15.5923 H   0  0  0  0  0  0  0  0  0  0  0  0
  -25.7769    4.6409  -17.7387 C   0  0  0  0  0  0  0  0  0  0  0  0
  -26.2779    5.5222  -18.8750 C   0  0  0  0  0  0  0  0  0  0  0  0
  -25.9561    6.9649  -18.6153 C   0  0  0  0  0  0  0  0  0  0  0  0
  -26.5977    7.7512  -17.9407 O   0  0  0  0  0  0  0  0  0  0  0  0
  -24.8325    7.3580  -19.2459 O   0  0  0  0  0  0  0  0  0  0  0  0
  -24.3463    6.7457  -19.7622 H   0  0  0  0  0  0  0  0  0  0  0  0
  9  8  1  0
  9 10  1  0
 10 11  1  0
 11 12  1  0
 11 13  1  0
 13 14  1  0
 14 15  1  0
 15 16  2  0
 15  1  1  0
  1  2  2  0
  2  3  1  0
  3  4  1  0
  3  5  2  0
  5  6  1  0
  6  7  2  0
  7 18  1  0
 18 19  1  0
 19 20  2  0
 19 22  1  0
 22 23  1  0
 23 24  1  0
 24 25  2  0
 24 26  1  0
 14 17  1  0
 17  9  1  0
  7  1  1  0
 18 21  1  0
 26 27  1  0
M  END
> <minimizedAffinity>
-7.01082

> <CNNscore>
0.7956733108

> <CNNaffinity>
5.6680645943

> <CNN_VS>
4.5099277496

> <CNNaffinity_variance>
0.4691082537

$$$$



 27 28  0  0  0  0  0  0  0  0999 V2000
  -24.8499    9.1084  -13.8478 C   0  0  0  0  0  0  0  0  0  0  0  0
  -23.5153    9.4893  -13.6292 C   0  0  0  0  0  0  0  0  0  0  0  0
  -22.5675    8.5226  -13.3156 C   0  0  0  0  0  0  0  0  0  0  0  0
  -20.7790    9.0368  -12.9821 Br  0  0  0  0  0  0  0  0  0  0  0  0
  -22.9308    7.1815  -13.2392 C   0  0  0  0  0  0  0  0  0  0  0  0
  -24.2517    6.7967  -13.4942 C   0  0  0  0  0  0  0  0  0  0  0  0
  -25.2264    7.7461  -13.8197 C   0  0  0  0  0  0  0  0  0  0  0  0
  -29.5706   12.8664  -13.8274 C   0  0  0  0  0  0  0  0  0  0  0  0
  -28.6597   11.6962  -13.4662 C   0  0  0  0  0  0  0  0  0  0  0  0
  -28.9947   11.1513  -12.0663 C   0  0  0  0  0  0  0  0  0  0  0  0
  -28.0223   10.0306  -11.6554 C   0  0  0  0  0  0  0  0  0  0  0  0
  -28.3109    9.5597  -10.2319 C   0  0  0  0  0  0  0  0  0  0  0  0
  -26.5645   10.5033  -11.7910 C   0  0  0  0  0  0  0  0  0  0  0  0
  -26.3184   10.9981  -13.1485 N   0  0  0  0  0  0  0  0  0  0  0  0
  -25.8489   10.1636  -14.1691 C   0  0  0  0  0  0  0  0  0  0  0  0
  -26.2261   10.2539  -15.3380 O   0  0  0  0  0  0  0  0  0  0  0  0
  -27.1841   12.1094  -13.5370 C   0  0  0  0  0  0  0  0  0  0  0  0
  -26.5619    7.3926  -14.1355 N   0  0  0  0  0  0  0  0  0  0  0  0
  -27.0520    6.8579  -15.3113 C   0  0  0  0  0  0  0  0  0  0  0  0
  -26.3908    6.5100  -16.2831 O   0  0  0  0  0  0  0  0  0  0  0  0
  -27.2260    7.5481  -13.4256 H   0  0  0  0  0  0  0  0  0  0  0  0
  -28.5576    6.6855  -15.2742 C   0  0  0  0  0  0  0  0  0  0  0  0
  -29.1761    7.4851  -14.1355 C   0  0  0  0  0  0  0  0  0  0  0  0
  -29.4853    6.5983  -12.9648 C   0  0  0  0  0  0  0  0  0  0  0  0
  -28.8308    6.4730  -11.9445 O   0  0  0  0  0  0  0  0  0  0  0  0
  -30.6134    5.8855  -13.1492 O   0  0  0  0  0  0  0  0  0  0  0  0
  -31.1096    5.9892  -13.9373 H   0  0  0  0  0  0  0  0  0  0  0  0
  9  8  1  0
  9 10  1  0
 10 11  1  0
 11 12  1  0
 11 13  1  0
 13 14  1  0
 14 15  1  0
 15 16  2  0
 15  1  1  0
  1  2  2  0
  2  3  1  0
  3  4  1  0
  3  5  2  0
  5  6  1  0
  6  7  2  0
  7 18  1  0
 18 19  1  0
 19 20  2  0
 19 22  1  0
 22 23  1  0
 23 24  1  0
 24 25  2  0
 24 26  1  0
 14 17  1  0
 17  9  1  0
  7  1  1  0
 18 21  1  0
 26 27  1  0
M  END
> <minimizedAffinity>
-5.64328

> <CNNscore>
0.7048594356

> <CNNaffinity>
5.0699601173

> <CNN_VS>
3.5736091137

> <CNNaffinity_variance>
0.1369422674

$$$$
