


 14 14  0  0  0  0  0  0  0  0999 V2000
   15.6634    3.9142   16.0857 C   0  0  0  0  0  0  0  0  0  0  0  0
   14.8015    4.9668   15.7640 C   0  0  0  0  0  0  0  0  0  0  0  0
   15.3083    6.0890   15.1021 C   0  0  0  0  0  0  0  0  0  0  0  0
   16.6635    6.1500   14.7692 C   0  0  0  0  0  0  0  0  0  0  0  0
   17.2789    7.5343   13.9550 Cl  0  0  0  0  0  0  0  0  0  0  0  0
   17.5194    5.0999   15.0912 C   0  0  0  0  0  0  0  0  0  0  0  0
   17.0111    3.9842   15.7502 C   0  0  0  0  0  0  0  0  0  0  0  0
   17.8489    2.9836   16.0519 F   0  0  0  0  0  0  0  0  0  0  0  0
   15.5469    1.2018   15.8929 N   0  0  0  0  0  0  0  0  0  0  0  0
   15.1115    2.4707   16.9148 S   0  0  0  0  0  0  0  0  0  0  0  0
   15.9145    2.2772   18.0986 O   0  0  0  0  0  0  0  0  0  0  0  0
   13.6683    2.4575   16.9177 O   0  0  0  0  0  0  0  0  0  0  0  0
   15.2575    0.3162   16.3081 H   0  0  0  0  0  0  0  0  0  0  0  0
   16.5586    1.2018   15.7629 H   0  0  0  0  0  0  0  0  0  0  0  0
  9 10  1  0
 10 11  2  0
 10 12  2  0
 10  1  1  0
  1  2  2  0
  2  3  1  0
  3  4  2  0
  4  5  1  0
  4  6  1  0
  6  7  2  0
  7  8  1  0
  7  1  1  0
  9 13  1  0
  9 14  1  0
M  END
> <minimizedAffinity>
-7.41798

> <CNNscore>
0.9707247615

> <CNNaffinity>
6.7617034912

> <CNN_VS>
6.5637531281

> <CNNaffinity_variance>
0.9176890254

$$$$



 14 14  0  0  0  0  0  0  0  0999 V2000
   15.6893    3.8077   16.0318 C   0  0  0  0  0  0  0  0  0  0  0  0
   16.8778    3.7623   15.2972 C   0  0  0  0  0  0  0  0  0  0  0  0
   17.2876    4.8945   14.5868 C   0  0  0  0  0  0  0  0  0  0  0  0
   16.5113    6.0553   14.6159 C   0  0  0  0  0  0  0  0  0  0  0  0
   17.0226    7.4438   13.7391 Cl  0  0  0  0  0  0  0  0  0  0  0  0
   15.3279    6.0973   15.3484 C   0  0  0  0  0  0  0  0  0  0  0  0
   14.9232    4.9680   16.0545 C   0  0  0  0  0  0  0  0  0  0  0  0
   13.7822    5.0264   16.7537 F   0  0  0  0  0  0  0  0  0  0  0  0
   15.5367    1.0903   16.0293 N   0  0  0  0  0  0  0  0  0  0  0  0
   15.1020    2.4341   16.9506 S   0  0  0  0  0  0  0  0  0  0  0  0
   15.8813    2.3146   18.1597 O   0  0  0  0  0  0  0  0  0  0  0  0
   13.6589    2.4404   16.9278 O   0  0  0  0  0  0  0  0  0  0  0  0
   15.2272    0.2403   16.5007 H   0  0  0  0  0  0  0  0  0  0  0  0
   16.5504    1.0676   15.9182 H   0  0  0  0  0  0  0  0  0  0  0  0
  9 10  1  0
 10 11  2  0
 10 12  2  0
 10  1  1  0
  1  2  2  0
  2  3  1  0
  3  4  2  0
  4  5  1  0
  4  6  1  0
  6  7  2  0
  7  8  1  0
  7  1  1  0
  9 13  1  0
  9 14  1  0
M  END
> <minimizedAffinity>
-7.09826

> <CNNscore>
0.9699055552

> <CNNaffinity>
7.1454129219

> <CNN_VS>
6.9303755760

> <CNNaffinity_variance>
1.6838750839

$$$$



 14 14  0  0  0  0  0  0  0  0999 V2000
   15.4188    3.8085   15.6741 C   0  0  0  0  0  0  0  0  0  0  0  0
   16.3380    3.6665   14.6305 C   0  0  0  0  0  0  0  0  0  0  0  0
   16.6402    4.7713   13.8290 C   0  0  0  0  0  0  0  0  0  0  0  0
   16.0255    6.0011   14.0753 C   0  0  0  0  0  0  0  0  0  0  0  0
   16.4029    7.3554   13.0846 Cl  0  0  0  0  0  0  0  0  0  0  0  0
   15.1102    6.1392   15.1156 C   0  0  0  0  0  0  0  0  0  0  0  0
   14.8119    5.0369   15.9114 C   0  0  0  0  0  0  0  0  0  0  0  0
   13.9293    5.1881   16.9076 F   0  0  0  0  0  0  0  0  0  0  0  0
   15.6714    2.8671   18.2154 N   0  0  0  0  0  0  0  0  0  0  0  0
   14.9824    2.4753   16.7269 S   0  0  0  0  0  0  0  0  0  0  0  0
   13.5589    2.5141   16.9626 O   0  0  0  0  0  0  0  0  0  0  0  0
   15.6891    1.2921   16.2983 O   0  0  0  0  0  0  0  0  0  0  0  0
   15.4609    2.1328   18.8913 H   0  0  0  0  0  0  0  0  0  0  0  0
   15.2876    3.7528   18.5451 H   0  0  0  0  0  0  0  0  0  0  0  0
  9 10  1  0
 10 11  2  0
 10 12  2  0
 10  1  1  0
  1  2  2  0
  2  3  1  0
  3  4  2  0
  4  5  1  0
  4  6  1  0
  6  7  2  0
  7  8  1  0
  7  1  1  0
  9 13  1  0
  9 14  1  0
M  END
> <minimizedAffinity>
-6.30186

> <CNNscore>
0.9313183427

> <CNNaffinity>
6.2296366692

> <CNN_VS>
5.8017749786

> <CNNaffinity_variance>
0.2966370881

$$$$



 14 14  0  0  0  0  0  0  0  0999 V2000
   17.0745    4.6548   15.1460 C   0  0  0  0  0  0  0  0  0  0  0  0
   18.4241    5.0185   15.1234 C   0  0  0  0  0  0  0  0  0  0  0  0
   18.7815    6.2971   14.6853 C   0  0  0  0  0  0  0  0  0  0  0  0
   17.7939    7.1960   14.2759 C   0  0  0  0  0  0  0  0  0  0  0  0
   18.2423    8.7670   13.7384 Cl  0  0  0  0  0  0  0  0  0  0  0  0
   16.4505    6.8306   14.2996 C   0  0  0  0  0  0  0  0  0  0  0  0
   16.0985    5.5567   14.7364 C   0  0  0  0  0  0  0  0  0  0  0  0
   14.8015    5.2224   14.7525 F   0  0  0  0  0  0  0  0  0  0  0  0
   16.3970    2.1713   14.2622 N   0  0  0  0  0  0  0  0  0  0  0  0
   16.5388    3.0726   15.6804 S   0  0  0  0  0  0  0  0  0  0  0  0
   17.6114    2.4389   16.4093 O   0  0  0  0  0  0  0  0  0  0  0  0
   15.1889    3.1814   16.1796 O   0  0  0  0  0  0  0  0  0  0  0  0
   16.0859    1.2268   14.4893 H   0  0  0  0  0  0  0  0  0  0  0  0
   17.3026    2.1279   13.7949 H   0  0  0  0  0  0  0  0  0  0  0  0
  9 10  1  0
 10 11  2  0
 10 12  2  0
 10  1  1  0
  1  2  2  0
  2  3  1  0
  3  4  2  0
  4  5  1  0
  4  6  1  0
  6  7  2  0
  7  8  1  0
  7  1  1  0
  9 13  1  0
  9 14  1  0
M  END
> <minimizedAffinity>
-5.60653

> <CNNscore>
0.8993704319

> <CNNaffinity>
6.3055343628

> <CNN_VS>
5.6710109711

> <CNNaffinity_variance>
0.7886938453

$$$$



 14 14  0  0  0  0  0  0  0  0999 V2000
   16.2893    4.3067   15.2670 C   0  0  0  0  0  0  0  0  0  0  0  0
   15.4717    5.3816   15.6282 C   0  0  0  0  0  0  0  0  0  0  0  0
   15.3371    6.4638   14.7535 C   0  0  0  0  0  0  0  0  0  0  0  0
   16.0161    6.4633   13.5329 C   0  0  0  0  0  0  0  0  0  0  0  0
   15.8450    7.7986   12.4626 Cl  0  0  0  0  0  0  0  0  0  0  0  0
   16.8298    5.3911   13.1761 C   0  0  0  0  0  0  0  0  0  0  0  0
   16.9614    4.3154   14.0496 C   0  0  0  0  0  0  0  0  0  0  0  0
   17.7482    3.2927   13.6900 F   0  0  0  0  0  0  0  0  0  0  0  0
   15.8128    1.6336   15.4540 N   0  0  0  0  0  0  0  0  0  0  0  0
   16.5143    2.9102   16.3038 S   0  0  0  0  0  0  0  0  0  0  0  0
   17.9202    2.5870   16.3520 O   0  0  0  0  0  0  0  0  0  0  0  0
   15.6891    3.0634   17.4780 O   0  0  0  0  0  0  0  0  0  0  0  0
   15.9028    0.7742   15.9960 H   0  0  0  0  0  0  0  0  0  0  0  0
   16.2861    1.5212   14.5574 H   0  0  0  0  0  0  0  0  0  0  0  0
  9 10  1  0
 10 11  2  0
 10 12  2  0
 10  1  1  0
  1  2  2  0
  2  3  1  0
  3  4  2  0
  4  5  1  0
  4  6  1  0
  6  7  2  0
  7  8  1  0
  7  1  1  0
  9 13  1  0
  9 14  1  0
M  END
> <minimizedAffinity>
-5.60059

> <CNNscore>
0.8587151170

> <CNNaffinity>
5.9971184731

> <CNN_VS>
5.1498165131

> <CNNaffinity_variance>
0.3430440724

$$$$



 14 14  0  0  0  0  0  0  0  0999 V2000
   16.0933    3.7076   14.8601 C   0  0  0  0  0  0  0  0  0  0  0  0
   16.3529    4.2685   13.6062 C   0  0  0  0  0  0  0  0  0  0  0  0
   15.8490    5.5375   13.3060 C   0  0  0  0  0  0  0  0  0  0  0  0
   15.0946    6.2312   14.2549 C   0  0  0  0  0  0  0  0  0  0  0  0
   14.4783    7.7919   13.8775 Cl  0  0  0  0  0  0  0  0  0  0  0  0
   14.8377    5.6697   15.5030 C   0  0  0  0  0  0  0  0  0  0  0  0
   15.3411    4.4061   15.7982 C   0  0  0  0  0  0  0  0  0  0  0  0
   15.0841    3.8815   17.0037 F   0  0  0  0  0  0  0  0  0  0  0  0
   15.3652    1.3693   16.0474 N   0  0  0  0  0  0  0  0  0  0  0  0
   16.6866    2.1223   15.3190 S   0  0  0  0  0  0  0  0  0  0  0  0
   16.9316    1.3521   14.1231 O   0  0  0  0  0  0  0  0  0  0  0  0
   17.6507    2.2751   16.3822 O   0  0  0  0  0  0  0  0  0  0  0  0
   15.6308    0.4309   16.3463 H   0  0  0  0  0  0  0  0  0  0  0  0
   14.5974    1.3085   15.3788 H   0  0  0  0  0  0  0  0  0  0  0  0
  9 10  1  0
 10 11  2  0
 10 12  2  0
 10  1  1  0
  1  2  2  0
  2  3  1  0
  3  4  2  0
  4  5  1  0
  4  6  1  0
  6  7  2  0
  7  8  1  0
  7  1  1  0
  9 13  1  0
  9 14  1  0
M  END
> <minimizedAffinity>
-4.92814

> <CNNscore>
0.7732018828

> <CNNaffinity>
6.5453515053

> <CNN_VS>
5.0608782768

> <CNNaffinity_variance>
1.4560360909

$$$$



 14 14  0  0  0  0  0  0  0  0999 V2000
   17.1873    4.9723   15.0891 C   0  0  0  0  0  0  0  0  0  0  0  0
   17.4229    3.8272   15.8557 C   0  0  0  0  0  0  0  0  0  0  0  0
   16.3447    3.1736   16.4595 C   0  0  0  0  0  0  0  0  0  0  0  0
   15.0483    3.6663   16.2937 C   0  0  0  0  0  0  0  0  0  0  0  0
   13.7274    2.8562   17.0401 Cl  0  0  0  0  0  0  0  0  0  0  0  0
   14.8170    4.8072   15.5296 C   0  0  0  0  0  0  0  0  0  0  0  0
   15.8930    5.4552   14.9300 C   0  0  0  0  0  0  0  0  0  0  0  0
   15.6520    6.5511   14.1985 F   0  0  0  0  0  0  0  0  0  0  0  0
   19.8443    5.5425   15.2401 N   0  0  0  0  0  0  0  0  0  0  0  0
   18.4810    5.8529   14.2974 S   0  0  0  0  0  0  0  0  0  0  0  0
   18.7642    5.2249   13.0290 O   0  0  0  0  0  0  0  0  0  0  0  0
   18.2449    7.2683   14.4529 O   0  0  0  0  0  0  0  0  0  0  0  0
   20.6501    6.0248   14.8419 H   0  0  0  0  0  0  0  0  0  0  0  0
   20.0238    4.5386   15.2582 H   0  0  0  0  0  0  0  0  0  0  0  0
  9 10  1  0
 10 11  2  0
 10 12  2  0
 10  1  1  0
  1  2  2  0
  2  3  1  0
  3  4  2  0
  4  5  1  0
  4  6  1  0
  6  7  2  0
  7  8  1  0
  7  1  1  0
  9 13  1  0
  9 14  1  0
M  END
> <minimizedAffinity>
-6.14929

> <CNNscore>
0.5521650314

> <CNNaffinity>
4.2554130554

> <CNN_VS>
2.3496901989

> <CNNaffinity_variance>
0.4040670097

$$$$



 14 14  0  0  0  0  0  0  0  0999 V2000
   16.2838    3.3902   14.3953 C   0  0  0  0  0  0  0  0  0  0  0  0
   16.4283    2.3533   15.3218 C   0  0  0  0  0  0  0  0  0  0  0  0
   15.9803    2.5391   16.6330 C   0  0  0  0  0  0  0  0  0  0  0  0
   15.3953    3.7516   17.0054 C   0  0  0  0  0  0  0  0  0  0  0  0
   14.8467    3.9719   18.6204 Cl  0  0  0  0  0  0  0  0  0  0  0  0
   15.2529    4.7825   16.0801 C   0  0  0  0  0  0  0  0  0  0  0  0
   15.7002    4.5937   14.7756 C   0  0  0  0  0  0  0  0  0  0  0  0
   15.5550    5.5961   13.8990 F   0  0  0  0  0  0  0  0  0  0  0  0
   16.7595    1.5869   12.4131 N   0  0  0  0  0  0  0  0  0  0  0  0
   16.8180    3.2419   12.7315 S   0  0  0  0  0  0  0  0  0  0  0  0
   15.8144    3.8151   11.8668 O   0  0  0  0  0  0  0  0  0  0  0  0
   18.2199    3.5775   12.6601 O   0  0  0  0  0  0  0  0  0  0  0  0
   17.0590    1.4145   11.4534 H   0  0  0  0  0  0  0  0  0  0  0  0
   15.8046    1.2503   12.5369 H   0  0  0  0  0  0  0  0  0  0  0  0
  9 10  1  0
 10 11  2  0
 10 12  2  0
 10  1  1  0
  1  2  2  0
  2  3  1  0
  3  4  2  0
  4  5  1  0
  4  6  1  0
  6  7  2  0
  7  8  1  0
  7  1  1  0
  9 13  1  0
  9 14  1  0
M  END
> <minimizedAffinity>
-5.90513

> <CNNscore>
0.5056360364

> <CNNaffinity>
4.3020567894

> <CNN_VS>
2.1752748489

> <CNNaffinity_variance>
0.4175705612

$$$$



 14 14  0  0  0  0  0  0  0  0999 V2000
   16.2690    3.9406   14.4567 C   0  0  0  0  0  0  0  0  0  0  0  0
   16.8479    3.0239   15.3392 C   0  0  0  0  0  0  0  0  0  0  0  0
   16.4147    2.9850   16.6678 C   0  0  0  0  0  0  0  0  0  0  0  0
   15.4131    3.8568   17.1011 C   0  0  0  0  0  0  0  0  0  0  0  0
   14.8859    3.8024   18.7373 Cl  0  0  0  0  0  0  0  0  0  0  0  0
   14.8385    4.7688   16.2195 C   0  0  0  0  0  0  0  0  0  0  0  0
   15.2725    4.8045   14.8975 C   0  0  0  0  0  0  0  0  0  0  0  0
   14.7086    5.6881   14.0635 F   0  0  0  0  0  0  0  0  0  0  0  0
   17.1691    5.6769   12.5639 N   0  0  0  0  0  0  0  0  0  0  0  0
   16.7526    4.0565   12.7749 S   0  0  0  0  0  0  0  0  0  0  0  0
   17.9901    3.3356   12.5949 O   0  0  0  0  0  0  0  0  0  0  0  0
   15.5896    3.8676   11.9412 O   0  0  0  0  0  0  0  0  0  0  0  0
   17.4654    5.8291   11.5998 H   0  0  0  0  0  0  0  0  0  0  0  0
   17.9328    5.9167   13.1961 H   0  0  0  0  0  0  0  0  0  0  0  0
  9 10  1  0
 10 11  2  0
 10 12  2  0
 10  1  1  0
  1  2  2  0
  2  3  1  0
  3  4  2  0
  4  5  1  0
  4  6  1  0
  6  7  2  0
  7  8  1  0
  7  1  1  0
  9 13  1  0
  9 14  1  0
M  END
> <minimizedAffinity>
-5.57154

> <CNNscore>
0.4798659384

> <CNNaffinity>
3.7618210316

> <CNN_VS>
1.8051698208

> <CNNaffinity_variance>
0.9857272506

$$$$
