


 24 24  0  0  0  0  0  0  0  0999 V2000
   18.6812   69.4253   20.3084 C   0  0  0  0  0  0  0  0  0  0  0  0
   17.3973   70.0423   20.6966 N   0  0  0  0  0  0  0  0  0  0  0  0
   17.0130   70.5552   19.9031 H   0  0  0  0  0  0  0  0  0  0  0  0
   17.5500   70.6840   21.4746 H   0  0  0  0  0  0  0  0  0  0  0  0
   19.7351   70.5111   19.9263 C   0  0  0  0  0  0  0  0  0  0  0  0
   19.2363   71.7319   19.0134 N   0  0  0  0  0  0  0  0  0  0  0  0
   18.2480   71.2207   17.9864 C   0  0  0  0  0  0  0  0  0  0  0  0
   18.5448   72.7300   19.9366 C   0  0  0  0  0  0  0  0  0  0  0  0
   20.5335   72.2836   18.4315 C   0  0  0  0  0  0  0  0  0  0  0  0
   22.6150   72.1652   16.9735 C   0  0  0  0  0  0  0  0  0  0  0  0
   21.1604   71.7260   17.1678 N   0  0  0  0  0  0  0  0  0  0  0  0
   20.3785   72.3836   15.9879 C   0  0  0  0  0  0  0  0  0  0  0  0
   21.0407   70.2298   16.9619 C   0  0  0  0  0  0  0  0  0  0  0  0
   18.4972   68.3753   19.1673 C   0  0  0  0  0  0  0  0  0  0  0  0
   17.7970   67.1409   19.5534 N   0  0  0  0  0  0  0  0  0  0  0  0
   16.4542   66.9956   19.2374 C   0  0  0  0  0  0  0  0  0  0  0  0
   15.7539   65.9270   19.6190 C   0  0  0  0  0  0  0  0  0  0  0  0
   14.4590   65.7640   19.2980 F   0  0  0  0  0  0  0  0  0  0  0  0
   16.4060   64.8685   20.4100 C   0  0  0  0  0  0  0  0  0  0  0  0
   15.8523   63.8226   20.7182 O   0  0  0  0  0  0  0  0  0  0  0  0
   17.7086   65.1287   20.7549 N   0  0  0  0  0  0  0  0  0  0  0  0
   18.4590   66.1935   20.3348 C   0  0  0  0  0  0  0  0  0  0  0  0
   19.6602   66.2721   20.5938 O   0  0  0  0  0  0  0  0  0  0  0  0
   18.1449   64.4884   21.3623 H   0  0  0  0  0  0  0  0  0  0  0  0
 10 11  1  0
 11 12  1  0
 11 13  1  0
 11  9  1  0
  9  6  1  0
  6  7  1  0
  6  8  1  0
  6  5  1  0
  5  1  1  0
  1  2  1  0
  1 14  1  0
 14 15  1  0
 15 16  1  0
 16 17  2  0
 17 18  1  0
 17 19  1  0
 19 20  2  0
 19 21  1  0
 21 22  1  0
 22 23  2  0
 22 15  1  0
  2  3  1  0
  2  4  1  0
 21 24  1  0
M  CHG 1   6   1
M  CHG 1  11   1
M  END
> <minimizedAffinity>
-4.55790

> <CNNscore>
0.4323875308

> <CNNaffinity>
4.3754792213

> <CNN_VS>
1.8919026852

> <CNNaffinity_variance>
0.2951813340

$$$$



 24 24  0  0  0  0  0  0  0  0999 V2000
   17.6385   69.3875   20.5905 C   0  0  0  0  0  0  0  0  0  0  0  0
   17.2471   68.8602   21.9128 N   0  0  0  0  0  0  0  0  0  0  0  0
   16.4086   68.2874   21.8157 H   0  0  0  0  0  0  0  0  0  0  0  0
   17.0569   69.6369   22.5459 H   0  0  0  0  0  0  0  0  0  0  0  0
   16.5296   70.3158   20.0036 C   0  0  0  0  0  0  0  0  0  0  0  0
   16.7483   71.8991   20.1377 N   0  0  0  0  0  0  0  0  0  0  0  0
   15.8823   72.4330   21.2591 C   0  0  0  0  0  0  0  0  0  0  0  0
   18.2188   72.1226   20.4758 C   0  0  0  0  0  0  0  0  0  0  0  0
   16.3876   72.4186   18.7500 C   0  0  0  0  0  0  0  0  0  0  0  0
   18.5449   73.5867   18.0762 C   0  0  0  0  0  0  0  0  0  0  0  0
   17.0173   73.6655   18.1589 N   0  0  0  0  0  0  0  0  0  0  0  0
   16.7262   74.8066   19.1832 C   0  0  0  0  0  0  0  0  0  0  0  0
   16.4523   74.1415   16.8362 C   0  0  0  0  0  0  0  0  0  0  0  0
   18.0142   68.2417   19.5984 C   0  0  0  0  0  0  0  0  0  0  0  0
   17.2888   66.9771   19.7920 N   0  0  0  0  0  0  0  0  0  0  0  0
   16.0133   66.8392   19.2647 C   0  0  0  0  0  0  0  0  0  0  0  0
   15.2850   65.7404   19.4645 C   0  0  0  0  0  0  0  0  0  0  0  0
   14.0579   65.5857   18.9385 F   0  0  0  0  0  0  0  0  0  0  0  0
   15.8302   64.6382   20.2766 C   0  0  0  0  0  0  0  0  0  0  0  0
   15.2575   63.5684   20.4280 O   0  0  0  0  0  0  0  0  0  0  0  0
   17.0593   64.8884   20.8336 N   0  0  0  0  0  0  0  0  0  0  0  0
   17.8430   65.9866   20.6033 C   0  0  0  0  0  0  0  0  0  0  0  0
   18.9887   66.0602   21.0483 O   0  0  0  0  0  0  0  0  0  0  0  0
   17.4107   64.2135   21.4583 H   0  0  0  0  0  0  0  0  0  0  0  0
 10 11  1  0
 11 12  1  0
 11 13  1  0
 11  9  1  0
  9  6  1  0
  6  7  1  0
  6  8  1  0
  6  5  1  0
  5  1  1  0
  1  2  1  0
  1 14  1  0
 14 15  1  0
 15 16  1  0
 16 17  2  0
 17 18  1  0
 17 19  1  0
 19 20  2  0
 19 21  1  0
 21 22  1  0
 22 23  2  0
 22 15  1  0
  2  3  1  0
  2  4  1  0
 21 24  1  0
M  CHG 1   6   1
M  CHG 1  11   1
M  END
> <minimizedAffinity>
-4.32639

> <CNNscore>
0.2559880316

> <CNNaffinity>
3.8621397018

> <CNN_VS>
0.9886615276

> <CNNaffinity_variance>
1.1100474596

$$$$



 24 24  0  0  0  0  0  0  0  0999 V2000
   18.1868   67.8821   17.3576 C   0  0  0  0  0  0  0  0  0  0  0  0
   17.6618   67.9213   15.9783 N   0  0  0  0  0  0  0  0  0  0  0  0
   18.4230   67.7553   15.3199 H   0  0  0  0  0  0  0  0  0  0  0  0
   17.2493   68.8364   15.7974 H   0  0  0  0  0  0  0  0  0  0  0  0
   19.2354   69.0138   17.5935 C   0  0  0  0  0  0  0  0  0  0  0  0
   18.8670   70.1461   18.6681 N   0  0  0  0  0  0  0  0  0  0  0  0
   19.9438   70.1995   19.7313 C   0  0  0  0  0  0  0  0  0  0  0  0
   18.8185   71.4753   17.9215 C   0  0  0  0  0  0  0  0  0  0  0  0
   17.4938   69.7140   19.1715 C   0  0  0  0  0  0  0  0  0  0  0  0
   17.5598   71.5796   20.8999 C   0  0  0  0  0  0  0  0  0  0  0  0
   16.8605   70.3052   20.4165 N   0  0  0  0  0  0  0  0  0  0  0  0
   17.1034   69.2571   21.5472 C   0  0  0  0  0  0  0  0  0  0  0  0
   15.3622   70.5245   20.3691 C   0  0  0  0  0  0  0  0  0  0  0  0
   18.7659   66.4772   17.7168 C   0  0  0  0  0  0  0  0  0  0  0  0
   17.9863   65.7057   18.6967 N   0  0  0  0  0  0  0  0  0  0  0  0
   16.8781   64.9894   18.2691 C   0  0  0  0  0  0  0  0  0  0  0  0
   16.0981   64.3256   19.1227 C   0  0  0  0  0  0  0  0  0  0  0  0
   15.0361   63.6084   18.7174 F   0  0  0  0  0  0  0  0  0  0  0  0
   16.4000   64.3542   20.5647 C   0  0  0  0  0  0  0  0  0  0  0  0
   15.7832   63.6996   21.3933 O   0  0  0  0  0  0  0  0  0  0  0  0
   17.4584   65.1548   20.9144 N   0  0  0  0  0  0  0  0  0  0  0  0
   18.2997   65.8050   20.0525 C   0  0  0  0  0  0  0  0  0  0  0  0
   19.3011   66.3954   20.4587 O   0  0  0  0  0  0  0  0  0  0  0  0
   17.6288   65.2726   21.8768 H   0  0  0  0  0  0  0  0  0  0  0  0
 10 11  1  0
 11 12  1  0
 11 13  1  0
 11  9  1  0
  9  6  1  0
  6  7  1  0
  6  8  1  0
  6  5  1  0
  5  1  1  0
  1  2  1  0
  1 14  1  0
 14 15  1  0
 15 16  1  0
 16 17  2  0
 17 18  1  0
 17 19  1  0
 19 20  2  0
 19 21  1  0
 21 22  1  0
 22 23  2  0
 22 15  1  0
  2  3  1  0
  2  4  1  0
 21 24  1  0
M  CHG 1   6   1
M  CHG 1  11   1
M  END
> <minimizedAffinity>
-5.00620

> <CNNscore>
0.2432921380

> <CNNaffinity>
3.8231163025

> <CNN_VS>
0.9301341176

> <CNNaffinity_variance>
1.1239866018

$$$$



 24 24  0  0  0  0  0  0  0  0999 V2000
   18.6350   69.3799   19.9003 C   0  0  0  0  0  0  0  0  0  0  0  0
   20.0052   68.9436   19.5662 N   0  0  0  0  0  0  0  0  0  0  0  0
   20.5613   68.8861   20.4193 H   0  0  0  0  0  0  0  0  0  0  0  0
   20.4302   69.6164   18.9281 H   0  0  0  0  0  0  0  0  0  0  0  0
   18.6363   70.8083   20.5291 C   0  0  0  0  0  0  0  0  0  0  0  0
   17.5259   71.8424   20.0090 N   0  0  0  0  0  0  0  0  0  0  0  0
   18.1343   73.2254   19.9093 C   0  0  0  0  0  0  0  0  0  0  0  0
   17.0894   71.3741   18.6245 C   0  0  0  0  0  0  0  0  0  0  0  0
   16.4135   71.7075   21.0435 C   0  0  0  0  0  0  0  0  0  0  0  0
   15.1888   73.6212   19.8989 C   0  0  0  0  0  0  0  0  0  0  0  0
   15.1794   72.5892   21.0310 N   0  0  0  0  0  0  0  0  0  0  0  0
   15.2524   73.4292   22.3443 C   0  0  0  0  0  0  0  0  0  0  0  0
   13.8433   71.8759   21.0685 C   0  0  0  0  0  0  0  0  0  0  0  0
   17.9066   68.3479   20.8183 C   0  0  0  0  0  0  0  0  0  0  0  0
   17.4741   67.1088   20.1544 N   0  0  0  0  0  0  0  0  0  0  0  0
   16.2264   67.0630   19.5500 C   0  0  0  0  0  0  0  0  0  0  0  0
   15.7569   65.9475   18.9906 C   0  0  0  0  0  0  0  0  0  0  0  0
   14.5601   65.8978   18.3809 F   0  0  0  0  0  0  0  0  0  0  0  0
   16.5675   64.7173   19.0180 C   0  0  0  0  0  0  0  0  0  0  0  0
   16.2409   63.6848   18.4499 O   0  0  0  0  0  0  0  0  0  0  0  0
   17.7482   64.8225   19.7098 N   0  0  0  0  0  0  0  0  0  0  0  0
   18.2701   65.9670   20.2491 C   0  0  0  0  0  0  0  0  0  0  0  0
   19.3996   65.9866   20.7391 O   0  0  0  0  0  0  0  0  0  0  0  0
   18.2693   63.9958   19.8295 H   0  0  0  0  0  0  0  0  0  0  0  0
 10 11  1  0
 11 12  1  0
 11 13  1  0
 11  9  1  0
  9  6  1  0
  6  7  1  0
  6  8  1  0
  6  5  1  0
  5  1  1  0
  1  2  1  0
  1 14  1  0
 14 15  1  0
 15 16  1  0
 16 17  2  0
 17 18  1  0
 17 19  1  0
 19 20  2  0
 19 21  1  0
 21 22  1  0
 22 23  2  0
 22 15  1  0
  2  3  1  0
  2  4  1  0
 21 24  1  0
M  CHG 1   6   1
M  CHG 1  11   1
M  END
> <minimizedAffinity>
-4.84141

> <CNNscore>
0.2145819515

> <CNNaffinity>
4.4335026741

> <CNN_VS>
0.9513496757

> <CNNaffinity_variance>
0.2036318779

$$$$



 24 24  0  0  0  0  0  0  0  0999 V2000
   17.8294   54.8606   36.7560 C   0  0  0  0  0  0  0  0  0  0  0  0
   17.7816   55.8818   37.8212 N   0  0  0  0  0  0  0  0  0  0  0  0
   18.4622   55.6504   38.5448 H   0  0  0  0  0  0  0  0  0  0  0  0
   16.8467   55.9047   38.2285 H   0  0  0  0  0  0  0  0  0  0  0  0
   17.4351   53.4542   37.3060 C   0  0  0  0  0  0  0  0  0  0  0  0
   17.9051   53.0882   38.7953 N   0  0  0  0  0  0  0  0  0  0  0  0
   18.2720   51.6206   38.8602 C   0  0  0  0  0  0  0  0  0  0  0  0
   19.1351   53.9373   39.0997 C   0  0  0  0  0  0  0  0  0  0  0  0
   16.7030   53.4839   39.6462 C   0  0  0  0  0  0  0  0  0  0  0  0
   15.7841   51.1145   39.5288 C   0  0  0  0  0  0  0  0  0  0  0  0
   15.4853   52.5924   39.7989 N   0  0  0  0  0  0  0  0  0  0  0  0
   14.5075   53.0217   38.6607 C   0  0  0  0  0  0  0  0  0  0  0  0
   14.7062   52.7342   41.0904 C   0  0  0  0  0  0  0  0  0  0  0  0
   19.2189   54.8312   36.0442 C   0  0  0  0  0  0  0  0  0  0  0  0
   19.1953   55.1236   34.6030 N   0  0  0  0  0  0  0  0  0  0  0  0
   19.6447   56.3565   34.1536 C   0  0  0  0  0  0  0  0  0  0  0  0
   19.5860   56.6996   32.8665 C   0  0  0  0  0  0  0  0  0  0  0  0
   20.0406   57.8815   32.4161 F   0  0  0  0  0  0  0  0  0  0  0  0
   19.0188   55.7599   31.8834 C   0  0  0  0  0  0  0  0  0  0  0  0
   19.0139   55.9699   30.6786 O   0  0  0  0  0  0  0  0  0  0  0  0
   18.5174   54.6004   32.4197 N   0  0  0  0  0  0  0  0  0  0  0  0
   18.6101   54.2083   33.7278 C   0  0  0  0  0  0  0  0  0  0  0  0
   18.2432   53.0895   34.0883 O   0  0  0  0  0  0  0  0  0  0  0  0
   18.0461   53.9928   31.8050 H   0  0  0  0  0  0  0  0  0  0  0  0
 10 11  1  0
 11 12  1  0
 11 13  1  0
 11  9  1  0
  9  6  1  0
  6  7  1  0
  6  8  1  0
  6  5  1  0
  5  1  1  0
  1  2  1  0
  1 14  1  0
 14 15  1  0
 15 16  1  0
 16 17  2  0
 17 18  1  0
 17 19  1  0
 19 20  2  0
 19 21  1  0
 21 22  1  0
 22 23  2  0
 22 15  1  0
  2  3  1  0
  2  4  1  0
 21 24  1  0
M  CHG 1   6   1
M  CHG 1  11   1
M  END
> <minimizedAffinity>
-4.71380

> <CNNscore>
0.1641895324

> <CNNaffinity>
3.9373772144

> <CNN_VS>
0.6464761496

> <CNNaffinity_variance>
0.9385805130

$$$$



 24 24  0  0  0  0  0  0  0  0999 V2000
   16.5391   64.4940   19.2022 C   0  0  0  0  0  0  0  0  0  0  0  0
   17.7791   64.3317   19.9868 N   0  0  0  0  0  0  0  0  0  0  0  0
   17.9201   65.1539   20.5738 H   0  0  0  0  0  0  0  0  0  0  0  0
   18.5712   64.2266   19.3529 H   0  0  0  0  0  0  0  0  0  0  0  0
   16.6381   65.7181   18.2390 C   0  0  0  0  0  0  0  0  0  0  0  0
   17.9322   66.6564   18.3721 N   0  0  0  0  0  0  0  0  0  0  0  0
   18.6865   66.2964   19.6347 C   0  0  0  0  0  0  0  0  0  0  0  0
   18.8112   66.3846   17.1556 C   0  0  0  0  0  0  0  0  0  0  0  0
   17.3441   68.0634   18.3591 C   0  0  0  0  0  0  0  0  0  0  0  0
   19.6894   69.0131   18.6240 C   0  0  0  0  0  0  0  0  0  0  0  0
   18.1844   69.2990   18.6198 N   0  0  0  0  0  0  0  0  0  0  0  0
   17.8509   69.7304   20.0822 C   0  0  0  0  0  0  0  0  0  0  0  0
   17.8905   70.5068   17.7538 C   0  0  0  0  0  0  0  0  0  0  0  0
   15.2802   64.5857   20.1215 C   0  0  0  0  0  0  0  0  0  0  0  0
   14.5162   63.3378   20.2707 N   0  0  0  0  0  0  0  0  0  0  0  0
   13.9421   62.7559   19.1502 C   0  0  0  0  0  0  0  0  0  0  0  0
   13.1858   61.6612   19.2361 C   0  0  0  0  0  0  0  0  0  0  0  0
   12.6444   61.0747   18.1547 F   0  0  0  0  0  0  0  0  0  0  0  0
   12.9321   61.0479   20.5517 C   0  0  0  0  0  0  0  0  0  0  0  0
   12.3240   59.9968   20.6969 O   0  0  0  0  0  0  0  0  0  0  0  0
   13.4617   61.7326   21.6166 N   0  0  0  0  0  0  0  0  0  0  0  0
   14.2790   62.8284   21.5476 C   0  0  0  0  0  0  0  0  0  0  0  0
   14.8101   63.2954   22.5556 O   0  0  0  0  0  0  0  0  0  0  0  0
   13.2319   61.4044   22.5159 H   0  0  0  0  0  0  0  0  0  0  0  0
 10 11  1  0
 11 12  1  0
 11 13  1  0
 11  9  1  0
  9  6  1  0
  6  7  1  0
  6  8  1  0
  6  5  1  0
  5  1  1  0
  1  2  1  0
  1 14  1  0
 14 15  1  0
 15 16  1  0
 16 17  2  0
 17 18  1  0
 17 19  1  0
 19 20  2  0
 19 21  1  0
 21 22  1  0
 22 23  2  0
 22 15  1  0
  2  3  1  0
  2  4  1  0
 21 24  1  0
M  CHG 1   6   1
M  CHG 1  11   1
M  END
> <minimizedAffinity>
-5.39234

> <CNNscore>
0.1423774809

> <CNNaffinity>
3.7696592808

> <CNN_VS>
0.5367146134

> <CNNaffinity_variance>
1.1367031336

$$$$



 24 24  0  0  0  0  0  0  0  0999 V2000
   17.1433   67.0223   17.6677 C   0  0  0  0  0  0  0  0  0  0  0  0
   17.4640   67.3256   16.2589 N   0  0  0  0  0  0  0  0  0  0  0  0
   18.4760   67.3170   16.1311 H   0  0  0  0  0  0  0  0  0  0  0  0
   17.0986   68.2468   16.0177 H   0  0  0  0  0  0  0  0  0  0  0  0
   17.7230   68.1108   18.6242 C   0  0  0  0  0  0  0  0  0  0  0  0
   16.6784   68.9358   19.5192 N   0  0  0  0  0  0  0  0  0  0  0  0
   15.2947   68.3448   19.3500 C   0  0  0  0  0  0  0  0  0  0  0  0
   17.1215   68.7943   20.9719 C   0  0  0  0  0  0  0  0  0  0  0  0
   16.8303   70.3631   19.0037 C   0  0  0  0  0  0  0  0  0  0  0  0
   15.4632   72.4195   18.3917 C   0  0  0  0  0  0  0  0  0  0  0  0
   15.9733   71.5070   19.5114 N   0  0  0  0  0  0  0  0  0  0  0  0
   16.9307   72.4027   20.3582 C   0  0  0  0  0  0  0  0  0  0  0  0
   14.8311   71.1332   20.4338 C   0  0  0  0  0  0  0  0  0  0  0  0
   17.6148   65.5900   18.0733 C   0  0  0  0  0  0  0  0  0  0  0  0
   16.7018   64.8534   18.9604 N   0  0  0  0  0  0  0  0  0  0  0  0
   15.5678   64.2601   18.4253 C   0  0  0  0  0  0  0  0  0  0  0  0
   14.6729   63.6359   19.1916 C   0  0  0  0  0  0  0  0  0  0  0  0
   13.5832   63.0367   18.6818 F   0  0  0  0  0  0  0  0  0  0  0  0
   14.8723   63.5770   20.6504 C   0  0  0  0  0  0  0  0  0  0  0  0
   14.1423   62.9479   21.4033 O   0  0  0  0  0  0  0  0  0  0  0  0
   15.9699   64.2618   21.1085 N   0  0  0  0  0  0  0  0  0  0  0  0
   16.9250   64.8672   20.3374 C   0  0  0  0  0  0  0  0  0  0  0  0
   17.9432   65.3458   20.8379 O   0  0  0  0  0  0  0  0  0  0  0  0
   16.0808   64.3234   22.0848 H   0  0  0  0  0  0  0  0  0  0  0  0
 10 11  1  0
 11 12  1  0
 11 13  1  0
 11  9  1  0
  9  6  1  0
  6  7  1  0
  6  8  1  0
  6  5  1  0
  5  1  1  0
  1  2  1  0
  1 14  1  0
 14 15  1  0
 15 16  1  0
 16 17  2  0
 17 18  1  0
 17 19  1  0
 19 20  2  0
 19 21  1  0
 21 22  1  0
 22 23  2  0
 22 15  1  0
  2  3  1  0
  2  4  1  0
 21 24  1  0
M  CHG 1   6   1
M  CHG 1  11   1
M  END
> <minimizedAffinity>
-4.72916

> <CNNscore>
0.1293361783

> <CNNaffinity>
3.7794106007

> <CNN_VS>
0.4888145328

> <CNNaffinity_variance>
0.6067948341

$$$$



 24 24  0  0  0  0  0  0  0  0999 V2000
   18.0133   67.0192   20.3289 C   0  0  0  0  0  0  0  0  0  0  0  0
   16.7253   67.6021   19.9034 N   0  0  0  0  0  0  0  0  0  0  0  0
   16.7042   67.6741   18.8862 H   0  0  0  0  0  0  0  0  0  0  0  0
   16.6208   68.5307   20.3123 H   0  0  0  0  0  0  0  0  0  0  0  0
   19.2085   67.9365   19.9217 C   0  0  0  0  0  0  0  0  0  0  0  0
   18.9852   68.9295   18.6820 N   0  0  0  0  0  0  0  0  0  0  0  0
   18.4882   68.1404   17.4891 C   0  0  0  0  0  0  0  0  0  0  0  0
   17.9255   69.9426   19.1032 C   0  0  0  0  0  0  0  0  0  0  0  0
   20.3572   69.5692   18.4975 C   0  0  0  0  0  0  0  0  0  0  0  0
   21.8298   70.4460   16.6173 C   0  0  0  0  0  0  0  0  0  0  0  0
   20.6058   70.6896   17.5057 N   0  0  0  0  0  0  0  0  0  0  0  0
   20.9741   71.9372   18.3681 C   0  0  0  0  0  0  0  0  0  0  0  0
   19.4246   71.1080   16.6543 C   0  0  0  0  0  0  0  0  0  0  0  0
   18.1957   65.5643   19.7920 C   0  0  0  0  0  0  0  0  0  0  0  0
   16.9503   64.8449   19.4848 N   0  0  0  0  0  0  0  0  0  0  0  0
   16.0980   64.4914   20.5205 C   0  0  0  0  0  0  0  0  0  0  0  0
   14.9889   63.7828   20.3073 C   0  0  0  0  0  0  0  0  0  0  0  0
   14.1432   63.4553   21.2993 F   0  0  0  0  0  0  0  0  0  0  0  0
   14.6515   63.3439   18.9417 C   0  0  0  0  0  0  0  0  0  0  0  0
   13.6095   62.7695   18.6588 O   0  0  0  0  0  0  0  0  0  0  0  0
   15.5883   63.6580   17.9893 N   0  0  0  0  0  0  0  0  0  0  0  0
   16.7071   64.4238   18.1771 C   0  0  0  0  0  0  0  0  0  0  0  0
   17.4200   64.7588   17.2307 O   0  0  0  0  0  0  0  0  0  0  0  0
   15.4417   63.2982   17.0847 H   0  0  0  0  0  0  0  0  0  0  0  0
 10 11  1  0
 11 12  1  0
 11 13  1  0
 11  9  1  0
  9  6  1  0
  6  7  1  0
  6  8  1  0
  6  5  1  0
  5  1  1  0
  1  2  1  0
  1 14  1  0
 14 15  1  0
 15 16  1  0
 16 17  2  0
 17 18  1  0
 17 19  1  0
 19 20  2  0
 19 21  1  0
 21 22  1  0
 22 23  2  0
 22 15  1  0
  2  3  1  0
  2  4  1  0
 21 24  1  0
M  CHG 1   6   1
M  CHG 1  11   1
M  END
> <minimizedAffinity>
-5.04155

> <CNNscore>
0.1256561279

> <CNNaffinity>
3.3494491577

> <CNN_VS>
0.4208787978

> <CNNaffinity_variance>
1.5625032187

$$$$



 24 24  0  0  0  0  0  0  0  0999 V2000
   16.7803   64.2372   19.1214 C   0  0  0  0  0  0  0  0  0  0  0  0
   17.8876   64.6190   20.0201 N   0  0  0  0  0  0  0  0  0  0  0  0
   17.9100   65.6339   20.1200 H   0  0  0  0  0  0  0  0  0  0  0  0
   18.7716   64.2966   19.6265 H   0  0  0  0  0  0  0  0  0  0  0  0
   16.9898   64.8218   17.6896 C   0  0  0  0  0  0  0  0  0  0  0  0
   17.2594   66.3985   17.5707 N   0  0  0  0  0  0  0  0  0  0  0  0
   18.7179   66.6356   17.2400 C   0  0  0  0  0  0  0  0  0  0  0  0
   16.3856   66.9192   16.4340 C   0  0  0  0  0  0  0  0  0  0  0  0
   16.8186   66.9301   18.9304 C   0  0  0  0  0  0  0  0  0  0  0  0
   17.5780   69.2725   18.2907 C   0  0  0  0  0  0  0  0  0  0  0  0
   17.1931   68.3150   19.4229 N   0  0  0  0  0  0  0  0  0  0  0  0
   18.5009   68.1240   20.2530 C   0  0  0  0  0  0  0  0  0  0  0  0
   16.2051   68.9871   20.3542 C   0  0  0  0  0  0  0  0  0  0  0  0
   15.3915   64.6409   19.7102 C   0  0  0  0  0  0  0  0  0  0  0  0
   14.5699   63.5271   20.2077 N   0  0  0  0  0  0  0  0  0  0  0  0
   14.5724   63.2353   21.5637 C   0  0  0  0  0  0  0  0  0  0  0  0
   13.8980   62.1980   22.0608 C   0  0  0  0  0  0  0  0  0  0  0  0
   13.8734   61.9199   23.3754 F   0  0  0  0  0  0  0  0  0  0  0  0
   13.1346   61.3199   21.1566 C   0  0  0  0  0  0  0  0  0  0  0  0
   12.4233   60.4061   21.5498 O   0  0  0  0  0  0  0  0  0  0  0  0
   13.2544   61.6239   19.8237 N   0  0  0  0  0  0  0  0  0  0  0  0
   13.9006   62.7094   19.2968 C   0  0  0  0  0  0  0  0  0  0  0  0
   13.8428   62.9673   18.0942 O   0  0  0  0  0  0  0  0  0  0  0  0
   12.8355   61.0020   19.1857 H   0  0  0  0  0  0  0  0  0  0  0  0
 10 11  1  0
 11 12  1  0
 11 13  1  0
 11  9  1  0
  9  6  1  0
  6  7  1  0
  6  8  1  0
  6  5  1  0
  5  1  1  0
  1  2  1  0
  1 14  1  0
 14 15  1  0
 15 16  1  0
 16 17  2  0
 17 18  1  0
 17 19  1  0
 19 20  2  0
 19 21  1  0
 21 22  1  0
 22 23  2  0
 22 15  1  0
  2  3  1  0
  2  4  1  0
 21 24  1  0
M  CHG 1   6   1
M  CHG 1  11   1
M  END
> <minimizedAffinity>
-5.48015

> <CNNscore>
0.1227569953

> <CNNaffinity>
3.6797468662

> <CNN_VS>
0.4517146647

> <CNNaffinity_variance>
1.1734498739

$$$$
