


 16 16  0  0  0  0  0  0  0  0999 V2000
   35.6978   40.8353   -3.7365 C   0  0  0  0  0  0  0  0  0  0  0  0
   35.8984   39.7259   -2.8943 C   0  0  0  0  0  0  0  0  0  0  0  0
   36.0296   39.8869   -1.4073 C   0  0  0  0  0  0  0  0  0  0  0  0
   36.0123   38.4570   -3.4763 C   0  0  0  0  0  0  0  0  0  0  0  0
   35.9017   38.3037   -4.8587 C   0  0  0  0  0  0  0  0  0  0  0  0
   36.0370   36.7336   -5.5516 Cl  0  0  0  0  0  0  0  0  0  0  0  0
   35.6743   39.4037   -5.6841 C   0  0  0  0  0  0  0  0  0  0  0  0
   35.5634   40.6862   -5.1288 C   0  0  0  0  0  0  0  0  0  0  0  0
   35.2949   41.8629   -5.9980 C   0  0  0  0  0  0  0  0  0  0  0  0
   34.6250   42.8411   -5.7241 O   0  0  0  0  0  0  0  0  0  0  0  0
   35.8877   41.7580   -7.2024 O   0  0  0  0  0  0  0  0  0  0  0  0
   36.4022   41.0022   -7.4072 H   0  0  0  0  0  0  0  0  0  0  0  0
   35.5795   42.0941   -3.1329 O   0  0  0  0  0  0  0  0  0  0  0  0
   36.7699   43.5406   -1.7093 C   0  0  0  0  0  0  0  0  0  0  0  0
   36.8079   42.7249   -2.9664 C   0  0  0  0  0  0  0  0  0  0  0  0
   37.7825   42.6256   -3.7007 O   0  0  0  0  0  0  0  0  0  0  0  0
 14 15  1  0
 15 16  2  0
 15 13  1  0
 13  1  1  0
  1  2  2  0
  2  3  1  0
  2  4  1  0
  4  5  2  0
  5  6  1  0
  5  7  1  0
  7  8  2  0
  8  9  1  0
  9 10  2  0
  9 11  1  0
  8  1  1  0
 11 12  1  0
M  END
> <minimizedAffinity>
-6.58610

> <CNNscore>
0.7008703947

> <CNNaffinity>
5.0152878761

> <CNN_VS>
3.5150668621

> <CNNaffinity_variance>
0.0272175968

$$$$



 16 16  0  0  0  0  0  0  0  0999 V2000
   33.7154   40.5421   -8.5249 C   0  0  0  0  0  0  0  0  0  0  0  0
   33.1012   39.4480   -9.1621 C   0  0  0  0  0  0  0  0  0  0  0  0
   32.6813   39.5169  -10.6020 C   0  0  0  0  0  0  0  0  0  0  0  0
   32.8508   38.2921   -8.4118 C   0  0  0  0  0  0  0  0  0  0  0  0
   33.2295   38.2272   -7.0705 C   0  0  0  0  0  0  0  0  0  0  0  0
   32.9191   36.7934   -6.1697 Cl  0  0  0  0  0  0  0  0  0  0  0  0
   33.8635   39.3046   -6.4537 C   0  0  0  0  0  0  0  0  0  0  0  0
   34.1198   40.4765   -7.1792 C   0  0  0  0  0  0  0  0  0  0  0  0
   34.8191   41.6219   -6.5378 C   0  0  0  0  0  0  0  0  0  0  0  0
   34.5600   42.1331   -5.4644 O   0  0  0  0  0  0  0  0  0  0  0  0
   35.8335   42.0906   -7.2890 O   0  0  0  0  0  0  0  0  0  0  0  0
   36.0278   41.6925   -8.1146 H   0  0  0  0  0  0  0  0  0  0  0  0
   33.9630   41.6855   -9.2958 O   0  0  0  0  0  0  0  0  0  0  0  0
   32.8835   43.2598  -10.6714 C   0  0  0  0  0  0  0  0  0  0  0  0
   32.8645   42.5363   -9.3586 C   0  0  0  0  0  0  0  0  0  0  0  0
   31.9982   42.6707   -8.5040 O   0  0  0  0  0  0  0  0  0  0  0  0
 14 15  1  0
 15 16  2  0
 15 13  1  0
 13  1  1  0
  1  2  2  0
  2  3  1  0
  2  4  1  0
  4  5  2  0
  5  6  1  0
  5  7  1  0
  7  8  2  0
  8  9  1  0
  9 10  2  0
  9 11  1  0
  8  1  1  0
 11 12  1  0
M  END
> <minimizedAffinity>
-6.26006

> <CNNscore>
0.6396785378

> <CNNaffinity>
4.5776815414

> <CNN_VS>
2.9282445908

> <CNNaffinity_variance>
0.0678264350

$$$$



 16 16  0  0  0  0  0  0  0  0999 V2000
   32.5349   41.8307  -11.2247 C   0  0  0  0  0  0  0  0  0  0  0  0
   32.0460   41.0861  -12.3141 C   0  0  0  0  0  0  0  0  0  0  0  0
   32.2686   41.5339  -13.7298 C   0  0  0  0  0  0  0  0  0  0  0  0
   31.3069   39.9255  -12.0524 C   0  0  0  0  0  0  0  0  0  0  0  0
   31.0882   39.5112  -10.7381 C   0  0  0  0  0  0  0  0  0  0  0  0
   30.1836   38.0771  -10.4401 Cl  0  0  0  0  0  0  0  0  0  0  0  0
   31.6000   40.2383   -9.6647 C   0  0  0  0  0  0  0  0  0  0  0  0
   32.3373   41.4078   -9.8977 C   0  0  0  0  0  0  0  0  0  0  0  0
   32.9099   42.1766   -8.7604 C   0  0  0  0  0  0  0  0  0  0  0  0
   32.2977   42.7568   -7.8834 O   0  0  0  0  0  0  0  0  0  0  0  0
   34.2563   42.1887   -8.7744 O   0  0  0  0  0  0  0  0  0  0  0  0
   34.7218   41.7398   -9.4525 H   0  0  0  0  0  0  0  0  0  0  0  0
   33.2777   42.9840  -11.5093 O   0  0  0  0  0  0  0  0  0  0  0  0
   33.0706   45.0224  -12.6662 C   0  0  0  0  0  0  0  0  0  0  0  0
   32.4807   44.1180  -11.6263 C   0  0  0  0  0  0  0  0  0  0  0  0
   31.4492   44.3495  -11.0089 O   0  0  0  0  0  0  0  0  0  0  0  0
 14 15  1  0
 15 16  2  0
 15 13  1  0
 13  1  1  0
  1  2  2  0
  2  3  1  0
  2  4  1  0
  4  5  2  0
  5  6  1  0
  5  7  1  0
  7  8  2  0
  8  9  1  0
  9 10  2  0
  9 11  1  0
  8  1  1  0
 11 12  1  0
M  END
> <minimizedAffinity>
-5.82830

> <CNNscore>
0.5629672408

> <CNNaffinity>
3.9510853291

> <CNN_VS>
2.2243316174

> <CNNaffinity_variance>
0.2210524678

$$$$



 16 16  0  0  0  0  0  0  0  0999 V2000
   36.1482   41.6932   -1.9420 C   0  0  0  0  0  0  0  0  0  0  0  0
   36.1624   40.8801   -0.7936 C   0  0  0  0  0  0  0  0  0  0  0  0
   35.8347   41.4362    0.5621 C   0  0  0  0  0  0  0  0  0  0  0  0
   36.5281   39.5351   -0.9315 C   0  0  0  0  0  0  0  0  0  0  0  0
   36.8440   39.0164   -2.1877 C   0  0  0  0  0  0  0  0  0  0  0  0
   37.2829   37.3583   -2.3349 Cl  0  0  0  0  0  0  0  0  0  0  0  0
   36.7999   39.8209   -3.3251 C   0  0  0  0  0  0  0  0  0  0  0  0
   36.4441   41.1725   -3.2148 C   0  0  0  0  0  0  0  0  0  0  0  0
   36.3687   42.0330   -4.4257 C   0  0  0  0  0  0  0  0  0  0  0  0
   35.3635   42.3970   -5.0070 O   0  0  0  0  0  0  0  0  0  0  0  0
   37.5847   42.4048   -4.8685 O   0  0  0  0  0  0  0  0  0  0  0  0
   38.3548   42.1210   -4.4164 H   0  0  0  0  0  0  0  0  0  0  0  0
   35.7726   43.0335   -1.7824 O   0  0  0  0  0  0  0  0  0  0  0  0
   38.1055   43.0534   -1.4774 C   0  0  0  0  0  0  0  0  0  0  0  0
   36.8346   43.8442   -1.3956 C   0  0  0  0  0  0  0  0  0  0  0  0
   36.7686   45.0203   -1.0622 O   0  0  0  0  0  0  0  0  0  0  0  0
 14 15  1  0
 15 16  2  0
 15 13  1  0
 13  1  1  0
  1  2  2  0
  2  3  1  0
  2  4  1  0
  4  5  2  0
  5  6  1  0
  5  7  1  0
  7  8  2  0
  8  9  1  0
  9 10  2  0
  9 11  1  0
  8  1  1  0
 11 12  1  0
M  END
> <minimizedAffinity>
-5.86981

> <CNNscore>
0.5486003757

> <CNNaffinity>
4.5471172333

> <CNN_VS>
2.4945502281

> <CNNaffinity_variance>
0.1432174891

$$$$



 16 16  0  0  0  0  0  0  0  0999 V2000
   35.8067   39.8082   -5.3779 C   0  0  0  0  0  0  0  0  0  0  0  0
   36.5028   39.1970   -4.3187 C   0  0  0  0  0  0  0  0  0  0  0  0
   36.8510   37.7368   -4.3517 C   0  0  0  0  0  0  0  0  0  0  0  0
   36.8373   39.9738   -3.2023 C   0  0  0  0  0  0  0  0  0  0  0  0
   36.5064   41.3287   -3.1624 C   0  0  0  0  0  0  0  0  0  0  0  0
   36.9345   42.2663   -1.7835 Cl  0  0  0  0  0  0  0  0  0  0  0  0
   35.8420   41.9341   -4.2278 C   0  0  0  0  0  0  0  0  0  0  0  0
   35.4888   41.1784   -5.3546 C   0  0  0  0  0  0  0  0  0  0  0  0
   34.8031   41.8205   -6.5078 C   0  0  0  0  0  0  0  0  0  0  0  0
   33.6339   42.1505   -6.5765 O   0  0  0  0  0  0  0  0  0  0  0  0
   35.6308   42.0220   -7.5505 O   0  0  0  0  0  0  0  0  0  0  0  0
   36.5301   41.7657   -7.4912 H   0  0  0  0  0  0  0  0  0  0  0  0
   35.4885   39.0146   -6.4877 O   0  0  0  0  0  0  0  0  0  0  0  0
   33.5932   38.6963   -7.8452 C   0  0  0  0  0  0  0  0  0  0  0  0
   34.1704   38.5707   -6.4675 C   0  0  0  0  0  0  0  0  0  0  0  0
   33.5676   38.1240   -5.5000 O   0  0  0  0  0  0  0  0  0  0  0  0
 14 15  1  0
 15 16  2  0
 15 13  1  0
 13  1  1  0
  1  2  2  0
  2  3  1  0
  2  4  1  0
  4  5  2  0
  5  6  1  0
  5  7  1  0
  7  8  2  0
  8  9  1  0
  9 10  2  0
  9 11  1  0
  8  1  1  0
 11 12  1  0
M  END
> <minimizedAffinity>
-5.20518

> <CNNscore>
0.4345742166

> <CNNaffinity>
4.4188108444

> <CNN_VS>
1.9203013182

> <CNNaffinity_variance>
0.0294088330

$$$$



 16 16  0  0  0  0  0  0  0  0999 V2000
   37.9309   38.3676   -3.0567 C   0  0  0  0  0  0  0  0  0  0  0  0
   37.0906   38.1430   -1.9505 C   0  0  0  0  0  0  0  0  0  0  0  0
   35.7956   38.8854   -1.7891 C   0  0  0  0  0  0  0  0  0  0  0  0
   37.5046   37.2314   -0.9709 C   0  0  0  0  0  0  0  0  0  0  0  0
   38.7123   36.5470   -1.1111 C   0  0  0  0  0  0  0  0  0  0  0  0
   39.1975   35.4252    0.1012 Cl  0  0  0  0  0  0  0  0  0  0  0  0
   39.5261   36.7534   -2.2239 C   0  0  0  0  0  0  0  0  0  0  0  0
   39.1395   37.6655   -3.2160 C   0  0  0  0  0  0  0  0  0  0  0  0
   39.9878   37.8736   -4.4199 C   0  0  0  0  0  0  0  0  0  0  0  0
   39.8329   37.3813   -5.5219 O   0  0  0  0  0  0  0  0  0  0  0  0
   41.0198   38.7056   -4.1838 O   0  0  0  0  0  0  0  0  0  0  0  0
   41.1334   39.0813   -3.3330 H   0  0  0  0  0  0  0  0  0  0  0  0
   37.4942   39.2779   -4.0279 O   0  0  0  0  0  0  0  0  0  0  0  0
   36.6514   41.4697   -4.1765 C   0  0  0  0  0  0  0  0  0  0  0  0
   37.7676   40.5979   -3.6851 C   0  0  0  0  0  0  0  0  0  0  0  0
   38.7418   41.0015   -3.0631 O   0  0  0  0  0  0  0  0  0  0  0  0
 14 15  1  0
 15 16  2  0
 15 13  1  0
 13  1  1  0
  1  2  2  0
  2  3  1  0
  2  4  1  0
  4  5  2  0
  5  6  1  0
  5  7  1  0
  7  8  2  0
  8  9  1  0
  9 10  2  0
  9 11  1  0
  8  1  1  0
 11 12  1  0
M  END
> <minimizedAffinity>
-5.10270

> <CNNscore>
0.4219992757

> <CNNaffinity>
4.2914175987

> <CNN_VS>
1.8109750748

> <CNNaffinity_variance>
0.0245444030

$$$$



 16 16  0  0  0  0  0  0  0  0999 V2000
   33.4696   40.3315   -9.5379 C   0  0  0  0  0  0  0  0  0  0  0  0
   32.7922   40.1886  -10.7630 C   0  0  0  0  0  0  0  0  0  0  0  0
   32.6805   38.8549  -11.4435 C   0  0  0  0  0  0  0  0  0  0  0  0
   32.2488   41.3313  -11.3635 C   0  0  0  0  0  0  0  0  0  0  0  0
   32.3593   42.5747  -10.7402 C   0  0  0  0  0  0  0  0  0  0  0  0
   31.6770   43.9646  -11.4926 Cl  0  0  0  0  0  0  0  0  0  0  0  0
   33.0069   42.7040   -9.5126 C   0  0  0  0  0  0  0  0  0  0  0  0
   33.5662   41.5778   -8.8926 C   0  0  0  0  0  0  0  0  0  0  0  0
   34.2364   41.7005   -7.5704 C   0  0  0  0  0  0  0  0  0  0  0  0
   35.4196   41.5500   -7.3296 O   0  0  0  0  0  0  0  0  0  0  0  0
   33.3737   42.0094   -6.5838 O   0  0  0  0  0  0  0  0  0  0  0  0
   32.4638   42.1240   -6.7759 H   0  0  0  0  0  0  0  0  0  0  0  0
   33.9990   39.1746   -8.9513 O   0  0  0  0  0  0  0  0  0  0  0  0
   32.0591   37.9733   -8.3769 C   0  0  0  0  0  0  0  0  0  0  0  0
   33.2472   38.7323   -7.8677 C   0  0  0  0  0  0  0  0  0  0  0  0
   33.5072   38.9027   -6.6836 O   0  0  0  0  0  0  0  0  0  0  0  0
 14 15  1  0
 15 16  2  0
 15 13  1  0
 13  1  1  0
  1  2  2  0
  2  3  1  0
  2  4  1  0
  4  5  2  0
  5  6  1  0
  5  7  1  0
  7  8  2  0
  8  9  1  0
  9 10  2  0
  9 11  1  0
  8  1  1  0
 11 12  1  0
M  END
> <minimizedAffinity>
-5.43114

> <CNNscore>
0.4116441309

> <CNNaffinity>
3.9853875637

> <CNN_VS>
1.6405613422

> <CNNaffinity_variance>
0.0962083116

$$$$



 16 16  0  0  0  0  0  0  0  0999 V2000
   34.5402   39.1035   -8.4641 C   0  0  0  0  0  0  0  0  0  0  0  0
   34.1993   38.1616   -9.4524 C   0  0  0  0  0  0  0  0  0  0  0  0
   34.7015   36.7480   -9.3913 C   0  0  0  0  0  0  0  0  0  0  0  0
   33.4045   38.5790  -10.5275 C   0  0  0  0  0  0  0  0  0  0  0  0
   32.9444   39.8945  -10.5943 C   0  0  0  0  0  0  0  0  0  0  0  0
   31.9621   40.3834  -11.9208 Cl  0  0  0  0  0  0  0  0  0  0  0  0
   33.2623   40.8146   -9.5966 C   0  0  0  0  0  0  0  0  0  0  0  0
   34.0622   40.4257   -8.5129 C   0  0  0  0  0  0  0  0  0  0  0  0
   34.3856   41.3926   -7.4299 C   0  0  0  0  0  0  0  0  0  0  0  0
   33.5991   41.9876   -6.7172 O   0  0  0  0  0  0  0  0  0  0  0  0
   35.7113   41.5793   -7.2868 O   0  0  0  0  0  0  0  0  0  0  0  0
   36.3117   41.1180   -7.8388 H   0  0  0  0  0  0  0  0  0  0  0  0
   35.3299   38.6630   -7.3940 O   0  0  0  0  0  0  0  0  0  0  0  0
   33.2866   38.3235   -6.2778 C   0  0  0  0  0  0  0  0  0  0  0  0
   34.6545   37.7787   -6.5593 C   0  0  0  0  0  0  0  0  0  0  0  0
   35.0791   36.7128   -6.1321 O   0  0  0  0  0  0  0  0  0  0  0  0
 14 15  1  0
 15 16  2  0
 15 13  1  0
 13  1  1  0
  1  2  2  0
  2  3  1  0
  2  4  1  0
  4  5  2  0
  5  6  1  0
  5  7  1  0
  7  8  2  0
  8  9  1  0
  9 10  2  0
  9 11  1  0
  8  1  1  0
 11 12  1  0
M  END
> <minimizedAffinity>
-4.82904

> <CNNscore>
0.3556218743

> <CNNaffinity>
4.1590771675

> <CNN_VS>
1.4790588617

> <CNNaffinity_variance>
0.3194356859

$$$$



 16 16  0  0  0  0  0  0  0  0999 V2000
   36.5369   39.3079   -4.2316 C   0  0  0  0  0  0  0  0  0  0  0  0
   36.6446   37.9176   -4.4203 C   0  0  0  0  0  0  0  0  0  0  0  0
   37.3661   37.0481   -3.4314 C   0  0  0  0  0  0  0  0  0  0  0  0
   36.0933   37.3556   -5.5787 C   0  0  0  0  0  0  0  0  0  0  0  0
   35.4312   38.1610   -6.5059 C   0  0  0  0  0  0  0  0  0  0  0  0
   34.7542   37.4477   -7.9188 Cl  0  0  0  0  0  0  0  0  0  0  0  0
   35.3034   39.5335   -6.2983 C   0  0  0  0  0  0  0  0  0  0  0  0
   35.8521   40.1233   -5.1509 C   0  0  0  0  0  0  0  0  0  0  0  0
   35.6986   41.5826   -4.9070 C   0  0  0  0  0  0  0  0  0  0  0  0
   36.5747   42.3748   -4.6147 O   0  0  0  0  0  0  0  0  0  0  0  0
   34.4234   41.9942   -5.0390 O   0  0  0  0  0  0  0  0  0  0  0  0
   33.7535   41.3791   -5.2643 H   0  0  0  0  0  0  0  0  0  0  0  0
   37.0890   39.8480   -3.0627 O   0  0  0  0  0  0  0  0  0  0  0  0
   36.0752   41.2152   -1.4383 C   0  0  0  0  0  0  0  0  0  0  0  0
   36.2004   39.8282   -1.9928 C   0  0  0  0  0  0  0  0  0  0  0  0
   35.5906   38.8539   -1.5711 O   0  0  0  0  0  0  0  0  0  0  0  0
 14 15  1  0
 15 16  2  0
 15 13  1  0
 13  1  1  0
  1  2  2  0
  2  3  1  0
  2  4  1  0
  4  5  2  0
  5  6  1  0
  5  7  1  0
  7  8  2  0
  8  9  1  0
  9 10  2  0
  9 11  1  0
  8  1  1  0
 11 12  1  0
M  END
> <minimizedAffinity>
-4.71926

> <CNNscore>
0.3306670189

> <CNNaffinity>
4.5392389297

> <CNN_VS>
1.5009765625

> <CNNaffinity_variance>
0.0202497710

$$$$
