


 39 39  0  0  0  0  0  0  0  0999 V2000
   36.3517   41.8881   -3.3494 C   0  0  0  0  0  0  0  0  0  0  0  0
   37.5850   40.9567   -3.3455 C   0  0  0  0  0  0  0  0  0  0  0  0
   38.7428   41.3575   -3.4203 O   0  0  0  0  0  0  0  0  0  0  0  0
   37.2679   39.6114   -3.3061 N   0  0  0  0  0  0  0  0  0  0  0  0
   36.3175   39.3549   -3.3219 H   0  0  0  0  0  0  0  0  0  0  0  0
   38.2647   38.5579   -3.2427 C   0  0  0  0  0  0  0  0  0  0  0  0
   38.1013   37.7753   -1.9350 C   0  0  0  0  0  0  0  0  0  0  0  0
   38.1497   37.5744   -4.4267 C   0  0  0  0  0  0  0  0  0  0  0  0
   39.3887   36.7047   -4.8679 C   0  0  0  0  0  0  0  0  0  0  0  0
   39.4081   36.5991   -6.4067 C   0  0  0  0  0  0  0  0  0  0  0  0
   39.2938   35.2924   -4.2729 C   0  0  0  0  0  0  0  0  0  0  0  0
   40.6418   37.5173   -4.3596 C   0  0  0  0  0  0  0  0  0  0  0  0
   42.0121   36.9082   -3.8546 C   0  0  0  0  0  0  0  0  0  0  0  0
   42.4757   35.7365   -4.7183 C   0  0  0  0  0  0  0  0  0  0  0  0
   41.8595   36.4392   -2.3925 C   0  0  0  0  0  0  0  0  0  0  0  0
   43.0278   38.1175   -3.9036 C   0  0  0  0  0  0  0  0  0  0  0  0
   44.5661   38.0158   -3.6494 C   0  0  0  0  0  0  0  0  0  0  0  0
   44.9709   36.6828   -2.9874 C   0  0  0  0  0  0  0  0  0  0  0  0
   45.1369   39.1860   -2.8364 C   0  0  0  0  0  0  0  0  0  0  0  0
   45.2450   38.0439   -5.0476 C   0  0  0  0  0  0  0  0  0  0  0  0
   35.3416   41.7831   -5.6379 C   0  0  0  0  0  0  0  0  0  0  0  0
   36.1133   42.6336   -6.0787 O   0  0  0  0  0  0  0  0  0  0  0  0
   35.3864   41.3554   -4.3280 N   0  0  0  0  0  0  0  0  0  0  0  0
   34.7477   40.6662   -4.0342 H   0  0  0  0  0  0  0  0  0  0  0  0
   34.2565   41.1138   -6.4870 C   0  0  0  0  0  0  0  0  0  0  0  0
   33.9617   42.1817   -7.9432 S   0  0  0  0  0  0  0  0  0  0  0  0
   35.1114   42.2981   -8.6602 H   0  0  0  0  0  0  0  0  0  0  0  0
   34.6626   39.7012   -6.9389 C   0  0  0  0  0  0  0  0  0  0  0  0
   33.4907   38.7158   -6.7958 C   0  0  0  0  0  0  0  0  0  0  0  0
   32.7452   38.4522   -8.1088 C   0  0  0  0  0  0  0  0  0  0  0  0
   30.4636   37.4358   -8.4833 C   0  0  0  0  0  0  0  0  0  0  0  0
   31.9060   37.1703   -8.0756 C   0  0  0  0  0  0  0  0  0  0  0  0
   35.6859   41.9816   -1.9666 C   0  0  0  0  0  0  0  0  0  0  0  0
   36.5737   42.5968   -0.9079 C   0  0  0  0  0  0  0  0  0  0  0  0
   36.9492   41.8664    0.2270 C   0  0  0  0  0  0  0  0  0  0  0  0
   37.7580   42.4498    1.2058 C   0  0  0  0  0  0  0  0  0  0  0  0
   38.1981   43.7617    1.0578 C   0  0  0  0  0  0  0  0  0  0  0  0
   37.8368   44.4976   -0.0690 C   0  0  0  0  0  0  0  0  0  0  0  0
   37.0318   43.9151   -1.0511 C   0  0  0  0  0  0  0  0  0  0  0  0
 31 32  1  0
 32 30  1  0
 30 29  1  0
 29 28  1  0
 28 25  1  0
 25 26  1  0
 25 21  1  0
 21 22  2  0
 21 23  1  0
 23  1  1  0
  1 33  1  0
 33 34  1  0
 34 35  2  0
 35 36  1  0
 36 37  2  0
 37 38  1  0
 38 39  2  0
  1  2  1  0
  2  3  2  0
  2  4  1  0
  4  6  1  0
  6  7  1  0
  6  8  1  0
  8  9  1  0
  9 10  1  0
  9 11  1  0
  9 12  1  0
 12 13  1  0
 13 14  1  0
 13 15  1  0
 13 16  1  0
 16 17  1  0
 17 18  1  0
 17 19  1  0
 17 20  1  0
 39 34  1  0
 26 27  1  0
 23 24  1  0
  4  5  1  0
M  END
> <minimizedAffinity>
-7.88190

> <CNNscore>
0.9483234286

> <CNNaffinity>
7.9037766457

> <CNN_VS>
7.4953365326

> <CNNaffinity_variance>
0.2136699110

$$$$



 39 39  0  0  0  0  0  0  0  0999 V2000
   36.3173   41.8314   -3.5713 C   0  0  0  0  0  0  0  0  0  0  0  0
   37.5801   40.9647   -3.3644 C   0  0  0  0  0  0  0  0  0  0  0  0
   38.7227   41.4134   -3.3616 O   0  0  0  0  0  0  0  0  0  0  0  0
   37.3145   39.6138   -3.2360 N   0  0  0  0  0  0  0  0  0  0  0  0
   36.3816   39.3110   -3.3212 H   0  0  0  0  0  0  0  0  0  0  0  0
   38.3410   38.6191   -2.9821 C   0  0  0  0  0  0  0  0  0  0  0  0
   38.0007   37.8458   -1.7033 C   0  0  0  0  0  0  0  0  0  0  0  0
   38.4808   37.6151   -4.1461 C   0  0  0  0  0  0  0  0  0  0  0  0
   39.8683   36.9309   -4.4508 C   0  0  0  0  0  0  0  0  0  0  0  0
   40.0263   36.7689   -5.9766 C   0  0  0  0  0  0  0  0  0  0  0  0
   39.9408   35.5456   -3.7927 C   0  0  0  0  0  0  0  0  0  0  0  0
   40.9394   37.9470   -3.8947 C   0  0  0  0  0  0  0  0  0  0  0  0
   42.4535   37.6263   -3.5655 C   0  0  0  0  0  0  0  0  0  0  0  0
   42.5982   36.7103   -2.3515 C   0  0  0  0  0  0  0  0  0  0  0  0
   43.2147   38.9435   -3.3080 C   0  0  0  0  0  0  0  0  0  0  0  0
   43.0143   36.9567   -4.8820 C   0  0  0  0  0  0  0  0  0  0  0  0
   44.4905   36.4941   -5.1017 C   0  0  0  0  0  0  0  0  0  0  0  0
   45.4780   37.6767   -5.1746 C   0  0  0  0  0  0  0  0  0  0  0  0
   44.6794   35.5921   -6.3293 C   0  0  0  0  0  0  0  0  0  0  0  0
   44.8814   35.6630   -3.8474 C   0  0  0  0  0  0  0  0  0  0  0  0
   35.2502   41.5356   -5.8169 C   0  0  0  0  0  0  0  0  0  0  0  0
   35.8231   42.5203   -6.2811 O   0  0  0  0  0  0  0  0  0  0  0  0
   35.4328   41.1229   -4.5141 N   0  0  0  0  0  0  0  0  0  0  0  0
   34.9529   40.3225   -4.2007 H   0  0  0  0  0  0  0  0  0  0  0  0
   34.2802   40.6698   -6.6266 C   0  0  0  0  0  0  0  0  0  0  0  0
   33.9296   41.5529   -8.1903 S   0  0  0  0  0  0  0  0  0  0  0  0
   35.0878   41.7291   -8.8810 H   0  0  0  0  0  0  0  0  0  0  0  0
   34.8564   39.2753   -6.9230 C   0  0  0  0  0  0  0  0  0  0  0  0
   33.8806   38.4417   -7.7702 C   0  0  0  0  0  0  0  0  0  0  0  0
   32.6410   37.9748   -6.9990 C   0  0  0  0  0  0  0  0  0  0  0  0
   30.6268   37.5028   -8.4478 C   0  0  0  0  0  0  0  0  0  0  0  0
   31.8375   36.9044   -7.7456 C   0  0  0  0  0  0  0  0  0  0  0  0
   35.5657   42.0922   -2.2556 C   0  0  0  0  0  0  0  0  0  0  0  0
   36.4205   42.7383   -1.1882 C   0  0  0  0  0  0  0  0  0  0  0  0
   36.8540   44.0638   -1.3207 C   0  0  0  0  0  0  0  0  0  0  0  0
   37.6555   44.6460   -0.3352 C   0  0  0  0  0  0  0  0  0  0  0  0
   38.0269   43.9118    0.7873 C   0  0  0  0  0  0  0  0  0  0  0  0
   37.5979   42.5941    0.9344 C   0  0  0  0  0  0  0  0  0  0  0  0
   36.7929   42.0113   -0.0476 C   0  0  0  0  0  0  0  0  0  0  0  0
 31 32  1  0
 32 30  1  0
 30 29  1  0
 29 28  1  0
 28 25  1  0
 25 26  1  0
 25 21  1  0
 21 22  2  0
 21 23  1  0
 23  1  1  0
  1 33  1  0
 33 34  1  0
 34 35  2  0
 35 36  1  0
 36 37  2  0
 37 38  1  0
 38 39  2  0
  1  2  1  0
  2  3  2  0
  2  4  1  0
  4  6  1  0
  6  7  1  0
  6  8  1  0
  8  9  1  0
  9 10  1  0
  9 11  1  0
  9 12  1  0
 12 13  1  0
 13 14  1  0
 13 15  1  0
 13 16  1  0
 16 17  1  0
 17 18  1  0
 17 19  1  0
 17 20  1  0
 39 34  1  0
 26 27  1  0
 23 24  1  0
  4  5  1  0
M  END
> <minimizedAffinity>
-8.20266

> <CNNscore>
0.9283416867

> <CNNaffinity>
8.0298109055

> <CNN_VS>
7.4544081688

> <CNNaffinity_variance>
0.1461703926

$$$$



 39 39  0  0  0  0  0  0  0  0999 V2000
   38.2773   39.0537   -3.2927 C   0  0  0  0  0  0  0  0  0  0  0  0
   38.2739   38.2216   -4.5951 C   0  0  0  0  0  0  0  0  0  0  0  0
   37.2793   38.0531   -5.2944 O   0  0  0  0  0  0  0  0  0  0  0  0
   39.4897   37.6285   -4.8812 N   0  0  0  0  0  0  0  0  0  0  0  0
   40.2279   37.7434   -4.2400 H   0  0  0  0  0  0  0  0  0  0  0  0
   39.7335   36.8451   -6.0788 C   0  0  0  0  0  0  0  0  0  0  0  0
   41.2358   36.5753   -6.2183 C   0  0  0  0  0  0  0  0  0  0  0  0
   38.9874   35.4940   -6.0537 C   0  0  0  0  0  0  0  0  0  0  0  0
   38.1499   35.0188   -7.3023 C   0  0  0  0  0  0  0  0  0  0  0  0
   37.0233   34.0793   -6.8256 C   0  0  0  0  0  0  0  0  0  0  0  0
   39.0448   34.2607   -8.2932 C   0  0  0  0  0  0  0  0  0  0  0  0
   37.5399   36.3469   -7.8963 C   0  0  0  0  0  0  0  0  0  0  0  0
   36.3532   36.4495   -8.9379 C   0  0  0  0  0  0  0  0  0  0  0  0
   36.2145   35.1830   -9.7809 C   0  0  0  0  0  0  0  0  0  0  0  0
   36.5853   37.6604   -9.8656 C   0  0  0  0  0  0  0  0  0  0  0  0
   35.0702   36.7160   -8.0552 C   0  0  0  0  0  0  0  0  0  0  0  0
   34.2264   38.0311   -8.0620 C   0  0  0  0  0  0  0  0  0  0  0  0
   35.0817   39.2857   -7.7912 C   0  0  0  0  0  0  0  0  0  0  0  0
   33.0338   38.0053   -7.0960 C   0  0  0  0  0  0  0  0  0  0  0  0
   33.6581   38.1806   -9.5012 C   0  0  0  0  0  0  0  0  0  0  0  0
   37.7825   41.4944   -3.0338 C   0  0  0  0  0  0  0  0  0  0  0  0
   38.8107   41.6917   -2.3880 O   0  0  0  0  0  0  0  0  0  0  0  0
   37.4439   40.2486   -3.5179 N   0  0  0  0  0  0  0  0  0  0  0  0
   36.6116   40.1532   -4.0350 H   0  0  0  0  0  0  0  0  0  0  0  0
   36.7754   42.5995   -3.3665 C   0  0  0  0  0  0  0  0  0  0  0  0
   35.7601   42.0129   -4.7712 S   0  0  0  0  0  0  0  0  0  0  0  0
   35.1057   40.8755   -4.4138 H   0  0  0  0  0  0  0  0  0  0  0  0
   35.8747   42.9432   -2.1685 C   0  0  0  0  0  0  0  0  0  0  0  0
   36.3528   44.2251   -1.4663 C   0  0  0  0  0  0  0  0  0  0  0  0
   37.2703   43.9635   -0.2667 C   0  0  0  0  0  0  0  0  0  0  0  0
   37.9032   42.4102    1.6215 C   0  0  0  0  0  0  0  0  0  0  0  0
   36.9622   42.6433    0.4480 C   0  0  0  0  0  0  0  0  0  0  0  0
   37.7313   38.2627   -2.0926 C   0  0  0  0  0  0  0  0  0  0  0  0
   38.3960   36.9176   -1.9015 C   0  0  0  0  0  0  0  0  0  0  0  0
   39.6853   36.8244   -1.3616 C   0  0  0  0  0  0  0  0  0  0  0  0
   40.2955   35.5774   -1.2030 C   0  0  0  0  0  0  0  0  0  0  0  0
   39.6237   34.4179   -1.5789 C   0  0  0  0  0  0  0  0  0  0  0  0
   38.3385   34.4959   -2.1118 C   0  0  0  0  0  0  0  0  0  0  0  0
   37.7248   35.7413   -2.2674 C   0  0  0  0  0  0  0  0  0  0  0  0
 31 32  1  0
 32 30  1  0
 30 29  1  0
 29 28  1  0
 28 25  1  0
 25 26  1  0
 25 21  1  0
 21 22  2  0
 21 23  1  0
 23  1  1  0
  1 33  1  0
 33 34  1  0
 34 35  2  0
 35 36  1  0
 36 37  2  0
 37 38  1  0
 38 39  2  0
  1  2  1  0
  2  3  2  0
  2  4  1  0
  4  6  1  0
  6  7  1  0
  6  8  1  0
  8  9  1  0
  9 10  1  0
  9 11  1  0
  9 12  1  0
 12 13  1  0
 13 14  1  0
 13 15  1  0
 13 16  1  0
 16 17  1  0
 17 18  1  0
 17 19  1  0
 17 20  1  0
 39 34  1  0
 26 27  1  0
 23 24  1  0
  4  5  1  0
M  END
> <minimizedAffinity>
-6.72461

> <CNNscore>
0.8610470295

> <CNNaffinity>
7.6204390526

> <CNN_VS>
6.5615563393

> <CNNaffinity_variance>
0.2197764069

$$$$



 39 39  0  0  0  0  0  0  0  0999 V2000
   36.3316   41.9400   -3.4166 C   0  0  0  0  0  0  0  0  0  0  0  0
   37.5727   41.0204   -3.4671 C   0  0  0  0  0  0  0  0  0  0  0  0
   38.7206   41.4125   -3.2789 O   0  0  0  0  0  0  0  0  0  0  0  0
   37.2831   39.7104   -3.8017 N   0  0  0  0  0  0  0  0  0  0  0  0
   36.3500   39.4776   -4.0125 H   0  0  0  0  0  0  0  0  0  0  0  0
   38.2844   38.6608   -3.8580 C   0  0  0  0  0  0  0  0  0  0  0  0
   38.5588   38.1373   -2.4438 C   0  0  0  0  0  0  0  0  0  0  0  0
   37.8412   37.4791   -4.7466 C   0  0  0  0  0  0  0  0  0  0  0  0
   38.8790   36.3781   -5.1904 C   0  0  0  0  0  0  0  0  0  0  0  0
   39.1677   35.4466   -3.9953 C   0  0  0  0  0  0  0  0  0  0  0  0
   40.1936   37.0294   -5.6431 C   0  0  0  0  0  0  0  0  0  0  0  0
   38.1441   35.5835   -6.3382 C   0  0  0  0  0  0  0  0  0  0  0  0
   38.6993   34.3151   -7.1041 C   0  0  0  0  0  0  0  0  0  0  0  0
   38.8750   33.1131   -6.1777 C   0  0  0  0  0  0  0  0  0  0  0  0
   40.0532   34.6606   -7.7587 C   0  0  0  0  0  0  0  0  0  0  0  0
   37.6353   34.0372   -8.2385 C   0  0  0  0  0  0  0  0  0  0  0  0
   37.1354   35.0850   -9.2842 C   0  0  0  0  0  0  0  0  0  0  0  0
   37.4004   36.5383   -8.8408 C   0  0  0  0  0  0  0  0  0  0  0  0
   35.6558   34.9254   -9.6603 C   0  0  0  0  0  0  0  0  0  0  0  0
   37.9723   34.8522  -10.5735 C   0  0  0  0  0  0  0  0  0  0  0  0
   35.3864   41.8974   -5.7346 C   0  0  0  0  0  0  0  0  0  0  0  0
   36.2100   42.7135   -6.1458 O   0  0  0  0  0  0  0  0  0  0  0  0
   35.3721   41.4596   -4.4274 N   0  0  0  0  0  0  0  0  0  0  0  0
   34.6934   40.7993   -4.1579 H   0  0  0  0  0  0  0  0  0  0  0  0
   34.2970   41.2855   -6.6205 C   0  0  0  0  0  0  0  0  0  0  0  0
   33.6839   42.6060   -7.7288 S   0  0  0  0  0  0  0  0  0  0  0  0
   34.7082   43.0654   -8.4966 H   0  0  0  0  0  0  0  0  0  0  0  0
   34.8203   40.0996   -7.4478 C   0  0  0  0  0  0  0  0  0  0  0  0
   33.6939   39.4661   -8.2813 C   0  0  0  0  0  0  0  0  0  0  0  0
   34.0347   39.3247   -9.7690 C   0  0  0  0  0  0  0  0  0  0  0  0
   32.7714   39.4962  -11.9491 C   0  0  0  0  0  0  0  0  0  0  0  0
   33.1728   40.2162  -10.6695 C   0  0  0  0  0  0  0  0  0  0  0  0
   35.6634   41.9438   -2.0318 C   0  0  0  0  0  0  0  0  0  0  0  0
   36.5189   42.5627   -0.9488 C   0  0  0  0  0  0  0  0  0  0  0  0
   36.9786   43.8810   -1.0630 C   0  0  0  0  0  0  0  0  0  0  0  0
   37.7804   44.4378   -0.0631 C   0  0  0  0  0  0  0  0  0  0  0  0
   38.1259   43.6852    1.0554 C   0  0  0  0  0  0  0  0  0  0  0  0
   37.6706   42.3745    1.1843 C   0  0  0  0  0  0  0  0  0  0  0  0
   36.8653   41.8172    0.1879 C   0  0  0  0  0  0  0  0  0  0  0  0
 31 32  1  0
 32 30  1  0
 30 29  1  0
 29 28  1  0
 28 25  1  0
 25 26  1  0
 25 21  1  0
 21 22  2  0
 21 23  1  0
 23  1  1  0
  1 33  1  0
 33 34  1  0
 34 35  2  0
 35 36  1  0
 36 37  2  0
 37 38  1  0
 38 39  2  0
  1  2  1  0
  2  3  2  0
  2  4  1  0
  4  6  1  0
  6  7  1  0
  6  8  1  0
  8  9  1  0
  9 10  1  0
  9 11  1  0
  9 12  1  0
 12 13  1  0
 13 14  1  0
 13 15  1  0
 13 16  1  0
 16 17  1  0
 17 18  1  0
 17 19  1  0
 17 20  1  0
 39 34  1  0
 26 27  1  0
 23 24  1  0
  4  5  1  0
M  END
> <minimizedAffinity>
-7.01655

> <CNNscore>
0.8566945791

> <CNNaffinity>
7.7602715492

> <CNN_VS>
6.6481823921

> <CNNaffinity_variance>
0.4345711172

$$$$



 39 39  0  0  0  0  0  0  0  0999 V2000
   36.4003   41.7460   -3.8325 C   0  0  0  0  0  0  0  0  0  0  0  0
   37.6310   40.8918   -3.4526 C   0  0  0  0  0  0  0  0  0  0  0  0
   38.7835   41.3145   -3.4599 O   0  0  0  0  0  0  0  0  0  0  0  0
   37.3263   39.5769   -3.1528 N   0  0  0  0  0  0  0  0  0  0  0  0
   36.3904   39.2833   -3.2375 H   0  0  0  0  0  0  0  0  0  0  0  0
   38.3157   38.6070   -2.7195 C   0  0  0  0  0  0  0  0  0  0  0  0
   37.7733   37.8216   -1.5203 C   0  0  0  0  0  0  0  0  0  0  0  0
   38.6845   37.6103   -3.8389 C   0  0  0  0  0  0  0  0  0  0  0  0
   40.1901   37.2219   -4.1007 C   0  0  0  0  0  0  0  0  0  0  0  0
   40.6104   36.1283   -3.0975 C   0  0  0  0  0  0  0  0  0  0  0  0
   41.1009   38.4441   -3.9158 C   0  0  0  0  0  0  0  0  0  0  0  0
   40.1994   36.6486   -5.5705 C   0  0  0  0  0  0  0  0  0  0  0  0
   41.0776   35.4441   -6.1014 C   0  0  0  0  0  0  0  0  0  0  0  0
   41.2081   34.3263   -5.0683 C   0  0  0  0  0  0  0  0  0  0  0  0
   42.4819   35.9587   -6.4808 C   0  0  0  0  0  0  0  0  0  0  0  0
   40.3372   34.9573   -7.4094 C   0  0  0  0  0  0  0  0  0  0  0  0
   38.7970   34.7314   -7.5445 C   0  0  0  0  0  0  0  0  0  0  0  0
   38.0354   36.0279   -7.8882 C   0  0  0  0  0  0  0  0  0  0  0  0
   38.1586   34.0727   -6.3138 C   0  0  0  0  0  0  0  0  0  0  0  0
   38.5988   33.7655   -8.7464 C   0  0  0  0  0  0  0  0  0  0  0  0
   35.2211   41.3938   -6.0128 C   0  0  0  0  0  0  0  0  0  0  0  0
   35.5956   42.4789   -6.4549 O   0  0  0  0  0  0  0  0  0  0  0  0
   35.5664   40.9523   -4.7532 N   0  0  0  0  0  0  0  0  0  0  0  0
   35.2429   40.0710   -4.4566 H   0  0  0  0  0  0  0  0  0  0  0  0
   34.3379   40.4247   -6.8047 C   0  0  0  0  0  0  0  0  0  0  0  0
   33.8451   41.2690   -8.3514 S   0  0  0  0  0  0  0  0  0  0  0  0
   34.9562   41.5833   -9.0700 H   0  0  0  0  0  0  0  0  0  0  0  0
   35.0651   39.1089   -7.1275 C   0  0  0  0  0  0  0  0  0  0  0  0
   34.0880   38.0569   -7.6785 C   0  0  0  0  0  0  0  0  0  0  0  0
   32.7637   37.9857   -6.9100 C   0  0  0  0  0  0  0  0  0  0  0  0
   31.3374   38.3698   -8.9586 C   0  0  0  0  0  0  0  0  0  0  0  0
   31.6019   37.4653   -7.7632 C   0  0  0  0  0  0  0  0  0  0  0  0
   35.5694   42.1522   -2.6042 C   0  0  0  0  0  0  0  0  0  0  0  0
   36.3929   42.7596   -1.4905 C   0  0  0  0  0  0  0  0  0  0  0  0
   36.6750   42.0316   -0.3273 C   0  0  0  0  0  0  0  0  0  0  0  0
   37.4247   42.6079    0.7015 C   0  0  0  0  0  0  0  0  0  0  0  0
   37.8985   43.9104    0.5756 C   0  0  0  0  0  0  0  0  0  0  0  0
   37.6301   44.6437   -0.5785 C   0  0  0  0  0  0  0  0  0  0  0  0
   36.8844   44.0681   -1.6103 C   0  0  0  0  0  0  0  0  0  0  0  0
 31 32  1  0
 32 30  1  0
 30 29  1  0
 29 28  1  0
 28 25  1  0
 25 26  1  0
 25 21  1  0
 21 22  2  0
 21 23  1  0
 23  1  1  0
  1 33  1  0
 33 34  1  0
 34 35  2  0
 35 36  1  0
 36 37  2  0
 37 38  1  0
 38 39  2  0
  1  2  1  0
  2  3  2  0
  2  4  1  0
  4  6  1  0
  6  7  1  0
  6  8  1  0
  8  9  1  0
  9 10  1  0
  9 11  1  0
  9 12  1  0
 12 13  1  0
 13 14  1  0
 13 15  1  0
 13 16  1  0
 16 17  1  0
 17 18  1  0
 17 19  1  0
 17 20  1  0
 39 34  1  0
 26 27  1  0
 23 24  1  0
  4  5  1  0
M  END
> <minimizedAffinity>
-7.62155

> <CNNscore>
0.8190582991

> <CNNaffinity>
7.6935844421

> <CNN_VS>
6.3014941216

> <CNNaffinity_variance>
0.1602291018

$$$$



 39 39  0  0  0  0  0  0  0  0999 V2000
   38.3752   38.8041   -3.4741 C   0  0  0  0  0  0  0  0  0  0  0  0
   38.4491   37.8319   -4.6732 C   0  0  0  0  0  0  0  0  0  0  0  0
   37.4853   37.5397   -5.3751 O   0  0  0  0  0  0  0  0  0  0  0  0
   39.6980   37.2678   -4.8578 N   0  0  0  0  0  0  0  0  0  0  0  0
   40.4098   37.4882   -4.2144 H   0  0  0  0  0  0  0  0  0  0  0  0
   40.0132   36.3671   -5.9519 C   0  0  0  0  0  0  0  0  0  0  0  0
   41.4802   36.5470   -6.3579 C   0  0  0  0  0  0  0  0  0  0  0  0
   39.7809   34.8884   -5.5752 C   0  0  0  0  0  0  0  0  0  0  0  0
   38.8214   33.9835   -6.4393 C   0  0  0  0  0  0  0  0  0  0  0  0
   39.6436   32.8488   -7.0841 C   0  0  0  0  0  0  0  0  0  0  0  0
   38.1576   34.8105   -7.5497 C   0  0  0  0  0  0  0  0  0  0  0  0
   37.7945   33.3914   -5.3982 C   0  0  0  0  0  0  0  0  0  0  0  0
   36.3530   32.8248   -5.7218 C   0  0  0  0  0  0  0  0  0  0  0  0
   36.3469   31.9413   -6.9682 C   0  0  0  0  0  0  0  0  0  0  0  0
   35.3708   33.9982   -5.9199 C   0  0  0  0  0  0  0  0  0  0  0  0
   35.9403   32.0216   -4.4254 C   0  0  0  0  0  0  0  0  0  0  0  0
   34.5884   32.1786   -3.6577 C   0  0  0  0  0  0  0  0  0  0  0  0
   34.4322   33.5700   -3.0107 C   0  0  0  0  0  0  0  0  0  0  0  0
   34.3479   31.0918   -2.6008 C   0  0  0  0  0  0  0  0  0  0  0  0
   33.4621   32.0523   -4.7217 C   0  0  0  0  0  0  0  0  0  0  0  0
   37.8316   41.2479   -3.4425 C   0  0  0  0  0  0  0  0  0  0  0  0
   38.7620   41.5022   -2.6790 O   0  0  0  0  0  0  0  0  0  0  0  0
   37.5706   39.9687   -3.8857 N   0  0  0  0  0  0  0  0  0  0  0  0
   36.8162   39.8273   -4.5023 H   0  0  0  0  0  0  0  0  0  0  0  0
   36.8700   42.3132   -3.9778 C   0  0  0  0  0  0  0  0  0  0  0  0
   35.7857   41.5052   -5.2104 S   0  0  0  0  0  0  0  0  0  0  0  0
   35.0876   40.5029   -4.6123 H   0  0  0  0  0  0  0  0  0  0  0  0
   36.0234   42.9446   -2.8601 C   0  0  0  0  0  0  0  0  0  0  0  0
   36.8775   43.8635   -1.9706 C   0  0  0  0  0  0  0  0  0  0  0  0
   36.6859   43.6179   -0.4698 C   0  0  0  0  0  0  0  0  0  0  0  0
   37.7250   42.4281    1.5008 C   0  0  0  0  0  0  0  0  0  0  0  0
   37.9891   43.2547    0.2502 C   0  0  0  0  0  0  0  0  0  0  0  0
   37.7433   38.1534   -2.2325 C   0  0  0  0  0  0  0  0  0  0  0  0
   38.3025   36.7842   -1.9161 C   0  0  0  0  0  0  0  0  0  0  0  0
   37.6133   35.6234   -2.2903 C   0  0  0  0  0  0  0  0  0  0  0  0
   38.1322   34.3637   -1.9799 C   0  0  0  0  0  0  0  0  0  0  0  0
   39.3404   34.2543   -1.2979 C   0  0  0  0  0  0  0  0  0  0  0  0
   40.0393   35.4008   -0.9250 C   0  0  0  0  0  0  0  0  0  0  0  0
   39.5245   36.6614   -1.2380 C   0  0  0  0  0  0  0  0  0  0  0  0
 31 32  1  0
 32 30  1  0
 30 29  1  0
 29 28  1  0
 28 25  1  0
 25 26  1  0
 25 21  1  0
 21 22  2  0
 21 23  1  0
 23  1  1  0
  1 33  1  0
 33 34  1  0
 34 35  2  0
 35 36  1  0
 36 37  2  0
 37 38  1  0
 38 39  2  0
  1  2  1  0
  2  3  2  0
  2  4  1  0
  4  6  1  0
  6  7  1  0
  6  8  1  0
  8  9  1  0
  9 10  1  0
  9 11  1  0
  9 12  1  0
 12 13  1  0
 13 14  1  0
 13 15  1  0
 13 16  1  0
 16 17  1  0
 17 18  1  0
 17 19  1  0
 17 20  1  0
 39 34  1  0
 26 27  1  0
 23 24  1  0
  4  5  1  0
M  END
> <minimizedAffinity>
-5.94132

> <CNNscore>
0.8000289798

> <CNNaffinity>
7.2699623108

> <CNN_VS>
5.8161807060

> <CNNaffinity_variance>
0.1210745201

$$$$



 39 39  0  0  0  0  0  0  0  0999 V2000
   38.3928   38.3175   -2.8445 C   0  0  0  0  0  0  0  0  0  0  0  0
   38.8444   37.3239   -3.9388 C   0  0  0  0  0  0  0  0  0  0  0  0
   38.0793   36.8029   -4.7451 O   0  0  0  0  0  0  0  0  0  0  0  0
   40.1935   37.0240   -3.8975 N   0  0  0  0  0  0  0  0  0  0  0  0
   40.7381   37.4195   -3.1791 H   0  0  0  0  0  0  0  0  0  0  0  0
   40.8481   36.1558   -4.8595 C   0  0  0  0  0  0  0  0  0  0  0  0
   40.7738   36.7874   -6.2541 C   0  0  0  0  0  0  0  0  0  0  0  0
   42.3299   35.9068   -4.5064 C   0  0  0  0  0  0  0  0  0  0  0  0
   43.2974   37.1170   -4.2139 C   0  0  0  0  0  0  0  0  0  0  0  0
   42.4563   38.3603   -3.8588 C   0  0  0  0  0  0  0  0  0  0  0  0
   44.1541   37.4313   -5.4487 C   0  0  0  0  0  0  0  0  0  0  0  0
   44.1423   36.6532   -2.9650 C   0  0  0  0  0  0  0  0  0  0  0  0
   45.4106   37.3863   -2.3667 C   0  0  0  0  0  0  0  0  0  0  0  0
   45.3592   38.8976   -2.5840 C   0  0  0  0  0  0  0  0  0  0  0  0
   46.6889   36.8175   -3.0173 C   0  0  0  0  0  0  0  0  0  0  0  0
   45.4023   37.0087   -0.8326 C   0  0  0  0  0  0  0  0  0  0  0  0
   45.2670   35.5614   -0.2593 C   0  0  0  0  0  0  0  0  0  0  0  0
   46.1494   35.3315    0.9847 C   0  0  0  0  0  0  0  0  0  0  0  0
   45.5400   34.4594   -1.2923 C   0  0  0  0  0  0  0  0  0  0  0  0
   43.7915   35.4097    0.2060 C   0  0  0  0  0  0  0  0  0  0  0  0
   37.8329   40.6828   -3.4448 C   0  0  0  0  0  0  0  0  0  0  0  0
   38.8337   41.1221   -2.8803 O   0  0  0  0  0  0  0  0  0  0  0  0
   37.5400   39.3362   -3.4835 N   0  0  0  0  0  0  0  0  0  0  0  0
   36.7282   39.0429   -3.9570 H   0  0  0  0  0  0  0  0  0  0  0  0
   36.8123   41.5748   -4.1583 C   0  0  0  0  0  0  0  0  0  0  0  0
   35.8340   40.5055   -5.2752 S   0  0  0  0  0  0  0  0  0  0  0  0
   35.1938   39.5531   -4.5454 H   0  0  0  0  0  0  0  0  0  0  0  0
   35.8836   42.2989   -3.1696 C   0  0  0  0  0  0  0  0  0  0  0  0
   36.5889   43.5070   -2.5308 C   0  0  0  0  0  0  0  0  0  0  0  0
   36.4985   43.5335   -1.0010 C   0  0  0  0  0  0  0  0  0  0  0  0
   37.1543   42.0001    0.8957 C   0  0  0  0  0  0  0  0  0  0  0  0
   36.3429   42.1390   -0.3846 C   0  0  0  0  0  0  0  0  0  0  0  0
   37.6123   37.6266   -1.7142 C   0  0  0  0  0  0  0  0  0  0  0  0
   38.3272   36.4288   -1.1296 C   0  0  0  0  0  0  0  0  0  0  0  0
   37.8018   35.1382   -1.2747 C   0  0  0  0  0  0  0  0  0  0  0  0
   38.4633   34.0404   -0.7180 C   0  0  0  0  0  0  0  0  0  0  0  0
   39.6515   34.2226   -0.0167 C   0  0  0  0  0  0  0  0  0  0  0  0
   40.1881   35.5002    0.1301 C   0  0  0  0  0  0  0  0  0  0  0  0
   39.5307   36.5988   -0.4293 C   0  0  0  0  0  0  0  0  0  0  0  0
 31 32  1  0
 32 30  1  0
 30 29  1  0
 29 28  1  0
 28 25  1  0
 25 26  1  0
 25 21  1  0
 21 22  2  0
 21 23  1  0
 23  1  1  0
  1 33  1  0
 33 34  1  0
 34 35  2  0
 35 36  1  0
 36 37  2  0
 37 38  1  0
 38 39  2  0
  1  2  1  0
  2  3  2  0
  2  4  1  0
  4  6  1  0
  6  7  1  0
  6  8  1  0
  8  9  1  0
  9 10  1  0
  9 11  1  0
  9 12  1  0
 12 13  1  0
 13 14  1  0
 13 15  1  0
 13 16  1  0
 16 17  1  0
 17 18  1  0
 17 19  1  0
 17 20  1  0
 39 34  1  0
 26 27  1  0
 23 24  1  0
  4  5  1  0
M  END
> <minimizedAffinity>
-6.32457

> <CNNscore>
0.7923763394

> <CNNaffinity>
7.3326115608

> <CNN_VS>
5.8101878166

> <CNNaffinity_variance>
0.1554964632

$$$$



 39 39  0  0  0  0  0  0  0  0999 V2000
   36.6259   41.5240   -3.9023 C   0  0  0  0  0  0  0  0  0  0  0  0
   37.7590   40.4951   -3.6879 C   0  0  0  0  0  0  0  0  0  0  0  0
   38.7628   40.7157   -3.0166 O   0  0  0  0  0  0  0  0  0  0  0  0
   37.5709   39.3077   -4.3709 N   0  0  0  0  0  0  0  0  0  0  0  0
   36.7800   39.2228   -4.9511 H   0  0  0  0  0  0  0  0  0  0  0  0
   38.4799   38.1797   -4.2763 C   0  0  0  0  0  0  0  0  0  0  0  0
   38.1937   37.1935   -5.4141 C   0  0  0  0  0  0  0  0  0  0  0  0
   39.9588   38.6142   -4.3572 C   0  0  0  0  0  0  0  0  0  0  0  0
   41.1132   37.5863   -4.0460 C   0  0  0  0  0  0  0  0  0  0  0  0
   42.2964   38.3370   -3.4013 C   0  0  0  0  0  0  0  0  0  0  0  0
   41.5957   36.9120   -5.3383 C   0  0  0  0  0  0  0  0  0  0  0  0
   40.4760   36.5790   -3.0124 C   0  0  0  0  0  0  0  0  0  0  0  0
   40.7781   35.0295   -2.9054 C   0  0  0  0  0  0  0  0  0  0  0  0
   42.1202   34.6588   -3.5338 C   0  0  0  0  0  0  0  0  0  0  0  0
   39.6505   34.2359   -3.5981 C   0  0  0  0  0  0  0  0  0  0  0  0
   40.7457   34.7232   -1.3558 C   0  0  0  0  0  0  0  0  0  0  0  0
   39.6883   35.2771   -0.3475 C   0  0  0  0  0  0  0  0  0  0  0  0
   40.2889   35.5631    1.0441 C   0  0  0  0  0  0  0  0  0  0  0  0
   38.4497   34.3830   -0.1975 C   0  0  0  0  0  0  0  0  0  0  0  0
   39.2118   36.6428   -0.9171 C   0  0  0  0  0  0  0  0  0  0  0  0
   35.0296   41.8533   -5.8029 C   0  0  0  0  0  0  0  0  0  0  0  0
   35.0694   43.0783   -5.6977 O   0  0  0  0  0  0  0  0  0  0  0  0
   35.7550   41.0189   -4.9792 N   0  0  0  0  0  0  0  0  0  0  0  0
   35.6888   40.0462   -5.1158 H   0  0  0  0  0  0  0  0  0  0  0  0
   34.1773   41.1280   -6.8487 C   0  0  0  0  0  0  0  0  0  0  0  0
   33.8831   42.2976   -8.2248 S   0  0  0  0  0  0  0  0  0  0  0  0
   35.0740   42.6683   -8.7670 H   0  0  0  0  0  0  0  0  0  0  0  0
   34.8613   39.8544   -7.3725 C   0  0  0  0  0  0  0  0  0  0  0  0
   33.9577   38.6240   -7.1863 C   0  0  0  0  0  0  0  0  0  0  0  0
   32.7183   38.6293   -8.0880 C   0  0  0  0  0  0  0  0  0  0  0  0
   30.6667   37.1596   -8.1854 C   0  0  0  0  0  0  0  0  0  0  0  0
   32.1761   37.2241   -8.3711 C   0  0  0  0  0  0  0  0  0  0  0  0
   35.7937   41.7503   -2.6294 C   0  0  0  0  0  0  0  0  0  0  0  0
   36.4949   42.5971   -1.5907 C   0  0  0  0  0  0  0  0  0  0  0  0
   36.7804   43.9461   -1.8380 C   0  0  0  0  0  0  0  0  0  0  0  0
   37.4416   44.7151   -0.8768 C   0  0  0  0  0  0  0  0  0  0  0  0
   37.8191   44.1451    0.3354 C   0  0  0  0  0  0  0  0  0  0  0  0
   37.5360   42.8059    0.5967 C   0  0  0  0  0  0  0  0  0  0  0  0
   36.8713   42.0361   -0.3612 C   0  0  0  0  0  0  0  0  0  0  0  0
 31 32  1  0
 32 30  1  0
 30 29  1  0
 29 28  1  0
 28 25  1  0
 25 26  1  0
 25 21  1  0
 21 22  2  0
 21 23  1  0
 23  1  1  0
  1 33  1  0
 33 34  1  0
 34 35  2  0
 35 36  1  0
 36 37  2  0
 37 38  1  0
 38 39  2  0
  1  2  1  0
  2  3  2  0
  2  4  1  0
  4  6  1  0
  6  7  1  0
  6  8  1  0
  8  9  1  0
  9 10  1  0
  9 11  1  0
  9 12  1  0
 12 13  1  0
 13 14  1  0
 13 15  1  0
 13 16  1  0
 16 17  1  0
 17 18  1  0
 17 19  1  0
 17 20  1  0
 39 34  1  0
 26 27  1  0
 23 24  1  0
  4  5  1  0
M  END
> <minimizedAffinity>
-7.73742

> <CNNscore>
0.7902705073

> <CNNaffinity>
7.6327719688

> <CNN_VS>
6.0319547653

> <CNNaffinity_variance>
0.2159572095

$$$$



 39 39  0  0  0  0  0  0  0  0999 V2000
   36.4787   41.7245   -3.6677 C   0  0  0  0  0  0  0  0  0  0  0  0
   37.6707   40.7527   -3.5150 C   0  0  0  0  0  0  0  0  0  0  0  0
   38.7769   41.0892   -3.1027 O   0  0  0  0  0  0  0  0  0  0  0  0
   37.3988   39.4654   -3.9402 N   0  0  0  0  0  0  0  0  0  0  0  0
   36.5138   39.2791   -4.3293 H   0  0  0  0  0  0  0  0  0  0  0  0
   38.3515   38.3744   -3.8422 C   0  0  0  0  0  0  0  0  0  0  0  0
   39.7779   38.9327   -3.8965 C   0  0  0  0  0  0  0  0  0  0  0  0
   38.1838   37.5693   -2.5360 C   0  0  0  0  0  0  0  0  0  0  0  0
   38.9008   36.1765   -2.3566 C   0  0  0  0  0  0  0  0  0  0  0  0
   39.9276   36.2821   -1.2104 C   0  0  0  0  0  0  0  0  0  0  0  0
   39.6330   35.7784   -3.6461 C   0  0  0  0  0  0  0  0  0  0  0  0
   37.7402   35.1836   -1.9616 C   0  0  0  0  0  0  0  0  0  0  0  0
   37.9109   33.7651   -1.2816 C   0  0  0  0  0  0  0  0  0  0  0  0
   38.2548   33.8746    0.2028 C   0  0  0  0  0  0  0  0  0  0  0  0
   39.0197   32.9757   -2.0084 C   0  0  0  0  0  0  0  0  0  0  0  0
   36.5261   33.0415   -1.5161 C   0  0  0  0  0  0  0  0  0  0  0  0
   35.8377   32.8365   -2.9038 C   0  0  0  0  0  0  0  0  0  0  0  0
   34.4775   33.5569   -3.0031 C   0  0  0  0  0  0  0  0  0  0  0  0
   35.6672   31.3627   -3.2974 C   0  0  0  0  0  0  0  0  0  0  0  0
   36.7702   33.4963   -3.9582 C   0  0  0  0  0  0  0  0  0  0  0  0
   35.3043   41.8144   -5.8771 C   0  0  0  0  0  0  0  0  0  0  0  0
   35.8155   42.8948   -6.1682 O   0  0  0  0  0  0  0  0  0  0  0  0
   35.5712   41.1694   -4.6882 N   0  0  0  0  0  0  0  0  0  0  0  0
   35.1380   40.3027   -4.5136 H   0  0  0  0  0  0  0  0  0  0  0  0
   34.3243   41.0756   -6.7936 C   0  0  0  0  0  0  0  0  0  0  0  0
   33.7818   42.2553   -8.0827 S   0  0  0  0  0  0  0  0  0  0  0  0
   34.8611   42.6769   -8.7947 H   0  0  0  0  0  0  0  0  0  0  0  0
   34.9603   39.8357   -7.4435 C   0  0  0  0  0  0  0  0  0  0  0  0
   33.9291   39.0574   -8.2777 C   0  0  0  0  0  0  0  0  0  0  0  0
   34.3619   38.8253   -9.7296 C   0  0  0  0  0  0  0  0  0  0  0  0
   32.9635   40.2810  -11.2475 C   0  0  0  0  0  0  0  0  0  0  0  0
   33.1927   38.8720  -10.7192 C   0  0  0  0  0  0  0  0  0  0  0  0
   35.7131   41.9217   -2.3490 C   0  0  0  0  0  0  0  0  0  0  0  0
   36.5065   42.6586   -1.2930 C   0  0  0  0  0  0  0  0  0  0  0  0
   36.8913   42.0187   -0.1077 C   0  0  0  0  0  0  0  0  0  0  0  0
   37.6118   42.7135    0.8675 C   0  0  0  0  0  0  0  0  0  0  0  0
   37.9541   44.0473    0.6656 C   0  0  0  0  0  0  0  0  0  0  0  0
   37.5827   44.6941   -0.5115 C   0  0  0  0  0  0  0  0  0  0  0  0
   36.8660   44.0003   -1.4897 C   0  0  0  0  0  0  0  0  0  0  0  0
 31 32  1  0
 32 30  1  0
 30 29  1  0
 29 28  1  0
 28 25  1  0
 25 26  1  0
 25 21  1  0
 21 22  2  0
 21 23  1  0
 23  1  1  0
  1 33  1  0
 33 34  1  0
 34 35  2  0
 35 36  1  0
 36 37  2  0
 37 38  1  0
 38 39  2  0
  1  2  1  0
  2  3  2  0
  2  4  1  0
  4  6  1  0
  6  7  1  0
  6  8  1  0
  8  9  1  0
  9 10  1  0
  9 11  1  0
  9 12  1  0
 12 13  1  0
 13 14  1  0
 13 15  1  0
 13 16  1  0
 16 17  1  0
 17 18  1  0
 17 19  1  0
 17 20  1  0
 39 34  1  0
 26 27  1  0
 23 24  1  0
  4  5  1  0
M  END
> <minimizedAffinity>
-7.44206

> <CNNscore>
0.7853618860

> <CNNaffinity>
7.7746772766

> <CNN_VS>
6.1059350967

> <CNNaffinity_variance>
0.2702486515

$$$$
