


 33 35  0  0  0  0  0  0  0  0999 V2000
   90.8193   95.5179  -44.9970 C   0  0  0  0  0  0  0  0  0  0  0  0
   90.8873   94.5214  -45.9884 C   0  0  0  0  0  0  0  0  0  0  0  0
   91.4395   93.2669  -45.7139 C   0  0  0  0  0  0  0  0  0  0  0  0
   91.9264   92.9817  -44.4389 C   0  0  0  0  0  0  0  0  0  0  0  0
   91.8535   93.9539  -43.4403 C   0  0  0  0  0  0  0  0  0  0  0  0
   92.5857   93.4827  -41.5388 I   0  0  0  0  0  0  0  0  0  0  0  0
   91.3003   95.2120  -43.7158 C   0  0  0  0  0  0  0  0  0  0  0  0
   91.2071   96.1714  -42.7428 O   0  0  0  0  0  0  0  0  0  0  0  0
   91.5207   95.9936  -41.8780 H   0  0  0  0  0  0  0  0  0  0  0  0
   91.5054   92.2767  -46.7437 C   0  0  0  0  0  0  0  0  0  0  0  0
   91.5606   91.4488  -47.6125 C   0  0  0  0  0  0  0  0  0  0  0  0
   91.6295   90.4386  -48.6759 C   0  0  0  0  0  0  0  0  0  0  0  0
   90.5210   89.5080  -48.5249 N   0  0  0  0  0  0  0  0  0  0  0  0
   90.2518   89.2020  -47.6287 H   0  0  0  0  0  0  0  0  0  0  0  0
   89.8398   89.0499  -49.6559 C   0  0  0  0  0  0  0  0  0  0  0  0
   89.6617   87.6646  -49.8105 C   0  0  0  0  0  0  0  0  0  0  0  0
   88.9346   87.1399  -50.8824 C   0  0  0  0  0  0  0  0  0  0  0  0
   88.3526   88.0037  -51.7972 C   0  0  0  0  0  0  0  0  0  0  0  0
   87.6522   87.5075  -52.8249 F   0  0  0  0  0  0  0  0  0  0  0  0
   88.4753   89.3777  -51.6505 C   0  0  0  0  0  0  0  0  0  0  0  0
   89.2041   89.8968  -50.5750 C   0  0  0  0  0  0  0  0  0  0  0  0
   90.2236   96.8707  -45.3359 C   0  0  0  0  0  0  0  0  0  0  0  0
   91.0858  100.7452  -43.5754 C   0  0  0  0  0  0  0  0  0  0  0  0
   89.9794   99.8529  -42.9852 C   0  0  0  0  0  0  0  0  0  0  0  0
   89.5084   98.8248  -44.0182 C   0  0  0  0  0  0  0  0  0  0  0  0
   90.6268   98.0136  -44.4976 N   0  0  0  0  0  0  0  0  0  0  0  0
   91.6762   98.8292  -45.1158 C   0  0  0  0  0  0  0  0  0  0  0  0
   92.2220   99.8636  -44.1272 C   0  0  0  0  0  0  0  0  0  0  0  0
   91.6185  101.7993  -42.6730 N   0  0  0  0  0  0  0  0  0  0  0  0
   93.8983  102.7098  -42.2800 C   0  0  0  0  0  0  0  0  0  0  0  0
   92.7385  102.5566  -43.2607 C   0  0  0  0  0  0  0  0  0  0  0  0
   91.9786  101.2767  -41.3408 C   0  0  0  0  0  0  0  0  0  0  0  0
   91.1563  101.8957  -40.2133 C   0  0  0  0  0  0  0  0  0  0  0  0
 30 31  1  0
 31 29  1  0
 29 32  1  0
 32 33  1  0
 29 23  1  0
 23 24  1  0
 24 25  1  0
 25 26  1  0
 26 22  1  0
 22  1  1  0
  1  2  2  0
  2  3  1  0
  3 10  1  0
 10 11  3  0
 11 12  1  0
 12 13  1  0
 13 15  1  0
 15 16  2  0
 16 17  1  0
 17 18  2  0
 18 19  1  0
 18 20  1  0
 20 21  2  0
  3  4  2  0
  4  5  1  0
  5  6  1  0
  5  7  2  0
  7  8  1  0
 26 27  1  0
 27 28  1  0
 28 23  1  0
  7  1  1  0
 21 15  1  0
 13 14  1  0
  8  9  1  0
M  END
> <minimizedAffinity>
-7.45476

> <CNNscore>
0.9115199447

> <CNNaffinity>
6.0256500244

> <CNN_VS>
5.4925003052

> <CNNaffinity_variance>
0.7025011182

$$$$



 33 35  0  0  0  0  0  0  0  0999 V2000
   90.8197   95.4016  -45.0248 C   0  0  0  0  0  0  0  0  0  0  0  0
   90.9241   94.3900  -45.9975 C   0  0  0  0  0  0  0  0  0  0  0  0
   91.4974   93.1521  -45.6926 C   0  0  0  0  0  0  0  0  0  0  0  0
   91.9694   92.8988  -44.4053 C   0  0  0  0  0  0  0  0  0  0  0  0
   91.8604   93.8862  -43.4250 C   0  0  0  0  0  0  0  0  0  0  0  0
   92.5714   93.4627  -41.5043 I   0  0  0  0  0  0  0  0  0  0  0  0
   91.2861   95.1276  -43.7310 C   0  0  0  0  0  0  0  0  0  0  0  0
   91.1575   96.1013  -42.7764 O   0  0  0  0  0  0  0  0  0  0  0  0
   91.4608   95.9448  -41.9038 H   0  0  0  0  0  0  0  0  0  0  0  0
   91.6002   92.1461  -46.7038 C   0  0  0  0  0  0  0  0  0  0  0  0
   91.6860   91.3049  -47.5573 C   0  0  0  0  0  0  0  0  0  0  0  0
   91.7923   90.2783  -48.6018 C   0  0  0  0  0  0  0  0  0  0  0  0
   90.4797   90.0549  -49.1889 N   0  0  0  0  0  0  0  0  0  0  0  0
   89.9955   89.2163  -49.0111 H   0  0  0  0  0  0  0  0  0  0  0  0
   89.9086   91.0342  -50.0062 C   0  0  0  0  0  0  0  0  0  0  0  0
   90.7654   91.8640  -50.7493 C   0  0  0  0  0  0  0  0  0  0  0  0
   90.2629   92.8205  -51.6357 C   0  0  0  0  0  0  0  0  0  0  0  0
   88.8922   92.9350  -51.8077 C   0  0  0  0  0  0  0  0  0  0  0  0
   88.4044   93.8475  -52.6576 F   0  0  0  0  0  0  0  0  0  0  0  0
   88.0206   92.1035  -51.1196 C   0  0  0  0  0  0  0  0  0  0  0  0
   88.5298   91.1476  -50.2339 C   0  0  0  0  0  0  0  0  0  0  0  0
   90.2019   96.7358  -45.3964 C   0  0  0  0  0  0  0  0  0  0  0  0
   90.3453  100.5074  -43.2497 C   0  0  0  0  0  0  0  0  0  0  0  0
   89.2514   99.4731  -42.9301 C   0  0  0  0  0  0  0  0  0  0  0  0
   89.0735   98.4990  -44.0986 C   0  0  0  0  0  0  0  0  0  0  0  0
   90.3351   97.8344  -44.4234 N   0  0  0  0  0  0  0  0  0  0  0  0
   91.3860   98.7899  -44.7859 C   0  0  0  0  0  0  0  0  0  0  0  0
   91.6441   99.7808  -43.6471 C   0  0  0  0  0  0  0  0  0  0  0  0
   90.6035  101.5240  -42.1965 N   0  0  0  0  0  0  0  0  0  0  0  0
   91.8726  103.3177  -43.3598 C   0  0  0  0  0  0  0  0  0  0  0  0
   90.5577  102.9086  -42.7009 C   0  0  0  0  0  0  0  0  0  0  0  0
   91.8581  101.2732  -41.4614 C   0  0  0  0  0  0  0  0  0  0  0  0
   91.7970  101.7223  -40.0035 C   0  0  0  0  0  0  0  0  0  0  0  0
 30 31  1  0
 31 29  1  0
 29 32  1  0
 32 33  1  0
 29 23  1  0
 23 24  1  0
 24 25  1  0
 25 26  1  0
 26 22  1  0
 22  1  1  0
  1  2  2  0
  2  3  1  0
  3 10  1  0
 10 11  3  0
 11 12  1  0
 12 13  1  0
 13 15  1  0
 15 16  2  0
 16 17  1  0
 17 18  2  0
 18 19  1  0
 18 20  1  0
 20 21  2  0
  3  4  2  0
  4  5  1  0
  5  6  1  0
  5  7  2  0
  7  8  1  0
 26 27  1  0
 27 28  1  0
 28 23  1  0
  7  1  1  0
 21 15  1  0
 13 14  1  0
  8  9  1  0
M  END
> <minimizedAffinity>
-7.12533

> <CNNscore>
0.8988164663

> <CNNaffinity>
6.0484499931

> <CNN_VS>
5.4364466667

> <CNNaffinity_variance>
1.1123615503

$$$$



 33 35  0  0  0  0  0  0  0  0999 V2000
   90.8029   95.5892  -45.1488 C   0  0  0  0  0  0  0  0  0  0  0  0
   90.9512   94.5137  -46.0443 C   0  0  0  0  0  0  0  0  0  0  0  0
   91.4974   93.2968  -45.6263 C   0  0  0  0  0  0  0  0  0  0  0  0
   91.8977   93.1290  -44.3013 C   0  0  0  0  0  0  0  0  0  0  0  0
   91.7443   94.1809  -43.3969 C   0  0  0  0  0  0  0  0  0  0  0  0
   92.3479   93.8851  -41.4165 I   0  0  0  0  0  0  0  0  0  0  0  0
   91.1971   95.4012  -43.8163 C   0  0  0  0  0  0  0  0  0  0  0  0
   91.0254   96.4378  -42.9377 O   0  0  0  0  0  0  0  0  0  0  0  0
   91.2802   96.3393  -42.0414 H   0  0  0  0  0  0  0  0  0  0  0  0
   91.6462   92.2243  -46.5606 C   0  0  0  0  0  0  0  0  0  0  0  0
   91.7684   91.3263  -47.3492 C   0  0  0  0  0  0  0  0  0  0  0  0
   91.9182   90.2304  -48.3150 C   0  0  0  0  0  0  0  0  0  0  0  0
   90.6021   89.8179  -48.7790 N   0  0  0  0  0  0  0  0  0  0  0  0
   90.1724   89.0183  -48.3979 H   0  0  0  0  0  0  0  0  0  0  0  0
   89.9499   90.5602  -49.7674 C   0  0  0  0  0  0  0  0  0  0  0  0
   88.5543   90.4395  -49.8789 C   0  0  0  0  0  0  0  0  0  0  0  0
   87.8298   91.2002  -50.8004 C   0  0  0  0  0  0  0  0  0  0  0  0
   88.4967   92.1137  -51.6021 C   0  0  0  0  0  0  0  0  0  0  0  0
   87.8080   92.8479  -52.4851 F   0  0  0  0  0  0  0  0  0  0  0  0
   89.8684   92.2862  -51.4883 C   0  0  0  0  0  0  0  0  0  0  0  0
   90.5881   91.5219  -50.5635 C   0  0  0  0  0  0  0  0  0  0  0  0
   90.2166   96.8980  -45.6422 C   0  0  0  0  0  0  0  0  0  0  0  0
   86.4418   98.7852  -44.6206 C   0  0  0  0  0  0  0  0  0  0  0  0
   86.4617   97.3920  -45.2742 C   0  0  0  0  0  0  0  0  0  0  0  0
   87.7924   97.1539  -45.9943 C   0  0  0  0  0  0  0  0  0  0  0  0
   88.9202   97.3112  -45.0765 N   0  0  0  0  0  0  0  0  0  0  0  0
   88.9624   98.6479  -44.4765 C   0  0  0  0  0  0  0  0  0  0  0  0
   87.6719   98.9459  -43.7075 C   0  0  0  0  0  0  0  0  0  0  0  0
   85.1923   99.1455  -43.9008 N   0  0  0  0  0  0  0  0  0  0  0  0
   82.9264   98.3118  -44.4937 C   0  0  0  0  0  0  0  0  0  0  0  0
   84.2452   98.0220  -43.7815 C   0  0  0  0  0  0  0  0  0  0  0  0
   84.5300  100.3332  -44.4737 C   0  0  0  0  0  0  0  0  0  0  0  0
   84.5892  101.5519  -43.5561 C   0  0  0  0  0  0  0  0  0  0  0  0
 30 31  1  0
 31 29  1  0
 29 32  1  0
 32 33  1  0
 29 23  1  0
 23 24  1  0
 24 25  1  0
 25 26  1  0
 26 22  1  0
 22  1  1  0
  1  2  2  0
  2  3  1  0
  3 10  1  0
 10 11  3  0
 11 12  1  0
 12 13  1  0
 13 15  1  0
 15 16  2  0
 16 17  1  0
 17 18  2  0
 18 19  1  0
 18 20  1  0
 20 21  2  0
  3  4  2  0
  4  5  1  0
  5  6  1  0
  5  7  2  0
  7  8  1  0
 26 27  1  0
 27 28  1  0
 28 23  1  0
  7  1  1  0
 21 15  1  0
 13 14  1  0
  8  9  1  0
M  END
> <minimizedAffinity>
-7.02602

> <CNNscore>
0.8705121875

> <CNNaffinity>
5.7066521645

> <CNN_VS>
4.9677104950

> <CNNaffinity_variance>
0.8569665551

$$$$



 33 35  0  0  0  0  0  0  0  0999 V2000
   90.9361   95.6969  -45.0659 C   0  0  0  0  0  0  0  0  0  0  0  0
   90.9976   94.6949  -46.0521 C   0  0  0  0  0  0  0  0  0  0  0  0
   91.4535   93.4091  -45.7471 C   0  0  0  0  0  0  0  0  0  0  0  0
   91.8483   93.0980  -44.4465 C   0  0  0  0  0  0  0  0  0  0  0  0
   91.7799   94.0761  -43.4533 C   0  0  0  0  0  0  0  0  0  0  0  0
   92.3718   93.5660  -41.5134 I   0  0  0  0  0  0  0  0  0  0  0  0
   91.3233   95.3655  -43.7595 C   0  0  0  0  0  0  0  0  0  0  0  0
   91.2354   96.3320  -42.7930 O   0  0  0  0  0  0  0  0  0  0  0  0
   91.4876   96.1376  -41.9118 H   0  0  0  0  0  0  0  0  0  0  0  0
   91.5155   92.4134  -46.7718 C   0  0  0  0  0  0  0  0  0  0  0  0
   91.5643   91.5801  -47.6358 C   0  0  0  0  0  0  0  0  0  0  0  0
   91.6240   90.5634  -48.6935 C   0  0  0  0  0  0  0  0  0  0  0  0
   90.6511   89.5191  -48.4096 N   0  0  0  0  0  0  0  0  0  0  0  0
   90.5537   89.1709  -47.4939 H   0  0  0  0  0  0  0  0  0  0  0  0
   89.8556   89.0121  -49.4407 C   0  0  0  0  0  0  0  0  0  0  0  0
   89.2581   89.9218  -50.3296 C   0  0  0  0  0  0  0  0  0  0  0  0
   88.5038   89.4831  -51.4212 C   0  0  0  0  0  0  0  0  0  0  0  0
   88.3647   88.1228  -51.6493 C   0  0  0  0  0  0  0  0  0  0  0  0
   87.6457   87.6959  -52.6951 F   0  0  0  0  0  0  0  0  0  0  0  0
   88.9757   87.1990  -50.8139 C   0  0  0  0  0  0  0  0  0  0  0  0
   89.7299   87.6444  -49.7231 C   0  0  0  0  0  0  0  0  0  0  0  0
   90.4467   97.0833  -45.4376 C   0  0  0  0  0  0  0  0  0  0  0  0
   86.6643   99.0028  -44.5086 C   0  0  0  0  0  0  0  0  0  0  0  0
   86.6895   97.6560  -45.2531 C   0  0  0  0  0  0  0  0  0  0  0  0
   88.0544   97.4294  -45.9101 C   0  0  0  0  0  0  0  0  0  0  0  0
   89.1293   97.4939  -44.9206 N   0  0  0  0  0  0  0  0  0  0  0  0
   89.1679   98.7861  -44.2296 C   0  0  0  0  0  0  0  0  0  0  0  0
   87.8417   99.0681  -43.5176 C   0  0  0  0  0  0  0  0  0  0  0  0
   85.3833   99.3491  -43.8390 N   0  0  0  0  0  0  0  0  0  0  0  0
   82.9405   98.8875  -43.8144 C   0  0  0  0  0  0  0  0  0  0  0  0
   84.3437   98.3166  -44.0026 C   0  0  0  0  0  0  0  0  0  0  0  0
   84.8748  100.6754  -44.2385 C   0  0  0  0  0  0  0  0  0  0  0  0
   85.2493  101.0533  -45.6695 C   0  0  0  0  0  0  0  0  0  0  0  0
 30 31  1  0
 31 29  1  0
 29 32  1  0
 32 33  1  0
 29 23  1  0
 23 24  1  0
 24 25  1  0
 25 26  1  0
 26 22  1  0
 22  1  1  0
  1  2  2  0
  2  3  1  0
  3 10  1  0
 10 11  3  0
 11 12  1  0
 12 13  1  0
 13 15  1  0
 15 16  2  0
 16 17  1  0
 17 18  2  0
 18 19  1  0
 18 20  1  0
 20 21  2  0
  3  4  2  0
  4  5  1  0
  5  6  1  0
  5  7  2  0
  7  8  1  0
 26 27  1  0
 27 28  1  0
 28 23  1  0
  7  1  1  0
 21 15  1  0
 13 14  1  0
  8  9  1  0
M  END
> <minimizedAffinity>
-7.07869

> <CNNscore>
0.8417323232

> <CNNaffinity>
5.4936289787

> <CNN_VS>
4.6241650581

> <CNNaffinity_variance>
0.9908847213

$$$$



 33 35  0  0  0  0  0  0  0  0999 V2000
   90.9470   95.8379  -44.9792 C   0  0  0  0  0  0  0  0  0  0  0  0
   90.9654   94.8773  -46.0075 C   0  0  0  0  0  0  0  0  0  0  0  0
   91.3629   93.5606  -45.7580 C   0  0  0  0  0  0  0  0  0  0  0  0
   91.7409   93.1767  -44.4720 C   0  0  0  0  0  0  0  0  0  0  0  0
   91.7146   94.1134  -43.4378 C   0  0  0  0  0  0  0  0  0  0  0  0
   92.2796   93.4947  -41.5216 I   0  0  0  0  0  0  0  0  0  0  0  0
   91.3167   95.4338  -43.6883 C   0  0  0  0  0  0  0  0  0  0  0  0
   91.2703   96.3610  -42.6812 O   0  0  0  0  0  0  0  0  0  0  0  0
   91.5119   96.1180  -41.8092 H   0  0  0  0  0  0  0  0  0  0  0  0
   91.3821   92.6080  -46.8245 C   0  0  0  0  0  0  0  0  0  0  0  0
   91.3931   91.8089  -47.7215 C   0  0  0  0  0  0  0  0  0  0  0  0
   91.4050   90.8339  -48.8194 C   0  0  0  0  0  0  0  0  0  0  0  0
   90.6714   89.6450  -48.4120 N   0  0  0  0  0  0  0  0  0  0  0  0
   90.6225   89.3969  -47.4605 H   0  0  0  0  0  0  0  0  0  0  0  0
   90.0366   88.8564  -49.3755 C   0  0  0  0  0  0  0  0  0  0  0  0
   90.1595   87.4598  -49.2794 C   0  0  0  0  0  0  0  0  0  0  0  0
   89.4987   86.6087  -50.1692 C   0  0  0  0  0  0  0  0  0  0  0  0
   88.6822   87.1507  -51.1496 C   0  0  0  0  0  0  0  0  0  0  0  0
   88.0438   86.3406  -52.0035 F   0  0  0  0  0  0  0  0  0  0  0  0
   88.5073   88.5236  -51.2458 C   0  0  0  0  0  0  0  0  0  0  0  0
   89.1714   89.3704  -50.3517 C   0  0  0  0  0  0  0  0  0  0  0  0
   90.5207   97.2595  -45.2910 C   0  0  0  0  0  0  0  0  0  0  0  0
   86.9723   97.2229  -47.7933 C   0  0  0  0  0  0  0  0  0  0  0  0
   87.3677   98.4965  -47.0249 C   0  0  0  0  0  0  0  0  0  0  0  0
   88.2966   98.1538  -45.8563 C   0  0  0  0  0  0  0  0  0  0  0  0
   89.4852   97.4413  -46.3235 N   0  0  0  0  0  0  0  0  0  0  0  0
   89.1461   96.1935  -47.0138 C   0  0  0  0  0  0  0  0  0  0  0  0
   88.2413   96.4613  -48.2200 C   0  0  0  0  0  0  0  0  0  0  0  0
   86.0552   97.4202  -48.9462 N   0  0  0  0  0  0  0  0  0  0  0  0
   86.8501   98.8104  -50.8479 C   0  0  0  0  0  0  0  0  0  0  0  0
   86.1146   98.7809  -49.5105 C   0  0  0  0  0  0  0  0  0  0  0  0
   84.6637   97.0398  -48.6357 C   0  0  0  0  0  0  0  0  0  0  0  0
   83.6631   98.1611  -48.9044 C   0  0  0  0  0  0  0  0  0  0  0  0
 30 31  1  0
 31 29  1  0
 29 32  1  0
 32 33  1  0
 29 23  1  0
 23 24  1  0
 24 25  1  0
 25 26  1  0
 26 22  1  0
 22  1  1  0
  1  2  2  0
  2  3  1  0
  3 10  1  0
 10 11  3  0
 11 12  1  0
 12 13  1  0
 13 15  1  0
 15 16  2  0
 16 17  1  0
 17 18  2  0
 18 19  1  0
 18 20  1  0
 20 21  2  0
  3  4  2  0
  4  5  1  0
  5  6  1  0
  5  7  2  0
  7  8  1  0
 26 27  1  0
 27 28  1  0
 28 23  1  0
  7  1  1  0
 21 15  1  0
 13 14  1  0
  8  9  1  0
M  END
> <minimizedAffinity>
-6.26964

> <CNNscore>
0.5736361742

> <CNNaffinity>
5.1686725616

> <CNN_VS>
2.9649374485

> <CNNaffinity_variance>
1.0212306976

$$$$



 33 35  0  0  0  0  0  0  0  0999 V2000
   90.5742   96.7349  -44.9942 C   0  0  0  0  0  0  0  0  0  0  0  0
   90.7417   95.5704  -45.7665 C   0  0  0  0  0  0  0  0  0  0  0  0
   91.2120   94.3856  -45.1930 C   0  0  0  0  0  0  0  0  0  0  0  0
   91.5154   94.3401  -43.8328 C   0  0  0  0  0  0  0  0  0  0  0  0
   91.3413   95.4822  -43.0497 C   0  0  0  0  0  0  0  0  0  0  0  0
   91.7984   95.3693  -41.0121 I   0  0  0  0  0  0  0  0  0  0  0  0
   90.8702   96.6703  -43.6251 C   0  0  0  0  0  0  0  0  0  0  0  0
   90.6790   97.7951  -42.8673 O   0  0  0  0  0  0  0  0  0  0  0  0
   90.8689   97.7797  -41.9499 H   0  0  0  0  0  0  0  0  0  0  0  0
   91.3828   93.2202  -46.0041 C   0  0  0  0  0  0  0  0  0  0  0  0
   91.5226   92.2432  -46.6892 C   0  0  0  0  0  0  0  0  0  0  0  0
   91.6934   91.0506  -47.5286 C   0  0  0  0  0  0  0  0  0  0  0  0
   91.6337   91.4387  -48.9298 N   0  0  0  0  0  0  0  0  0  0  0  0
   92.3289   92.0226  -49.3105 H   0  0  0  0  0  0  0  0  0  0  0  0
   90.5863   90.9801  -49.7334 C   0  0  0  0  0  0  0  0  0  0  0  0
   90.1585   91.7922  -50.7975 C   0  0  0  0  0  0  0  0  0  0  0  0
   89.1614   91.3687  -51.6803 C   0  0  0  0  0  0  0  0  0  0  0  0
   88.6017   90.1104  -51.5214 C   0  0  0  0  0  0  0  0  0  0  0  0
   87.6480   89.6975  -52.3656 F   0  0  0  0  0  0  0  0  0  0  0  0
   89.0304   89.2683  -50.5058 C   0  0  0  0  0  0  0  0  0  0  0  0
   90.0293   89.6979  -49.6255 C   0  0  0  0  0  0  0  0  0  0  0  0
   90.0724   98.0046  -45.6544 C   0  0  0  0  0  0  0  0  0  0  0  0
   85.7441   97.6649  -45.5867 C   0  0  0  0  0  0  0  0  0  0  0  0
   86.4509   98.7517  -44.7572 C   0  0  0  0  0  0  0  0  0  0  0  0
   87.9180   98.3803  -44.5215 C   0  0  0  0  0  0  0  0  0  0  0  0
   88.6136   98.1628  -45.7894 N   0  0  0  0  0  0  0  0  0  0  0  0
   87.9974   97.0946  -46.5819 C   0  0  0  0  0  0  0  0  0  0  0  0
   86.5308   97.4131  -46.8868 C   0  0  0  0  0  0  0  0  0  0  0  0
   84.3045   97.9007  -45.8712 N   0  0  0  0  0  0  0  0  0  0  0  0
   82.1196   96.9393  -46.5664 C   0  0  0  0  0  0  0  0  0  0  0  0
   83.6275   96.7286  -46.4556 C   0  0  0  0  0  0  0  0  0  0  0  0
   84.0787   99.1036  -46.6954 C   0  0  0  0  0  0  0  0  0  0  0  0
   83.4435  100.2522  -45.9157 C   0  0  0  0  0  0  0  0  0  0  0  0
 30 31  1  0
 31 29  1  0
 29 32  1  0
 32 33  1  0
 29 23  1  0
 23 24  1  0
 24 25  1  0
 25 26  1  0
 26 22  1  0
 22  1  1  0
  1  2  2  0
  2  3  1  0
  3 10  1  0
 10 11  3  0
 11 12  1  0
 12 13  1  0
 13 15  1  0
 15 16  2  0
 16 17  1  0
 17 18  2  0
 18 19  1  0
 18 20  1  0
 20 21  2  0
  3  4  2  0
  4  5  1  0
  5  6  1  0
  5  7  2  0
  7  8  1  0
 26 27  1  0
 27 28  1  0
 28 23  1  0
  7  1  1  0
 21 15  1  0
 13 14  1  0
  8  9  1  0
M  END
> <minimizedAffinity>
-6.37793

> <CNNscore>
0.4122663736

> <CNNaffinity>
5.0495924950

> <CNN_VS>
2.0817770958

> <CNNaffinity_variance>
1.2659056187

$$$$



 33 35  0  0  0  0  0  0  0  0999 V2000
   90.4696   99.7631  -44.4604 C   0  0  0  0  0  0  0  0  0  0  0  0
   89.0890   99.7687  -44.1876 C   0  0  0  0  0  0  0  0  0  0  0  0
   88.3280   98.6008  -44.2921 C   0  0  0  0  0  0  0  0  0  0  0  0
   88.9356   97.4018  -44.6628 C   0  0  0  0  0  0  0  0  0  0  0  0
   90.3066   97.3760  -44.9229 C   0  0  0  0  0  0  0  0  0  0  0  0
   91.1810   95.5556  -45.4664 I   0  0  0  0  0  0  0  0  0  0  0  0
   91.0694   98.5473  -44.8187 C   0  0  0  0  0  0  0  0  0  0  0  0
   92.4184   98.5354  -45.0553 O   0  0  0  0  0  0  0  0  0  0  0  0
   92.8447   97.7366  -45.2963 H   0  0  0  0  0  0  0  0  0  0  0  0
   86.9247   98.6380  -44.0192 C   0  0  0  0  0  0  0  0  0  0  0  0
   85.7448   98.6672  -43.7950 C   0  0  0  0  0  0  0  0  0  0  0  0
   84.3024   98.7006  -43.5222 C   0  0  0  0  0  0  0  0  0  0  0  0
   83.7183   97.4153  -43.8752 N   0  0  0  0  0  0  0  0  0  0  0  0
   83.8738   96.6287  -43.3039 H   0  0  0  0  0  0  0  0  0  0  0  0
   82.9361   97.3009  -45.0276 C   0  0  0  0  0  0  0  0  0  0  0  0
   82.9186   96.0676  -45.7010 C   0  0  0  0  0  0  0  0  0  0  0  0
   82.1092   95.8622  -46.8215 C   0  0  0  0  0  0  0  0  0  0  0  0
   81.2850   96.8860  -47.2622 C   0  0  0  0  0  0  0  0  0  0  0  0
   80.5049   96.6948  -48.3336 F   0  0  0  0  0  0  0  0  0  0  0  0
   81.2486   98.1020  -46.5955 C   0  0  0  0  0  0  0  0  0  0  0  0
   82.0609   98.3013  -45.4740 C   0  0  0  0  0  0  0  0  0  0  0  0
   91.2597  101.0526  -44.3472 C   0  0  0  0  0  0  0  0  0  0  0  0
   92.1847  102.6261  -40.4074 C   0  0  0  0  0  0  0  0  0  0  0  0
   92.0874  103.5715  -41.6180 C   0  0  0  0  0  0  0  0  0  0  0  0
   92.2666  102.7930  -42.9248 C   0  0  0  0  0  0  0  0  0  0  0  0
   91.2852  101.7139  -43.0307 N   0  0  0  0  0  0  0  0  0  0  0  0
   91.3867  100.7634  -41.9194 C   0  0  0  0  0  0  0  0  0  0  0  0
   91.1840  101.4671  -40.5744 C   0  0  0  0  0  0  0  0  0  0  0  0
   92.0430  103.2654  -39.0731 N   0  0  0  0  0  0  0  0  0  0  0  0
   90.5129  103.8891  -37.2154 C   0  0  0  0  0  0  0  0  0  0  0  0
   90.6396  103.4977  -38.6854 C   0  0  0  0  0  0  0  0  0  0  0  0
   92.8344  104.5048  -38.9509 C   0  0  0  0  0  0  0  0  0  0  0  0
   94.1880  104.2863  -38.2795 C   0  0  0  0  0  0  0  0  0  0  0  0
 30 31  1  0
 31 29  1  0
 29 32  1  0
 32 33  1  0
 29 23  1  0
 23 24  1  0
 24 25  1  0
 25 26  1  0
 26 22  1  0
 22  1  1  0
  1  2  2  0
  2  3  1  0
  3 10  1  0
 10 11  3  0
 11 12  1  0
 12 13  1  0
 13 15  1  0
 15 16  2  0
 16 17  1  0
 17 18  2  0
 18 19  1  0
 18 20  1  0
 20 21  2  0
  3  4  2  0
  4  5  1  0
  5  6  1  0
  5  7  2  0
  7  8  1  0
 26 27  1  0
 27 28  1  0
 28 23  1  0
  7  1  1  0
 21 15  1  0
 13 14  1  0
  8  9  1  0
M  END
> <minimizedAffinity>
-5.03864

> <CNNscore>
0.2835845649

> <CNNaffinity>
5.1129536629

> <CNN_VS>
1.4499547482

> <CNNaffinity_variance>
0.4987238348

$$$$



 33 35  0  0  0  0  0  0  0  0999 V2000
   83.4273   96.0060  -46.5548 C   0  0  0  0  0  0  0  0  0  0  0  0
   83.6294   94.6170  -46.4534 C   0  0  0  0  0  0  0  0  0  0  0  0
   83.8555   93.8358  -47.5903 C   0  0  0  0  0  0  0  0  0  0  0  0
   83.8930   94.4308  -48.8508 C   0  0  0  0  0  0  0  0  0  0  0  0
   83.7088   95.8093  -48.9675 C   0  0  0  0  0  0  0  0  0  0  0  0
   83.7823   96.6639  -50.8748 I   0  0  0  0  0  0  0  0  0  0  0  0
   83.4814   96.5924  -47.8275 C   0  0  0  0  0  0  0  0  0  0  0  0
   83.3144   97.9484  -47.9235 O   0  0  0  0  0  0  0  0  0  0  0  0
   83.3459   98.3661  -48.7616 H   0  0  0  0  0  0  0  0  0  0  0  0
   84.0472   92.4247  -47.4586 C   0  0  0  0  0  0  0  0  0  0  0  0
   84.2050   91.2385  -47.3524 C   0  0  0  0  0  0  0  0  0  0  0  0
   84.3980   89.7884  -47.2252 C   0  0  0  0  0  0  0  0  0  0  0  0
   84.8438   89.2508  -48.5019 N   0  0  0  0  0  0  0  0  0  0  0  0
   84.1869   89.0301  -49.2011 H   0  0  0  0  0  0  0  0  0  0  0  0
   86.2074   89.0488  -48.7323 C   0  0  0  0  0  0  0  0  0  0  0  0
   86.8537   89.8727  -49.6694 C   0  0  0  0  0  0  0  0  0  0  0  0
   88.2277   89.7702  -49.9024 C   0  0  0  0  0  0  0  0  0  0  0  0
   88.9749   88.8570  -49.1747 C   0  0  0  0  0  0  0  0  0  0  0  0
   90.2924   88.7558  -49.3910 F   0  0  0  0  0  0  0  0  0  0  0  0
   88.3742   88.0572  -48.2134 C   0  0  0  0  0  0  0  0  0  0  0  0
   86.9982   88.1649  -47.9844 C   0  0  0  0  0  0  0  0  0  0  0  0
   83.1734   96.8186  -45.2998 C   0  0  0  0  0  0  0  0  0  0  0  0
   85.9833   99.5706  -43.4599 C   0  0  0  0  0  0  0  0  0  0  0  0
   86.4803   98.4929  -44.4398 C   0  0  0  0  0  0  0  0  0  0  0  0
   85.4584   97.3578  -44.5554 C   0  0  0  0  0  0  0  0  0  0  0  0
   84.1519   97.8692  -44.9679 N   0  0  0  0  0  0  0  0  0  0  0  0
   83.6236   98.8603  -44.0259 C   0  0  0  0  0  0  0  0  0  0  0  0
   84.5809  100.0471  -43.8829 C   0  0  0  0  0  0  0  0  0  0  0  0
   86.8969  100.7235  -43.2468 N   0  0  0  0  0  0  0  0  0  0  0  0
   87.8048  101.7205  -45.3355 C   0  0  0  0  0  0  0  0  0  0  0  0
   86.7321  101.7897  -44.2515 C   0  0  0  0  0  0  0  0  0  0  0  0
   88.3108  100.3148  -43.1406 C   0  0  0  0  0  0  0  0  0  0  0  0
   89.0441  100.9926  -41.9858 C   0  0  0  0  0  0  0  0  0  0  0  0
 30 31  1  0
 31 29  1  0
 29 32  1  0
 32 33  1  0
 29 23  1  0
 23 24  1  0
 24 25  1  0
 25 26  1  0
 26 22  1  0
 22  1  1  0
  1  2  2  0
  2  3  1  0
  3 10  1  0
 10 11  3  0
 11 12  1  0
 12 13  1  0
 13 15  1  0
 15 16  2  0
 16 17  1  0
 17 18  2  0
 18 19  1  0
 18 20  1  0
 20 21  2  0
  3  4  2  0
  4  5  1  0
  5  6  1  0
  5  7  2  0
  7  8  1  0
 26 27  1  0
 27 28  1  0
 28 23  1  0
  7  1  1  0
 21 15  1  0
 13 14  1  0
  8  9  1  0
M  END
> <minimizedAffinity>
-4.23793

> <CNNscore>
0.2528139353

> <CNNaffinity>
4.6464447975

> <CNN_VS>
1.1746859550

> <CNNaffinity_variance>
0.3093832433

$$$$



 33 35  0  0  0  0  0  0  0  0999 V2000
   89.2009  100.5997  -43.6128 C   0  0  0  0  0  0  0  0  0  0  0  0
   87.8544  100.1953  -43.5505 C   0  0  0  0  0  0  0  0  0  0  0  0
   87.4648   98.9178  -43.9629 C   0  0  0  0  0  0  0  0  0  0  0  0
   88.4167   98.0162  -44.4374 C   0  0  0  0  0  0  0  0  0  0  0  0
   89.7584   98.3963  -44.4922 C   0  0  0  0  0  0  0  0  0  0  0  0
   91.1559   97.0111  -45.2008 I   0  0  0  0  0  0  0  0  0  0  0  0
   90.1489   99.6776  -44.0792 C   0  0  0  0  0  0  0  0  0  0  0  0
   91.4634  100.0606  -44.1120 O   0  0  0  0  0  0  0  0  0  0  0  0
   92.1177   99.4642  -44.4191 H   0  0  0  0  0  0  0  0  0  0  0  0
   86.0877   98.5374  -43.8985 C   0  0  0  0  0  0  0  0  0  0  0  0
   84.9304   98.2203  -43.8394 C   0  0  0  0  0  0  0  0  0  0  0  0
   83.5154   97.8349  -43.7661 C   0  0  0  0  0  0  0  0  0  0  0  0
   82.9059   97.9985  -45.0773 N   0  0  0  0  0  0  0  0  0  0  0  0
   83.1246   97.3725  -45.8050 H   0  0  0  0  0  0  0  0  0  0  0  0
   82.0092   99.0469  -45.3004 C   0  0  0  0  0  0  0  0  0  0  0  0
   81.1622   98.9721  -46.4192 C   0  0  0  0  0  0  0  0  0  0  0  0
   80.1971   99.9518  -46.6676 C   0  0  0  0  0  0  0  0  0  0  0  0
   80.0521  101.0048  -45.7777 C   0  0  0  0  0  0  0  0  0  0  0  0
   79.1273  101.9453  -46.0083 F   0  0  0  0  0  0  0  0  0  0  0  0
   80.8449  101.0862  -44.6423 C   0  0  0  0  0  0  0  0  0  0  0  0
   81.8090  100.1020  -44.3990 C   0  0  0  0  0  0  0  0  0  0  0  0
   89.5835  101.9979  -43.1671 C   0  0  0  0  0  0  0  0  0  0  0  0
   92.5069  103.1711  -40.1786 C   0  0  0  0  0  0  0  0  0  0  0  0
   91.5471  101.9988  -39.9079 C   0  0  0  0  0  0  0  0  0  0  0  0
   90.3185  102.0876  -40.8181 C   0  0  0  0  0  0  0  0  0  0  0  0
   90.7111  102.1203  -42.2265 N   0  0  0  0  0  0  0  0  0  0  0  0
   91.5838  103.2581  -42.5308 C   0  0  0  0  0  0  0  0  0  0  0  0
   92.8553  103.2187  -41.6783 C   0  0  0  0  0  0  0  0  0  0  0  0
   93.7360  103.2083  -39.3438 N   0  0  0  0  0  0  0  0  0  0  0  0
   93.6509  103.3590  -36.8636 C   0  0  0  0  0  0  0  0  0  0  0  0
   93.6271  104.1174  -38.1882 C   0  0  0  0  0  0  0  0  0  0  0  0
   94.9484  103.5024  -40.1318 C   0  0  0  0  0  0  0  0  0  0  0  0
   95.6705  104.7656  -39.6694 C   0  0  0  0  0  0  0  0  0  0  0  0
 30 31  1  0
 31 29  1  0
 29 32  1  0
 32 33  1  0
 29 23  1  0
 23 24  1  0
 24 25  1  0
 25 26  1  0
 26 22  1  0
 22  1  1  0
  1  2  2  0
  2  3  1  0
  3 10  1  0
 10 11  3  0
 11 12  1  0
 12 13  1  0
 13 15  1  0
 15 16  2  0
 16 17  1  0
 17 18  2  0
 18 19  1  0
 18 20  1  0
 20 21  2  0
  3  4  2  0
  4  5  1  0
  5  6  1  0
  5  7  2  0
  7  8  1  0
 26 27  1  0
 27 28  1  0
 28 23  1  0
  7  1  1  0
 21 15  1  0
 13 14  1  0
  8  9  1  0
M  END
> <minimizedAffinity>
-4.40736

> <CNNscore>
0.2154019475

> <CNNaffinity>
4.5787162781

> <CNN_VS>
0.9862644076

> <CNNaffinity_variance>
0.9264248013

$$$$
