


 26 27  0  0  0  0  0  0  0  0999 V2000
    3.7783    3.9950    7.9081 N   0  0  0  0  0  0  0  0  0  0  0  0
    4.2168    4.6829    6.9174 C   0  0  0  0  0  0  0  0  0  0  0  0
    4.0250    6.0317    6.7847 O   0  0  0  0  0  0  0  0  0  0  0  0
    4.5963    6.4299    5.5206 C   0  0  0  0  0  0  0  0  0  0  0  0
    5.5793    5.3172    5.2049 C   0  0  0  0  0  0  0  0  0  0  0  0
    5.7746    5.0131    3.7375 C   0  0  0  0  0  0  0  0  0  0  0  0
    6.4001    6.1205    3.0809 O   0  0  0  0  0  0  0  0  0  0  0  0
    6.6658    3.7641    3.6088 C   0  0  0  0  0  0  0  0  0  0  0  0
    6.0996    2.5522    4.4013 C   0  0  0  0  0  0  0  0  0  0  0  0
    5.6216    2.9359    5.8404 C   0  0  0  0  0  0  0  0  0  0  0  0
    4.7259    1.9272    6.2912 O   0  0  0  0  0  0  0  0  0  0  0  0
    4.9412    4.2050    5.8653 N   0  0  0  0  0  0  0  0  0  0  0  0
    7.2640    6.2915    3.4875 H   0  0  0  0  0  0  0  0  0  0  0  0
    3.9612    1.8844    5.6960 H   0  0  0  0  0  0  0  0  0  0  0  0
    6.7542    3.5308    2.1797 O   0  0  0  0  0  0  0  0  0  0  0  0
    8.0838    3.4576    1.6812 C   0  0  0  0  0  0  0  0  0  0  0  0
    7.1683    1.5705    4.4648 O   0  0  0  0  0  0  0  0  0  0  0  0
    6.9629    0.4473    3.6147 C   0  0  0  0  0  0  0  0  0  0  0  0
    3.0261    4.7543    8.9113 C   0  0  0  0  0  0  0  0  0  0  0  0
    4.0132    5.6440    9.6665 C   0  0  0  0  0  0  0  0  0  0  0  0
    4.0086    5.4132   11.1803 C   0  0  0  0  0  0  0  0  0  0  0  0
    3.2508    6.4955   11.9538 C   0  0  0  0  0  0  0  0  0  0  0  0
    1.7810    6.6197   11.5368 C   0  0  0  0  0  0  0  0  0  0  0  0
    0.8084    6.5281   12.7156 C   0  0  0  0  0  0  0  0  0  0  0  0
    1.8170    5.1537   14.6145 C   0  0  0  0  0  0  0  0  0  0  0  0
    1.5089    6.5425   14.0768 C   0  0  0  0  0  0  0  0  0  0  0  0
 25 26  1  0
 26 24  1  0
 24 23  1  0
 23 22  1  0
 22 21  1  0
 21 20  1  0
 20 19  1  0
 19  1  1  0
  1  2  2  0
  2  3  1  0
  3  4  1  0
  5  4  1  0
  5  6  1  0
  6  7  1  0
  6  8  1  0
  8 15  1  0
 15 16  1  0
  8  9  1  0
  9 17  1  0
 17 18  1  0
  9 10  1  0
 10 11  1  0
 10 12  1  0
 12  2  1  0
 12  5  1  0
  7 13  1  0
 11 14  1  0
M  END
> <minimizedAffinity>
-6.45466

> <CNNscore>
0.3969028294

> <CNNaffinity>
5.2662549019

> <CNN_VS>
2.0901913643

> <CNNaffinity_variance>
0.3829417229

$$$$



 26 27  0  0  0  0  0  0  0  0999 V2000
    8.1562    6.1776    5.4537 N   0  0  0  0  0  0  0  0  0  0  0  0
    6.9024    6.1059    5.1890 C   0  0  0  0  0  0  0  0  0  0  0  0
    6.1435    7.1797    4.8088 O   0  0  0  0  0  0  0  0  0  0  0  0
    4.7816    6.7225    4.6705 C   0  0  0  0  0  0  0  0  0  0  0  0
    4.9240    5.2228    4.4841 C   0  0  0  0  0  0  0  0  0  0  0  0
    3.7944    4.3844    5.0362 C   0  0  0  0  0  0  0  0  0  0  0  0
    2.5891    4.6342    4.3059 O   0  0  0  0  0  0  0  0  0  0  0  0
    4.1780    2.8985    4.9098 C   0  0  0  0  0  0  0  0  0  0  0  0
    5.5429    2.5830    5.5843 C   0  0  0  0  0  0  0  0  0  0  0  0
    6.6499    3.6322    5.2373 C   0  0  0  0  0  0  0  0  0  0  0  0
    7.6699    3.5400    6.2244 O   0  0  0  0  0  0  0  0  0  0  0  0
    6.1368    4.9778    5.2252 N   0  0  0  0  0  0  0  0  0  0  0  0
    2.7243    4.4093    3.3721 H   0  0  0  0  0  0  0  0  0  0  0  0
    7.2950    3.7401    7.0963 H   0  0  0  0  0  0  0  0  0  0  0  0
    3.0613    2.1869    5.5026 O   0  0  0  0  0  0  0  0  0  0  0  0
    3.1395    2.0510    6.9158 C   0  0  0  0  0  0  0  0  0  0  0  0
    5.9311    1.2618    5.1221 O   0  0  0  0  0  0  0  0  0  0  0  0
    6.6198    1.2724    3.8763 C   0  0  0  0  0  0  0  0  0  0  0  0
    8.7436    7.5156    5.3367 C   0  0  0  0  0  0  0  0  0  0  0  0
   10.2301    7.3515    5.0206 C   0  0  0  0  0  0  0  0  0  0  0  0
   10.5449    6.0984    4.1988 C   0  0  0  0  0  0  0  0  0  0  0  0
   11.0889    6.4127    2.8027 C   0  0  0  0  0  0  0  0  0  0  0  0
   11.7173    7.8069    2.6984 C   0  0  0  0  0  0  0  0  0  0  0  0
   13.1193    7.7937    2.0836 C   0  0  0  0  0  0  0  0  0  0  0  0
   13.9456    9.5987    3.6871 C   0  0  0  0  0  0  0  0  0  0  0  0
   13.8602    9.1236    2.2449 C   0  0  0  0  0  0  0  0  0  0  0  0
 25 26  1  0
 26 24  1  0
 24 23  1  0
 23 22  1  0
 22 21  1  0
 21 20  1  0
 20 19  1  0
 19  1  1  0
  1  2  2  0
  2  3  1  0
  3  4  1  0
  5  4  1  0
  5  6  1  0
  6  7  1  0
  6  8  1  0
  8 15  1  0
 15 16  1  0
  8  9  1  0
  9 17  1  0
 17 18  1  0
  9 10  1  0
 10 11  1  0
 10 12  1  0
 12  2  1  0
 12  5  1  0
  7 13  1  0
 11 14  1  0
M  END
> <minimizedAffinity>
-5.67481

> <CNNscore>
0.3056189418

> <CNNaffinity>
4.7285342216

> <CNN_VS>
1.4451296329

> <CNNaffinity_variance>
0.4750174582

$$$$



 26 27  0  0  0  0  0  0  0  0999 V2000
    4.6535    5.8729    6.7478 N   0  0  0  0  0  0  0  0  0  0  0  0
    5.0403    6.4581    7.8225 C   0  0  0  0  0  0  0  0  0  0  0  0
    6.1739    7.2209    7.9064 O   0  0  0  0  0  0  0  0  0  0  0  0
    6.3101    7.6476    9.2783 C   0  0  0  0  0  0  0  0  0  0  0  0
    4.9049    7.5145    9.8366 C   0  0  0  0  0  0  0  0  0  0  0  0
    4.8140    7.1566   11.3021 C   0  0  0  0  0  0  0  0  0  0  0  0
    5.3238    8.2256   12.1058 O   0  0  0  0  0  0  0  0  0  0  0  0
    3.3371    6.9022   11.6551 C   0  0  0  0  0  0  0  0  0  0  0  0
    2.6878    5.8298   10.7355 C   0  0  0  0  0  0  0  0  0  0  0  0
    3.0286    6.0382    9.2232 C   0  0  0  0  0  0  0  0  0  0  0  0
    2.8059    4.8067    8.5472 O   0  0  0  0  0  0  0  0  0  0  0  0
    4.3993    6.4340    9.0260 N   0  0  0  0  0  0  0  0  0  0  0  0
    4.8052    9.0288   11.9423 H   0  0  0  0  0  0  0  0  0  0  0  0
    3.3858    4.1240    8.9194 H   0  0  0  0  0  0  0  0  0  0  0  0
    3.3617    6.5253   13.0559 O   0  0  0  0  0  0  0  0  0  0  0  0
    3.2635    5.1256   13.2857 C   0  0  0  0  0  0  0  0  0  0  0  0
    1.2542    5.9207   10.9512 O   0  0  0  0  0  0  0  0  0  0  0  0
    0.7172    7.2114   10.6828 C   0  0  0  0  0  0  0  0  0  0  0  0
    5.5267    6.0605    5.5855 C   0  0  0  0  0  0  0  0  0  0  0  0
    4.6814    6.6351    4.4489 C   0  0  0  0  0  0  0  0  0  0  0  0
    5.4405    7.6293    3.5657 C   0  0  0  0  0  0  0  0  0  0  0  0
    6.7820    8.0644    4.1616 C   0  0  0  0  0  0  0  0  0  0  0  0
    7.9697    7.2509    3.6350 C   0  0  0  0  0  0  0  0  0  0  0  0
    7.5963    6.3101    2.4864 C   0  0  0  0  0  0  0  0  0  0  0  0
    7.9954    3.8736    1.8416 C   0  0  0  0  0  0  0  0  0  0  0  0
    7.5168    4.8418    2.9123 C   0  0  0  0  0  0  0  0  0  0  0  0
 25 26  1  0
 26 24  1  0
 24 23  1  0
 23 22  1  0
 22 21  1  0
 21 20  1  0
 20 19  1  0
 19  1  1  0
  1  2  2  0
  2  3  1  0
  3  4  1  0
  5  4  1  0
  5  6  1  0
  6  7  1  0
  6  8  1  0
  8 15  1  0
 15 16  1  0
  8  9  1  0
  9 17  1  0
 17 18  1  0
  9 10  1  0
 10 11  1  0
 10 12  1  0
 12  2  1  0
 12  5  1  0
  7 13  1  0
 11 14  1  0
M  END
> <minimizedAffinity>
-5.60192

> <CNNscore>
0.2994827032

> <CNNaffinity>
5.2487015724

> <CNN_VS>
1.5718953609

> <CNNaffinity_variance>
0.1866115928

$$$$



 26 27  0  0  0  0  0  0  0  0999 V2000
    8.1051    6.1502    5.1624 N   0  0  0  0  0  0  0  0  0  0  0  0
    6.8332    6.0655    5.0134 C   0  0  0  0  0  0  0  0  0  0  0  0
    6.0373    7.1221    4.6614 O   0  0  0  0  0  0  0  0  0  0  0  0
    4.6712    6.6568    4.6625 C   0  0  0  0  0  0  0  0  0  0  0  0
    4.8050    5.1514    4.5216 C   0  0  0  0  0  0  0  0  0  0  0  0
    3.7337    4.3324    5.2038 C   0  0  0  0  0  0  0  0  0  0  0  0
    2.4668    4.5510    4.5747 O   0  0  0  0  0  0  0  0  0  0  0  0
    4.1130    2.8436    5.1007 C   0  0  0  0  0  0  0  0  0  0  0  0
    5.5342    2.5574    5.6625 C   0  0  0  0  0  0  0  0  0  0  0  0
    6.6001    3.5949    5.1785 C   0  0  0  0  0  0  0  0  0  0  0  0
    7.7042    3.5432    6.0736 O   0  0  0  0  0  0  0  0  0  0  0  0
    6.0802    4.9380    5.1607 N   0  0  0  0  0  0  0  0  0  0  0  0
    2.5198    4.2906    3.6418 H   0  0  0  0  0  0  0  0  0  0  0  0
    7.4072    3.7760    6.9672 H   0  0  0  0  0  0  0  0  0  0  0  0
    3.0574    2.1529    5.8173 O   0  0  0  0  0  0  0  0  0  0  0  0
    3.1748    2.2158    7.2329 C   0  0  0  0  0  0  0  0  0  0  0  0
    5.8873    1.2203    5.2184 O   0  0  0  0  0  0  0  0  0  0  0  0
    6.5563    1.1941    3.9622 C   0  0  0  0  0  0  0  0  0  0  0  0
    8.6721    7.4840    4.9425 C   0  0  0  0  0  0  0  0  0  0  0  0
    9.3774    7.4784    3.5864 C   0  0  0  0  0  0  0  0  0  0  0  0
    9.0815    6.2307    2.7494 C   0  0  0  0  0  0  0  0  0  0  0  0
    7.9631    6.4418    1.7255 C   0  0  0  0  0  0  0  0  0  0  0  0
    7.8439    7.8945    1.2511 C   0  0  0  0  0  0  0  0  0  0  0  0
    7.4656    8.0185   -0.2272 C   0  0  0  0  0  0  0  0  0  0  0  0
    9.1626    9.8835   -0.6192 C   0  0  0  0  0  0  0  0  0  0  0  0
    7.7278    9.4134   -0.8010 C   0  0  0  0  0  0  0  0  0  0  0  0
 25 26  1  0
 26 24  1  0
 24 23  1  0
 23 22  1  0
 22 21  1  0
 21 20  1  0
 20 19  1  0
 19  1  1  0
  1  2  2  0
  2  3  1  0
  3  4  1  0
  5  4  1  0
  5  6  1  0
  6  7  1  0
  6  8  1  0
  8 15  1  0
 15 16  1  0
  8  9  1  0
  9 17  1  0
 17 18  1  0
  9 10  1  0
 10 11  1  0
 10 12  1  0
 12  2  1  0
 12  5  1  0
  7 13  1  0
 11 14  1  0
M  END
> <minimizedAffinity>
-5.71961

> <CNNscore>
0.2287921757

> <CNNaffinity>
4.4854254723

> <CNN_VS>
1.0262302160

> <CNNaffinity_variance>
0.2866035998

$$$$



 26 27  0  0  0  0  0  0  0  0999 V2000
    9.0049    5.5266    5.1169 N   0  0  0  0  0  0  0  0  0  0  0  0
    7.8034    5.6105    4.6738 C   0  0  0  0  0  0  0  0  0  0  0  0
    7.2946    6.7253    4.0636 O   0  0  0  0  0  0  0  0  0  0  0  0
    5.9055    6.4653    3.7714 C   0  0  0  0  0  0  0  0  0  0  0  0
    5.8148    4.9502    3.7790 C   0  0  0  0  0  0  0  0  0  0  0  0
    4.4963    4.3756    4.2431 C   0  0  0  0  0  0  0  0  0  0  0  0
    3.4583    4.7037    3.3139 O   0  0  0  0  0  0  0  0  0  0  0  0
    4.6356    2.8456    4.3449 C   0  0  0  0  0  0  0  0  0  0  0  0
    5.8258    2.4213    5.2509 C   0  0  0  0  0  0  0  0  0  0  0  0
    7.1308    3.2335    4.9611 C   0  0  0  0  0  0  0  0  0  0  0  0
    7.9805    3.1226    6.0964 O   0  0  0  0  0  0  0  0  0  0  0  0
    6.8595    4.6271    4.7194 N   0  0  0  0  0  0  0  0  0  0  0  0
    3.6759    4.3362    2.4430 H   0  0  0  0  0  0  0  0  0  0  0  0
    7.5329    3.4939    6.8727 H   0  0  0  0  0  0  0  0  0  0  0  0
    3.3459    2.3987    4.8365 O   0  0  0  0  0  0  0  0  0  0  0  0
    3.1791    2.5313    6.2423 C   0  0  0  0  0  0  0  0  0  0  0  0
    6.0420    1.0061    5.0051 O   0  0  0  0  0  0  0  0  0  0  0  0
    6.8043    0.7403    3.8327 C   0  0  0  0  0  0  0  0  0  0  0  0
    9.8209    6.7316    4.9411 C   0  0  0  0  0  0  0  0  0  0  0  0
   10.4472    7.0777    6.2918 C   0  0  0  0  0  0  0  0  0  0  0  0
   10.4861    8.5813    6.5794 C   0  0  0  0  0  0  0  0  0  0  0  0
    9.5299    9.0072    7.6966 C   0  0  0  0  0  0  0  0  0  0  0  0
    8.3937    8.0062    7.9344 C   0  0  0  0  0  0  0  0  0  0  0  0
    8.3710    7.4446    9.3584 C   0  0  0  0  0  0  0  0  0  0  0  0
    6.9128    5.6115    8.3459 C   0  0  0  0  0  0  0  0  0  0  0  0
    7.2526    6.4242    9.5856 C   0  0  0  0  0  0  0  0  0  0  0  0
 25 26  1  0
 26 24  1  0
 24 23  1  0
 23 22  1  0
 22 21  1  0
 21 20  1  0
 20 19  1  0
 19  1  1  0
  1  2  2  0
  2  3  1  0
  3  4  1  0
  5  4  1  0
  5  6  1  0
  6  7  1  0
  6  8  1  0
  8 15  1  0
 15 16  1  0
  8  9  1  0
  9 17  1  0
 17 18  1  0
  9 10  1  0
 10 11  1  0
 10 12  1  0
 12  2  1  0
 12  5  1  0
  7 13  1  0
 11 14  1  0
M  END
> <minimizedAffinity>
-6.34770

> <CNNscore>
0.2154011428

> <CNNaffinity>
4.5699081421

> <CNN_VS>
0.9843634367

> <CNNaffinity_variance>
0.6034709811

$$$$



 26 27  0  0  0  0  0  0  0  0999 V2000
    4.5295    4.3501    8.0478 N   0  0  0  0  0  0  0  0  0  0  0  0
    4.2547    4.9617    6.9535 C   0  0  0  0  0  0  0  0  0  0  0  0
    2.9815    5.1493    6.4869 O   0  0  0  0  0  0  0  0  0  0  0  0
    3.0803    5.8087    5.2070 C   0  0  0  0  0  0  0  0  0  0  0  0
    4.4571    6.4469    5.2376 C   0  0  0  0  0  0  0  0  0  0  0  0
    5.1600    6.5513    3.9038 C   0  0  0  0  0  0  0  0  0  0  0  0
    4.4610    7.4581    3.0449 O   0  0  0  0  0  0  0  0  0  0  0  0
    6.5924    7.0636    4.1419 C   0  0  0  0  0  0  0  0  0  0  0  0
    7.3705    6.1848    5.1616 C   0  0  0  0  0  0  0  0  0  0  0  0
    6.5252    5.8307    6.4292 C   0  0  0  0  0  0  0  0  0  0  0  0
    7.1118    4.6914    7.0463 O   0  0  0  0  0  0  0  0  0  0  0  0
    5.1564    5.5266    6.1004 N   0  0  0  0  0  0  0  0  0  0  0  0
    4.4305    8.3355    3.4573 H   0  0  0  0  0  0  0  0  0  0  0  0
    7.0968    3.9447    6.4273 H   0  0  0  0  0  0  0  0  0  0  0  0
    7.1913    7.0848    2.8206 O   0  0  0  0  0  0  0  0  0  0  0  0
    7.5300    5.8008    2.3125 C   0  0  0  0  0  0  0  0  0  0  0  0
    8.5533    6.9414    5.5337 O   0  0  0  0  0  0  0  0  0  0  0  0
    9.7743    6.2626    5.2607 C   0  0  0  0  0  0  0  0  0  0  0  0
    3.3707    3.8361    8.7839 C   0  0  0  0  0  0  0  0  0  0  0  0
    3.2068    4.6758   10.0505 C   0  0  0  0  0  0  0  0  0  0  0  0
    2.1189    5.7473    9.9362 C   0  0  0  0  0  0  0  0  0  0  0  0
    2.3253    6.9222   10.8958 C   0  0  0  0  0  0  0  0  0  0  0  0
    2.8017    6.4900   12.2872 C   0  0  0  0  0  0  0  0  0  0  0  0
    1.6781    6.4536   13.3264 C   0  0  0  0  0  0  0  0  0  0  0  0
    2.9440    4.3401   13.9917 C   0  0  0  0  0  0  0  0  0  0  0  0
    1.8336    5.3185   14.3419 C   0  0  0  0  0  0  0  0  0  0  0  0
 25 26  1  0
 26 24  1  0
 24 23  1  0
 23 22  1  0
 22 21  1  0
 21 20  1  0
 20 19  1  0
 19  1  1  0
  1  2  2  0
  2  3  1  0
  3  4  1  0
  5  4  1  0
  5  6  1  0
  6  7  1  0
  6  8  1  0
  8 15  1  0
 15 16  1  0
  8  9  1  0
  9 17  1  0
 17 18  1  0
  9 10  1  0
 10 11  1  0
 10 12  1  0
 12  2  1  0
 12  5  1  0
  7 13  1  0
 11 14  1  0
M  END
> <minimizedAffinity>
-6.30790

> <CNNscore>
0.2124892175

> <CNNaffinity>
4.8825469017

> <CNN_VS>
1.0374885798

> <CNNaffinity_variance>
0.2182528228

$$$$



 26 27  0  0  0  0  0  0  0  0999 V2000
    6.9828    6.4667    2.7208 N   0  0  0  0  0  0  0  0  0  0  0  0
    6.9434    5.1921    2.8659 C   0  0  0  0  0  0  0  0  0  0  0  0
    7.6486    4.3163    2.0852 O   0  0  0  0  0  0  0  0  0  0  0  0
    7.2946    2.9806    2.5015 C   0  0  0  0  0  0  0  0  0  0  0  0
    6.7545    3.1742    3.9068 C   0  0  0  0  0  0  0  0  0  0  0  0
    5.6682    2.2121    4.3289 C   0  0  0  0  0  0  0  0  0  0  0  0
    6.1917    0.8832    4.4215 O   0  0  0  0  0  0  0  0  0  0  0  0
    5.1279    2.6526    5.7018 C   0  0  0  0  0  0  0  0  0  0  0  0
    4.6498    4.1321    5.6998 C   0  0  0  0  0  0  0  0  0  0  0  0
    5.6584    5.0964    4.9931 C   0  0  0  0  0  0  0  0  0  0  0  0
    4.9573    6.2800    4.6314 O   0  0  0  0  0  0  0  0  0  0  0  0
    6.2254    4.5121    3.8051 N   0  0  0  0  0  0  0  0  0  0  0  0
    6.9066    0.8623    5.0767 H   0  0  0  0  0  0  0  0  0  0  0  0
    4.2392    6.0560    4.0190 H   0  0  0  0  0  0  0  0  0  0  0  0
    4.0706    1.7031    5.9940 O   0  0  0  0  0  0  0  0  0  0  0  0
    3.1067    2.1718    6.9282 C   0  0  0  0  0  0  0  0  0  0  0  0
    4.4774    4.5075    7.0923 O   0  0  0  0  0  0  0  0  0  0  0  0
    5.7044    4.6861    7.7916 C   0  0  0  0  0  0  0  0  0  0  0  0
    7.8386    6.9449    1.6310 C   0  0  0  0  0  0  0  0  0  0  0  0
    7.0791    8.0390    0.8809 C   0  0  0  0  0  0  0  0  0  0  0  0
    7.8175    8.5559   -0.3570 C   0  0  0  0  0  0  0  0  0  0  0  0
    6.9745    9.5085   -1.2090 C   0  0  0  0  0  0  0  0  0  0  0  0
    5.9968    8.7825   -2.1399 C   0  0  0  0  0  0  0  0  0  0  0  0
    5.1638    9.7342   -3.0026 C   0  0  0  0  0  0  0  0  0  0  0  0
    3.2600    8.7081   -1.6481 C   0  0  0  0  0  0  0  0  0  0  0  0
    3.7129    9.8607   -2.5308 C   0  0  0  0  0  0  0  0  0  0  0  0
 25 26  1  0
 26 24  1  0
 24 23  1  0
 23 22  1  0
 22 21  1  0
 21 20  1  0
 20 19  1  0
 19  1  1  0
  1  2  2  0
  2  3  1  0
  3  4  1  0
  5  4  1  0
  5  6  1  0
  6  7  1  0
  6  8  1  0
  8 15  1  0
 15 16  1  0
  8  9  1  0
  9 17  1  0
 17 18  1  0
  9 10  1  0
 10 11  1  0
 10 12  1  0
 12  2  1  0
 12  5  1  0
  7 13  1  0
 11 14  1  0
M  END
> <minimizedAffinity>
-6.55467

> <CNNscore>
0.2123887092

> <CNNaffinity>
3.7147929668

> <CNN_VS>
0.7889800668

> <CNNaffinity_variance>
1.3461929560

$$$$



 26 27  0  0  0  0  0  0  0  0999 V2000
    6.6347    7.9841    8.3420 N   0  0  0  0  0  0  0  0  0  0  0  0
    6.0524    6.8903    8.6761 C   0  0  0  0  0  0  0  0  0  0  0  0
    6.1749    6.3105    9.9101 O   0  0  0  0  0  0  0  0  0  0  0  0
    5.4385    5.0697    9.8824 C   0  0  0  0  0  0  0  0  0  0  0  0
    4.4675    5.2544    8.7304 C   0  0  0  0  0  0  0  0  0  0  0  0
    4.1060    3.9987    7.9713 C   0  0  0  0  0  0  0  0  0  0  0  0
    3.3631    3.1087    8.8107 O   0  0  0  0  0  0  0  0  0  0  0  0
    3.2542    4.3907    6.7500 C   0  0  0  0  0  0  0  0  0  0  0  0
    3.9589    5.4493    5.8555 C   0  0  0  0  0  0  0  0  0  0  0  0
    4.5942    6.6168    6.6801 C   0  0  0  0  0  0  0  0  0  0  0  0
    5.5763    7.2475    5.8671 O   0  0  0  0  0  0  0  0  0  0  0  0
    5.2236    6.1478    7.8876 N   0  0  0  0  0  0  0  0  0  0  0  0
    2.5495    3.5465    9.1061 H   0  0  0  0  0  0  0  0  0  0  0  0
    6.2636    6.6043    5.6327 H   0  0  0  0  0  0  0  0  0  0  0  0
    3.0006    3.1346    6.0699 O   0  0  0  0  0  0  0  0  0  0  0  0
    4.1404    2.5782    5.4272 C   0  0  0  0  0  0  0  0  0  0  0  0
    2.9443    5.9593    4.9498 O   0  0  0  0  0  0  0  0  0  0  0  0
    3.3629    6.0026    3.5899 C   0  0  0  0  0  0  0  0  0  0  0  0
    7.4744    8.5873    9.3811 C   0  0  0  0  0  0  0  0  0  0  0  0
    8.8901    8.7258    8.8215 C   0  0  0  0  0  0  0  0  0  0  0  0
    9.1016    7.9760    7.5032 C   0  0  0  0  0  0  0  0  0  0  0  0
   10.3964    8.3679    6.7866 C   0  0  0  0  0  0  0  0  0  0  0  0
   11.1215    9.5451    7.4487 C   0  0  0  0  0  0  0  0  0  0  0  0
   11.9091   10.4050    6.4568 C   0  0  0  0  0  0  0  0  0  0  0  0
   10.0475   12.0651    6.9955 C   0  0  0  0  0  0  0  0  0  0  0  0
   11.1671   11.6781    6.0418 C   0  0  0  0  0  0  0  0  0  0  0  0
 25 26  1  0
 26 24  1  0
 24 23  1  0
 23 22  1  0
 22 21  1  0
 21 20  1  0
 20 19  1  0
 19  1  1  0
  1  2  2  0
  2  3  1  0
  3  4  1  0
  5  4  1  0
  5  6  1  0
  6  7  1  0
  6  8  1  0
  8 15  1  0
 15 16  1  0
  8  9  1  0
  9 17  1  0
 17 18  1  0
  9 10  1  0
 10 11  1  0
 10 12  1  0
 12  2  1  0
 12  5  1  0
  7 13  1  0
 11 14  1  0
M  END
> <minimizedAffinity>
-5.87127

> <CNNscore>
0.2055214942

> <CNNaffinity>
4.5838527679

> <CNN_VS>
0.9420802593

> <CNNaffinity_variance>
0.2746392787

$$$$



 26 27  0  0  0  0  0  0  0  0999 V2000
    5.4801    3.8308    7.8278 N   0  0  0  0  0  0  0  0  0  0  0  0
    5.7134    4.7687    8.6721 C   0  0  0  0  0  0  0  0  0  0  0  0
    6.8820    5.4803    8.7137 O   0  0  0  0  0  0  0  0  0  0  0  0
    6.7981    6.3893    9.8314 C   0  0  0  0  0  0  0  0  0  0  0  0
    5.3063    6.5091   10.0850 C   0  0  0  0  0  0  0  0  0  0  0  0
    4.9029    6.7322   11.5243 C   0  0  0  0  0  0  0  0  0  0  0  0
    5.3569    8.0131   11.9734 O   0  0  0  0  0  0  0  0  0  0  0  0
    3.3676    6.6640   11.6205 C   0  0  0  0  0  0  0  0  0  0  0  0
    2.7990    5.3395   11.0376 C   0  0  0  0  0  0  0  0  0  0  0  0
    3.4402    4.9546    9.6638 C   0  0  0  0  0  0  0  0  0  0  0  0
    3.2258    3.5647    9.4510 O   0  0  0  0  0  0  0  0  0  0  0  0
    4.8564    5.2149    9.6347 N   0  0  0  0  0  0  0  0  0  0  0  0
    4.9633    8.7073   11.4220 H   0  0  0  0  0  0  0  0  0  0  0  0
    3.6518    3.0594   10.1610 H   0  0  0  0  0  0  0  0  0  0  0  0
    3.0873    6.8424   13.0327 O   0  0  0  0  0  0  0  0  0  0  0  0
    2.8671    5.6298   13.7419 C   0  0  0  0  0  0  0  0  0  0  0  0
    1.3674    5.5383   10.8931 O   0  0  0  0  0  0  0  0  0  0  0  0
    1.0155    6.8362   10.4263 C   0  0  0  0  0  0  0  0  0  0  0  0
    6.5726    3.5462    6.8928 C   0  0  0  0  0  0  0  0  0  0  0  0
    6.0370    3.7280    5.4728 C   0  0  0  0  0  0  0  0  0  0  0  0
    6.6160    4.9496    4.7536 C   0  0  0  0  0  0  0  0  0  0  0  0
    7.6254    4.5853    3.6617 C   0  0  0  0  0  0  0  0  0  0  0  0
    9.0830    4.7151    4.1182 C   0  0  0  0  0  0  0  0  0  0  0  0
    9.7229    6.0493    3.7254 C   0  0  0  0  0  0  0  0  0  0  0  0
    9.6622    6.3432    6.2596 C   0  0  0  0  0  0  0  0  0  0  0  0
    9.9064    7.0011    4.9103 C   0  0  0  0  0  0  0  0  0  0  0  0
 25 26  1  0
 26 24  1  0
 24 23  1  0
 23 22  1  0
 22 21  1  0
 21 20  1  0
 20 19  1  0
 19  1  1  0
  1  2  2  0
  2  3  1  0
  3  4  1  0
  5  4  1  0
  5  6  1  0
  6  7  1  0
  6  8  1  0
  8 15  1  0
 15 16  1  0
  8  9  1  0
  9 17  1  0
 17 18  1  0
  9 10  1  0
 10 11  1  0
 10 12  1  0
 12  2  1  0
 12  5  1  0
  7 13  1  0
 11 14  1  0
M  END
> <minimizedAffinity>
-6.23661

> <CNNscore>
0.1939273179

> <CNNaffinity>
5.1725172997

> <CNN_VS>
1.0030924082

> <CNNaffinity_variance>
0.1827879399

$$$$
