


 21 21  0  0  0  0  0  0  0  0999 V2000
   54.0509   10.7174   33.2781 C   0  0  0  0  0  0  0  0  0  0  0  0
   53.4394    9.8353   34.2494 O   0  0  0  0  0  0  0  0  0  0  0  0
   55.0112   11.5606   34.0824 C   0  0  0  0  0  0  0  0  0  0  0  0
   54.8800   12.8851   34.2617 C   0  0  0  0  0  0  0  0  0  0  0  0
   53.7795   13.6806   33.6391 C   0  0  0  0  0  0  0  0  0  0  0  0
   54.3184   14.9381   33.2336 O   0  0  0  0  0  0  0  0  0  0  0  0
   53.1828   12.9777   32.4058 C   0  0  0  0  0  0  0  0  0  0  0  0
   51.9961   13.6798   32.0060 O   0  0  0  0  0  0  0  0  0  0  0  0
   52.8602   11.5146   32.7022 C   0  0  0  0  0  0  0  0  0  0  0  0
   54.1241    9.2893   34.6665 H   0  0  0  0  0  0  0  0  0  0  0  0
   55.0231   14.7932   32.5830 H   0  0  0  0  0  0  0  0  0  0  0  0
   51.3506   13.6621   32.7298 H   0  0  0  0  0  0  0  0  0  0  0  0
   54.7540    9.7481   32.2823 C   0  0  0  0  0  0  0  0  0  0  0  0
   54.1162    8.4358   31.6879 C   0  0  0  0  0  0  0  0  0  0  0  0
   54.7622    8.0736   30.3421 C   0  0  0  0  0  0  0  0  0  0  0  0
   52.6063    8.6176   31.5036 C   0  0  0  0  0  0  0  0  0  0  0  0
   54.4298    7.3130   32.7547 C   0  0  0  0  0  0  0  0  0  0  0  0
   56.6737    7.8088   33.9694 C   0  0  0  0  0  0  0  0  0  0  0  0
   55.8630    6.8144   33.1319 C   0  0  0  0  0  0  0  0  0  0  0  0
   55.6778    5.5341   33.9877 C   0  0  0  0  0  0  0  0  0  0  0  0
   56.6799    6.4010   31.8928 C   0  0  0  0  0  0  0  0  0  0  0  0
 18 19  1  0
 19 20  1  0
 19 21  1  0
 19 17  1  0
 17 14  1  0
 14 15  1  0
 14 16  1  0
 14 13  1  0
 13  1  1  0
  1  2  1  0
  1  3  1  0
  3  4  2  0
  4  5  1  0
  5  6  1  0
  5  7  1  0
  7  8  1  0
  7  9  1  0
  9  1  1  0
  2 10  1  0
  6 11  1  0
  8 12  1  0
M  END
> <minimizedAffinity>
-4.55988

> <CNNscore>
0.4041934013

> <CNNaffinity>
4.0107555389

> <CNN_VS>
1.6211209297

> <CNNaffinity_variance>
0.9903225899

$$$$



 21 21  0  0  0  0  0  0  0  0999 V2000
   51.9153   11.8349   30.2218 C   0  0  0  0  0  0  0  0  0  0  0  0
   50.5674   11.8600   29.6945 O   0  0  0  0  0  0  0  0  0  0  0  0
   52.2507   10.3673   30.3374 C   0  0  0  0  0  0  0  0  0  0  0  0
   52.4612    9.7338   31.5029 C   0  0  0  0  0  0  0  0  0  0  0  0
   52.4282   10.4344   32.8217 C   0  0  0  0  0  0  0  0  0  0  0  0
   53.4569    9.8813   33.6415 O   0  0  0  0  0  0  0  0  0  0  0  0
   52.6699   11.9485   32.6796 C   0  0  0  0  0  0  0  0  0  0  0  0
   52.3975   12.5779   33.9409 O   0  0  0  0  0  0  0  0  0  0  0  0
   51.7920   12.5508   31.5846 C   0  0  0  0  0  0  0  0  0  0  0  0
   50.5511   11.4251   28.8277 H   0  0  0  0  0  0  0  0  0  0  0  0
   54.3185   10.0236   33.2192 H   0  0  0  0  0  0  0  0  0  0  0  0
   51.4723   12.4217   34.1870 H   0  0  0  0  0  0  0  0  0  0  0  0
   52.7531   12.5840   29.1436 C   0  0  0  0  0  0  0  0  0  0  0  0
   52.2835   13.8650   28.3558 C   0  0  0  0  0  0  0  0  0  0  0  0
   53.4800   14.7631   28.0072 C   0  0  0  0  0  0  0  0  0  0  0  0
   51.2693   14.6560   29.1879 C   0  0  0  0  0  0  0  0  0  0  0  0
   51.6249   13.3083   27.0316 C   0  0  0  0  0  0  0  0  0  0  0  0
   50.6846   13.3940   24.6099 C   0  0  0  0  0  0  0  0  0  0  0  0
   51.5119   14.1009   25.6885 C   0  0  0  0  0  0  0  0  0  0  0  0
   50.7947   15.4360   26.0188 C   0  0  0  0  0  0  0  0  0  0  0  0
   52.8924   14.4733   25.1149 C   0  0  0  0  0  0  0  0  0  0  0  0
 18 19  1  0
 19 20  1  0
 19 21  1  0
 19 17  1  0
 17 14  1  0
 14 15  1  0
 14 16  1  0
 14 13  1  0
 13  1  1  0
  1  2  1  0
  1  3  1  0
  3  4  2  0
  4  5  1  0
  5  6  1  0
  5  7  1  0
  7  8  1  0
  7  9  1  0
  9  1  1  0
  2 10  1  0
  6 11  1  0
  8 12  1  0
M  END
> <minimizedAffinity>
-5.72119

> <CNNscore>
0.3820310235

> <CNNaffinity>
3.5311853886

> <CNN_VS>
1.3490223885

> <CNNaffinity_variance>
0.3730927706

$$$$



 21 21  0  0  0  0  0  0  0  0999 V2000
   53.0876   13.7859   33.7675 C   0  0  0  0  0  0  0  0  0  0  0  0
   52.0639   12.8414   34.1619 O   0  0  0  0  0  0  0  0  0  0  0  0
   54.1220   13.7049   34.8644 C   0  0  0  0  0  0  0  0  0  0  0  0
   54.4080   14.7134   35.7041 C   0  0  0  0  0  0  0  0  0  0  0  0
   53.7545   16.0534   35.6109 C   0  0  0  0  0  0  0  0  0  0  0  0
   54.7392   17.0458   35.8966 O   0  0  0  0  0  0  0  0  0  0  0  0
   53.1765   16.3198   34.2087 C   0  0  0  0  0  0  0  0  0  0  0  0
   52.3744   17.5095   34.2606 O   0  0  0  0  0  0  0  0  0  0  0  0
   52.3430   15.1379   33.7177 C   0  0  0  0  0  0  0  0  0  0  0  0
   52.4485   11.9528   34.2191 H   0  0  0  0  0  0  0  0  0  0  0  0
   55.4555   16.9874   35.2452 H   0  0  0  0  0  0  0  0  0  0  0  0
   51.6468   17.3817   34.8893 H   0  0  0  0  0  0  0  0  0  0  0  0
   53.5881   13.2445   32.3958 C   0  0  0  0  0  0  0  0  0  0  0  0
   52.6910   12.5191   31.3228 C   0  0  0  0  0  0  0  0  0  0  0  0
   53.4206   12.4210   29.9745 C   0  0  0  0  0  0  0  0  0  0  0  0
   51.3696   13.2725   31.1411 C   0  0  0  0  0  0  0  0  0  0  0  0
   52.4471   11.0721   31.9091 C   0  0  0  0  0  0  0  0  0  0  0  0
   54.0593   10.0211   33.6562 C   0  0  0  0  0  0  0  0  0  0  0  0
   53.5717   10.0264   32.2037 C   0  0  0  0  0  0  0  0  0  0  0  0
   52.9654    8.6281   31.9156 C   0  0  0  0  0  0  0  0  0  0  0  0
   54.7773   10.1866   31.2580 C   0  0  0  0  0  0  0  0  0  0  0  0
 18 19  1  0
 19 20  1  0
 19 21  1  0
 19 17  1  0
 17 14  1  0
 14 15  1  0
 14 16  1  0
 14 13  1  0
 13  1  1  0
  1  2  1  0
  1  3  1  0
  3  4  2  0
  4  5  1  0
  5  6  1  0
  5  7  1  0
  7  8  1  0
  7  9  1  0
  9  1  1  0
  2 10  1  0
  6 11  1  0
  8 12  1  0
M  END
> <minimizedAffinity>
-4.90984

> <CNNscore>
0.3610314131

> <CNNaffinity>
3.6614277363

> <CNN_VS>
1.3218904734

> <CNNaffinity_variance>
1.0858908892

$$$$



 21 21  0  0  0  0  0  0  0  0999 V2000
   48.0645   15.2159   19.8401 C   0  0  0  0  0  0  0  0  0  0  0  0
   47.2370   16.2777   20.3726 O   0  0  0  0  0  0  0  0  0  0  0  0
   47.0835   14.1660   19.3763 C   0  0  0  0  0  0  0  0  0  0  0  0
   46.9740   12.9449   19.9246 C   0  0  0  0  0  0  0  0  0  0  0  0
   47.8536   12.4760   21.0372 C   0  0  0  0  0  0  0  0  0  0  0  0
   48.1572   11.1003   20.8103 O   0  0  0  0  0  0  0  0  0  0  0  0
   49.1721   13.2683   21.1064 C   0  0  0  0  0  0  0  0  0  0  0  0
   49.8524   12.9231   22.3227 O   0  0  0  0  0  0  0  0  0  0  0  0
   48.9195   14.7734   21.0477 C   0  0  0  0  0  0  0  0  0  0  0  0
   46.6595   16.6195   19.6723 H   0  0  0  0  0  0  0  0  0  0  0  0
   48.6244   11.0074   19.9653 H   0  0  0  0  0  0  0  0  0  0  0  0
   49.2962   13.1575   23.0820 H   0  0  0  0  0  0  0  0  0  0  0  0
   48.8462   15.8972   18.6781 C   0  0  0  0  0  0  0  0  0  0  0  0
   49.9428   15.1989   17.7883 C   0  0  0  0  0  0  0  0  0  0  0  0
   50.1534   13.7404   18.2222 C   0  0  0  0  0  0  0  0  0  0  0  0
   51.2674   15.9625   17.8842 C   0  0  0  0  0  0  0  0  0  0  0  0
   49.3628   15.2446   16.3191 C   0  0  0  0  0  0  0  0  0  0  0  0
   49.5228   15.1196   13.7277 C   0  0  0  0  0  0  0  0  0  0  0  0
   50.2055   15.5361   15.0346 C   0  0  0  0  0  0  0  0  0  0  0  0
   50.4127   17.0722   14.9775 C   0  0  0  0  0  0  0  0  0  0  0  0
   51.6093   14.9051   15.1043 C   0  0  0  0  0  0  0  0  0  0  0  0
 18 19  1  0
 19 20  1  0
 19 21  1  0
 19 17  1  0
 17 14  1  0
 14 15  1  0
 14 16  1  0
 14 13  1  0
 13  1  1  0
  1  2  1  0
  1  3  1  0
  3  4  2  0
  4  5  1  0
  5  6  1  0
  5  7  1  0
  7  8  1  0
  7  9  1  0
  9  1  1  0
  2 10  1  0
  6 11  1  0
  8 12  1  0
M  END
> <minimizedAffinity>
-4.68674

> <CNNscore>
0.3569851816

> <CNNaffinity>
4.4415764809

> <CNN_VS>
1.5855770111

> <CNNaffinity_variance>
0.5007155538

$$$$



 21 21  0  0  0  0  0  0  0  0999 V2000
   53.3720   13.1636   33.8587 C   0  0  0  0  0  0  0  0  0  0  0  0
   52.0729   12.9790   34.4703 O   0  0  0  0  0  0  0  0  0  0  0  0
   54.0553   14.1963   34.7226 C   0  0  0  0  0  0  0  0  0  0  0  0
   54.3860   15.4283   34.3022 C   0  0  0  0  0  0  0  0  0  0  0  0
   54.1486   15.8966   32.9038 C   0  0  0  0  0  0  0  0  0  0  0  0
   55.2609   16.7001   32.5123 O   0  0  0  0  0  0  0  0  0  0  0  0
   54.0136   14.7238   31.9151 C   0  0  0  0  0  0  0  0  0  0  0  0
   53.5631   15.2368   30.6522 O   0  0  0  0  0  0  0  0  0  0  0  0
   53.0421   13.6668   32.4364 C   0  0  0  0  0  0  0  0  0  0  0  0
   52.1859   12.6596   35.3792 H   0  0  0  0  0  0  0  0  0  0  0  0
   56.0712   16.1678   32.5437 H   0  0  0  0  0  0  0  0  0  0  0  0
   52.6990   15.6625   30.7658 H   0  0  0  0  0  0  0  0  0  0  0  0
   54.0263   11.7525   33.9364 C   0  0  0  0  0  0  0  0  0  0  0  0
   53.8425   10.6055   32.8720 C   0  0  0  0  0  0  0  0  0  0  0  0
   54.4920   10.9904   31.5341 C   0  0  0  0  0  0  0  0  0  0  0  0
   52.3535   10.3152   32.6584 C   0  0  0  0  0  0  0  0  0  0  0  0
   54.5848    9.3552   33.4904 C   0  0  0  0  0  0  0  0  0  0  0  0
   53.5382    7.5821   31.9038 C   0  0  0  0  0  0  0  0  0  0  0  0
   54.7284    7.9648   32.7896 C   0  0  0  0  0  0  0  0  0  0  0  0
   55.9757    8.0558   31.8720 C   0  0  0  0  0  0  0  0  0  0  0  0
   55.0046    6.8317   33.7962 C   0  0  0  0  0  0  0  0  0  0  0  0
 18 19  1  0
 19 20  1  0
 19 21  1  0
 19 17  1  0
 17 14  1  0
 14 15  1  0
 14 16  1  0
 14 13  1  0
 13  1  1  0
  1  2  1  0
  1  3  1  0
  3  4  2  0
  4  5  1  0
  5  6  1  0
  5  7  1  0
  7  8  1  0
  7  9  1  0
  9  1  1  0
  2 10  1  0
  6 11  1  0
  8 12  1  0
M  END
> <minimizedAffinity>
-4.57655

> <CNNscore>
0.3356367350

> <CNNaffinity>
3.8902614117

> <CNN_VS>
1.3057146072

> <CNNaffinity_variance>
0.5540907383

$$$$



 21 21  0  0  0  0  0  0  0  0999 V2000
   48.2899   15.4260   20.5048 C   0  0  0  0  0  0  0  0  0  0  0  0
   47.0778   15.9693   19.9294 O   0  0  0  0  0  0  0  0  0  0  0  0
   49.2860   15.4342   19.3701 C   0  0  0  0  0  0  0  0  0  0  0  0
   49.8055   14.3257   18.8178 C   0  0  0  0  0  0  0  0  0  0  0  0
   49.4809   12.9512   19.3043 C   0  0  0  0  0  0  0  0  0  0  0  0
   50.6717   12.1676   19.2409 O   0  0  0  0  0  0  0  0  0  0  0  0
   48.9693   12.9565   20.7566 C   0  0  0  0  0  0  0  0  0  0  0  0
   48.4664   11.6491   21.0716 O   0  0  0  0  0  0  0  0  0  0  0  0
   47.8798   14.0077   20.9580 C   0  0  0  0  0  0  0  0  0  0  0  0
   47.2456   16.8711   19.6139 H   0  0  0  0  0  0  0  0  0  0  0  0
   51.3495   12.5627   19.8113 H   0  0  0  0  0  0  0  0  0  0  0  0
   47.7342   11.4317   20.4736 H   0  0  0  0  0  0  0  0  0  0  0  0
   48.6396   16.4216   21.6502 C   0  0  0  0  0  0  0  0  0  0  0  0
   49.5536   16.0947   22.8912 C   0  0  0  0  0  0  0  0  0  0  0  0
   50.8861   15.4760   22.4424 C   0  0  0  0  0  0  0  0  0  0  0  0
   48.8322   15.1336   23.8413 C   0  0  0  0  0  0  0  0  0  0  0  0
   49.8146   17.4916   23.5821 C   0  0  0  0  0  0  0  0  0  0  0  0
   49.9840   19.1851   25.5467 C   0  0  0  0  0  0  0  0  0  0  0  0
   49.4218   17.8480   25.0530 C   0  0  0  0  0  0  0  0  0  0  0  0
   47.8750   17.9575   25.0864 C   0  0  0  0  0  0  0  0  0  0  0  0
   49.8053   16.7325   26.0441 C   0  0  0  0  0  0  0  0  0  0  0  0
 18 19  1  0
 19 20  1  0
 19 21  1  0
 19 17  1  0
 17 14  1  0
 14 15  1  0
 14 16  1  0
 14 13  1  0
 13  1  1  0
  1  2  1  0
  1  3  1  0
  3  4  2  0
  4  5  1  0
  5  6  1  0
  5  7  1  0
  7  8  1  0
  7  9  1  0
  9  1  1  0
  2 10  1  0
  6 11  1  0
  8 12  1  0
M  END
> <minimizedAffinity>
-4.36682

> <CNNscore>
0.3186204731

> <CNNaffinity>
4.5237102509

> <CNN_VS>
1.4413466454

> <CNNaffinity_variance>
0.0705366731

$$$$



 21 21  0  0  0  0  0  0  0  0999 V2000
   45.3419    5.7574   22.0304 C   0  0  0  0  0  0  0  0  0  0  0  0
   44.8180    4.8257   21.0541 O   0  0  0  0  0  0  0  0  0  0  0  0
   46.0787    4.8918   23.0243 C   0  0  0  0  0  0  0  0  0  0  0  0
   45.7090    4.7376   24.3061 C   0  0  0  0  0  0  0  0  0  0  0  0
   44.5393    5.4506   24.9020 C   0  0  0  0  0  0  0  0  0  0  0  0
   44.8840    5.8278   26.2343 O   0  0  0  0  0  0  0  0  0  0  0  0
   44.1684    6.7178   24.1098 C   0  0  0  0  0  0  0  0  0  0  0  0
   42.9130    7.2143   24.5984 O   0  0  0  0  0  0  0  0  0  0  0  0
   44.0798    6.4307   22.6123 C   0  0  0  0  0  0  0  0  0  0  0  0
   45.5522    4.3518   20.6330 H   0  0  0  0  0  0  0  0  0  0  0  0
   45.6509    6.4215   26.2142 H   0  0  0  0  0  0  0  0  0  0  0  0
   42.2265    6.5415   24.4683 H   0  0  0  0  0  0  0  0  0  0  0  0
   46.2750    6.6862   21.1985 C   0  0  0  0  0  0  0  0  0  0  0  0
   47.5139    6.2068   20.3514 C   0  0  0  0  0  0  0  0  0  0  0  0
   48.5797    7.3099   20.2668 C   0  0  0  0  0  0  0  0  0  0  0  0
   47.0686    5.8099   18.9404 C   0  0  0  0  0  0  0  0  0  0  0  0
   48.0879    4.9635   21.1397 C   0  0  0  0  0  0  0  0  0  0  0  0
   49.9814    3.4019   21.9956 C   0  0  0  0  0  0  0  0  0  0  0  0
   49.4656    4.2821   20.8524 C   0  0  0  0  0  0  0  0  0  0  0  0
   49.2591    3.3631   19.6200 C   0  0  0  0  0  0  0  0  0  0  0  0
   50.5501    5.3043   20.4620 C   0  0  0  0  0  0  0  0  0  0  0  0
 18 19  1  0
 19 20  1  0
 19 21  1  0
 19 17  1  0
 17 14  1  0
 14 15  1  0
 14 16  1  0
 14 13  1  0
 13  1  1  0
  1  2  1  0
  1  3  1  0
  3  4  2  0
  4  5  1  0
  5  6  1  0
  5  7  1  0
  7  8  1  0
  7  9  1  0
  9  1  1  0
  2 10  1  0
  6 11  1  0
  8 12  1  0
M  END
> <minimizedAffinity>
-7.12119

> <CNNscore>
0.3184030652

> <CNNaffinity>
4.9117927551

> <CNN_VS>
1.5639299154

> <CNNaffinity_variance>
0.0601271801

$$$$



 21 21  0  0  0  0  0  0  0  0999 V2000
   52.7964   13.2726   33.3538 C   0  0  0  0  0  0  0  0  0  0  0  0
   51.7810   13.0942   34.3701 O   0  0  0  0  0  0  0  0  0  0  0  0
   52.1175   12.8757   32.0648 C   0  0  0  0  0  0  0  0  0  0  0  0
   52.4680   11.8087   31.3282 C   0  0  0  0  0  0  0  0  0  0  0  0
   53.6102   10.9164   31.6895 C   0  0  0  0  0  0  0  0  0  0  0  0
   54.2750   10.5401   30.4842 O   0  0  0  0  0  0  0  0  0  0  0  0
   54.6226   11.6169   32.6145 C   0  0  0  0  0  0  0  0  0  0  0  0
   55.5562   10.6392   33.0981 O   0  0  0  0  0  0  0  0  0  0  0  0
   53.9222   12.3067   33.7833 C   0  0  0  0  0  0  0  0  0  0  0  0
   51.0255   13.6711   34.1772 H   0  0  0  0  0  0  0  0  0  0  0  0
   54.6107   11.3337   30.0388 H   0  0  0  0  0  0  0  0  0  0  0  0
   55.0807    9.9582   33.5991 H   0  0  0  0  0  0  0  0  0  0  0  0
   53.1452   14.7883   33.4350 C   0  0  0  0  0  0  0  0  0  0  0  0
   54.4353   15.3891   34.1108 C   0  0  0  0  0  0  0  0  0  0  0  0
   54.3970   16.9247   34.0962 C   0  0  0  0  0  0  0  0  0  0  0  0
   55.6913   14.8970   33.3847 C   0  0  0  0  0  0  0  0  0  0  0  0
   54.3949   14.8641   35.6007 C   0  0  0  0  0  0  0  0  0  0  0  0
   56.4013   13.3878   36.3430 C   0  0  0  0  0  0  0  0  0  0  0  0
   55.6450   14.7075   36.5269 C   0  0  0  0  0  0  0  0  0  0  0  0
   56.6210   15.8541   36.1547 C   0  0  0  0  0  0  0  0  0  0  0  0
   55.2934   14.8947   38.0151 C   0  0  0  0  0  0  0  0  0  0  0  0
 18 19  1  0
 19 20  1  0
 19 21  1  0
 19 17  1  0
 17 14  1  0
 14 15  1  0
 14 16  1  0
 14 13  1  0
 13  1  1  0
  1  2  1  0
  1  3  1  0
  3  4  2  0
  4  5  1  0
  5  6  1  0
  5  7  1  0
  7  8  1  0
  7  9  1  0
  9  1  1  0
  2 10  1  0
  6 11  1  0
  8 12  1  0
M  END
> <minimizedAffinity>
-4.43656

> <CNNscore>
0.3134449422

> <CNNaffinity>
3.8801853657

> <CNN_VS>
1.2162244320

> <CNNaffinity_variance>
0.6013921499

$$$$



 21 21  0  0  0  0  0  0  0  0999 V2000
   53.0453   13.5911   33.7405 C   0  0  0  0  0  0  0  0  0  0  0  0
   51.8449   13.1288   34.4045 O   0  0  0  0  0  0  0  0  0  0  0  0
   54.1268   12.6484   34.2111 C   0  0  0  0  0  0  0  0  0  0  0  0
   55.1677   13.0195   34.9744 C   0  0  0  0  0  0  0  0  0  0  0  0
   55.3906   14.4318   35.4069 C   0  0  0  0  0  0  0  0  0  0  0  0
   56.7932   14.6910   35.3627 O   0  0  0  0  0  0  0  0  0  0  0  0
   54.6727   15.4388   34.4895 C   0  0  0  0  0  0  0  0  0  0  0  0
   54.7405   16.7397   35.0930 O   0  0  0  0  0  0  0  0  0  0  0  0
   53.2180   15.0371   34.2546 C   0  0  0  0  0  0  0  0  0  0  0  0
   51.6581   12.2156   34.1361 H   0  0  0  0  0  0  0  0  0  0  0  0
   57.1151   14.5742   34.4552 H   0  0  0  0  0  0  0  0  0  0  0  0
   54.2983   16.7192   35.9561 H   0  0  0  0  0  0  0  0  0  0  0  0
   52.7120   13.4529   32.2255 C   0  0  0  0  0  0  0  0  0  0  0  0
   53.7527   13.1095   31.0935 C   0  0  0  0  0  0  0  0  0  0  0  0
   54.1382   11.6231   31.1363 C   0  0  0  0  0  0  0  0  0  0  0  0
   55.0083   13.9732   31.2491 C   0  0  0  0  0  0  0  0  0  0  0  0
   53.0021   13.4319   29.7409 C   0  0  0  0  0  0  0  0  0  0  0  0
   52.1244   11.0511   29.1773 C   0  0  0  0  0  0  0  0  0  0  0  0
   51.8614   12.5595   29.1223 C   0  0  0  0  0  0  0  0  0  0  0  0
   50.5857   12.8360   29.9601 C   0  0  0  0  0  0  0  0  0  0  0  0
   51.5344   12.9712   27.6742 C   0  0  0  0  0  0  0  0  0  0  0  0
 18 19  1  0
 19 20  1  0
 19 21  1  0
 19 17  1  0
 17 14  1  0
 14 15  1  0
 14 16  1  0
 14 13  1  0
 13  1  1  0
  1  2  1  0
  1  3  1  0
  3  4  2  0
  4  5  1  0
  5  6  1  0
  5  7  1  0
  7  8  1  0
  7  9  1  0
  9  1  1  0
  2 10  1  0
  6 11  1  0
  8 12  1  0
M  END
> <minimizedAffinity>
-4.70111

> <CNNscore>
0.2946184576

> <CNNaffinity>
3.4019651413

> <CNN_VS>
1.0022816658

> <CNNaffinity_variance>
0.9884803891

$$$$
