


 39 42  0  0  0  0  0  0  0  0999 V2000
   10.5311   67.0230    3.7058 C   0  0  0  0  0  0  0  0  0  0  0  0
   10.7618   68.5025    3.4558 C   0  0  0  0  0  0  0  0  0  0  0  0
    9.4484   69.0222    3.0206 N   0  0  0  0  0  0  0  0  0  0  0  0
    8.8427   67.9300    2.2266 C   0  0  0  0  0  0  0  0  0  0  0  0
    9.6212   66.6483    2.5337 C   0  0  0  0  0  0  0  0  0  0  0  0
   12.2069   65.6233    2.6917 O   0  0  0  0  0  0  0  0  0  0  0  0
   11.8095   66.2005    3.6981 C   0  0  0  0  0  0  0  0  0  0  0  0
   12.4153   66.1813    4.9347 N   0  0  0  0  0  0  0  0  0  0  0  0
   12.0326   66.7893    5.6078 H   0  0  0  0  0  0  0  0  0  0  0  0
   13.4989   65.4144    5.3584 C   0  0  0  0  0  0  0  0  0  0  0  0
   14.3595   64.7321    4.5077 C   0  0  0  0  0  0  0  0  0  0  0  0
   15.3811   63.9539    5.0589 C   0  0  0  0  0  0  0  0  0  0  0  0
   15.5063   63.8773    6.4385 C   0  0  0  0  0  0  0  0  0  0  0  0
   16.7354   62.9205    7.1573 Cl  0  0  0  0  0  0  0  0  0  0  0  0
   14.6119   64.5947    7.2140 C   0  0  0  0  0  0  0  0  0  0  0  0
   13.6149   65.3585    6.7032 N   0  0  0  0  0  0  0  0  0  0  0  0
    8.6875   65.4979    2.8646 C   0  0  0  0  0  0  0  0  0  0  0  0
    7.6118   65.6986    3.4196 O   0  0  0  0  0  0  0  0  0  0  0  0
    9.2075   64.2637    2.5391 N   0  0  0  0  0  0  0  0  0  0  0  0
   10.0976   64.2558    2.1186 H   0  0  0  0  0  0  0  0  0  0  0  0
    8.5931   63.0087    2.7476 C   0  0  0  0  0  0  0  0  0  0  0  0
    7.8116   62.6901    3.8515 C   0  0  0  0  0  0  0  0  0  0  0  0
    7.2411   61.4130    3.9674 C   0  0  0  0  0  0  0  0  0  0  0  0
    7.4444   60.4168    2.9932 C   0  0  0  0  0  0  0  0  0  0  0  0
    8.2313   60.7534    1.8840 C   0  0  0  0  0  0  0  0  0  0  0  0
    8.7821   62.0290    1.7682 C   0  0  0  0  0  0  0  0  0  0  0  0
    9.5251   62.3198    0.6853 F   0  0  0  0  0  0  0  0  0  0  0  0
    6.8422   59.1084    3.1371 N   0  0  0  0  0  0  0  0  0  0  0  0
    7.5185   58.0842    3.8062 C   0  0  0  0  0  0  0  0  0  0  0  0
    7.0003   56.8599    3.9604 C   0  0  0  0  0  0  0  0  0  0  0  0
    5.7091   56.5583    3.4151 C   0  0  0  0  0  0  0  0  0  0  0  0
    5.0862   54.9664    3.6185 Cl  0  0  0  0  0  0  0  0  0  0  0  0
    5.0126   57.4883    2.7562 C   0  0  0  0  0  0  0  0  0  0  0  0
    5.5637   58.8599    2.5821 C   0  0  0  0  0  0  0  0  0  0  0  0
    4.8750   59.6500    1.9400 O   0  0  0  0  0  0  0  0  0  0  0  0
    8.6009   69.3937    4.1846 C   0  0  0  0  0  0  0  0  0  0  0  0
    7.3638   70.2378    3.8431 C   0  0  0  0  0  0  0  0  0  0  0  0
    7.6097   71.5542    4.0674 F   0  0  0  0  0  0  0  0  0  0  0  0
    6.3486   69.8913    4.6778 F   0  0  0  0  0  0  0  0  0  0  0  0
  6  7  2  0
  7  8  1  0
  8 10  1  0
 10 11  2  0
 11 12  1  0
 12 13  2  0
 13 14  1  0
 13 15  1  0
 15 16  2  0
  1  7  1  0
  1  2  1  0
  2  3  1  0
  3 36  1  0
 36 37  1  0
 37 38  1  0
 37 39  1  0
  3  4  1  0
  4  5  1  0
  5 17  1  0
 17 18  2  0
 17 19  1  0
 19 21  1  0
 21 22  2  0
 22 23  1  0
 23 24  2  0
 24 28  1  0
 28 29  1  0
 29 30  2  0
 30 31  1  0
 31 32  1  0
 31 33  2  0
 33 34  1  0
 34 35  2  0
 24 25  1  0
 25 26  2  0
 26 27  1  0
 16 10  1  0
  5  1  1  0
 26 21  1  0
 34 28  1  0
  8  9  1  0
 19 20  1  0
M  END
> <minimizedAffinity>
-11.20710

> <CNNscore>
0.9442252517

> <CNNaffinity>
8.4708108902

> <CNN_VS>
7.9983534813

> <CNNaffinity_variance>
0.0039917259

$$$$



 39 42  0  0  0  0  0  0  0  0999 V2000
    9.7788   67.0074    2.7998 C   0  0  0  0  0  0  0  0  0  0  0  0
    9.8563   68.4782    2.4318 C   0  0  0  0  0  0  0  0  0  0  0  0
    8.4907   68.8303    1.9897 N   0  0  0  0  0  0  0  0  0  0  0  0
    7.9844   67.6248    1.2963 C   0  0  0  0  0  0  0  0  0  0  0  0
    8.8922   66.4540    1.6818 C   0  0  0  0  0  0  0  0  0  0  0  0
   11.6101   65.7826    1.8289 O   0  0  0  0  0  0  0  0  0  0  0  0
   11.1328   66.3167    2.8244 C   0  0  0  0  0  0  0  0  0  0  0  0
   11.7074   66.3574    4.0753 N   0  0  0  0  0  0  0  0  0  0  0  0
   11.2496   66.9237    4.7379 H   0  0  0  0  0  0  0  0  0  0  0  0
   12.8516   65.7023    4.5264 C   0  0  0  0  0  0  0  0  0  0  0  0
   13.7792   65.0811    3.6997 C   0  0  0  0  0  0  0  0  0  0  0  0
   14.8614   64.4121    4.2781 C   0  0  0  0  0  0  0  0  0  0  0  0
   14.9787   64.3798    5.6601 C   0  0  0  0  0  0  0  0  0  0  0  0
   16.2819   63.5559    6.4122 Cl  0  0  0  0  0  0  0  0  0  0  0  0
   14.0150   65.0312    6.4106 C   0  0  0  0  0  0  0  0  0  0  0  0
   12.9583   65.6890    5.8731 N   0  0  0  0  0  0  0  0  0  0  0  0
    8.0836   65.2469    2.1219 C   0  0  0  0  0  0  0  0  0  0  0  0
    7.1606   65.3638    2.9218 O   0  0  0  0  0  0  0  0  0  0  0  0
    8.5402   64.0614    1.5872 N   0  0  0  0  0  0  0  0  0  0  0  0
    9.3096   64.1195    0.9757 H   0  0  0  0  0  0  0  0  0  0  0  0
    8.0163   62.7716    1.8272 C   0  0  0  0  0  0  0  0  0  0  0  0
    7.2768   62.0398    0.9061 C   0  0  0  0  0  0  0  0  0  0  0  0
    6.8001   60.7624    1.2389 C   0  0  0  0  0  0  0  0  0  0  0  0
    7.0370   60.1862    2.5017 C   0  0  0  0  0  0  0  0  0  0  0  0
    7.7872   60.9338    3.4189 C   0  0  0  0  0  0  0  0  0  0  0  0
    8.2704   62.1959    3.0757 C   0  0  0  0  0  0  0  0  0  0  0  0
    8.9945   62.8816    3.9783 F   0  0  0  0  0  0  0  0  0  0  0  0
    6.5352   58.8657    2.8176 N   0  0  0  0  0  0  0  0  0  0  0  0
    7.2978   57.9800    3.5844 C   0  0  0  0  0  0  0  0  0  0  0  0
    6.8737   56.7500    3.8981 C   0  0  0  0  0  0  0  0  0  0  0  0
    5.5975   56.2947    3.4297 C   0  0  0  0  0  0  0  0  0  0  0  0
    5.0970   54.6993    3.8391 Cl  0  0  0  0  0  0  0  0  0  0  0  0
    4.8218   57.0870    2.6848 C   0  0  0  0  0  0  0  0  0  0  0  0
    5.2675   58.4627    2.3328 C   0  0  0  0  0  0  0  0  0  0  0  0
    4.5103   59.1191    1.6210 O   0  0  0  0  0  0  0  0  0  0  0  0
    7.6291   69.2068    3.1418 C   0  0  0  0  0  0  0  0  0  0  0  0
    7.9645   70.5595    3.7877 C   0  0  0  0  0  0  0  0  0  0  0  0
    6.8356   71.1627    4.2410 F   0  0  0  0  0  0  0  0  0  0  0  0
    8.4843   71.3842    2.8407 F   0  0  0  0  0  0  0  0  0  0  0  0
  6  7  2  0
  7  8  1  0
  8 10  1  0
 10 11  2  0
 11 12  1  0
 12 13  2  0
 13 14  1  0
 13 15  1  0
 15 16  2  0
  1  7  1  0
  1  2  1  0
  2  3  1  0
  3 36  1  0
 36 37  1  0
 37 38  1  0
 37 39  1  0
  3  4  1  0
  4  5  1  0
  5 17  1  0
 17 18  2  0
 17 19  1  0
 19 21  1  0
 21 22  2  0
 22 23  1  0
 23 24  2  0
 24 28  1  0
 28 29  1  0
 29 30  2  0
 30 31  1  0
 31 32  1  0
 31 33  2  0
 33 34  1  0
 34 35  2  0
 24 25  1  0
 25 26  2  0
 26 27  1  0
 16 10  1  0
  5  1  1  0
 26 21  1  0
 34 28  1  0
  8  9  1  0
 19 20  1  0
M  END
> <minimizedAffinity>
-9.68426

> <CNNscore>
0.8125204444

> <CNNaffinity>
7.9578299522

> <CNN_VS>
6.4658994675

> <CNNaffinity_variance>
0.0072520017

$$$$



 39 42  0  0  0  0  0  0  0  0999 V2000
   10.6720   67.1228    3.6467 C   0  0  0  0  0  0  0  0  0  0  0  0
   10.8528   68.5664    4.0802 C   0  0  0  0  0  0  0  0  0  0  0  0
    9.6713   69.2736    3.5433 N   0  0  0  0  0  0  0  0  0  0  0  0
    9.3839   68.6204    2.2469 C   0  0  0  0  0  0  0  0  0  0  0  0
   10.1422   67.2909    2.2207 C   0  0  0  0  0  0  0  0  0  0  0  0
   12.4436   65.8351    2.6468 O   0  0  0  0  0  0  0  0  0  0  0  0
   11.9617   66.3182    3.6659 C   0  0  0  0  0  0  0  0  0  0  0  0
   12.4732   66.1982    4.9388 N   0  0  0  0  0  0  0  0  0  0  0  0
   12.0304   66.7410    5.6305 H   0  0  0  0  0  0  0  0  0  0  0  0
   13.5353   65.4093    5.3765 C   0  0  0  0  0  0  0  0  0  0  0  0
   14.4142   64.7378    4.5361 C   0  0  0  0  0  0  0  0  0  0  0  0
   15.4103   63.9353    5.0990 C   0  0  0  0  0  0  0  0  0  0  0  0
   15.4925   63.8245    6.4795 C   0  0  0  0  0  0  0  0  0  0  0  0
   16.6890   62.8372    7.2120 Cl  0  0  0  0  0  0  0  0  0  0  0  0
   14.5824   64.5333    7.2447 C   0  0  0  0  0  0  0  0  0  0  0  0
   13.6096   65.3202    6.7224 N   0  0  0  0  0  0  0  0  0  0  0  0
    9.2405   66.1463    1.7947 C   0  0  0  0  0  0  0  0  0  0  0  0
    8.5513   66.2295    0.7831 O   0  0  0  0  0  0  0  0  0  0  0  0
    9.2472   65.0896    2.6796 N   0  0  0  0  0  0  0  0  0  0  0  0
    9.8349   65.1741    3.4649 H   0  0  0  0  0  0  0  0  0  0  0  0
    8.4964   63.8974    2.5743 C   0  0  0  0  0  0  0  0  0  0  0  0
    8.8561   62.8091    1.7887 C   0  0  0  0  0  0  0  0  0  0  0  0
    8.0429   61.6659    1.7519 C   0  0  0  0  0  0  0  0  0  0  0  0
    6.8445   61.5821    2.4865 C   0  0  0  0  0  0  0  0  0  0  0  0
    6.4963   62.6853    3.2768 C   0  0  0  0  0  0  0  0  0  0  0  0
    7.3172   63.8115    3.3203 C   0  0  0  0  0  0  0  0  0  0  0  0
    6.9560   64.8487    4.0969 F   0  0  0  0  0  0  0  0  0  0  0  0
    6.0256   60.3896    2.4315 N   0  0  0  0  0  0  0  0  0  0  0  0
    4.7124   60.4504    1.9563 C   0  0  0  0  0  0  0  0  0  0  0  0
    3.9201   59.3738    1.8901 C   0  0  0  0  0  0  0  0  0  0  0  0
    4.4092   58.1002    2.3311 C   0  0  0  0  0  0  0  0  0  0  0  0
    3.3524   56.7439    2.2474 Cl  0  0  0  0  0  0  0  0  0  0  0  0
    5.6516   57.9735    2.8049 C   0  0  0  0  0  0  0  0  0  0  0  0
    6.5546   59.1544    2.8774 C   0  0  0  0  0  0  0  0  0  0  0  0
    7.6722   58.9618    3.3514 O   0  0  0  0  0  0  0  0  0  0  0  0
    8.5162   69.1821    4.4754 C   0  0  0  0  0  0  0  0  0  0  0  0
    7.3538   70.1365    4.1635 C   0  0  0  0  0  0  0  0  0  0  0  0
    6.5662   69.6224    3.1841 F   0  0  0  0  0  0  0  0  0  0  0  0
    7.8572   71.3013    3.6767 F   0  0  0  0  0  0  0  0  0  0  0  0
  6  7  2  0
  7  8  1  0
  8 10  1  0
 10 11  2  0
 11 12  1  0
 12 13  2  0
 13 14  1  0
 13 15  1  0
 15 16  2  0
  1  7  1  0
  1  2  1  0
  2  3  1  0
  3 36  1  0
 36 37  1  0
 37 38  1  0
 37 39  1  0
  3  4  1  0
  4  5  1  0
  5 17  1  0
 17 18  2  0
 17 19  1  0
 19 21  1  0
 21 22  2  0
 22 23  1  0
 23 24  2  0
 24 28  1  0
 28 29  1  0
 29 30  2  0
 30 31  1  0
 31 32  1  0
 31 33  2  0
 33 34  1  0
 34 35  2  0
 24 25  1  0
 25 26  2  0
 26 27  1  0
 16 10  1  0
  5  1  1  0
 26 21  1  0
 34 28  1  0
  8  9  1  0
 19 20  1  0
M  END
> <minimizedAffinity>
-9.57095

> <CNNscore>
0.7450552583

> <CNNaffinity>
7.7857837677

> <CNN_VS>
5.8008389473

> <CNNaffinity_variance>
0.0039763502

$$$$



 39 42  0  0  0  0  0  0  0  0999 V2000
   10.3157   66.7557    3.8496 C   0  0  0  0  0  0  0  0  0  0  0  0
   10.9099   68.1311    3.6053 C   0  0  0  0  0  0  0  0  0  0  0  0
    9.8177   68.9106    2.9855 N   0  0  0  0  0  0  0  0  0  0  0  0
    9.0845   67.9447    2.1374 C   0  0  0  0  0  0  0  0  0  0  0  0
    9.5022   66.5375    2.5719 C   0  0  0  0  0  0  0  0  0  0  0  0
   11.2099   64.5364    3.5824 O   0  0  0  0  0  0  0  0  0  0  0  0
   11.3615   65.6674    4.0316 C   0  0  0  0  0  0  0  0  0  0  0  0
   12.4428   66.1109    4.7599 N   0  0  0  0  0  0  0  0  0  0  0  0
   12.4643   67.0770    4.9481 H   0  0  0  0  0  0  0  0  0  0  0  0
   13.5106   65.3720    5.2655 C   0  0  0  0  0  0  0  0  0  0  0  0
   14.4461   64.7064    4.4835 C   0  0  0  0  0  0  0  0  0  0  0  0
   15.4431   63.9551    5.1119 C   0  0  0  0  0  0  0  0  0  0  0  0
   15.4699   63.8878    6.4973 C   0  0  0  0  0  0  0  0  0  0  0  0
   16.6659   62.9638    7.3090 Cl  0  0  0  0  0  0  0  0  0  0  0  0
   14.5053   64.5874    7.2017 C   0  0  0  0  0  0  0  0  0  0  0  0
   13.5304   65.3250    6.6155 N   0  0  0  0  0  0  0  0  0  0  0  0
    8.2949   65.6444    2.7944 C   0  0  0  0  0  0  0  0  0  0  0  0
    7.4186   65.9565    3.5945 O   0  0  0  0  0  0  0  0  0  0  0  0
    8.3438   64.4725    2.0706 N   0  0  0  0  0  0  0  0  0  0  0  0
    9.1248   64.3470    1.4845 H   0  0  0  0  0  0  0  0  0  0  0  0
    7.3872   63.4329    2.0844 C   0  0  0  0  0  0  0  0  0  0  0  0
    6.2589   63.4140    2.8952 C   0  0  0  0  0  0  0  0  0  0  0  0
    5.3643   62.3343    2.8345 C   0  0  0  0  0  0  0  0  0  0  0  0
    5.5769   61.2402    1.9740 C   0  0  0  0  0  0  0  0  0  0  0  0
    6.7165   61.2745    1.1598 C   0  0  0  0  0  0  0  0  0  0  0  0
    7.5927   62.3578    1.2146 C   0  0  0  0  0  0  0  0  0  0  0  0
    8.6722   62.3612    0.4121 F   0  0  0  0  0  0  0  0  0  0  0  0
    4.6365   60.1405    1.9303 N   0  0  0  0  0  0  0  0  0  0  0  0
    5.0660   58.8287    2.1514 C   0  0  0  0  0  0  0  0  0  0  0  0
    4.2317   57.7827    2.1183 C   0  0  0  0  0  0  0  0  0  0  0  0
    2.8417   57.9880    1.8333 C   0  0  0  0  0  0  0  0  0  0  0  0
    1.8053   56.6144    1.7812 Cl  0  0  0  0  0  0  0  0  0  0  0  0
    2.3663   59.2150    1.6036 C   0  0  0  0  0  0  0  0  0  0  0  0
    3.2731   60.3945    1.6462 C   0  0  0  0  0  0  0  0  0  0  0  0
    2.7653   61.4856    1.3962 O   0  0  0  0  0  0  0  0  0  0  0  0
    8.9360   69.5204    4.0161 C   0  0  0  0  0  0  0  0  0  0  0  0
    7.8976   70.5148    3.4753 C   0  0  0  0  0  0  0  0  0  0  0  0
    8.4924   71.6893    3.1425 F   0  0  0  0  0  0  0  0  0  0  0  0
    7.0073   70.8033    4.4608 F   0  0  0  0  0  0  0  0  0  0  0  0
  6  7  2  0
  7  8  1  0
  8 10  1  0
 10 11  2  0
 11 12  1  0
 12 13  2  0
 13 14  1  0
 13 15  1  0
 15 16  2  0
  1  7  1  0
  1  2  1  0
  2  3  1  0
  3 36  1  0
 36 37  1  0
 37 38  1  0
 37 39  1  0
  3  4  1  0
  4  5  1  0
  5 17  1  0
 17 18  2  0
 17 19  1  0
 19 21  1  0
 21 22  2  0
 22 23  1  0
 23 24  2  0
 24 28  1  0
 28 29  1  0
 29 30  2  0
 30 31  1  0
 31 32  1  0
 31 33  2  0
 33 34  1  0
 34 35  2  0
 24 25  1  0
 25 26  2  0
 26 27  1  0
 16 10  1  0
  5  1  1  0
 26 21  1  0
 34 28  1  0
  8  9  1  0
 19 20  1  0
M  END
> <minimizedAffinity>
-9.21065

> <CNNscore>
0.7232942581

> <CNNaffinity>
7.4094147682

> <CNN_VS>
5.3591871262

> <CNNaffinity_variance>
0.1113156900

$$$$



 39 42  0  0  0  0  0  0  0  0999 V2000
   10.3346   66.6719    3.3987 C   0  0  0  0  0  0  0  0  0  0  0  0
    9.9027   68.0156    2.8396 C   0  0  0  0  0  0  0  0  0  0  0  0
    8.9357   67.6877    1.7710 N   0  0  0  0  0  0  0  0  0  0  0  0
    9.4403   66.4373    1.1612 C   0  0  0  0  0  0  0  0  0  0  0  0
   10.4643   65.8329    2.1254 C   0  0  0  0  0  0  0  0  0  0  0  0
   12.3657   67.7220    4.1529 O   0  0  0  0  0  0  0  0  0  0  0  0
   11.6490   66.7268    4.1606 C   0  0  0  0  0  0  0  0  0  0  0  0
   11.9150   65.5429    4.8118 N   0  0  0  0  0  0  0  0  0  0  0  0
   11.1849   64.8824    4.8134 H   0  0  0  0  0  0  0  0  0  0  0  0
   13.0817   65.1569    5.4688 C   0  0  0  0  0  0  0  0  0  0  0  0
   13.3912   65.4891    6.7817 C   0  0  0  0  0  0  0  0  0  0  0  0
   14.6192   65.0838    7.3117 C   0  0  0  0  0  0  0  0  0  0  0  0
   15.4990   64.3670    6.5136 C   0  0  0  0  0  0  0  0  0  0  0  0
   17.0235   63.8643    7.1186 Cl  0  0  0  0  0  0  0  0  0  0  0  0
   15.1094   64.0708    5.2188 C   0  0  0  0  0  0  0  0  0  0  0  0
   13.9232   64.4501    4.6830 N   0  0  0  0  0  0  0  0  0  0  0  0
   10.1948   64.3588    2.3681 C   0  0  0  0  0  0  0  0  0  0  0  0
   11.1052   63.5371    2.3324 O   0  0  0  0  0  0  0  0  0  0  0  0
    8.8596   64.0732    2.5563 N   0  0  0  0  0  0  0  0  0  0  0  0
    8.2370   64.8355    2.5348 H   0  0  0  0  0  0  0  0  0  0  0  0
    8.2935   62.7977    2.7768 C   0  0  0  0  0  0  0  0  0  0  0  0
    7.7799   62.3657    3.9935 C   0  0  0  0  0  0  0  0  0  0  0  0
    7.2353   61.0776    4.1123 C   0  0  0  0  0  0  0  0  0  0  0  0
    7.1997   60.1825    3.0258 C   0  0  0  0  0  0  0  0  0  0  0  0
    7.7177   60.6329    1.8044 C   0  0  0  0  0  0  0  0  0  0  0  0
    8.2431   61.9194    1.6902 C   0  0  0  0  0  0  0  0  0  0  0  0
    8.7239   62.3213    0.5000 F   0  0  0  0  0  0  0  0  0  0  0  0
    6.6302   58.8601    3.1758 N   0  0  0  0  0  0  0  0  0  0  0  0
    7.3396   57.8511    3.8335 C   0  0  0  0  0  0  0  0  0  0  0  0
    6.8523   56.6148    3.9928 C   0  0  0  0  0  0  0  0  0  0  0  0
    5.5610   56.2839    3.4651 C   0  0  0  0  0  0  0  0  0  0  0  0
    4.9783   54.6776    3.6745 Cl  0  0  0  0  0  0  0  0  0  0  0  0
    4.8337   57.1983    2.8177 C   0  0  0  0  0  0  0  0  0  0  0  0
    5.3503   58.5826    2.6383 C   0  0  0  0  0  0  0  0  0  0  0  0
    4.6344   59.3574    2.0073 O   0  0  0  0  0  0  0  0  0  0  0  0
    7.5625   67.5203    2.3168 C   0  0  0  0  0  0  0  0  0  0  0  0
    6.7038   68.7939    2.3142 C   0  0  0  0  0  0  0  0  0  0  0  0
    5.5350   68.5779    1.6577 F   0  0  0  0  0  0  0  0  0  0  0  0
    7.3564   69.7651    1.6228 F   0  0  0  0  0  0  0  0  0  0  0  0
  6  7  2  0
  7  8  1  0
  8 10  1  0
 10 11  2  0
 11 12  1  0
 12 13  2  0
 13 14  1  0
 13 15  1  0
 15 16  2  0
  1  7  1  0
  1  2  1  0
  2  3  1  0
  3 36  1  0
 36 37  1  0
 37 38  1  0
 37 39  1  0
  3  4  1  0
  4  5  1  0
  5 17  1  0
 17 18  2  0
 17 19  1  0
 19 21  1  0
 21 22  2  0
 22 23  1  0
 23 24  2  0
 24 28  1  0
 28 29  1  0
 29 30  2  0
 30 31  1  0
 31 32  1  0
 31 33  2  0
 33 34  1  0
 34 35  2  0
 24 25  1  0
 25 26  2  0
 26 27  1  0
 16 10  1  0
  5  1  1  0
 26 21  1  0
 34 28  1  0
  8  9  1  0
 19 20  1  0
M  END
> <minimizedAffinity>
-8.60556

> <CNNscore>
0.6244987249

> <CNNaffinity>
7.9946608543

> <CNN_VS>
4.9926552773

> <CNNaffinity_variance>
0.0009088602

$$$$



 39 42  0  0  0  0  0  0  0  0999 V2000
   10.5449   66.6462    3.8638 C   0  0  0  0  0  0  0  0  0  0  0  0
   10.9620   68.0588    4.2317 C   0  0  0  0  0  0  0  0  0  0  0  0
   10.0140   68.9334    3.5101 N   0  0  0  0  0  0  0  0  0  0  0  0
    9.7481   68.2435    2.2282 C   0  0  0  0  0  0  0  0  0  0  0  0
   10.2225   66.7954    2.3752 C   0  0  0  0  0  0  0  0  0  0  0  0
   11.6768   64.5586    3.4672 O   0  0  0  0  0  0  0  0  0  0  0  0
   11.6366   65.6132    4.0920 C   0  0  0  0  0  0  0  0  0  0  0  0
   12.5193   66.0069    5.0730 N   0  0  0  0  0  0  0  0  0  0  0  0
   12.4153   66.9311    5.3958 H   0  0  0  0  0  0  0  0  0  0  0  0
   13.5403   65.2690    5.6687 C   0  0  0  0  0  0  0  0  0  0  0  0
   13.7746   65.2132    7.0368 C   0  0  0  0  0  0  0  0  0  0  0  0
   14.8646   64.4764    7.5081 C   0  0  0  0  0  0  0  0  0  0  0  0
   15.6872   63.8258    6.5999 C   0  0  0  0  0  0  0  0  0  0  0  0
   17.0455   62.9243    7.1339 Cl  0  0  0  0  0  0  0  0  0  0  0  0
   15.3785   63.9261    5.2543 C   0  0  0  0  0  0  0  0  0  0  0  0
   14.3257   64.6319    4.7729 N   0  0  0  0  0  0  0  0  0  0  0  0
    9.1629   65.8144    1.9067 C   0  0  0  0  0  0  0  0  0  0  0  0
    8.6372   65.9328    0.8044 O   0  0  0  0  0  0  0  0  0  0  0  0
    8.8398   64.8679    2.8551 N   0  0  0  0  0  0  0  0  0  0  0  0
    9.3299   64.9111    3.7078 H   0  0  0  0  0  0  0  0  0  0  0  0
    7.8770   63.8419    2.7279 C   0  0  0  0  0  0  0  0  0  0  0  0
    6.5428   63.9663    3.0960 C   0  0  0  0  0  0  0  0  0  0  0  0
    5.6609   62.8875    2.9283 C   0  0  0  0  0  0  0  0  0  0  0  0
    6.0877   61.6534    2.4014 C   0  0  0  0  0  0  0  0  0  0  0  0
    7.4345   61.5436    2.0312 C   0  0  0  0  0  0  0  0  0  0  0  0
    8.3012   62.6247    2.1865 C   0  0  0  0  0  0  0  0  0  0  0  0
    9.5857   62.4862    1.8123 F   0  0  0  0  0  0  0  0  0  0  0  0
    5.1560   60.5577    2.2375 N   0  0  0  0  0  0  0  0  0  0  0  0
    5.5605   59.2399    2.4690 C   0  0  0  0  0  0  0  0  0  0  0  0
    4.7332   58.1973    2.3275 C   0  0  0  0  0  0  0  0  0  0  0  0
    3.3789   58.4133    1.9096 C   0  0  0  0  0  0  0  0  0  0  0  0
    2.3523   57.0443    1.7211 Cl  0  0  0  0  0  0  0  0  0  0  0  0
    2.9295   59.6468    1.6628 C   0  0  0  0  0  0  0  0  0  0  0  0
    3.8280   60.8223    1.8243 C   0  0  0  0  0  0  0  0  0  0  0  0
    3.3483   61.9205    1.5508 O   0  0  0  0  0  0  0  0  0  0  0  0
    8.7672   69.1423    4.2933 C   0  0  0  0  0  0  0  0  0  0  0  0
    7.9736   70.4048    3.9248 C   0  0  0  0  0  0  0  0  0  0  0  0
    7.0517   70.1245    2.9681 F   0  0  0  0  0  0  0  0  0  0  0  0
    8.8222   71.3171    3.3819 F   0  0  0  0  0  0  0  0  0  0  0  0
  6  7  2  0
  7  8  1  0
  8 10  1  0
 10 11  2  0
 11 12  1  0
 12 13  2  0
 13 14  1  0
 13 15  1  0
 15 16  2  0
  1  7  1  0
  1  2  1  0
  2  3  1  0
  3 36  1  0
 36 37  1  0
 37 38  1  0
 37 39  1  0
  3  4  1  0
  4  5  1  0
  5 17  1  0
 17 18  2  0
 17 19  1  0
 19 21  1  0
 21 22  2  0
 22 23  1  0
 23 24  2  0
 24 28  1  0
 28 29  1  0
 29 30  2  0
 30 31  1  0
 31 32  1  0
 31 33  2  0
 33 34  1  0
 34 35  2  0
 24 25  1  0
 25 26  2  0
 26 27  1  0
 16 10  1  0
  5  1  1  0
 26 21  1  0
 34 28  1  0
  8  9  1  0
 19 20  1  0
M  END
> <minimizedAffinity>
-9.12728

> <CNNscore>
0.6126403809

> <CNNaffinity>
7.6128115654

> <CNN_VS>
4.6639156342

> <CNNaffinity_variance>
0.1047805771

$$$$



 39 42  0  0  0  0  0  0  0  0999 V2000
   10.3582   66.7657    3.8403 C   0  0  0  0  0  0  0  0  0  0  0  0
   10.9484   68.0703    3.3359 C   0  0  0  0  0  0  0  0  0  0  0  0
    9.8175   68.7750    2.6963 N   0  0  0  0  0  0  0  0  0  0  0  0
    8.9994   67.7108    2.0734 C   0  0  0  0  0  0  0  0  0  0  0  0
    9.4333   66.3762    2.6849 C   0  0  0  0  0  0  0  0  0  0  0  0
   11.3284   64.5763    3.5925 O   0  0  0  0  0  0  0  0  0  0  0  0
   11.4002   65.6900    4.1010 C   0  0  0  0  0  0  0  0  0  0  0  0
   12.3784   66.1220    4.9688 N   0  0  0  0  0  0  0  0  0  0  0  0
   12.3555   67.0795    5.1964 H   0  0  0  0  0  0  0  0  0  0  0  0
   13.3963   65.3819    5.5670 C   0  0  0  0  0  0  0  0  0  0  0  0
   13.6399   65.3419    6.9341 C   0  0  0  0  0  0  0  0  0  0  0  0
   14.7259   64.6005    7.4074 C   0  0  0  0  0  0  0  0  0  0  0  0
   15.5354   63.9298    6.5021 C   0  0  0  0  0  0  0  0  0  0  0  0
   16.8886   63.0219    7.0384 Cl  0  0  0  0  0  0  0  0  0  0  0  0
   15.2181   64.0153    5.1575 C   0  0  0  0  0  0  0  0  0  0  0  0
   14.1689   64.7252    4.6743 N   0  0  0  0  0  0  0  0  0  0  0  0
    8.2374   65.5616    3.1441 C   0  0  0  0  0  0  0  0  0  0  0  0
    7.8778   64.5653    2.5250 O   0  0  0  0  0  0  0  0  0  0  0  0
    7.6050   66.0966    4.2458 N   0  0  0  0  0  0  0  0  0  0  0  0
    7.9945   66.9179    4.6238 H   0  0  0  0  0  0  0  0  0  0  0  0
    6.4546   65.5861    4.8876 C   0  0  0  0  0  0  0  0  0  0  0  0
    6.1974   64.2344    5.0813 C   0  0  0  0  0  0  0  0  0  0  0  0
    5.0240   63.8256    5.7337 C   0  0  0  0  0  0  0  0  0  0  0  0
    4.0708   64.7519    6.1989 C   0  0  0  0  0  0  0  0  0  0  0  0
    4.3451   66.1114    6.0000 C   0  0  0  0  0  0  0  0  0  0  0  0
    5.5203   66.5104    5.3647 C   0  0  0  0  0  0  0  0  0  0  0  0
    5.7549   67.8244    5.1986 F   0  0  0  0  0  0  0  0  0  0  0  0
    2.8698   64.3025    6.8705 N   0  0  0  0  0  0  0  0  0  0  0  0
    1.9317   63.5143    6.1977 C   0  0  0  0  0  0  0  0  0  0  0  0
    0.8076   63.0790    6.7791 C   0  0  0  0  0  0  0  0  0  0  0  0
    0.5251   63.4329    8.1394 C   0  0  0  0  0  0  0  0  0  0  0  0
   -0.9405   62.8687    8.8445 Cl  0  0  0  0  0  0  0  0  0  0  0  0
    1.3747   64.1911    8.8376 C   0  0  0  0  0  0  0  0  0  0  0  0
    2.6364   64.6775    8.2156 C   0  0  0  0  0  0  0  0  0  0  0  0
    3.3516   65.3930    8.9138 O   0  0  0  0  0  0  0  0  0  0  0  0
    9.0378   69.5602    3.6898 C   0  0  0  0  0  0  0  0  0  0  0  0
    8.9054   71.0575    3.3735 C   0  0  0  0  0  0  0  0  0  0  0  0
    7.7234   71.5386    3.8371 F   0  0  0  0  0  0  0  0  0  0  0  0
    8.8828   71.2236    2.0248 F   0  0  0  0  0  0  0  0  0  0  0  0
  6  7  2  0
  7  8  1  0
  8 10  1  0
 10 11  2  0
 11 12  1  0
 12 13  2  0
 13 14  1  0
 13 15  1  0
 15 16  2  0
  1  7  1  0
  1  2  1  0
  2  3  1  0
  3 36  1  0
 36 37  1  0
 37 38  1  0
 37 39  1  0
  3  4  1  0
  4  5  1  0
  5 17  1  0
 17 18  2  0
 17 19  1  0
 19 21  1  0
 21 22  2  0
 22 23  1  0
 23 24  2  0
 24 28  1  0
 28 29  1  0
 29 30  2  0
 30 31  1  0
 31 32  1  0
 31 33  2  0
 33 34  1  0
 34 35  2  0
 24 25  1  0
 25 26  2  0
 26 27  1  0
 16 10  1  0
  5  1  1  0
 26 21  1  0
 34 28  1  0
  8  9  1  0
 19 20  1  0
M  END
> <minimizedAffinity>
-8.81145

> <CNNscore>
0.4878558218

> <CNNaffinity>
7.1546654701

> <CNN_VS>
3.4904451370

> <CNNaffinity_variance>
0.0092028426

$$$$



 39 42  0  0  0  0  0  0  0  0999 V2000
    8.6478   68.8867    3.7378 C   0  0  0  0  0  0  0  0  0  0  0  0
    8.3511   70.3258    3.3560 C   0  0  0  0  0  0  0  0  0  0  0  0
    6.9078   70.3431    3.0379 N   0  0  0  0  0  0  0  0  0  0  0  0
    6.6353   69.0357    2.4002 C   0  0  0  0  0  0  0  0  0  0  0  0
    7.8190   68.1152    2.7082 C   0  0  0  0  0  0  0  0  0  0  0  0
   10.9894   69.3736    3.4618 O   0  0  0  0  0  0  0  0  0  0  0  0
   10.1216   68.5262    3.6431 C   0  0  0  0  0  0  0  0  0  0  0  0
   10.3273   67.1698    3.7626 N   0  0  0  0  0  0  0  0  0  0  0  0
    9.5390   66.6389    4.0197 H   0  0  0  0  0  0  0  0  0  0  0  0
   11.5044   66.4500    3.5675 C   0  0  0  0  0  0  0  0  0  0  0  0
   11.8817   65.8719    2.3620 C   0  0  0  0  0  0  0  0  0  0  0  0
   13.0646   65.1298    2.3073 C   0  0  0  0  0  0  0  0  0  0  0  0
   13.8276   64.9839    3.4568 C   0  0  0  0  0  0  0  0  0  0  0  0
   15.2776   64.0674    3.4384 Cl  0  0  0  0  0  0  0  0  0  0  0  0
   13.3840   65.5990    4.6148 C   0  0  0  0  0  0  0  0  0  0  0  0
   12.2423   66.3261    4.6924 N   0  0  0  0  0  0  0  0  0  0  0  0
    7.3528   66.7668    3.2268 C   0  0  0  0  0  0  0  0  0  0  0  0
    7.0151   66.6240    4.3977 O   0  0  0  0  0  0  0  0  0  0  0  0
    7.4193   65.7669    2.2805 N   0  0  0  0  0  0  0  0  0  0  0  0
    7.7342   66.0262    1.3845 H   0  0  0  0  0  0  0  0  0  0  0  0
    7.0814   64.4076    2.4656 C   0  0  0  0  0  0  0  0  0  0  0  0
    5.8575   63.9609    2.9486 C   0  0  0  0  0  0  0  0  0  0  0  0
    5.6161   62.5862    3.0956 C   0  0  0  0  0  0  0  0  0  0  0  0
    6.5915   61.6219    2.7770 C   0  0  0  0  0  0  0  0  0  0  0  0
    7.8193   62.0866    2.2876 C   0  0  0  0  0  0  0  0  0  0  0  0
    8.0463   63.4532    2.1299 C   0  0  0  0  0  0  0  0  0  0  0  0
    9.2338   63.8630    1.6491 F   0  0  0  0  0  0  0  0  0  0  0  0
    6.3148   60.2099    2.9364 N   0  0  0  0  0  0  0  0  0  0  0  0
    7.1479   59.4064    3.7202 C   0  0  0  0  0  0  0  0  0  0  0  0
    6.9307   58.0971    3.8930 C   0  0  0  0  0  0  0  0  0  0  0  0
    5.8151   57.4682    3.2483 C   0  0  0  0  0  0  0  0  0  0  0  0
    5.5815   55.7785    3.4806 Cl  0  0  0  0  0  0  0  0  0  0  0  0
    4.9845   58.1759    2.4780 C   0  0  0  0  0  0  0  0  0  0  0  0
    5.1996   59.6354    2.2803 C   0  0  0  0  0  0  0  0  0  0  0  0
    4.4090   60.2101    1.5351 O   0  0  0  0  0  0  0  0  0  0  0  0
    6.0865   70.5421    4.2615 C   0  0  0  0  0  0  0  0  0  0  0  0
    5.2330   71.8192    4.2692 C   0  0  0  0  0  0  0  0  0  0  0  0
    5.0818   72.2975    3.0074 F   0  0  0  0  0  0  0  0  0  0  0  0
    5.8880   72.7839    4.9673 F   0  0  0  0  0  0  0  0  0  0  0  0
  6  7  2  0
  7  8  1  0
  8 10  1  0
 10 11  2  0
 11 12  1  0
 12 13  2  0
 13 14  1  0
 13 15  1  0
 15 16  2  0
  1  7  1  0
  1  2  1  0
  2  3  1  0
  3 36  1  0
 36 37  1  0
 37 38  1  0
 37 39  1  0
  3  4  1  0
  4  5  1  0
  5 17  1  0
 17 18  2  0
 17 19  1  0
 19 21  1  0
 21 22  2  0
 22 23  1  0
 23 24  2  0
 24 28  1  0
 28 29  1  0
 29 30  2  0
 30 31  1  0
 31 32  1  0
 31 33  2  0
 33 34  1  0
 34 35  2  0
 24 25  1  0
 25 26  2  0
 26 27  1  0
 16 10  1  0
  5  1  1  0
 26 21  1  0
 34 28  1  0
  8  9  1  0
 19 20  1  0
M  END
> <minimizedAffinity>
-8.42265

> <CNNscore>
0.2861320972

> <CNNaffinity>
7.2083435059

> <CNN_VS>
2.0625383854

> <CNNaffinity_variance>
0.0216234475

$$$$



 39 42  0  0  0  0  0  0  0  0999 V2000
    9.1183   67.2290    2.4551 C   0  0  0  0  0  0  0  0  0  0  0  0
    9.2161   68.7418    2.3757 C   0  0  0  0  0  0  0  0  0  0  0  0
    7.9052   69.1789    1.8514 N   0  0  0  0  0  0  0  0  0  0  0  0
    7.4993   68.1257    0.8943 C   0  0  0  0  0  0  0  0  0  0  0  0
    8.3738   66.8976    1.1597 C   0  0  0  0  0  0  0  0  0  0  0  0
   10.9383   65.9454    1.5407 O   0  0  0  0  0  0  0  0  0  0  0  0
   10.4704   66.5363    2.5082 C   0  0  0  0  0  0  0  0  0  0  0  0
   11.0550   66.6454    3.7503 N   0  0  0  0  0  0  0  0  0  0  0  0
   10.6042   67.2496    4.3834 H   0  0  0  0  0  0  0  0  0  0  0  0
   12.2008   66.0129    4.2287 C   0  0  0  0  0  0  0  0  0  0  0  0
   12.6000   66.0108    5.5593 C   0  0  0  0  0  0  0  0  0  0  0  0
   13.7992   65.3824    5.9060 C   0  0  0  0  0  0  0  0  0  0  0  0
   14.5623   64.7832    4.9143 C   0  0  0  0  0  0  0  0  0  0  0  0
   16.0489   64.0153    5.2931 Cl  0  0  0  0  0  0  0  0  0  0  0  0
   14.0882   64.8237    3.6144 C   0  0  0  0  0  0  0  0  0  0  0  0
   12.9274   65.4243    3.2537 N   0  0  0  0  0  0  0  0  0  0  0  0
    7.5377   65.6356    1.2739 C   0  0  0  0  0  0  0  0  0  0  0  0
    6.3149   65.6788    1.1824 O   0  0  0  0  0  0  0  0  0  0  0  0
    8.2853   64.5100    1.5456 N   0  0  0  0  0  0  0  0  0  0  0  0
    9.2596   64.6326    1.6157 H   0  0  0  0  0  0  0  0  0  0  0  0
    7.7956   63.1982    1.7336 C   0  0  0  0  0  0  0  0  0  0  0  0
    7.7921   62.2128    0.7539 C   0  0  0  0  0  0  0  0  0  0  0  0
    7.2844   60.9358    1.0391 C   0  0  0  0  0  0  0  0  0  0  0  0
    6.7559   60.6113    2.3033 C   0  0  0  0  0  0  0  0  0  0  0  0
    6.7694   61.6134    3.2823 C   0  0  0  0  0  0  0  0  0  0  0  0
    7.2895   62.8750    2.9961 C   0  0  0  0  0  0  0  0  0  0  0  0
    7.2942   63.8102    3.9630 F   0  0  0  0  0  0  0  0  0  0  0  0
    6.2405   59.2853    2.5708 N   0  0  0  0  0  0  0  0  0  0  0  0
    4.9045   58.9743    2.3020 C   0  0  0  0  0  0  0  0  0  0  0  0
    4.3861   57.7628    2.5356 C   0  0  0  0  0  0  0  0  0  0  0  0
    5.2089   56.7311    3.0961 C   0  0  0  0  0  0  0  0  0  0  0  0
    4.4992   55.1923    3.3993 Cl  0  0  0  0  0  0  0  0  0  0  0  0
    6.4921   56.9636    3.3853 C   0  0  0  0  0  0  0  0  0  0  0  0
    7.0933   58.2997    3.1237 C   0  0  0  0  0  0  0  0  0  0  0  0
    8.2716   58.4428    3.4431 O   0  0  0  0  0  0  0  0  0  0  0  0
    6.9119   69.3423    2.9460 C   0  0  0  0  0  0  0  0  0  0  0  0
    7.3060   70.3524    4.0340 C   0  0  0  0  0  0  0  0  0  0  0  0
    7.9259   71.4274    3.4826 F   0  0  0  0  0  0  0  0  0  0  0  0
    8.2119   69.7744    4.8661 F   0  0  0  0  0  0  0  0  0  0  0  0
  6  7  2  0
  7  8  1  0
  8 10  1  0
 10 11  2  0
 11 12  1  0
 12 13  2  0
 13 14  1  0
 13 15  1  0
 15 16  2  0
  1  7  1  0
  1  2  1  0
  2  3  1  0
  3 36  1  0
 36 37  1  0
 37 38  1  0
 37 39  1  0
  3  4  1  0
  4  5  1  0
  5 17  1  0
 17 18  2  0
 17 19  1  0
 19 21  1  0
 21 22  2  0
 22 23  1  0
 23 24  2  0
 24 28  1  0
 28 29  1  0
 29 30  2  0
 30 31  1  0
 31 32  1  0
 31 33  2  0
 33 34  1  0
 34 35  2  0
 24 25  1  0
 25 26  2  0
 26 27  1  0
 16 10  1  0
  5  1  1  0
 26 21  1  0
 34 28  1  0
  8  9  1  0
 19 20  1  0
M  END
> <minimizedAffinity>
-7.90208

> <CNNscore>
0.2655029893

> <CNNaffinity>
7.2022757530

> <CNN_VS>
1.9122257233

> <CNNaffinity_variance>
0.0953927711

$$$$
