


 17 18  0  0  0  0  0  0  0  0999 V2000
   23.4141    8.2691   -6.0332 C   0  0  0  0  0  0  0  0  0  0  0  0
   24.2303    8.3774   -4.9001 C   0  0  0  0  0  0  0  0  0  0  0  0
   23.7106    8.7301   -3.6452 C   0  0  0  0  0  0  0  0  0  0  0  0
   22.3320    8.9809   -3.5387 C   0  0  0  0  0  0  0  0  0  0  0  0
   21.4366    9.3603   -2.4895 C   0  0  0  0  0  0  0  0  0  0  0  0
   20.1862    9.4249   -3.0733 C   0  0  0  0  0  0  0  0  0  0  0  0
   20.2528    9.1353   -4.3958 O   0  0  0  0  0  0  0  0  0  0  0  0
   21.5535    8.8614   -4.6838 C   0  0  0  0  0  0  0  0  0  0  0  0
   22.0411    8.5125   -5.9434 C   0  0  0  0  0  0  0  0  0  0  0  0
   23.3028    7.4406   -8.2632 C   0  0  0  0  0  0  0  0  0  0  0  0
   24.0856    7.9176   -7.1741 O   0  0  0  0  0  0  0  0  0  0  0  0
   21.7755    9.6368   -1.0631 C   0  0  0  0  0  0  0  0  0  0  0  0
   20.6028    9.2823   -0.1364 C   0  0  0  0  0  0  0  0  0  0  0  0
   19.8095   10.5005    0.3892 N   0  0  0  0  0  0  0  0  0  0  0  0
   18.4687   10.6433   -0.3209 C   0  0  0  0  0  0  0  0  0  0  0  0
   19.5383   10.2669    1.8808 C   0  0  0  0  0  0  0  0  0  0  0  0
   20.6074   11.7912    0.2480 C   0  0  0  0  0  0  0  0  0  0  0  0
 10 11  1  0
 11  1  1  0
  1  2  2  0
  2  3  1  0
  3  4  2  0
  4  5  1  0
  5 12  1  0
 12 13  1  0
 13 14  1  0
 14 15  1  0
 14 16  1  0
 14 17  1  0
  5  6  2  0
  6  7  1  0
  7  8  1  0
  8  9  2  0
  9  1  1  0
  8  4  1  0
M  CHG 1  14   1
M  END
> <minimizedAffinity>
26.05342

> <CNNscore>
0.8541024923

> <CNNaffinity>
4.1522374153

> <CNN_VS>
3.5464363098

> <CNNaffinity_variance>
0.0477505960

$$$$



 17 18  0  0  0  0  0  0  0  0999 V2000
   22.8784    8.9284   -4.4478 C   0  0  0  0  0  0  0  0  0  0  0  0
   23.8463    9.8614   -4.0547 C   0  0  0  0  0  0  0  0  0  0  0  0
   24.3801    9.8715   -2.7570 C   0  0  0  0  0  0  0  0  0  0  0  0
   23.9191    8.9145   -1.8369 C   0  0  0  0  0  0  0  0  0  0  0  0
   24.1852    8.5967   -0.4676 C   0  0  0  0  0  0  0  0  0  0  0  0
   23.3825    7.5110   -0.1754 C   0  0  0  0  0  0  0  0  0  0  0  0
   22.6360    7.1565   -1.2498 O   0  0  0  0  0  0  0  0  0  0  0  0
   22.9601    8.0035   -2.2634 C   0  0  0  0  0  0  0  0  0  0  0  0
   22.4118    7.9688   -3.5456 C   0  0  0  0  0  0  0  0  0  0  0  0
   22.7634    7.9890   -6.6332 C   0  0  0  0  0  0  0  0  0  0  0  0
   22.4674    9.0633   -5.7474 O   0  0  0  0  0  0  0  0  0  0  0  0
   25.1257    9.2917    0.4589 C   0  0  0  0  0  0  0  0  0  0  0  0
   24.9743    8.7699    1.8958 C   0  0  0  0  0  0  0  0  0  0  0  0
   26.1541    7.9023    2.3908 N   0  0  0  0  0  0  0  0  0  0  0  0
   26.1667    7.7901    3.9105 C   0  0  0  0  0  0  0  0  0  0  0  0
   25.9690    6.4951    1.8089 C   0  0  0  0  0  0  0  0  0  0  0  0
   27.4918    8.4457    1.9031 C   0  0  0  0  0  0  0  0  0  0  0  0
 10 11  1  0
 11  1  1  0
  1  2  2  0
  2  3  1  0
  3  4  2  0
  4  5  1  0
  5 12  1  0
 12 13  1  0
 13 14  1  0
 14 15  1  0
 14 16  1  0
 14 17  1  0
  5  6  2  0
  6  7  1  0
  7  8  1  0
  8  9  2  0
  9  1  1  0
  8  4  1  0
M  CHG 1  14   1
M  END
> <minimizedAffinity>
2.14061

> <CNNscore>
0.7084674239

> <CNNaffinity>
3.8674037457

> <CNN_VS>
2.7399296761

> <CNNaffinity_variance>
0.2258367091

$$$$



 17 18  0  0  0  0  0  0  0  0999 V2000
   20.5571   22.2368    0.0222 C   0  0  0  0  0  0  0  0  0  0  0  0
   20.9233   23.0559   -1.0533 C   0  0  0  0  0  0  0  0  0  0  0  0
   20.3992   22.8645   -2.3409 C   0  0  0  0  0  0  0  0  0  0  0  0
   19.4848   21.8164   -2.5417 C   0  0  0  0  0  0  0  0  0  0  0  0
   18.7510   21.2943   -3.6534 C   0  0  0  0  0  0  0  0  0  0  0  0
   18.0113   20.2422   -3.1491 C   0  0  0  0  0  0  0  0  0  0  0  0
   18.2515   20.0703   -1.8262 O   0  0  0  0  0  0  0  0  0  0  0  0
   19.1434   21.0260   -1.4507 C   0  0  0  0  0  0  0  0  0  0  0  0
   19.6470   21.1923   -0.1604 C   0  0  0  0  0  0  0  0  0  0  0  0
   22.5614   22.3084    1.3064 C   0  0  0  0  0  0  0  0  0  0  0  0
   21.1645   22.5634    1.2056 O   0  0  0  0  0  0  0  0  0  0  0  0
   18.7790   21.7752   -5.0654 C   0  0  0  0  0  0  0  0  0  0  0  0
   17.3568   21.9561   -5.6171 C   0  0  0  0  0  0  0  0  0  0  0  0
   17.2350   21.7774   -7.1478 N   0  0  0  0  0  0  0  0  0  0  0  0
   15.7816   21.6218   -7.5787 C   0  0  0  0  0  0  0  0  0  0  0  0
   17.7964   23.0435   -7.8071 C   0  0  0  0  0  0  0  0  0  0  0  0
   18.0485   20.5858   -7.6386 C   0  0  0  0  0  0  0  0  0  0  0  0
 10 11  1  0
 11  1  1  0
  1  2  2  0
  2  3  1  0
  3  4  2  0
  4  5  1  0
  5 12  1  0
 12 13  1  0
 13 14  1  0
 14 15  1  0
 14 16  1  0
 14 17  1  0
  5  6  2  0
  6  7  1  0
  7  8  1  0
  8  9  2  0
  9  1  1  0
  8  4  1  0
M  CHG 1  14   1
M  END
> <minimizedAffinity>
5.92414

> <CNNscore>
0.5945360661

> <CNNaffinity>
3.3267161846

> <CNN_VS>
1.9778527021

> <CNNaffinity_variance>
0.1930496246

$$$$



 17 18  0  0  0  0  0  0  0  0999 V2000
   13.3213    9.7507   -3.9047 C   0  0  0  0  0  0  0  0  0  0  0  0
   12.5345    9.8574   -2.7508 C   0  0  0  0  0  0  0  0  0  0  0  0
   13.1023   10.0702   -1.4854 C   0  0  0  0  0  0  0  0  0  0  0  0
   14.5004   10.1747   -1.3887 C   0  0  0  0  0  0  0  0  0  0  0  0
   15.4433   10.3748   -0.3315 C   0  0  0  0  0  0  0  0  0  0  0  0
   16.6843   10.3891   -0.9383 C   0  0  0  0  0  0  0  0  0  0  0  0
   16.5730   10.1936   -2.2750 O   0  0  0  0  0  0  0  0  0  0  0  0
   15.2482   10.0661   -2.5551 C   0  0  0  0  0  0  0  0  0  0  0  0
   14.7125    9.8551   -3.8257 C   0  0  0  0  0  0  0  0  0  0  0  0
   11.1882    9.4691   -4.9256 C   0  0  0  0  0  0  0  0  0  0  0  0
   12.6042    9.5425   -5.0529 O   0  0  0  0  0  0  0  0  0  0  0  0
   15.1551   10.5296    1.1241 C   0  0  0  0  0  0  0  0  0  0  0  0
   13.6676   10.2895    1.4228 C   0  0  0  0  0  0  0  0  0  0  0  0
   13.3896    9.1271    2.4033 N   0  0  0  0  0  0  0  0  0  0  0  0
   11.9168    9.0608    2.7889 C   0  0  0  0  0  0  0  0  0  0  0  0
   13.7559    7.8209    1.6873 C   0  0  0  0  0  0  0  0  0  0  0  0
   14.2466    9.2369    3.6588 C   0  0  0  0  0  0  0  0  0  0  0  0
 10 11  1  0
 11  1  1  0
  1  2  2  0
  2  3  1  0
  3  4  2  0
  4  5  1  0
  5 12  1  0
 12 13  1  0
 13 14  1  0
 14 15  1  0
 14 16  1  0
 14 17  1  0
  5  6  2  0
  6  7  1  0
  7  8  1  0
  8  9  2  0
  9  1  1  0
  8  4  1  0
M  CHG 1  14   1
M  END
> <minimizedAffinity>
-6.70000

> <CNNscore>
0.5614479184

> <CNNaffinity>
4.1713585854

> <CNN_VS>
2.3420004845

> <CNNaffinity_variance>
0.6182997823

$$$$



 17 18  0  0  0  0  0  0  0  0999 V2000
   13.4042    9.7636   -3.8551 C   0  0  0  0  0  0  0  0  0  0  0  0
   12.5693    9.8613   -2.7348 C   0  0  0  0  0  0  0  0  0  0  0  0
   13.0825   10.0721   -1.4459 C   0  0  0  0  0  0  0  0  0  0  0  0
   14.4747   10.1838   -1.2904 C   0  0  0  0  0  0  0  0  0  0  0  0
   15.3714   10.3849   -0.1940 C   0  0  0  0  0  0  0  0  0  0  0  0
   16.6366   10.4083   -0.7483 C   0  0  0  0  0  0  0  0  0  0  0  0
   16.5824   10.2177   -2.0891 O   0  0  0  0  0  0  0  0  0  0  0  0
   15.2712   10.0840   -2.4249 C   0  0  0  0  0  0  0  0  0  0  0  0
   14.7903    9.8752   -3.7176 C   0  0  0  0  0  0  0  0  0  0  0  0
   11.3169    9.4814   -4.9664 C   0  0  0  0  0  0  0  0  0  0  0  0
   12.7369    9.5560   -5.0331 O   0  0  0  0  0  0  0  0  0  0  0  0
   15.0218   10.5322    1.2489 C   0  0  0  0  0  0  0  0  0  0  0  0
   16.2790   10.4907    2.1305 C   0  0  0  0  0  0  0  0  0  0  0  0
   16.1112   11.1499    3.5187 N   0  0  0  0  0  0  0  0  0  0  0  0
   16.6746   12.5657    3.5372 C   0  0  0  0  0  0  0  0  0  0  0  0
   14.6081   11.2293    3.8140 C   0  0  0  0  0  0  0  0  0  0  0  0
   16.7675   10.3198    4.6155 C   0  0  0  0  0  0  0  0  0  0  0  0
 10 11  1  0
 11  1  1  0
  1  2  2  0
  2  3  1  0
  3  4  2  0
  4  5  1  0
  5 12  1  0
 12 13  1  0
 13 14  1  0
 14 15  1  0
 14 16  1  0
 14 17  1  0
  5  6  2  0
  6  7  1  0
  7  8  1  0
  8  9  2  0
  9  1  1  0
  8  4  1  0
M  CHG 1  14   1
M  END
> <minimizedAffinity>
-6.75607

> <CNNscore>
0.4824565649

> <CNNaffinity>
4.1131782532

> <CNN_VS>
1.9844298363

> <CNNaffinity_variance>
0.3952896297

$$$$



 17 18  0  0  0  0  0  0  0  0999 V2000
   20.9246   18.4885   -5.8083 C   0  0  0  0  0  0  0  0  0  0  0  0
   22.1185   19.2160   -5.7238 C   0  0  0  0  0  0  0  0  0  0  0  0
   23.1949   18.9743   -6.5911 C   0  0  0  0  0  0  0  0  0  0  0  0
   23.0571   17.9701   -7.5644 C   0  0  0  0  0  0  0  0  0  0  0  0
   23.8822   17.4221   -8.5967 C   0  0  0  0  0  0  0  0  0  0  0  0
   23.1159   16.4480   -9.2070 C   0  0  0  0  0  0  0  0  0  0  0  0
   21.9003   16.3462   -8.6163 O   0  0  0  0  0  0  0  0  0  0  0  0
   21.8573   17.2708   -7.6197 C   0  0  0  0  0  0  0  0  0  0  0  0
   20.7708   17.4886   -6.7723 C   0  0  0  0  0  0  0  0  0  0  0  0
   19.8061   17.9916   -3.7654 C   0  0  0  0  0  0  0  0  0  0  0  0
   19.9812   18.8534   -4.8848 O   0  0  0  0  0  0  0  0  0  0  0  0
   25.2803   17.8109   -8.9430 C   0  0  0  0  0  0  0  0  0  0  0  0
   25.3261   19.2118   -9.5717 C   0  0  0  0  0  0  0  0  0  0  0  0
   26.3618   20.1669   -8.9356 N   0  0  0  0  0  0  0  0  0  0  0  0
   25.8016   21.5754   -8.7793 C   0  0  0  0  0  0  0  0  0  0  0  0
   26.6927   19.6260   -7.5388 C   0  0  0  0  0  0  0  0  0  0  0  0
   27.6523   20.2125   -9.7451 C   0  0  0  0  0  0  0  0  0  0  0  0
 10 11  1  0
 11  1  1  0
  1  2  2  0
  2  3  1  0
  3  4  2  0
  4  5  1  0
  5 12  1  0
 12 13  1  0
 13 14  1  0
 14 15  1  0
 14 16  1  0
 14 17  1  0
  5  6  2  0
  6  7  1  0
  7  8  1  0
  8  9  2  0
  9  1  1  0
  8  4  1  0
M  CHG 1  14   1
M  END
> <minimizedAffinity>
-4.65378

> <CNNscore>
0.4316188693

> <CNNaffinity>
3.3121750355

> <CNN_VS>
1.4295972586

> <CNNaffinity_variance>
0.5039420724

$$$$



 17 18  0  0  0  0  0  0  0  0999 V2000
   13.3226    9.7715   -3.8772 C   0  0  0  0  0  0  0  0  0  0  0  0
   14.7227    9.7830   -3.9148 C   0  0  0  0  0  0  0  0  0  0  0  0
   15.4923    9.9636   -2.7554 C   0  0  0  0  0  0  0  0  0  0  0  0
   14.8257   10.1387   -1.5308 C   0  0  0  0  0  0  0  0  0  0  0  0
   15.2170   10.3531   -0.1715 C   0  0  0  0  0  0  0  0  0  0  0  0
   14.0392   10.4298    0.5465 C   0  0  0  0  0  0  0  0  0  0  0  0
   12.9645   10.2997   -0.2691 O   0  0  0  0  0  0  0  0  0  0  0  0
   13.4360   10.1191   -1.5320 C   0  0  0  0  0  0  0  0  0  0  0  0
   12.6449    9.9415   -2.6671 C   0  0  0  0  0  0  0  0  0  0  0  0
   11.3093    9.5573   -5.1312 C   0  0  0  0  0  0  0  0  0  0  0  0
   12.7322    9.5855   -5.0991 O   0  0  0  0  0  0  0  0  0  0  0  0
   16.6037   10.4762    0.3649 C   0  0  0  0  0  0  0  0  0  0  0  0
   16.6239   10.3092    1.8918 C   0  0  0  0  0  0  0  0  0  0  0  0
   17.5551   11.2959    2.6327 N   0  0  0  0  0  0  0  0  0  0  0  0
   18.6845   10.5669    3.3507 C   0  0  0  0  0  0  0  0  0  0  0  0
   18.1769   12.2232    1.5809 C   0  0  0  0  0  0  0  0  0  0  0  0
   16.7828   12.1554    3.6265 C   0  0  0  0  0  0  0  0  0  0  0  0
 10 11  1  0
 11  1  1  0
  1  2  2  0
  2  3  1  0
  3  4  2  0
  4  5  1  0
  5 12  1  0
 12 13  1  0
 13 14  1  0
 14 15  1  0
 14 16  1  0
 14 17  1  0
  5  6  2  0
  6  7  1  0
  7  8  1  0
  8  9  2  0
  9  1  1  0
  8  4  1  0
M  CHG 1  14   1
M  END
> <minimizedAffinity>
-6.65999

> <CNNscore>
0.4307813644

> <CNNaffinity>
4.1069302559

> <CNN_VS>
1.7691890001

> <CNNaffinity_variance>
0.3818659782

$$$$



 17 18  0  0  0  0  0  0  0  0999 V2000
   20.1597   18.5777   -4.2314 C   0  0  0  0  0  0  0  0  0  0  0  0
   21.2854   19.4029   -4.1153 C   0  0  0  0  0  0  0  0  0  0  0  0
   22.2969   19.4154   -5.0878 C   0  0  0  0  0  0  0  0  0  0  0  0
   22.1639   18.5694   -6.2020 C   0  0  0  0  0  0  0  0  0  0  0  0
   22.9391   18.2811   -7.3693 C   0  0  0  0  0  0  0  0  0  0  0  0
   22.2126   17.3417   -8.0752 C   0  0  0  0  0  0  0  0  0  0  0  0
   21.0692   17.0214   -7.4215 O   0  0  0  0  0  0  0  0  0  0  0  0
   21.0324   17.7666   -6.2843 C   0  0  0  0  0  0  0  0  0  0  0  0
   20.0112   17.7329   -5.3345 C   0  0  0  0  0  0  0  0  0  0  0  0
   18.5834   19.9294   -3.0653 C   0  0  0  0  0  0  0  0  0  0  0  0
   19.2739   18.6911   -3.1928 O   0  0  0  0  0  0  0  0  0  0  0  0
   24.2593   18.8634   -7.7483 C   0  0  0  0  0  0  0  0  0  0  0  0
   24.8215   18.1880   -9.0083 C   0  0  0  0  0  0  0  0  0  0  0  0
   25.6085   19.1323   -9.9455 N   0  0  0  0  0  0  0  0  0  0  0  0
   27.1073   18.8646   -9.8792 C   0  0  0  0  0  0  0  0  0  0  0  0
   25.1368   18.8590  -11.3793 C   0  0  0  0  0  0  0  0  0  0  0  0
   25.3319   20.5965   -9.6256 C   0  0  0  0  0  0  0  0  0  0  0  0
 10 11  1  0
 11  1  1  0
  1  2  2  0
  2  3  1  0
  3  4  2  0
  4  5  1  0
  5 12  1  0
 12 13  1  0
 13 14  1  0
 14 15  1  0
 14 16  1  0
 14 17  1  0
  5  6  2  0
  6  7  1  0
  7  8  1  0
  8  9  2  0
  9  1  1  0
  8  4  1  0
M  CHG 1  14   1
M  END
> <minimizedAffinity>
-4.86548

> <CNNscore>
0.3394263089

> <CNNaffinity>
3.1679470539

> <CNN_VS>
1.0752846003

> <CNNaffinity_variance>
0.5243358016

$$$$



 17 18  0  0  0  0  0  0  0  0999 V2000
   18.0445   21.6096   -2.8657 C   0  0  0  0  0  0  0  0  0  0  0  0
   17.2159   21.9011   -3.9567 C   0  0  0  0  0  0  0  0  0  0  0  0
   17.2354   21.1281   -5.1277 C   0  0  0  0  0  0  0  0  0  0  0  0
   18.1175   20.0362   -5.1936 C   0  0  0  0  0  0  0  0  0  0  0  0
   18.4440   19.0386   -6.1657 C   0  0  0  0  0  0  0  0  0  0  0  0
   19.4061   18.2435   -5.5734 C   0  0  0  0  0  0  0  0  0  0  0  0
   19.7048   18.6892   -4.3287 O   0  0  0  0  0  0  0  0  0  0  0  0
   18.9226   19.7762   -4.0909 C   0  0  0  0  0  0  0  0  0  0  0  0
   18.9251   20.5258   -2.9144 C   0  0  0  0  0  0  0  0  0  0  0  0
   19.0558   22.7308   -1.0240 C   0  0  0  0  0  0  0  0  0  0  0  0
   17.8969   22.4663   -1.8072 O   0  0  0  0  0  0  0  0  0  0  0  0
   17.8745   18.8865   -7.5362 C   0  0  0  0  0  0  0  0  0  0  0  0
   18.6626   19.7186   -8.5590 C   0  0  0  0  0  0  0  0  0  0  0  0
   17.9629   19.8834   -9.9276 N   0  0  0  0  0  0  0  0  0  0  0  0
   17.2719   21.2368  -10.0430 C   0  0  0  0  0  0  0  0  0  0  0  0
   19.0446   19.8046  -11.0122 C   0  0  0  0  0  0  0  0  0  0  0  0
   16.9558   18.7675  -10.1792 C   0  0  0  0  0  0  0  0  0  0  0  0
 10 11  1  0
 11  1  1  0
  1  2  2  0
  2  3  1  0
  3  4  2  0
  4  5  1  0
  5 12  1  0
 12 13  1  0
 13 14  1  0
 14 15  1  0
 14 16  1  0
 14 17  1  0
  5  6  2  0
  6  7  1  0
  7  8  1  0
  8  9  2  0
  9  1  1  0
  8  4  1  0
M  CHG 1  14   1
M  END
> <minimizedAffinity>
-3.61849

> <CNNscore>
0.2088912874

> <CNNaffinity>
3.3002464771

> <CNN_VS>
0.6893927455

> <CNNaffinity_variance>
0.3770935833

$$$$
