


 22 22  0  0  0  0  0  0  0  0999 V2000
   15.6511    1.5984   16.1871 C   0  0  0  0  0  0  0  0  0  0  0  0
   14.7139    2.5357   15.7439 C   0  0  0  0  0  0  0  0  0  0  0  0
   15.1528    3.6922   15.0924 C   0  0  0  0  0  0  0  0  0  0  0  0
   16.5241    3.9217   14.8895 C   0  0  0  0  0  0  0  0  0  0  0  0
   17.4406    2.9746   15.3570 C   0  0  0  0  0  0  0  0  0  0  0  0
   18.7609    3.1548   15.1988 F   0  0  0  0  0  0  0  0  0  0  0  0
   17.0172    1.8161   16.0058 C   0  0  0  0  0  0  0  0  0  0  0  0
   15.6271   -1.0750   16.0042 N   0  0  0  0  0  0  0  0  0  0  0  0
   15.0922    0.1431   17.0318 S   0  0  0  0  0  0  0  0  0  0  0  0
   13.6500    0.1442   17.0201 O   0  0  0  0  0  0  0  0  0  0  0  0
   15.8646   -0.0001   18.2436 O   0  0  0  0  0  0  0  0  0  0  0  0
   15.3622   -1.9829   16.3862 H   0  0  0  0  0  0  0  0  0  0  0  0
   16.6422   -1.0256   15.9178 H   0  0  0  0  0  0  0  0  0  0  0  0
   16.9330    5.1690   14.1841 C   0  0  0  0  0  0  0  0  0  0  0  0
   16.2504    5.6023   13.2617 O   0  0  0  0  0  0  0  0  0  0  0  0
   18.0825    5.7977   14.6042 N   0  0  0  0  0  0  0  0  0  0  0  0
   18.6438    5.3728   15.2924 H   0  0  0  0  0  0  0  0  0  0  0  0
   18.4836    7.0898   14.0427 C   0  0  0  0  0  0  0  0  0  0  0  0
   19.1918    8.0197   15.0234 C   0  0  0  0  0  0  0  0  0  0  0  0
   20.5358    7.9046   14.9089 F   0  0  0  0  0  0  0  0  0  0  0  0
   18.8622    7.7269   16.3001 F   0  0  0  0  0  0  0  0  0  0  0  0
   18.8724    9.3136   14.7998 F   0  0  0  0  0  0  0  0  0  0  0  0
  8  9  1  0
  9 10  2  0
  9 11  2  0
  9  1  1  0
  1  2  2  0
  2  3  1  0
  3  4  2  0
  4 14  1  0
 14 15  2  0
 14 16  1  0
 16 18  1  0
 18 19  1  0
 19 20  1  0
 19 21  1  0
 19 22  1  0
  4  5  1  0
  5  6  1  0
  5  7  2  0
  7  1  1  0
  8 12  1  0
  8 13  1  0
 16 17  1  0
M  END
> <minimizedAffinity>
-8.16272

> <CNNscore>
0.9780344963

> <CNNaffinity>
7.5484218597

> <CNN_VS>
7.3826169968

> <CNNaffinity_variance>
1.1711037159

$$$$



 22 22  0  0  0  0  0  0  0  0999 V2000
   15.5742    1.5655   16.2064 C   0  0  0  0  0  0  0  0  0  0  0  0
   14.5979    2.4592   15.7576 C   0  0  0  0  0  0  0  0  0  0  0  0
   14.9870    3.6267   15.0940 C   0  0  0  0  0  0  0  0  0  0  0  0
   16.3471    3.9105   14.8846 C   0  0  0  0  0  0  0  0  0  0  0  0
   17.3032    3.0064   15.3580 C   0  0  0  0  0  0  0  0  0  0  0  0
   18.6145    3.2392   15.1938 F   0  0  0  0  0  0  0  0  0  0  0  0
   16.9297    1.8376   16.0187 C   0  0  0  0  0  0  0  0  0  0  0  0
   15.6340   -1.1080   16.0337 N   0  0  0  0  0  0  0  0  0  0  0  0
   15.0781    0.0964   17.0663 S   0  0  0  0  0  0  0  0  0  0  0  0
   13.6367    0.0506   17.0805 O   0  0  0  0  0  0  0  0  0  0  0  0
   15.8763   -0.0165   18.2645 O   0  0  0  0  0  0  0  0  0  0  0  0
   15.4056   -2.0224   16.4237 H   0  0  0  0  0  0  0  0  0  0  0  0
   16.6452   -1.0260   15.9289 H   0  0  0  0  0  0  0  0  0  0  0  0
   16.7024    5.1669   14.1665 C   0  0  0  0  0  0  0  0  0  0  0  0
   17.3897    6.0167   14.7235 O   0  0  0  0  0  0  0  0  0  0  0  0
   16.2366    5.3269   12.8818 N   0  0  0  0  0  0  0  0  0  0  0  0
   15.6211    4.6587   12.5024 H   0  0  0  0  0  0  0  0  0  0  0  0
   16.6429    6.4765   12.0700 C   0  0  0  0  0  0  0  0  0  0  0  0
   15.5363    7.0678   11.2018 C   0  0  0  0  0  0  0  0  0  0  0  0
   15.7754    8.3749   10.9434 F   0  0  0  0  0  0  0  0  0  0  0  0
   14.3358    6.9837   11.8151 F   0  0  0  0  0  0  0  0  0  0  0  0
   15.4406    6.4280   10.0153 F   0  0  0  0  0  0  0  0  0  0  0  0
  8  9  1  0
  9 10  2  0
  9 11  2  0
  9  1  1  0
  1  2  2  0
  2  3  1  0
  3  4  2  0
  4 14  1  0
 14 15  2  0
 14 16  1  0
 16 18  1  0
 18 19  1  0
 19 20  1  0
 19 21  1  0
 19 22  1  0
  4  5  1  0
  5  6  1  0
  5  7  2  0
  7  1  1  0
  8 12  1  0
  8 13  1  0
 16 17  1  0
M  END
> <minimizedAffinity>
-7.97580

> <CNNscore>
0.9141312838

> <CNNaffinity>
7.3651862144

> <CNN_VS>
6.7327470779

> <CNNaffinity_variance>
1.1654628515

$$$$



 22 22  0  0  0  0  0  0  0  0999 V2000
   15.4366    1.4585   16.0179 C   0  0  0  0  0  0  0  0  0  0  0  0
   14.8376    2.6982   16.2575 C   0  0  0  0  0  0  0  0  0  0  0  0
   15.1823    3.7942   15.4609 C   0  0  0  0  0  0  0  0  0  0  0  0
   16.1295    3.6601   14.4317 C   0  0  0  0  0  0  0  0  0  0  0  0
   16.7246    2.4118   14.2242 C   0  0  0  0  0  0  0  0  0  0  0  0
   17.6439    2.2365   13.2625 F   0  0  0  0  0  0  0  0  0  0  0  0
   16.3887    1.3102   15.0089 C   0  0  0  0  0  0  0  0  0  0  0  0
   15.5075   -1.2193   16.0931 N   0  0  0  0  0  0  0  0  0  0  0  0
   15.0129    0.0758   17.0438 S   0  0  0  0  0  0  0  0  0  0  0  0
   13.5762    0.0284   17.1612 O   0  0  0  0  0  0  0  0  0  0  0  0
   15.8918    0.0779   18.1898 O   0  0  0  0  0  0  0  0  0  0  0  0
   15.3141   -2.0934   16.5819 H   0  0  0  0  0  0  0  0  0  0  0  0
   16.5085   -1.1454   15.9119 H   0  0  0  0  0  0  0  0  0  0  0  0
   16.4535    4.8611   13.6113 C   0  0  0  0  0  0  0  0  0  0  0  0
   15.6525    5.2649   12.7745 O   0  0  0  0  0  0  0  0  0  0  0  0
   17.6617    5.4820   13.8295 N   0  0  0  0  0  0  0  0  0  0  0  0
   18.3091    5.0781   14.4516 H   0  0  0  0  0  0  0  0  0  0  0  0
   17.9992    6.7350   13.1500 C   0  0  0  0  0  0  0  0  0  0  0  0
   18.7872    6.5664   11.8544 C   0  0  0  0  0  0  0  0  0  0  0  0
   19.4752    5.4005   11.8592 F   0  0  0  0  0  0  0  0  0  0  0  0
   19.6783    7.5680   11.6899 F   0  0  0  0  0  0  0  0  0  0  0  0
   17.9730    6.5554   10.7759 F   0  0  0  0  0  0  0  0  0  0  0  0
  8  9  1  0
  9 10  2  0
  9 11  2  0
  9  1  1  0
  1  2  2  0
  2  3  1  0
  3  4  2  0
  4 14  1  0
 14 15  2  0
 14 16  1  0
 16 18  1  0
 18 19  1  0
 19 20  1  0
 19 21  1  0
 19 22  1  0
  4  5  1  0
  5  6  1  0
  5  7  2  0
  7  1  1  0
  8 12  1  0
  8 13  1  0
 16 17  1  0
M  END
> <minimizedAffinity>
-7.10197

> <CNNscore>
0.8679012656

> <CNNaffinity>
7.1896986961

> <CNN_VS>
6.2399487495

> <CNNaffinity_variance>
0.8546452522

$$$$



 22 22  0  0  0  0  0  0  0  0999 V2000
   15.6301    1.5794   16.2394 C   0  0  0  0  0  0  0  0  0  0  0  0
   14.6859    2.5349   15.8537 C   0  0  0  0  0  0  0  0  0  0  0  0
   15.1132    3.7140   15.2360 C   0  0  0  0  0  0  0  0  0  0  0  0
   16.4801    3.9477   15.0097 C   0  0  0  0  0  0  0  0  0  0  0  0
   17.4043    2.9815   15.4197 C   0  0  0  0  0  0  0  0  0  0  0  0
   18.7211    3.1644   15.2374 F   0  0  0  0  0  0  0  0  0  0  0  0
   16.9924    1.8005   16.0343 C   0  0  0  0  0  0  0  0  0  0  0  0
   15.6411   -1.0881   15.9840 N   0  0  0  0  0  0  0  0  0  0  0  0
   15.0863    0.0947   17.0418 S   0  0  0  0  0  0  0  0  0  0  0  0
   13.6443    0.0778   17.0237 O   0  0  0  0  0  0  0  0  0  0  0  0
   15.8555   -0.0715   18.2527 O   0  0  0  0  0  0  0  0  0  0  0  0
   15.3862   -2.0094   16.3401 H   0  0  0  0  0  0  0  0  0  0  0  0
   16.6558   -1.0235   15.9036 H   0  0  0  0  0  0  0  0  0  0  0  0
   16.8766    5.2196   14.3422 C   0  0  0  0  0  0  0  0  0  0  0  0
   17.4015    6.1157   14.9952 O   0  0  0  0  0  0  0  0  0  0  0  0
   16.6339    5.3406   12.9933 N   0  0  0  0  0  0  0  0  0  0  0  0
   16.1372    4.6316   12.5245 H   0  0  0  0  0  0  0  0  0  0  0  0
   17.1035    6.5087   12.2445 C   0  0  0  0  0  0  0  0  0  0  0  0
   18.5146    6.3791   11.6788 C   0  0  0  0  0  0  0  0  0  0  0  0
   18.8458    5.0777   11.5079 F   0  0  0  0  0  0  0  0  0  0  0  0
   19.4269    6.9290   12.5093 F   0  0  0  0  0  0  0  0  0  0  0  0
   18.6265    6.9898   10.4785 F   0  0  0  0  0  0  0  0  0  0  0  0
  8  9  1  0
  9 10  2  0
  9 11  2  0
  9  1  1  0
  1  2  2  0
  2  3  1  0
  3  4  2  0
  4 14  1  0
 14 15  2  0
 14 16  1  0
 16 18  1  0
 18 19  1  0
 19 20  1  0
 19 21  1  0
 19 22  1  0
  4  5  1  0
  5  6  1  0
  5  7  2  0
  7  1  1  0
  8 12  1  0
  8 13  1  0
 16 17  1  0
M  END
> <minimizedAffinity>
-7.39608

> <CNNscore>
0.8668876886

> <CNNaffinity>
6.9943299294

> <CNN_VS>
6.0632987022

> <CNNaffinity_variance>
0.7094761729

$$$$



 22 22  0  0  0  0  0  0  0  0999 V2000
   15.4925    1.9992   16.1338 C   0  0  0  0  0  0  0  0  0  0  0  0
   14.7553    3.1841   16.2102 C   0  0  0  0  0  0  0  0  0  0  0  0
   15.0583    4.2397   15.3451 C   0  0  0  0  0  0  0  0  0  0  0  0
   16.1003    4.1211   14.4100 C   0  0  0  0  0  0  0  0  0  0  0  0
   16.8317    2.9300   14.3660 C   0  0  0  0  0  0  0  0  0  0  0  0
   17.8443    2.7733   13.4995 F   0  0  0  0  0  0  0  0  0  0  0  0
   16.5391    1.8687   15.2204 C   0  0  0  0  0  0  0  0  0  0  0  0
   14.9762    1.4818   18.7120 N   0  0  0  0  0  0  0  0  0  0  0  0
   15.1194    0.6703   17.2468 S   0  0  0  0  0  0  0  0  0  0  0  0
   16.2733   -0.1920   17.3180 O   0  0  0  0  0  0  0  0  0  0  0  0
   13.7957    0.1820   16.9390 O   0  0  0  0  0  0  0  0  0  0  0  0
   14.7576    0.8135   19.4509 H   0  0  0  0  0  0  0  0  0  0  0  0
   14.2287    2.1727   18.6463 H   0  0  0  0  0  0  0  0  0  0  0  0
   16.3744    5.2767   13.5100 C   0  0  0  0  0  0  0  0  0  0  0  0
   17.4163    5.9128   13.6308 O   0  0  0  0  0  0  0  0  0  0  0  0
   15.4297    5.5900   12.5602 N   0  0  0  0  0  0  0  0  0  0  0  0
   14.5723    5.1062   12.5509 H   0  0  0  0  0  0  0  0  0  0  0  0
   15.6804    6.6329   11.5625 C   0  0  0  0  0  0  0  0  0  0  0  0
   14.4393    7.3988   11.1142 C   0  0  0  0  0  0  0  0  0  0  0  0
   14.7022    8.7231   11.0148 F   0  0  0  0  0  0  0  0  0  0  0  0
   13.4260    7.2466   11.9942 F   0  0  0  0  0  0  0  0  0  0  0  0
   14.0050    6.9772    9.9059 F   0  0  0  0  0  0  0  0  0  0  0  0
  8  9  1  0
  9 10  2  0
  9 11  2  0
  9  1  1  0
  1  2  2  0
  2  3  1  0
  3  4  2  0
  4 14  1  0
 14 15  2  0
 14 16  1  0
 16 18  1  0
 18 19  1  0
 19 20  1  0
 19 21  1  0
 19 22  1  0
  4  5  1  0
  5  6  1  0
  5  7  2  0
  7  1  1  0
  8 12  1  0
  8 13  1  0
 16 17  1  0
M  END
> <minimizedAffinity>
-7.33296

> <CNNscore>
0.8325456381

> <CNNaffinity>
6.8961148262

> <CNN_VS>
5.7413301468

> <CNNaffinity_variance>
1.0925397873

$$$$



 22 22  0  0  0  0  0  0  0  0999 V2000
   15.3401    1.8970   16.1219 C   0  0  0  0  0  0  0  0  0  0  0  0
   16.2450    1.3819   15.1896 C   0  0  0  0  0  0  0  0  0  0  0  0
   16.6782    2.1887   14.1332 C   0  0  0  0  0  0  0  0  0  0  0  0
   16.2049    3.5047   13.9981 C   0  0  0  0  0  0  0  0  0  0  0  0
   15.2881    3.9891   14.9364 C   0  0  0  0  0  0  0  0  0  0  0  0
   14.7972    5.2345   14.8428 F   0  0  0  0  0  0  0  0  0  0  0  0
   14.8496    3.1970   15.9958 C   0  0  0  0  0  0  0  0  0  0  0  0
   15.9749   -0.3139   17.4969 N   0  0  0  0  0  0  0  0  0  0  0  0
   14.7765    0.8640   17.4483 S   0  0  0  0  0  0  0  0  0  0  0  0
   13.5438    0.2387   17.0366 O   0  0  0  0  0  0  0  0  0  0  0  0
   14.9046    1.6037   18.6820 O   0  0  0  0  0  0  0  0  0  0  0  0
   15.7628   -0.9844   18.2357 H   0  0  0  0  0  0  0  0  0  0  0  0
   16.8760    0.1255   17.6849 H   0  0  0  0  0  0  0  0  0  0  0  0
   16.7057    4.3200   12.8557 C   0  0  0  0  0  0  0  0  0  0  0  0
   15.9302    5.0309   12.2248 O   0  0  0  0  0  0  0  0  0  0  0  0
   18.0444    4.2417   12.5481 N   0  0  0  0  0  0  0  0  0  0  0  0
   18.6151    3.5978   13.0265 H   0  0  0  0  0  0  0  0  0  0  0  0
   18.6334    5.1024   11.5194 C   0  0  0  0  0  0  0  0  0  0  0  0
   18.5397    4.5545   10.0986 C   0  0  0  0  0  0  0  0  0  0  0  0
   17.6639    5.2776    9.3619 F   0  0  0  0  0  0  0  0  0  0  0  0
   18.1170    3.2716   10.0958 F   0  0  0  0  0  0  0  0  0  0  0  0
   19.7351    4.5977    9.4698 F   0  0  0  0  0  0  0  0  0  0  0  0
  8  9  1  0
  9 10  2  0
  9 11  2  0
  9  1  1  0
  1  2  2  0
  2  3  1  0
  3  4  2  0
  4 14  1  0
 14 15  2  0
 14 16  1  0
 16 18  1  0
 18 19  1  0
 19 20  1  0
 19 21  1  0
 19 22  1  0
  4  5  1  0
  5  6  1  0
  5  7  2  0
  7  1  1  0
  8 12  1  0
  8 13  1  0
 16 17  1  0
M  END
> <minimizedAffinity>
-6.53227

> <CNNscore>
0.8214386106

> <CNNaffinity>
6.9224267006

> <CNN_VS>
5.6863484383

> <CNNaffinity_variance>
0.8951305747

$$$$



 22 22  0  0  0  0  0  0  0  0999 V2000
   16.4952    1.8392   14.7859 C   0  0  0  0  0  0  0  0  0  0  0  0
   16.0429    3.0158   15.3895 C   0  0  0  0  0  0  0  0  0  0  0  0
   16.0756    4.2143   14.6704 C   0  0  0  0  0  0  0  0  0  0  0  0
   16.5667    4.2452   13.3543 C   0  0  0  0  0  0  0  0  0  0  0  0
   17.0273    3.0560   12.7805 C   0  0  0  0  0  0  0  0  0  0  0  0
   17.5174    3.0366   11.5315 F   0  0  0  0  0  0  0  0  0  0  0  0
   16.9982    1.8536   13.4846 C   0  0  0  0  0  0  0  0  0  0  0  0
   16.5465   -0.8228   14.4821 N   0  0  0  0  0  0  0  0  0  0  0  0
   16.4720    0.3249   15.7081 S   0  0  0  0  0  0  0  0  0  0  0  0
   15.1876    0.2136   16.3547 O   0  0  0  0  0  0  0  0  0  0  0  0
   17.7209    0.2137   16.4246 O   0  0  0  0  0  0  0  0  0  0  0  0
   16.5399   -1.7575   14.8905 H   0  0  0  0  0  0  0  0  0  0  0  0
   17.4043   -0.6922   13.9458 H   0  0  0  0  0  0  0  0  0  0  0  0
   16.5724    5.5500   12.6347 C   0  0  0  0  0  0  0  0  0  0  0  0
   17.3172    6.4509   13.0068 O   0  0  0  0  0  0  0  0  0  0  0  0
   15.7258    5.6952   11.5599 N   0  0  0  0  0  0  0  0  0  0  0  0
   15.0868    4.9776   11.3456 H   0  0  0  0  0  0  0  0  0  0  0  0
   15.7610    6.9017   10.7298 C   0  0  0  0  0  0  0  0  0  0  0  0
   14.4934    7.7492   10.7815 C   0  0  0  0  0  0  0  0  0  0  0  0
   13.7004    7.3649   11.8091 F   0  0  0  0  0  0  0  0  0  0  0  0
   13.7770    7.6279    9.6428 F   0  0  0  0  0  0  0  0  0  0  0  0
   14.7783    9.0589   10.9536 F   0  0  0  0  0  0  0  0  0  0  0  0
  8  9  1  0
  9 10  2  0
  9 11  2  0
  9  1  1  0
  1  2  2  0
  2  3  1  0
  3  4  2  0
  4 14  1  0
 14 15  2  0
 14 16  1  0
 16 18  1  0
 18 19  1  0
 19 20  1  0
 19 21  1  0
 19 22  1  0
  4  5  1  0
  5  6  1  0
  5  7  2  0
  7  1  1  0
  8 12  1  0
  8 13  1  0
 16 17  1  0
M  END
> <minimizedAffinity>
-6.86788

> <CNNscore>
0.7755921483

> <CNNaffinity>
6.3387007713

> <CNN_VS>
4.9162464142

> <CNNaffinity_variance>
0.5787776113

$$$$



 22 22  0  0  0  0  0  0  0  0999 V2000
   15.7641   13.2956   10.7439 C   0  0  0  0  0  0  0  0  0  0  0  0
   14.6489   12.8473   10.0307 C   0  0  0  0  0  0  0  0  0  0  0  0
   14.5879   11.5134    9.6166 C   0  0  0  0  0  0  0  0  0  0  0  0
   15.6397   10.6270    9.9034 C   0  0  0  0  0  0  0  0  0  0  0  0
   16.7505   11.1063   10.6050 C   0  0  0  0  0  0  0  0  0  0  0  0
   17.7858   10.3021   10.8915 F   0  0  0  0  0  0  0  0  0  0  0  0
   16.8236   12.4327   11.0261 C   0  0  0  0  0  0  0  0  0  0  0  0
   17.4070   15.0884   11.8700 N   0  0  0  0  0  0  0  0  0  0  0  0
   15.8478   14.9932   11.2490 S   0  0  0  0  0  0  0  0  0  0  0  0
   14.9163   15.1845   12.3334 O   0  0  0  0  0  0  0  0  0  0  0  0
   15.8480   15.8174   10.0631 O   0  0  0  0  0  0  0  0  0  0  0  0
   17.5836   16.0366   12.2017 H   0  0  0  0  0  0  0  0  0  0  0  0
   18.0789   14.8530   11.1395 H   0  0  0  0  0  0  0  0  0  0  0  0
   15.5174    9.2154    9.4420 C   0  0  0  0  0  0  0  0  0  0  0  0
   16.4543    8.6784    8.8599 O   0  0  0  0  0  0  0  0  0  0  0  0
   14.3354    8.5573    9.6924 N   0  0  0  0  0  0  0  0  0  0  0  0
   13.5806    9.0499   10.0885 H   0  0  0  0  0  0  0  0  0  0  0  0
   14.1833    7.1346    9.3784 C   0  0  0  0  0  0  0  0  0  0  0  0
   13.4423    6.8439    8.0767 C   0  0  0  0  0  0  0  0  0  0  0  0
   12.3991    7.6920    7.9183 F   0  0  0  0  0  0  0  0  0  0  0  0
   12.9534    5.5849    8.0628 F   0  0  0  0  0  0  0  0  0  0  0  0
   14.2504    6.9859    7.0029 F   0  0  0  0  0  0  0  0  0  0  0  0
  8  9  1  0
  9 10  2  0
  9 11  2  0
  9  1  1  0
  1  2  2  0
  2  3  1  0
  3  4  2  0
  4 14  1  0
 14 15  2  0
 14 16  1  0
 16 18  1  0
 18 19  1  0
 19 20  1  0
 19 21  1  0
 19 22  1  0
  4  5  1  0
  5  6  1  0
  5  7  2  0
  7  1  1  0
  8 12  1  0
  8 13  1  0
 16 17  1  0
M  END
> <minimizedAffinity>
-4.60976

> <CNNscore>
0.7694087625

> <CNNaffinity>
4.4215207100

> <CNN_VS>
3.4019567966

> <CNNaffinity_variance>
0.0131241912

$$$$



 22 22  0  0  0  0  0  0  0  0999 V2000
   15.8924   13.3731   10.6383 C   0  0  0  0  0  0  0  0  0  0  0  0
   16.8613   12.4316   10.9962 C   0  0  0  0  0  0  0  0  0  0  0  0
   16.6419   11.0791   10.7185 C   0  0  0  0  0  0  0  0  0  0  0  0
   15.4551   10.6611   10.0931 C   0  0  0  0  0  0  0  0  0  0  0  0
   14.4959   11.6228    9.7600 C   0  0  0  0  0  0  0  0  0  0  0  0
   13.3412   11.2718    9.1734 F   0  0  0  0  0  0  0  0  0  0  0  0
   14.7024   12.9745   10.0286 C   0  0  0  0  0  0  0  0  0  0  0  0
   15.0758   15.3384   12.2668 N   0  0  0  0  0  0  0  0  0  0  0  0
   16.1646   15.0850   11.0113 S   0  0  0  0  0  0  0  0  0  0  0  0
   15.7359   15.8647    9.8762 O   0  0  0  0  0  0  0  0  0  0  0  0
   17.4771   15.2157   11.5994 O   0  0  0  0  0  0  0  0  0  0  0  0
   15.1356   16.3079   12.5782 H   0  0  0  0  0  0  0  0  0  0  0  0
   15.3019   14.7172   13.0435 H   0  0  0  0  0  0  0  0  0  0  0  0
   15.2783    9.2075    9.8168 C   0  0  0  0  0  0  0  0  0  0  0  0
   15.3169    8.4001   10.7395 O   0  0  0  0  0  0  0  0  0  0  0  0
   15.0741    8.8213    8.5121 N   0  0  0  0  0  0  0  0  0  0  0  0
   15.1319    9.4915    7.7933 H   0  0  0  0  0  0  0  0  0  0  0  0
   14.7721    7.4277    8.1767 C   0  0  0  0  0  0  0  0  0  0  0  0
   13.2930    7.0603    8.2475 C   0  0  0  0  0  0  0  0  0  0  0  0
   13.0836    5.8153    7.7589 F   0  0  0  0  0  0  0  0  0  0  0  0
   12.5409    7.9172    7.5233 F   0  0  0  0  0  0  0  0  0  0  0  0
   12.8362    7.0818    9.5192 F   0  0  0  0  0  0  0  0  0  0  0  0
  8  9  1  0
  9 10  2  0
  9 11  2  0
  9  1  1  0
  1  2  2  0
  2  3  1  0
  3  4  2  0
  4 14  1  0
 14 15  2  0
 14 16  1  0
 16 18  1  0
 18 19  1  0
 19 20  1  0
 19 21  1  0
 19 22  1  0
  4  5  1  0
  5  6  1  0
  5  7  2  0
  7  1  1  0
  8 12  1  0
  8 13  1  0
 16 17  1  0
M  END
> <minimizedAffinity>
-4.69644

> <CNNscore>
0.6964650750

> <CNNaffinity>
4.1549115181

> <CNN_VS>
2.8937506676

> <CNNaffinity_variance>
0.1241836622

$$$$
