


 21 23  0  0  0  0  0  0  0  0999 V2000
    6.7249   17.6361   54.9571 N   0  0  0  0  0  0  0  0  0  0  0  0
    6.8726   18.6458   53.9989 C   0  0  0  0  0  0  0  0  0  0  0  0
    6.1111   19.8092   54.0841 C   0  0  0  0  0  0  0  0  0  0  0  0
    6.3394   20.8661   53.2032 C   0  0  0  0  0  0  0  0  0  0  0  0
    7.3670   20.7816   52.2508 C   0  0  0  0  0  0  0  0  0  0  0  0
    7.6275   21.8202   51.3504 C   0  0  0  0  0  0  0  0  0  0  0  0
    8.6710   21.7022   50.4260 C   0  0  0  0  0  0  0  0  0  0  0  0
    8.9714   22.7267   49.5142 C   0  0  0  0  0  0  0  0  0  0  0  0
   10.0212   22.5690   48.6090 C   0  0  0  0  0  0  0  0  0  0  0  0
   10.3956   23.9951   47.4111 Br  0  0  0  0  0  0  0  0  0  0  0  0
   10.7601   21.3790   48.5719 C   0  0  0  0  0  0  0  0  0  0  0  0
   11.9004   21.2330   47.7628 N   0  0  0  0  0  0  0  0  0  0  0  0
   10.4725   20.3942   49.5273 C   0  0  0  0  0  0  0  0  0  0  0  0
    9.4320   20.5198   50.4407 C   0  0  0  0  0  0  0  0  0  0  0  0
    9.1892   19.5186   51.3046 N   0  0  0  0  0  0  0  0  0  0  0  0
    8.1820   19.6376   52.1896 C   0  0  0  0  0  0  0  0  0  0  0  0
    7.9299   18.6028   53.0830 C   0  0  0  0  0  0  0  0  0  0  0  0
    5.9791   17.6716   55.5988 H   0  0  0  0  0  0  0  0  0  0  0  0
    7.3668   16.8903   54.9893 H   0  0  0  0  0  0  0  0  0  0  0  0
   12.1155   21.9163   47.0874 H   0  0  0  0  0  0  0  0  0  0  0  0
   12.4838   20.4475   47.8715 H   0  0  0  0  0  0  0  0  0  0  0  0
  1  2  1  0
  2  3  2  0
  3  4  1  0
  4  5  2  0
  5  6  1  0
  6  7  2  0
  7  8  1  0
  8  9  2  0
  9 10  1  0
  9 11  1  0
 11 12  1  0
 11 13  2  0
 13 14  1  0
 14 15  2  0
 15 16  1  0
 16 17  2  0
 17  2  1  0
 16  5  1  0
 14  7  1  0
  1 18  1  0
  1 19  1  0
 12 20  1  0
 12 21  1  0
M  END
> <minimizedAffinity>
-7.19661

> <CNNscore>
0.9290066957

> <CNNaffinity>
6.3309230804

> <CNN_VS>
5.8814697266

> <CNNaffinity_variance>
0.3668388426

$$$$



 21 23  0  0  0  0  0  0  0  0999 V2000
    3.7888   17.3159   44.0380 N   0  0  0  0  0  0  0  0  0  0  0  0
    3.1952   17.9273   45.1486 C   0  0  0  0  0  0  0  0  0  0  0  0
    1.8125   18.0875   45.2044 C   0  0  0  0  0  0  0  0  0  0  0  0
    1.2075   18.5860   46.3579 C   0  0  0  0  0  0  0  0  0  0  0  0
    1.9841   18.8907   47.4868 C   0  0  0  0  0  0  0  0  0  0  0  0
    1.4146   19.3920   48.6623 C   0  0  0  0  0  0  0  0  0  0  0  0
    2.2224   19.6691   49.7705 C   0  0  0  0  0  0  0  0  0  0  0  0
    1.6875   20.1619   50.9714 C   0  0  0  0  0  0  0  0  0  0  0  0
    2.5282   20.4246   52.0532 C   0  0  0  0  0  0  0  0  0  0  0  0
    1.7481   21.0717   53.6600 Br  0  0  0  0  0  0  0  0  0  0  0  0
    3.9126   20.2383   51.9442 C   0  0  0  0  0  0  0  0  0  0  0  0
    4.7733   20.3718   53.0477 N   0  0  0  0  0  0  0  0  0  0  0  0
    4.4132   19.6968   50.7519 C   0  0  0  0  0  0  0  0  0  0  0  0
    3.6027   19.4264   49.6552 C   0  0  0  0  0  0  0  0  0  0  0  0
    4.1566   18.9425   48.5299 N   0  0  0  0  0  0  0  0  0  0  0  0
    3.3741   18.6805   47.4665 C   0  0  0  0  0  0  0  0  0  0  0  0
    3.9459   18.1804   46.3023 C   0  0  0  0  0  0  0  0  0  0  0  0
    3.2556   17.1404   43.2292 H   0  0  0  0  0  0  0  0  0  0  0  0
    4.7395   17.0615   44.0657 H   0  0  0  0  0  0  0  0  0  0  0  0
    4.4365   20.7504   53.8917 H   0  0  0  0  0  0  0  0  0  0  0  0
    5.7130   20.0869   52.9763 H   0  0  0  0  0  0  0  0  0  0  0  0
  1  2  1  0
  2  3  2  0
  3  4  1  0
  4  5  2  0
  5  6  1  0
  6  7  2  0
  7  8  1  0
  8  9  2  0
  9 10  1  0
  9 11  1  0
 11 12  1  0
 11 13  2  0
 13 14  1  0
 14 15  2  0
 15 16  1  0
 16 17  2  0
 17  2  1  0
 16  5  1  0
 14  7  1  0
  1 18  1  0
  1 19  1  0
 12 20  1  0
 12 21  1  0
M  END
> <minimizedAffinity>
-6.53305

> <CNNscore>
0.9115706682

> <CNNaffinity>
5.8326926231

> <CNN_VS>
5.3169116974

> <CNNaffinity_variance>
0.0819338635

$$$$



 21 23  0  0  0  0  0  0  0  0999 V2000
   11.7863   21.0500   48.3318 N   0  0  0  0  0  0  0  0  0  0  0  0
   10.5572   21.2906   48.9570 C   0  0  0  0  0  0  0  0  0  0  0  0
   10.2301   22.5741   49.3886 C   0  0  0  0  0  0  0  0  0  0  0  0
    8.9617   22.8422   49.9025 C   0  0  0  0  0  0  0  0  0  0  0  0
    7.9908   21.8294   49.9497 C   0  0  0  0  0  0  0  0  0  0  0  0
    6.7075   22.0588   50.4574 C   0  0  0  0  0  0  0  0  0  0  0  0
    5.7641   21.0258   50.4731 C   0  0  0  0  0  0  0  0  0  0  0  0
    4.4628   21.2193   50.9632 C   0  0  0  0  0  0  0  0  0  0  0  0
    3.5523   20.1624   50.9604 C   0  0  0  0  0  0  0  0  0  0  0  0
    1.7993   20.4858   51.6175 Br  0  0  0  0  0  0  0  0  0  0  0  0
    3.9330   18.8923   50.5074 C   0  0  0  0  0  0  0  0  0  0  0  0
    3.0107   17.8400   50.3727 N   0  0  0  0  0  0  0  0  0  0  0  0
    5.2213   18.7406   49.9759 C   0  0  0  0  0  0  0  0  0  0  0  0
    6.1526   19.7729   49.9664 C   0  0  0  0  0  0  0  0  0  0  0  0
    7.3831   19.5457   49.4747 N   0  0  0  0  0  0  0  0  0  0  0  0
    8.2866   20.5433   49.4650 C   0  0  0  0  0  0  0  0  0  0  0  0
    9.5594   20.3093   48.9571 C   0  0  0  0  0  0  0  0  0  0  0  0
   12.4845   21.7441   48.3350 H   0  0  0  0  0  0  0  0  0  0  0  0
   11.9526   20.1866   47.8889 H   0  0  0  0  0  0  0  0  0  0  0  0
    2.1021   17.9316   50.7407 H   0  0  0  0  0  0  0  0  0  0  0  0
    3.2732   17.0114   49.9103 H   0  0  0  0  0  0  0  0  0  0  0  0
  1  2  1  0
  2  3  2  0
  3  4  1  0
  4  5  2  0
  5  6  1  0
  6  7  2  0
  7  8  1  0
  8  9  2  0
  9 10  1  0
  9 11  1  0
 11 12  1  0
 11 13  2  0
 13 14  1  0
 14 15  2  0
 15 16  1  0
 16 17  2  0
 17  2  1  0
 16  5  1  0
 14  7  1  0
  1 18  1  0
  1 19  1  0
 12 20  1  0
 12 21  1  0
M  END
> <minimizedAffinity>
-7.32794

> <CNNscore>
0.8401497006

> <CNNaffinity>
5.3404870033

> <CNN_VS>
4.4868087769

> <CNNaffinity_variance>
0.2239639312

$$$$



 21 23  0  0  0  0  0  0  0  0999 V2000
   -0.3756   18.3053   44.6006 N   0  0  0  0  0  0  0  0  0  0  0  0
    0.6503   18.5004   45.5328 C   0  0  0  0  0  0  0  0  0  0  0  0
    1.9781   18.5461   45.1140 C   0  0  0  0  0  0  0  0  0  0  0  0
    2.9916   18.8588   46.0195 C   0  0  0  0  0  0  0  0  0  0  0  0
    2.6765   19.1711   47.3512 C   0  0  0  0  0  0  0  0  0  0  0  0
    3.6643   19.4904   48.2891 C   0  0  0  0  0  0  0  0  0  0  0  0
    3.3068   19.8102   49.6034 C   0  0  0  0  0  0  0  0  0  0  0  0
    4.2672   20.1473   50.5704 C   0  0  0  0  0  0  0  0  0  0  0  0
    3.8681   20.4604   51.8700 C   0  0  0  0  0  0  0  0  0  0  0  0
    5.2083   20.9281   53.1327 Br  0  0  0  0  0  0  0  0  0  0  0  0
    2.5164   20.4056   52.2353 C   0  0  0  0  0  0  0  0  0  0  0  0
    2.0656   20.8343   53.4959 N   0  0  0  0  0  0  0  0  0  0  0  0
    1.5749   20.1168   51.2376 C   0  0  0  0  0  0  0  0  0  0  0  0
    1.9401   19.7983   49.9345 C   0  0  0  0  0  0  0  0  0  0  0  0
    0.9852   19.4950   49.0380 N   0  0  0  0  0  0  0  0  0  0  0  0
    1.3364   19.1857   47.7760 C   0  0  0  0  0  0  0  0  0  0  0  0
    0.3498   18.8717   46.8483 C   0  0  0  0  0  0  0  0  0  0  0  0
   -0.1581   18.0442   43.6766 H   0  0  0  0  0  0  0  0  0  0  0  0
   -1.3147   18.4292   44.8690 H   0  0  0  0  0  0  0  0  0  0  0  0
    2.7147   21.0409   54.2068 H   0  0  0  0  0  0  0  0  0  0  0  0
    1.1008   20.9279   53.6680 H   0  0  0  0  0  0  0  0  0  0  0  0
  1  2  1  0
  2  3  2  0
  3  4  1  0
  4  5  2  0
  5  6  1  0
  6  7  2  0
  7  8  1  0
  8  9  2  0
  9 10  1  0
  9 11  1  0
 11 12  1  0
 11 13  2  0
 13 14  1  0
 14 15  2  0
 15 16  1  0
 16 17  2  0
 17  2  1  0
 16  5  1  0
 14  7  1  0
  1 18  1  0
  1 19  1  0
 12 20  1  0
 12 21  1  0
M  END
> <minimizedAffinity>
-7.18594

> <CNNscore>
0.8077339530

> <CNNaffinity>
5.9231734276

> <CNN_VS>
4.7843484879

> <CNNaffinity_variance>
0.2205619067

$$$$



 21 23  0  0  0  0  0  0  0  0999 V2000
    7.1439   13.5329   52.1207 N   0  0  0  0  0  0  0  0  0  0  0  0
    7.2108   14.9311   52.1074 C   0  0  0  0  0  0  0  0  0  0  0  0
    6.6200   15.6705   53.1295 C   0  0  0  0  0  0  0  0  0  0  0  0
    6.7862   17.0541   53.1842 C   0  0  0  0  0  0  0  0  0  0  0  0
    7.5855   17.7071   52.2328 C   0  0  0  0  0  0  0  0  0  0  0  0
    7.7771   19.0928   52.2542 C   0  0  0  0  0  0  0  0  0  0  0  0
    8.5936   19.7031   51.2960 C   0  0  0  0  0  0  0  0  0  0  0  0
    8.8201   21.0887   51.2910 C   0  0  0  0  0  0  0  0  0  0  0  0
    9.6420   21.6573   50.3177 C   0  0  0  0  0  0  0  0  0  0  0  0
    9.9292   23.5345   50.3701 Br  0  0  0  0  0  0  0  0  0  0  0  0
   10.2175   20.8644   49.3160 C   0  0  0  0  0  0  0  0  0  0  0  0
   11.1481   21.3806   48.3974 N   0  0  0  0  0  0  0  0  0  0  0  0
   10.0167   19.4782   49.3755 C   0  0  0  0  0  0  0  0  0  0  0  0
    9.2019   18.8811   50.3307 C   0  0  0  0  0  0  0  0  0  0  0  0
    9.0244   17.5486   50.3053 N   0  0  0  0  0  0  0  0  0  0  0  0
    8.2355   16.9683   51.2286 C   0  0  0  0  0  0  0  0  0  0  0  0
    8.0511   15.5906   51.2031 C   0  0  0  0  0  0  0  0  0  0  0  0
    6.5509   13.0746   52.7591 H   0  0  0  0  0  0  0  0  0  0  0  0
    7.6897   13.0080   51.4916 H   0  0  0  0  0  0  0  0  0  0  0  0
   11.3001   22.3518   48.3438 H   0  0  0  0  0  0  0  0  0  0  0  0
   11.6478   20.7708   47.8076 H   0  0  0  0  0  0  0  0  0  0  0  0
  1  2  1  0
  2  3  2  0
  3  4  1  0
  4  5  2  0
  5  6  1  0
  6  7  2  0
  7  8  1  0
  8  9  2  0
  9 10  1  0
  9 11  1  0
 11 12  1  0
 11 13  2  0
 13 14  1  0
 14 15  2  0
 15 16  1  0
 16 17  2  0
 17  2  1  0
 16  5  1  0
 14  7  1  0
  1 18  1  0
  1 19  1  0
 12 20  1  0
 12 21  1  0
M  END
> <minimizedAffinity>
-5.60246

> <CNNscore>
0.7831394672

> <CNNaffinity>
5.4496402740

> <CNN_VS>
4.2678284645

> <CNNaffinity_variance>
0.0154771255

$$$$



 21 23  0  0  0  0  0  0  0  0999 V2000
    1.4707   17.2376   50.4306 N   0  0  0  0  0  0  0  0  0  0  0  0
    2.3509   18.3228   50.3450 C   0  0  0  0  0  0  0  0  0  0  0  0
    1.9364   19.5936   50.7368 C   0  0  0  0  0  0  0  0  0  0  0  0
    2.8439   20.6522   50.7662 C   0  0  0  0  0  0  0  0  0  0  0  0
    4.1921   20.4352   50.4412 C   0  0  0  0  0  0  0  0  0  0  0  0
    5.1327   21.4707   50.4595 C   0  0  0  0  0  0  0  0  0  0  0  0
    6.4702   21.2094   50.1430 C   0  0  0  0  0  0  0  0  0  0  0  0
    7.4459   22.2187   50.1613 C   0  0  0  0  0  0  0  0  0  0  0  0
    8.7691   21.9154   49.8396 C   0  0  0  0  0  0  0  0  0  0  0  0
   10.0513   23.3159   49.8995 Br  0  0  0  0  0  0  0  0  0  0  0  0
    9.1324   20.6167   49.4591 C   0  0  0  0  0  0  0  0  0  0  0  0
   10.4726   20.2469   49.2508 N   0  0  0  0  0  0  0  0  0  0  0  0
    8.1491   19.6183   49.4996 C   0  0  0  0  0  0  0  0  0  0  0  0
    6.8219   19.8883   49.8135 C   0  0  0  0  0  0  0  0  0  0  0  0
    5.9241   18.8877   49.7964 N   0  0  0  0  0  0  0  0  0  0  0  0
    4.6384   19.1466   50.0993 C   0  0  0  0  0  0  0  0  0  0  0  0
    3.7093   18.1128   50.0815 C   0  0  0  0  0  0  0  0  0  0  0  0
    0.5161   17.3915   50.6162 H   0  0  0  0  0  0  0  0  0  0  0  0
    1.8062   16.3206   50.3053 H   0  0  0  0  0  0  0  0  0  0  0  0
   11.1744   20.9366   49.2199 H   0  0  0  0  0  0  0  0  0  0  0  0
   10.7093   19.2982   49.1358 H   0  0  0  0  0  0  0  0  0  0  0  0
  1  2  1  0
  2  3  2  0
  3  4  1  0
  4  5  2  0
  5  6  1  0
  6  7  2  0
  7  8  1  0
  8  9  2  0
  9 10  1  0
  9 11  1  0
 11 12  1  0
 11 13  2  0
 13 14  1  0
 14 15  2  0
 15 16  1  0
 16 17  2  0
 17  2  1  0
 16  5  1  0
 14  7  1  0
  1 18  1  0
  1 19  1  0
 12 20  1  0
 12 21  1  0
M  END
> <minimizedAffinity>
-7.02136

> <CNNscore>
0.6928846836

> <CNNaffinity>
5.0192666054

> <CNN_VS>
3.4777729511

> <CNNaffinity_variance>
0.1538009197

$$$$



 21 23  0  0  0  0  0  0  0  0999 V2000
    1.4180   18.7636   45.0133 N   0  0  0  0  0  0  0  0  0  0  0  0
    1.4989   19.1302   46.3618 C   0  0  0  0  0  0  0  0  0  0  0  0
    0.3971   18.9692   47.1989 C   0  0  0  0  0  0  0  0  0  0  0  0
    0.5090   19.2202   48.5662 C   0  0  0  0  0  0  0  0  0  0  0  0
    1.7446   19.5968   49.1157 C   0  0  0  0  0  0  0  0  0  0  0  0
    1.8974   19.8567   50.4819 C   0  0  0  0  0  0  0  0  0  0  0  0
    3.1498   20.2153   50.9921 C   0  0  0  0  0  0  0  0  0  0  0  0
    3.3464   20.4725   52.3582 C   0  0  0  0  0  0  0  0  0  0  0  0
    4.6121   20.8268   52.8260 C   0  0  0  0  0  0  0  0  0  0  0  0
    4.8249   21.1446   54.6869 Br  0  0  0  0  0  0  0  0  0  0  0  0
    5.6881   20.9674   51.9396 C   0  0  0  0  0  0  0  0  0  0  0  0
    7.0000   21.1989   52.3884 N   0  0  0  0  0  0  0  0  0  0  0  0
    5.4756   20.6543   50.5897 C   0  0  0  0  0  0  0  0  0  0  0  0
    4.2267   20.3007   50.0917 C   0  0  0  0  0  0  0  0  0  0  0  0
    4.0879   20.0499   48.7782 N   0  0  0  0  0  0  0  0  0  0  0  0
    2.8797   19.7080   48.2936 C   0  0  0  0  0  0  0  0  0  0  0  0
    2.7350   19.4489   46.9355 C   0  0  0  0  0  0  0  0  0  0  0  0
    0.5456   18.5405   44.6153 H   0  0  0  0  0  0  0  0  0  0  0  0
    2.2335   18.7287   44.4629 H   0  0  0  0  0  0  0  0  0  0  0  0
    7.1652   21.4198   53.3335 H   0  0  0  0  0  0  0  0  0  0  0  0
    7.7536   21.1402   51.7576 H   0  0  0  0  0  0  0  0  0  0  0  0
  1  2  1  0
  2  3  2  0
  3  4  1  0
  4  5  2  0
  5  6  1  0
  6  7  2  0
  7  8  1  0
  8  9  2  0
  9 10  1  0
  9 11  1  0
 11 12  1  0
 11 13  2  0
 13 14  1  0
 14 15  2  0
 15 16  1  0
 16 17  2  0
 17  2  1  0
 16  5  1  0
 14  7  1  0
  1 18  1  0
  1 19  1  0
 12 20  1  0
 12 21  1  0
M  END
> <minimizedAffinity>
-6.64415

> <CNNscore>
0.6799262762

> <CNNaffinity>
5.1217455864

> <CNN_VS>
3.4824094772

> <CNNaffinity_variance>
0.0557619929

$$$$



 21 23  0  0  0  0  0  0  0  0999 V2000
    1.6988   21.2816   54.1473 N   0  0  0  0  0  0  0  0  0  0  0  0
    2.2998   20.8697   52.9520 C   0  0  0  0  0  0  0  0  0  0  0  0
    3.6647   20.5942   52.9127 C   0  0  0  0  0  0  0  0  0  0  0  0
    4.2442   20.0700   51.7575 C   0  0  0  0  0  0  0  0  0  0  0  0
    3.4481   19.7768   50.6392 C   0  0  0  0  0  0  0  0  0  0  0  0
    3.9916   19.2498   49.4627 C   0  0  0  0  0  0  0  0  0  0  0  0
    3.1610   18.9576   48.3755 C   0  0  0  0  0  0  0  0  0  0  0  0
    3.6663   18.4172   47.1823 C   0  0  0  0  0  0  0  0  0  0  0  0
    2.8032   18.1397   46.1219 C   0  0  0  0  0  0  0  0  0  0  0  0
    3.5385   17.3912   44.5382 Br  0  0  0  0  0  0  0  0  0  0  0  0
    1.4359   18.4304   46.2185 C   0  0  0  0  0  0  0  0  0  0  0  0
    0.5195   18.0502   45.2226 N   0  0  0  0  0  0  0  0  0  0  0  0
    0.9507   18.9209   47.4389 C   0  0  0  0  0  0  0  0  0  0  0  0
    1.7844   19.2101   48.5131 C   0  0  0  0  0  0  0  0  0  0  0  0
    1.2547   19.7139   49.6414 N   0  0  0  0  0  0  0  0  0  0  0  0
    2.0599   19.9952   50.6827 C   0  0  0  0  0  0  0  0  0  0  0  0
    1.5131   20.5165   51.8497 C   0  0  0  0  0  0  0  0  0  0  0  0
    2.2574   21.5288   54.9194 H   0  0  0  0  0  0  0  0  0  0  0  0
    0.7176   21.3239   54.2159 H   0  0  0  0  0  0  0  0  0  0  0  0
    0.8449   17.7040   44.3604 H   0  0  0  0  0  0  0  0  0  0  0  0
   -0.4478   18.1303   45.3874 H   0  0  0  0  0  0  0  0  0  0  0  0
  1  2  1  0
  2  3  2  0
  3  4  1  0
  4  5  2  0
  5  6  1  0
  6  7  2  0
  7  8  1  0
  8  9  2  0
  9 10  1  0
  9 11  1  0
 11 12  1  0
 11 13  2  0
 13 14  1  0
 14 15  2  0
 15 16  1  0
 16 17  2  0
 17  2  1  0
 16  5  1  0
 14  7  1  0
  1 18  1  0
  1 19  1  0
 12 20  1  0
 12 21  1  0
M  END
> <minimizedAffinity>
-6.14690

> <CNNscore>
0.6652279496

> <CNNaffinity>
5.6272377968

> <CNN_VS>
3.7433958054

> <CNNaffinity_variance>
0.0225879047

$$$$



 21 23  0  0  0  0  0  0  0  0999 V2000
    7.0167   19.4973   53.7119 N   0  0  0  0  0  0  0  0  0  0  0  0
    6.5314   19.5776   52.4013 C   0  0  0  0  0  0  0  0  0  0  0  0
    7.4101   19.5018   51.3231 C   0  0  0  0  0  0  0  0  0  0  0  0
    6.9209   19.4611   50.0177 C   0  0  0  0  0  0  0  0  0  0  0  0
    5.5370   19.4540   49.7826 C   0  0  0  0  0  0  0  0  0  0  0  0
    5.0074   19.4132   48.4883 C   0  0  0  0  0  0  0  0  0  0  0  0
    3.6215   19.3926   48.2976 C   0  0  0  0  0  0  0  0  0  0  0  0
    3.0516   19.3399   47.0156 C   0  0  0  0  0  0  0  0  0  0  0  0
    1.6643   19.3203   46.8695 C   0  0  0  0  0  0  0  0  0  0  0  0
    0.9478   19.2292   45.1124 Br  0  0  0  0  0  0  0  0  0  0  0  0
    0.8266   19.3913   47.9904 C   0  0  0  0  0  0  0  0  0  0  0  0
   -0.5683   19.2477   47.8905 N   0  0  0  0  0  0  0  0  0  0  0  0
    1.4219   19.3908   49.2597 C   0  0  0  0  0  0  0  0  0  0  0  0
    2.8004   19.4132   49.4390 C   0  0  0  0  0  0  0  0  0  0  0  0
    3.3021   19.4497   50.6858 N   0  0  0  0  0  0  0  0  0  0  0  0
    4.6363   19.4721   50.8619 C   0  0  0  0  0  0  0  0  0  0  0  0
    5.1561   19.5102   52.1507 C   0  0  0  0  0  0  0  0  0  0  0  0
    7.9852   19.5453   53.8820 H   0  0  0  0  0  0  0  0  0  0  0  0
    6.3894   19.3928   54.4635 H   0  0  0  0  0  0  0  0  0  0  0  0
   -1.0009   19.2462   47.0062 H   0  0  0  0  0  0  0  0  0  0  0  0
   -1.1125   19.1487   48.7049 H   0  0  0  0  0  0  0  0  0  0  0  0
  1  2  1  0
  2  3  2  0
  3  4  1  0
  4  5  2  0
  5  6  1  0
  6  7  2  0
  7  8  1  0
  8  9  2  0
  9 10  1  0
  9 11  1  0
 11 12  1  0
 11 13  2  0
 13 14  1  0
 14 15  2  0
 15 16  1  0
 16 17  2  0
 17  2  1  0
 16  5  1  0
 14  7  1  0
  1 18  1  0
  1 19  1  0
 12 20  1  0
 12 21  1  0
M  END
> <minimizedAffinity>
-6.35645

> <CNNscore>
0.6338270903

> <CNNaffinity>
5.2749986649

> <CNN_VS>
3.3434369564

> <CNNaffinity_variance>
0.0104811704

$$$$
