


 41 44  0  0  0  0  0  0  0  0999 V2000
   -2.1218   18.8147   16.9511 C   0  0  0  0  0  0  0  0  0  0  0  0
   -2.8388   20.1684   17.1410 C   0  0  0  0  0  0  0  0  0  0  0  0
   -2.1533   21.2018   17.1209 O   0  0  0  0  0  0  0  0  0  0  0  0
   -4.2070   20.2161   17.3748 N   0  0  0  0  0  0  0  0  0  0  0  0
   -5.1378   19.1214   17.0761 C   0  0  0  0  0  0  0  0  0  0  0  0
   -6.3147   19.0850   18.0442 C   0  0  0  0  0  0  0  0  0  0  0  0
   -7.0091   20.4363   18.1558 C   0  0  0  0  0  0  0  0  0  0  0  0
   -6.0051   21.5331   18.4976 C   0  0  0  0  0  0  0  0  0  0  0  0
   -4.8081   21.5581   17.5396 C   0  0  0  0  0  0  0  0  0  0  0  0
   -5.2228   22.1662   16.1953 C   0  0  0  0  0  0  0  0  0  0  0  0
   -5.4381   23.3469   15.9683 O   0  0  0  0  0  0  0  0  0  0  0  0
   -5.3316   21.2505   15.2118 O   0  0  0  0  0  0  0  0  0  0  0  0
   -5.1651   20.3463   15.3928 H   0  0  0  0  0  0  0  0  0  0  0  0
   -0.6768   19.1347   16.7315 N   0  0  0  0  0  0  0  0  0  0  0  0
   -0.6411   20.0224   16.2304 H   0  0  0  0  0  0  0  0  0  0  0  0
    0.3391   19.2790   18.0545 S   0  0  0  0  0  0  0  0  0  0  0  0
   -0.3490   20.1061   19.0212 O   0  0  0  0  0  0  0  0  0  0  0  0
    0.8126   17.9536   18.3869 O   0  0  0  0  0  0  0  0  0  0  0  0
    1.7086   20.2234   17.4395 C   0  0  0  0  0  0  0  0  0  0  0  0
    1.9963   20.2330   16.0757 C   0  0  0  0  0  0  0  0  0  0  0  0
    3.1174   20.9264   15.6183 C   0  0  0  0  0  0  0  0  0  0  0  0
    3.9578   21.6105   16.5132 C   0  0  0  0  0  0  0  0  0  0  0  0
    5.0872   22.3113   16.0624 C   0  0  0  0  0  0  0  0  0  0  0  0
    5.9121   22.9903   16.9610 C   0  0  0  0  0  0  0  0  0  0  0  0
    5.6156   22.9808   18.3209 C   0  0  0  0  0  0  0  0  0  0  0  0
    4.4981   22.2870   18.7870 C   0  0  0  0  0  0  0  0  0  0  0  0
    3.6599   21.5968   17.8962 C   0  0  0  0  0  0  0  0  0  0  0  0
    2.5368   20.8911   18.3505 C   0  0  0  0  0  0  0  0  0  0  0  0
   -2.1966   17.9895   18.2507 C   0  0  0  0  0  0  0  0  0  0  0  0
   -1.8848   14.4930   16.7505 C   0  0  0  0  0  0  0  0  0  0  0  0
   -1.3519   13.7770   17.8271 C   0  0  0  0  0  0  0  0  0  0  0  0
   -1.0804   14.4279   19.0326 C   0  0  0  0  0  0  0  0  0  0  0  0
   -1.3526   15.7899   19.1711 C   0  0  0  0  0  0  0  0  0  0  0  0
   -1.8955   16.5189   18.1039 C   0  0  0  0  0  0  0  0  0  0  0  0
   -2.1519   15.8619   16.8914 C   0  0  0  0  0  0  0  0  0  0  0  0
   -3.0098   14.3860   14.6255 N   0  0  0  0  0  0  0  0  0  0  0  0
   -2.1998   13.8148   15.4580 C   0  0  0  0  0  0  0  0  0  0  0  0
   -1.6309   12.6127   15.1429 N   0  0  0  0  0  0  0  0  0  0  0  0
   -3.2254   13.9489   13.7701 H   0  0  0  0  0  0  0  0  0  0  0  0
   -1.8464   12.1752   14.2877 H   0  0  0  0  0  0  0  0  0  0  0  0
   -1.0057   12.1842   15.7712 H   0  0  0  0  0  0  0  0  0  0  0  0
 36 37  2  0
 37 38  1  0
 37 30  1  0
 30 31  2  0
 31 32  1  0
 32 33  2  0
 33 34  1  0
 34 29  1  0
  1 29  1  0
  1 14  1  0
 14 16  1  0
 16 17  2  0
 16 18  2  0
 16 19  1  0
 19 20  2  0
 20 21  1  0
 21 22  2  0
 22 23  1  0
 23 24  2  0
 24 25  1  0
 25 26  2  0
 26 27  1  0
 27 28  2  0
  1  2  1  0
  2  3  2  0
  2  4  1  0
  4  5  1  0
  5  6  1  0
  6  7  1  0
  7  8  1  0
  8  9  1  0
  9 10  1  0
 10 11  2  0
 10 12  1  0
 34 35  2  0
 35 30  1  0
 28 19  1  0
  9  4  1  0
 27 22  1  0
 36 39  1  0
 38 40  1  0
 38 41  1  0
 14 15  1  0
 12 13  1  0
M  END
> <minimizedAffinity>
-8.78993

> <CNNscore>
0.8311125040

> <CNNaffinity>
7.2304167747

> <CNN_VS>
6.0092897415

> <CNNaffinity_variance>
0.0743239745

$$$$



 41 44  0  0  0  0  0  0  0  0999 V2000
   -1.9032   19.0550   17.9825 C   0  0  0  0  0  0  0  0  0  0  0  0
   -0.3717   18.8927   17.8785 C   0  0  0  0  0  0  0  0  0  0  0  0
    0.0862   18.2668   16.9106 O   0  0  0  0  0  0  0  0  0  0  0  0
    0.4607   19.3955   18.8701 N   0  0  0  0  0  0  0  0  0  0  0  0
    0.0667   20.4231   19.8410 C   0  0  0  0  0  0  0  0  0  0  0  0
    0.7787   20.2560   21.1784 C   0  0  0  0  0  0  0  0  0  0  0  0
    2.2893   20.1461   21.0154 C   0  0  0  0  0  0  0  0  0  0  0  0
    2.6470   19.0452   20.0215 C   0  0  0  0  0  0  0  0  0  0  0  0
    1.9149   19.1970   18.6827 C   0  0  0  0  0  0  0  0  0  0  0  0
    2.5443   20.3298   17.8645 C   0  0  0  0  0  0  0  0  0  0  0  0
    2.4551   20.4892   16.6568 O   0  0  0  0  0  0  0  0  0  0  0  0
    3.2416   21.2029   18.6191 O   0  0  0  0  0  0  0  0  0  0  0  0
    3.3060   21.0746   19.5451 H   0  0  0  0  0  0  0  0  0  0  0  0
   -2.4178   19.0715   16.5777 N   0  0  0  0  0  0  0  0  0  0  0  0
   -2.7005   18.1176   16.3528 H   0  0  0  0  0  0  0  0  0  0  0  0
   -3.7067   20.0676   16.1905 S   0  0  0  0  0  0  0  0  0  0  0  0
   -3.3078   20.8353   15.0315 O   0  0  0  0  0  0  0  0  0  0  0  0
   -4.9017   19.2532   16.1895 O   0  0  0  0  0  0  0  0  0  0  0  0
   -3.8001   21.1945   17.5569 C   0  0  0  0  0  0  0  0  0  0  0  0
   -2.8428   22.1970   17.7043 C   0  0  0  0  0  0  0  0  0  0  0  0
   -2.8931   23.0313   18.8216 C   0  0  0  0  0  0  0  0  0  0  0  0
   -3.8921   22.8720   19.7971 C   0  0  0  0  0  0  0  0  0  0  0  0
   -3.9512   23.7068   20.9238 C   0  0  0  0  0  0  0  0  0  0  0  0
   -4.9510   23.5409   21.8840 C   0  0  0  0  0  0  0  0  0  0  0  0
   -5.9068   22.5413   21.7274 C   0  0  0  0  0  0  0  0  0  0  0  0
   -5.8616   21.7004   20.6146 C   0  0  0  0  0  0  0  0  0  0  0  0
   -4.8607   21.8526   19.6412 C   0  0  0  0  0  0  0  0  0  0  0  0
   -4.7998   21.0120   18.5207 C   0  0  0  0  0  0  0  0  0  0  0  0
   -2.5214   17.8175   18.6624 C   0  0  0  0  0  0  0  0  0  0  0  0
   -1.5717   14.6118   16.8200 C   0  0  0  0  0  0  0  0  0  0  0  0
   -0.6621   14.0383   17.7142 C   0  0  0  0  0  0  0  0  0  0  0  0
   -0.3456   14.6951   18.9055 C   0  0  0  0  0  0  0  0  0  0  0  0
   -0.9456   15.9173   19.2134 C   0  0  0  0  0  0  0  0  0  0  0  0
   -1.8663   16.5000   18.3314 C   0  0  0  0  0  0  0  0  0  0  0  0
   -2.1682   15.8419   17.1300 C   0  0  0  0  0  0  0  0  0  0  0  0
   -1.2210   12.9224   15.1421 N   0  0  0  0  0  0  0  0  0  0  0  0
   -1.9389   13.9196   15.5488 C   0  0  0  0  0  0  0  0  0  0  0  0
   -3.0283   14.3178   14.8259 N   0  0  0  0  0  0  0  0  0  0  0  0
   -1.4528   12.4578   14.3057 H   0  0  0  0  0  0  0  0  0  0  0  0
   -3.2603   13.8536   13.9893 H   0  0  0  0  0  0  0  0  0  0  0  0
   -3.5810   15.0688   15.1417 H   0  0  0  0  0  0  0  0  0  0  0  0
 36 37  2  0
 37 38  1  0
 37 30  1  0
 30 31  2  0
 31 32  1  0
 32 33  2  0
 33 34  1  0
 34 29  1  0
  1 29  1  0
  1 14  1  0
 14 16  1  0
 16 17  2  0
 16 18  2  0
 16 19  1  0
 19 20  2  0
 20 21  1  0
 21 22  2  0
 22 23  1  0
 23 24  2  0
 24 25  1  0
 25 26  2  0
 26 27  1  0
 27 28  2  0
  1  2  1  0
  2  3  2  0
  2  4  1  0
  4  5  1  0
  5  6  1  0
  6  7  1  0
  7  8  1  0
  8  9  1  0
  9 10  1  0
 10 11  2  0
 10 12  1  0
 34 35  2  0
 35 30  1  0
 28 19  1  0
  9  4  1  0
 27 22  1  0
 36 39  1  0
 38 40  1  0
 38 41  1  0
 14 15  1  0
 12 13  1  0
M  END
> <minimizedAffinity>
-8.08083

> <CNNscore>
0.8300450444

> <CNNaffinity>
7.3224625587

> <CNN_VS>
6.0779738426

> <CNNaffinity_variance>
0.0808196291

$$$$



 41 44  0  0  0  0  0  0  0  0999 V2000
   -1.6969   18.8692   17.3989 C   0  0  0  0  0  0  0  0  0  0  0  0
   -2.8628   19.5617   16.6616 C   0  0  0  0  0  0  0  0  0  0  0  0
   -2.9437   19.4208   15.4320 O   0  0  0  0  0  0  0  0  0  0  0  0
   -3.7644   20.3575   17.3563 N   0  0  0  0  0  0  0  0  0  0  0  0
   -3.9653   20.3083   18.8093 C   0  0  0  0  0  0  0  0  0  0  0  0
   -4.3621   21.6639   19.3826 C   0  0  0  0  0  0  0  0  0  0  0  0
   -5.5449   22.2765   18.6436 C   0  0  0  0  0  0  0  0  0  0  0  0
   -5.2738   22.3335   17.1432 C   0  0  0  0  0  0  0  0  0  0  0  0
   -4.8520   20.9766   16.5669 C   0  0  0  0  0  0  0  0  0  0  0  0
   -6.0695   20.0529   16.4511 C   0  0  0  0  0  0  0  0  0  0  0  0
   -6.3917   19.1747   17.2366 O   0  0  0  0  0  0  0  0  0  0  0  0
   -6.8167   20.2976   15.3559 O   0  0  0  0  0  0  0  0  0  0  0  0
   -6.5638   20.9728   14.7574 H   0  0  0  0  0  0  0  0  0  0  0  0
   -1.0126   19.9365   18.1935 N   0  0  0  0  0  0  0  0  0  0  0  0
   -1.4295   19.9283   19.1244 H   0  0  0  0  0  0  0  0  0  0  0  0
    0.6473   19.8646   18.4006 S   0  0  0  0  0  0  0  0  0  0  0  0
    0.9802   20.8150   19.4388 O   0  0  0  0  0  0  0  0  0  0  0  0
    1.0140   18.4693   18.5000 O   0  0  0  0  0  0  0  0  0  0  0  0
    1.2950   20.5051   16.8788 C   0  0  0  0  0  0  0  0  0  0  0  0
    0.4327   21.0234   15.9140 C   0  0  0  0  0  0  0  0  0  0  0  0
    0.9535   21.4604   14.6955 C   0  0  0  0  0  0  0  0  0  0  0  0
    2.3313   21.3823   14.4298 C   0  0  0  0  0  0  0  0  0  0  0  0
    2.8645   21.8200   13.2074 C   0  0  0  0  0  0  0  0  0  0  0  0
    4.2357   21.7407   12.9571 C   0  0  0  0  0  0  0  0  0  0  0  0
    5.0914   21.2271   13.9273 C   0  0  0  0  0  0  0  0  0  0  0  0
    4.5782   20.7848   15.1473 C   0  0  0  0  0  0  0  0  0  0  0  0
    3.2010   20.8553   15.4135 C   0  0  0  0  0  0  0  0  0  0  0  0
    2.6705   20.4100   16.6326 C   0  0  0  0  0  0  0  0  0  0  0  0
   -2.2454   17.8484   18.4151 C   0  0  0  0  0  0  0  0  0  0  0  0
   -1.7931   14.4440   16.7484 C   0  0  0  0  0  0  0  0  0  0  0  0
   -1.0984   13.7417   17.7385 C   0  0  0  0  0  0  0  0  0  0  0  0
   -0.7643   14.3735   18.9384 C   0  0  0  0  0  0  0  0  0  0  0  0
   -1.1341   15.7013   19.1586 C   0  0  0  0  0  0  0  0  0  0  0  0
   -1.8388   16.4153   18.1795 C   0  0  0  0  0  0  0  0  0  0  0  0
   -2.1581   15.7790   16.9708 C   0  0  0  0  0  0  0  0  0  0  0  0
   -3.0277   14.3679   14.6839 N   0  0  0  0  0  0  0  0  0  0  0  0
   -2.1767   13.7841   15.4650 C   0  0  0  0  0  0  0  0  0  0  0  0
   -1.6278   12.5855   15.1042 N   0  0  0  0  0  0  0  0  0  0  0  0
   -3.2887   13.9430   13.8350 H   0  0  0  0  0  0  0  0  0  0  0  0
   -1.8886   12.1602   14.2555 H   0  0  0  0  0  0  0  0  0  0  0  0
   -0.9716   12.1474   15.6931 H   0  0  0  0  0  0  0  0  0  0  0  0
 36 37  2  0
 37 38  1  0
 37 30  1  0
 30 31  2  0
 31 32  1  0
 32 33  2  0
 33 34  1  0
 34 29  1  0
  1 29  1  0
  1 14  1  0
 14 16  1  0
 16 17  2  0
 16 18  2  0
 16 19  1  0
 19 20  2  0
 20 21  1  0
 21 22  2  0
 22 23  1  0
 23 24  2  0
 24 25  1  0
 25 26  2  0
 26 27  1  0
 27 28  2  0
  1  2  1  0
  2  3  2  0
  2  4  1  0
  4  5  1  0
  5  6  1  0
  6  7  1  0
  7  8  1  0
  8  9  1  0
  9 10  1  0
 10 11  2  0
 10 12  1  0
 34 35  2  0
 35 30  1  0
 28 19  1  0
  9  4  1  0
 27 22  1  0
 36 39  1  0
 38 40  1  0
 38 41  1  0
 14 15  1  0
 12 13  1  0
M  END
> <minimizedAffinity>
-9.08120

> <CNNscore>
0.7669737339

> <CNNaffinity>
7.0755057335

> <CNN_VS>
5.4267268181

> <CNNaffinity_variance>
0.0694091097

$$$$



 41 44  0  0  0  0  0  0  0  0999 V2000
   -2.3543   18.6782   17.0668 C   0  0  0  0  0  0  0  0  0  0  0  0
   -3.3068   19.3721   18.0637 C   0  0  0  0  0  0  0  0  0  0  0  0
   -2.9676   19.4276   19.2554 O   0  0  0  0  0  0  0  0  0  0  0  0
   -4.5294   19.8755   17.6386 N   0  0  0  0  0  0  0  0  0  0  0  0
   -4.8636   20.1704   16.2403 C   0  0  0  0  0  0  0  0  0  0  0  0
   -6.3456   19.9679   15.9467 C   0  0  0  0  0  0  0  0  0  0  0  0
   -7.2342   20.7119   16.9354 C   0  0  0  0  0  0  0  0  0  0  0  0
   -6.8679   20.3478   18.3711 C   0  0  0  0  0  0  0  0  0  0  0  0
   -5.3735   20.5281   18.6637 C   0  0  0  0  0  0  0  0  0  0  0  0
   -5.0425   22.0173   18.8114 C   0  0  0  0  0  0  0  0  0  0  0  0
   -5.8411   22.9244   18.9881 O   0  0  0  0  0  0  0  0  0  0  0  0
   -3.7211   22.2750   18.7383 O   0  0  0  0  0  0  0  0  0  0  0  0
   -3.1139   21.5744   18.6026 H   0  0  0  0  0  0  0  0  0  0  0  0
   -1.7973   19.7617   16.1982 N   0  0  0  0  0  0  0  0  0  0  0  0
   -2.5734   20.1327   15.6502 H   0  0  0  0  0  0  0  0  0  0  0  0
   -1.0329   21.0696   16.9112 S   0  0  0  0  0  0  0  0  0  0  0  0
   -1.6117   22.2602   16.3284 O   0  0  0  0  0  0  0  0  0  0  0  0
   -1.0291   20.8463   18.3400 O   0  0  0  0  0  0  0  0  0  0  0  0
    0.6371   20.9595   16.3242 C   0  0  0  0  0  0  0  0  0  0  0  0
    1.6482   20.5070   17.1704 C   0  0  0  0  0  0  0  0  0  0  0  0
    2.9663   20.4912   16.7131 C   0  0  0  0  0  0  0  0  0  0  0  0
    3.2855   20.9265   15.4155 C   0  0  0  0  0  0  0  0  0  0  0  0
    4.6083   20.9136   14.9465 C   0  0  0  0  0  0  0  0  0  0  0  0
    4.9120   21.3449   13.6538 C   0  0  0  0  0  0  0  0  0  0  0  0
    3.8965   21.7903   12.8126 C   0  0  0  0  0  0  0  0  0  0  0  0
    2.5760   21.8124   13.2634 C   0  0  0  0  0  0  0  0  0  0  0  0
    2.2544   21.3843   14.5618 C   0  0  0  0  0  0  0  0  0  0  0  0
    0.9330   21.4058   15.0301 C   0  0  0  0  0  0  0  0  0  0  0  0
   -1.1595   18.0603   17.8192 C   0  0  0  0  0  0  0  0  0  0  0  0
   -1.5137   14.4556   16.6136 C   0  0  0  0  0  0  0  0  0  0  0  0
   -0.9073   13.7534   17.6601 C   0  0  0  0  0  0  0  0  0  0  0  0
   -0.3717   14.4466   18.7479 C   0  0  0  0  0  0  0  0  0  0  0  0
   -0.4520   15.8391   18.8007 C   0  0  0  0  0  0  0  0  0  0  0  0
   -1.0652   16.5561   17.7639 C   0  0  0  0  0  0  0  0  0  0  0  0
   -1.5879   15.8544   16.6674 C   0  0  0  0  0  0  0  0  0  0  0  0
   -1.6413   12.5746   15.1176 N   0  0  0  0  0  0  0  0  0  0  0  0
   -2.1090   13.7351   15.4490 C   0  0  0  0  0  0  0  0  0  0  0  0
   -3.1467   14.2803   14.7462 N   0  0  0  0  0  0  0  0  0  0  0  0
   -2.0253   12.0896   14.3518 H   0  0  0  0  0  0  0  0  0  0  0  0
   -3.5309   13.7957   13.9802 H   0  0  0  0  0  0  0  0  0  0  0  0
   -3.5100   15.1577   15.0059 H   0  0  0  0  0  0  0  0  0  0  0  0
 36 37  2  0
 37 38  1  0
 37 30  1  0
 30 31  2  0
 31 32  1  0
 32 33  2  0
 33 34  1  0
 34 29  1  0
  1 29  1  0
  1 14  1  0
 14 16  1  0
 16 17  2  0
 16 18  2  0
 16 19  1  0
 19 20  2  0
 20 21  1  0
 21 22  2  0
 22 23  1  0
 23 24  2  0
 24 25  1  0
 25 26  2  0
 26 27  1  0
 27 28  2  0
  1  2  1  0
  2  3  2  0
  2  4  1  0
  4  5  1  0
  5  6  1  0
  6  7  1  0
  7  8  1  0
  8  9  1  0
  9 10  1  0
 10 11  2  0
 10 12  1  0
 34 35  2  0
 35 30  1  0
 28 19  1  0
  9  4  1  0
 27 22  1  0
 36 39  1  0
 38 40  1  0
 38 41  1  0
 14 15  1  0
 12 13  1  0
M  END
> <minimizedAffinity>
-8.89467

> <CNNscore>
0.7353938222

> <CNNaffinity>
7.0061755180

> <CNN_VS>
5.1522979736

> <CNNaffinity_variance>
0.0864494666

$$$$



 41 44  0  0  0  0  0  0  0  0999 V2000
   -1.9624   19.3348   18.0180 C   0  0  0  0  0  0  0  0  0  0  0  0
   -0.7297   19.0380   18.8982 C   0  0  0  0  0  0  0  0  0  0  0  0
    0.1552   18.3015   18.4369 O   0  0  0  0  0  0  0  0  0  0  0  0
   -0.6437   19.5467   20.1876 N   0  0  0  0  0  0  0  0  0  0  0  0
   -1.4349   20.6772   20.6874 C   0  0  0  0  0  0  0  0  0  0  0  0
   -1.7339   20.5578   22.1774 C   0  0  0  0  0  0  0  0  0  0  0  0
   -0.4747   20.3101   22.9981 C   0  0  0  0  0  0  0  0  0  0  0  0
    0.2944   19.1079   22.4583 C   0  0  0  0  0  0  0  0  0  0  0  0
    0.5769   19.2136   20.9548 C   0  0  0  0  0  0  0  0  0  0  0  0
    1.7029   20.2218   20.7008 C   0  0  0  0  0  0  0  0  0  0  0  0
    1.5707   21.4105   20.4526 O   0  0  0  0  0  0  0  0  0  0  0  0
    2.9320   19.6742   20.7852 O   0  0  0  0  0  0  0  0  0  0  0  0
    3.0263   18.7617   20.9760 H   0  0  0  0  0  0  0  0  0  0  0  0
   -1.4616   19.4123   16.6102 N   0  0  0  0  0  0  0  0  0  0  0  0
   -2.1641   18.9677   16.0193 H   0  0  0  0  0  0  0  0  0  0  0  0
   -1.1361   20.9113   15.9392 S   0  0  0  0  0  0  0  0  0  0  0  0
   -1.7784   20.9373   14.6436 O   0  0  0  0  0  0  0  0  0  0  0  0
   -1.4154   21.9099   16.9473 O   0  0  0  0  0  0  0  0  0  0  0  0
    0.6142   20.8799   15.6541 C   0  0  0  0  0  0  0  0  0  0  0  0
    1.4854   20.5327   16.6853 C   0  0  0  0  0  0  0  0  0  0  0  0
    2.8620   20.5792   16.4621 C   0  0  0  0  0  0  0  0  0  0  0  0
    3.3782   20.9725   15.2156 C   0  0  0  0  0  0  0  0  0  0  0  0
    4.7612   21.0216   14.9814 C   0  0  0  0  0  0  0  0  0  0  0  0
    5.2617   21.4102   13.7374 C   0  0  0  0  0  0  0  0  0  0  0  0
    4.3856   21.7503   12.7107 C   0  0  0  0  0  0  0  0  0  0  0  0
    3.0075   21.7098   12.9267 C   0  0  0  0  0  0  0  0  0  0  0  0
    2.4884   21.3235   14.1732 C   0  0  0  0  0  0  0  0  0  0  0  0
    1.1064   21.2830   14.4063 C   0  0  0  0  0  0  0  0  0  0  0  0
   -2.9470   18.1501   18.0695 C   0  0  0  0  0  0  0  0  0  0  0  0
   -1.7817   14.7436   16.8004 C   0  0  0  0  0  0  0  0  0  0  0  0
   -1.1600   14.2223   17.9395 C   0  0  0  0  0  0  0  0  0  0  0  0
   -1.1055   14.9780   19.1128 C   0  0  0  0  0  0  0  0  0  0  0  0
   -1.6824   16.2483   19.1564 C   0  0  0  0  0  0  0  0  0  0  0  0
   -2.3173   16.7804   18.0255 C   0  0  0  0  0  0  0  0  0  0  0  0
   -2.3554   16.0219   16.8462 C   0  0  0  0  0  0  0  0  0  0  0  0
   -1.0592   12.9519   15.3652 N   0  0  0  0  0  0  0  0  0  0  0  0
   -1.8679   13.9471   15.5403 C   0  0  0  0  0  0  0  0  0  0  0  0
   -2.7979   14.2487   14.5852 N   0  0  0  0  0  0  0  0  0  0  0  0
   -1.1060   12.4190   14.5387 H   0  0  0  0  0  0  0  0  0  0  0  0
   -2.8450   13.7162   13.7585 H   0  0  0  0  0  0  0  0  0  0  0  0
   -3.4207   14.9985   14.7240 H   0  0  0  0  0  0  0  0  0  0  0  0
 36 37  2  0
 37 38  1  0
 37 30  1  0
 30 31  2  0
 31 32  1  0
 32 33  2  0
 33 34  1  0
 34 29  1  0
  1 29  1  0
  1 14  1  0
 14 16  1  0
 16 17  2  0
 16 18  2  0
 16 19  1  0
 19 20  2  0
 20 21  1  0
 21 22  2  0
 22 23  1  0
 23 24  2  0
 24 25  1  0
 25 26  2  0
 26 27  1  0
 27 28  2  0
  1  2  1  0
  2  3  2  0
  2  4  1  0
  4  5  1  0
  5  6  1  0
  6  7  1  0
  7  8  1  0
  8  9  1  0
  9 10  1  0
 10 11  2  0
 10 12  1  0
 34 35  2  0
 35 30  1  0
 28 19  1  0
  9  4  1  0
 27 22  1  0
 36 39  1  0
 38 40  1  0
 38 41  1  0
 14 15  1  0
 12 13  1  0
M  END
> <minimizedAffinity>
-9.07136

> <CNNscore>
0.7178549170

> <CNNaffinity>
7.2275719643

> <CNN_VS>
5.1883482933

> <CNNaffinity_variance>
0.0079052933

$$$$



 41 44  0  0  0  0  0  0  0  0999 V2000
   -1.9935   19.2919   17.7623 C   0  0  0  0  0  0  0  0  0  0  0  0
   -0.4695   19.0481   17.7837 C   0  0  0  0  0  0  0  0  0  0  0  0
    0.0328   18.4004   16.8529 O   0  0  0  0  0  0  0  0  0  0  0  0
    0.3037   19.5037   18.8437 N   0  0  0  0  0  0  0  0  0  0  0  0
   -0.1139   20.5491   19.7853 C   0  0  0  0  0  0  0  0  0  0  0  0
    0.4753   20.3416   21.1757 C   0  0  0  0  0  0  0  0  0  0  0  0
    1.9862   20.1513   21.1370 C   0  0  0  0  0  0  0  0  0  0  0  0
    2.3657   19.0346   20.1690 C   0  0  0  0  0  0  0  0  0  0  0  0
    1.7558   19.2279   18.7755 C   0  0  0  0  0  0  0  0  0  0  0  0
    2.5100   20.3270   18.0191 C   0  0  0  0  0  0  0  0  0  0  0  0
    2.4169   20.5838   16.8286 O   0  0  0  0  0  0  0  0  0  0  0  0
    3.3308   21.0462   18.8109 O   0  0  0  0  0  0  0  0  0  0  0  0
    3.3974   20.8438   19.7234 H   0  0  0  0  0  0  0  0  0  0  0  0
   -2.3836   19.3709   16.3199 N   0  0  0  0  0  0  0  0  0  0  0  0
   -3.1272   18.6879   16.1747 H   0  0  0  0  0  0  0  0  0  0  0  0
   -2.9289   20.8269   15.6987 S   0  0  0  0  0  0  0  0  0  0  0  0
   -2.4185   20.9223   14.3488 O   0  0  0  0  0  0  0  0  0  0  0  0
   -4.3431   20.9208   15.9860 O   0  0  0  0  0  0  0  0  0  0  0  0
   -2.0802   22.0476   16.6657 C   0  0  0  0  0  0  0  0  0  0  0  0
   -0.7458   22.3490   16.3984 C   0  0  0  0  0  0  0  0  0  0  0  0
   -0.0748   23.2623   17.2124 C   0  0  0  0  0  0  0  0  0  0  0  0
   -0.7253   23.8776   18.2955 C   0  0  0  0  0  0  0  0  0  0  0  0
   -0.0588   24.7980   19.1193 C   0  0  0  0  0  0  0  0  0  0  0  0
   -0.7173   25.4057   20.1900 C   0  0  0  0  0  0  0  0  0  0  0  0
   -2.0514   25.1040   20.4477 C   0  0  0  0  0  0  0  0  0  0  0  0
   -2.7288   24.1891   19.6405 C   0  0  0  0  0  0  0  0  0  0  0  0
   -2.0798   23.5674   18.5612 C   0  0  0  0  0  0  0  0  0  0  0  0
   -2.7461   22.6425   17.7449 C   0  0  0  0  0  0  0  0  0  0  0  0
   -2.7325   18.0743   18.3513 C   0  0  0  0  0  0  0  0  0  0  0  0
   -1.6428   14.7443   16.8359 C   0  0  0  0  0  0  0  0  0  0  0  0
   -0.7764   14.2622   17.8223 C   0  0  0  0  0  0  0  0  0  0  0  0
   -0.5341   15.0204   18.9700 C   0  0  0  0  0  0  0  0  0  0  0  0
   -1.1654   16.2533   19.1424 C   0  0  0  0  0  0  0  0  0  0  0  0
   -2.0437   16.7454   18.1668 C   0  0  0  0  0  0  0  0  0  0  0  0
   -2.2709   15.9854   17.0100 C   0  0  0  0  0  0  0  0  0  0  0  0
   -1.1161   12.9984   15.2654 N   0  0  0  0  0  0  0  0  0  0  0  0
   -1.9309   13.9435   15.6090 C   0  0  0  0  0  0  0  0  0  0  0  0
   -3.0484   14.1884   14.8612 N   0  0  0  0  0  0  0  0  0  0  0  0
   -1.2950   12.4633   14.4587 H   0  0  0  0  0  0  0  0  0  0  0  0
   -3.2276   13.6536   14.0542 H   0  0  0  0  0  0  0  0  0  0  0  0
   -3.6741   14.8996   15.1294 H   0  0  0  0  0  0  0  0  0  0  0  0
 36 37  2  0
 37 38  1  0
 37 30  1  0
 30 31  2  0
 31 32  1  0
 32 33  2  0
 33 34  1  0
 34 29  1  0
  1 29  1  0
  1 14  1  0
 14 16  1  0
 16 17  2  0
 16 18  2  0
 16 19  1  0
 19 20  2  0
 20 21  1  0
 21 22  2  0
 22 23  1  0
 23 24  2  0
 24 25  1  0
 25 26  2  0
 26 27  1  0
 27 28  2  0
  1  2  1  0
  2  3  2  0
  2  4  1  0
  4  5  1  0
  5  6  1  0
  6  7  1  0
  7  8  1  0
  8  9  1  0
  9 10  1  0
 10 11  2  0
 10 12  1  0
 34 35  2  0
 35 30  1  0
 28 19  1  0
  9  4  1  0
 27 22  1  0
 36 39  1  0
 38 40  1  0
 38 41  1  0
 14 15  1  0
 12 13  1  0
M  END
> <minimizedAffinity>
-7.48287

> <CNNscore>
0.7046144605

> <CNNaffinity>
7.0921664238

> <CNN_VS>
4.9972429276

> <CNNaffinity_variance>
0.1228073761

$$$$



 41 44  0  0  0  0  0  0  0  0999 V2000
   -1.6559   18.7609   17.5438 C   0  0  0  0  0  0  0  0  0  0  0  0
   -2.6778   19.6924   16.8579 C   0  0  0  0  0  0  0  0  0  0  0  0
   -2.7875   19.6333   15.6239 O   0  0  0  0  0  0  0  0  0  0  0  0
   -3.4161   20.6020   17.6039 N   0  0  0  0  0  0  0  0  0  0  0  0
   -3.6175   20.5142   19.0550 C   0  0  0  0  0  0  0  0  0  0  0  0
   -3.7574   21.8874   19.7018 C   0  0  0  0  0  0  0  0  0  0  0  0
   -4.8105   22.7437   19.0103 C   0  0  0  0  0  0  0  0  0  0  0  0
   -4.5389   22.8288   17.5114 C   0  0  0  0  0  0  0  0  0  0  0  0
   -4.3747   21.4498   16.8613 C   0  0  0  0  0  0  0  0  0  0  0  0
   -5.7411   20.7714   16.7145 C   0  0  0  0  0  0  0  0  0  0  0  0
   -6.0144   19.8433   15.9689 O   0  0  0  0  0  0  0  0  0  0  0  0
   -6.6819   21.2963   17.5251 O   0  0  0  0  0  0  0  0  0  0  0  0
   -6.4655   22.0082   18.0946 H   0  0  0  0  0  0  0  0  0  0  0  0
   -0.8820   19.6182   18.4950 N   0  0  0  0  0  0  0  0  0  0  0  0
   -1.5433   19.9625   19.1912 H   0  0  0  0  0  0  0  0  0  0  0  0
    0.4069   18.9537   19.3318 S   0  0  0  0  0  0  0  0  0  0  0  0
   -0.0400   18.7466   20.6916 O   0  0  0  0  0  0  0  0  0  0  0  0
    0.9347   17.8713   18.5310 O   0  0  0  0  0  0  0  0  0  0  0  0
    1.6086   20.2577   19.3695 C   0  0  0  0  0  0  0  0  0  0  0  0
    1.6466   21.2045   18.3473 C   0  0  0  0  0  0  0  0  0  0  0  0
    2.6414   22.1829   18.3582 C   0  0  0  0  0  0  0  0  0  0  0  0
    3.6029   22.2232   19.3824 C   0  0  0  0  0  0  0  0  0  0  0  0
    4.6068   23.2039   19.4023 C   0  0  0  0  0  0  0  0  0  0  0  0
    5.5539   23.2358   20.4276 C   0  0  0  0  0  0  0  0  0  0  0  0
    5.5064   22.2904   21.4480 C   0  0  0  0  0  0  0  0  0  0  0  0
    4.5168   21.3065   21.4427 C   0  0  0  0  0  0  0  0  0  0  0  0
    3.5584   21.2593   20.4171 C   0  0  0  0  0  0  0  0  0  0  0  0
    2.5615   20.2736   20.3959 C   0  0  0  0  0  0  0  0  0  0  0  0
   -2.3894   17.7084   18.3981 C   0  0  0  0  0  0  0  0  0  0  0  0
   -1.8318   14.3445   16.6816 C   0  0  0  0  0  0  0  0  0  0  0  0
   -1.2317   13.6071   17.7072 C   0  0  0  0  0  0  0  0  0  0  0  0
   -0.9948   14.2020   18.9484 C   0  0  0  0  0  0  0  0  0  0  0  0
   -1.3682   15.5281   19.1734 C   0  0  0  0  0  0  0  0  0  0  0  0
   -1.9791   16.2771   18.1580 C   0  0  0  0  0  0  0  0  0  0  0  0
   -2.2005   15.6777   16.9093 C   0  0  0  0  0  0  0  0  0  0  0  0
   -2.9761   14.2791   14.5653 N   0  0  0  0  0  0  0  0  0  0  0  0
   -2.1111   13.7244   15.3522 C   0  0  0  0  0  0  0  0  0  0  0  0
   -1.4533   12.5935   14.9567 N   0  0  0  0  0  0  0  0  0  0  0  0
   -3.1690   13.8799   13.6863 H   0  0  0  0  0  0  0  0  0  0  0  0
   -1.6461   12.1938   14.0779 H   0  0  0  0  0  0  0  0  0  0  0  0
   -0.7868   12.1785   15.5507 H   0  0  0  0  0  0  0  0  0  0  0  0
 36 37  2  0
 37 38  1  0
 37 30  1  0
 30 31  2  0
 31 32  1  0
 32 33  2  0
 33 34  1  0
 34 29  1  0
  1 29  1  0
  1 14  1  0
 14 16  1  0
 16 17  2  0
 16 18  2  0
 16 19  1  0
 19 20  2  0
 20 21  1  0
 21 22  2  0
 22 23  1  0
 23 24  2  0
 24 25  1  0
 25 26  2  0
 26 27  1  0
 27 28  2  0
  1  2  1  0
  2  3  2  0
  2  4  1  0
  4  5  1  0
  5  6  1  0
  6  7  1  0
  7  8  1  0
  8  9  1  0
  9 10  1  0
 10 11  2  0
 10 12  1  0
 34 35  2  0
 35 30  1  0
 28 19  1  0
  9  4  1  0
 27 22  1  0
 36 39  1  0
 38 40  1  0
 38 41  1  0
 14 15  1  0
 12 13  1  0
M  END
> <minimizedAffinity>
-8.08866

> <CNNscore>
0.6553660035

> <CNNaffinity>
6.7738575935

> <CNN_VS>
4.4393558502

> <CNNaffinity_variance>
0.0088102585

$$$$



 41 44  0  0  0  0  0  0  0  0999 V2000
   -1.8154   19.2883   18.3961 C   0  0  0  0  0  0  0  0  0  0  0  0
   -0.6560   19.6438   19.3511 C   0  0  0  0  0  0  0  0  0  0  0  0
   -0.8380   19.5043   20.5701 O   0  0  0  0  0  0  0  0  0  0  0  0
    0.5380   20.1502   18.8545 N   0  0  0  0  0  0  0  0  0  0  0  0
    0.9744   20.0261   17.4588 C   0  0  0  0  0  0  0  0  0  0  0  0
    1.8227   21.2113   17.0123 C   0  0  0  0  0  0  0  0  0  0  0  0
    2.9759   21.4855   17.9692 C   0  0  0  0  0  0  0  0  0  0  0  0
    2.4669   21.6370   19.3995 C   0  0  0  0  0  0  0  0  0  0  0  0
    1.5940   20.4574   19.8443 C   0  0  0  0  0  0  0  0  0  0  0  0
    2.4713   19.2360   20.1399 C   0  0  0  0  0  0  0  0  0  0  0  0
    3.6669   19.2444   20.3896 O   0  0  0  0  0  0  0  0  0  0  0  0
    1.7869   18.0746   20.1140 O   0  0  0  0  0  0  0  0  0  0  0  0
    0.8699   18.0754   19.9218 H   0  0  0  0  0  0  0  0  0  0  0  0
   -2.2864   20.5824   17.8112 N   0  0  0  0  0  0  0  0  0  0  0  0
   -1.4926   20.9938   17.3203 H   0  0  0  0  0  0  0  0  0  0  0  0
   -3.5733   20.5755   16.7402 S   0  0  0  0  0  0  0  0  0  0  0  0
   -3.6845   21.9175   16.2123 O   0  0  0  0  0  0  0  0  0  0  0  0
   -3.4136   19.4280   15.8746 O   0  0  0  0  0  0  0  0  0  0  0  0
   -4.9877   20.3021   17.7748 C   0  0  0  0  0  0  0  0  0  0  0  0
   -5.9503   19.3620   17.4106 C   0  0  0  0  0  0  0  0  0  0  0  0
   -7.0896   19.2087   18.2014 C   0  0  0  0  0  0  0  0  0  0  0  0
   -7.2783   19.9893   19.3546 C   0  0  0  0  0  0  0  0  0  0  0  0
   -8.4207   19.8417   20.1566 C   0  0  0  0  0  0  0  0  0  0  0  0
   -8.5947   20.6205   21.3022 C   0  0  0  0  0  0  0  0  0  0  0  0
   -7.6267   21.5535   21.6625 C   0  0  0  0  0  0  0  0  0  0  0  0
   -6.4859   21.7155   20.8754 C   0  0  0  0  0  0  0  0  0  0  0  0
   -6.2973   20.9416   19.7186 C   0  0  0  0  0  0  0  0  0  0  0  0
   -5.1587   21.0969   18.9153 C   0  0  0  0  0  0  0  0  0  0  0  0
   -1.2915   18.4398   17.2209 C   0  0  0  0  0  0  0  0  0  0  0  0
   -1.7804   14.7108   16.5664 C   0  0  0  0  0  0  0  0  0  0  0  0
   -1.4393   14.1653   17.8082 C   0  0  0  0  0  0  0  0  0  0  0  0
   -1.0379   15.0022   18.8519 C   0  0  0  0  0  0  0  0  0  0  0  0
   -0.9892   16.3844   18.6636 C   0  0  0  0  0  0  0  0  0  0  0  0
   -1.3371   16.9465   17.4274 C   0  0  0  0  0  0  0  0  0  0  0  0
   -1.7251   16.0990   16.3793 C   0  0  0  0  0  0  0  0  0  0  0  0
   -3.1857   14.2433   14.6694 N   0  0  0  0  0  0  0  0  0  0  0  0
   -2.2294   13.8375   15.4415 C   0  0  0  0  0  0  0  0  0  0  0  0
   -1.6320   12.6297   15.2131 N   0  0  0  0  0  0  0  0  0  0  0  0
   -3.4907   13.6767   13.9243 H   0  0  0  0  0  0  0  0  0  0  0  0
   -1.9369   12.0627   14.4683 H   0  0  0  0  0  0  0  0  0  0  0  0
   -0.8967   12.3266   15.7935 H   0  0  0  0  0  0  0  0  0  0  0  0
 36 37  2  0
 37 38  1  0
 37 30  1  0
 30 31  2  0
 31 32  1  0
 32 33  2  0
 33 34  1  0
 34 29  1  0
  1 29  1  0
  1 14  1  0
 14 16  1  0
 16 17  2  0
 16 18  2  0
 16 19  1  0
 19 20  2  0
 20 21  1  0
 21 22  2  0
 22 23  1  0
 23 24  2  0
 24 25  1  0
 25 26  2  0
 26 27  1  0
 27 28  2  0
  1  2  1  0
  2  3  2  0
  2  4  1  0
  4  5  1  0
  5  6  1  0
  6  7  1  0
  7  8  1  0
  8  9  1  0
  9 10  1  0
 10 11  2  0
 10 12  1  0
 34 35  2  0
 35 30  1  0
 28 19  1  0
  9  4  1  0
 27 22  1  0
 36 39  1  0
 38 40  1  0
 38 41  1  0
 14 15  1  0
 12 13  1  0
M  END
> <minimizedAffinity>
-8.81816

> <CNNscore>
0.6114424467

> <CNNaffinity>
7.0847091675

> <CNN_VS>
4.3318920135

> <CNNaffinity_variance>
0.0678127185

$$$$



 41 44  0  0  0  0  0  0  0  0999 V2000
   -0.9049   18.7141   18.3794 C   0  0  0  0  0  0  0  0  0  0  0  0
   -1.1056   20.0246   17.5890 C   0  0  0  0  0  0  0  0  0  0  0  0
   -0.2054   20.8768   17.6304 O   0  0  0  0  0  0  0  0  0  0  0  0
   -2.2845   20.2554   16.8919 N   0  0  0  0  0  0  0  0  0  0  0  0
   -3.2330   19.2074   16.4972 C   0  0  0  0  0  0  0  0  0  0  0  0
   -4.6705   19.7136   16.4637 C   0  0  0  0  0  0  0  0  0  0  0  0
   -4.8136   20.9825   15.6331 C   0  0  0  0  0  0  0  0  0  0  0  0
   -3.8292   22.0496   16.1025 C   0  0  0  0  0  0  0  0  0  0  0  0
   -2.3851   21.5372   16.1596 C   0  0  0  0  0  0  0  0  0  0  0  0
   -1.8079   21.4318   14.7438 C   0  0  0  0  0  0  0  0  0  0  0  0
   -2.4434   21.4052   13.7009 O   0  0  0  0  0  0  0  0  0  0  0  0
   -0.4609   21.3768   14.7245 O   0  0  0  0  0  0  0  0  0  0  0  0
    0.0204   21.3976   15.5282 H   0  0  0  0  0  0  0  0  0  0  0  0
   -0.8414   19.1025   19.8229 N   0  0  0  0  0  0  0  0  0  0  0  0
   -1.7528   18.8902   20.2288 H   0  0  0  0  0  0  0  0  0  0  0  0
    0.3105   18.3945   20.8104 S   0  0  0  0  0  0  0  0  0  0  0  0
   -0.2503   18.3531   22.1430 O   0  0  0  0  0  0  0  0  0  0  0  0
    0.7800   17.1996   20.1448 O   0  0  0  0  0  0  0  0  0  0  0  0
    1.6335   19.5755   20.8368 C   0  0  0  0  0  0  0  0  0  0  0  0
    2.4732   19.7109   19.7325 C   0  0  0  0  0  0  0  0  0  0  0  0
    3.5497   20.5963   19.7967 C   0  0  0  0  0  0  0  0  0  0  0  0
    3.7975   21.3484   20.9577 C   0  0  0  0  0  0  0  0  0  0  0  0
    4.8773   22.2421   21.0314 C   0  0  0  0  0  0  0  0  0  0  0  0
    5.1105   22.9866   22.1891 C   0  0  0  0  0  0  0  0  0  0  0  0
    4.2646   22.8502   23.2860 C   0  0  0  0  0  0  0  0  0  0  0  0
    3.1877   21.9643   23.2312 C   0  0  0  0  0  0  0  0  0  0  0  0
    2.9411   21.2063   22.0749 C   0  0  0  0  0  0  0  0  0  0  0  0
    1.8662   20.3087   22.0072 C   0  0  0  0  0  0  0  0  0  0  0  0
   -2.1411   17.8069   18.2224 C   0  0  0  0  0  0  0  0  0  0  0  0
   -1.7743   14.3757   16.5901 C   0  0  0  0  0  0  0  0  0  0  0  0
   -1.3227   13.6047   17.6660 C   0  0  0  0  0  0  0  0  0  0  0  0
   -1.1236   14.1976   18.9148 C   0  0  0  0  0  0  0  0  0  0  0  0
   -1.3873   15.5562   19.0963 C   0  0  0  0  0  0  0  0  0  0  0  0
   -1.8494   16.3399   18.0297 C   0  0  0  0  0  0  0  0  0  0  0  0
   -2.0330   15.7410   16.7747 C   0  0  0  0  0  0  0  0  0  0  0  0
   -1.6650   12.5291   15.0504 N   0  0  0  0  0  0  0  0  0  0  0  0
   -2.0114   13.7600   15.2505 C   0  0  0  0  0  0  0  0  0  0  0  0
   -2.6016   14.4761   14.2470 N   0  0  0  0  0  0  0  0  0  0  0  0
   -1.8161   12.1118   14.1716 H   0  0  0  0  0  0  0  0  0  0  0  0
   -2.7527   14.0592   13.3680 H   0  0  0  0  0  0  0  0  0  0  0  0
   -2.8757   15.4087   14.4032 H   0  0  0  0  0  0  0  0  0  0  0  0
 36 37  2  0
 37 38  1  0
 37 30  1  0
 30 31  2  0
 31 32  1  0
 32 33  2  0
 33 34  1  0
 34 29  1  0
  1 29  1  0
  1 14  1  0
 14 16  1  0
 16 17  2  0
 16 18  2  0
 16 19  1  0
 19 20  2  0
 20 21  1  0
 21 22  2  0
 22 23  1  0
 23 24  2  0
 24 25  1  0
 25 26  2  0
 26 27  1  0
 27 28  2  0
  1  2  1  0
  2  3  2  0
  2  4  1  0
  4  5  1  0
  5  6  1  0
  6  7  1  0
  7  8  1  0
  8  9  1  0
  9 10  1  0
 10 11  2  0
 10 12  1  0
 34 35  2  0
 35 30  1  0
 28 19  1  0
  9  4  1  0
 27 22  1  0
 36 39  1  0
 38 40  1  0
 38 41  1  0
 14 15  1  0
 12 13  1  0
M  END
> <minimizedAffinity>
-8.66258

> <CNNscore>
0.5755487084

> <CNNaffinity>
6.8226246834

> <CNN_VS>
3.9267528057

> <CNNaffinity_variance>
0.1115146056

$$$$
