


 22 25  0  0  0  0  0  0  0  0999 V2000
  104.5464   23.1335   34.7780 O   0  0  0  0  0  0  0  0  0  0  0  0
  103.3952   22.6183   35.4196 C   0  0  0  0  0  0  0  0  0  0  0  0
  102.6808   23.7663   36.1343 C   0  0  0  0  0  0  0  0  0  0  0  0
  101.9700   24.8335   35.6060 C   0  0  0  0  0  0  0  0  0  0  0  0
  101.4448   25.7765   36.4984 C   0  0  0  0  0  0  0  0  0  0  0  0
  101.6456   25.6475   37.8848 C   0  0  0  0  0  0  0  0  0  0  0  0
  101.1336   26.5779   38.7016 F   0  0  0  0  0  0  0  0  0  0  0  0
  102.3643   24.5897   38.4276 C   0  0  0  0  0  0  0  0  0  0  0  0
  102.8554   23.6701   37.5300 C   0  0  0  0  0  0  0  0  0  0  0  0
  103.6623   22.4878   37.7284 C   0  0  0  0  0  0  0  0  0  0  0  0
  104.3049   22.0673   38.7749 N   0  0  0  0  0  0  0  0  0  0  0  0
  105.0315   20.8648   38.2129 C   0  0  0  0  0  0  0  0  0  0  0  0
  104.9341   20.9499   36.6643 C   0  0  0  0  0  0  0  0  0  0  0  0
  103.7995   21.8144   36.5509 N   0  0  0  0  0  0  0  0  0  0  0  0
  104.2786   23.6737   34.0182 H   0  0  0  0  0  0  0  0  0  0  0  0
  102.5078   21.8320   34.4666 C   0  0  0  0  0  0  0  0  0  0  0  0
  101.3999   21.1029   34.9446 C   0  0  0  0  0  0  0  0  0  0  0  0
  100.5697   20.3946   34.0710 C   0  0  0  0  0  0  0  0  0  0  0  0
  100.8333   20.4074   32.7046 C   0  0  0  0  0  0  0  0  0  0  0  0
   99.8128   19.5370   31.6277 Cl  0  0  0  0  0  0  0  0  0  0  0  0
  101.9182   21.1221   32.2050 C   0  0  0  0  0  0  0  0  0  0  0  0
  102.7478   21.8305   33.0799 C   0  0  0  0  0  0  0  0  0  0  0  0
  2  1  1  0
  2 16  1  0
 16 17  2  0
 17 18  1  0
 18 19  2  0
 19 20  1  0
 19 21  1  0
 21 22  2  0
  2  3  1  0
  3  4  2  0
  4  5  1  0
  5  6  2  0
  6  7  1  0
  6  8  1  0
  8  9  2  0
  9 10  1  0
 10 11  2  0
 11 12  1  0
 12 13  1  0
 13 14  1  0
 14  2  1  0
 22 16  1  0
  9  3  1  0
 14 10  1  0
  1 15  1  0
M  END
> <minimizedAffinity>
-10.13240

> <CNNscore>
0.9316776395

> <CNNaffinity>
6.5942339897

> <CNN_VS>
6.1437001228

> <CNNaffinity_variance>
0.0379110835

$$$$



 22 25  0  0  0  0  0  0  0  0999 V2000
  102.4414   32.2961   35.3119 O   0  0  0  0  0  0  0  0  0  0  0  0
  102.7501   31.4544   34.2172 C   0  0  0  0  0  0  0  0  0  0  0  0
  104.2599   31.5008   33.9773 C   0  0  0  0  0  0  0  0  0  0  0  0
  105.2945   30.9759   34.7370 C   0  0  0  0  0  0  0  0  0  0  0  0
  106.6065   31.2017   34.3019 C   0  0  0  0  0  0  0  0  0  0  0  0
  106.8616   31.9487   33.1374 C   0  0  0  0  0  0  0  0  0  0  0  0
  108.1324   32.1485   32.7629 F   0  0  0  0  0  0  0  0  0  0  0  0
  105.8359   32.4895   32.3722 C   0  0  0  0  0  0  0  0  0  0  0  0
  104.5572   32.2393   32.8137 C   0  0  0  0  0  0  0  0  0  0  0  0
  103.2755   32.6660   32.3001 C   0  0  0  0  0  0  0  0  0  0  0  0
  102.9767   33.5516   31.3994 N   0  0  0  0  0  0  0  0  0  0  0  0
  101.4662   33.5671   31.4891 C   0  0  0  0  0  0  0  0  0  0  0  0
  101.0746   32.8231   32.7959 C   0  0  0  0  0  0  0  0  0  0  0  0
  102.2704   32.0637   32.9972 N   0  0  0  0  0  0  0  0  0  0  0  0
  102.7621   31.8901   36.1324 H   0  0  0  0  0  0  0  0  0  0  0  0
  102.1925   30.0502   34.3949 C   0  0  0  0  0  0  0  0  0  0  0  0
  101.9418   29.2247   33.2799 C   0  0  0  0  0  0  0  0  0  0  0  0
  101.4479   27.9266   33.4386 C   0  0  0  0  0  0  0  0  0  0  0  0
  101.2001   27.4330   34.7159 C   0  0  0  0  0  0  0  0  0  0  0  0
  100.5928   25.8359   34.9135 Cl  0  0  0  0  0  0  0  0  0  0  0  0
  101.4423   28.2251   35.8345 C   0  0  0  0  0  0  0  0  0  0  0  0
  101.9366   29.5234   35.6745 C   0  0  0  0  0  0  0  0  0  0  0  0
  2  1  1  0
  2 16  1  0
 16 17  2  0
 17 18  1  0
 18 19  2  0
 19 20  1  0
 19 21  1  0
 21 22  2  0
  2  3  1  0
  3  4  2  0
  4  5  1  0
  5  6  2  0
  6  7  1  0
  6  8  1  0
  8  9  2  0
  9 10  1  0
 10 11  2  0
 11 12  1  0
 12 13  1  0
 13 14  1  0
 14  2  1  0
 22 16  1  0
  9  3  1  0
 14 10  1  0
  1 15  1  0
M  END
> <minimizedAffinity>
-6.85818

> <CNNscore>
0.7641136050

> <CNNaffinity>
5.3057084084

> <CNN_VS>
4.0541639328

> <CNNaffinity_variance>
0.1041225418

$$$$



 22 25  0  0  0  0  0  0  0  0999 V2000
  103.7110   30.3817   36.4498 O   0  0  0  0  0  0  0  0  0  0  0  0
  102.9774   30.0604   35.2833 C   0  0  0  0  0  0  0  0  0  0  0  0
  103.7818   30.5094   34.0625 C   0  0  0  0  0  0  0  0  0  0  0  0
  104.9516   29.9875   33.5310 C   0  0  0  0  0  0  0  0  0  0  0  0
  105.5055   30.6258   32.4142 C   0  0  0  0  0  0  0  0  0  0  0  0
  104.8976   31.7674   31.8608 C   0  0  0  0  0  0  0  0  0  0  0  0
  105.4667   32.3521   30.7981 F   0  0  0  0  0  0  0  0  0  0  0  0
  103.7316   32.3076   32.3888 C   0  0  0  0  0  0  0  0  0  0  0  0
  103.2007   31.6519   33.4754 C   0  0  0  0  0  0  0  0  0  0  0  0
  102.0424   31.9456   34.2881 C   0  0  0  0  0  0  0  0  0  0  0  0
  101.2919   33.0033   34.3415 N   0  0  0  0  0  0  0  0  0  0  0  0
  100.3826   32.6630   35.5022 C   0  0  0  0  0  0  0  0  0  0  0  0
  101.0093   31.4454   36.2367 C   0  0  0  0  0  0  0  0  0  0  0  0
  101.8333   30.9382   35.1827 N   0  0  0  0  0  0  0  0  0  0  0  0
  104.4797   29.7943   36.5204 H   0  0  0  0  0  0  0  0  0  0  0  0
  102.5614   28.5975   35.2490 C   0  0  0  0  0  0  0  0  0  0  0  0
  103.2700   27.6261   35.9851 C   0  0  0  0  0  0  0  0  0  0  0  0
  102.8802   26.2838   35.9726 C   0  0  0  0  0  0  0  0  0  0  0  0
  101.7729   25.8928   35.2259 C   0  0  0  0  0  0  0  0  0  0  0  0
  101.2911   24.2416   35.2096 Cl  0  0  0  0  0  0  0  0  0  0  0  0
  101.0526   26.8316   34.4930 C   0  0  0  0  0  0  0  0  0  0  0  0
  101.4434   28.1742   34.5064 C   0  0  0  0  0  0  0  0  0  0  0  0
  2  1  1  0
  2 16  1  0
 16 17  2  0
 17 18  1  0
 18 19  2  0
 19 20  1  0
 19 21  1  0
 21 22  2  0
  2  3  1  0
  3  4  2  0
  4  5  1  0
  5  6  2  0
  6  7  1  0
  6  8  1  0
  8  9  2  0
  9 10  1  0
 10 11  2  0
 11 12  1  0
 12 13  1  0
 13 14  1  0
 14  2  1  0
 22 16  1  0
  9  3  1  0
 14 10  1  0
  1 15  1  0
M  END
> <minimizedAffinity>
-7.03985

> <CNNscore>
0.6670134664

> <CNNaffinity>
5.1313591003

> <CNN_VS>
3.4226856232

> <CNNaffinity_variance>
0.0622581057

$$$$



 22 25  0  0  0  0  0  0  0  0999 V2000
  102.8318   31.6240   35.7766 O   0  0  0  0  0  0  0  0  0  0  0  0
  102.3804   30.9986   34.5904 C   0  0  0  0  0  0  0  0  0  0  0  0
  103.3941   31.2731   33.4786 C   0  0  0  0  0  0  0  0  0  0  0  0
  104.6789   30.7795   33.3092 C   0  0  0  0  0  0  0  0  0  0  0  0
  105.4148   31.2331   32.2072 C   0  0  0  0  0  0  0  0  0  0  0  0
  104.8680   32.1693   31.3108 C   0  0  0  0  0  0  0  0  0  0  0  0
  105.6107   32.5832   30.2754 F   0  0  0  0  0  0  0  0  0  0  0  0
  103.5864   32.6804   31.4736 C   0  0  0  0  0  0  0  0  0  0  0  0
  102.8804   32.2062   32.5549 C   0  0  0  0  0  0  0  0  0  0  0  0
  101.5616   32.5356   33.0455 C   0  0  0  0  0  0  0  0  0  0  0  0
  100.7535   33.4980   32.7207 N   0  0  0  0  0  0  0  0  0  0  0  0
   99.6434   33.3063   33.7310 C   0  0  0  0  0  0  0  0  0  0  0  0
  100.1752   32.3346   34.8209 C   0  0  0  0  0  0  0  0  0  0  0  0
  101.2314   31.7136   34.0820 N   0  0  0  0  0  0  0  0  0  0  0  0
  103.6030   31.1465   36.1205 H   0  0  0  0  0  0  0  0  0  0  0  0
  102.0709   29.5238   34.7984 C   0  0  0  0  0  0  0  0  0  0  0  0
  102.4110   28.8759   36.0035 C   0  0  0  0  0  0  0  0  0  0  0  0
  102.1114   27.5259   36.2074 C   0  0  0  0  0  0  0  0  0  0  0  0
  101.4637   26.8036   35.2098 C   0  0  0  0  0  0  0  0  0  0  0  0
  101.0935   25.1423   35.4588 Cl  0  0  0  0  0  0  0  0  0  0  0  0
  101.1128   27.4192   34.0117 C   0  0  0  0  0  0  0  0  0  0  0  0
  101.4129   28.7698   33.8089 C   0  0  0  0  0  0  0  0  0  0  0  0
  2  1  1  0
  2 16  1  0
 16 17  2  0
 17 18  1  0
 18 19  2  0
 19 20  1  0
 19 21  1  0
 21 22  2  0
  2  3  1  0
  3  4  2  0
  4  5  1  0
  5  6  2  0
  6  7  1  0
  6  8  1  0
  8  9  2  0
  9 10  1  0
 10 11  2  0
 11 12  1  0
 12 13  1  0
 13 14  1  0
 14  2  1  0
 22 16  1  0
  9  3  1  0
 14 10  1  0
  1 15  1  0
M  END
> <minimizedAffinity>
-6.72604

> <CNNscore>
0.5971349478

> <CNNaffinity>
5.0029430389

> <CNN_VS>
2.9874322414

> <CNNaffinity_variance>
0.1984610111

$$$$



 22 25  0  0  0  0  0  0  0  0999 V2000
  102.6901   31.2786   36.7419 O   0  0  0  0  0  0  0  0  0  0  0  0
  103.0661   30.2827   35.8097 C   0  0  0  0  0  0  0  0  0  0  0  0
  104.4474   30.6321   35.2538 C   0  0  0  0  0  0  0  0  0  0  0  0
  105.6878   30.5919   35.8727 C   0  0  0  0  0  0  0  0  0  0  0  0
  106.8021   31.0097   35.1341 C   0  0  0  0  0  0  0  0  0  0  0  0
  106.6603   31.4667   33.8112 C   0  0  0  0  0  0  0  0  0  0  0  0
  107.7518   31.8660   33.1446 F   0  0  0  0  0  0  0  0  0  0  0  0
  105.4230   31.5225   33.1819 C   0  0  0  0  0  0  0  0  0  0  0  0
  104.3482   31.0916   33.9247 C   0  0  0  0  0  0  0  0  0  0  0  0
  102.9377   31.0438   33.6135 C   0  0  0  0  0  0  0  0  0  0  0  0
  102.2699   31.5638   32.6294 N   0  0  0  0  0  0  0  0  0  0  0  0
  100.8483   31.2331   33.0289 C   0  0  0  0  0  0  0  0  0  0  0  0
  100.8805   30.7826   34.5158 C   0  0  0  0  0  0  0  0  0  0  0  0
  102.2602   30.4173   34.6172 N   0  0  0  0  0  0  0  0  0  0  0  0
  103.2291   31.1911   37.5436 H   0  0  0  0  0  0  0  0  0  0  0  0
  102.9677   28.8811   36.3928 C   0  0  0  0  0  0  0  0  0  0  0  0
  102.7975   28.6840   37.7784 C   0  0  0  0  0  0  0  0  0  0  0  0
  102.6869   27.3989   38.3171 C   0  0  0  0  0  0  0  0  0  0  0  0
  102.7415   26.2907   37.4773 C   0  0  0  0  0  0  0  0  0  0  0  0
  102.6051   24.7083   38.1379 Cl  0  0  0  0  0  0  0  0  0  0  0  0
  102.9050   26.4564   36.1049 C   0  0  0  0  0  0  0  0  0  0  0  0
  103.0153   27.7425   35.5672 C   0  0  0  0  0  0  0  0  0  0  0  0
  2  1  1  0
  2 16  1  0
 16 17  2  0
 17 18  1  0
 18 19  2  0
 19 20  1  0
 19 21  1  0
 21 22  2  0
  2  3  1  0
  3  4  2  0
  4  5  1  0
  5  6  2  0
  6  7  1  0
  6  8  1  0
  8  9  2  0
  9 10  1  0
 10 11  2  0
 11 12  1  0
 12 13  1  0
 13 14  1  0
 14  2  1  0
 22 16  1  0
  9  3  1  0
 14 10  1  0
  1 15  1  0
M  END
> <minimizedAffinity>
-7.00630

> <CNNscore>
0.5328348875

> <CNNaffinity>
5.1148352623

> <CNN_VS>
2.7253627777

> <CNNaffinity_variance>
0.0223872755

$$$$



 22 25  0  0  0  0  0  0  0  0999 V2000
  101.7205   23.1391   37.6679 O   0  0  0  0  0  0  0  0  0  0  0  0
  102.8266   23.5484   36.8860 C   0  0  0  0  0  0  0  0  0  0  0  0
  102.6965   22.9268   35.4947 C   0  0  0  0  0  0  0  0  0  0  0  0
  101.8038   23.2175   34.4741 C   0  0  0  0  0  0  0  0  0  0  0  0
  101.8805   22.4571   33.3004 C   0  0  0  0  0  0  0  0  0  0  0  0
  102.8266   21.4240   33.1710 C   0  0  0  0  0  0  0  0  0  0  0  0
  102.8587   20.7153   32.0344 F   0  0  0  0  0  0  0  0  0  0  0  0
  103.7201   21.1145   34.1888 C   0  0  0  0  0  0  0  0  0  0  0  0
  103.6332   21.8870   35.3238 C   0  0  0  0  0  0  0  0  0  0  0  0
  104.3622   21.8276   36.5702 C   0  0  0  0  0  0  0  0  0  0  0  0
  105.1637   20.9209   37.0397 N   0  0  0  0  0  0  0  0  0  0  0  0
  105.4288   21.4522   38.4316 C   0  0  0  0  0  0  0  0  0  0  0  0
  104.3776   22.5624   38.7090 C   0  0  0  0  0  0  0  0  0  0  0  0
  104.0187   22.8834   37.3616 N   0  0  0  0  0  0  0  0  0  0  0  0
  100.9186   23.5837   37.3513 H   0  0  0  0  0  0  0  0  0  0  0  0
  102.9982   25.0599   36.8773 C   0  0  0  0  0  0  0  0  0  0  0  0
  103.1707   25.7756   38.0796 C   0  0  0  0  0  0  0  0  0  0  0  0
  103.3484   27.1621   38.0758 C   0  0  0  0  0  0  0  0  0  0  0  0
  103.3595   27.8540   36.8685 C   0  0  0  0  0  0  0  0  0  0  0  0
  103.5785   29.5601   36.8615 Cl  0  0  0  0  0  0  0  0  0  0  0  0
  103.1953   27.1720   35.6663 C   0  0  0  0  0  0  0  0  0  0  0  0
  103.0178   25.7849   35.6713 C   0  0  0  0  0  0  0  0  0  0  0  0
  2  1  1  0
  2 16  1  0
 16 17  2  0
 17 18  1  0
 18 19  2  0
 19 20  1  0
 19 21  1  0
 21 22  2  0
  2  3  1  0
  3  4  2  0
  4  5  1  0
  5  6  2  0
  6  7  1  0
  6  8  1  0
  8  9  2  0
  9 10  1  0
 10 11  2  0
 11 12  1  0
 12 13  1  0
 13 14  1  0
 14  2  1  0
 22 16  1  0
  9  3  1  0
 14 10  1  0
  1 15  1  0
M  END
> <minimizedAffinity>
-6.18722

> <CNNscore>
0.4974062443

> <CNNaffinity>
5.7061085701

> <CNN_VS>
2.8382539749

> <CNNaffinity_variance>
0.0188971404

$$$$



 22 25  0  0  0  0  0  0  0  0999 V2000
  102.8507   29.5604   37.8879 O   0  0  0  0  0  0  0  0  0  0  0  0
  103.5670   28.7454   36.9796 C   0  0  0  0  0  0  0  0  0  0  0  0
  102.5638   27.9501   36.1430 C   0  0  0  0  0  0  0  0  0  0  0  0
  101.6981   28.3827   35.1497 C   0  0  0  0  0  0  0  0  0  0  0  0
  100.8463   27.4367   34.5656 C   0  0  0  0  0  0  0  0  0  0  0  0
  100.8633   26.0942   34.9857 C   0  0  0  0  0  0  0  0  0  0  0  0
  100.0247   25.2247   34.4063 F   0  0  0  0  0  0  0  0  0  0  0  0
  101.7175   25.6486   35.9867 C   0  0  0  0  0  0  0  0  0  0  0  0
  102.5539   26.5949   36.5320 C   0  0  0  0  0  0  0  0  0  0  0  0
  103.5273   26.5010   37.5960 C   0  0  0  0  0  0  0  0  0  0  0  0
  103.7514   25.5561   38.4572 N   0  0  0  0  0  0  0  0  0  0  0  0
  104.7980   26.2015   39.3393 C   0  0  0  0  0  0  0  0  0  0  0  0
  104.8096   27.7191   39.0053 C   0  0  0  0  0  0  0  0  0  0  0  0
  104.2119   27.6749   37.7061 N   0  0  0  0  0  0  0  0  0  0  0  0
  102.4166   30.2800   37.4035 H   0  0  0  0  0  0  0  0  0  0  0  0
  104.5683   29.5421   36.1569 C   0  0  0  0  0  0  0  0  0  0  0  0
  104.7645   29.2644   34.7887 C   0  0  0  0  0  0  0  0  0  0  0  0
  105.6690   30.0061   34.0234 C   0  0  0  0  0  0  0  0  0  0  0  0
  106.3892   31.0398   34.6145 C   0  0  0  0  0  0  0  0  0  0  0  0
  107.5024   31.9542   33.6746 Cl  0  0  0  0  0  0  0  0  0  0  0  0
  106.2123   31.3381   35.9625 C   0  0  0  0  0  0  0  0  0  0  0  0
  105.3070   30.5955   36.7270 C   0  0  0  0  0  0  0  0  0  0  0  0
  2  1  1  0
  2 16  1  0
 16 17  2  0
 17 18  1  0
 18 19  2  0
 19 20  1  0
 19 21  1  0
 21 22  2  0
  2  3  1  0
  3  4  2  0
  4  5  1  0
  5  6  2  0
  6  7  1  0
  6  8  1  0
  8  9  2  0
  9 10  1  0
 10 11  2  0
 11 12  1  0
 12 13  1  0
 13 14  1  0
 14  2  1  0
 22 16  1  0
  9  3  1  0
 14 10  1  0
  1 15  1  0
M  END
> <minimizedAffinity>
-7.22468

> <CNNscore>
0.4910185039

> <CNNaffinity>
5.1122450829

> <CNN_VS>
2.5102069378

> <CNNaffinity_variance>
0.0825864300

$$$$



 22 25  0  0  0  0  0  0  0  0999 V2000
  100.9596   29.7293   36.3329 O   0  0  0  0  0  0  0  0  0  0  0  0
  101.8944   29.1685   35.4309 C   0  0  0  0  0  0  0  0  0  0  0  0
  103.2864   29.6972   35.7802 C   0  0  0  0  0  0  0  0  0  0  0  0
  104.0940   29.4138   36.8713 C   0  0  0  0  0  0  0  0  0  0  0  0
  105.3234   30.0778   36.9663 C   0  0  0  0  0  0  0  0  0  0  0  0
  105.7163   31.0112   35.9897 C   0  0  0  0  0  0  0  0  0  0  0  0
  106.8967   31.6304   36.1250 F   0  0  0  0  0  0  0  0  0  0  0  0
  104.9133   31.3129   34.8969 C   0  0  0  0  0  0  0  0  0  0  0  0
  103.7187   30.6350   34.8203 C   0  0  0  0  0  0  0  0  0  0  0  0
  102.6394   30.7194   33.8629 C   0  0  0  0  0  0  0  0  0  0  0  0
  102.4082   31.5830   32.9219 N   0  0  0  0  0  0  0  0  0  0  0  0
  101.0487   31.1321   32.4336 C   0  0  0  0  0  0  0  0  0  0  0  0
  100.4848   30.1421   33.4903 C   0  0  0  0  0  0  0  0  0  0  0  0
  101.7087   29.7579   34.1241 N   0  0  0  0  0  0  0  0  0  0  0  0
  101.0815   29.3358   37.2111 H   0  0  0  0  0  0  0  0  0  0  0  0
  101.8025   27.6510   35.3753 C   0  0  0  0  0  0  0  0  0  0  0  0
  100.7812   27.0143   34.6410 C   0  0  0  0  0  0  0  0  0  0  0  0
  100.7037   25.6203   34.5706 C   0  0  0  0  0  0  0  0  0  0  0  0
  101.6489   24.8415   35.2312 C   0  0  0  0  0  0  0  0  0  0  0  0
  101.5558   23.1260   35.1454 Cl  0  0  0  0  0  0  0  0  0  0  0  0
  102.6702   25.4439   35.9602 C   0  0  0  0  0  0  0  0  0  0  0  0
  102.7469   26.8385   36.0298 C   0  0  0  0  0  0  0  0  0  0  0  0
  2  1  1  0
  2 16  1  0
 16 17  2  0
 17 18  1  0
 18 19  2  0
 19 20  1  0
 19 21  1  0
 21 22  2  0
  2  3  1  0
  3  4  2  0
  4  5  1  0
  5  6  2  0
  6  7  1  0
  6  8  1  0
  8  9  2  0
  9 10  1  0
 10 11  2  0
 11 12  1  0
 12 13  1  0
 13 14  1  0
 14  2  1  0
 22 16  1  0
  9  3  1  0
 14 10  1  0
  1 15  1  0
M  END
> <minimizedAffinity>
-6.79140

> <CNNscore>
0.4787543416

> <CNNaffinity>
4.9960999489

> <CNN_VS>
2.3919045925

> <CNNaffinity_variance>
0.1834796071

$$$$



 22 25  0  0  0  0  0  0  0  0999 V2000
  103.8410   32.4302   37.4012 O   0  0  0  0  0  0  0  0  0  0  0  0
  103.7885   31.4201   36.4117 C   0  0  0  0  0  0  0  0  0  0  0  0
  105.0463   31.5188   35.5473 C   0  0  0  0  0  0  0  0  0  0  0  0
  106.3626   31.2141   35.8598 C   0  0  0  0  0  0  0  0  0  0  0  0
  107.3375   31.4391   34.8797 C   0  0  0  0  0  0  0  0  0  0  0  0
  106.9889   31.9696   33.6242 C   0  0  0  0  0  0  0  0  0  0  0  0
  107.9549   32.1779   32.7195 F   0  0  0  0  0  0  0  0  0  0  0  0
  105.6762   32.2894   33.3008 C   0  0  0  0  0  0  0  0  0  0  0  0
  104.7373   32.0438   34.2758 C   0  0  0  0  0  0  0  0  0  0  0  0
  103.3122   32.2823   34.3025 C   0  0  0  0  0  0  0  0  0  0  0  0
  102.5525   32.9620   33.4990 N   0  0  0  0  0  0  0  0  0  0  0  0
  101.2241   32.8959   34.2207 C   0  0  0  0  0  0  0  0  0  0  0  0
  101.5072   32.3861   35.6611 C   0  0  0  0  0  0  0  0  0  0  0  0
  102.7733   31.7574   35.4395 N   0  0  0  0  0  0  0  0  0  0  0  0
  104.5215   32.2069   38.0554 H   0  0  0  0  0  0  0  0  0  0  0  0
  103.5517   30.0409   37.0083 C   0  0  0  0  0  0  0  0  0  0  0  0
  104.5728   29.0688   37.0117 C   0  0  0  0  0  0  0  0  0  0  0  0
  104.3668   27.8067   37.5761 C   0  0  0  0  0  0  0  0  0  0  0  0
  103.1367   27.4984   38.1490 C   0  0  0  0  0  0  0  0  0  0  0  0
  102.8811   25.9461   38.8446 Cl  0  0  0  0  0  0  0  0  0  0  0  0
  102.1122   28.4406   38.1629 C   0  0  0  0  0  0  0  0  0  0  0  0
  102.3195   29.7030   37.5982 C   0  0  0  0  0  0  0  0  0  0  0  0
  2  1  1  0
  2 16  1  0
 16 17  2  0
 17 18  1  0
 18 19  2  0
 19 20  1  0
 19 21  1  0
 21 22  2  0
  2  3  1  0
  3  4  2  0
  4  5  1  0
  5  6  2  0
  6  7  1  0
  6  8  1  0
  8  9  2  0
  9 10  1  0
 10 11  2  0
 11 12  1  0
 12 13  1  0
 13 14  1  0
 14  2  1  0
 22 16  1  0
  9  3  1  0
 14 10  1  0
  1 15  1  0
M  END
> <minimizedAffinity>
-7.00631

> <CNNscore>
0.4396411479

> <CNNaffinity>
4.6745734215

> <CNN_VS>
2.0551347733

> <CNNaffinity_variance>
0.1864992380

$$$$
