


 31 31  0  0  0  0  0  0  0  0999 V2000
   38.2116   38.5634   -3.1201 C   0  0  0  0  0  0  0  0  0  0  0  0
   37.6740   40.9766   -3.2484 C   0  0  0  0  0  0  0  0  0  0  0  0
   38.8244   41.2573   -3.5725 O   0  0  0  0  0  0  0  0  0  0  0  0
   37.3091   39.6943   -2.8706 N   0  0  0  0  0  0  0  0  0  0  0  0
   36.4406   39.5409   -2.4330 H   0  0  0  0  0  0  0  0  0  0  0  0
   36.5042   41.9696   -3.2446 C   0  0  0  0  0  0  0  0  0  0  0  0
   35.7058   42.0759   -4.8819 S   0  0  0  0  0  0  0  0  0  0  0  0
   35.1653   40.8696   -5.2018 H   0  0  0  0  0  0  0  0  0  0  0  0
   35.5246   41.7116   -2.0859 C   0  0  0  0  0  0  0  0  0  0  0  0
   35.5974   42.6443   -0.8666 C   0  0  0  0  0  0  0  0  0  0  0  0
   36.7817   43.6104   -0.7984 C   0  0  0  0  0  0  0  0  0  0  0  0
   37.4546   42.2453    1.2510 C   0  0  0  0  0  0  0  0  0  0  0  0
   37.8995   43.2211    0.1724 C   0  0  0  0  0  0  0  0  0  0  0  0
   37.9908   37.5825   -1.9479 C   0  0  0  0  0  0  0  0  0  0  0  0
   37.0796   37.7386   -1.1323 O   0  0  0  0  0  0  0  0  0  0  0  0
   38.8861   36.5394   -1.8679 N   0  0  0  0  0  0  0  0  0  0  0  0
   39.5678   36.4259   -2.5691 H   0  0  0  0  0  0  0  0  0  0  0  0
   38.8322   35.5990   -0.7495 C   0  0  0  0  0  0  0  0  0  0  0  0
   38.1720   34.2999   -1.1874 C   0  0  0  0  0  0  0  0  0  0  0  0
   40.2412   35.3133   -0.2256 C   0  0  0  0  0  0  0  0  0  0  0  0
   41.1967   34.9074   -0.8700 O   0  0  0  0  0  0  0  0  0  0  0  0
   40.3588   35.5254    1.1020 O   0  0  0  0  0  0  0  0  0  0  0  0
   39.6243   35.8367    1.5936 H   0  0  0  0  0  0  0  0  0  0  0  0
   39.6668   39.0482   -3.1822 C   0  0  0  0  0  0  0  0  0  0  0  0
   40.5512   38.2082   -4.0758 C   0  0  0  0  0  0  0  0  0  0  0  0
   40.0023   37.4907   -5.1492 C   0  0  0  0  0  0  0  0  0  0  0  0
   40.8155   36.6985   -5.9623 C   0  0  0  0  0  0  0  0  0  0  0  0
   42.1831   36.6242   -5.7095 C   0  0  0  0  0  0  0  0  0  0  0  0
   43.2839   35.5472   -6.8049 Br  0  0  0  0  0  0  0  0  0  0  0  0
   42.7446   37.3391   -4.6547 C   0  0  0  0  0  0  0  0  0  0  0  0
   41.9309   38.1329   -3.8437 C   0  0  0  0  0  0  0  0  0  0  0  0
 12 13  1  0
 13 11  1  0
 11 10  1  0
 10  9  1  0
  9  6  1  0
  6  7  1  0
  6  2  1  0
  2  3  2  0
  2  4  1  0
  4  1  1  0
  1 24  1  0
 24 25  1  0
 25 26  2  0
 26 27  1  0
 27 28  2  0
 28 29  1  0
 28 30  1  0
 30 31  2  0
  1 14  1  0
 14 15  2  0
 14 16  1  0
 16 18  1  0
 18 19  1  0
 18 20  1  0
 20 21  2  0
 20 22  1  0
 31 25  1  0
  7  8  1  0
  4  5  1  0
 16 17  1  0
 22 23  1  0
M  END
> <minimizedAffinity>
-6.48119

> <CNNscore>
0.8502082825

> <CNNaffinity>
6.5348949432

> <CNN_VS>
5.5560216904

> <CNNaffinity_variance>
0.0672064498

$$$$



 31 31  0  0  0  0  0  0  0  0999 V2000
   36.3032   42.0228   -4.4179 C   0  0  0  0  0  0  0  0  0  0  0  0
   35.0083   41.9936   -6.5278 C   0  0  0  0  0  0  0  0  0  0  0  0
   34.9103   43.2173   -6.5322 O   0  0  0  0  0  0  0  0  0  0  0  0
   35.5567   41.3042   -5.4582 N   0  0  0  0  0  0  0  0  0  0  0  0
   35.4453   40.3280   -5.3954 H   0  0  0  0  0  0  0  0  0  0  0  0
   34.5780   41.0820   -7.6847 C   0  0  0  0  0  0  0  0  0  0  0  0
   34.1166   39.4181   -7.0952 S   0  0  0  0  0  0  0  0  0  0  0  0
   33.0348   39.5111   -6.2763 H   0  0  0  0  0  0  0  0  0  0  0  0
   33.5191   41.7434   -8.5849 C   0  0  0  0  0  0  0  0  0  0  0  0
   33.8686   43.0962   -9.2250 C   0  0  0  0  0  0  0  0  0  0  0  0
   33.1681   43.4466  -10.5392 C   0  0  0  0  0  0  0  0  0  0  0  0
   32.6474   42.7213  -12.9305 C   0  0  0  0  0  0  0  0  0  0  0  0
   32.9540   42.2805  -11.5075 C   0  0  0  0  0  0  0  0  0  0  0  0
   37.4805   41.1008   -4.0321 C   0  0  0  0  0  0  0  0  0  0  0  0
   38.5468   41.5509   -3.6076 O   0  0  0  0  0  0  0  0  0  0  0  0
   37.2639   39.7527   -4.2103 N   0  0  0  0  0  0  0  0  0  0  0  0
   36.3800   39.4347   -4.5050 H   0  0  0  0  0  0  0  0  0  0  0  0
   38.3366   38.7898   -3.9651 C   0  0  0  0  0  0  0  0  0  0  0  0
   38.1370   38.1135   -2.6167 C   0  0  0  0  0  0  0  0  0  0  0  0
   38.3695   37.7356   -5.0737 C   0  0  0  0  0  0  0  0  0  0  0  0
   37.4280   37.0775   -5.4904 O   0  0  0  0  0  0  0  0  0  0  0  0
   39.6070   37.5438   -5.5768 O   0  0  0  0  0  0  0  0  0  0  0  0
   40.3271   38.0499   -5.2553 H   0  0  0  0  0  0  0  0  0  0  0  0
   35.3949   42.3099   -3.2141 C   0  0  0  0  0  0  0  0  0  0  0  0
   36.1350   42.3890   -1.8979 C   0  0  0  0  0  0  0  0  0  0  0  0
   36.1882   41.2777   -1.0432 C   0  0  0  0  0  0  0  0  0  0  0  0
   36.8541   41.3566    0.1817 C   0  0  0  0  0  0  0  0  0  0  0  0
   37.4752   42.5457    0.5557 C   0  0  0  0  0  0  0  0  0  0  0  0
   38.3710   42.6560    2.2162 Br  0  0  0  0  0  0  0  0  0  0  0  0
   37.4406   43.6540   -0.2865 C   0  0  0  0  0  0  0  0  0  0  0  0
   36.7765   43.5735   -1.5123 C   0  0  0  0  0  0  0  0  0  0  0  0
 12 13  1  0
 13 11  1  0
 11 10  1  0
 10  9  1  0
  9  6  1  0
  6  7  1  0
  6  2  1  0
  2  3  2  0
  2  4  1  0
  4  1  1  0
  1 24  1  0
 24 25  1  0
 25 26  2  0
 26 27  1  0
 27 28  2  0
 28 29  1  0
 28 30  1  0
 30 31  2  0
  1 14  1  0
 14 15  2  0
 14 16  1  0
 16 18  1  0
 18 19  1  0
 18 20  1  0
 20 21  2  0
 20 22  1  0
 31 25  1  0
  7  8  1  0
  4  5  1  0
 16 17  1  0
 22 23  1  0
M  END
> <minimizedAffinity>
-7.88379

> <CNNscore>
0.8025060296

> <CNNaffinity>
7.5021700859

> <CNN_VS>
6.0205368996

> <CNNaffinity_variance>
0.0168127939

$$$$



 31 31  0  0  0  0  0  0  0  0999 V2000
   38.4934   38.8348   -4.4801 C   0  0  0  0  0  0  0  0  0  0  0  0
   37.6973   40.9722   -3.5173 C   0  0  0  0  0  0  0  0  0  0  0  0
   38.8417   41.3224   -3.2440 O   0  0  0  0  0  0  0  0  0  0  0  0
   37.4123   39.7057   -4.0020 N   0  0  0  0  0  0  0  0  0  0  0  0
   36.4806   39.3883   -4.0259 H   0  0  0  0  0  0  0  0  0  0  0  0
   36.4594   41.8705   -3.3935 C   0  0  0  0  0  0  0  0  0  0  0  0
   35.5162   41.9362   -4.9541 S   0  0  0  0  0  0  0  0  0  0  0  0
   35.0442   40.6958   -5.2510 H   0  0  0  0  0  0  0  0  0  0  0  0
   35.6067   41.5210   -2.1608 C   0  0  0  0  0  0  0  0  0  0  0  0
   35.9611   42.2023   -0.8295 C   0  0  0  0  0  0  0  0  0  0  0  0
   36.9443   41.4714    0.0869 C   0  0  0  0  0  0  0  0  0  0  0  0
   38.3481   43.4640    0.8450 C   0  0  0  0  0  0  0  0  0  0  0  0
   37.4824   42.2863    1.2657 C   0  0  0  0  0  0  0  0  0  0  0  0
   37.7978   37.6150   -5.1230 C   0  0  0  0  0  0  0  0  0  0  0  0
   37.6093   36.5697   -4.4975 O   0  0  0  0  0  0  0  0  0  0  0  0
   37.4214   37.7695   -6.4385 N   0  0  0  0  0  0  0  0  0  0  0  0
   37.5471   38.6385   -6.8838 H   0  0  0  0  0  0  0  0  0  0  0  0
   36.8363   36.6528   -7.1792 C   0  0  0  0  0  0  0  0  0  0  0  0
   35.7263   37.1525   -8.0922 C   0  0  0  0  0  0  0  0  0  0  0  0
   37.9092   35.9434   -8.0083 C   0  0  0  0  0  0  0  0  0  0  0  0
   38.7192   35.1193   -7.6113 O   0  0  0  0  0  0  0  0  0  0  0  0
   37.9227   36.3421   -9.2976 O   0  0  0  0  0  0  0  0  0  0  0  0
   37.3003   36.9743   -9.5991 H   0  0  0  0  0  0  0  0  0  0  0  0
   39.3958   38.4167   -3.3107 C   0  0  0  0  0  0  0  0  0  0  0  0
   40.8225   38.1237   -3.7167 C   0  0  0  0  0  0  0  0  0  0  0  0
   41.0963   37.2157   -4.7505 C   0  0  0  0  0  0  0  0  0  0  0  0
   42.4143   36.9293   -5.1121 C   0  0  0  0  0  0  0  0  0  0  0  0
   43.4655   37.5540   -4.4453 C   0  0  0  0  0  0  0  0  0  0  0  0
   45.2500   37.1623   -4.9290 Br  0  0  0  0  0  0  0  0  0  0  0  0
   43.2098   38.4659   -3.4246 C   0  0  0  0  0  0  0  0  0  0  0  0
   41.8914   38.7534   -3.0653 C   0  0  0  0  0  0  0  0  0  0  0  0
 12 13  1  0
 13 11  1  0
 11 10  1  0
 10  9  1  0
  9  6  1  0
  6  7  1  0
  6  2  1  0
  2  3  2  0
  2  4  1  0
  4  1  1  0
  1 24  1  0
 24 25  1  0
 25 26  2  0
 26 27  1  0
 27 28  2  0
 28 29  1  0
 28 30  1  0
 30 31  2  0
  1 14  1  0
 14 15  2  0
 14 16  1  0
 16 18  1  0
 18 19  1  0
 18 20  1  0
 20 21  2  0
 20 22  1  0
 31 25  1  0
  7  8  1  0
  4  5  1  0
 16 17  1  0
 22 23  1  0
M  END
> <minimizedAffinity>
-6.17430

> <CNNscore>
0.7644300461

> <CNNaffinity>
6.7615904808

> <CNN_VS>
5.1687631607

> <CNNaffinity_variance>
0.0983432233

$$$$



 31 31  0  0  0  0  0  0  0  0999 V2000
   37.0697   40.3396   -3.4639 C   0  0  0  0  0  0  0  0  0  0  0  0
   35.8479   40.0758   -5.6009 C   0  0  0  0  0  0  0  0  0  0  0  0
   36.2444   38.9214   -5.7321 O   0  0  0  0  0  0  0  0  0  0  0  0
   36.3099   40.9009   -4.5880 N   0  0  0  0  0  0  0  0  0  0  0  0
   36.1279   41.8678   -4.6222 H   0  0  0  0  0  0  0  0  0  0  0  0
   34.7926   40.7404   -6.4950 C   0  0  0  0  0  0  0  0  0  0  0  0
   35.0935   42.5310   -6.6750 S   0  0  0  0  0  0  0  0  0  0  0  0
   36.2851   42.7299   -7.2996 H   0  0  0  0  0  0  0  0  0  0  0  0
   34.6104   39.9986   -7.8313 C   0  0  0  0  0  0  0  0  0  0  0  0
   33.4834   38.9577   -7.9236 C   0  0  0  0  0  0  0  0  0  0  0  0
   32.8192   38.7696   -9.2888 C   0  0  0  0  0  0  0  0  0  0  0  0
   30.4771   37.7935   -9.0098 C   0  0  0  0  0  0  0  0  0  0  0  0
   31.3104   39.0243   -9.3325 C   0  0  0  0  0  0  0  0  0  0  0  0
   37.3058   41.5132   -2.4881 C   0  0  0  0  0  0  0  0  0  0  0  0
   38.3912   42.0937   -2.4200 O   0  0  0  0  0  0  0  0  0  0  0  0
   36.2332   41.8519   -1.6938 N   0  0  0  0  0  0  0  0  0  0  0  0
   35.3705   41.3939   -1.8167 H   0  0  0  0  0  0  0  0  0  0  0  0
   36.3658   42.8866   -0.6692 C   0  0  0  0  0  0  0  0  0  0  0  0
   37.5529   42.5830    0.2329 C   0  0  0  0  0  0  0  0  0  0  0  0
   36.5470   44.2598   -1.3195 C   0  0  0  0  0  0  0  0  0  0  0  0
   37.6021   44.8352   -1.5401 O   0  0  0  0  0  0  0  0  0  0  0  0
   35.3738   44.8517   -1.6276 O   0  0  0  0  0  0  0  0  0  0  0  0
   34.5663   44.4080   -1.4573 H   0  0  0  0  0  0  0  0  0  0  0  0
   38.3948   39.7458   -3.9617 C   0  0  0  0  0  0  0  0  0  0  0  0
   38.9154   38.6143   -3.1044 C   0  0  0  0  0  0  0  0  0  0  0  0
   38.0876   38.0059   -2.1491 C   0  0  0  0  0  0  0  0  0  0  0  0
   38.5741   36.9746   -1.3429 C   0  0  0  0  0  0  0  0  0  0  0  0
   39.8897   36.5425   -1.4921 C   0  0  0  0  0  0  0  0  0  0  0  0
   40.5516   35.1515   -0.3973 Br  0  0  0  0  0  0  0  0  0  0  0  0
   40.7204   37.1288   -2.4435 C   0  0  0  0  0  0  0  0  0  0  0  0
   40.2322   38.1584   -3.2507 C   0  0  0  0  0  0  0  0  0  0  0  0
 12 13  1  0
 13 11  1  0
 11 10  1  0
 10  9  1  0
  9  6  1  0
  6  7  1  0
  6  2  1  0
  2  3  2  0
  2  4  1  0
  4  1  1  0
  1 24  1  0
 24 25  1  0
 25 26  2  0
 26 27  1  0
 27 28  2  0
 28 29  1  0
 28 30  1  0
 30 31  2  0
  1 14  1  0
 14 15  2  0
 14 16  1  0
 16 18  1  0
 18 19  1  0
 18 20  1  0
 20 21  2  0
 20 22  1  0
 31 25  1  0
  7  8  1  0
  4  5  1  0
 16 17  1  0
 22 23  1  0
M  END
> <minimizedAffinity>
-7.12049

> <CNNscore>
0.7614111900

> <CNNaffinity>
7.0212111473

> <CNN_VS>
5.3460288048

> <CNNaffinity_variance>
0.0432191007

$$$$



 31 31  0  0  0  0  0  0  0  0999 V2000
   37.1364   40.6495   -3.7770 C   0  0  0  0  0  0  0  0  0  0  0  0
   35.3835   41.4771   -5.3169 C   0  0  0  0  0  0  0  0  0  0  0  0
   35.4038   42.5930   -4.8056 O   0  0  0  0  0  0  0  0  0  0  0  0
   36.1008   40.4146   -4.7910 N   0  0  0  0  0  0  0  0  0  0  0  0
   35.9152   39.4980   -5.0986 H   0  0  0  0  0  0  0  0  0  0  0  0
   34.6079   41.1179   -6.5913 C   0  0  0  0  0  0  0  0  0  0  0  0
   34.3290   42.5812   -7.6449 S   0  0  0  0  0  0  0  0  0  0  0  0
   35.5256   43.0710   -8.0665 H   0  0  0  0  0  0  0  0  0  0  0  0
   35.2289   39.9211   -7.3335 C   0  0  0  0  0  0  0  0  0  0  0  0
   34.2910   39.0269   -8.1597 C   0  0  0  0  0  0  0  0  0  0  0  0
   34.2353   39.2810   -9.6673 C   0  0  0  0  0  0  0  0  0  0  0  0
   32.8989   40.1275  -11.6706 C   0  0  0  0  0  0  0  0  0  0  0  0
   33.0427   40.1066  -10.1566 C   0  0  0  0  0  0  0  0  0  0  0  0
   38.0827   39.4313   -3.8520 C   0  0  0  0  0  0  0  0  0  0  0  0
   38.9874   39.2593   -3.0326 O   0  0  0  0  0  0  0  0  0  0  0  0
   37.8578   38.5666   -4.8999 N   0  0  0  0  0  0  0  0  0  0  0  0
   37.0930   38.7166   -5.5014 H   0  0  0  0  0  0  0  0  0  0  0  0
   38.7461   37.4275   -5.1259 C   0  0  0  0  0  0  0  0  0  0  0  0
   40.1891   37.8244   -4.8512 C   0  0  0  0  0  0  0  0  0  0  0  0
   38.3502   36.2563   -4.2243 C   0  0  0  0  0  0  0  0  0  0  0  0
   38.8770   35.9282   -3.1717 O   0  0  0  0  0  0  0  0  0  0  0  0
   37.3230   35.5364   -4.7224 O   0  0  0  0  0  0  0  0  0  0  0  0
   36.9210   35.7905   -5.5298 H   0  0  0  0  0  0  0  0  0  0  0  0
   36.4989   40.7825   -2.3869 C   0  0  0  0  0  0  0  0  0  0  0  0
   36.9417   42.0137   -1.6289 C   0  0  0  0  0  0  0  0  0  0  0  0
   37.2767   41.9304   -0.2691 C   0  0  0  0  0  0  0  0  0  0  0  0
   37.6660   43.0709    0.4364 C   0  0  0  0  0  0  0  0  0  0  0  0
   37.7278   44.2999   -0.2160 C   0  0  0  0  0  0  0  0  0  0  0  0
   38.2480   45.8455    0.7391 Br  0  0  0  0  0  0  0  0  0  0  0  0
   37.4091   44.3968   -1.5680 C   0  0  0  0  0  0  0  0  0  0  0  0
   37.0223   43.2553   -2.2732 C   0  0  0  0  0  0  0  0  0  0  0  0
 12 13  1  0
 13 11  1  0
 11 10  1  0
 10  9  1  0
  9  6  1  0
  6  7  1  0
  6  2  1  0
  2  3  2  0
  2  4  1  0
  4  1  1  0
  1 24  1  0
 24 25  1  0
 25 26  2  0
 26 27  1  0
 27 28  2  0
 28 29  1  0
 28 30  1  0
 30 31  2  0
  1 14  1  0
 14 15  2  0
 14 16  1  0
 16 18  1  0
 18 19  1  0
 18 20  1  0
 20 21  2  0
 20 22  1  0
 31 25  1  0
  7  8  1  0
  4  5  1  0
 16 17  1  0
 22 23  1  0
M  END
> <minimizedAffinity>
-6.10449

> <CNNscore>
0.7249714136

> <CNNaffinity>
6.9829635620

> <CNN_VS>
5.0624489784

> <CNNaffinity_variance>
0.2792308331

$$$$



 31 31  0  0  0  0  0  0  0  0999 V2000
   38.8474   37.6669   -3.0836 C   0  0  0  0  0  0  0  0  0  0  0  0
   38.4347   40.1059   -2.9827 C   0  0  0  0  0  0  0  0  0  0  0  0
   39.2862   40.3266   -3.8390 O   0  0  0  0  0  0  0  0  0  0  0  0
   38.2425   38.8430   -2.4458 N   0  0  0  0  0  0  0  0  0  0  0  0
   37.6979   38.7338   -1.6329 H   0  0  0  0  0  0  0  0  0  0  0  0
   37.4695   41.1596   -2.4234 C   0  0  0  0  0  0  0  0  0  0  0  0
   36.3743   41.8263   -3.7215 S   0  0  0  0  0  0  0  0  0  0  0  0
   35.5894   40.8283   -4.2090 H   0  0  0  0  0  0  0  0  0  0  0  0
   36.7257   40.6621   -1.1712 C   0  0  0  0  0  0  0  0  0  0  0  0
   36.9647   41.4129    0.1483 C   0  0  0  0  0  0  0  0  0  0  0  0
   36.6432   42.9085    0.1669 C   0  0  0  0  0  0  0  0  0  0  0  0
   37.5416   45.0862   -0.8162 C   0  0  0  0  0  0  0  0  0  0  0  0
   37.8431   43.8463    0.0116 C   0  0  0  0  0  0  0  0  0  0  0  0
   38.0212   36.4548   -2.6004 C   0  0  0  0  0  0  0  0  0  0  0  0
   37.0674   36.5836   -1.8301 O   0  0  0  0  0  0  0  0  0  0  0  0
   38.4318   35.2283   -3.0727 N   0  0  0  0  0  0  0  0  0  0  0  0
   39.1675   35.1773   -3.7249 H   0  0  0  0  0  0  0  0  0  0  0  0
   37.7835   34.0009   -2.6132 C   0  0  0  0  0  0  0  0  0  0  0  0
   37.7665   33.9539   -1.0924 C   0  0  0  0  0  0  0  0  0  0  0  0
   36.3528   33.9213   -3.1501 C   0  0  0  0  0  0  0  0  0  0  0  0
   35.3574   33.5623   -2.5391 O   0  0  0  0  0  0  0  0  0  0  0  0
   36.2619   34.2701   -4.4507 O   0  0  0  0  0  0  0  0  0  0  0  0
   37.0269   34.5449   -4.9166 H   0  0  0  0  0  0  0  0  0  0  0  0
   40.3223   37.5412   -2.6768 C   0  0  0  0  0  0  0  0  0  0  0  0
   41.2159   37.0196   -3.7794 C   0  0  0  0  0  0  0  0  0  0  0  0
   40.8239   37.1232   -5.1225 C   0  0  0  0  0  0  0  0  0  0  0  0
   41.6394   36.6231   -6.1398 C   0  0  0  0  0  0  0  0  0  0  0  0
   42.8542   36.0219   -5.8194 C   0  0  0  0  0  0  0  0  0  0  0  0
   43.9559   35.3386   -7.1946 Br  0  0  0  0  0  0  0  0  0  0  0  0
   43.2623   35.9214   -4.4919 C   0  0  0  0  0  0  0  0  0  0  0  0
   42.4472   36.4238   -3.4755 C   0  0  0  0  0  0  0  0  0  0  0  0
 12 13  1  0
 13 11  1  0
 11 10  1  0
 10  9  1  0
  9  6  1  0
  6  7  1  0
  6  2  1  0
  2  3  2  0
  2  4  1  0
  4  1  1  0
  1 24  1  0
 24 25  1  0
 25 26  2  0
 26 27  1  0
 27 28  2  0
 28 29  1  0
 28 30  1  0
 30 31  2  0
  1 14  1  0
 14 15  2  0
 14 16  1  0
 16 18  1  0
 18 19  1  0
 18 20  1  0
 20 21  2  0
 20 22  1  0
 31 25  1  0
  7  8  1  0
  4  5  1  0
 16 17  1  0
 22 23  1  0
M  END
> <minimizedAffinity>
-5.58163

> <CNNscore>
0.6082901955

> <CNNaffinity>
5.7256884575

> <CNN_VS>
3.4828801155

> <CNNaffinity_variance>
0.1089811698

$$$$



 31 31  0  0  0  0  0  0  0  0999 V2000
   33.0981   41.5869  -10.1767 C   0  0  0  0  0  0  0  0  0  0  0  0
   31.3078   39.9499  -10.6710 C   0  0  0  0  0  0  0  0  0  0  0  0
   31.9372   39.4860  -11.6175 O   0  0  0  0  0  0  0  0  0  0  0  0
   31.7347   41.0763   -9.9860 N   0  0  0  0  0  0  0  0  0  0  0  0
   31.1211   41.5362   -9.3686 H   0  0  0  0  0  0  0  0  0  0  0  0
   30.0128   39.3486  -10.1088 C   0  0  0  0  0  0  0  0  0  0  0  0
   28.7522   39.1290  -11.4096 S   0  0  0  0  0  0  0  0  0  0  0  0
   29.2033   38.2373  -12.3321 H   0  0  0  0  0  0  0  0  0  0  0  0
   30.2733   38.0851   -9.2696 C   0  0  0  0  0  0  0  0  0  0  0  0
   29.1043   37.1085   -9.0652 C   0  0  0  0  0  0  0  0  0  0  0  0
   29.3813   35.8549   -8.2333 C   0  0  0  0  0  0  0  0  0  0  0  0
   28.4158   34.1201   -6.6288 C   0  0  0  0  0  0  0  0  0  0  0  0
   28.1454   35.0705   -7.7851 C   0  0  0  0  0  0  0  0  0  0  0  0
   33.9094   41.0837   -8.9628 C   0  0  0  0  0  0  0  0  0  0  0  0
   34.7161   40.1566   -9.0592 O   0  0  0  0  0  0  0  0  0  0  0  0
   33.6581   41.7263   -7.7711 N   0  0  0  0  0  0  0  0  0  0  0  0
   33.0421   42.4940   -7.7506 H   0  0  0  0  0  0  0  0  0  0  0  0
   34.2990   41.2772   -6.5360 C   0  0  0  0  0  0  0  0  0  0  0  0
   35.2258   40.1048   -6.8218 C   0  0  0  0  0  0  0  0  0  0  0  0
   35.0918   42.4216   -5.9010 C   0  0  0  0  0  0  0  0  0  0  0  0
   35.3929   42.5420   -4.7229 O   0  0  0  0  0  0  0  0  0  0  0  0
   35.4351   43.3769   -6.7903 O   0  0  0  0  0  0  0  0  0  0  0  0
   35.2029   43.2818   -7.6931 H   0  0  0  0  0  0  0  0  0  0  0  0
   33.0861   43.1203  -10.2493 C   0  0  0  0  0  0  0  0  0  0  0  0
   32.9700   43.6625  -11.6561 C   0  0  0  0  0  0  0  0  0  0  0  0
   32.6132   42.8175  -12.7176 C   0  0  0  0  0  0  0  0  0  0  0  0
   32.5259   43.3134  -14.0201 C   0  0  0  0  0  0  0  0  0  0  0  0
   32.7894   44.6585  -14.2669 C   0  0  0  0  0  0  0  0  0  0  0  0
   32.6782   45.3297  -16.0301 Br  0  0  0  0  0  0  0  0  0  0  0  0
   33.1340   45.5123  -13.2222 C   0  0  0  0  0  0  0  0  0  0  0  0
   33.2187   45.0160  -11.9197 C   0  0  0  0  0  0  0  0  0  0  0  0
 12 13  1  0
 13 11  1  0
 11 10  1  0
 10  9  1  0
  9  6  1  0
  6  7  1  0
  6  2  1  0
  2  3  2  0
  2  4  1  0
  4  1  1  0
  1 24  1  0
 24 25  1  0
 25 26  2  0
 26 27  1  0
 27 28  2  0
 28 29  1  0
 28 30  1  0
 30 31  2  0
  1 14  1  0
 14 15  2  0
 14 16  1  0
 16 18  1  0
 18 19  1  0
 18 20  1  0
 20 21  2  0
 20 22  1  0
 31 25  1  0
  7  8  1  0
  4  5  1  0
 16 17  1  0
 22 23  1  0
M  END
> <minimizedAffinity>
-7.43359

> <CNNscore>
0.5626628399

> <CNNaffinity>
6.0744247437

> <CNN_VS>
3.4178531170

> <CNNaffinity_variance>
0.0983783826

$$$$



 31 31  0  0  0  0  0  0  0  0999 V2000
   39.8017   37.7922   -3.6798 C   0  0  0  0  0  0  0  0  0  0  0  0
   38.0770   39.5670   -3.7498 C   0  0  0  0  0  0  0  0  0  0  0  0
   37.3879   38.9230   -4.5356 O   0  0  0  0  0  0  0  0  0  0  0  0
   39.3466   39.1551   -3.3775 N   0  0  0  0  0  0  0  0  0  0  0  0
   39.9463   39.7791   -2.9082 H   0  0  0  0  0  0  0  0  0  0  0  0
   37.6320   40.8658   -3.0646 C   0  0  0  0  0  0  0  0  0  0  0  0
   36.4692   41.8118   -4.1048 S   0  0  0  0  0  0  0  0  0  0  0  0
   35.3347   41.0856   -4.2922 H   0  0  0  0  0  0  0  0  0  0  0  0
   37.1342   40.6258   -1.6281 C   0  0  0  0  0  0  0  0  0  0  0  0
   36.5897   41.8333   -0.8486 C   0  0  0  0  0  0  0  0  0  0  0  0
   37.5264   43.0305   -0.6757 C   0  0  0  0  0  0  0  0  0  0  0  0
   37.6468   45.5753   -0.5170 C   0  0  0  0  0  0  0  0  0  0  0  0
   36.9842   44.3732   -1.1721 C   0  0  0  0  0  0  0  0  0  0  0  0
   39.9583   37.0884   -2.3141 C   0  0  0  0  0  0  0  0  0  0  0  0
   39.2217   37.3483   -1.3605 O   0  0  0  0  0  0  0  0  0  0  0  0
   40.9811   36.1701   -2.2315 N   0  0  0  0  0  0  0  0  0  0  0  0
   41.5130   35.9581   -3.0324 H   0  0  0  0  0  0  0  0  0  0  0  0
   41.2832   35.5075   -0.9637 C   0  0  0  0  0  0  0  0  0  0  0  0
   40.6568   34.1211   -0.9335 C   0  0  0  0  0  0  0  0  0  0  0  0
   42.7967   35.3966   -0.7681 C   0  0  0  0  0  0  0  0  0  0  0  0
   43.3804   34.8543    0.1583 O   0  0  0  0  0  0  0  0  0  0  0  0
   43.4969   36.0114   -1.7445 O   0  0  0  0  0  0  0  0  0  0  0  0
   43.0465   36.4264   -2.4537 H   0  0  0  0  0  0  0  0  0  0  0  0
   41.1302   37.8333   -4.4478 C   0  0  0  0  0  0  0  0  0  0  0  0
   41.3032   36.6944   -5.4272 C   0  0  0  0  0  0  0  0  0  0  0  0
   42.5836   36.3077   -5.8505 C   0  0  0  0  0  0  0  0  0  0  0  0
   42.7427   35.2694   -6.7707 C   0  0  0  0  0  0  0  0  0  0  0  0
   41.6221   34.6086   -7.2681 C   0  0  0  0  0  0  0  0  0  0  0  0
   41.8355   33.2078   -8.5186 Br  0  0  0  0  0  0  0  0  0  0  0  0
   40.3452   34.9735   -6.8493 C   0  0  0  0  0  0  0  0  0  0  0  0
   40.1873   36.0103   -5.9273 C   0  0  0  0  0  0  0  0  0  0  0  0
 12 13  1  0
 13 11  1  0
 11 10  1  0
 10  9  1  0
  9  6  1  0
  6  7  1  0
  6  2  1  0
  2  3  2  0
  2  4  1  0
  4  1  1  0
  1 24  1  0
 24 25  1  0
 25 26  2  0
 26 27  1  0
 27 28  2  0
 28 29  1  0
 28 30  1  0
 30 31  2  0
  1 14  1  0
 14 15  2  0
 14 16  1  0
 16 18  1  0
 18 19  1  0
 18 20  1  0
 20 21  2  0
 20 22  1  0
 31 25  1  0
  7  8  1  0
  4  5  1  0
 16 17  1  0
 22 23  1  0
M  END
> <minimizedAffinity>
-5.69779

> <CNNscore>
0.5484638810

> <CNNaffinity>
5.7567219734

> <CNN_VS>
3.1573541164

> <CNNaffinity_variance>
0.1215864047

$$$$



 31 31  0  0  0  0  0  0  0  0999 V2000
   37.2873   40.4668   -3.7138 C   0  0  0  0  0  0  0  0  0  0  0  0
   35.6606   41.3817   -5.3405 C   0  0  0  0  0  0  0  0  0  0  0  0
   35.5595   42.4309   -4.7111 O   0  0  0  0  0  0  0  0  0  0  0  0
   36.3808   40.3011   -4.8570 N   0  0  0  0  0  0  0  0  0  0  0  0
   36.2843   39.4183   -5.2818 H   0  0  0  0  0  0  0  0  0  0  0  0
   35.0472   41.1352   -6.7253 C   0  0  0  0  0  0  0  0  0  0  0  0
   34.4344   39.4250   -6.8956 S   0  0  0  0  0  0  0  0  0  0  0  0
   33.4300   39.2125   -6.0036 H   0  0  0  0  0  0  0  0  0  0  0  0
   34.0144   42.2112   -7.1050 C   0  0  0  0  0  0  0  0  0  0  0  0
   34.1130   42.8344   -8.5064 C   0  0  0  0  0  0  0  0  0  0  0  0
   33.1101   42.3512   -9.5558 C   0  0  0  0  0  0  0  0  0  0  0  0
   32.6490   44.4460  -10.9396 C   0  0  0  0  0  0  0  0  0  0  0  0
   33.2043   43.0302  -10.9246 C   0  0  0  0  0  0  0  0  0  0  0  0
   38.1281   39.1728   -3.6527 C   0  0  0  0  0  0  0  0  0  0  0  0
   37.6061   38.0564   -3.6821 O   0  0  0  0  0  0  0  0  0  0  0  0
   39.4892   39.3518   -3.5466 N   0  0  0  0  0  0  0  0  0  0  0  0
   39.8662   40.2608   -3.5764 H   0  0  0  0  0  0  0  0  0  0  0  0
   40.3791   38.2022   -3.3900 C   0  0  0  0  0  0  0  0  0  0  0  0
   39.9185   37.3364   -2.2265 C   0  0  0  0  0  0  0  0  0  0  0  0
   40.4071   37.3715   -4.6747 C   0  0  0  0  0  0  0  0  0  0  0  0
   39.9743   37.6971   -5.7700 O   0  0  0  0  0  0  0  0  0  0  0  0
   40.9546   36.1509   -4.4967 O   0  0  0  0  0  0  0  0  0  0  0  0
   41.2857   35.9040   -3.6556 H   0  0  0  0  0  0  0  0  0  0  0  0
   36.4828   40.6771   -2.4235 C   0  0  0  0  0  0  0  0  0  0  0  0
   36.8898   41.9082   -1.6457 C   0  0  0  0  0  0  0  0  0  0  0  0
   37.0407   43.1428   -2.2947 C   0  0  0  0  0  0  0  0  0  0  0  0
   37.4365   44.2756   -1.5806 C   0  0  0  0  0  0  0  0  0  0  0  0
   37.6780   44.1808   -0.2122 C   0  0  0  0  0  0  0  0  0  0  0  0
   38.2202   45.7116    0.7545 Br  0  0  0  0  0  0  0  0  0  0  0  0
   37.5218   42.9650    0.4484 C   0  0  0  0  0  0  0  0  0  0  0  0
   37.1237   41.8333   -0.2662 C   0  0  0  0  0  0  0  0  0  0  0  0
 12 13  1  0
 13 11  1  0
 11 10  1  0
 10  9  1  0
  9  6  1  0
  6  7  1  0
  6  2  1  0
  2  3  2  0
  2  4  1  0
  4  1  1  0
  1 24  1  0
 24 25  1  0
 25 26  2  0
 26 27  1  0
 27 28  2  0
 28 29  1  0
 28 30  1  0
 30 31  2  0
  1 14  1  0
 14 15  2  0
 14 16  1  0
 16 18  1  0
 18 19  1  0
 18 20  1  0
 20 21  2  0
 20 22  1  0
 31 25  1  0
  7  8  1  0
  4  5  1  0
 16 17  1  0
 22 23  1  0
M  END
> <minimizedAffinity>
-6.83701

> <CNNscore>
0.5468492508

> <CNNaffinity>
6.5439867973

> <CNN_VS>
3.5785741806

> <CNNaffinity_variance>
0.0214419905

$$$$
