


 33 37  0  0  0  0  0  0  0  0999 V2000
   14.1635  -26.5559  -20.5623 C   0  0  0  0  0  0  0  0  0  0  0  0
   15.1470  -27.4573  -20.3423 C   0  0  0  0  0  0  0  0  0  0  0  0
   14.8239  -28.7407  -19.7536 C   0  0  0  0  0  0  0  0  0  0  0  0
   15.8343  -29.6105  -19.5571 F   0  0  0  0  0  0  0  0  0  0  0  0
   13.5713  -29.0727  -19.4066 C   0  0  0  0  0  0  0  0  0  0  0  0
   12.5239  -28.1390  -19.6230 C   0  0  0  0  0  0  0  0  0  0  0  0
   11.2371  -28.2020  -19.3807 N   0  0  0  0  0  0  0  0  0  0  0  0
   10.7672  -26.9975  -19.8139 C   0  0  0  0  0  0  0  0  0  0  0  0
   11.6995  -26.1798  -20.3046 N   0  0  0  0  0  0  0  0  0  0  0  0
   12.8425  -26.9025  -20.1948 N   0  0  0  0  0  0  0  0  0  0  0  0
   15.1466  -22.7442  -22.2862 C   0  0  0  0  0  0  0  0  0  0  0  0
   16.0463  -23.3857  -21.4365 C   0  0  0  0  0  0  0  0  0  0  0  0
   15.7220  -24.6268  -20.8735 C   0  0  0  0  0  0  0  0  0  0  0  0
   14.4955  -25.2443  -21.1518 C   0  0  0  0  0  0  0  0  0  0  0  0
   13.5951  -24.5914  -22.0034 C   0  0  0  0  0  0  0  0  0  0  0  0
   13.9219  -23.3535  -22.5649 C   0  0  0  0  0  0  0  0  0  0  0  0
   16.4723  -20.7825  -22.4936 C   0  0  0  0  0  0  0  0  0  0  0  0
   15.3379  -21.5376  -22.9002 O   0  0  0  0  0  0  0  0  0  0  0  0
    9.4686  -26.6539  -19.7478 N   0  0  0  0  0  0  0  0  0  0  0  0
    8.9207  -27.2958  -19.2408 H   0  0  0  0  0  0  0  0  0  0  0  0
    8.7310  -25.5683  -20.2524 C   0  0  0  0  0  0  0  0  0  0  0  0
    7.3336  -25.6081  -20.1703 C   0  0  0  0  0  0  0  0  0  0  0  0
    6.5435  -24.5604  -20.6643 C   0  0  0  0  0  0  0  0  0  0  0  0
    7.1094  -23.4266  -21.2632 C   0  0  0  0  0  0  0  0  0  0  0  0
    8.5051  -23.3925  -21.3397 C   0  0  0  0  0  0  0  0  0  0  0  0
    9.2996  -24.4432  -20.8484 C   0  0  0  0  0  0  0  0  0  0  0  0
    6.2774  -22.4088  -21.7415 N   0  0  0  0  0  0  0  0  0  0  0  0
    6.8386  -21.2918  -22.5297 C   0  0  0  0  0  0  0  0  0  0  0  0
    6.5056  -21.4579  -24.0275 C   0  0  0  0  0  0  0  0  0  0  0  0
    5.0508  -21.4313  -24.3160 N   0  0  0  0  0  0  0  0  0  0  0  0
    4.7502  -22.2308  -25.5005 C   0  0  0  0  0  0  0  0  0  0  0  0
    4.2616  -21.8679  -23.1422 C   0  0  0  0  0  0  0  0  0  0  0  0
    4.9581  -22.8960  -22.2189 C   0  0  0  0  0  0  0  0  0  0  0  0
 17 18  1  0
 18 11  1  0
 11 12  2  0
 12 13  1  0
 13 14  2  0
 14  1  1  0
  1  2  2  0
  2  3  1  0
  3  4  1  0
  3  5  2  0
  5  6  1  0
  6  7  2  0
  7  8  1  0
  8 19  1  0
 19 21  1  0
 21 22  2  0
 22 23  1  0
 23 24  2  0
 24 27  1  0
 27 28  1  0
 28 29  1  0
 29 30  1  0
 30 31  1  0
 30 32  1  0
 32 33  1  0
 24 25  1  0
 25 26  2  0
  8  9  2  0
  9 10  1  0
 14 15  1  0
 15 16  2  0
 16 11  1  0
 10  1  1  0
 10  6  1  0
 26 21  1  0
 33 27  1  0
 19 20  1  0
M  END
> <minimizedAffinity>
-9.78232

> <CNNscore>
0.9866508245

> <CNNaffinity>
7.5413689613

> <CNN_VS>
7.4406976700

> <CNNaffinity_variance>
0.0197815206

$$$$



 33 37  0  0  0  0  0  0  0  0999 V2000
   14.1504  -26.5048  -20.6039 C   0  0  0  0  0  0  0  0  0  0  0  0
   15.1500  -27.3948  -20.4116 C   0  0  0  0  0  0  0  0  0  0  0  0
   14.8606  -28.6765  -19.8021 C   0  0  0  0  0  0  0  0  0  0  0  0
   15.8858  -29.5349  -19.6345 F   0  0  0  0  0  0  0  0  0  0  0  0
   13.6242  -29.0179  -19.4089 C   0  0  0  0  0  0  0  0  0  0  0  0
   12.5607  -28.0962  -19.5956 C   0  0  0  0  0  0  0  0  0  0  0  0
   11.2838  -28.1698  -19.3078 N   0  0  0  0  0  0  0  0  0  0  0  0
   10.7870  -26.9734  -19.7336 C   0  0  0  0  0  0  0  0  0  0  0  0
   11.6933  -26.1506  -20.2629 N   0  0  0  0  0  0  0  0  0  0  0  0
   12.8466  -26.8613  -20.1877 N   0  0  0  0  0  0  0  0  0  0  0  0
   15.0023  -22.6830  -22.3745 C   0  0  0  0  0  0  0  0  0  0  0  0
   13.7867  -23.3184  -22.6224 C   0  0  0  0  0  0  0  0  0  0  0  0
   13.5128  -24.5657  -22.0464 C   0  0  0  0  0  0  0  0  0  0  0  0
   14.4485  -25.1948  -21.2147 C   0  0  0  0  0  0  0  0  0  0  0  0
   15.6694  -24.5516  -20.9736 C   0  0  0  0  0  0  0  0  0  0  0  0
   15.9395  -23.3063  -21.5488 C   0  0  0  0  0  0  0  0  0  0  0  0
   14.7280  -20.3222  -22.3588 C   0  0  0  0  0  0  0  0  0  0  0  0
   15.3937  -21.4703  -22.8700 O   0  0  0  0  0  0  0  0  0  0  0  0
    9.4881  -26.6420  -19.6246 N   0  0  0  0  0  0  0  0  0  0  0  0
    8.9946  -27.2039  -18.9844 H   0  0  0  0  0  0  0  0  0  0  0  0
    8.6886  -25.6595  -20.2352 C   0  0  0  0  0  0  0  0  0  0  0  0
    9.3155  -24.5718  -20.8555 C   0  0  0  0  0  0  0  0  0  0  0  0
    8.5720  -23.5559  -21.4729 C   0  0  0  0  0  0  0  0  0  0  0  0
    7.1709  -23.5771  -21.4992 C   0  0  0  0  0  0  0  0  0  0  0  0
    6.5517  -24.6671  -20.8800 C   0  0  0  0  0  0  0  0  0  0  0  0
    7.2946  -25.6852  -20.2572 C   0  0  0  0  0  0  0  0  0  0  0  0
    6.4750  -22.5386  -22.1272 N   0  0  0  0  0  0  0  0  0  0  0  0
    6.0585  -21.3459  -21.3606 C   0  0  0  0  0  0  0  0  0  0  0  0
    6.9663  -20.1413  -21.6873 C   0  0  0  0  0  0  0  0  0  0  0  0
    6.9007  -19.7199  -23.1080 N   0  0  0  0  0  0  0  0  0  0  0  0
    8.1659  -19.1194  -23.5217 C   0  0  0  0  0  0  0  0  0  0  0  0
    6.5129  -20.8470  -23.9859 C   0  0  0  0  0  0  0  0  0  0  0  0
    6.9560  -22.2484  -23.5021 C   0  0  0  0  0  0  0  0  0  0  0  0
 17 18  1  0
 18 11  1  0
 11 12  2  0
 12 13  1  0
 13 14  2  0
 14  1  1  0
  1  2  2  0
  2  3  1  0
  3  4  1  0
  3  5  2  0
  5  6  1  0
  6  7  2  0
  7  8  1  0
  8 19  1  0
 19 21  1  0
 21 22  2  0
 22 23  1  0
 23 24  2  0
 24 27  1  0
 27 28  1  0
 28 29  1  0
 29 30  1  0
 30 31  1  0
 30 32  1  0
 32 33  1  0
 24 25  1  0
 25 26  2  0
  8  9  2  0
  9 10  1  0
 14 15  1  0
 15 16  2  0
 16 11  1  0
 10  1  1  0
 10  6  1  0
 26 21  1  0
 33 27  1  0
 19 20  1  0
M  END
> <minimizedAffinity>
-9.74444

> <CNNscore>
0.9818282127

> <CNNaffinity>
7.5671849251

> <CNN_VS>
7.4296755791

> <CNNaffinity_variance>
0.0202639159

$$$$



 33 37  0  0  0  0  0  0  0  0999 V2000
   15.5975  -26.8742  -20.4681 C   0  0  0  0  0  0  0  0  0  0  0  0
   15.9543  -28.1007  -20.0247 C   0  0  0  0  0  0  0  0  0  0  0  0
   14.9319  -29.0329  -19.5963 C   0  0  0  0  0  0  0  0  0  0  0  0
   15.3321  -30.2460  -19.1669 F   0  0  0  0  0  0  0  0  0  0  0  0
   13.6272  -28.7212  -19.6156 C   0  0  0  0  0  0  0  0  0  0  0  0
   13.2305  -27.4366  -20.0716 C   0  0  0  0  0  0  0  0  0  0  0  0
   12.0490  -26.8811  -20.1904 N   0  0  0  0  0  0  0  0  0  0  0  0
   12.3232  -25.6414  -20.6877 C   0  0  0  0  0  0  0  0  0  0  0  0
   13.6196  -25.3905  -20.8745 N   0  0  0  0  0  0  0  0  0  0  0  0
   14.2229  -26.5422  -20.4869 N   0  0  0  0  0  0  0  0  0  0  0  0
   18.6346  -24.0903  -21.6901 C   0  0  0  0  0  0  0  0  0  0  0  0
   17.3946  -23.6308  -21.2496 C   0  0  0  0  0  0  0  0  0  0  0  0
   16.4053  -24.5407  -20.8547 C   0  0  0  0  0  0  0  0  0  0  0  0
   16.6409  -25.9212  -20.8937 C   0  0  0  0  0  0  0  0  0  0  0  0
   17.8883  -26.3752  -21.3413 C   0  0  0  0  0  0  0  0  0  0  0  0
   18.8742  -25.4649  -21.7336 C   0  0  0  0  0  0  0  0  0  0  0  0
   19.4301  -22.4038  -23.1639 C   0  0  0  0  0  0  0  0  0  0  0  0
   19.6825  -23.3139  -22.1006 O   0  0  0  0  0  0  0  0  0  0  0  0
   11.3663  -24.7374  -20.9632 N   0  0  0  0  0  0  0  0  0  0  0  0
   11.7035  -23.9463  -21.4425 H   0  0  0  0  0  0  0  0  0  0  0  0
    9.9843  -24.6874  -20.7089 C   0  0  0  0  0  0  0  0  0  0  0  0
    9.3186  -25.8728  -20.3733 C   0  0  0  0  0  0  0  0  0  0  0  0
    7.9400  -25.8883  -20.1178 C   0  0  0  0  0  0  0  0  0  0  0  0
    7.1623  -24.7244  -20.1861 C   0  0  0  0  0  0  0  0  0  0  0  0
    7.8339  -23.5442  -20.5194 C   0  0  0  0  0  0  0  0  0  0  0  0
    9.2153  -23.5263  -20.7795 C   0  0  0  0  0  0  0  0  0  0  0  0
    5.7900  -24.7929  -19.9234 N   0  0  0  0  0  0  0  0  0  0  0  0
    5.1825  -23.9318  -18.8874 C   0  0  0  0  0  0  0  0  0  0  0  0
    4.4001  -22.7685  -19.5329 C   0  0  0  0  0  0  0  0  0  0  0  0
    3.2599  -23.2156  -20.3698 N   0  0  0  0  0  0  0  0  0  0  0  0
    3.0049  -22.2559  -21.4406 C   0  0  0  0  0  0  0  0  0  0  0  0
    3.4819  -24.5814  -20.8958 C   0  0  0  0  0  0  0  0  0  0  0  0
    4.9602  -24.9657  -21.1430 C   0  0  0  0  0  0  0  0  0  0  0  0
 17 18  1  0
 18 11  1  0
 11 12  2  0
 12 13  1  0
 13 14  2  0
 14  1  1  0
  1  2  2  0
  2  3  1  0
  3  4  1  0
  3  5  2  0
  5  6  1  0
  6  7  2  0
  7  8  1  0
  8 19  1  0
 19 21  1  0
 21 22  2  0
 22 23  1  0
 23 24  2  0
 24 27  1  0
 27 28  1  0
 28 29  1  0
 29 30  1  0
 30 31  1  0
 30 32  1  0
 32 33  1  0
 24 25  1  0
 25 26  2  0
  8  9  2  0
  9 10  1  0
 14 15  1  0
 15 16  2  0
 16 11  1  0
 10  1  1  0
 10  6  1  0
 26 21  1  0
 33 27  1  0
 19 20  1  0
M  END
> <minimizedAffinity>
-9.35275

> <CNNscore>
0.7371302247

> <CNNaffinity>
7.1915354729

> <CNN_VS>
5.3010983467

> <CNNaffinity_variance>
0.0369394533

$$$$



 33 37  0  0  0  0  0  0  0  0999 V2000
   15.1292  -26.5640  -20.4355 C   0  0  0  0  0  0  0  0  0  0  0  0
   15.5093  -27.8424  -20.2130 C   0  0  0  0  0  0  0  0  0  0  0  0
   14.5245  -28.8208  -19.7996 C   0  0  0  0  0  0  0  0  0  0  0  0
   14.9463  -30.0842  -19.5943 F   0  0  0  0  0  0  0  0  0  0  0  0
   13.2336  -28.5034  -19.6195 C   0  0  0  0  0  0  0  0  0  0  0  0
   12.8136  -27.1655  -19.8415 C   0  0  0  0  0  0  0  0  0  0  0  0
   11.6385  -26.5933  -19.7399 N   0  0  0  0  0  0  0  0  0  0  0  0
   11.8789  -25.2972  -20.0888 C   0  0  0  0  0  0  0  0  0  0  0  0
   13.1494  -25.0285  -20.3923 N   0  0  0  0  0  0  0  0  0  0  0  0
   13.7693  -26.2261  -20.2436 N   0  0  0  0  0  0  0  0  0  0  0  0
   18.0634  -23.6669  -21.6456 C   0  0  0  0  0  0  0  0  0  0  0  0
   18.4181  -25.0061  -21.4919 C   0  0  0  0  0  0  0  0  0  0  0  0
   17.4602  -25.9479  -21.0943 C   0  0  0  0  0  0  0  0  0  0  0  0
   16.1355  -25.5654  -20.8456 C   0  0  0  0  0  0  0  0  0  0  0  0
   15.7879  -24.2171  -20.9985 C   0  0  0  0  0  0  0  0  0  0  0  0
   16.7456  -23.2795  -21.3966 C   0  0  0  0  0  0  0  0  0  0  0  0
   18.3066  -21.5734  -22.7442 C   0  0  0  0  0  0  0  0  0  0  0  0
   18.8955  -22.6514  -22.0275 O   0  0  0  0  0  0  0  0  0  0  0  0
   10.9158  -24.3589  -20.1195 N   0  0  0  0  0  0  0  0  0  0  0  0
   11.2103  -23.4862  -19.7717 H   0  0  0  0  0  0  0  0  0  0  0  0
    9.5757  -24.3655  -20.5453 C   0  0  0  0  0  0  0  0  0  0  0  0
    9.0989  -23.2754  -21.2836 C   0  0  0  0  0  0  0  0  0  0  0  0
    7.7701  -23.2201  -21.7279 C   0  0  0  0  0  0  0  0  0  0  0  0
    6.8564  -24.2474  -21.4558 C   0  0  0  0  0  0  0  0  0  0  0  0
    7.3398  -25.3337  -20.7202 C   0  0  0  0  0  0  0  0  0  0  0  0
    8.6706  -25.3901  -20.2705 C   0  0  0  0  0  0  0  0  0  0  0  0
    5.5409  -24.1442  -21.9206 N   0  0  0  0  0  0  0  0  0  0  0  0
    5.1576  -24.7350  -23.2198 C   0  0  0  0  0  0  0  0  0  0  0  0
    4.3558  -26.0374  -23.0130 C   0  0  0  0  0  0  0  0  0  0  0  0
    3.0729  -25.8342  -22.2965 N   0  0  0  0  0  0  0  0  0  0  0  0
    2.7115  -27.0336  -21.5460 C   0  0  0  0  0  0  0  0  0  0  0  0
    3.1257  -24.6363  -21.4284 C   0  0  0  0  0  0  0  0  0  0  0  0
    4.5205  -24.2949  -20.8519 C   0  0  0  0  0  0  0  0  0  0  0  0
 17 18  1  0
 18 11  1  0
 11 12  2  0
 12 13  1  0
 13 14  2  0
 14  1  1  0
  1  2  2  0
  2  3  1  0
  3  4  1  0
  3  5  2  0
  5  6  1  0
  6  7  2  0
  7  8  1  0
  8 19  1  0
 19 21  1  0
 21 22  2  0
 22 23  1  0
 23 24  2  0
 24 27  1  0
 27 28  1  0
 28 29  1  0
 29 30  1  0
 30 31  1  0
 30 32  1  0
 32 33  1  0
 24 25  1  0
 25 26  2  0
  8  9  2  0
  9 10  1  0
 14 15  1  0
 15 16  2  0
 16 11  1  0
 10  1  1  0
 10  6  1  0
 26 21  1  0
 33 27  1  0
 19 20  1  0
M  END
> <minimizedAffinity>
-8.63790

> <CNNscore>
0.6960776448

> <CNNaffinity>
7.0991950035

> <CNN_VS>
4.9415907860

> <CNNaffinity_variance>
0.0229010228

$$$$



 33 37  0  0  0  0  0  0  0  0999 V2000
   15.2561  -24.6219  -20.6074 C   0  0  0  0  0  0  0  0  0  0  0  0
   16.4761  -25.1797  -20.7772 C   0  0  0  0  0  0  0  0  0  0  0  0
   16.6002  -26.6206  -20.8561 C   0  0  0  0  0  0  0  0  0  0  0  0
   17.8342  -27.1332  -21.0310 F   0  0  0  0  0  0  0  0  0  0  0  0
   15.5391  -27.4357  -20.7592 C   0  0  0  0  0  0  0  0  0  0  0  0
   14.2493  -26.8718  -20.5746 C   0  0  0  0  0  0  0  0  0  0  0  0
   13.0670  -27.4241  -20.4494 N   0  0  0  0  0  0  0  0  0  0  0  0
   12.2266  -26.3599  -20.3061 C   0  0  0  0  0  0  0  0  0  0  0  0
   12.8273  -25.1694  -20.3239 N   0  0  0  0  0  0  0  0  0  0  0  0
   14.1361  -25.4792  -20.5023 N   0  0  0  0  0  0  0  0  0  0  0  0
   14.9121  -20.3473  -20.3309 C   0  0  0  0  0  0  0  0  0  0  0  0
   15.0547  -21.1181  -19.1783 C   0  0  0  0  0  0  0  0  0  0  0  0
   15.1636  -22.5117  -19.2712 C   0  0  0  0  0  0  0  0  0  0  0  0
   15.1322  -23.1542  -20.5158 C   0  0  0  0  0  0  0  0  0  0  0  0
   14.9847  -22.3729  -21.6692 C   0  0  0  0  0  0  0  0  0  0  0  0
   14.8775  -20.9823  -21.5737 C   0  0  0  0  0  0  0  0  0  0  0  0
   14.2068  -18.3488  -19.2550 C   0  0  0  0  0  0  0  0  0  0  0  0
   14.7974  -18.9858  -20.3810 O   0  0  0  0  0  0  0  0  0  0  0  0
   10.8974  -26.4951  -20.1522 N   0  0  0  0  0  0  0  0  0  0  0  0
   10.6352  -27.3642  -19.7711 H   0  0  0  0  0  0  0  0  0  0  0  0
    9.8043  -25.6529  -20.4225 C   0  0  0  0  0  0  0  0  0  0  0  0
    8.5168  -26.0949  -20.0939 C   0  0  0  0  0  0  0  0  0  0  0  0
    7.3869  -25.3043  -20.3475 C   0  0  0  0  0  0  0  0  0  0  0  0
    7.4883  -24.0386  -20.9408 C   0  0  0  0  0  0  0  0  0  0  0  0
    8.7769  -23.6027  -21.2642 C   0  0  0  0  0  0  0  0  0  0  0  0
    9.9112  -24.3947  -21.0142 C   0  0  0  0  0  0  0  0  0  0  0  0
    6.3304  -23.2891  -21.1741 N   0  0  0  0  0  0  0  0  0  0  0  0
    5.5546  -23.4777  -22.4176 C   0  0  0  0  0  0  0  0  0  0  0  0
    4.2665  -24.2821  -22.1420 C   0  0  0  0  0  0  0  0  0  0  0  0
    3.3322  -23.6013  -21.2126 N   0  0  0  0  0  0  0  0  0  0  0  0
    2.5452  -24.5820  -20.4700 C   0  0  0  0  0  0  0  0  0  0  0  0
    4.0516  -22.6748  -20.3096 C   0  0  0  0  0  0  0  0  0  0  0  0
    5.5024  -23.0825  -19.9585 C   0  0  0  0  0  0  0  0  0  0  0  0
 17 18  1  0
 18 11  1  0
 11 12  2  0
 12 13  1  0
 13 14  2  0
 14  1  1  0
  1  2  2  0
  2  3  1  0
  3  4  1  0
  3  5  2  0
  5  6  1  0
  6  7  2  0
  7  8  1  0
  8 19  1  0
 19 21  1  0
 21 22  2  0
 22 23  1  0
 23 24  2  0
 24 27  1  0
 27 28  1  0
 28 29  1  0
 29 30  1  0
 30 31  1  0
 30 32  1  0
 32 33  1  0
 24 25  1  0
 25 26  2  0
  8  9  2  0
  9 10  1  0
 14 15  1  0
 15 16  2  0
 16 11  1  0
 10  1  1  0
 10  6  1  0
 26 21  1  0
 33 27  1  0
 19 20  1  0
M  END
> <minimizedAffinity>
-8.08073

> <CNNscore>
0.6840600967

> <CNNaffinity>
7.1351923943

> <CNN_VS>
4.8809003830

> <CNNaffinity_variance>
0.0575462282

$$$$



 33 37  0  0  0  0  0  0  0  0999 V2000
   13.8618  -26.1502  -20.2658 C   0  0  0  0  0  0  0  0  0  0  0  0
   14.5369  -27.2909  -19.9989 C   0  0  0  0  0  0  0  0  0  0  0  0
   13.8039  -28.5071  -19.7135 C   0  0  0  0  0  0  0  0  0  0  0  0
   14.5171  -29.6217  -19.4584 F   0  0  0  0  0  0  0  0  0  0  0  0
   12.4630  -28.5460  -19.6963 C   0  0  0  0  0  0  0  0  0  0  0  0
   11.7339  -27.3584  -19.9676 C   0  0  0  0  0  0  0  0  0  0  0  0
   10.4459  -27.1185  -20.0135 N   0  0  0  0  0  0  0  0  0  0  0  0
   10.3749  -25.7935  -20.3279 C   0  0  0  0  0  0  0  0  0  0  0  0
   11.5560  -25.1906  -20.4694 N   0  0  0  0  0  0  0  0  0  0  0  0
   12.4481  -26.1879  -20.2456 N   0  0  0  0  0  0  0  0  0  0  0  0
   16.0565  -22.5455  -21.0763 C   0  0  0  0  0  0  0  0  0  0  0  0
   16.2209  -23.2121  -19.8633 C   0  0  0  0  0  0  0  0  0  0  0  0
   15.5019  -24.3854  -19.6005 C   0  0  0  0  0  0  0  0  0  0  0  0
   14.6098  -24.9091  -20.5453 C   0  0  0  0  0  0  0  0  0  0  0  0
   14.4471  -24.2312  -21.7604 C   0  0  0  0  0  0  0  0  0  0  0  0
   15.1668  -23.0612  -22.0205 C   0  0  0  0  0  0  0  0  0  0  0  0
   16.0938  -20.6480  -22.5071 C   0  0  0  0  0  0  0  0  0  0  0  0
   16.6941  -21.3980  -21.4585 O   0  0  0  0  0  0  0  0  0  0  0  0
    9.2088  -25.1404  -20.4780 N   0  0  0  0  0  0  0  0  0  0  0  0
    8.4210  -25.7252  -20.3969 H   0  0  0  0  0  0  0  0  0  0  0  0
    8.8813  -23.7957  -20.7268 C   0  0  0  0  0  0  0  0  0  0  0  0
    9.5478  -22.7965  -20.0069 C   0  0  0  0  0  0  0  0  0  0  0  0
    9.2583  -21.4388  -20.2039 C   0  0  0  0  0  0  0  0  0  0  0  0
    8.2912  -21.0153  -21.1257 C   0  0  0  0  0  0  0  0  0  0  0  0
    7.6313  -22.0181  -21.8426 C   0  0  0  0  0  0  0  0  0  0  0  0
    7.9171  -23.3803  -21.6446 C   0  0  0  0  0  0  0  0  0  0  0  0
    8.0384  -19.6486  -21.2845 N   0  0  0  0  0  0  0  0  0  0  0  0
    8.7629  -18.8675  -22.3085 C   0  0  0  0  0  0  0  0  0  0  0  0
    7.8510  -18.5735  -23.5186 C   0  0  0  0  0  0  0  0  0  0  0  0
    6.6671  -17.7467  -23.1793 N   0  0  0  0  0  0  0  0  0  0  0  0
    5.5556  -18.0542  -24.0752 C   0  0  0  0  0  0  0  0  0  0  0  0
    6.2888  -17.9070  -21.7572 C   0  0  0  0  0  0  0  0  0  0  0  0
    6.6048  -19.2894  -21.1378 C   0  0  0  0  0  0  0  0  0  0  0  0
 17 18  1  0
 18 11  1  0
 11 12  2  0
 12 13  1  0
 13 14  2  0
 14  1  1  0
  1  2  2  0
  2  3  1  0
  3  4  1  0
  3  5  2  0
  5  6  1  0
  6  7  2  0
  7  8  1  0
  8 19  1  0
 19 21  1  0
 21 22  2  0
 22 23  1  0
 23 24  2  0
 24 27  1  0
 27 28  1  0
 28 29  1  0
 29 30  1  0
 30 31  1  0
 30 32  1  0
 32 33  1  0
 24 25  1  0
 25 26  2  0
  8  9  2  0
  9 10  1  0
 14 15  1  0
 15 16  2  0
 16 11  1  0
 10  1  1  0
 10  6  1  0
 26 21  1  0
 33 27  1  0
 19 20  1  0
M  END
> <minimizedAffinity>
-8.02841

> <CNNscore>
0.5473947525

> <CNNaffinity>
6.7640891075

> <CNN_VS>
3.7026269436

> <CNNaffinity_variance>
0.0182843488

$$$$



 33 37  0  0  0  0  0  0  0  0999 V2000
   17.0924  -26.3548  -20.2704 C   0  0  0  0  0  0  0  0  0  0  0  0
   18.1494  -27.0437  -20.7566 C   0  0  0  0  0  0  0  0  0  0  0  0
   19.4346  -26.3880  -20.8840 C   0  0  0  0  0  0  0  0  0  0  0  0
   20.4617  -27.1139  -21.3680 F   0  0  0  0  0  0  0  0  0  0  0  0
   19.6191  -25.1043  -20.5405 C   0  0  0  0  0  0  0  0  0  0  0  0
   18.5215  -24.3602  -20.0335 C   0  0  0  0  0  0  0  0  0  0  0  0
   18.4239  -23.1161  -19.6319 N   0  0  0  0  0  0  0  0  0  0  0  0
   17.1185  -22.9994  -19.2553 C   0  0  0  0  0  0  0  0  0  0  0  0
   16.3923  -24.1068  -19.4127 N   0  0  0  0  0  0  0  0  0  0  0  0
   17.2837  -25.0006  -19.9101 N   0  0  0  0  0  0  0  0  0  0  0  0
   13.2765  -28.2972  -19.9061 C   0  0  0  0  0  0  0  0  0  0  0  0
   14.4444  -28.9664  -19.5443 C   0  0  0  0  0  0  0  0  0  0  0  0
   15.6874  -28.3319  -19.6670 C   0  0  0  0  0  0  0  0  0  0  0  0
   15.7808  -27.0207  -20.1517 C   0  0  0  0  0  0  0  0  0  0  0  0
   14.6028  -26.3562  -20.5169 C   0  0  0  0  0  0  0  0  0  0  0  0
   13.3636  -26.9914  -20.3922 C   0  0  0  0  0  0  0  0  0  0  0  0
   10.9473  -27.8519  -19.7460 C   0  0  0  0  0  0  0  0  0  0  0  0
   12.0060  -28.7973  -19.8352 O   0  0  0  0  0  0  0  0  0  0  0  0
   16.5982  -21.8585  -18.7692 N   0  0  0  0  0  0  0  0  0  0  0  0
   17.1353  -21.4621  -18.0455 H   0  0  0  0  0  0  0  0  0  0  0  0
   15.4464  -21.1141  -19.0799 C   0  0  0  0  0  0  0  0  0  0  0  0
   15.5993  -19.8449  -19.6514 C   0  0  0  0  0  0  0  0  0  0  0  0
   14.4893  -19.0516  -19.9746 C   0  0  0  0  0  0  0  0  0  0  0  0
   13.1773  -19.4861  -19.7421 C   0  0  0  0  0  0  0  0  0  0  0  0
   13.0320  -20.7552  -19.1734 C   0  0  0  0  0  0  0  0  0  0  0  0
   14.1432  -21.5512  -18.8452 C   0  0  0  0  0  0  0  0  0  0  0  0
   12.1034  -18.6564  -20.0814 N   0  0  0  0  0  0  0  0  0  0  0  0
   11.7743  -17.4802  -19.2495 C   0  0  0  0  0  0  0  0  0  0  0  0
   12.2313  -16.1773  -19.9393 C   0  0  0  0  0  0  0  0  0  0  0  0
   11.5543  -15.9257  -21.2349 N   0  0  0  0  0  0  0  0  0  0  0  0
   12.4235  -15.1615  -22.1255 C   0  0  0  0  0  0  0  0  0  0  0  0
   11.1006  -17.1891  -21.8589 C   0  0  0  0  0  0  0  0  0  0  0  0
   11.9645  -18.4334  -21.5433 C   0  0  0  0  0  0  0  0  0  0  0  0
 17 18  1  0
 18 11  1  0
 11 12  2  0
 12 13  1  0
 13 14  2  0
 14  1  1  0
  1  2  2  0
  2  3  1  0
  3  4  1  0
  3  5  2  0
  5  6  1  0
  6  7  2  0
  7  8  1  0
  8 19  1  0
 19 21  1  0
 21 22  2  0
 22 23  1  0
 23 24  2  0
 24 27  1  0
 27 28  1  0
 28 29  1  0
 29 30  1  0
 30 31  1  0
 30 32  1  0
 32 33  1  0
 24 25  1  0
 25 26  2  0
  8  9  2  0
  9 10  1  0
 14 15  1  0
 15 16  2  0
 16 11  1  0
 10  1  1  0
 10  6  1  0
 26 21  1  0
 33 27  1  0
 19 20  1  0
M  END
> <minimizedAffinity>
-8.05147

> <CNNscore>
0.3301673234

> <CNNaffinity>
6.4656758308

> <CNN_VS>
2.1347548962

> <CNNaffinity_variance>
0.0847988129

$$$$



 33 37  0  0  0  0  0  0  0  0999 V2000
   13.6222  -26.3735  -20.2596 C   0  0  0  0  0  0  0  0  0  0  0  0
   13.9853  -27.5655  -19.7347 C   0  0  0  0  0  0  0  0  0  0  0  0
   12.9650  -28.5037  -19.3143 C   0  0  0  0  0  0  0  0  0  0  0  0
   13.3719  -29.6818  -18.8018 F   0  0  0  0  0  0  0  0  0  0  0  0
   11.6559  -28.2305  -19.4198 C   0  0  0  0  0  0  0  0  0  0  0  0
   11.2521  -26.9823  -19.9623 C   0  0  0  0  0  0  0  0  0  0  0  0
   10.0651  -26.4672  -20.1730 N   0  0  0  0  0  0  0  0  0  0  0  0
   10.3345  -25.2468  -20.7183 C   0  0  0  0  0  0  0  0  0  0  0  0
   11.6323  -24.9688  -20.8480 N   0  0  0  0  0  0  0  0  0  0  0  0
   12.2427  -26.0820  -20.3694 N   0  0  0  0  0  0  0  0  0  0  0  0
   16.6425  -23.5649  -21.4666 C   0  0  0  0  0  0  0  0  0  0  0  0
   15.3040  -23.3384  -21.7826 C   0  0  0  0  0  0  0  0  0  0  0  0
   14.3218  -24.2571  -21.3905 C   0  0  0  0  0  0  0  0  0  0  0  0
   14.6627  -25.4138  -20.6772 C   0  0  0  0  0  0  0  0  0  0  0  0
   16.0105  -25.6363  -20.3669 C   0  0  0  0  0  0  0  0  0  0  0  0
   16.9885  -24.7170  -20.7583 C   0  0  0  0  0  0  0  0  0  0  0  0
   17.5822  -21.9971  -22.9858 C   0  0  0  0  0  0  0  0  0  0  0  0
   17.6948  -22.7525  -21.7861 O   0  0  0  0  0  0  0  0  0  0  0  0
    9.3714  -24.3853  -21.0913 N   0  0  0  0  0  0  0  0  0  0  0  0
    9.6162  -23.8419  -21.8749 H   0  0  0  0  0  0  0  0  0  0  0  0
    8.0873  -24.0996  -20.5945 C   0  0  0  0  0  0  0  0  0  0  0  0
    7.8663  -22.8655  -19.9709 C   0  0  0  0  0  0  0  0  0  0  0  0
    6.6103  -22.5269  -19.4475 C   0  0  0  0  0  0  0  0  0  0  0  0
    5.5185  -23.4025  -19.5206 C   0  0  0  0  0  0  0  0  0  0  0  0
    5.7456  -24.6319  -20.1467 C   0  0  0  0  0  0  0  0  0  0  0  0
    7.0047  -24.9754  -20.6692 C   0  0  0  0  0  0  0  0  0  0  0  0
    4.2860  -23.0180  -18.9821 N   0  0  0  0  0  0  0  0  0  0  0  0
    3.6204  -23.8558  -17.9628 C   0  0  0  0  0  0  0  0  0  0  0  0
    3.7607  -23.2261  -16.5607 C   0  0  0  0  0  0  0  0  0  0  0  0
    3.1112  -21.8979  -16.4417 N   0  0  0  0  0  0  0  0  0  0  0  0
    3.7989  -21.0803  -15.4461 C   0  0  0  0  0  0  0  0  0  0  0  0
    3.0333  -21.2177  -17.7542 C   0  0  0  0  0  0  0  0  0  0  0  0
    4.1718  -21.5561  -18.7460 C   0  0  0  0  0  0  0  0  0  0  0  0
 17 18  1  0
 18 11  1  0
 11 12  2  0
 12 13  1  0
 13 14  2  0
 14  1  1  0
  1  2  2  0
  2  3  1  0
  3  4  1  0
  3  5  2  0
  5  6  1  0
  6  7  2  0
  7  8  1  0
  8 19  1  0
 19 21  1  0
 21 22  2  0
 22 23  1  0
 23 24  2  0
 24 27  1  0
 27 28  1  0
 28 29  1  0
 29 30  1  0
 30 31  1  0
 30 32  1  0
 32 33  1  0
 24 25  1  0
 25 26  2  0
  8  9  2  0
  9 10  1  0
 14 15  1  0
 15 16  2  0
 16 11  1  0
 10  1  1  0
 10  6  1  0
 26 21  1  0
 33 27  1  0
 19 20  1  0
M  END
> <minimizedAffinity>
-9.18949

> <CNNscore>
0.2863489985

> <CNNaffinity>
6.5149521828

> <CNN_VS>
1.8655500412

> <CNNaffinity_variance>
0.1925412565

$$$$



 33 37  0  0  0  0  0  0  0  0999 V2000
   14.6888  -25.2906  -20.5267 C   0  0  0  0  0  0  0  0  0  0  0  0
   15.2701  -26.5108  -20.4871 C   0  0  0  0  0  0  0  0  0  0  0  0
   14.4432  -27.6949  -20.3779 C   0  0  0  0  0  0  0  0  0  0  0  0
   15.0642  -28.8905  -20.3472 F   0  0  0  0  0  0  0  0  0  0  0  0
   13.1052  -27.6282  -20.3065 C   0  0  0  0  0  0  0  0  0  0  0  0
   12.4741  -26.3569  -20.3401 C   0  0  0  0  0  0  0  0  0  0  0  0
   11.2111  -26.0098  -20.2862 N   0  0  0  0  0  0  0  0  0  0  0  0
   11.2459  -24.6492  -20.3691 C   0  0  0  0  0  0  0  0  0  0  0  0
   12.4700  -24.1279  -20.4604 N   0  0  0  0  0  0  0  0  0  0  0  0
   13.2785  -25.2174  -20.4489 N   0  0  0  0  0  0  0  0  0  0  0  0
   17.1622  -21.7880  -20.8123 C   0  0  0  0  0  0  0  0  0  0  0  0
   17.1107  -22.5187  -19.6264 C   0  0  0  0  0  0  0  0  0  0  0  0
   16.3012  -23.6584  -19.5351 C   0  0  0  0  0  0  0  0  0  0  0  0
   15.5329  -24.0841  -20.6266 C   0  0  0  0  0  0  0  0  0  0  0  0
   15.5870  -23.3423  -21.8136 C   0  0  0  0  0  0  0  0  0  0  0  0
   16.3967  -22.2060  -21.9024 C   0  0  0  0  0  0  0  0  0  0  0  0
   18.3685  -19.9610  -19.8873 C   0  0  0  0  0  0  0  0  0  0  0  0
   17.9077  -20.6637  -21.0346 O   0  0  0  0  0  0  0  0  0  0  0  0
   10.1370  -23.8883  -20.3537 N   0  0  0  0  0  0  0  0  0  0  0  0
   10.2836  -22.9930  -19.9714 H   0  0  0  0  0  0  0  0  0  0  0  0
    8.8118  -24.1060  -20.7702 C   0  0  0  0  0  0  0  0  0  0  0  0
    8.0910  -25.1611  -20.1973 C   0  0  0  0  0  0  0  0  0  0  0  0
    6.7694  -25.4337  -20.5783 C   0  0  0  0  0  0  0  0  0  0  0  0
    6.1068  -24.6687  -21.5478 C   0  0  0  0  0  0  0  0  0  0  0  0
    6.8316  -23.6155  -22.1139 C   0  0  0  0  0  0  0  0  0  0  0  0
    8.1578  -23.3421  -21.7363 C   0  0  0  0  0  0  0  0  0  0  0  0
    4.7881  -24.9821  -21.8938 N   0  0  0  0  0  0  0  0  0  0  0  0
    3.6613  -24.2212  -21.3150 C   0  0  0  0  0  0  0  0  0  0  0  0
    3.0748  -23.2393  -22.3513 C   0  0  0  0  0  0  0  0  0  0  0  0
    2.5045  -23.9107  -23.5448 N   0  0  0  0  0  0  0  0  0  0  0  0
    2.6031  -23.0427  -24.7150 C   0  0  0  0  0  0  0  0  0  0  0  0
    3.1433  -25.2254  -23.7789 C   0  0  0  0  0  0  0  0  0  0  0  0
    4.6188  -25.3368  -23.3261 C   0  0  0  0  0  0  0  0  0  0  0  0
 17 18  1  0
 18 11  1  0
 11 12  2  0
 12 13  1  0
 13 14  2  0
 14  1  1  0
  1  2  2  0
  2  3  1  0
  3  4  1  0
  3  5  2  0
  5  6  1  0
  6  7  2  0
  7  8  1  0
  8 19  1  0
 19 21  1  0
 21 22  2  0
 22 23  1  0
 23 24  2  0
 24 27  1  0
 27 28  1  0
 28 29  1  0
 29 30  1  0
 30 31  1  0
 30 32  1  0
 32 33  1  0
 24 25  1  0
 25 26  2  0
  8  9  2  0
  9 10  1  0
 14 15  1  0
 15 16  2  0
 16 11  1  0
 10  1  1  0
 10  6  1  0
 26 21  1  0
 33 27  1  0
 19 20  1  0
M  END
> <minimizedAffinity>
-7.80224

> <CNNscore>
0.2750195265

> <CNNaffinity>
6.6386399269

> <CNN_VS>
1.8257555962

> <CNNaffinity_variance>
0.0325152911

$$$$
