


 41 44  0  0  0  0  0  0  0  0999 V2000
    2.6061   62.3757   69.8989 C   0  0  0  0  0  0  0  0  0  0  0  0
    3.0117   63.7724   70.3683 C   0  0  0  0  0  0  0  0  0  0  0  0
    4.5337   63.9373   70.3627 C   0  0  0  0  0  0  0  0  0  0  0  0
    4.9440   65.2983   69.7967 C   0  0  0  0  0  0  0  0  0  0  0  0
    4.9337   65.3497   68.2657 C   0  0  0  0  0  0  0  0  0  0  0  0
    4.2082   66.5721   67.6938 C   0  0  0  0  0  0  0  0  0  0  0  0
    4.6456   66.8369   66.2481 C   0  0  0  0  0  0  0  0  0  0  0  0
    3.5284   67.1124   65.3447 N   0  0  0  0  0  0  0  0  0  0  0  0
    3.6146   66.4930   64.5389 H   0  0  0  0  0  0  0  0  0  0  0  0
    0.5928   68.5106   60.0562 O   0  0  0  0  0  0  0  0  0  0  0  0
    1.2179   68.5109   61.1112 C   0  0  0  0  0  0  0  0  0  0  0  0
    0.5257   68.4174   62.4189 C   0  0  0  0  0  0  0  0  0  0  0  0
    1.2468   68.4106   63.5490 C   0  0  0  0  0  0  0  0  0  0  0  0
    2.7015   68.4901   63.5196 C   0  0  0  0  0  0  0  0  0  0  0  0
    3.3266   68.5946   62.3283 C   0  0  0  0  0  0  0  0  0  0  0  0
    2.5858   68.6044   61.1656 N   0  0  0  0  0  0  0  0  0  0  0  0
    4.8210   68.7061   62.1781 C   0  0  0  0  0  0  0  0  0  0  0  0
    5.5910   68.5102   63.4862 C   0  0  0  0  0  0  0  0  0  0  0  0
    4.8423   69.1321   64.6628 C   0  0  0  0  0  0  0  0  0  0  0  0
    3.4470   68.4968   64.8478 C   0  0  0  0  0  0  0  0  0  0  0  0
    3.0728   68.6841   60.3137 H   0  0  0  0  0  0  0  0  0  0  0  0
    1.3376   61.8321   70.5646 C   0  0  0  0  0  0  0  0  0  0  0  0
    0.4515   62.8920   71.2310 C   0  0  0  0  0  0  0  0  0  0  0  0
   -0.7217   62.2943   72.0125 C   0  0  0  0  0  0  0  0  0  0  0  0
   -0.3378   61.0573   72.8339 C   0  0  0  0  0  0  0  0  0  0  0  0
    0.9865   61.2163   73.5902 C   0  0  0  0  0  0  0  0  0  0  0  0
    1.1248   60.2555   74.6832 N   0  0  0  0  0  0  0  0  0  0  0  0
    0.4493   59.5073   74.5276 H   0  0  0  0  0  0  0  0  0  0  0  0
    2.4552   59.6362   74.8396 C   0  0  0  0  0  0  0  0  0  0  0  0
    2.4148   58.7495   76.1084 C   0  0  0  0  0  0  0  0  0  0  0  0
    1.4182   57.6018   75.9640 C   0  0  0  0  0  0  0  0  0  0  0  0
    1.6738   56.7697   74.7078 C   0  0  0  0  0  0  0  0  0  0  0  0
    2.4201   57.4717   73.6001 C   0  0  0  0  0  0  0  0  0  0  0  0
    2.7020   56.6941   72.4977 N   0  0  0  0  0  0  0  0  0  0  0  0
    3.3771   57.1267   71.3913 C   0  0  0  0  0  0  0  0  0  0  0  0
    3.5650   56.4202   70.4086 O   0  0  0  0  0  0  0  0  0  0  0  0
    3.9106   58.4981   71.4647 C   0  0  0  0  0  0  0  0  0  0  0  0
    3.6660   59.2605   72.5439 C   0  0  0  0  0  0  0  0  0  0  0  0
    4.5299   60.9255   72.6474 Br  0  0  0  0  0  0  0  0  0  0  0  0
    2.8205   58.7648   73.6412 C   0  0  0  0  0  0  0  0  0  0  0  0
    2.3946   55.7589   72.5082 H   0  0  0  0  0  0  0  0  0  0  0  0
 10 11  2  0
 11 12  1  0
 12 13  2  0
 13 14  1  0
 14 15  2  0
 15 16  1  0
 15 17  1  0
 17 18  1  0
 18 19  1  0
 19 20  1  0
 20  8  1  0
  8  7  1  0
  7  6  1  0
  6  5  1  0
  5  4  1  0
  4  3  1  0
  3  2  1  0
  2  1  1  0
  1 22  1  0
 22 23  1  0
 23 24  1  0
 24 25  1  0
 25 26  1  0
 26 27  1  0
 29 27  1  0
 29 30  1  0
 30 31  1  0
 31 32  1  0
 32 33  1  0
 33 34  1  0
 34 35  1  0
 35 36  2  0
 35 37  1  0
 37 38  2  0
 38 39  1  0
 38 40  1  0
 16 11  1  0
 40 29  1  0
 20 14  1  0
 40 33  2  0
 16 21  1  0
  8  9  1  0
 27 28  1  0
 34 41  1  0
M  END
> <minimizedAffinity>
-10.27976

> <CNNscore>
0.8702134490

> <CNNaffinity>
8.6157541275

> <CNN_VS>
7.4975452423

> <CNNaffinity_variance>
0.1074030027

$$$$



 41 44  0  0  0  0  0  0  0  0999 V2000
    2.8589   63.9628   69.9842 C   0  0  0  0  0  0  0  0  0  0  0  0
    2.0253   63.0715   70.9041 C   0  0  0  0  0  0  0  0  0  0  0  0
    0.5290   63.2327   70.6230 C   0  0  0  0  0  0  0  0  0  0  0  0
   -0.3151   62.4785   71.6525 C   0  0  0  0  0  0  0  0  0  0  0  0
    0.3752   61.2292   72.2089 C   0  0  0  0  0  0  0  0  0  0  0  0
    0.3815   61.1572   73.7394 C   0  0  0  0  0  0  0  0  0  0  0  0
    1.7958   60.8834   74.2651 C   0  0  0  0  0  0  0  0  0  0  0  0
    1.8956   59.6527   75.0496 N   0  0  0  0  0  0  0  0  0  0  0  0
    2.0580   59.9116   76.0227 H   0  0  0  0  0  0  0  0  0  0  0  0
    4.5076   59.9832   69.4275 O   0  0  0  0  0  0  0  0  0  0  0  0
    4.1732   59.7074   70.5747 C   0  0  0  0  0  0  0  0  0  0  0  0
    4.6358   60.5147   71.7289 C   0  0  0  0  0  0  0  0  0  0  0  0
    4.2390   60.1857   72.9664 C   0  0  0  0  0  0  0  0  0  0  0  0
    3.3571   59.0499   73.2021 C   0  0  0  0  0  0  0  0  0  0  0  0
    2.9539   58.3062   72.1508 C   0  0  0  0  0  0  0  0  0  0  0  0
    3.3636   58.6420   70.8780 N   0  0  0  0  0  0  0  0  0  0  0  0
    2.0627   57.0986   72.2771 C   0  0  0  0  0  0  0  0  0  0  0  0
    1.5021   56.8874   73.6855 C   0  0  0  0  0  0  0  0  0  0  0  0
    2.5364   57.2507   74.7486 C   0  0  0  0  0  0  0  0  0  0  0  0
    2.9677   58.7295   74.6393 C   0  0  0  0  0  0  0  0  0  0  0  0
    3.0533   58.0771   70.1338 H   0  0  0  0  0  0  0  0  0  0  0  0
    4.3607   63.9496   70.2873 C   0  0  0  0  0  0  0  0  0  0  0  0
    5.1912   64.9618   69.4882 C   0  0  0  0  0  0  0  0  0  0  0  0
    4.4308   65.5674   68.3052 C   0  0  0  0  0  0  0  0  0  0  0  0
    5.3384   65.9438   67.1276 C   0  0  0  0  0  0  0  0  0  0  0  0
    4.6462   65.8265   65.7644 C   0  0  0  0  0  0  0  0  0  0  0  0
    5.1423   66.8062   64.7994 N   0  0  0  0  0  0  0  0  0  0  0  0
    4.9406   66.4521   63.8644 H   0  0  0  0  0  0  0  0  0  0  0  0
    4.5722   68.1636   64.9000 C   0  0  0  0  0  0  0  0  0  0  0  0
    5.4799   69.1164   64.0838 C   0  0  0  0  0  0  0  0  0  0  0  0
    5.4845   68.7585   62.5996 C   0  0  0  0  0  0  0  0  0  0  0  0
    4.0733   68.6944   62.0166 C   0  0  0  0  0  0  0  0  0  0  0  0
    2.9670   68.4398   63.0107 C   0  0  0  0  0  0  0  0  0  0  0  0
    1.6928   68.4475   62.4855 N   0  0  0  0  0  0  0  0  0  0  0  0
    0.5507   68.2510   63.2095 C   0  0  0  0  0  0  0  0  0  0  0  0
   -0.5621   68.2148   62.6990 O   0  0  0  0  0  0  0  0  0  0  0  0
    0.7320   68.1249   64.6661 C   0  0  0  0  0  0  0  0  0  0  0  0
    1.9666   68.1410   65.1964 C   0  0  0  0  0  0  0  0  0  0  0  0
    2.1094   68.1611   67.0695 Br  0  0  0  0  0  0  0  0  0  0  0  0
    3.1561   68.2283   64.3349 C   0  0  0  0  0  0  0  0  0  0  0  0
    1.5986   68.6062   61.5185 H   0  0  0  0  0  0  0  0  0  0  0  0
 10 11  2  0
 11 12  1  0
 12 13  2  0
 13 14  1  0
 14 15  2  0
 15 16  1  0
 15 17  1  0
 17 18  1  0
 18 19  1  0
 19 20  1  0
 20  8  1  0
  8  7  1  0
  7  6  1  0
  6  5  1  0
  5  4  1  0
  4  3  1  0
  3  2  1  0
  2  1  1  0
  1 22  1  0
 22 23  1  0
 23 24  1  0
 24 25  1  0
 25 26  1  0
 26 27  1  0
 29 27  1  0
 29 30  1  0
 30 31  1  0
 31 32  1  0
 32 33  1  0
 33 34  1  0
 34 35  1  0
 35 36  2  0
 35 37  1  0
 37 38  2  0
 38 39  1  0
 38 40  1  0
 16 11  1  0
 40 29  1  0
 20 14  1  0
 40 33  2  0
 16 21  1  0
  8  9  1  0
 27 28  1  0
 34 41  1  0
M  END
> <minimizedAffinity>
-10.35998

> <CNNscore>
0.6374360323

> <CNNaffinity>
8.2870635986

> <CNN_VS>
5.2824730873

> <CNNaffinity_variance>
0.3589144647

$$$$



 41 44  0  0  0  0  0  0  0  0999 V2000
    3.9807   62.2018   70.0753 C   0  0  0  0  0  0  0  0  0  0  0  0
    3.6030   63.6169   69.6391 C   0  0  0  0  0  0  0  0  0  0  0  0
    4.8092   64.5572   69.7077 C   0  0  0  0  0  0  0  0  0  0  0  0
    4.6986   65.6807   68.6749 C   0  0  0  0  0  0  0  0  0  0  0  0
    3.9918   65.2545   67.3843 C   0  0  0  0  0  0  0  0  0  0  0  0
    4.8131   65.5117   66.1167 C   0  0  0  0  0  0  0  0  0  0  0  0
    3.9249   66.0666   64.9966 C   0  0  0  0  0  0  0  0  0  0  0  0
    2.8549   66.9382   65.4819 N   0  0  0  0  0  0  0  0  0  0  0  0
    1.9641   66.5363   65.1896 H   0  0  0  0  0  0  0  0  0  0  0  0
    0.4948   68.5659   59.9754 O   0  0  0  0  0  0  0  0  0  0  0  0
    1.0230   68.5172   61.0812 C   0  0  0  0  0  0  0  0  0  0  0  0
    0.2132   68.4592   62.3217 C   0  0  0  0  0  0  0  0  0  0  0  0
    0.8295   68.3966   63.5105 C   0  0  0  0  0  0  0  0  0  0  0  0
    2.2832   68.3810   63.6100 C   0  0  0  0  0  0  0  0  0  0  0  0
    3.0167   68.4534   62.4796 C   0  0  0  0  0  0  0  0  0  0  0  0
    2.3838   68.5206   61.2566 N   0  0  0  0  0  0  0  0  0  0  0  0
    4.5226   68.4681   62.4627 C   0  0  0  0  0  0  0  0  0  0  0  0
    5.1597   68.2122   63.8306 C   0  0  0  0  0  0  0  0  0  0  0  0
    4.3515   68.8728   64.9452 C   0  0  0  0  0  0  0  0  0  0  0  0
    2.9072   68.3287   64.9984 C   0  0  0  0  0  0  0  0  0  0  0  0
    2.9484   68.5748   60.4519 H   0  0  0  0  0  0  0  0  0  0  0  0
    2.9536   61.1308   69.6937 C   0  0  0  0  0  0  0  0  0  0  0  0
    2.7520   60.0260   70.7385 C   0  0  0  0  0  0  0  0  0  0  0  0
    3.7553   60.0958   71.8930 C   0  0  0  0  0  0  0  0  0  0  0  0
    3.1210   60.5143   73.2252 C   0  0  0  0  0  0  0  0  0  0  0  0
    3.0825   59.3850   74.2618 C   0  0  0  0  0  0  0  0  0  0  0  0
    1.7276   59.1066   74.7350 N   0  0  0  0  0  0  0  0  0  0  0  0
    1.4140   59.9135   75.2743 H   0  0  0  0  0  0  0  0  0  0  0  0
    0.7172   58.8408   73.6928 C   0  0  0  0  0  0  0  0  0  0  0  0
    0.6057   57.3052   73.5269 C   0  0  0  0  0  0  0  0  0  0  0  0
    0.0987   56.6347   74.8014 C   0  0  0  0  0  0  0  0  0  0  0  0
   -1.2163   57.2415   75.2893 C   0  0  0  0  0  0  0  0  0  0  0  0
   -1.4948   58.6517   74.8303 C   0  0  0  0  0  0  0  0  0  0  0  0
   -2.7116   59.1669   75.2221 N   0  0  0  0  0  0  0  0  0  0  0  0
   -3.1668   60.4159   74.9062 C   0  0  0  0  0  0  0  0  0  0  0  0
   -4.2333   60.8581   75.3152 O   0  0  0  0  0  0  0  0  0  0  0  0
   -2.3091   61.1972   73.9981 C   0  0  0  0  0  0  0  0  0  0  0  0
   -1.1311   60.6982   73.5865 C   0  0  0  0  0  0  0  0  0  0  0  0
   -0.1805   61.6682   72.2886 Br  0  0  0  0  0  0  0  0  0  0  0  0
   -0.6523   59.3955   74.0747 C   0  0  0  0  0  0  0  0  0  0  0  0
   -3.2952   58.5933   75.7695 H   0  0  0  0  0  0  0  0  0  0  0  0
 10 11  2  0
 11 12  1  0
 12 13  2  0
 13 14  1  0
 14 15  2  0
 15 16  1  0
 15 17  1  0
 17 18  1  0
 18 19  1  0
 19 20  1  0
 20  8  1  0
  8  7  1  0
  7  6  1  0
  6  5  1  0
  5  4  1  0
  4  3  1  0
  3  2  1  0
  2  1  1  0
  1 22  1  0
 22 23  1  0
 23 24  1  0
 24 25  1  0
 25 26  1  0
 26 27  1  0
 29 27  1  0
 29 30  1  0
 30 31  1  0
 31 32  1  0
 32 33  1  0
 33 34  1  0
 34 35  1  0
 35 36  2  0
 35 37  1  0
 37 38  2  0
 38 39  1  0
 38 40  1  0
 16 11  1  0
 40 29  1  0
 20 14  1  0
 40 33  2  0
 16 21  1  0
  8  9  1  0
 27 28  1  0
 34 41  1  0
M  END
> <minimizedAffinity>
-9.81688

> <CNNscore>
0.6170753837

> <CNNaffinity>
8.3178815842

> <CNN_VS>
5.1327600479

> <CNNaffinity_variance>
0.0803516805

$$$$



 41 44  0  0  0  0  0  0  0  0999 V2000
    1.9674   62.8045   69.9474 C   0  0  0  0  0  0  0  0  0  0  0  0
    3.0945   63.5539   70.6571 C   0  0  0  0  0  0  0  0  0  0  0  0
    4.0931   64.1323   69.6512 C   0  0  0  0  0  0  0  0  0  0  0  0
    3.4595   65.2468   68.8159 C   0  0  0  0  0  0  0  0  0  0  0  0
    4.2777   65.6188   67.5753 C   0  0  0  0  0  0  0  0  0  0  0  0
    3.8284   64.8975   66.3004 C   0  0  0  0  0  0  0  0  0  0  0  0
    3.3150   65.9007   65.2604 C   0  0  0  0  0  0  0  0  0  0  0  0
    2.4024   66.8990   65.8177 N   0  0  0  0  0  0  0  0  0  0  0  0
    1.4487   66.6120   65.5972 H   0  0  0  0  0  0  0  0  0  0  0  0
    0.8205   68.5150   60.0361 O   0  0  0  0  0  0  0  0  0  0  0  0
    1.2076   68.4653   61.1987 C   0  0  0  0  0  0  0  0  0  0  0  0
    0.2518   68.4814   62.3319 C   0  0  0  0  0  0  0  0  0  0  0  0
    0.7155   68.4151   63.5880 C   0  0  0  0  0  0  0  0  0  0  0  0
    2.1433   68.3239   63.8645 C   0  0  0  0  0  0  0  0  0  0  0  0
    3.0109   68.3291   62.8309 C   0  0  0  0  0  0  0  0  0  0  0  0
    2.5352   68.4000   61.5388 N   0  0  0  0  0  0  0  0  0  0  0  0
    4.5063   68.2625   62.9976 C   0  0  0  0  0  0  0  0  0  0  0  0
    4.9579   68.0065   64.4374 C   0  0  0  0  0  0  0  0  0  0  0  0
    4.0594   68.7367   65.4330 C   0  0  0  0  0  0  0  0  0  0  0  0
    2.5910   68.2724   65.3194 C   0  0  0  0  0  0  0  0  0  0  0  0
    3.1951   68.4040   60.8082 H   0  0  0  0  0  0  0  0  0  0  0  0
    1.0392   62.0279   70.8871 C   0  0  0  0  0  0  0  0  0  0  0  0
    0.2694   62.8907   71.8949 C   0  0  0  0  0  0  0  0  0  0  0  0
   -0.6123   62.0722   72.8419 C   0  0  0  0  0  0  0  0  0  0  0  0
   -0.1655   60.6113   72.9782 C   0  0  0  0  0  0  0  0  0  0  0  0
    0.9707   60.4145   73.9888 C   0  0  0  0  0  0  0  0  0  0  0  0
    0.6984   59.3314   74.9321 N   0  0  0  0  0  0  0  0  0  0  0  0
   -0.3017   59.3370   75.1326 H   0  0  0  0  0  0  0  0  0  0  0  0
    1.0607   57.9729   74.4839 C   0  0  0  0  0  0  0  0  0  0  0  0
    2.3910   58.0762   73.6981 C   0  0  0  0  0  0  0  0  0  0  0  0
    3.5357   58.5578   74.5863 C   0  0  0  0  0  0  0  0  0  0  0  0
    3.6926   57.7005   75.8416 C   0  0  0  0  0  0  0  0  0  0  0  0
    2.4602   56.9454   76.2750 C   0  0  0  0  0  0  0  0  0  0  0  0
    2.6290   56.1256   77.3700 N   0  0  0  0  0  0  0  0  0  0  0  0
    1.6492   55.3469   77.9184 C   0  0  0  0  0  0  0  0  0  0  0  0
    1.8235   54.6687   78.9234 O   0  0  0  0  0  0  0  0  0  0  0  0
    0.3641   55.3361   77.1979 C   0  0  0  0  0  0  0  0  0  0  0  0
    0.1920   56.1108   76.1135 C   0  0  0  0  0  0  0  0  0  0  0  0
   -1.4032   55.9070   75.1423 Br  0  0  0  0  0  0  0  0  0  0  0  0
    1.2561   57.0199   75.6597 C   0  0  0  0  0  0  0  0  0  0  0  0
    3.5202   56.0991   77.7873 H   0  0  0  0  0  0  0  0  0  0  0  0
 10 11  2  0
 11 12  1  0
 12 13  2  0
 13 14  1  0
 14 15  2  0
 15 16  1  0
 15 17  1  0
 17 18  1  0
 18 19  1  0
 19 20  1  0
 20  8  1  0
  8  7  1  0
  7  6  1  0
  6  5  1  0
  5  4  1  0
  4  3  1  0
  3  2  1  0
  2  1  1  0
  1 22  1  0
 22 23  1  0
 23 24  1  0
 24 25  1  0
 25 26  1  0
 26 27  1  0
 29 27  1  0
 29 30  1  0
 30 31  1  0
 31 32  1  0
 32 33  1  0
 33 34  1  0
 34 35  1  0
 35 36  2  0
 35 37  1  0
 37 38  2  0
 38 39  1  0
 38 40  1  0
 16 11  1  0
 40 29  1  0
 20 14  1  0
 40 33  2  0
 16 21  1  0
  8  9  1  0
 27 28  1  0
 34 41  1  0
M  END
> <minimizedAffinity>
-8.52735

> <CNNscore>
0.6017901897

> <CNNaffinity>
8.0764646530

> <CNN_VS>
4.8603372574

> <CNNaffinity_variance>
0.0239007175

$$$$



 41 44  0  0  0  0  0  0  0  0999 V2000
    3.4281   63.0936   69.2785 C   0  0  0  0  0  0  0  0  0  0  0  0
    2.7980   62.0978   70.2516 C   0  0  0  0  0  0  0  0  0  0  0  0
    1.7649   62.7818   71.1509 C   0  0  0  0  0  0  0  0  0  0  0  0
    0.5851   61.8542   71.4486 C   0  0  0  0  0  0  0  0  0  0  0  0
   -0.3061   62.3496   72.5920 C   0  0  0  0  0  0  0  0  0  0  0  0
    0.4678   63.0200   73.7319 C   0  0  0  0  0  0  0  0  0  0  0  0
    0.3178   62.2229   75.0333 C   0  0  0  0  0  0  0  0  0  0  0  0
    1.5974   61.8620   75.6439 N   0  0  0  0  0  0  0  0  0  0  0  0
    2.3430   62.2453   75.0630 H   0  0  0  0  0  0  0  0  0  0  0  0
    3.0384   58.2669   70.7921 O   0  0  0  0  0  0  0  0  0  0  0  0
    2.7776   58.7375   71.8941 C   0  0  0  0  0  0  0  0  0  0  0  0
    3.7918   59.4877   72.6729 C   0  0  0  0  0  0  0  0  0  0  0  0
    3.4633   59.9950   73.8695 C   0  0  0  0  0  0  0  0  0  0  0  0
    2.1252   59.8272   74.4217 C   0  0  0  0  0  0  0  0  0  0  0  0
    1.2108   59.1272   73.7184 C   0  0  0  0  0  0  0  0  0  0  0  0
    1.5485   58.6027   72.4889 N   0  0  0  0  0  0  0  0  0  0  0  0
   -0.1932   58.8710   74.1996 C   0  0  0  0  0  0  0  0  0  0  0  0
   -0.5563   59.6265   75.4802 C   0  0  0  0  0  0  0  0  0  0  0  0
    0.6330   59.6910   76.4359 C   0  0  0  0  0  0  0  0  0  0  0  0
    1.8368   60.4165   75.7963 C   0  0  0  0  0  0  0  0  0  0  0  0
    0.8586   58.0954   72.0031 H   0  0  0  0  0  0  0  0  0  0  0  0
    3.1894   62.7660   67.8009 C   0  0  0  0  0  0  0  0  0  0  0  0
    3.8157   63.7548   66.8094 C   0  0  0  0  0  0  0  0  0  0  0  0
    3.4221   63.4831   65.3550 C   0  0  0  0  0  0  0  0  0  0  0  0
    4.1763   64.3593   64.3472 C   0  0  0  0  0  0  0  0  0  0  0  0
    3.5530   65.7480   64.1623 C   0  0  0  0  0  0  0  0  0  0  0  0
    4.2189   66.7711   64.9666 N   0  0  0  0  0  0  0  0  0  0  0  0
    5.2044   66.7813   64.7039 H   0  0  0  0  0  0  0  0  0  0  0  0
    3.7011   68.1460   64.8274 C   0  0  0  0  0  0  0  0  0  0  0  0
    4.9177   69.0976   64.7171 C   0  0  0  0  0  0  0  0  0  0  0  0
    5.7423   68.8173   63.4630 C   0  0  0  0  0  0  0  0  0  0  0  0
    4.8916   68.8476   62.1939 C   0  0  0  0  0  0  0  0  0  0  0  0
    3.4174   68.5923   62.3896 C   0  0  0  0  0  0  0  0  0  0  0  0
    2.6492   68.6851   61.2490 N   0  0  0  0  0  0  0  0  0  0  0  0
    1.2956   68.5033   61.2046 C   0  0  0  0  0  0  0  0  0  0  0  0
    0.6531   68.5442   60.1626 O   0  0  0  0  0  0  0  0  0  0  0  0
    0.6366   68.2939   62.5056 C   0  0  0  0  0  0  0  0  0  0  0  0
    1.3692   68.2263   63.6301 C   0  0  0  0  0  0  0  0  0  0  0  0
    0.4484   68.1429   65.2654 Br  0  0  0  0  0  0  0  0  0  0  0  0
    2.8376   68.3041   63.5791 C   0  0  0  0  0  0  0  0  0  0  0  0
    3.1091   68.8977   60.4050 H   0  0  0  0  0  0  0  0  0  0  0  0
 10 11  2  0
 11 12  1  0
 12 13  2  0
 13 14  1  0
 14 15  2  0
 15 16  1  0
 15 17  1  0
 17 18  1  0
 18 19  1  0
 19 20  1  0
 20  8  1  0
  8  7  1  0
  7  6  1  0
  6  5  1  0
  5  4  1  0
  4  3  1  0
  3  2  1  0
  2  1  1  0
  1 22  1  0
 22 23  1  0
 23 24  1  0
 24 25  1  0
 25 26  1  0
 26 27  1  0
 29 27  1  0
 29 30  1  0
 30 31  1  0
 31 32  1  0
 32 33  1  0
 33 34  1  0
 34 35  1  0
 35 36  2  0
 35 37  1  0
 37 38  2  0
 38 39  1  0
 38 40  1  0
 16 11  1  0
 40 29  1  0
 20 14  1  0
 40 33  2  0
 16 21  1  0
  8  9  1  0
 27 28  1  0
 34 41  1  0
M  END
> <minimizedAffinity>
-8.64451

> <CNNscore>
0.5822125673

> <CNNaffinity>
8.3523254395

> <CNN_VS>
4.8628287315

> <CNNaffinity_variance>
0.1900923997

$$$$



 41 44  0  0  0  0  0  0  0  0999 V2000
    3.1197   60.6660   69.6938 C   0  0  0  0  0  0  0  0  0  0  0  0
    3.7894   62.0145   69.4315 C   0  0  0  0  0  0  0  0  0  0  0  0
    2.8070   63.1698   69.6410 C   0  0  0  0  0  0  0  0  0  0  0  0
    3.4449   64.3039   70.4460 C   0  0  0  0  0  0  0  0  0  0  0  0
    3.8541   65.5050   69.5876 C   0  0  0  0  0  0  0  0  0  0  0  0
    5.1578   65.2935   68.8111 C   0  0  0  0  0  0  0  0  0  0  0  0
    5.1009   65.9987   67.4506 C   0  0  0  0  0  0  0  0  0  0  0  0
    4.0308   66.9917   67.3556 N   0  0  0  0  0  0  0  0  0  0  0  0
    3.3999   66.8515   68.1447 H   0  0  0  0  0  0  0  0  0  0  0  0
    4.9047   62.5644   63.0923 O   0  0  0  0  0  0  0  0  0  0  0  0
    4.5326   63.5253   63.7572 C   0  0  0  0  0  0  0  0  0  0  0  0
    3.6383   63.3546   64.9273 C   0  0  0  0  0  0  0  0  0  0  0  0
    3.2628   64.4301   65.6341 C   0  0  0  0  0  0  0  0  0  0  0  0
    3.7189   65.7674   65.2780 C   0  0  0  0  0  0  0  0  0  0  0  0
    4.5173   65.9206   64.2009 C   0  0  0  0  0  0  0  0  0  0  0  0
    4.9018   64.8155   63.4716 N   0  0  0  0  0  0  0  0  0  0  0  0
    5.0301   67.2549   63.7265 C   0  0  0  0  0  0  0  0  0  0  0  0
    4.7155   68.4125   64.6770 C   0  0  0  0  0  0  0  0  0  0  0  0
    3.3333   68.2478   65.3047 C   0  0  0  0  0  0  0  0  0  0  0  0
    3.2316   66.9398   66.1192 C   0  0  0  0  0  0  0  0  0  0  0  0
    5.4826   64.9627   62.6904 H   0  0  0  0  0  0  0  0  0  0  0  0
    3.3356   60.1213   71.1096 C   0  0  0  0  0  0  0  0  0  0  0  0
    2.3397   60.6323   72.1584 C   0  0  0  0  0  0  0  0  0  0  0  0
    1.1843   59.6617   72.4178 C   0  0  0  0  0  0  0  0  0  0  0  0
    1.4574   58.6850   73.5684 C   0  0  0  0  0  0  0  0  0  0  0  0
    2.4912   57.6077   73.2193 C   0  0  0  0  0  0  0  0  0  0  0  0
    2.2123   56.3317   73.8759 N   0  0  0  0  0  0  0  0  0  0  0  0
    3.0332   56.0783   74.4257 H   0  0  0  0  0  0  0  0  0  0  0  0
    1.0422   56.3055   74.7748 C   0  0  0  0  0  0  0  0  0  0  0  0
    0.0070   55.3253   74.1704 C   0  0  0  0  0  0  0  0  0  0  0  0
    0.5444   53.8971   74.1190 C   0  0  0  0  0  0  0  0  0  0  0  0
    1.0397   53.4170   75.4827 C   0  0  0  0  0  0  0  0  0  0  0  0
    1.4326   54.5028   76.4541 C   0  0  0  0  0  0  0  0  0  0  0  0
    1.8167   54.0626   77.7024 N   0  0  0  0  0  0  0  0  0  0  0  0
    2.1985   54.8760   78.7318 C   0  0  0  0  0  0  0  0  0  0  0  0
    2.5820   54.4454   79.8124 O   0  0  0  0  0  0  0  0  0  0  0  0
    2.0815   56.3228   78.4793 C   0  0  0  0  0  0  0  0  0  0  0  0
    1.6840   56.7677   77.2752 C   0  0  0  0  0  0  0  0  0  0  0  0
    1.3817   58.6121   77.0849 Br  0  0  0  0  0  0  0  0  0  0  0  0
    1.4129   55.8280   76.1760 C   0  0  0  0  0  0  0  0  0  0  0  0
    1.8159   53.0915   77.8642 H   0  0  0  0  0  0  0  0  0  0  0  0
 10 11  2  0
 11 12  1  0
 12 13  2  0
 13 14  1  0
 14 15  2  0
 15 16  1  0
 15 17  1  0
 17 18  1  0
 18 19  1  0
 19 20  1  0
 20  8  1  0
  8  7  1  0
  7  6  1  0
  6  5  1  0
  5  4  1  0
  4  3  1  0
  3  2  1  0
  2  1  1  0
  1 22  1  0
 22 23  1  0
 23 24  1  0
 24 25  1  0
 25 26  1  0
 26 27  1  0
 29 27  1  0
 29 30  1  0
 30 31  1  0
 31 32  1  0
 32 33  1  0
 33 34  1  0
 34 35  1  0
 35 36  2  0
 35 37  1  0
 37 38  2  0
 38 39  1  0
 38 40  1  0
 16 11  1  0
 40 29  1  0
 20 14  1  0
 40 33  2  0
 16 21  1  0
  8  9  1  0
 27 28  1  0
 34 41  1  0
M  END
> <minimizedAffinity>
-8.87746

> <CNNscore>
0.5664845705

> <CNNaffinity>
8.0640668869

> <CNN_VS>
4.5681695938

> <CNNaffinity_variance>
0.0744872987

$$$$



 41 44  0  0  0  0  0  0  0  0999 V2000
    4.9468   63.9741   70.6114 C   0  0  0  0  0  0  0  0  0  0  0  0
    3.8356   62.9731   70.2975 C   0  0  0  0  0  0  0  0  0  0  0  0
    2.4813   63.4723   70.8079 C   0  0  0  0  0  0  0  0  0  0  0  0
    1.3363   62.5949   70.2975 C   0  0  0  0  0  0  0  0  0  0  0  0
   -0.0378   63.0179   70.8264 C   0  0  0  0  0  0  0  0  0  0  0  0
   -0.0764   63.2322   72.3430 C   0  0  0  0  0  0  0  0  0  0  0  0
   -0.7003   62.0214   73.0475 C   0  0  0  0  0  0  0  0  0  0  0  0
   -0.1447   60.7424   72.6052 N   0  0  0  0  0  0  0  0  0  0  0  0
   -0.9076   60.0669   72.5584 H   0  0  0  0  0  0  0  0  0  0  0  0
    4.0627   56.7303   70.4277 O   0  0  0  0  0  0  0  0  0  0  0  0
    3.3727   57.4909   71.0980 C   0  0  0  0  0  0  0  0  0  0  0  0
    3.5397   58.9616   71.0138 C   0  0  0  0  0  0  0  0  0  0  0  0
    2.7581   59.7588   71.7559 C   0  0  0  0  0  0  0  0  0  0  0  0
    1.7421   59.2092   72.6442 C   0  0  0  0  0  0  0  0  0  0  0  0
    1.6064   57.8695   72.7325 C   0  0  0  0  0  0  0  0  0  0  0  0
    2.4116   57.0487   71.9717 N   0  0  0  0  0  0  0  0  0  0  0  0
    0.6078   57.1904   73.6325 C   0  0  0  0  0  0  0  0  0  0  0  0
   -0.3695   58.1534   74.3108 C   0  0  0  0  0  0  0  0  0  0  0  0
    0.3250   59.4560   74.7017 C   0  0  0  0  0  0  0  0  0  0  0  0
    0.9081   60.1807   73.4690 C   0  0  0  0  0  0  0  0  0  0  0  0
    2.2881   56.0761   72.0617 H   0  0  0  0  0  0  0  0  0  0  0  0
    5.2877   64.9189   69.4542 C   0  0  0  0  0  0  0  0  0  0  0  0
    4.0947   65.6899   68.8754 C   0  0  0  0  0  0  0  0  0  0  0  0
    4.3302   66.1827   67.4451 C   0  0  0  0  0  0  0  0  0  0  0  0
    3.9760   65.1407   66.3769 C   0  0  0  0  0  0  0  0  0  0  0  0
    3.5725   65.7598   65.0334 C   0  0  0  0  0  0  0  0  0  0  0  0
    4.4984   66.8042   64.5986 N   0  0  0  0  0  0  0  0  0  0  0  0
    4.8370   66.5534   63.6697 H   0  0  0  0  0  0  0  0  0  0  0  0
    3.9474   68.1711   64.5236 C   0  0  0  0  0  0  0  0  0  0  0  0
    5.1319   69.1441   64.3044 C   0  0  0  0  0  0  0  0  0  0  0  0
    5.8345   68.8879   62.9734 C   0  0  0  0  0  0  0  0  0  0  0  0
    4.8637   68.9137   61.7935 C   0  0  0  0  0  0  0  0  0  0  0  0
    3.4199   68.6317   62.1295 C   0  0  0  0  0  0  0  0  0  0  0  0
    2.5427   68.7204   61.0701 N   0  0  0  0  0  0  0  0  0  0  0  0
    1.1944   68.5160   61.1561 C   0  0  0  0  0  0  0  0  0  0  0  0
    0.4527   68.5542   60.1820 O   0  0  0  0  0  0  0  0  0  0  0  0
    0.6689   68.2851   62.5130 C   0  0  0  0  0  0  0  0  0  0  0  0
    1.5088   68.2212   63.5601 C   0  0  0  0  0  0  0  0  0  0  0  0
    0.7534   68.1091   65.2765 Br  0  0  0  0  0  0  0  0  0  0  0  0
    2.9637   68.3243   63.3670 C   0  0  0  0  0  0  0  0  0  0  0  0
    2.9145   68.9476   60.1873 H   0  0  0  0  0  0  0  0  0  0  0  0
 10 11  2  0
 11 12  1  0
 12 13  2  0
 13 14  1  0
 14 15  2  0
 15 16  1  0
 15 17  1  0
 17 18  1  0
 18 19  1  0
 19 20  1  0
 20  8  1  0
  8  7  1  0
  7  6  1  0
  6  5  1  0
  5  4  1  0
  4  3  1  0
  3  2  1  0
  2  1  1  0
  1 22  1  0
 22 23  1  0
 23 24  1  0
 24 25  1  0
 25 26  1  0
 26 27  1  0
 29 27  1  0
 29 30  1  0
 30 31  1  0
 31 32  1  0
 32 33  1  0
 33 34  1  0
 34 35  1  0
 35 36  2  0
 35 37  1  0
 37 38  2  0
 38 39  1  0
 38 40  1  0
 16 11  1  0
 40 29  1  0
 20 14  1  0
 40 33  2  0
 16 21  1  0
  8  9  1  0
 27 28  1  0
 34 41  1  0
M  END
> <minimizedAffinity>
-10.64973

> <CNNscore>
0.5594625473

> <CNNaffinity>
8.2761754990

> <CNN_VS>
4.6302103996

> <CNNaffinity_variance>
0.7441069484

$$$$



 41 44  0  0  0  0  0  0  0  0999 V2000
    2.1979   62.8787   71.3606 C   0  0  0  0  0  0  0  0  0  0  0  0
    1.0919   63.9305   71.2825 C   0  0  0  0  0  0  0  0  0  0  0  0
    1.1341   64.6792   69.9477 C   0  0  0  0  0  0  0  0  0  0  0  0
    1.1987   66.1930   70.1604 C   0  0  0  0  0  0  0  0  0  0  0  0
    2.5987   66.7786   69.9508 C   0  0  0  0  0  0  0  0  0  0  0  0
    2.7237   67.6446   68.6930 C   0  0  0  0  0  0  0  0  0  0  0  0
    3.3780   66.8555   67.5524 C   0  0  0  0  0  0  0  0  0  0  0  0
    3.6776   67.6739   66.3774 N   0  0  0  0  0  0  0  0  0  0  0  0
    3.4353   68.6402   66.5963 H   0  0  0  0  0  0  0  0  0  0  0  0
    5.0229   62.4454   63.3124 O   0  0  0  0  0  0  0  0  0  0  0  0
    4.5660   63.5099   63.7152 C   0  0  0  0  0  0  0  0  0  0  0  0
    3.6058   63.5603   64.8436 C   0  0  0  0  0  0  0  0  0  0  0  0
    3.1378   64.7455   65.2601 C   0  0  0  0  0  0  0  0  0  0  0  0
    3.5564   65.9897   64.6277 C   0  0  0  0  0  0  0  0  0  0  0  0
    4.4156   65.9380   63.5884 C   0  0  0  0  0  0  0  0  0  0  0  0
    4.8954   64.7195   63.1575 N   0  0  0  0  0  0  0  0  0  0  0  0
    4.8984   67.1555   62.8448 C   0  0  0  0  0  0  0  0  0  0  0  0
    4.4716   68.4799   63.4822 C   0  0  0  0  0  0  0  0  0  0  0  0
    3.0601   68.3834   64.0567 C   0  0  0  0  0  0  0  0  0  0  0  0
    2.9637   67.2934   65.1463 C   0  0  0  0  0  0  0  0  0  0  0  0
    5.5187   64.7171   62.3954 H   0  0  0  0  0  0  0  0  0  0  0  0
    2.4619   62.3473   72.7732 C   0  0  0  0  0  0  0  0  0  0  0  0
    3.0853   60.9471   72.8319 C   0  0  0  0  0  0  0  0  0  0  0  0
    2.2526   59.9482   73.6400 C   0  0  0  0  0  0  0  0  0  0  0  0
    3.0734   58.7728   74.1850 C   0  0  0  0  0  0  0  0  0  0  0  0
    2.5862   58.2718   75.5498 C   0  0  0  0  0  0  0  0  0  0  0  0
    2.3573   56.8280   75.5661 N   0  0  0  0  0  0  0  0  0  0  0  0
    3.0845   56.4038   76.1419 H   0  0  0  0  0  0  0  0  0  0  0  0
    1.0512   56.3830   76.0893 C   0  0  0  0  0  0  0  0  0  0  0  0
   -0.0290   57.3456   75.5375 C   0  0  0  0  0  0  0  0  0  0  0  0
   -0.1258   57.2733   74.0155 C   0  0  0  0  0  0  0  0  0  0  0  0
   -0.3428   55.8448   73.5180 C   0  0  0  0  0  0  0  0  0  0  0  0
    0.1100   54.7513   74.4540 C   0  0  0  0  0  0  0  0  0  0  0  0
   -0.1482   53.4672   74.0250 N   0  0  0  0  0  0  0  0  0  0  0  0
    0.1668   52.3350   74.7220 C   0  0  0  0  0  0  0  0  0  0  0  0
   -0.0330   51.2082   74.2852 O   0  0  0  0  0  0  0  0  0  0  0  0
    0.7304   52.5489   76.0663 C   0  0  0  0  0  0  0  0  0  0  0  0
    0.9644   53.7958   76.5094 C   0  0  0  0  0  0  0  0  0  0  0  0
    1.5087   53.9970   78.2961 Br  0  0  0  0  0  0  0  0  0  0  0  0
    0.7164   54.9614   75.6465 C   0  0  0  0  0  0  0  0  0  0  0  0
   -0.5918   53.3578   73.1529 H   0  0  0  0  0  0  0  0  0  0  0  0
 10 11  2  0
 11 12  1  0
 12 13  2  0
 13 14  1  0
 14 15  2  0
 15 16  1  0
 15 17  1  0
 17 18  1  0
 18 19  1  0
 19 20  1  0
 20  8  1  0
  8  7  1  0
  7  6  1  0
  6  5  1  0
  5  4  1  0
  4  3  1  0
  3  2  1  0
  2  1  1  0
  1 22  1  0
 22 23  1  0
 23 24  1  0
 24 25  1  0
 25 26  1  0
 26 27  1  0
 29 27  1  0
 29 30  1  0
 30 31  1  0
 31 32  1  0
 32 33  1  0
 33 34  1  0
 34 35  1  0
 35 36  2  0
 35 37  1  0
 37 38  2  0
 38 39  1  0
 38 40  1  0
 16 11  1  0
 40 29  1  0
 20 14  1  0
 40 33  2  0
 16 21  1  0
  8  9  1  0
 27 28  1  0
 34 41  1  0
M  END
> <minimizedAffinity>
-8.51783

> <CNNscore>
0.4837529361

> <CNNaffinity>
7.8458733559

> <CNN_VS>
3.7954642773

> <CNNaffinity_variance>
0.0690579787

$$$$



 41 44  0  0  0  0  0  0  0  0999 V2000
    3.1895   62.4249   69.9997 C   0  0  0  0  0  0  0  0  0  0  0  0
    4.1820   63.5865   69.9674 C   0  0  0  0  0  0  0  0  0  0  0  0
    3.4620   64.9324   70.0856 C   0  0  0  0  0  0  0  0  0  0  0  0
    3.3713   65.6361   68.7300 C   0  0  0  0  0  0  0  0  0  0  0  0
    4.6520   65.5216   67.8971 C   0  0  0  0  0  0  0  0  0  0  0  0
    4.8355   66.6592   66.8873 C   0  0  0  0  0  0  0  0  0  0  0  0
    4.4969   66.1865   65.4683 C   0  0  0  0  0  0  0  0  0  0  0  0
    3.2190   66.6999   64.9747 N   0  0  0  0  0  0  0  0  0  0  0  0
    2.9877   66.1978   64.1175 H   0  0  0  0  0  0  0  0  0  0  0  0
    0.0621   68.9760   60.1380 O   0  0  0  0  0  0  0  0  0  0  0  0
    0.7482   68.7960   61.1383 C   0  0  0  0  0  0  0  0  0  0  0  0
    0.1312   68.5561   62.4649 C   0  0  0  0  0  0  0  0  0  0  0  0
    0.9170   68.3536   63.5319 C   0  0  0  0  0  0  0  0  0  0  0  0
    2.3695   68.3609   63.4152 C   0  0  0  0  0  0  0  0  0  0  0  0
    2.9272   68.5988   62.2096 C   0  0  0  0  0  0  0  0  0  0  0  0
    2.1200   68.8099   61.1121 N   0  0  0  0  0  0  0  0  0  0  0  0
    4.4140   68.6526   61.9751 C   0  0  0  0  0  0  0  0  0  0  0  0
    5.2477   68.2355   63.1890 C   0  0  0  0  0  0  0  0  0  0  0  0
    4.6100   68.7244   64.4875 C   0  0  0  0  0  0  0  0  0  0  0  0
    3.1923   68.1426   64.6781 C   0  0  0  0  0  0  0  0  0  0  0  0
    2.5591   68.9828   60.2480 H   0  0  0  0  0  0  0  0  0  0  0  0
    3.7863   61.0759   69.5855 C   0  0  0  0  0  0  0  0  0  0  0  0
    4.1548   60.1466   70.7489 C   0  0  0  0  0  0  0  0  0  0  0  0
    3.3548   60.4280   72.0237 C   0  0  0  0  0  0  0  0  0  0  0  0
    1.8919   59.9760   71.9357 C   0  0  0  0  0  0  0  0  0  0  0  0
    0.9359   60.8455   72.7610 C   0  0  0  0  0  0  0  0  0  0  0  0
    0.2783   60.0945   73.8290 N   0  0  0  0  0  0  0  0  0  0  0  0
    0.9895   59.8403   74.5146 H   0  0  0  0  0  0  0  0  0  0  0  0
   -0.8063   60.7952   74.5434 C   0  0  0  0  0  0  0  0  0  0  0  0
   -2.0161   59.8318   74.6225 C   0  0  0  0  0  0  0  0  0  0  0  0
   -1.6930   58.5854   75.4430 C   0  0  0  0  0  0  0  0  0  0  0  0
   -1.1614   58.9312   76.8334 C   0  0  0  0  0  0  0  0  0  0  0  0
   -0.5403   60.2992   76.9735 C   0  0  0  0  0  0  0  0  0  0  0  0
   -0.1221   60.6263   78.2454 N   0  0  0  0  0  0  0  0  0  0  0  0
    0.4542   61.8152   78.5942 C   0  0  0  0  0  0  0  0  0  0  0  0
    0.8595   62.0509   79.7257 O   0  0  0  0  0  0  0  0  0  0  0  0
    0.5237   62.8284   77.5268 C   0  0  0  0  0  0  0  0  0  0  0  0
    0.0964   62.5333   76.2874 C   0  0  0  0  0  0  0  0  0  0  0  0
    0.0447   63.9275   75.0293 Br  0  0  0  0  0  0  0  0  0  0  0  0
   -0.3941   61.1854   75.9600 C   0  0  0  0  0  0  0  0  0  0  0  0
   -0.2476   59.9546   78.9541 H   0  0  0  0  0  0  0  0  0  0  0  0
 10 11  2  0
 11 12  1  0
 12 13  2  0
 13 14  1  0
 14 15  2  0
 15 16  1  0
 15 17  1  0
 17 18  1  0
 18 19  1  0
 19 20  1  0
 20  8  1  0
  8  7  1  0
  7  6  1  0
  6  5  1  0
  5  4  1  0
  4  3  1  0
  3  2  1  0
  2  1  1  0
  1 22  1  0
 22 23  1  0
 23 24  1  0
 24 25  1  0
 25 26  1  0
 26 27  1  0
 29 27  1  0
 29 30  1  0
 30 31  1  0
 31 32  1  0
 32 33  1  0
 33 34  1  0
 34 35  1  0
 35 36  2  0
 35 37  1  0
 37 38  2  0
 38 39  1  0
 38 40  1  0
 16 11  1  0
 40 29  1  0
 20 14  1  0
 40 33  2  0
 16 21  1  0
  8  9  1  0
 27 28  1  0
 34 41  1  0
M  END
> <minimizedAffinity>
-8.62535

> <CNNscore>
0.4741911888

> <CNNaffinity>
8.0552740097

> <CNN_VS>
3.8197400570

> <CNNaffinity_variance>
0.0019658457

$$$$
