


 19 19  0  0  0  0  0  0  0  0999 V2000
   -1.0668    7.6481   14.5409 C   0  0  0  0  0  0  0  0  0  0  0  0
   -1.7843    7.6801   15.8201 N   0  0  0  0  0  0  0  0  0  0  0  0
   -2.2902    6.5234   16.3678 C   0  0  0  0  0  0  0  0  0  0  0  0
   -3.4377    6.4640   16.9860 N   0  0  0  0  0  0  0  0  0  0  0  0
   -4.0703    7.7185   16.9743 O   0  0  0  0  0  0  0  0  0  0  0  0
   -1.4564    5.2256   16.2824 C   0  0  0  0  0  0  0  0  0  0  0  0
   -0.7888    5.1218   14.8921 C   0  0  0  0  0  0  0  0  0  0  0  0
   -0.0963    6.4442   14.4715 C   0  0  0  0  0  0  0  0  0  0  0  0
   -1.9048    8.5363   16.2908 H   0  0  0  0  0  0  0  0  0  0  0  0
   -4.9064    7.8254   17.3836 H   0  0  0  0  0  0  0  0  0  0  0  0
   -0.4352    5.1101   17.2772 O   0  0  0  0  0  0  0  0  0  0  0  0
   -0.8203    5.6417   18.5376 C   0  0  0  0  0  0  0  0  0  0  0  0
   -1.7172    4.7538   13.8507 O   0  0  0  0  0  0  0  0  0  0  0  0
   -2.4879    3.5988   14.1612 C   0  0  0  0  0  0  0  0  0  0  0  0
    1.0544    6.7762   15.2727 O   0  0  0  0  0  0  0  0  0  0  0  0
    2.2084    5.9988   14.9947 C   0  0  0  0  0  0  0  0  0  0  0  0
   -2.0869    7.6752   13.3842 C   0  0  0  0  0  0  0  0  0  0  0  0
   -0.5833    9.2972   12.5524 C   0  0  0  0  0  0  0  0  0  0  0  0
   -1.4459    8.2181   12.2175 O   0  0  0  0  0  0  0  0  0  0  0  0
 18 19  1  0
 19 17  1  0
  1 17  1  0
  1  2  1  0
  2  3  1  0
  3  4  2  0
  4  5  1  0
  3  6  1  0
  6 11  1  0
 11 12  1  0
  6  7  1  0
  7 13  1  0
 13 14  1  0
  7  8  1  0
  8 15  1  0
 15 16  1  0
  8  1  1  0
  2  9  1  0
  5 10  1  0
M  END
> <minimizedAffinity>
-6.08005

> <CNNscore>
0.3942468762

> <CNNaffinity>
3.9142169952

> <CNN_VS>
1.5431678295

> <CNNaffinity_variance>
0.9121508598

$$$$



 19 19  0  0  0  0  0  0  0  0999 V2000
    0.4049    5.0133   16.6845 C   0  0  0  0  0  0  0  0  0  0  0  0
    1.2559    3.8980   17.1137 N   0  0  0  0  0  0  0  0  0  0  0  0
    1.0411    2.6276   16.6302 C   0  0  0  0  0  0  0  0  0  0  0  0
    1.1583    1.5524   17.3600 N   0  0  0  0  0  0  0  0  0  0  0  0
    1.4937    1.8877   18.6826 O   0  0  0  0  0  0  0  0  0  0  0  0
    0.6710    2.4439   15.1415 C   0  0  0  0  0  0  0  0  0  0  0  0
   -0.3208    3.5475   14.7078 C   0  0  0  0  0  0  0  0  0  0  0  0
    0.1340    4.9590   15.1614 C   0  0  0  0  0  0  0  0  0  0  0  0
    1.9868    4.0598   17.7530 H   0  0  0  0  0  0  0  0  0  0  0  0
    1.6107    1.2126   19.3218 H   0  0  0  0  0  0  0  0  0  0  0  0
    1.7858    2.4691   14.2457 O   0  0  0  0  0  0  0  0  0  0  0  0
    2.5464    1.2689   14.2665 C   0  0  0  0  0  0  0  0  0  0  0  0
   -1.6568    3.3277   15.2064 O   0  0  0  0  0  0  0  0  0  0  0  0
   -2.6735    3.7879   14.3239 C   0  0  0  0  0  0  0  0  0  0  0  0
    1.3256    5.4249   14.4986 O   0  0  0  0  0  0  0  0  0  0  0  0
    1.6981    6.7546   14.8248 C   0  0  0  0  0  0  0  0  0  0  0  0
   -0.8839    5.0258   17.5320 C   0  0  0  0  0  0  0  0  0  0  0  0
   -2.6526    6.4922   16.9797 C   0  0  0  0  0  0  0  0  0  0  0  0
   -1.3783    6.3742   17.5985 O   0  0  0  0  0  0  0  0  0  0  0  0
 18 19  1  0
 19 17  1  0
  1 17  1  0
  1  2  1  0
  2  3  1  0
  3  4  2  0
  4  5  1  0
  3  6  1  0
  6 11  1  0
 11 12  1  0
  6  7  1  0
  7 13  1  0
 13 14  1  0
  7  8  1  0
  8 15  1  0
 15 16  1  0
  8  1  1  0
  2  9  1  0
  5 10  1  0
M  END
> <minimizedAffinity>
-4.75131

> <CNNscore>
0.3509370983

> <CNNaffinity>
3.9333856106

> <CNN_VS>
1.3803709745

> <CNNaffinity_variance>
0.3198522627

$$$$



 19 19  0  0  0  0  0  0  0  0999 V2000
   -1.5732    4.9887   15.6741 C   0  0  0  0  0  0  0  0  0  0  0  0
   -2.7396    5.8783   15.6600 N   0  0  0  0  0  0  0  0  0  0  0  0
   -2.5901    7.2243   15.4157 C   0  0  0  0  0  0  0  0  0  0  0  0
   -3.2763    8.1465   16.0330 N   0  0  0  0  0  0  0  0  0  0  0  0
   -4.1389    7.5692   16.9801 O   0  0  0  0  0  0  0  0  0  0  0  0
   -1.5844    7.6839   14.3367 C   0  0  0  0  0  0  0  0  0  0  0  0
   -0.2993    6.8287   14.4195 C   0  0  0  0  0  0  0  0  0  0  0  0
   -0.6068    5.3113   14.5087 C   0  0  0  0  0  0  0  0  0  0  0  0
   -3.6369    5.5092   15.8268 H   0  0  0  0  0  0  0  0  0  0  0  0
   -4.6954    8.1144   17.5007 H   0  0  0  0  0  0  0  0  0  0  0  0
   -2.0798    7.6158   12.9967 O   0  0  0  0  0  0  0  0  0  0  0  0
   -1.1945    8.1887   12.0440 C   0  0  0  0  0  0  0  0  0  0  0  0
    0.5369    7.1810   15.5414 O   0  0  0  0  0  0  0  0  0  0  0  0
    1.8580    6.6610   15.4483 C   0  0  0  0  0  0  0  0  0  0  0  0
   -1.1881    4.7662   13.3083 O   0  0  0  0  0  0  0  0  0  0  0  0
   -1.4337    3.3695   13.3558 C   0  0  0  0  0  0  0  0  0  0  0  0
   -0.8991    5.0548   17.0600 C   0  0  0  0  0  0  0  0  0  0  0  0
    0.7025    3.3239   17.2105 C   0  0  0  0  0  0  0  0  0  0  0  0
   -0.6318    3.7146   17.5066 O   0  0  0  0  0  0  0  0  0  0  0  0
 18 19  1  0
 19 17  1  0
  1 17  1  0
  1  2  1  0
  2  3  1  0
  3  4  2  0
  4  5  1  0
  3  6  1  0
  6 11  1  0
 11 12  1  0
  6  7  1  0
  7 13  1  0
 13 14  1  0
  7  8  1  0
  8 15  1  0
 15 16  1  0
  8  1  1  0
  2  9  1  0
  5 10  1  0
M  END
> <minimizedAffinity>
-5.84262

> <CNNscore>
0.2909605801

> <CNNaffinity>
3.5925216675

> <CNN_VS>
1.0452822447

> <CNNaffinity_variance>
1.3627400398

$$$$



 19 19  0  0  0  0  0  0  0  0999 V2000
   -0.9096    4.8987   14.1157 C   0  0  0  0  0  0  0  0  0  0  0  0
   -1.0726    4.6280   15.5483 N   0  0  0  0  0  0  0  0  0  0  0  0
    0.0058    4.6960   16.4005 C   0  0  0  0  0  0  0  0  0  0  0  0
    0.1921    3.8665   17.3903 N   0  0  0  0  0  0  0  0  0  0  0  0
   -0.8305    2.9036   17.4264 O   0  0  0  0  0  0  0  0  0  0  0  0
    1.0435    5.8244   16.2089 C   0  0  0  0  0  0  0  0  0  0  0  0
    1.3128    6.0388   14.7019 C   0  0  0  0  0  0  0  0  0  0  0  0
    0.0028    6.1260   13.8764 C   0  0  0  0  0  0  0  0  0  0  0  0
   -1.9611    4.3958   15.9031 H   0  0  0  0  0  0  0  0  0  0  0  0
   -0.8262    2.2402   18.0881 H   0  0  0  0  0  0  0  0  0  0  0  0
    0.6650    7.0811   16.7774 O   0  0  0  0  0  0  0  0  0  0  0  0
   -0.2020    6.9499   17.8957 C   0  0  0  0  0  0  0  0  0  0  0  0
    2.1344    5.0017   14.1263 O   0  0  0  0  0  0  0  0  0  0  0  0
    2.9129    5.4441   13.0206 C   0  0  0  0  0  0  0  0  0  0  0  0
   -0.7812    7.3022   14.1559 O   0  0  0  0  0  0  0  0  0  0  0  0
   -1.9707    7.4115   13.3903 C   0  0  0  0  0  0  0  0  0  0  0  0
   -0.4094    3.6215   13.4100 C   0  0  0  0  0  0  0  0  0  0  0  0
    0.3633    1.5664   14.2835 C   0  0  0  0  0  0  0  0  0  0  0  0
   -0.7188    2.4871   14.2371 O   0  0  0  0  0  0  0  0  0  0  0  0
 18 19  1  0
 19 17  1  0
  1 17  1  0
  1  2  1  0
  2  3  1  0
  3  4  2  0
  4  5  1  0
  3  6  1  0
  6 11  1  0
 11 12  1  0
  6  7  1  0
  7 13  1  0
 13 14  1  0
  7  8  1  0
  8 15  1  0
 15 16  1  0
  8  1  1  0
  2  9  1  0
  5 10  1  0
M  END
> <minimizedAffinity>
-4.61917

> <CNNscore>
0.2869066894

> <CNNaffinity>
3.8285486698

> <CNN_VS>
1.0984362364

> <CNNaffinity_variance>
0.3027428687

$$$$



 19 19  0  0  0  0  0  0  0  0999 V2000
   -0.9833    4.6974   16.8392 C   0  0  0  0  0  0  0  0  0  0  0  0
   -0.9866    5.7625   17.8481 N   0  0  0  0  0  0  0  0  0  0  0  0
   -0.3618    6.9632   17.6000 C   0  0  0  0  0  0  0  0  0  0  0  0
    0.3095    7.6233   18.5035 N   0  0  0  0  0  0  0  0  0  0  0  0
    0.3223    6.9207   19.7202 O   0  0  0  0  0  0  0  0  0  0  0  0
   -0.4759    7.5920   16.1934 C   0  0  0  0  0  0  0  0  0  0  0  0
   -0.3546    6.4907   15.1154 C   0  0  0  0  0  0  0  0  0  0  0  0
   -1.2516    5.2638   15.4239 C   0  0  0  0  0  0  0  0  0  0  0  0
   -1.4398    5.6170   18.7099 H   0  0  0  0  0  0  0  0  0  0  0  0
    0.7697    7.2771   20.4623 H   0  0  0  0  0  0  0  0  0  0  0  0
   -1.6905    8.3109   15.9618 O   0  0  0  0  0  0  0  0  0  0  0  0
   -1.4751    9.6578   15.5631 C   0  0  0  0  0  0  0  0  0  0  0  0
    0.9990    6.0215   14.9435 O   0  0  0  0  0  0  0  0  0  0  0  0
    1.3615    4.9913   15.8556 C   0  0  0  0  0  0  0  0  0  0  0  0
   -2.6629    5.5407   15.3350 O   0  0  0  0  0  0  0  0  0  0  0  0
   -3.1014    5.9525   14.0499 C   0  0  0  0  0  0  0  0  0  0  0  0
    0.3374    3.9066   16.9382 C   0  0  0  0  0  0  0  0  0  0  0  0
   -0.4774    1.6956   17.1150 C   0  0  0  0  0  0  0  0  0  0  0  0
    0.1344    2.7776   17.8048 O   0  0  0  0  0  0  0  0  0  0  0  0
 18 19  1  0
 19 17  1  0
  1 17  1  0
  1  2  1  0
  2  3  1  0
  3  4  2  0
  4  5  1  0
  3  6  1  0
  6 11  1  0
 11 12  1  0
  6  7  1  0
  7 13  1  0
 13 14  1  0
  7  8  1  0
  8 15  1  0
 15 16  1  0
  8  1  1  0
  2  9  1  0
  5 10  1  0
M  END
> <minimizedAffinity>
-6.44056

> <CNNscore>
0.2757191360

> <CNNaffinity>
3.6507580280

> <CNN_VS>
1.0065838099

> <CNNaffinity_variance>
0.8839025497

$$$$



 19 19  0  0  0  0  0  0  0  0999 V2000
   -0.7429    7.0669   17.0422 C   0  0  0  0  0  0  0  0  0  0  0  0
    0.4044    6.5840   16.2659 N   0  0  0  0  0  0  0  0  0  0  0  0
    0.2366    6.1310   14.9773 C   0  0  0  0  0  0  0  0  0  0  0  0
    0.8790    5.1065   14.4872 N   0  0  0  0  0  0  0  0  0  0  0  0
    1.7158    4.5365   15.4613 O   0  0  0  0  0  0  0  0  0  0  0  0
   -0.7357    6.8803   14.0392 C   0  0  0  0  0  0  0  0  0  0  0  0
   -2.0049    7.2916   14.8198 C   0  0  0  0  0  0  0  0  0  0  0  0
   -1.6697    7.9575   16.1797 C   0  0  0  0  0  0  0  0  0  0  0  0
    1.3021    6.5841   16.6702 H   0  0  0  0  0  0  0  0  0  0  0  0
    2.2402    3.7894   15.2494 H   0  0  0  0  0  0  0  0  0  0  0  0
   -0.1872    8.0525   13.4301 O   0  0  0  0  0  0  0  0  0  0  0  0
   -0.9613    8.5287   12.3376 C   0  0  0  0  0  0  0  0  0  0  0  0
   -2.8913    6.1817   15.0732 O   0  0  0  0  0  0  0  0  0  0  0  0
   -2.8975    5.2125   14.0315 C   0  0  0  0  0  0  0  0  0  0  0  0
   -1.0309    9.2429   16.0538 O   0  0  0  0  0  0  0  0  0  0  0  0
   -1.8891   10.2858   15.6189 C   0  0  0  0  0  0  0  0  0  0  0  0
   -1.4716    5.8638   17.6756 C   0  0  0  0  0  0  0  0  0  0  0  0
   -0.3777    3.8701   18.3173 C   0  0  0  0  0  0  0  0  0  0  0  0
   -0.5916    5.2409   18.6266 O   0  0  0  0  0  0  0  0  0  0  0  0
 18 19  1  0
 19 17  1  0
  1 17  1  0
  1  2  1  0
  2  3  1  0
  3  4  2  0
  4  5  1  0
  3  6  1  0
  6 11  1  0
 11 12  1  0
  6  7  1  0
  7 13  1  0
 13 14  1  0
  7  8  1  0
  8 15  1  0
 15 16  1  0
  8  1  1  0
  2  9  1  0
  5 10  1  0
M  END
> <minimizedAffinity>
-5.44599

> <CNNscore>
0.2624889314

> <CNNaffinity>
3.5385258198

> <CNN_VS>
0.9288238883

> <CNNaffinity_variance>
0.8586502075

$$$$



 19 19  0  0  0  0  0  0  0  0999 V2000
   -2.1474    7.0470   14.7444 C   0  0  0  0  0  0  0  0  0  0  0  0
   -1.1428    7.5061   13.7789 N   0  0  0  0  0  0  0  0  0  0  0  0
    0.1751    7.1319   13.9089 C   0  0  0  0  0  0  0  0  0  0  0  0
    1.1762    7.9311   13.6608 N   0  0  0  0  0  0  0  0  0  0  0  0
    0.7113    9.2028   13.2855 O   0  0  0  0  0  0  0  0  0  0  0  0
    0.5053    5.6857   14.3406 C   0  0  0  0  0  0  0  0  0  0  0  0
   -0.4757    5.2314   15.4455 C   0  0  0  0  0  0  0  0  0  0  0  0
   -1.9511    5.5511   15.0904 C   0  0  0  0  0  0  0  0  0  0  0  0
   -1.4137    8.0869   13.0315 H   0  0  0  0  0  0  0  0  0  0  0  0
    1.3220    9.8821   13.0769 H   0  0  0  0  0  0  0  0  0  0  0  0
    0.4598    4.7254   13.2815 O   0  0  0  0  0  0  0  0  0  0  0  0
    0.9958    3.4618   13.6496 C   0  0  0  0  0  0  0  0  0  0  0  0
   -0.1875    5.8239   16.7291 O   0  0  0  0  0  0  0  0  0  0  0  0
   -0.7212    5.0894   17.8246 C   0  0  0  0  0  0  0  0  0  0  0  0
   -2.4592    4.7856   13.9804 O   0  0  0  0  0  0  0  0  0  0  0  0
   -2.7304    3.4254   14.2794 C   0  0  0  0  0  0  0  0  0  0  0  0
   -2.1213    7.9668   15.9824 C   0  0  0  0  0  0  0  0  0  0  0  0
   -1.7667   10.2800   15.6558 C   0  0  0  0  0  0  0  0  0  0  0  0
   -2.7204    9.2262   15.6333 O   0  0  0  0  0  0  0  0  0  0  0  0
 18 19  1  0
 19 17  1  0
  1 17  1  0
  1  2  1  0
  2  3  1  0
  3  4  2  0
  4  5  1  0
  3  6  1  0
  6 11  1  0
 11 12  1  0
  6  7  1  0
  7 13  1  0
 13 14  1  0
  7  8  1  0
  8 15  1  0
 15 16  1  0
  8  1  1  0
  2  9  1  0
  5 10  1  0
M  END
> <minimizedAffinity>
-5.09260

> <CNNscore>
0.2494639754

> <CNNaffinity>
3.5450305939

> <CNN_VS>
0.8843574524

> <CNNaffinity_variance>
0.4943666160

$$$$



 19 19  0  0  0  0  0  0  0  0999 V2000
    0.4179    6.6450   15.3968 C   0  0  0  0  0  0  0  0  0  0  0  0
    0.7243    6.4156   16.8130 N   0  0  0  0  0  0  0  0  0  0  0  0
   -0.2121    5.8518   17.6492 C   0  0  0  0  0  0  0  0  0  0  0  0
   -0.3883    6.2269   18.8864 N   0  0  0  0  0  0  0  0  0  0  0  0
    0.4770    7.2859   19.2091 O   0  0  0  0  0  0  0  0  0  0  0  0
   -1.0880    4.6934   17.1221 C   0  0  0  0  0  0  0  0  0  0  0  0
   -1.5166    4.9812   15.6650 C   0  0  0  0  0  0  0  0  0  0  0  0
   -0.3267    5.4361   14.7804 C   0  0  0  0  0  0  0  0  0  0  0  0
    1.6073    6.6670   17.1683 H   0  0  0  0  0  0  0  0  0  0  0  0
    0.4610    7.6586   20.0686 H   0  0  0  0  0  0  0  0  0  0  0  0
   -0.4575    3.4100   17.1562 O   0  0  0  0  0  0  0  0  0  0  0  0
   -0.2306    2.9340   18.4759 C   0  0  0  0  0  0  0  0  0  0  0  0
   -2.5499    5.9838   15.5724 O   0  0  0  0  0  0  0  0  0  0  0  0
   -3.1197    6.0917   14.2731 C   0  0  0  0  0  0  0  0  0  0  0  0
    0.6518    4.4039   14.5497 O   0  0  0  0  0  0  0  0  0  0  0  0
    1.5815    4.6951   13.5181 C   0  0  0  0  0  0  0  0  0  0  0  0
   -0.3527    7.9733   15.2514 C   0  0  0  0  0  0  0  0  0  0  0  0
    1.0850    8.4240   13.4311 C   0  0  0  0  0  0  0  0  0  0  0  0
   -0.2620    8.4111   13.8850 O   0  0  0  0  0  0  0  0  0  0  0  0
 18 19  1  0
 19 17  1  0
  1 17  1  0
  1  2  1  0
  2  3  1  0
  3  4  2  0
  4  5  1  0
  3  6  1  0
  6 11  1  0
 11 12  1  0
  6  7  1  0
  7 13  1  0
 13 14  1  0
  7  8  1  0
  8 15  1  0
 15 16  1  0
  8  1  1  0
  2  9  1  0
  5 10  1  0
M  END
> <minimizedAffinity>
-5.85975

> <CNNscore>
0.2436333299

> <CNNaffinity>
3.7116382122

> <CNN_VS>
0.9042787552

> <CNNaffinity_variance>
1.0019407272

$$$$



 19 19  0  0  0  0  0  0  0  0999 V2000
    0.3986    6.7921   16.1912 C   0  0  0  0  0  0  0  0  0  0  0  0
    1.3415    5.6840   16.3789 N   0  0  0  0  0  0  0  0  0  0  0  0
    1.2577    4.5541   15.5978 C   0  0  0  0  0  0  0  0  0  0  0  0
    1.4601    3.3489   16.0549 N   0  0  0  0  0  0  0  0  0  0  0  0
    1.7341    3.3829   17.4325 O   0  0  0  0  0  0  0  0  0  0  0  0
    0.9385    4.7037   14.0937 C   0  0  0  0  0  0  0  0  0  0  0  0
   -0.1434    5.7894   13.8927 C   0  0  0  0  0  0  0  0  0  0  0  0
    0.1666    7.0837   14.6888 C   0  0  0  0  0  0  0  0  0  0  0  0
    2.0401    5.7493   17.0694 H   0  0  0  0  0  0  0  0  0  0  0  0
    1.9005    2.5862   17.8969 H   0  0  0  0  0  0  0  0  0  0  0  0
    2.0648    5.0403   13.2788 O   0  0  0  0  0  0  0  0  0  0  0  0
    2.6858    3.9068   12.6882 C   0  0  0  0  0  0  0  0  0  0  0  0
   -1.4630    5.3414   14.2662 O   0  0  0  0  0  0  0  0  0  0  0  0
   -2.5072    6.1431   13.7264 C   0  0  0  0  0  0  0  0  0  0  0  0
    1.3229    7.7968   14.2085 O   0  0  0  0  0  0  0  0  0  0  0  0
    1.1373    8.4444   12.9597 C   0  0  0  0  0  0  0  0  0  0  0  0
   -0.9035    6.4885   16.9606 C   0  0  0  0  0  0  0  0  0  0  0  0
   -0.8873    5.2581   18.9778 C   0  0  0  0  0  0  0  0  0  0  0  0
   -0.7907    5.1873   17.5614 O   0  0  0  0  0  0  0  0  0  0  0  0
 18 19  1  0
 19 17  1  0
  1 17  1  0
  1  2  1  0
  2  3  1  0
  3  4  2  0
  4  5  1  0
  3  6  1  0
  6 11  1  0
 11 12  1  0
  6  7  1  0
  7 13  1  0
 13 14  1  0
  7  8  1  0
  8 15  1  0
 15 16  1  0
  8  1  1  0
  2  9  1  0
  5 10  1  0
M  END
> <minimizedAffinity>
-4.95494

> <CNNscore>
0.2431202829

> <CNNaffinity>
4.0609421730

> <CNN_VS>
0.9872974157

> <CNNaffinity_variance>
0.0898216292

$$$$
