


 40 44  0  0  0  0  0  0  0  0999 V2000
    3.0635   23.7372   18.2965 C   0  0  0  0  0  0  0  0  0  0  0  0
    2.3990   23.4953   19.4924 C   0  0  0  0  0  0  0  0  0  0  0  0
    3.0014   23.9024   20.6664 C   0  0  0  0  0  0  0  0  0  0  0  0
    4.2169   24.5000   20.6630 N   0  0  0  0  0  0  0  0  0  0  0  0
    4.8735   24.6992   19.5017 C   0  0  0  0  0  0  0  0  0  0  0  0
    4.3147   24.3393   18.2886 C   0  0  0  0  0  0  0  0  0  0  0  0
    2.9121   21.9863   16.3795 O   0  0  0  0  0  0  0  0  0  0  0  0
    2.3097   23.2464   16.7746 S   0  0  0  0  0  0  0  0  0  0  0  0
    2.3607   24.3872   15.8762 O   0  0  0  0  0  0  0  0  0  0  0  0
    0.5974   22.9403   17.1412 C   0  0  0  0  0  0  0  0  0  0  0  0
    0.0949   21.6384   17.0517 C   0  0  0  0  0  0  0  0  0  0  0  0
   -1.2510   21.4038   17.3324 C   0  0  0  0  0  0  0  0  0  0  0  0
   -2.0864   22.4646   17.6887 C   0  0  0  0  0  0  0  0  0  0  0  0
   -1.5822   23.7646   17.7614 C   0  0  0  0  0  0  0  0  0  0  0  0
   -0.2372   24.0087   17.4836 C   0  0  0  0  0  0  0  0  0  0  0  0
    2.4355   23.7477   21.9308 N   0  0  0  0  0  0  0  0  0  0  0  0
    3.0537   23.9563   22.6681 H   0  0  0  0  0  0  0  0  0  0  0  0
    1.2103   23.3693   22.3441 C   0  0  0  0  0  0  0  0  0  0  0  0
    0.1112   23.3324   21.4507 C   0  0  0  0  0  0  0  0  0  0  0  0
   -0.9814   22.9256   22.1917 C   0  0  0  0  0  0  0  0  0  0  0  0
   -0.4759   22.7301   23.4496 N   0  0  0  0  0  0  0  0  0  0  0  0
    0.8348   22.9866   23.5654 N   0  0  0  0  0  0  0  0  0  0  0  0
   -1.0289   22.4267   24.2055 H   0  0  0  0  0  0  0  0  0  0  0  0
   -2.3759   22.6982   21.8240 C   0  0  0  0  0  0  0  0  0  0  0  0
   -3.0139   21.4805   22.1111 C   0  0  0  0  0  0  0  0  0  0  0  0
   -4.3499   21.2770   21.7540 C   0  0  0  0  0  0  0  0  0  0  0  0
   -5.0504   22.2892   21.1109 C   0  0  0  0  0  0  0  0  0  0  0  0
   -6.3300   22.0926   20.7691 F   0  0  0  0  0  0  0  0  0  0  0  0
   -4.4419   23.5027   20.8197 C   0  0  0  0  0  0  0  0  0  0  0  0
   -3.1070   23.7076   21.1781 C   0  0  0  0  0  0  0  0  0  0  0  0
    6.1216   25.3381   19.4871 N   0  0  0  0  0  0  0  0  0  0  0  0
    6.9613   24.8278   19.5487 H   0  0  0  0  0  0  0  0  0  0  0  0
    6.1202   26.8022   19.3756 C   0  0  0  0  0  0  0  0  0  0  0  0
    6.2257   27.4664   20.7645 C   0  0  0  0  0  0  0  0  0  0  0  0
    7.6713   27.7798   21.1475 C   0  0  0  0  0  0  0  0  0  0  0  0
    8.3199   28.7473   20.1514 C   0  0  0  0  0  0  0  0  0  0  0  0
    8.1005   30.0915   20.5722 O   0  0  0  0  0  0  0  0  0  0  0  0
    7.7697   28.6112   18.7289 C   0  0  0  0  0  0  0  0  0  0  0  0
    7.2890   27.1951   18.4484 C   0  0  0  0  0  0  0  0  0  0  0  0
    7.1486   30.2779   20.5757 H   0  0  0  0  0  0  0  0  0  0  0  0
  7  8  2  0
  8  9  2  0
  8 10  1  0
 10 11  2  0
 11 12  1  0
 12 13  2  0
 13 14  1  0
 14 15  2  0
  8  1  1  0
  1  2  2  0
  2  3  1  0
  3 16  1  0
 16 18  1  0
 18 19  1  0
 19 20  2  0
 20 24  1  0
 24 25  2  0
 25 26  1  0
 26 27  2  0
 27 28  1  0
 27 29  1  0
 29 30  2  0
 20 21  1  0
 21 22  1  0
  3  4  2  0
  4  5  1  0
  5 31  1  0
 33 31  1  0
 33 34  1  0
 34 35  1  0
 35 36  1  0
 36 37  1  0
 36 38  1  0
 38 39  1  0
  5  6  2  0
 15 10  1  0
  6  1  1  0
 22 18  2  0
 39 33  1  0
 30 24  1  0
 16 17  1  0
 21 23  1  0
 31 32  1  0
 37 40  1  0
M  END
> <minimizedAffinity>
-10.41639

> <CNNscore>
0.9842858315

> <CNNaffinity>
7.9803390503

> <CNN_VS>
7.8549346924

> <CNNaffinity_variance>
0.2451414615

$$$$



 40 44  0  0  0  0  0  0  0  0999 V2000
    5.0227   24.9358   18.9973 C   0  0  0  0  0  0  0  0  0  0  0  0
    4.6602   24.4699   20.2551 C   0  0  0  0  0  0  0  0  0  0  0  0
    3.3458   24.0987   20.4584 C   0  0  0  0  0  0  0  0  0  0  0  0
    2.4239   24.2052   19.4718 N   0  0  0  0  0  0  0  0  0  0  0  0
    2.7740   24.6925   18.2639 C   0  0  0  0  0  0  0  0  0  0  0  0
    4.0790   25.0575   17.9860 C   0  0  0  0  0  0  0  0  0  0  0  0
    6.8623   25.5476   17.2638 O   0  0  0  0  0  0  0  0  0  0  0  0
    6.7022   25.4000   18.6988 S   0  0  0  0  0  0  0  0  0  0  0  0
    7.5467   24.4711   19.4305 O   0  0  0  0  0  0  0  0  0  0  0  0
    6.9167   27.0021   19.4384 C   0  0  0  0  0  0  0  0  0  0  0  0
    7.3753   28.0669   18.6566 C   0  0  0  0  0  0  0  0  0  0  0  0
    7.5499   29.3205   19.2426 C   0  0  0  0  0  0  0  0  0  0  0  0
    7.2777   29.5019   20.6003 C   0  0  0  0  0  0  0  0  0  0  0  0
    6.8347   28.4311   21.3791 C   0  0  0  0  0  0  0  0  0  0  0  0
    6.6560   27.1741   20.8014 C   0  0  0  0  0  0  0  0  0  0  0  0
    2.8532   23.5901   21.6591 N   0  0  0  0  0  0  0  0  0  0  0  0
    3.5574   23.3087   22.2869 H   0  0  0  0  0  0  0  0  0  0  0  0
    1.6045   23.4074   22.1308 C   0  0  0  0  0  0  0  0  0  0  0  0
    0.5104   23.1983   21.2552 C   0  0  0  0  0  0  0  0  0  0  0  0
   -0.6095   23.0676   22.0533 C   0  0  0  0  0  0  0  0  0  0  0  0
   -0.1244   23.1848   23.3288 N   0  0  0  0  0  0  0  0  0  0  0  0
    1.1990   23.3860   23.4014 N   0  0  0  0  0  0  0  0  0  0  0  0
   -0.6995   23.1262   24.1258 H   0  0  0  0  0  0  0  0  0  0  0  0
   -2.0133   22.8323   21.7285 C   0  0  0  0  0  0  0  0  0  0  0  0
   -2.7397   21.8020   22.3474 C   0  0  0  0  0  0  0  0  0  0  0  0
   -4.0835   21.5887   22.0273 C   0  0  0  0  0  0  0  0  0  0  0  0
   -4.7037   22.4044   21.0898 C   0  0  0  0  0  0  0  0  0  0  0  0
   -5.9909   22.1986   20.7839 F   0  0  0  0  0  0  0  0  0  0  0  0
   -4.0070   23.4314   20.4672 C   0  0  0  0  0  0  0  0  0  0  0  0
   -2.6642   23.6465   20.7882 C   0  0  0  0  0  0  0  0  0  0  0  0
    1.8313   24.7842   17.2299 N   0  0  0  0  0  0  0  0  0  0  0  0
    1.1361   25.4814   17.2280 H   0  0  0  0  0  0  0  0  0  0  0  0
    1.9273   23.7939   16.1500 C   0  0  0  0  0  0  0  0  0  0  0  0
    1.9612   22.3576   16.7132 C   0  0  0  0  0  0  0  0  0  0  0  0
    0.5697   21.7300   16.7815 C   0  0  0  0  0  0  0  0  0  0  0  0
   -0.0749   21.6390   15.3939 C   0  0  0  0  0  0  0  0  0  0  0  0
    0.2652   20.3958   14.7848 O   0  0  0  0  0  0  0  0  0  0  0  0
    0.3684   22.7565   14.4456 C   0  0  0  0  0  0  0  0  0  0  0  0
    0.7295   24.0243   15.2054 C   0  0  0  0  0  0  0  0  0  0  0  0
    1.2259   20.3495   14.6591 H   0  0  0  0  0  0  0  0  0  0  0  0
  7  8  2  0
  8  9  2  0
  8 10  1  0
 10 11  2  0
 11 12  1  0
 12 13  2  0
 13 14  1  0
 14 15  2  0
  8  1  1  0
  1  2  2  0
  2  3  1  0
  3 16  1  0
 16 18  1  0
 18 19  1  0
 19 20  2  0
 20 24  1  0
 24 25  2  0
 25 26  1  0
 26 27  2  0
 27 28  1  0
 27 29  1  0
 29 30  2  0
 20 21  1  0
 21 22  1  0
  3  4  2  0
  4  5  1  0
  5 31  1  0
 33 31  1  0
 33 34  1  0
 34 35  1  0
 35 36  1  0
 36 37  1  0
 36 38  1  0
 38 39  1  0
  5  6  2  0
 15 10  1  0
  6  1  1  0
 22 18  2  0
 39 33  1  0
 30 24  1  0
 16 17  1  0
 21 23  1  0
 31 32  1  0
 37 40  1  0
M  END
> <minimizedAffinity>
-10.33509

> <CNNscore>
0.9742632508

> <CNNaffinity>
8.1624174118

> <CNN_VS>
7.9523434639

> <CNNaffinity_variance>
0.0748908520

$$$$



 40 44  0  0  0  0  0  0  0  0999 V2000
    4.5492   24.7174   18.9408 C   0  0  0  0  0  0  0  0  0  0  0  0
    4.1751   24.5226   20.2646 C   0  0  0  0  0  0  0  0  0  0  0  0
    2.9173   24.0119   20.5178 C   0  0  0  0  0  0  0  0  0  0  0  0
    2.0572   23.7286   19.5106 N   0  0  0  0  0  0  0  0  0  0  0  0
    2.4126   23.9541   18.2292 C   0  0  0  0  0  0  0  0  0  0  0  0
    3.6670   24.4391   17.9053 C   0  0  0  0  0  0  0  0  0  0  0  0
    6.8355   25.5593   19.8504 O   0  0  0  0  0  0  0  0  0  0  0  0
    6.1604   25.3506   18.5826 S   0  0  0  0  0  0  0  0  0  0  0  0
    5.9962   26.4594   17.6579 O   0  0  0  0  0  0  0  0  0  0  0  0
    7.0217   24.0618   17.7126 C   0  0  0  0  0  0  0  0  0  0  0  0
    6.3110   23.2103   16.8610 C   0  0  0  0  0  0  0  0  0  0  0  0
    6.9893   22.1953   16.1864 C   0  0  0  0  0  0  0  0  0  0  0  0
    8.3634   22.0292   16.3719 C   0  0  0  0  0  0  0  0  0  0  0  0
    9.0647   22.8730   17.2354 C   0  0  0  0  0  0  0  0  0  0  0  0
    8.3951   23.8916   17.9134 C   0  0  0  0  0  0  0  0  0  0  0  0
    2.4246   23.7420   21.7935 N   0  0  0  0  0  0  0  0  0  0  0  0
    3.0963   23.8449   22.5059 H   0  0  0  0  0  0  0  0  0  0  0  0
    1.2115   23.3682   22.2449 C   0  0  0  0  0  0  0  0  0  0  0  0
    0.0938   23.2954   21.3772 C   0  0  0  0  0  0  0  0  0  0  0  0
   -0.9794   22.9045   22.1541 C   0  0  0  0  0  0  0  0  0  0  0  0
   -0.4456   22.7526   23.4063 N   0  0  0  0  0  0  0  0  0  0  0  0
    0.8652   23.0218   23.4856 N   0  0  0  0  0  0  0  0  0  0  0  0
   -0.9799   22.4693   24.1832 H   0  0  0  0  0  0  0  0  0  0  0  0
   -2.3797   22.6558   21.8242 C   0  0  0  0  0  0  0  0  0  0  0  0
   -3.0140   21.4609   22.2011 C   0  0  0  0  0  0  0  0  0  0  0  0
   -4.3557   21.2367   21.8791 C   0  0  0  0  0  0  0  0  0  0  0  0
   -5.0654   22.2053   21.1815 C   0  0  0  0  0  0  0  0  0  0  0  0
   -6.3504   21.9889   20.8735 F   0  0  0  0  0  0  0  0  0  0  0  0
   -4.4606   23.3959   20.8012 C   0  0  0  0  0  0  0  0  0  0  0  0
   -3.1202   23.6217   21.1244 C   0  0  0  0  0  0  0  0  0  0  0  0
    1.5372   23.6419   17.1793 N   0  0  0  0  0  0  0  0  0  0  0  0
    1.6307   24.0563   16.2912 H   0  0  0  0  0  0  0  0  0  0  0  0
    0.4747   22.6691   17.4637 C   0  0  0  0  0  0  0  0  0  0  0  0
   -0.9213   23.3097   17.3144 C   0  0  0  0  0  0  0  0  0  0  0  0
   -1.5028   23.1100   15.9155 C   0  0  0  0  0  0  0  0  0  0  0  0
   -1.6676   21.6232   15.5820 C   0  0  0  0  0  0  0  0  0  0  0  0
   -2.9579   21.1772   15.9924 O   0  0  0  0  0  0  0  0  0  0  0  0
   -0.6290   20.7301   16.2663 C   0  0  0  0  0  0  0  0  0  0  0  0
    0.6758   21.4743   16.5087 C   0  0  0  0  0  0  0  0  0  0  0  0
   -3.0400   21.2667   16.9547 H   0  0  0  0  0  0  0  0  0  0  0  0
  7  8  2  0
  8  9  2  0
  8 10  1  0
 10 11  2  0
 11 12  1  0
 12 13  2  0
 13 14  1  0
 14 15  2  0
  8  1  1  0
  1  2  2  0
  2  3  1  0
  3 16  1  0
 16 18  1  0
 18 19  1  0
 19 20  2  0
 20 24  1  0
 24 25  2  0
 25 26  1  0
 26 27  2  0
 27 28  1  0
 27 29  1  0
 29 30  2  0
 20 21  1  0
 21 22  1  0
  3  4  2  0
  4  5  1  0
  5 31  1  0
 33 31  1  0
 33 34  1  0
 34 35  1  0
 35 36  1  0
 36 37  1  0
 36 38  1  0
 38 39  1  0
  5  6  2  0
 15 10  1  0
  6  1  1  0
 22 18  2  0
 39 33  1  0
 30 24  1  0
 16 17  1  0
 21 23  1  0
 31 32  1  0
 37 40  1  0
M  END
> <minimizedAffinity>
-10.11664

> <CNNscore>
0.9611258507

> <CNNaffinity>
8.0803642273

> <CNN_VS>
7.7662467957

> <CNNaffinity_variance>
0.0651346371

$$$$



 40 44  0  0  0  0  0  0  0  0999 V2000
    5.1899   24.8191   17.8443 C   0  0  0  0  0  0  0  0  0  0  0  0
    4.8862   24.8007   19.2000 C   0  0  0  0  0  0  0  0  0  0  0  0
    3.6120   24.4252   19.5771 C   0  0  0  0  0  0  0  0  0  0  0  0
    2.6713   24.1054   18.6565 N   0  0  0  0  0  0  0  0  0  0  0  0
    2.9614   24.1604   17.3405 C   0  0  0  0  0  0  0  0  0  0  0  0
    4.2258   24.5030   16.8963 C   0  0  0  0  0  0  0  0  0  0  0  0
    6.9686   24.8596   15.9475 O   0  0  0  0  0  0  0  0  0  0  0  0
    6.8184   25.2757   17.3299 S   0  0  0  0  0  0  0  0  0  0  0  0
    7.7453   24.7895   18.3377 O   0  0  0  0  0  0  0  0  0  0  0  0
    6.8765   27.0519   17.3734 C   0  0  0  0  0  0  0  0  0  0  0  0
    7.3058   27.6998   18.5358 C   0  0  0  0  0  0  0  0  0  0  0  0
    7.3422   29.0936   18.5685 C   0  0  0  0  0  0  0  0  0  0  0  0
    6.9424   29.8301   17.4513 C   0  0  0  0  0  0  0  0  0  0  0  0
    6.5002   29.1776   16.2989 C   0  0  0  0  0  0  0  0  0  0  0  0
    6.4616   27.7839   16.2565 C   0  0  0  0  0  0  0  0  0  0  0  0
    3.1816   24.3368   20.9000 N   0  0  0  0  0  0  0  0  0  0  0  0
    3.8338   24.6830   21.5511 H   0  0  0  0  0  0  0  0  0  0  0  0
    2.0500   23.8715   21.4642 C   0  0  0  0  0  0  0  0  0  0  0  0
    0.8303   23.8341   20.7442 C   0  0  0  0  0  0  0  0  0  0  0  0
   -0.1192   23.3270   21.6099 C   0  0  0  0  0  0  0  0  0  0  0  0
    0.5793   23.0800   22.7620 N   0  0  0  0  0  0  0  0  0  0  0  0
    1.8807   23.3953   22.6985 N   0  0  0  0  0  0  0  0  0  0  0  0
    0.1606   22.7026   23.5691 H   0  0  0  0  0  0  0  0  0  0  0  0
   -1.5429   23.0521   21.4395 C   0  0  0  0  0  0  0  0  0  0  0  0
   -2.2749   22.3719   22.4263 C   0  0  0  0  0  0  0  0  0  0  0  0
   -3.6378   22.1163   22.2500 C   0  0  0  0  0  0  0  0  0  0  0  0
   -4.2713   22.5402   21.0891 C   0  0  0  0  0  0  0  0  0  0  0  0
   -5.5768   22.2942   20.9215 F   0  0  0  0  0  0  0  0  0  0  0  0
   -3.5691   23.2173   20.1010 C   0  0  0  0  0  0  0  0  0  0  0  0
   -2.2072   23.4750   20.2774 C   0  0  0  0  0  0  0  0  0  0  0  0
    2.0006   23.8085   16.3817 N   0  0  0  0  0  0  0  0  0  0  0  0
    2.2597   23.4728   15.4932 H   0  0  0  0  0  0  0  0  0  0  0  0
    0.5909   23.9630   16.7622 C   0  0  0  0  0  0  0  0  0  0  0  0
   -0.1384   24.9370   15.8129 C   0  0  0  0  0  0  0  0  0  0  0  0
   -0.8240   24.2122   14.6556 C   0  0  0  0  0  0  0  0  0  0  0  0
   -1.8797   23.2216   15.1588 C   0  0  0  0  0  0  0  0  0  0  0  0
   -3.1416   23.8757   15.2676 O   0  0  0  0  0  0  0  0  0  0  0  0
   -1.5467   22.6258   16.5295 C   0  0  0  0  0  0  0  0  0  0  0  0
   -0.0442   22.5571   16.7593 C   0  0  0  0  0  0  0  0  0  0  0  0
   -3.0810   24.5885   15.9226 H   0  0  0  0  0  0  0  0  0  0  0  0
  7  8  2  0
  8  9  2  0
  8 10  1  0
 10 11  2  0
 11 12  1  0
 12 13  2  0
 13 14  1  0
 14 15  2  0
  8  1  1  0
  1  2  2  0
  2  3  1  0
  3 16  1  0
 16 18  1  0
 18 19  1  0
 19 20  2  0
 20 24  1  0
 24 25  2  0
 25 26  1  0
 26 27  2  0
 27 28  1  0
 27 29  1  0
 29 30  2  0
 20 21  1  0
 21 22  1  0
  3  4  2  0
  4  5  1  0
  5 31  1  0
 33 31  1  0
 33 34  1  0
 34 35  1  0
 35 36  1  0
 36 37  1  0
 36 38  1  0
 38 39  1  0
  5  6  2  0
 15 10  1  0
  6  1  1  0
 22 18  2  0
 39 33  1  0
 30 24  1  0
 16 17  1  0
 21 23  1  0
 31 32  1  0
 37 40  1  0
M  END
> <minimizedAffinity>
-9.09810

> <CNNscore>
0.8954582810

> <CNNaffinity>
7.9501099586

> <CNN_VS>
7.1189918518

> <CNNaffinity_variance>
0.0062835091

$$$$



 40 44  0  0  0  0  0  0  0  0999 V2000
    4.6861   24.2345   17.1895 C   0  0  0  0  0  0  0  0  0  0  0  0
    4.3719   24.5433   18.5072 C   0  0  0  0  0  0  0  0  0  0  0  0
    3.3193   23.8743   19.0999 C   0  0  0  0  0  0  0  0  0  0  0  0
    2.5930   22.9585   18.4155 N   0  0  0  0  0  0  0  0  0  0  0  0
    2.8798   22.6895   17.1253 C   0  0  0  0  0  0  0  0  0  0  0  0
    3.9375   23.3047   16.4802 C   0  0  0  0  0  0  0  0  0  0  0  0
    6.6821   25.8865   17.4139 O   0  0  0  0  0  0  0  0  0  0  0  0
    6.0411   25.0588   16.4085 S   0  0  0  0  0  0  0  0  0  0  0  0
    5.5371   25.6624   15.1867 O   0  0  0  0  0  0  0  0  0  0  0  0
    7.1915   23.7895   15.9338 C   0  0  0  0  0  0  0  0  0  0  0  0
    7.3647   22.6725   16.7571 C   0  0  0  0  0  0  0  0  0  0  0  0
    8.2741   21.6828   16.3850 C   0  0  0  0  0  0  0  0  0  0  0  0
    9.0098   21.8166   15.2055 C   0  0  0  0  0  0  0  0  0  0  0  0
    8.8436   22.9416   14.3955 C   0  0  0  0  0  0  0  0  0  0  0  0
    7.9354   23.9360   14.7589 C   0  0  0  0  0  0  0  0  0  0  0  0
    2.9146   24.0654   20.4200 N   0  0  0  0  0  0  0  0  0  0  0  0
    3.5644   24.5674   20.9632 H   0  0  0  0  0  0  0  0  0  0  0  0
    1.8107   23.6994   21.1001 C   0  0  0  0  0  0  0  0  0  0  0  0
    0.5554   23.5775   20.4544 C   0  0  0  0  0  0  0  0  0  0  0  0
   -0.3517   23.2101   21.4294 C   0  0  0  0  0  0  0  0  0  0  0  0
    0.4035   23.1182   22.5684 N   0  0  0  0  0  0  0  0  0  0  0  0
    1.7019   23.4038   22.3962 N   0  0  0  0  0  0  0  0  0  0  0  0
    0.0244   22.8637   23.4406 H   0  0  0  0  0  0  0  0  0  0  0  0
   -1.7839   22.9331   21.3707 C   0  0  0  0  0  0  0  0  0  0  0  0
   -2.6151   23.5950   20.4524 C   0  0  0  0  0  0  0  0  0  0  0  0
   -3.9847   23.3192   20.4069 C   0  0  0  0  0  0  0  0  0  0  0  0
   -4.5255   22.3818   21.2773 C   0  0  0  0  0  0  0  0  0  0  0  0
   -5.8377   22.1190   21.2328 F   0  0  0  0  0  0  0  0  0  0  0  0
   -3.7231   21.7124   22.1915 C   0  0  0  0  0  0  0  0  0  0  0  0
   -2.3536   21.9860   22.2363 C   0  0  0  0  0  0  0  0  0  0  0  0
    2.1479   21.7262   16.4165 N   0  0  0  0  0  0  0  0  0  0  0  0
    2.3131   20.7632   16.5373 H   0  0  0  0  0  0  0  0  0  0  0  0
    1.1241   22.2179   15.4858 C   0  0  0  0  0  0  0  0  0  0  0  0
   -0.2514   22.3252   16.1773 C   0  0  0  0  0  0  0  0  0  0  0  0
   -0.5047   23.7197   16.7479 C   0  0  0  0  0  0  0  0  0  0  0  0
   -0.4843   24.7889   15.6499 C   0  0  0  0  0  0  0  0  0  0  0  0
   -1.7958   24.9586   15.1177 O   0  0  0  0  0  0  0  0  0  0  0  0
    0.4475   24.4433   14.4851 C   0  0  0  0  0  0  0  0  0  0  0  0
    1.6120   23.5755   14.9390 C   0  0  0  0  0  0  0  0  0  0  0  0
   -2.0877   24.1299   14.7066 H   0  0  0  0  0  0  0  0  0  0  0  0
  7  8  2  0
  8  9  2  0
  8 10  1  0
 10 11  2  0
 11 12  1  0
 12 13  2  0
 13 14  1  0
 14 15  2  0
  8  1  1  0
  1  2  2  0
  2  3  1  0
  3 16  1  0
 16 18  1  0
 18 19  1  0
 19 20  2  0
 20 24  1  0
 24 25  2  0
 25 26  1  0
 26 27  2  0
 27 28  1  0
 27 29  1  0
 29 30  2  0
 20 21  1  0
 21 22  1  0
  3  4  2  0
  4  5  1  0
  5 31  1  0
 33 31  1  0
 33 34  1  0
 34 35  1  0
 35 36  1  0
 36 37  1  0
 36 38  1  0
 38 39  1  0
  5  6  2  0
 15 10  1  0
  6  1  1  0
 22 18  2  0
 39 33  1  0
 30 24  1  0
 16 17  1  0
 21 23  1  0
 31 32  1  0
 37 40  1  0
M  END
> <minimizedAffinity>
-8.99119

> <CNNscore>
0.5961577296

> <CNNaffinity>
7.3589072227

> <CNN_VS>
4.3870692253

> <CNNaffinity_variance>
0.0232565608

$$$$



 40 44  0  0  0  0  0  0  0  0999 V2000
    0.1942   23.0093   21.6176 C   0  0  0  0  0  0  0  0  0  0  0  0
    1.5225   23.2986   21.9047 C   0  0  0  0  0  0  0  0  0  0  0  0
    2.3796   23.5394   20.8491 C   0  0  0  0  0  0  0  0  0  0  0  0
    1.9512   23.4739   19.5658 N   0  0  0  0  0  0  0  0  0  0  0  0
    0.6691   23.1567   19.2924 C   0  0  0  0  0  0  0  0  0  0  0  0
   -0.2472   22.9298   20.3036 C   0  0  0  0  0  0  0  0  0  0  0  0
   -0.9568   23.9139   23.7671 O   0  0  0  0  0  0  0  0  0  0  0  0
   -0.9330   22.7161   22.9476 S   0  0  0  0  0  0  0  0  0  0  0  0
   -0.5810   21.4381   23.5424 O   0  0  0  0  0  0  0  0  0  0  0  0
   -2.5391   22.5294   22.2091 C   0  0  0  0  0  0  0  0  0  0  0  0
   -3.1781   23.6437   21.6566 C   0  0  0  0  0  0  0  0  0  0  0  0
   -4.4417   23.4944   21.0853 C   0  0  0  0  0  0  0  0  0  0  0  0
   -5.0624   22.2435   21.0776 C   0  0  0  0  0  0  0  0  0  0  0  0
   -4.4258   21.1377   21.6446 C   0  0  0  0  0  0  0  0  0  0  0  0
   -3.1615   21.2772   22.2171 C   0  0  0  0  0  0  0  0  0  0  0  0
    3.7267   23.8673   20.9940 N   0  0  0  0  0  0  0  0  0  0  0  0
    4.1740   23.3837   21.7256 H   0  0  0  0  0  0  0  0  0  0  0  0
    4.5378   24.7148   20.3315 C   0  0  0  0  0  0  0  0  0  0  0  0
    5.7921   25.1012   20.8652 C   0  0  0  0  0  0  0  0  0  0  0  0
    6.3507   25.9780   19.9555 C   0  0  0  0  0  0  0  0  0  0  0  0
    5.4256   26.0455   18.9476 N   0  0  0  0  0  0  0  0  0  0  0  0
    4.3326   25.2957   19.1485 N   0  0  0  0  0  0  0  0  0  0  0  0
    5.5527   26.5984   18.1430 H   0  0  0  0  0  0  0  0  0  0  0  0
    7.6217   26.6963   19.9510 C   0  0  0  0  0  0  0  0  0  0  0  0
    8.5712   26.4994   20.9669 C   0  0  0  0  0  0  0  0  0  0  0  0
    9.7845   27.1935   20.9494 C   0  0  0  0  0  0  0  0  0  0  0  0
   10.0512   28.0838   19.9175 C   0  0  0  0  0  0  0  0  0  0  0  0
   11.2137   28.7481   19.9023 F   0  0  0  0  0  0  0  0  0  0  0  0
    9.1293   28.2924   18.9004 C   0  0  0  0  0  0  0  0  0  0  0  0
    7.9172   27.5975   18.9161 C   0  0  0  0  0  0  0  0  0  0  0  0
    0.2116   23.1094   17.9678 N   0  0  0  0  0  0  0  0  0  0  0  0
    0.7055   22.6209   17.2702 H   0  0  0  0  0  0  0  0  0  0  0  0
   -1.0371   23.8212   17.6677 C   0  0  0  0  0  0  0  0  0  0  0  0
   -1.0671   24.2985   16.2004 C   0  0  0  0  0  0  0  0  0  0  0  0
   -1.7516   23.2907   15.2781 C   0  0  0  0  0  0  0  0  0  0  0  0
   -3.2088   23.0521   15.6887 C   0  0  0  0  0  0  0  0  0  0  0  0
   -4.0572   23.9800   15.0168 O   0  0  0  0  0  0  0  0  0  0  0  0
   -3.4481   23.2103   17.1928 C   0  0  0  0  0  0  0  0  0  0  0  0
   -2.2029   22.8657   17.9964 C   0  0  0  0  0  0  0  0  0  0  0  0
   -3.8267   24.8827   15.2865 H   0  0  0  0  0  0  0  0  0  0  0  0
  7  8  2  0
  8  9  2  0
  8 10  1  0
 10 11  2  0
 11 12  1  0
 12 13  2  0
 13 14  1  0
 14 15  2  0
  8  1  1  0
  1  2  2  0
  2  3  1  0
  3 16  1  0
 16 18  1  0
 18 19  1  0
 19 20  2  0
 20 24  1  0
 24 25  2  0
 25 26  1  0
 26 27  2  0
 27 28  1  0
 27 29  1  0
 29 30  2  0
 20 21  1  0
 21 22  1  0
  3  4  2  0
  4  5  1  0
  5 31  1  0
 33 31  1  0
 33 34  1  0
 34 35  1  0
 35 36  1  0
 36 37  1  0
 36 38  1  0
 38 39  1  0
  5  6  2  0
 15 10  1  0
  6  1  1  0
 22 18  2  0
 39 33  1  0
 30 24  1  0
 16 17  1  0
 21 23  1  0
 31 32  1  0
 37 40  1  0
M  END
> <minimizedAffinity>
-8.02828

> <CNNscore>
0.3390809894

> <CNNaffinity>
7.3247504234

> <CNN_VS>
2.4836835861

> <CNNaffinity_variance>
0.0181633774

$$$$



 40 44  0  0  0  0  0  0  0  0999 V2000
    1.6667   23.6147   20.3109 C   0  0  0  0  0  0  0  0  0  0  0  0
    2.9819   24.0271   20.1362 C   0  0  0  0  0  0  0  0  0  0  0  0
    3.4517   24.1771   18.8464 C   0  0  0  0  0  0  0  0  0  0  0  0
    2.6665   23.9087   17.7759 N   0  0  0  0  0  0  0  0  0  0  0  0
    1.4021   23.4736   17.9521 C   0  0  0  0  0  0  0  0  0  0  0  0
    0.8613   23.3275   19.2169 C   0  0  0  0  0  0  0  0  0  0  0  0
    1.2846   24.6756   22.6544 O   0  0  0  0  0  0  0  0  0  0  0  0
    1.0287   23.4328   21.9496 S   0  0  0  0  0  0  0  0  0  0  0  0
    1.5412   22.1806   22.4793 O   0  0  0  0  0  0  0  0  0  0  0  0
   -0.7320   23.2536   21.7833 C   0  0  0  0  0  0  0  0  0  0  0  0
   -1.4009   23.9328   20.7602 C   0  0  0  0  0  0  0  0  0  0  0  0
   -2.7835   23.7958   20.6381 C   0  0  0  0  0  0  0  0  0  0  0  0
   -3.4892   22.9948   21.5385 C   0  0  0  0  0  0  0  0  0  0  0  0
   -2.8176   22.3314   22.5672 C   0  0  0  0  0  0  0  0  0  0  0  0
   -1.4348   22.4614   22.6964 C   0  0  0  0  0  0  0  0  0  0  0  0
    4.7380   24.6094   18.5275 N   0  0  0  0  0  0  0  0  0  0  0  0
    4.9057   24.6686   17.5592 H   0  0  0  0  0  0  0  0  0  0  0  0
    5.7972   24.9621   19.2816 C   0  0  0  0  0  0  0  0  0  0  0  0
    5.9142   26.2668   19.8216 C   0  0  0  0  0  0  0  0  0  0  0  0
    7.1080   26.2969   20.5160 C   0  0  0  0  0  0  0  0  0  0  0  0
    7.6108   25.0315   20.3680 N   0  0  0  0  0  0  0  0  0  0  0  0
    6.8426   24.2129   19.6352 N   0  0  0  0  0  0  0  0  0  0  0  0
    8.4649   24.7468   20.7664 H   0  0  0  0  0  0  0  0  0  0  0  0
    7.7617   27.3545   21.2813 C   0  0  0  0  0  0  0  0  0  0  0  0
    8.6588   27.0524   22.3188 C   0  0  0  0  0  0  0  0  0  0  0  0
    9.2781   28.0753   23.0427 C   0  0  0  0  0  0  0  0  0  0  0  0
    9.0033   29.4005   22.7309 C   0  0  0  0  0  0  0  0  0  0  0  0
    9.5971   30.3792   23.4255 F   0  0  0  0  0  0  0  0  0  0  0  0
    8.1227   29.7236   21.7072 C   0  0  0  0  0  0  0  0  0  0  0  0
    7.5047   28.7017   20.9819 C   0  0  0  0  0  0  0  0  0  0  0  0
    0.5749   23.2158   16.8496 N   0  0  0  0  0  0  0  0  0  0  0  0
    0.1902   23.9464   16.3133 H   0  0  0  0  0  0  0  0  0  0  0  0
    0.3082   21.8076   16.5307 C   0  0  0  0  0  0  0  0  0  0  0  0
   -0.8949   21.2726   17.3355 C   0  0  0  0  0  0  0  0  0  0  0  0
   -2.2088   21.4016   16.5663 C   0  0  0  0  0  0  0  0  0  0  0  0
   -2.1735   20.6076   15.2558 C   0  0  0  0  0  0  0  0  0  0  0  0
   -2.6392   19.2797   15.4838 O   0  0  0  0  0  0  0  0  0  0  0  0
   -0.7729   20.5092   14.6447 C   0  0  0  0  0  0  0  0  0  0  0  0
    0.0815   21.7147   15.0075 C   0  0  0  0  0  0  0  0  0  0  0  0
   -2.0464   18.8318   16.1073 H   0  0  0  0  0  0  0  0  0  0  0  0
  7  8  2  0
  8  9  2  0
  8 10  1  0
 10 11  2  0
 11 12  1  0
 12 13  2  0
 13 14  1  0
 14 15  2  0
  8  1  1  0
  1  2  2  0
  2  3  1  0
  3 16  1  0
 16 18  1  0
 18 19  1  0
 19 20  2  0
 20 24  1  0
 24 25  2  0
 25 26  1  0
 26 27  2  0
 27 28  1  0
 27 29  1  0
 29 30  2  0
 20 21  1  0
 21 22  1  0
  3  4  2  0
  4  5  1  0
  5 31  1  0
 33 31  1  0
 33 34  1  0
 34 35  1  0
 35 36  1  0
 36 37  1  0
 36 38  1  0
 38 39  1  0
  5  6  2  0
 15 10  1  0
  6  1  1  0
 22 18  2  0
 39 33  1  0
 30 24  1  0
 16 17  1  0
 21 23  1  0
 31 32  1  0
 37 40  1  0
M  END
> <minimizedAffinity>
-9.34927

> <CNNscore>
0.2670675218

> <CNNaffinity>
6.8715329170

> <CNN_VS>
1.8351632357

> <CNNaffinity_variance>
0.1467106938

$$$$



 40 44  0  0  0  0  0  0  0  0999 V2000
    0.3156   23.1253   21.7639 C   0  0  0  0  0  0  0  0  0  0  0  0
    1.6130   23.4848   22.1070 C   0  0  0  0  0  0  0  0  0  0  0  0
    2.4918   23.8020   21.0901 C   0  0  0  0  0  0  0  0  0  0  0  0
    2.1146   23.7436   19.7906 N   0  0  0  0  0  0  0  0  0  0  0  0
    0.8643   23.3586   19.4621 C   0  0  0  0  0  0  0  0  0  0  0  0
   -0.0727   23.0531   20.4327 C   0  0  0  0  0  0  0  0  0  0  0  0
   -0.8866   23.8681   23.9471 O   0  0  0  0  0  0  0  0  0  0  0  0
   -0.8394   22.7331   23.0435 S   0  0  0  0  0  0  0  0  0  0  0  0
   -0.4950   21.4162   23.5517 O   0  0  0  0  0  0  0  0  0  0  0  0
   -2.4281   22.5961   22.2578 C   0  0  0  0  0  0  0  0  0  0  0  0
   -3.0119   23.7279   21.6803 C   0  0  0  0  0  0  0  0  0  0  0  0
   -4.2621   23.6178   21.0718 C   0  0  0  0  0  0  0  0  0  0  0  0
   -4.9245   22.3885   21.0520 C   0  0  0  0  0  0  0  0  0  0  0  0
   -4.3431   21.2655   21.6439 C   0  0  0  0  0  0  0  0  0  0  0  0
   -3.0926   21.3657   22.2536 C   0  0  0  0  0  0  0  0  0  0  0  0
    3.8108   24.2046   21.2930 N   0  0  0  0  0  0  0  0  0  0  0  0
    4.0790   24.2149   22.2402 H   0  0  0  0  0  0  0  0  0  0  0  0
    4.7913   24.5825   20.4499 C   0  0  0  0  0  0  0  0  0  0  0  0
    4.5209   25.4045   19.3280 C   0  0  0  0  0  0  0  0  0  0  0  0
    5.7252   25.5837   18.6753 C   0  0  0  0  0  0  0  0  0  0  0  0
    6.6245   24.8894   19.4403 N   0  0  0  0  0  0  0  0  0  0  0  0
    6.0898   24.2835   20.5100 N   0  0  0  0  0  0  0  0  0  0  0  0
    7.5834   24.8395   19.2228 H   0  0  0  0  0  0  0  0  0  0  0  0
    6.0776   26.3319   17.4722 C   0  0  0  0  0  0  0  0  0  0  0  0
    6.1261   25.7066   16.2157 C   0  0  0  0  0  0  0  0  0  0  0  0
    6.4643   26.4356   15.0720 C   0  0  0  0  0  0  0  0  0  0  0  0
    6.7534   27.7896   15.1815 C   0  0  0  0  0  0  0  0  0  0  0  0
    7.0775   28.4865   14.0851 F   0  0  0  0  0  0  0  0  0  0  0  0
    6.7086   28.4302   16.4125 C   0  0  0  0  0  0  0  0  0  0  0  0
    6.3687   27.7027   17.5559 C   0  0  0  0  0  0  0  0  0  0  0  0
    0.4585   23.3180   18.1205 N   0  0  0  0  0  0  0  0  0  0  0  0
    1.0078   22.8811   17.4300 H   0  0  0  0  0  0  0  0  0  0  0  0
   -0.8223   23.9561   17.7914 C   0  0  0  0  0  0  0  0  0  0  0  0
   -0.8259   24.4818   16.3405 C   0  0  0  0  0  0  0  0  0  0  0  0
   -1.4038   23.4643   15.3580 C   0  0  0  0  0  0  0  0  0  0  0  0
   -2.8569   23.1158   15.6989 C   0  0  0  0  0  0  0  0  0  0  0  0
   -3.7384   24.0089   15.0225 O   0  0  0  0  0  0  0  0  0  0  0  0
   -3.1659   23.2048   17.1960 C   0  0  0  0  0  0  0  0  0  0  0  0
   -1.9333   22.9149   18.0396 C   0  0  0  0  0  0  0  0  0  0  0  0
   -3.5800   24.9148   15.3309 H   0  0  0  0  0  0  0  0  0  0  0  0
  7  8  2  0
  8  9  2  0
  8 10  1  0
 10 11  2  0
 11 12  1  0
 12 13  2  0
 13 14  1  0
 14 15  2  0
  8  1  1  0
  1  2  2  0
  2  3  1  0
  3 16  1  0
 16 18  1  0
 18 19  1  0
 19 20  2  0
 20 24  1  0
 24 25  2  0
 25 26  1  0
 26 27  2  0
 27 28  1  0
 27 29  1  0
 29 30  2  0
 20 21  1  0
 21 22  1  0
  3  4  2  0
  4  5  1  0
  5 31  1  0
 33 31  1  0
 33 34  1  0
 34 35  1  0
 35 36  1  0
 36 37  1  0
 36 38  1  0
 38 39  1  0
  5  6  2  0
 15 10  1  0
  6  1  1  0
 22 18  2  0
 39 33  1  0
 30 24  1  0
 16 17  1  0
 21 23  1  0
 31 32  1  0
 37 40  1  0
M  END
> <minimizedAffinity>
-8.36671

> <CNNscore>
0.2502683103

> <CNNaffinity>
7.0929064751

> <CNN_VS>
1.7751296759

> <CNNaffinity_variance>
0.0482499413

$$$$



 40 44  0  0  0  0  0  0  0  0999 V2000
    6.3390   23.5347   17.2434 C   0  0  0  0  0  0  0  0  0  0  0  0
    4.9583   23.6755   17.3092 C   0  0  0  0  0  0  0  0  0  0  0  0
    4.4203   24.3147   18.4087 C   0  0  0  0  0  0  0  0  0  0  0  0
    5.2076   24.7734   19.4109 N   0  0  0  0  0  0  0  0  0  0  0  0
    6.5443   24.6014   19.3586 C   0  0  0  0  0  0  0  0  0  0  0  0
    7.1494   23.9932   18.2735 C   0  0  0  0  0  0  0  0  0  0  0  0
    7.3387   23.7679   14.8540 O   0  0  0  0  0  0  0  0  0  0  0  0
    7.0603   22.7390   15.8391 S   0  0  0  0  0  0  0  0  0  0  0  0
    6.2086   21.6143   15.4914 O   0  0  0  0  0  0  0  0  0  0  0  0
    8.6152   22.0736   16.3860 C   0  0  0  0  0  0  0  0  0  0  0  0
    9.5679   22.9245   16.9550 C   0  0  0  0  0  0  0  0  0  0  0  0
   10.7898   22.3997   17.3755 C   0  0  0  0  0  0  0  0  0  0  0  0
   11.0578   21.0382   17.2174 C   0  0  0  0  0  0  0  0  0  0  0  0
   10.1085   20.1965   16.6346 C   0  0  0  0  0  0  0  0  0  0  0  0
    8.8832   20.7122   16.2122 C   0  0  0  0  0  0  0  0  0  0  0  0
    3.0579   24.5477   18.5894 N   0  0  0  0  0  0  0  0  0  0  0  0
    2.6907   25.2311   17.9832 H   0  0  0  0  0  0  0  0  0  0  0  0
    2.1441   24.0233   19.4290 C   0  0  0  0  0  0  0  0  0  0  0  0
    0.7567   24.1136   19.1560 C   0  0  0  0  0  0  0  0  0  0  0  0
    0.1099   23.5000   20.2112 C   0  0  0  0  0  0  0  0  0  0  0  0
    1.1279   23.0733   21.0223 N   0  0  0  0  0  0  0  0  0  0  0  0
    2.3553   23.3724   20.5739 N   0  0  0  0  0  0  0  0  0  0  0  0
    0.9712   22.5876   21.8642 H   0  0  0  0  0  0  0  0  0  0  0  0
   -1.3063   23.2775   20.4872 C   0  0  0  0  0  0  0  0  0  0  0  0
   -1.7480   22.9097   21.7686 C   0  0  0  0  0  0  0  0  0  0  0  0
   -3.1073   22.7008   22.0186 C   0  0  0  0  0  0  0  0  0  0  0  0
   -4.0269   22.8597   20.9901 C   0  0  0  0  0  0  0  0  0  0  0  0
   -5.3286   22.6588   21.2311 F   0  0  0  0  0  0  0  0  0  0  0  0
   -3.6143   23.2261   19.7160 C   0  0  0  0  0  0  0  0  0  0  0  0
   -2.2560   23.4371   19.4657 C   0  0  0  0  0  0  0  0  0  0  0  0
    7.3687   25.0937   20.3805 N   0  0  0  0  0  0  0  0  0  0  0  0
    7.4653   24.6184   21.2372 H   0  0  0  0  0  0  0  0  0  0  0  0
    8.0812   26.3499   20.1156 C   0  0  0  0  0  0  0  0  0  0  0  0
    7.0941   27.5217   19.9308 C   0  0  0  0  0  0  0  0  0  0  0  0
    6.8368   28.2726   21.2363 C   0  0  0  0  0  0  0  0  0  0  0  0
    8.1274   28.8752   21.8024 C   0  0  0  0  0  0  0  0  0  0  0  0
    8.3126   30.1907   21.2854 O   0  0  0  0  0  0  0  0  0  0  0  0
    9.3778   28.0613   21.4578 C   0  0  0  0  0  0  0  0  0  0  0  0
    9.0548   26.5841   21.2892 C   0  0  0  0  0  0  0  0  0  0  0  0
    8.4138   30.1480   20.3216 H   0  0  0  0  0  0  0  0  0  0  0  0
  7  8  2  0
  8  9  2  0
  8 10  1  0
 10 11  2  0
 11 12  1  0
 12 13  2  0
 13 14  1  0
 14 15  2  0
  8  1  1  0
  1  2  2  0
  2  3  1  0
  3 16  1  0
 16 18  1  0
 18 19  1  0
 19 20  2  0
 20 24  1  0
 24 25  2  0
 25 26  1  0
 26 27  2  0
 27 28  1  0
 27 29  1  0
 29 30  2  0
 20 21  1  0
 21 22  1  0
  3  4  2  0
  4  5  1  0
  5 31  1  0
 33 31  1  0
 33 34  1  0
 34 35  1  0
 35 36  1  0
 36 37  1  0
 36 38  1  0
 38 39  1  0
  5  6  2  0
 15 10  1  0
  6  1  1  0
 22 18  2  0
 39 33  1  0
 30 24  1  0
 16 17  1  0
 21 23  1  0
 31 32  1  0
 37 40  1  0
M  END
> <minimizedAffinity>
-9.27297

> <CNNscore>
0.1639424413

> <CNNaffinity>
6.7261295319

> <CNN_VS>
1.1026980877

> <CNNaffinity_variance>
0.0519399941

$$$$
