


 22 25  0  0  0  0  0  0  0  0999 V2000
  -73.1276  -49.6618  -75.5271 C   0  0  0  0  0  0  0  0  0  0  0  0
  -72.9177  -49.3274  -76.6867 O   0  0  0  0  0  0  0  0  0  0  0  0
  -73.0932  -51.0471  -75.0686 C   0  0  0  0  0  0  0  0  0  0  0  0
  -73.3924  -52.1664  -75.8297 C   0  0  0  0  0  0  0  0  0  0  0  0
  -73.2453  -53.2786  -75.0473 N   0  0  0  0  0  0  0  0  0  0  0  0
  -72.8527  -52.9196  -73.7801 C   0  0  0  0  0  0  0  0  0  0  0  0
  -72.5851  -53.7179  -72.6611 C   0  0  0  0  0  0  0  0  0  0  0  0
  -72.1985  -53.0747  -71.4821 C   0  0  0  0  0  0  0  0  0  0  0  0
  -72.0849  -51.6884  -71.4270 C   0  0  0  0  0  0  0  0  0  0  0  0
  -72.3562  -50.9058  -72.5550 C   0  0  0  0  0  0  0  0  0  0  0  0
  -72.7487  -51.5271  -73.7604 C   0  0  0  0  0  0  0  0  0  0  0  0
  -73.3986  -54.2033  -75.3485 H   0  0  0  0  0  0  0  0  0  0  0  0
  -73.4249  -48.7902  -74.5171 O   0  0  0  0  0  0  0  0  0  0  0  0
  -69.7260  -44.8189  -73.4576 C   0  0  0  0  0  0  0  0  0  0  0  0
  -70.7002  -45.8772  -73.7135 N   0  0  0  0  0  0  0  0  0  0  0  0
  -71.5418  -46.1767  -72.5399 C   0  0  0  0  0  0  0  0  0  0  0  0
  -70.6617  -47.0566  -71.6449 C   0  0  0  0  0  0  0  0  0  0  0  0
  -69.6838  -47.7220  -72.6046 C   0  0  0  0  0  0  0  0  0  0  0  0
  -70.0725  -47.1824  -73.9856 C   0  0  0  0  0  0  0  0  0  0  0  0
  -71.1274  -48.0861  -74.6504 C   0  0  0  0  0  0  0  0  0  0  0  0
  -72.5742  -47.6324  -74.3931 C   0  0  0  0  0  0  0  0  0  0  0  0
  -72.7788  -46.9540  -73.0278 C   0  0  0  0  0  0  0  0  0  0  0  0
 14 15  1  0
 15 16  1  0
 16 17  1  0
 17 18  1  0
 19 18  1  0
 19 20  1  0
 20 21  1  0
 21 13  1  0
 13  1  1  0
  1  2  2  0
  1  3  1  0
  3  4  2  0
  4  5  1  0
  5  6  1  0
  6  7  2  0
  7  8  1  0
  8  9  2  0
  9 10  1  0
 10 11  2  0
 21 22  1  0
 19 15  1  0
 11  3  1  0
 22 16  1  0
 11  6  1  0
  5 12  1  0
M  END
> <minimizedAffinity>
-8.45526

> <CNNscore>
0.9571915865

> <CNNaffinity>
7.3536186218

> <CNN_VS>
7.0388216972

> <CNNaffinity_variance>
0.3122853339

$$$$



 22 25  0  0  0  0  0  0  0  0999 V2000
  -72.6853  -50.6773  -73.3225 C   0  0  0  0  0  0  0  0  0  0  0  0
  -72.9069  -50.7411  -74.5257 O   0  0  0  0  0  0  0  0  0  0  0  0
  -72.2638  -51.8203  -72.5186 C   0  0  0  0  0  0  0  0  0  0  0  0
  -72.9096  -53.0443  -72.4382 C   0  0  0  0  0  0  0  0  0  0  0  0
  -72.2101  -53.8519  -71.5842 N   0  0  0  0  0  0  0  0  0  0  0  0
  -71.1103  -53.1878  -71.0960 C   0  0  0  0  0  0  0  0  0  0  0  0
  -70.1217  -53.6197  -70.2032 C   0  0  0  0  0  0  0  0  0  0  0  0
  -69.1038  -52.7194  -69.8766 C   0  0  0  0  0  0  0  0  0  0  0  0
  -69.0779  -51.4391  -70.4223 C   0  0  0  0  0  0  0  0  0  0  0  0
  -70.0742  -51.0240  -71.3132 C   0  0  0  0  0  0  0  0  0  0  0  0
  -71.1154  -51.9112  -71.6622 C   0  0  0  0  0  0  0  0  0  0  0  0
  -72.4587  -54.7759  -71.3525 H   0  0  0  0  0  0  0  0  0  0  0  0
  -72.8075  -49.5380  -72.5773 O   0  0  0  0  0  0  0  0  0  0  0  0
  -69.9665  -44.9933  -73.9373 C   0  0  0  0  0  0  0  0  0  0  0  0
  -70.7129  -46.1891  -73.5530 N   0  0  0  0  0  0  0  0  0  0  0  0
  -71.5079  -45.9978  -72.3256 C   0  0  0  0  0  0  0  0  0  0  0  0
  -70.4959  -46.1322  -71.1820 C   0  0  0  0  0  0  0  0  0  0  0  0
  -69.3866  -47.0059  -71.7531 C   0  0  0  0  0  0  0  0  0  0  0  0
  -69.8399  -47.3174  -73.1838 C   0  0  0  0  0  0  0  0  0  0  0  0
  -70.6859  -48.6036  -73.2231 C   0  0  0  0  0  0  0  0  0  0  0  0
  -72.1984  -48.3469  -73.1156 C   0  0  0  0  0  0  0  0  0  0  0  0
  -72.5609  -47.1201  -72.2615 C   0  0  0  0  0  0  0  0  0  0  0  0
 14 15  1  0
 15 16  1  0
 16 17  1  0
 17 18  1  0
 19 18  1  0
 19 20  1  0
 20 21  1  0
 21 13  1  0
 13  1  1  0
  1  2  2  0
  1  3  1  0
  3  4  2  0
  4  5  1  0
  5  6  1  0
  6  7  2  0
  7  8  1  0
  8  9  2  0
  9 10  1  0
 10 11  2  0
 21 22  1  0
 19 15  1  0
 11  3  1  0
 22 16  1  0
 11  6  1  0
  5 12  1  0
M  END
> <minimizedAffinity>
-7.21637

> <CNNscore>
0.8851165771

> <CNNaffinity>
7.0723590851

> <CNN_VS>
6.2598624229

> <CNNaffinity_variance>
0.3232555091

$$$$



 22 25  0  0  0  0  0  0  0  0999 V2000
  -68.0875  -45.7674  -68.9851 C   0  0  0  0  0  0  0  0  0  0  0  0
  -68.0170  -46.9803  -68.8281 O   0  0  0  0  0  0  0  0  0  0  0  0
  -67.7587  -44.7991  -67.9436 C   0  0  0  0  0  0  0  0  0  0  0  0
  -68.6665  -44.0779  -67.1837 C   0  0  0  0  0  0  0  0  0  0  0  0
  -67.9730  -43.2779  -66.3178 N   0  0  0  0  0  0  0  0  0  0  0  0
  -66.6206  -43.4547  -66.4871 C   0  0  0  0  0  0  0  0  0  0  0  0
  -65.5445  -42.8511  -65.8247 C   0  0  0  0  0  0  0  0  0  0  0  0
  -64.2537  -43.2257  -66.2077 C   0  0  0  0  0  0  0  0  0  0  0  0
  -64.0499  -44.1666  -67.2131 C   0  0  0  0  0  0  0  0  0  0  0  0
  -65.1370  -44.7601  -67.8646 C   0  0  0  0  0  0  0  0  0  0  0  0
  -66.4528  -44.4019  -67.4995 C   0  0  0  0  0  0  0  0  0  0  0  0
  -68.3834  -42.6638  -65.6669 H   0  0  0  0  0  0  0  0  0  0  0  0
  -68.4855  -45.1639  -70.1451 O   0  0  0  0  0  0  0  0  0  0  0  0
  -72.7971  -47.0901  -73.0217 C   0  0  0  0  0  0  0  0  0  0  0  0
  -71.6464  -46.5744  -72.2838 N   0  0  0  0  0  0  0  0  0  0  0  0
  -71.0742  -45.3587  -72.8921 C   0  0  0  0  0  0  0  0  0  0  0  0
  -70.2284  -45.8711  -74.0632 C   0  0  0  0  0  0  0  0  0  0  0  0
  -69.8476  -47.2920  -73.6678 C   0  0  0  0  0  0  0  0  0  0  0  0
  -70.4969  -47.4964  -72.2945 C   0  0  0  0  0  0  0  0  0  0  0  0
  -69.5385  -47.0718  -71.1663 C   0  0  0  0  0  0  0  0  0  0  0  0
  -69.7322  -45.6153  -70.7121 C   0  0  0  0  0  0  0  0  0  0  0  0
  -70.1895  -44.6699  -71.8360 C   0  0  0  0  0  0  0  0  0  0  0  0
 14 15  1  0
 15 16  1  0
 16 17  1  0
 17 18  1  0
 19 18  1  0
 19 20  1  0
 20 21  1  0
 21 13  1  0
 13  1  1  0
  1  2  2  0
  1  3  1  0
  3  4  2  0
  4  5  1  0
  5  6  1  0
  6  7  2  0
  7  8  1  0
  8  9  2  0
  9 10  1  0
 10 11  2  0
 21 22  1  0
 19 15  1  0
 11  3  1  0
 22 16  1  0
 11  6  1  0
  5 12  1  0
M  END
> <minimizedAffinity>
-8.28432

> <CNNscore>
0.8658626080

> <CNNaffinity>
6.3314547539

> <CNN_VS>
5.4821701050

> <CNNaffinity_variance>
0.2897210419

$$$$



 22 25  0  0  0  0  0  0  0  0999 V2000
  -71.2005  -51.5325  -71.3717 C   0  0  0  0  0  0  0  0  0  0  0  0
  -70.3951  -51.2988  -70.4787 O   0  0  0  0  0  0  0  0  0  0  0  0
  -71.5911  -52.8805  -71.7728 C   0  0  0  0  0  0  0  0  0  0  0  0
  -72.5758  -53.2051  -72.6930 C   0  0  0  0  0  0  0  0  0  0  0  0
  -72.6446  -54.5672  -72.7967 N   0  0  0  0  0  0  0  0  0  0  0  0
  -71.7229  -55.1543  -71.9633 C   0  0  0  0  0  0  0  0  0  0  0  0
  -71.4419  -56.5087  -71.7447 C   0  0  0  0  0  0  0  0  0  0  0  0
  -70.4372  -56.8232  -70.8255 C   0  0  0  0  0  0  0  0  0  0  0  0
  -69.7429  -55.8215  -70.1530 C   0  0  0  0  0  0  0  0  0  0  0  0
  -70.0367  -54.4728  -70.3838 C   0  0  0  0  0  0  0  0  0  0  0  0
  -71.0464  -54.1240  -71.3067 C   0  0  0  0  0  0  0  0  0  0  0  0
  -73.2650  -55.0566  -73.3839 H   0  0  0  0  0  0  0  0  0  0  0  0
  -71.8317  -50.5703  -72.1092 O   0  0  0  0  0  0  0  0  0  0  0  0
  -70.2458  -45.2733  -72.1458 C   0  0  0  0  0  0  0  0  0  0  0  0
  -70.6547  -46.6759  -72.1597 N   0  0  0  0  0  0  0  0  0  0  0  0
  -69.6736  -47.5517  -72.8272 C   0  0  0  0  0  0  0  0  0  0  0  0
  -69.9296  -47.3515  -74.3252 C   0  0  0  0  0  0  0  0  0  0  0  0
  -71.3888  -46.9232  -74.4105 C   0  0  0  0  0  0  0  0  0  0  0  0
  -71.8722  -46.9115  -72.9560 C   0  0  0  0  0  0  0  0  0  0  0  0
  -72.4412  -48.2855  -72.5562 C   0  0  0  0  0  0  0  0  0  0  0  0
  -71.4055  -49.2097  -71.8940 C   0  0  0  0  0  0  0  0  0  0  0  0
  -69.9706  -49.0040  -72.4088 C   0  0  0  0  0  0  0  0  0  0  0  0
 14 15  1  0
 15 16  1  0
 16 17  1  0
 17 18  1  0
 19 18  1  0
 19 20  1  0
 20 21  1  0
 21 13  1  0
 13  1  1  0
  1  2  2  0
  1  3  1  0
  3  4  2  0
  4  5  1  0
  5  6  1  0
  6  7  2  0
  7  8  1  0
  8  9  2  0
  9 10  1  0
 10 11  2  0
 21 22  1  0
 19 15  1  0
 11  3  1  0
 22 16  1  0
 11  6  1  0
  5 12  1  0
M  END
> <minimizedAffinity>
-7.26950

> <CNNscore>
0.8297829032

> <CNNaffinity>
6.7632803917

> <CNN_VS>
5.6120543480

> <CNNaffinity_variance>
0.7179612517

$$$$



 22 25  0  0  0  0  0  0  0  0999 V2000
  -73.4248  -49.8638  -75.6002 C   0  0  0  0  0  0  0  0  0  0  0  0
  -73.2100  -50.9672  -75.1135 O   0  0  0  0  0  0  0  0  0  0  0  0
  -73.6358  -49.6390  -77.0268 C   0  0  0  0  0  0  0  0  0  0  0  0
  -74.1429  -48.4857  -77.6051 C   0  0  0  0  0  0  0  0  0  0  0  0
  -74.1893  -48.6609  -78.9608 N   0  0  0  0  0  0  0  0  0  0  0  0
  -73.7211  -49.9091  -79.2949 C   0  0  0  0  0  0  0  0  0  0  0  0
  -73.5876  -50.5134  -80.5511 C   0  0  0  0  0  0  0  0  0  0  0  0
  -73.0751  -51.8128  -80.5953 C   0  0  0  0  0  0  0  0  0  0  0  0
  -72.7115  -52.4792  -79.4285 C   0  0  0  0  0  0  0  0  0  0  0  0
  -72.8516  -51.8601  -78.1812 C   0  0  0  0  0  0  0  0  0  0  0  0
  -73.3663  -50.5478  -78.1047 C   0  0  0  0  0  0  0  0  0  0  0  0
  -74.5116  -47.9895  -79.6047 H   0  0  0  0  0  0  0  0  0  0  0  0
  -73.4897  -48.7045  -74.8790 O   0  0  0  0  0  0  0  0  0  0  0  0
  -69.4837  -47.0355  -71.4524 C   0  0  0  0  0  0  0  0  0  0  0  0
  -70.5354  -47.4579  -72.3744 N   0  0  0  0  0  0  0  0  0  0  0  0
  -70.1348  -47.3470  -73.7895 C   0  0  0  0  0  0  0  0  0  0  0  0
  -70.2925  -45.8592  -74.1228 C   0  0  0  0  0  0  0  0  0  0  0  0
  -71.3478  -45.3576  -73.1457 C   0  0  0  0  0  0  0  0  0  0  0  0
  -71.7273  -46.5929  -72.3214 C   0  0  0  0  0  0  0  0  0  0  0  0
  -72.8941  -47.3533  -72.9786 C   0  0  0  0  0  0  0  0  0  0  0  0
  -72.4390  -48.4843  -73.9161 C   0  0  0  0  0  0  0  0  0  0  0  0
  -71.1040  -48.2029  -74.6264 C   0  0  0  0  0  0  0  0  0  0  0  0
 14 15  1  0
 15 16  1  0
 16 17  1  0
 17 18  1  0
 19 18  1  0
 19 20  1  0
 20 21  1  0
 21 13  1  0
 13  1  1  0
  1  2  2  0
  1  3  1  0
  3  4  2  0
  4  5  1  0
  5  6  1  0
  6  7  2  0
  7  8  1  0
  8  9  2  0
  9 10  1  0
 10 11  2  0
 21 22  1  0
 19 15  1  0
 11  3  1  0
 22 16  1  0
 11  6  1  0
  5 12  1  0
M  END
> <minimizedAffinity>
-7.39898

> <CNNscore>
0.7865661383

> <CNNaffinity>
6.5875897408

> <CNN_VS>
5.1815748215

> <CNNaffinity_variance>
0.1778219789

$$$$



 22 25  0  0  0  0  0  0  0  0999 V2000
  -72.3308  -48.9365  -75.1309 C   0  0  0  0  0  0  0  0  0  0  0  0
  -71.5458  -48.1034  -75.5673 O   0  0  0  0  0  0  0  0  0  0  0  0
  -73.4997  -49.4067  -75.8678 C   0  0  0  0  0  0  0  0  0  0  0  0
  -73.5234  -50.4484  -76.7821 C   0  0  0  0  0  0  0  0  0  0  0  0
  -74.7989  -50.5837  -77.2571 N   0  0  0  0  0  0  0  0  0  0  0  0
  -75.6241  -49.6518  -76.6745 C   0  0  0  0  0  0  0  0  0  0  0  0
  -76.9936  -49.4233  -76.8576 C   0  0  0  0  0  0  0  0  0  0  0  0
  -77.5835  -48.3912  -76.1228 C   0  0  0  0  0  0  0  0  0  0  0  0
  -76.8319  -47.6198  -75.2410 C   0  0  0  0  0  0  0  0  0  0  0  0
  -75.4641  -47.8620  -75.0702 C   0  0  0  0  0  0  0  0  0  0  0  0
  -74.8401  -48.8978  -75.7986 C   0  0  0  0  0  0  0  0  0  0  0  0
  -75.0847  -51.2523  -77.9207 H   0  0  0  0  0  0  0  0  0  0  0  0
  -72.2208  -49.5281  -73.9037 O   0  0  0  0  0  0  0  0  0  0  0  0
  -69.9717  -45.8301  -70.4625 C   0  0  0  0  0  0  0  0  0  0  0  0
  -70.5542  -46.7956  -71.3916 N   0  0  0  0  0  0  0  0  0  0  0  0
  -69.6362  -47.1626  -72.4860 C   0  0  0  0  0  0  0  0  0  0  0  0
  -69.7252  -45.9956  -73.4760 C   0  0  0  0  0  0  0  0  0  0  0  0
  -71.1033  -45.3931  -73.2350 C   0  0  0  0  0  0  0  0  0  0  0  0
  -71.7132  -46.2585  -72.1266 C   0  0  0  0  0  0  0  0  0  0  0  0
  -72.4882  -47.4479  -72.7234 C   0  0  0  0  0  0  0  0  0  0  0  0
  -71.6452  -48.7278  -72.8512 C   0  0  0  0  0  0  0  0  0  0  0  0
  -70.1545  -48.4649  -73.1247 C   0  0  0  0  0  0  0  0  0  0  0  0
 14 15  1  0
 15 16  1  0
 16 17  1  0
 17 18  1  0
 19 18  1  0
 19 20  1  0
 20 21  1  0
 21 13  1  0
 13  1  1  0
  1  2  2  0
  1  3  1  0
  3  4  2  0
  4  5  1  0
  5  6  1  0
  6  7  2  0
  7  8  1  0
  8  9  2  0
  9 10  1  0
 10 11  2  0
 21 22  1  0
 19 15  1  0
 11  3  1  0
 22 16  1  0
 11  6  1  0
  5 12  1  0
M  END
> <minimizedAffinity>
-7.61250

> <CNNscore>
0.7468526959

> <CNNaffinity>
6.7798309326

> <CNN_VS>
5.0635352135

> <CNNaffinity_variance>
0.0655656755

$$$$



 22 25  0  0  0  0  0  0  0  0999 V2000
  -72.0148  -51.7542  -72.0088 C   0  0  0  0  0  0  0  0  0  0  0  0
  -72.6039  -52.1120  -73.0215 O   0  0  0  0  0  0  0  0  0  0  0  0
  -71.1817  -52.6425  -71.2042 C   0  0  0  0  0  0  0  0  0  0  0  0
  -70.3149  -52.2556  -70.1939 C   0  0  0  0  0  0  0  0  0  0  0  0
  -69.7167  -53.3731  -69.6800 N   0  0  0  0  0  0  0  0  0  0  0  0
  -70.1706  -54.4962  -70.3292 C   0  0  0  0  0  0  0  0  0  0  0  0
  -69.8373  -55.8427  -70.1372 C   0  0  0  0  0  0  0  0  0  0  0  0
  -70.4626  -56.7891  -70.9537 C   0  0  0  0  0  0  0  0  0  0  0  0
  -71.3839  -56.4018  -71.9227 C   0  0  0  0  0  0  0  0  0  0  0  0
  -71.7053  -55.0514  -72.1009 C   0  0  0  0  0  0  0  0  0  0  0  0
  -71.0901  -54.0723  -71.2911 C   0  0  0  0  0  0  0  0  0  0  0  0
  -69.0561  -53.3730  -68.9501 H   0  0  0  0  0  0  0  0  0  0  0  0
  -72.0629  -50.4873  -71.4980 O   0  0  0  0  0  0  0  0  0  0  0  0
  -70.2349  -46.0287  -74.2099 C   0  0  0  0  0  0  0  0  0  0  0  0
  -70.7195  -47.1927  -73.4718 N   0  0  0  0  0  0  0  0  0  0  0  0
  -71.7389  -46.8475  -72.4634 C   0  0  0  0  0  0  0  0  0  0  0  0
  -70.9407  -46.2942  -71.2773 C   0  0  0  0  0  0  0  0  0  0  0  0
  -69.5684  -46.9430  -71.4032 C   0  0  0  0  0  0  0  0  0  0  0  0
  -69.6740  -47.8281  -72.6502 C   0  0  0  0  0  0  0  0  0  0  0  0
  -70.1572  -49.2425  -72.2793 C   0  0  0  0  0  0  0  0  0  0  0  0
  -71.6812  -49.4185  -72.3876 C   0  0  0  0  0  0  0  0  0  0  0  0
  -72.4779  -48.1410  -72.0722 C   0  0  0  0  0  0  0  0  0  0  0  0
 14 15  1  0
 15 16  1  0
 16 17  1  0
 17 18  1  0
 19 18  1  0
 19 20  1  0
 20 21  1  0
 21 13  1  0
 13  1  1  0
  1  2  2  0
  1  3  1  0
  3  4  2  0
  4  5  1  0
  5  6  1  0
  6  7  2  0
  7  8  1  0
  8  9  2  0
  9 10  1  0
 10 11  2  0
 21 22  1  0
 19 15  1  0
 11  3  1  0
 22 16  1  0
 11  6  1  0
  5 12  1  0
M  END
> <minimizedAffinity>
-7.87100

> <CNNscore>
0.7361699939

> <CNNaffinity>
6.4982266426

> <CNN_VS>
4.7837996483

> <CNNaffinity_variance>
0.1863325685

$$$$



 22 25  0  0  0  0  0  0  0  0999 V2000
  -71.8251  -52.1134  -71.4536 C   0  0  0  0  0  0  0  0  0  0  0  0
  -72.8828  -51.7022  -70.9923 O   0  0  0  0  0  0  0  0  0  0  0  0
  -71.4543  -53.5247  -71.4867 C   0  0  0  0  0  0  0  0  0  0  0  0
  -70.2855  -54.0735  -70.9824 C   0  0  0  0  0  0  0  0  0  0  0  0
  -70.3059  -55.4232  -71.2036 N   0  0  0  0  0  0  0  0  0  0  0  0
  -71.4674  -55.7821  -71.8446 C   0  0  0  0  0  0  0  0  0  0  0  0
  -71.9108  -57.0424  -72.2642 C   0  0  0  0  0  0  0  0  0  0  0  0
  -73.1524  -57.1147  -72.9017 C   0  0  0  0  0  0  0  0  0  0  0  0
  -73.9180  -55.9710  -73.1101 C   0  0  0  0  0  0  0  0  0  0  0  0
  -73.4594  -54.7192  -72.6841 C   0  0  0  0  0  0  0  0  0  0  0  0
  -72.2091  -54.6146  -72.0371 C   0  0  0  0  0  0  0  0  0  0  0  0
  -69.5914  -56.0476  -70.9413 H   0  0  0  0  0  0  0  0  0  0  0  0
  -70.8564  -51.3116  -71.9895 O   0  0  0  0  0  0  0  0  0  0  0  0
  -71.6075  -45.8834  -72.7275 C   0  0  0  0  0  0  0  0  0  0  0  0
  -71.3915  -47.3176  -72.5514 N   0  0  0  0  0  0  0  0  0  0  0  0
  -69.9826  -47.7116  -72.7387 C   0  0  0  0  0  0  0  0  0  0  0  0
  -69.7915  -47.7612  -74.2588 C   0  0  0  0  0  0  0  0  0  0  0  0
  -71.1841  -48.0367  -74.8111 C   0  0  0  0  0  0  0  0  0  0  0  0
  -72.0786  -48.1313  -73.5700 C   0  0  0  0  0  0  0  0  0  0  0  0
  -72.1464  -49.5801  -73.0522 C   0  0  0  0  0  0  0  0  0  0  0  0
  -71.1068  -49.8918  -71.9626 C   0  0  0  0  0  0  0  0  0  0  0  0
  -69.7925  -49.1073  -72.1157 C   0  0  0  0  0  0  0  0  0  0  0  0
 14 15  1  0
 15 16  1  0
 16 17  1  0
 17 18  1  0
 19 18  1  0
 19 20  1  0
 20 21  1  0
 21 13  1  0
 13  1  1  0
  1  2  2  0
  1  3  1  0
  3  4  2  0
  4  5  1  0
  5  6  1  0
  6  7  2  0
  7  8  1  0
  8  9  2  0
  9 10  1  0
 10 11  2  0
 21 22  1  0
 19 15  1  0
 11  3  1  0
 22 16  1  0
 11  6  1  0
  5 12  1  0
M  END
> <minimizedAffinity>
-7.60148

> <CNNscore>
0.7107556462

> <CNNaffinity>
6.3358459473

> <CNN_VS>
4.5032382011

> <CNNaffinity_variance>
0.1742801815

$$$$



 22 25  0  0  0  0  0  0  0  0999 V2000
  -72.9460  -52.7460  -73.9130 C   0  0  0  0  0  0  0  0  0  0  0  0
  -73.0012  -52.6140  -75.1296 O   0  0  0  0  0  0  0  0  0  0  0  0
  -72.9662  -54.0415  -73.2408 C   0  0  0  0  0  0  0  0  0  0  0  0
  -72.0618  -54.4797  -72.2859 C   0  0  0  0  0  0  0  0  0  0  0  0
  -72.4149  -55.7426  -71.8970 N   0  0  0  0  0  0  0  0  0  0  0  0
  -73.5382  -56.1518  -72.5750 C   0  0  0  0  0  0  0  0  0  0  0  0
  -74.2459  -57.3578  -72.4982 C   0  0  0  0  0  0  0  0  0  0  0  0
  -75.3692  -57.5047  -73.3165 C   0  0  0  0  0  0  0  0  0  0  0  0
  -75.7668  -56.4849  -74.1765 C   0  0  0  0  0  0  0  0  0  0  0  0
  -75.0478  -55.2859  -74.2405 C   0  0  0  0  0  0  0  0  0  0  0  0
  -73.9087  -55.1082  -73.4258 C   0  0  0  0  0  0  0  0  0  0  0  0
  -71.9337  -56.2810  -71.2279 H   0  0  0  0  0  0  0  0  0  0  0  0
  -72.8642  -51.7064  -73.0294 O   0  0  0  0  0  0  0  0  0  0  0  0
  -70.2404  -46.9358  -73.9951 C   0  0  0  0  0  0  0  0  0  0  0  0
  -70.9548  -48.1831  -73.7333 N   0  0  0  0  0  0  0  0  0  0  0  0
  -72.3753  -48.1224  -74.1255 C   0  0  0  0  0  0  0  0  0  0  0  0
  -73.0620  -47.3649  -72.9834 C   0  0  0  0  0  0  0  0  0  0  0  0
  -72.1757  -47.6156  -71.7702 C   0  0  0  0  0  0  0  0  0  0  0  0
  -71.0435  -48.5040  -72.2977 C   0  0  0  0  0  0  0  0  0  0  0  0
  -71.4095  -49.9941  -72.1671 C   0  0  0  0  0  0  0  0  0  0  0  0
  -72.0593  -50.5797  -73.4321 C   0  0  0  0  0  0  0  0  0  0  0  0
  -72.9038  -49.5659  -74.2226 C   0  0  0  0  0  0  0  0  0  0  0  0
 14 15  1  0
 15 16  1  0
 16 17  1  0
 17 18  1  0
 19 18  1  0
 19 20  1  0
 20 21  1  0
 21 13  1  0
 13  1  1  0
  1  2  2  0
  1  3  1  0
  3  4  2  0
  4  5  1  0
  5  6  1  0
  6  7  2  0
  7  8  1  0
  8  9  2  0
  9 10  1  0
 10 11  2  0
 21 22  1  0
 19 15  1  0
 11  3  1  0
 22 16  1  0
 11  6  1  0
  5 12  1  0
M  END
> <minimizedAffinity>
-7.62023

> <CNNscore>
0.6776422858

> <CNNaffinity>
6.1929450035

> <CNN_VS>
4.1966013908

> <CNNaffinity_variance>
0.2049769014

$$$$
