


 12 12  0  0  0  0  0  0  0  0999 V2000
    4.0048   13.4081   42.3258 C   0  0  0  0  0  0  0  0  0  0  0  0
    3.9461   13.5279   43.8209 C   0  0  0  0  0  0  0  0  0  0  0  0
    3.5034   14.7177   44.2967 N   0  0  0  0  0  0  0  0  0  0  0  0
    3.4227   14.8565   45.6213 C   0  0  0  0  0  0  0  0  0  0  0  0
    2.9841   16.0663   46.1108 N   0  0  0  0  0  0  0  0  0  0  0  0
    3.7787   13.9235   46.5061 N   0  0  0  0  0  0  0  0  0  0  0  0
    4.2198   12.7380   46.0179 C   0  0  0  0  0  0  0  0  0  0  0  0
    4.5930   11.7107   47.0469 C   0  0  0  0  0  0  0  0  0  0  0  0
    4.3216   12.4866   44.6574 C   0  0  0  0  0  0  0  0  0  0  0  0
    4.8848   10.9774   44.0446 Cl  0  0  0  0  0  0  0  0  0  0  0  0
    2.7126   16.7797   45.4890 H   0  0  0  0  0  0  0  0  0  0  0  0
    2.9419   16.2180   47.0826 H   0  0  0  0  0  0  0  0  0  0  0  0
  1  2  1  0
  2  3  2  0
  3  4  1  0
  4  5  1  0
  4  6  2  0
  6  7  1  0
  7  8  1  0
  7  9  2  0
  9 10  1  0
  9  2  1  0
  5 11  1  0
  5 12  1  0
M  END
> <minimizedAffinity>
-5.64228

> <CNNscore>
0.9297390580

> <CNNaffinity>
4.6739296913

> <CNN_VS>
4.3455348015

> <CNNaffinity_variance>
0.5446280241

$$$$



 12 12  0  0  0  0  0  0  0  0999 V2000
    3.2088   14.7189   45.3873 C   0  0  0  0  0  0  0  0  0  0  0  0
    3.6983   13.8364   44.2762 C   0  0  0  0  0  0  0  0  0  0  0  0
    3.4726   14.2950   43.0205 N   0  0  0  0  0  0  0  0  0  0  0  0
    3.9076   13.5449   42.0065 C   0  0  0  0  0  0  0  0  0  0  0  0
    3.6718   14.0001   40.7286 N   0  0  0  0  0  0  0  0  0  0  0  0
    4.5145   12.3642   42.1404 N   0  0  0  0  0  0  0  0  0  0  0  0
    4.7344   11.9164   43.4011 C   0  0  0  0  0  0  0  0  0  0  0  0
    5.4353   10.5931   43.5068 C   0  0  0  0  0  0  0  0  0  0  0  0
    4.3390   12.6307   44.5227 C   0  0  0  0  0  0  0  0  0  0  0  0
    4.6208   12.0538   46.1222 Cl  0  0  0  0  0  0  0  0  0  0  0  0
    3.2262   14.8669   40.5892 H   0  0  0  0  0  0  0  0  0  0  0  0
    3.9488   13.4589   39.9543 H   0  0  0  0  0  0  0  0  0  0  0  0
  1  2  1  0
  2  3  2  0
  3  4  1  0
  4  5  1  0
  4  6  2  0
  6  7  1  0
  7  8  1  0
  7  9  2  0
  9 10  1  0
  9  2  1  0
  5 11  1  0
  5 12  1  0
M  END
> <minimizedAffinity>
-5.14966

> <CNNscore>
0.9237756729

> <CNNaffinity>
4.5419964790

> <CNN_VS>
4.1957859993

> <CNNaffinity_variance>
0.2300442606

$$$$



 12 12  0  0  0  0  0  0  0  0999 V2000
    4.5332   11.7123   47.0254 C   0  0  0  0  0  0  0  0  0  0  0  0
    4.1798   12.7509   46.0009 C   0  0  0  0  0  0  0  0  0  0  0  0
    3.7390   13.9344   46.4939 N   0  0  0  0  0  0  0  0  0  0  0  0
    3.4297   14.8882   45.6136 C   0  0  0  0  0  0  0  0  0  0  0  0
    2.9713   16.0887   46.1079 N   0  0  0  0  0  0  0  0  0  0  0  0
    3.4899   14.7473   44.2882 N   0  0  0  0  0  0  0  0  0  0  0  0
    3.9321   13.5591   43.8075 C   0  0  0  0  0  0  0  0  0  0  0  0
    4.0010   13.4492   42.3120 C   0  0  0  0  0  0  0  0  0  0  0  0
    4.2975   12.5109   44.6395 C   0  0  0  0  0  0  0  0  0  0  0  0
    4.8572   11.0029   44.0206 Cl  0  0  0  0  0  0  0  0  0  0  0  0
    2.9125   16.2305   47.0803 H   0  0  0  0  0  0  0  0  0  0  0  0
    2.7022   16.8054   45.4888 H   0  0  0  0  0  0  0  0  0  0  0  0
  1  2  1  0
  2  3  2  0
  3  4  1  0
  4  5  1  0
  4  6  2  0
  6  7  1  0
  7  8  1  0
  7  9  2  0
  9 10  1  0
  9  2  1  0
  5 11  1  0
  5 12  1  0
M  END
> <minimizedAffinity>
-5.63156

> <CNNscore>
0.9213866591

> <CNNaffinity>
4.6401686668

> <CNN_VS>
4.2753896713

> <CNNaffinity_variance>
0.5639369488

$$$$



 12 12  0  0  0  0  0  0  0  0999 V2000
    5.5310   10.5699   43.9319 C   0  0  0  0  0  0  0  0  0  0  0  0
    4.8085   11.8663   43.7074 C   0  0  0  0  0  0  0  0  0  0  0  0
    4.6235   12.2176   42.4111 N   0  0  0  0  0  0  0  0  0  0  0  0
    3.9711   13.3566   42.1716 C   0  0  0  0  0  0  0  0  0  0  0  0
    3.7897   13.7241   40.8571 N   0  0  0  0  0  0  0  0  0  0  0  0
    3.5215   14.1872   43.1139 N   0  0  0  0  0  0  0  0  0  0  0  0
    3.7127   13.8250   44.4064 C   0  0  0  0  0  0  0  0  0  0  0  0
    3.1762   14.7788   45.4339 C   0  0  0  0  0  0  0  0  0  0  0  0
    4.3613   12.6510   44.7607 C   0  0  0  0  0  0  0  0  0  0  0  0
    4.6017   12.1982   46.4061 Cl  0  0  0  0  0  0  0  0  0  0  0  0
    4.1079   13.1372   40.1335 H   0  0  0  0  0  0  0  0  0  0  0  0
    3.3417   14.5737   40.6409 H   0  0  0  0  0  0  0  0  0  0  0  0
  1  2  1  0
  2  3  2  0
  3  4  1  0
  4  5  1  0
  4  6  2  0
  6  7  1  0
  7  8  1  0
  7  9  2  0
  9 10  1  0
  9  2  1  0
  5 11  1  0
  5 12  1  0
M  END
> <minimizedAffinity>
-5.13386

> <CNNscore>
0.9141002893

> <CNNaffinity>
4.6215825081

> <CNN_VS>
4.2245898247

> <CNNaffinity_variance>
0.1435517520

$$$$



 12 12  0  0  0  0  0  0  0  0999 V2000
    4.6753   12.0058   47.0833 C   0  0  0  0  0  0  0  0  0  0  0  0
    4.8394   11.9462   45.5925 C   0  0  0  0  0  0  0  0  0  0  0  0
    4.1494   12.8774   44.8890 N   0  0  0  0  0  0  0  0  0  0  0  0
    4.2825   12.8658   43.5615 C   0  0  0  0  0  0  0  0  0  0  0  0
    3.5757   13.8022   42.8408 N   0  0  0  0  0  0  0  0  0  0  0  0
    5.0156   11.9842   42.8791 N   0  0  0  0  0  0  0  0  0  0  0  0
    5.7009   11.0580   43.5938 C   0  0  0  0  0  0  0  0  0  0  0  0
    6.5264   10.0972   42.7884 C   0  0  0  0  0  0  0  0  0  0  0  0
    5.6454   10.9982   44.9787 C   0  0  0  0  0  0  0  0  0  0  0  0
    6.5183    9.8168   45.8800 Cl  0  0  0  0  0  0  0  0  0  0  0  0
    3.0233   14.4693   43.3089 H   0  0  0  0  0  0  0  0  0  0  0  0
    3.6226   13.8046   41.8575 H   0  0  0  0  0  0  0  0  0  0  0  0
  1  2  1  0
  2  3  2  0
  3  4  1  0
  4  5  1  0
  4  6  2  0
  6  7  1  0
  7  8  1  0
  7  9  2  0
  9 10  1  0
  9  2  1  0
  5 11  1  0
  5 12  1  0
M  END
> <minimizedAffinity>
-4.25131

> <CNNscore>
0.6249548793

> <CNNaffinity>
4.4790859222

> <CNN_VS>
2.7992265224

> <CNNaffinity_variance>
0.0932250991

$$$$



 12 12  0  0  0  0  0  0  0  0999 V2000
    7.4265   25.0914   40.4512 C   0  0  0  0  0  0  0  0  0  0  0  0
    6.3601   24.7070   41.4352 C   0  0  0  0  0  0  0  0  0  0  0  0
    5.1984   25.3995   41.3410 N   0  0  0  0  0  0  0  0  0  0  0  0
    4.2208   25.0752   42.1892 C   0  0  0  0  0  0  0  0  0  0  0  0
    3.0423   25.7824   42.1056 N   0  0  0  0  0  0  0  0  0  0  0  0
    4.3185   24.1461   43.1417 N   0  0  0  0  0  0  0  0  0  0  0  0
    5.4852   23.4605   43.2259 C   0  0  0  0  0  0  0  0  0  0  0  0
    5.5464   22.4128   44.2992 C   0  0  0  0  0  0  0  0  0  0  0  0
    6.5550   23.7079   42.3780 C   0  0  0  0  0  0  0  0  0  0  0  0
    8.0355   22.8331   42.4922 Cl  0  0  0  0  0  0  0  0  0  0  0  0
    2.9325   26.4761   41.4158 H   0  0  0  0  0  0  0  0  0  0  0  0
    2.3096   25.5942   42.7356 H   0  0  0  0  0  0  0  0  0  0  0  0
  1  2  1  0
  2  3  2  0
  3  4  1  0
  4  5  1  0
  4  6  2  0
  6  7  1  0
  7  8  1  0
  7  9  2  0
  9 10  1  0
  9  2  1  0
  5 11  1  0
  5 12  1  0
M  END
> <minimizedAffinity>
-4.66909

> <CNNscore>
0.6152693629

> <CNNaffinity>
3.4246776104

> <CNN_VS>
2.1070992947

> <CNNaffinity_variance>
0.7807356715

$$$$



 12 12  0  0  0  0  0  0  0  0999 V2000
    2.8667   14.5186   45.1575 C   0  0  0  0  0  0  0  0  0  0  0  0
    3.7894   13.3759   45.4672 C   0  0  0  0  0  0  0  0  0  0  0  0
    3.9439   13.0871   46.7828 N   0  0  0  0  0  0  0  0  0  0  0  0
    4.7447   12.0671   47.0967 C   0  0  0  0  0  0  0  0  0  0  0  0
    4.9141   11.7759   48.4317 N   0  0  0  0  0  0  0  0  0  0  0  0
    5.4282   11.3379   46.2128 N   0  0  0  0  0  0  0  0  0  0  0  0
    5.2654   11.6364   44.9003 C   0  0  0  0  0  0  0  0  0  0  0  0
    6.0384   10.7807   43.9393 C   0  0  0  0  0  0  0  0  0  0  0  0
    4.4399   12.6647   44.4692 C   0  0  0  0  0  0  0  0  0  0  0  0
    4.2394   13.0390   42.7989 Cl  0  0  0  0  0  0  0  0  0  0  0  0
    4.4268   12.2921   49.1138 H   0  0  0  0  0  0  0  0  0  0  0  0
    5.5225   11.0514   48.7041 H   0  0  0  0  0  0  0  0  0  0  0  0
  1  2  1  0
  2  3  2  0
  3  4  1  0
  4  5  1  0
  4  6  2  0
  6  7  1  0
  7  8  1  0
  7  9  2  0
  9 10  1  0
  9  2  1  0
  5 11  1  0
  5 12  1  0
M  END
> <minimizedAffinity>
-5.69198

> <CNNscore>
0.6126932502

> <CNNaffinity>
4.2995076180

> <CNN_VS>
2.6342792511

> <CNNaffinity_variance>
0.5643759370

$$$$



 12 12  0  0  0  0  0  0  0  0999 V2000
    6.4577   11.1801   43.9421 C   0  0  0  0  0  0  0  0  0  0  0  0
    5.5227   11.8896   44.8778 C   0  0  0  0  0  0  0  0  0  0  0  0
    5.6015   11.5175   46.1791 N   0  0  0  0  0  0  0  0  0  0  0  0
    4.7963   12.1374   47.0438 C   0  0  0  0  0  0  0  0  0  0  0  0
    4.8641   11.7563   48.3652 N   0  0  0  0  0  0  0  0  0  0  0  0
    3.8989   13.0678   46.7136 N   0  0  0  0  0  0  0  0  0  0  0  0
    3.8295   13.4312   45.4092 C   0  0  0  0  0  0  0  0  0  0  0  0
    2.8195   14.4930   45.0840 C   0  0  0  0  0  0  0  0  0  0  0  0
    4.6369   12.8616   44.4354 C   0  0  0  0  0  0  0  0  0  0  0  0
    4.5418   13.3279   42.7790 Cl  0  0  0  0  0  0  0  0  0  0  0  0
    5.5136   11.0724   48.6475 H   0  0  0  0  0  0  0  0  0  0  0  0
    4.2630   12.1675   49.0276 H   0  0  0  0  0  0  0  0  0  0  0  0
  1  2  1  0
  2  3  2  0
  3  4  1  0
  4  5  1  0
  4  6  2  0
  6  7  1  0
  7  8  1  0
  7  9  2  0
  9 10  1  0
  9  2  1  0
  5 11  1  0
  5 12  1  0
M  END
> <minimizedAffinity>
-5.66936

> <CNNscore>
0.5954491496

> <CNNaffinity>
4.4314231873

> <CNN_VS>
2.6386871338

> <CNNaffinity_variance>
0.4104197025

$$$$



 12 12  0  0  0  0  0  0  0  0999 V2000
    4.0642   13.1991   43.1642 C   0  0  0  0  0  0  0  0  0  0  0  0
    4.6437   12.3938   44.2906 C   0  0  0  0  0  0  0  0  0  0  0  0
    4.1610   12.6799   45.5247 N   0  0  0  0  0  0  0  0  0  0  0  0
    4.6412   11.9735   46.5498 C   0  0  0  0  0  0  0  0  0  0  0  0
    4.1627   12.2669   47.8071 N   0  0  0  0  0  0  0  0  0  0  0  0
    5.5840   11.0347   46.4502 N   0  0  0  0  0  0  0  0  0  0  0  0
    6.0588   10.7577   45.2108 C   0  0  0  0  0  0  0  0  0  0  0  0
    7.1049    9.6834   45.1415 C   0  0  0  0  0  0  0  0  0  0  0  0
    5.6104   11.4215   44.0781 C   0  0  0  0  0  0  0  0  0  0  0  0
    6.2201   11.0647   42.5060 Cl  0  0  0  0  0  0  0  0  0  0  0  0
    3.4668   12.9539   47.9210 H   0  0  0  0  0  0  0  0  0  0  0  0
    4.5166   11.7897   48.5921 H   0  0  0  0  0  0  0  0  0  0  0  0
  1  2  1  0
  2  3  2  0
  3  4  1  0
  4  5  1  0
  4  6  2  0
  6  7  1  0
  7  8  1  0
  7  9  2  0
  9 10  1  0
  9  2  1  0
  5 11  1  0
  5 12  1  0
M  END
> <minimizedAffinity>
-5.08002

> <CNNscore>
0.5255993605

> <CNNaffinity>
4.5011239052

> <CNN_VS>
2.3657877445

> <CNNaffinity_variance>
0.2873639762

$$$$
