


 31 33  0  0  0  0  0  0  0  0999 V2000
    3.7695   31.8261    7.8506 C   0  0  0  0  0  0  0  0  0  0  0  0
    3.6150   31.7762    9.1807 N   0  0  0  0  0  0  0  0  0  0  0  0
    4.1916   30.7516    9.8288 C   0  0  0  0  0  0  0  0  0  0  0  0
    4.9093   29.7695    9.1985 C   0  0  0  0  0  0  0  0  0  0  0  0
    5.0208   29.8909    7.8300 C   0  0  0  0  0  0  0  0  0  0  0  0
    4.4526   30.9036    7.1551 N   0  0  0  0  0  0  0  0  0  0  0  0
    3.2251   32.8487    7.0790 N   0  0  0  0  0  0  0  0  0  0  0  0
    3.0182   33.6554    7.6042 H   0  0  0  0  0  0  0  0  0  0  0  0
    2.1660   33.3667    3.0170 C   0  0  0  0  0  0  0  0  0  0  0  0
    1.3909   33.9124    4.0422 C   0  0  0  0  0  0  0  0  0  0  0  0
    1.7620   33.7235    5.3786 C   0  0  0  0  0  0  0  0  0  0  0  0
    2.9065   32.9860    5.7253 C   0  0  0  0  0  0  0  0  0  0  0  0
    3.6735   32.4529    4.6840 C   0  0  0  0  0  0  0  0  0  0  0  0
    3.3108   32.6359    3.3423 C   0  0  0  0  0  0  0  0  0  0  0  0
    2.3149   33.1799    0.6219 O   0  0  0  0  0  0  0  0  0  0  0  0
    1.7408   33.5887    1.6145 C   0  0  0  0  0  0  0  0  0  0  0  0
    0.6126   34.3144    1.5176 O   0  0  0  0  0  0  0  0  0  0  0  0
    0.1845   34.6205    2.2928 H   0  0  0  0  0  0  0  0  0  0  0  0
    5.7366   28.9225    7.0906 N   0  0  0  0  0  0  0  0  0  0  0  0
    5.2882   28.0671    6.8995 H   0  0  0  0  0  0  0  0  0  0  0  0
    7.0614   29.1003    6.6039 C   0  0  0  0  0  0  0  0  0  0  0  0
    8.1346   28.7730    7.4487 C   0  0  0  0  0  0  0  0  0  0  0  0
    9.4581   28.8928    7.0142 C   0  0  0  0  0  0  0  0  0  0  0  0
    9.7325   29.3220    5.7184 C   0  0  0  0  0  0  0  0  0  0  0  0
    8.6842   29.6062    4.8472 C   0  0  0  0  0  0  0  0  0  0  0  0
    7.3607   29.4593    5.2760 C   0  0  0  0  0  0  0  0  0  0  0  0
    6.3581   29.7311    4.3837 O   0  0  0  0  0  0  0  0  0  0  0  0
    5.9318   28.5400    3.7284 C   0  0  0  0  0  0  0  0  0  0  0  0
    6.5852   27.4711    4.2433 F   0  0  0  0  0  0  0  0  0  0  0  0
    4.6028   28.3267    3.8302 F   0  0  0  0  0  0  0  0  0  0  0  0
    6.2529   28.6209    2.4172 F   0  0  0  0  0  0  0  0  0  0  0  0
 15 16  2  0
 16 17  1  0
 16  9  1  0
  9 10  2  0
 10 11  1  0
 11 12  2  0
 12  7  1  0
  7  1  1  0
  1  2  2  0
  2  3  1  0
  3  4  2  0
  4  5  1  0
  5 19  1  0
 19 21  1  0
 21 22  2  0
 22 23  1  0
 23 24  2  0
 24 25  1  0
 25 26  2  0
 26 27  1  0
 27 28  1  0
 28 29  1  0
 28 30  1  0
 28 31  1  0
  5  6  2  0
 12 13  1  0
 13 14  2  0
 14  9  1  0
  6  1  1  0
 26 21  1  0
 17 18  1  0
  7  8  1  0
 19 20  1  0
M  END
> <minimizedAffinity>
-9.62665

> <CNNscore>
0.9913170338

> <CNNaffinity>
7.5948562622

> <CNN_VS>
7.5289101601

> <CNNaffinity_variance>
0.0110513391

$$$$



 31 33  0  0  0  0  0  0  0  0999 V2000
    3.9766   31.5603    7.8789 C   0  0  0  0  0  0  0  0  0  0  0  0
    3.8436   31.4276    9.2056 N   0  0  0  0  0  0  0  0  0  0  0  0
    4.4428   30.3734    9.7816 C   0  0  0  0  0  0  0  0  0  0  0  0
    5.1627   29.4410    9.0820 C   0  0  0  0  0  0  0  0  0  0  0  0
    5.2514   29.6467    7.7220 C   0  0  0  0  0  0  0  0  0  0  0  0
    4.6602   30.6908    7.1185 N   0  0  0  0  0  0  0  0  0  0  0  0
    3.4075   32.6205    7.1792 N   0  0  0  0  0  0  0  0  0  0  0  0
    3.2716   33.4189    7.7389 H   0  0  0  0  0  0  0  0  0  0  0  0
    2.0430   33.2811    3.2306 C   0  0  0  0  0  0  0  0  0  0  0  0
    1.3657   33.8144    4.3291 C   0  0  0  0  0  0  0  0  0  0  0  0
    1.8367   33.5780    5.6258 C   0  0  0  0  0  0  0  0  0  0  0  0
    2.9862   32.8045    5.8596 C   0  0  0  0  0  0  0  0  0  0  0  0
    3.6544   32.2845    4.7461 C   0  0  0  0  0  0  0  0  0  0  0  0
    3.1911   32.5149    3.4431 C   0  0  0  0  0  0  0  0  0  0  0  0
    0.6533   34.3685    1.5936 O   0  0  0  0  0  0  0  0  0  0  0  0
    1.5135   33.5537    1.8732 C   0  0  0  0  0  0  0  0  0  0  0  0
    2.0865   32.7920    0.9245 O   0  0  0  0  0  0  0  0  0  0  0  0
    2.7471   32.1701    1.1587 H   0  0  0  0  0  0  0  0  0  0  0  0
    5.9675   28.7346    6.9145 N   0  0  0  0  0  0  0  0  0  0  0  0
    5.4818   27.9543    6.5618 H   0  0  0  0  0  0  0  0  0  0  0  0
    7.3430   28.8680    6.5769 C   0  0  0  0  0  0  0  0  0  0  0  0
    7.7480   30.0017    5.8536 C   0  0  0  0  0  0  0  0  0  0  0  0
    9.0913   30.2057    5.5235 C   0  0  0  0  0  0  0  0  0  0  0  0
   10.0580   29.2897    5.9297 C   0  0  0  0  0  0  0  0  0  0  0  0
    9.6869   28.1830    6.6888 C   0  0  0  0  0  0  0  0  0  0  0  0
    8.3460   27.9958    7.0409 C   0  0  0  0  0  0  0  0  0  0  0  0
    8.0241   26.9049    7.8036 O   0  0  0  0  0  0  0  0  0  0  0  0
    8.5944   27.0153    9.1046 C   0  0  0  0  0  0  0  0  0  0  0  0
    8.2359   25.9482    9.8576 F   0  0  0  0  0  0  0  0  0  0  0  0
    9.9414   27.1009    9.0864 F   0  0  0  0  0  0  0  0  0  0  0  0
    8.1036   28.1223    9.7068 F   0  0  0  0  0  0  0  0  0  0  0  0
 15 16  2  0
 16 17  1  0
 16  9  1  0
  9 10  2  0
 10 11  1  0
 11 12  2  0
 12  7  1  0
  7  1  1  0
  1  2  2  0
  2  3  1  0
  3  4  2  0
  4  5  1  0
  5 19  1  0
 19 21  1  0
 21 22  2  0
 22 23  1  0
 23 24  2  0
 24 25  1  0
 25 26  2  0
 26 27  1  0
 27 28  1  0
 28 29  1  0
 28 30  1  0
 28 31  1  0
  5  6  2  0
 12 13  1  0
 13 14  2  0
 14  9  1  0
  6  1  1  0
 26 21  1  0
 17 18  1  0
  7  8  1  0
 19 20  1  0
M  END
> <minimizedAffinity>
-9.91410

> <CNNscore>
0.9909702539

> <CNNaffinity>
7.5884966850

> <CNN_VS>
7.5199747086

> <CNNaffinity_variance>
0.0013204124

$$$$



 31 33  0  0  0  0  0  0  0  0999 V2000
    4.0688   31.5051    7.9697 C   0  0  0  0  0  0  0  0  0  0  0  0
    3.9600   31.3757    9.2989 N   0  0  0  0  0  0  0  0  0  0  0  0
    4.5245   30.2947    9.8601 C   0  0  0  0  0  0  0  0  0  0  0  0
    5.1862   29.3326    9.1434 C   0  0  0  0  0  0  0  0  0  0  0  0
    5.2532   29.5369    7.7820 C   0  0  0  0  0  0  0  0  0  0  0  0
    4.6957   30.6076    7.1931 N   0  0  0  0  0  0  0  0  0  0  0  0
    3.5320   32.5910    7.2842 N   0  0  0  0  0  0  0  0  0  0  0  0
    3.4705   33.4015    7.8397 H   0  0  0  0  0  0  0  0  0  0  0  0
    2.0169   33.2878    3.3972 C   0  0  0  0  0  0  0  0  0  0  0  0
    1.3729   33.7966    4.5269 C   0  0  0  0  0  0  0  0  0  0  0  0
    1.8936   33.5487    5.8022 C   0  0  0  0  0  0  0  0  0  0  0  0
    3.0607   32.7876    5.9833 C   0  0  0  0  0  0  0  0  0  0  0  0
    3.6949   32.2922    4.8391 C   0  0  0  0  0  0  0  0  0  0  0  0
    3.1818   32.5343    3.5572 C   0  0  0  0  0  0  0  0  0  0  0  0
    1.3209   34.6722    1.5552 O   0  0  0  0  0  0  0  0  0  0  0  0
    1.4351   33.5720    2.0638 C   0  0  0  0  0  0  0  0  0  0  0  0
    1.0214   32.4630    1.4253 O   0  0  0  0  0  0  0  0  0  0  0  0
    1.1175   31.6246    1.8326 H   0  0  0  0  0  0  0  0  0  0  0  0
    5.9095   28.5955    6.9575 N   0  0  0  0  0  0  0  0  0  0  0  0
    5.9821   27.6700    7.2852 H   0  0  0  0  0  0  0  0  0  0  0  0
    6.4726   28.8950    5.6859 C   0  0  0  0  0  0  0  0  0  0  0  0
    5.6866   28.6888    4.5403 C   0  0  0  0  0  0  0  0  0  0  0  0
    6.1722   28.9981    3.2662 C   0  0  0  0  0  0  0  0  0  0  0  0
    7.4460   29.5399    3.1160 C   0  0  0  0  0  0  0  0  0  0  0  0
    8.2252   29.7979    4.2407 C   0  0  0  0  0  0  0  0  0  0  0  0
    7.7261   29.5129    5.5161 C   0  0  0  0  0  0  0  0  0  0  0  0
    8.5158   29.7980    6.5979 O   0  0  0  0  0  0  0  0  0  0  0  0
    9.5440   28.8220    6.7408 C   0  0  0  0  0  0  0  0  0  0  0  0
   10.7027   29.2933    6.2215 F   0  0  0  0  0  0  0  0  0  0  0  0
    9.7578   28.4626    8.0242 F   0  0  0  0  0  0  0  0  0  0  0  0
    9.2021   27.7179    6.0386 F   0  0  0  0  0  0  0  0  0  0  0  0
 15 16  2  0
 16 17  1  0
 16  9  1  0
  9 10  2  0
 10 11  1  0
 11 12  2  0
 12  7  1  0
  7  1  1  0
  1  2  2  0
  2  3  1  0
  3  4  2  0
  4  5  1  0
  5 19  1  0
 19 21  1  0
 21 22  2  0
 22 23  1  0
 23 24  2  0
 24 25  1  0
 25 26  2  0
 26 27  1  0
 27 28  1  0
 28 29  1  0
 28 30  1  0
 28 31  1  0
  5  6  2  0
 12 13  1  0
 13 14  2  0
 14  9  1  0
  6  1  1  0
 26 21  1  0
 17 18  1  0
  7  8  1  0
 19 20  1  0
M  END
> <minimizedAffinity>
-9.61503

> <CNNscore>
0.9827476144

> <CNNaffinity>
7.5703787804

> <CNN_VS>
7.4397716522

> <CNNaffinity_variance>
0.0132389041

$$$$



 31 33  0  0  0  0  0  0  0  0999 V2000
    3.9802   31.7098    7.8753 C   0  0  0  0  0  0  0  0  0  0  0  0
    3.7555   31.6479    9.1948 N   0  0  0  0  0  0  0  0  0  0  0  0
    4.2679   30.5988    9.8575 C   0  0  0  0  0  0  0  0  0  0  0  0
    4.9889   29.6039    9.2514 C   0  0  0  0  0  0  0  0  0  0  0  0
    5.1748   29.7389    7.8923 C   0  0  0  0  0  0  0  0  0  0  0  0
    4.6718   30.7762    7.2032 N   0  0  0  0  0  0  0  0  0  0  0  0
    3.5063   32.7575    7.0910 N   0  0  0  0  0  0  0  0  0  0  0  0
    3.4501   33.6084    7.5830 H   0  0  0  0  0  0  0  0  0  0  0  0
    2.1603   33.2035    3.1061 C   0  0  0  0  0  0  0  0  0  0  0  0
    1.4516   33.7550    4.1754 C   0  0  0  0  0  0  0  0  0  0  0  0
    1.9173   33.5901    5.4850 C   0  0  0  0  0  0  0  0  0  0  0  0
    3.0925   32.8711    5.7611 C   0  0  0  0  0  0  0  0  0  0  0  0
    3.7918   32.3319    4.6762 C   0  0  0  0  0  0  0  0  0  0  0  0
    3.3342   32.4909    3.3606 C   0  0  0  0  0  0  0  0  0  0  0  0
    0.6916   34.1041    1.4252 O   0  0  0  0  0  0  0  0  0  0  0  0
    1.6355   33.3999    1.7338 C   0  0  0  0  0  0  0  0  0  0  0  0
    2.3180   32.7040    0.8072 O   0  0  0  0  0  0  0  0  0  0  0  0
    3.0419   32.1672    1.0636 H   0  0  0  0  0  0  0  0  0  0  0  0
    5.8999   28.7591    7.1774 N   0  0  0  0  0  0  0  0  0  0  0  0
    5.5486   28.4753    6.3026 H   0  0  0  0  0  0  0  0  0  0  0  0
    7.1033   28.1552    7.6366 C   0  0  0  0  0  0  0  0  0  0  0  0
    7.0462   26.8432    8.1347 C   0  0  0  0  0  0  0  0  0  0  0  0
    8.2011   26.1843    8.5673 C   0  0  0  0  0  0  0  0  0  0  0  0
    9.4383   26.8182    8.4897 C   0  0  0  0  0  0  0  0  0  0  0  0
    9.5263   28.1008    7.9550 C   0  0  0  0  0  0  0  0  0  0  0  0
    8.3730   28.7471    7.4977 C   0  0  0  0  0  0  0  0  0  0  0  0
    8.5038   30.0006    6.9619 O   0  0  0  0  0  0  0  0  0  0  0  0
    9.2043   29.9466    5.7224 C   0  0  0  0  0  0  0  0  0  0  0  0
   10.5178   29.7024    5.9450 F   0  0  0  0  0  0  0  0  0  0  0  0
    8.7237   29.0047    4.8834 F   0  0  0  0  0  0  0  0  0  0  0  0
    9.1113   31.1502    5.1126 F   0  0  0  0  0  0  0  0  0  0  0  0
 15 16  2  0
 16 17  1  0
 16  9  1  0
  9 10  2  0
 10 11  1  0
 11 12  2  0
 12  7  1  0
  7  1  1  0
  1  2  2  0
  2  3  1  0
  3  4  2  0
  4  5  1  0
  5 19  1  0
 19 21  1  0
 21 22  2  0
 22 23  1  0
 23 24  2  0
 24 25  1  0
 25 26  2  0
 26 27  1  0
 27 28  1  0
 28 29  1  0
 28 30  1  0
 28 31  1  0
  5  6  2  0
 12 13  1  0
 13 14  2  0
 14  9  1  0
  6  1  1  0
 26 21  1  0
 17 18  1  0
  7  8  1  0
 19 20  1  0
M  END
> <minimizedAffinity>
-9.72227

> <CNNscore>
0.9796318412

> <CNNaffinity>
7.4768776894

> <CNN_VS>
7.3245873451

> <CNNaffinity_variance>
0.0106931068

$$$$



 31 33  0  0  0  0  0  0  0  0999 V2000
    8.1400   29.5005    5.1405 C   0  0  0  0  0  0  0  0  0  0  0  0
    8.8234   29.3595    3.9966 N   0  0  0  0  0  0  0  0  0  0  0  0
    8.1237   29.4090    2.8519 C   0  0  0  0  0  0  0  0  0  0  0  0
    6.7658   29.5851    2.8060 C   0  0  0  0  0  0  0  0  0  0  0  0
    6.1356   29.7204    4.0243 C   0  0  0  0  0  0  0  0  0  0  0  0
    6.8096   29.6724    5.1851 N   0  0  0  0  0  0  0  0  0  0  0  0
    8.7640   29.4769    6.3845 N   0  0  0  0  0  0  0  0  0  0  0  0
    9.1755   30.3390    6.6224 H   0  0  0  0  0  0  0  0  0  0  0  0
    9.2147   26.6119    9.4632 C   0  0  0  0  0  0  0  0  0  0  0  0
    8.7915   27.9131    9.7418 C   0  0  0  0  0  0  0  0  0  0  0  0
    8.6535   28.8429    8.7047 C   0  0  0  0  0  0  0  0  0  0  0  0
    8.9366   28.5024    7.3712 C   0  0  0  0  0  0  0  0  0  0  0  0
    9.3529   27.1924    7.1116 C   0  0  0  0  0  0  0  0  0  0  0  0
    9.4946   26.2534    8.1428 C   0  0  0  0  0  0  0  0  0  0  0  0
    9.3092   25.9375   11.7719 O   0  0  0  0  0  0  0  0  0  0  0  0
    9.3484   25.6559   10.5882 C   0  0  0  0  0  0  0  0  0  0  0  0
    9.5256   24.3870   10.1793 O   0  0  0  0  0  0  0  0  0  0  0  0
    9.5531   24.1893    9.2638 H   0  0  0  0  0  0  0  0  0  0  0  0
    4.7351   29.8995    4.0795 N   0  0  0  0  0  0  0  0  0  0  0  0
    4.1656   29.1754    3.7321 H   0  0  0  0  0  0  0  0  0  0  0  0
    4.0925   31.0556    4.6033 C   0  0  0  0  0  0  0  0  0  0  0  0
    3.4918   31.9525    3.7049 C   0  0  0  0  0  0  0  0  0  0  0  0
    2.8149   33.0875    4.1618 C   0  0  0  0  0  0  0  0  0  0  0  0
    2.7078   33.3350    5.5278 C   0  0  0  0  0  0  0  0  0  0  0  0
    3.2538   32.4348    6.4390 C   0  0  0  0  0  0  0  0  0  0  0  0
    3.9068   31.2860    5.9796 C   0  0  0  0  0  0  0  0  0  0  0  0
    4.4142   30.4162    6.9076 O   0  0  0  0  0  0  0  0  0  0  0  0
    4.1932   30.9045    8.2277 C   0  0  0  0  0  0  0  0  0  0  0  0
    4.9019   30.1682    9.1166 F   0  0  0  0  0  0  0  0  0  0  0  0
    4.5291   32.2036    8.3746 F   0  0  0  0  0  0  0  0  0  0  0  0
    2.8836   30.7639    8.5346 F   0  0  0  0  0  0  0  0  0  0  0  0
 15 16  2  0
 16 17  1  0
 16  9  1  0
  9 10  2  0
 10 11  1  0
 11 12  2  0
 12  7  1  0
  7  1  1  0
  1  2  2  0
  2  3  1  0
  3  4  2  0
  4  5  1  0
  5 19  1  0
 19 21  1  0
 21 22  2  0
 22 23  1  0
 23 24  2  0
 24 25  1  0
 25 26  2  0
 26 27  1  0
 27 28  1  0
 28 29  1  0
 28 30  1  0
 28 31  1  0
  5  6  2  0
 12 13  1  0
 13 14  2  0
 14  9  1  0
  6  1  1  0
 26 21  1  0
 17 18  1  0
  7  8  1  0
 19 20  1  0
M  END
> <minimizedAffinity>
-8.50984

> <CNNscore>
0.1709573418

> <CNNaffinity>
5.5407509804

> <CNN_VS>
0.9472320676

> <CNNaffinity_variance>
0.7545750141

$$$$



 31 33  0  0  0  0  0  0  0  0999 V2000
    9.2713   27.4776    6.5765 C   0  0  0  0  0  0  0  0  0  0  0  0
    9.3352   26.3956    7.3642 N   0  0  0  0  0  0  0  0  0  0  0  0
    8.3626   26.2405    8.2765 C   0  0  0  0  0  0  0  0  0  0  0  0
    7.3329   27.1296    8.4384 C   0  0  0  0  0  0  0  0  0  0  0  0
    7.3389   28.2171    7.5916 C   0  0  0  0  0  0  0  0  0  0  0  0
    8.3002   28.3992    6.6715 N   0  0  0  0  0  0  0  0  0  0  0  0
   10.2191   27.7331    5.5896 N   0  0  0  0  0  0  0  0  0  0  0  0
   11.0473   28.1269    5.9476 H   0  0  0  0  0  0  0  0  0  0  0  0
   10.2567   27.3149    1.3808 C   0  0  0  0  0  0  0  0  0  0  0  0
    9.3881   28.2079    2.0116 C   0  0  0  0  0  0  0  0  0  0  0  0
    9.3936   28.3247    3.4064 C   0  0  0  0  0  0  0  0  0  0  0  0
   10.2574   27.5552    4.2040 C   0  0  0  0  0  0  0  0  0  0  0  0
   11.1244   26.6712    3.5532 C   0  0  0  0  0  0  0  0  0  0  0  0
   11.1269   26.5462    2.1569 C   0  0  0  0  0  0  0  0  0  0  0  0
   10.9599   27.8059   -0.8682 O   0  0  0  0  0  0  0  0  0  0  0  0
   10.2214   27.2199   -0.0980 C   0  0  0  0  0  0  0  0  0  0  0  0
    9.2605   26.3930   -0.5472 O   0  0  0  0  0  0  0  0  0  0  0  0
    8.7015   25.9504    0.0607 H   0  0  0  0  0  0  0  0  0  0  0  0
    6.3212   29.1927    7.6870 N   0  0  0  0  0  0  0  0  0  0  0  0
    6.1091   29.5492    8.5799 H   0  0  0  0  0  0  0  0  0  0  0  0
    5.5823   29.6946    6.5798 C   0  0  0  0  0  0  0  0  0  0  0  0
    5.5876   28.9597    5.3830 C   0  0  0  0  0  0  0  0  0  0  0  0
    4.8521   29.3837    4.2720 C   0  0  0  0  0  0  0  0  0  0  0  0
    4.0800   30.5401    4.3446 C   0  0  0  0  0  0  0  0  0  0  0  0
    4.0211   31.2591    5.5355 C   0  0  0  0  0  0  0  0  0  0  0  0
    4.7364   30.8175    6.6538 C   0  0  0  0  0  0  0  0  0  0  0  0
    4.6380   31.5421    7.8116 O   0  0  0  0  0  0  0  0  0  0  0  0
    3.7664   30.8969    8.7357 C   0  0  0  0  0  0  0  0  0  0  0  0
    3.2869   29.7514    8.1950 F   0  0  0  0  0  0  0  0  0  0  0  0
    4.3629   30.6056    9.9110 F   0  0  0  0  0  0  0  0  0  0  0  0
    2.7100   31.7050    8.9808 F   0  0  0  0  0  0  0  0  0  0  0  0
 15 16  2  0
 16 17  1  0
 16  9  1  0
  9 10  2  0
 10 11  1  0
 11 12  2  0
 12  7  1  0
  7  1  1  0
  1  2  2  0
  2  3  1  0
  3  4  2  0
  4  5  1  0
  5 19  1  0
 19 21  1  0
 21 22  2  0
 22 23  1  0
 23 24  2  0
 24 25  1  0
 25 26  2  0
 26 27  1  0
 27 28  1  0
 28 29  1  0
 28 30  1  0
 28 31  1  0
  5  6  2  0
 12 13  1  0
 13 14  2  0
 14  9  1  0
  6  1  1  0
 26 21  1  0
 17 18  1  0
  7  8  1  0
 19 20  1  0
M  END
> <minimizedAffinity>
-7.74136

> <CNNscore>
0.1624043435

> <CNNaffinity>
5.7182030678

> <CNN_VS>
0.9286609888

> <CNNaffinity_variance>
0.3780253232

$$$$



 31 33  0  0  0  0  0  0  0  0999 V2000
    7.6085   29.2083    4.2842 C   0  0  0  0  0  0  0  0  0  0  0  0
    7.6410   28.7234    3.0355 N   0  0  0  0  0  0  0  0  0  0  0  0
    6.5704   28.9526    2.2586 C   0  0  0  0  0  0  0  0  0  0  0  0
    5.4643   29.6402    2.6837 C   0  0  0  0  0  0  0  0  0  0  0  0
    5.5072   30.1049    3.9806 C   0  0  0  0  0  0  0  0  0  0  0  0
    6.5636   29.8884    4.7813 N   0  0  0  0  0  0  0  0  0  0  0  0
    8.6668   29.0401    5.1725 N   0  0  0  0  0  0  0  0  0  0  0  0
    9.4853   29.5055    4.8848 H   0  0  0  0  0  0  0  0  0  0  0  0
    9.2072   26.8645    8.7592 C   0  0  0  0  0  0  0  0  0  0  0  0
    9.3116   26.2431    7.5132 C   0  0  0  0  0  0  0  0  0  0  0  0
    9.1251   26.9855    6.3414 C   0  0  0  0  0  0  0  0  0  0  0  0
    8.8269   28.3580    6.3816 C   0  0  0  0  0  0  0  0  0  0  0  0
    8.7329   28.9637    7.6391 C   0  0  0  0  0  0  0  0  0  0  0  0
    8.9177   28.2295    8.8189 C   0  0  0  0  0  0  0  0  0  0  0  0
    9.6384   24.8491   10.0025 O   0  0  0  0  0  0  0  0  0  0  0  0
    9.4117   26.0449    9.9773 C   0  0  0  0  0  0  0  0  0  0  0  0
    9.3230   26.7613   11.1120 O   0  0  0  0  0  0  0  0  0  0  0  0
    9.1478   27.6810   11.0729 H   0  0  0  0  0  0  0  0  0  0  0  0
    4.4101   30.8197    4.5118 N   0  0  0  0  0  0  0  0  0  0  0  0
    3.7686   31.2141    3.8775 H   0  0  0  0  0  0  0  0  0  0  0  0
    4.1701   31.0080    5.9013 C   0  0  0  0  0  0  0  0  0  0  0  0
    4.4758   29.9575    6.7819 C   0  0  0  0  0  0  0  0  0  0  0  0
    4.2950   30.0960    8.1615 C   0  0  0  0  0  0  0  0  0  0  0  0
    3.8250   31.2961    8.6880 C   0  0  0  0  0  0  0  0  0  0  0  0
    3.5606   32.3677    7.8392 C   0  0  0  0  0  0  0  0  0  0  0  0
    3.7684   32.2352    6.4621 C   0  0  0  0  0  0  0  0  0  0  0  0
    3.5141   33.3178    5.6629 O   0  0  0  0  0  0  0  0  0  0  0  0
    2.1245   33.4036    5.3602 C   0  0  0  0  0  0  0  0  0  0  0  0
    1.8486   32.6793    4.2494 F   0  0  0  0  0  0  0  0  0  0  0  0
    1.3359   32.9717    6.3670 F   0  0  0  0  0  0  0  0  0  0  0  0
    1.8116   34.6922    5.0944 F   0  0  0  0  0  0  0  0  0  0  0  0
 15 16  2  0
 16 17  1  0
 16  9  1  0
  9 10  2  0
 10 11  1  0
 11 12  2  0
 12  7  1  0
  7  1  1  0
  1  2  2  0
  2  3  1  0
  3  4  2  0
  4  5  1  0
  5 19  1  0
 19 21  1  0
 21 22  2  0
 22 23  1  0
 23 24  2  0
 24 25  1  0
 25 26  2  0
 26 27  1  0
 27 28  1  0
 28 29  1  0
 28 30  1  0
 28 31  1  0
  5  6  2  0
 12 13  1  0
 13 14  2  0
 14  9  1  0
  6  1  1  0
 26 21  1  0
 17 18  1  0
  7  8  1  0
 19 20  1  0
M  END
> <minimizedAffinity>
-9.57998

> <CNNscore>
0.1347234398

> <CNNaffinity>
5.3927245140

> <CNN_VS>
0.7265263796

> <CNNaffinity_variance>
0.5830936432

$$$$



 31 33  0  0  0  0  0  0  0  0999 V2000
    7.7959   29.4969    3.5269 C   0  0  0  0  0  0  0  0  0  0  0  0
    8.0104   29.3022    2.2186 N   0  0  0  0  0  0  0  0  0  0  0  0
    6.9862   29.5433    1.3848 C   0  0  0  0  0  0  0  0  0  0  0  0
    5.7527   29.9630    1.8083 C   0  0  0  0  0  0  0  0  0  0  0  0
    5.6115   30.1381    3.1681 C   0  0  0  0  0  0  0  0  0  0  0  0
    6.6177   29.9023    4.0259 N   0  0  0  0  0  0  0  0  0  0  0  0
    8.7890   29.2891    4.4798 N   0  0  0  0  0  0  0  0  0  0  0  0
    9.5716   29.8721    4.3500 H   0  0  0  0  0  0  0  0  0  0  0  0
    9.2403   26.8240    7.8871 C   0  0  0  0  0  0  0  0  0  0  0  0
    9.7879   28.1078    7.8450 C   0  0  0  0  0  0  0  0  0  0  0  0
    9.6266   28.9020    6.7038 C   0  0  0  0  0  0  0  0  0  0  0  0
    8.9230   28.4375    5.5797 C   0  0  0  0  0  0  0  0  0  0  0  0
    8.3764   27.1515    5.6437 C   0  0  0  0  0  0  0  0  0  0  0  0
    8.5322   26.3476    6.7816 C   0  0  0  0  0  0  0  0  0  0  0  0
    8.8233   26.1470   10.1589 O   0  0  0  0  0  0  0  0  0  0  0  0
    9.4321   26.0134    9.1133 C   0  0  0  0  0  0  0  0  0  0  0  0
   10.3801   25.0696    8.9746 O   0  0  0  0  0  0  0  0  0  0  0  0
   10.8383   24.9817    8.1620 H   0  0  0  0  0  0  0  0  0  0  0  0
    4.3736   30.5626    3.7012 N   0  0  0  0  0  0  0  0  0  0  0  0
    3.6051   30.6191    3.0885 H   0  0  0  0  0  0  0  0  0  0  0  0
    4.1630   30.9137    5.0636 C   0  0  0  0  0  0  0  0  0  0  0  0
    4.4897   29.9744    6.0553 C   0  0  0  0  0  0  0  0  0  0  0  0
    4.3382   30.2749    7.4124 C   0  0  0  0  0  0  0  0  0  0  0  0
    3.8772   31.5291    7.8036 C   0  0  0  0  0  0  0  0  0  0  0  0
    3.5926   32.4931    6.8400 C   0  0  0  0  0  0  0  0  0  0  0  0
    3.7711   32.1988    5.4841 C   0  0  0  0  0  0  0  0  0  0  0  0
    3.4976   33.1796    4.5683 O   0  0  0  0  0  0  0  0  0  0  0  0
    2.0958   33.2669    4.3290 C   0  0  0  0  0  0  0  0  0  0  0  0
    1.7753   34.5160    3.9149 F   0  0  0  0  0  0  0  0  0  0  0  0
    1.6596   32.3796    3.4099 F   0  0  0  0  0  0  0  0  0  0  0  0
    1.4373   33.0404    5.4883 F   0  0  0  0  0  0  0  0  0  0  0  0
 15 16  2  0
 16 17  1  0
 16  9  1  0
  9 10  2  0
 10 11  1  0
 11 12  2  0
 12  7  1  0
  7  1  1  0
  1  2  2  0
  2  3  1  0
  3  4  2  0
  4  5  1  0
  5 19  1  0
 19 21  1  0
 21 22  2  0
 22 23  1  0
 23 24  2  0
 24 25  1  0
 25 26  2  0
 26 27  1  0
 27 28  1  0
 28 29  1  0
 28 30  1  0
 28 31  1  0
  5  6  2  0
 12 13  1  0
 13 14  2  0
 14  9  1  0
  6  1  1  0
 26 21  1  0
 17 18  1  0
  7  8  1  0
 19 20  1  0
M  END
> <minimizedAffinity>
-9.07464

> <CNNscore>
0.1215469167

> <CNNaffinity>
4.8193020821

> <CNN_VS>
0.5857713223

> <CNNaffinity_variance>
1.1505821943

$$$$



 31 33  0  0  0  0  0  0  0  0999 V2000
   10.1589   27.6340    5.1931 C   0  0  0  0  0  0  0  0  0  0  0  0
   10.8178   28.7485    5.5383 N   0  0  0  0  0  0  0  0  0  0  0  0
   10.1621   29.6406    6.2976 C   0  0  0  0  0  0  0  0  0  0  0  0
    8.8699   29.4665    6.7182 C   0  0  0  0  0  0  0  0  0  0  0  0
    8.2607   28.2960    6.3201 C   0  0  0  0  0  0  0  0  0  0  0  0
    8.8912   27.3870    5.5586 N   0  0  0  0  0  0  0  0  0  0  0  0
   10.7441   26.6368    4.4182 N   0  0  0  0  0  0  0  0  0  0  0  0
   10.7406   25.7572    4.8606 H   0  0  0  0  0  0  0  0  0  0  0  0
   12.4582   26.6587    0.5515 C   0  0  0  0  0  0  0  0  0  0  0  0
   11.3393   27.4384    0.8516 C   0  0  0  0  0  0  0  0  0  0  0  0
   10.7897   27.4104    2.1386 C   0  0  0  0  0  0  0  0  0  0  0  0
   11.3356   26.6053    3.1525 C   0  0  0  0  0  0  0  0  0  0  0  0
   12.4601   25.8366    2.8342 C   0  0  0  0  0  0  0  0  0  0  0  0
   13.0184   25.8570    1.5484 C   0  0  0  0  0  0  0  0  0  0  0  0
   14.1809   26.5679   -1.1270 O   0  0  0  0  0  0  0  0  0  0  0  0
   13.0115   26.7156   -0.8225 C   0  0  0  0  0  0  0  0  0  0  0  0
   12.0733   26.9552   -1.7557 O   0  0  0  0  0  0  0  0  0  0  0  0
   11.1781   27.0662   -1.5024 H   0  0  0  0  0  0  0  0  0  0  0  0
    6.9257   28.0298    6.6990 N   0  0  0  0  0  0  0  0  0  0  0  0
    6.6748   27.0931    6.8691 H   0  0  0  0  0  0  0  0  0  0  0  0
    5.9197   29.0241    6.8513 C   0  0  0  0  0  0  0  0  0  0  0  0
    5.3968   29.2566    8.1339 C   0  0  0  0  0  0  0  0  0  0  0  0
    4.4321   30.2448    8.3522 C   0  0  0  0  0  0  0  0  0  0  0  0
    3.9879   31.0339    7.2946 C   0  0  0  0  0  0  0  0  0  0  0  0
    4.5267   30.8542    6.0233 C   0  0  0  0  0  0  0  0  0  0  0  0
    5.5116   29.8832    5.8134 C   0  0  0  0  0  0  0  0  0  0  0  0
    6.0295   29.7497    4.5527 O   0  0  0  0  0  0  0  0  0  0  0  0
    5.2551   28.8319    3.7859 C   0  0  0  0  0  0  0  0  0  0  0  0
    5.9347   27.6704    3.6325 F   0  0  0  0  0  0  0  0  0  0  0  0
    4.0536   28.5621    4.3388 F   0  0  0  0  0  0  0  0  0  0  0  0
    5.0520   29.3509    2.5536 F   0  0  0  0  0  0  0  0  0  0  0  0
 15 16  2  0
 16 17  1  0
 16  9  1  0
  9 10  2  0
 10 11  1  0
 11 12  2  0
 12  7  1  0
  7  1  1  0
  1  2  2  0
  2  3  1  0
  3  4  2  0
  4  5  1  0
  5 19  1  0
 19 21  1  0
 21 22  2  0
 22 23  1  0
 23 24  2  0
 24 25  1  0
 25 26  2  0
 26 27  1  0
 27 28  1  0
 28 29  1  0
 28 30  1  0
 28 31  1  0
  5  6  2  0
 12 13  1  0
 13 14  2  0
 14  9  1  0
  6  1  1  0
 26 21  1  0
 17 18  1  0
  7  8  1  0
 19 20  1  0
M  END
> <minimizedAffinity>
-8.39166

> <CNNscore>
0.1170107871

> <CNNaffinity>
4.6798005104

> <CNN_VS>
0.5475871563

> <CNNaffinity_variance>
1.3108507395

$$$$
