


 36 37  0  0  0  0  0  0  0  0999 V2000
  -18.8684   53.9864   18.6812 C   0  0  0  0  0  0  0  0  0  0  0  0
  -19.6608   53.5367   17.6133 C   0  0  0  0  0  0  0  0  0  0  0  0
  -20.0998   54.4205   16.6119 C   0  0  0  0  0  0  0  0  0  0  0  0
  -20.8952   53.9773   15.5454 C   0  0  0  0  0  0  0  0  0  0  0  0
  -21.3272   54.8661   14.5583 C   0  0  0  0  0  0  0  0  0  0  0  0
  -20.9732   56.2193   14.6154 C   0  0  0  0  0  0  0  0  0  0  0  0
  -20.1726   56.6664   15.6784 C   0  0  0  0  0  0  0  0  0  0  0  0
  -19.7341   55.7836   16.6794 C   0  0  0  0  0  0  0  0  0  0  0  0
  -18.9396   56.2260   17.7460 C   0  0  0  0  0  0  0  0  0  0  0  0
  -18.5161   55.3338   18.7305 C   0  0  0  0  0  0  0  0  0  0  0  0
  -17.7543   55.8167   19.7241 F   0  0  0  0  0  0  0  0  0  0  0  0
  -17.9146   51.8058   19.2666 N   0  0  0  0  0  0  0  0  0  0  0  0
  -18.4404   52.9951   19.7067 C   0  0  0  0  0  0  0  0  0  0  0  0
  -18.5586   53.2565   20.9005 O   0  0  0  0  0  0  0  0  0  0  0  0
  -17.8484   51.6471   18.2972 H   0  0  0  0  0  0  0  0  0  0  0  0
  -17.4495   50.7664   20.1824 C   0  0  0  0  0  0  0  0  0  0  0  0
  -19.8761   50.3720   20.3746 N   0  0  0  0  0  0  0  0  0  0  0  0
  -18.6689   50.3169   21.0080 C   0  0  0  0  0  0  0  0  0  0  0  0
  -18.5875   49.8991   22.1616 O   0  0  0  0  0  0  0  0  0  0  0  0
  -20.6940   50.0977   20.8492 H   0  0  0  0  0  0  0  0  0  0  0  0
  -19.9294   50.6860   19.4430 H   0  0  0  0  0  0  0  0  0  0  0  0
  -16.3084   51.3098   21.0588 C   0  0  0  0  0  0  0  0  0  0  0  0
  -15.1032   51.8748   20.3136 C   0  0  0  0  0  0  0  0  0  0  0  0
  -13.9151   50.9607   20.3846 C   0  0  0  0  0  0  0  0  0  0  0  0
  -13.7370   49.9863   19.6691 O   0  0  0  0  0  0  0  0  0  0  0  0
  -13.0081   51.3402   21.2980 O   0  0  0  0  0  0  0  0  0  0  0  0
  -13.1692   52.0915   21.8342 H   0  0  0  0  0  0  0  0  0  0  0  0
  -21.4265   57.1726   13.5408 C   0  0  0  0  0  0  0  0  0  0  0  0
  -22.7712   57.4068   13.5506 F   0  0  0  0  0  0  0  0  0  0  0  0
  -21.1258   56.7482   12.2793 F   0  0  0  0  0  0  0  0  0  0  0  0
  -20.7691   58.8542   13.5265 P   0  0  0  0  0  0  0  0  0  0  0  0
  -21.6871   60.0243   13.3382 O   0  0  0  0  0  0  0  0  0  0  0  0
  -19.5811   58.9240   12.4350 O   0  0  0  0  0  0  0  0  0  0  0  0
  -19.8992   59.0642   14.8705 O   0  0  0  0  0  0  0  0  0  0  0  0
  -19.9519   58.8111   11.5458 H   0  0  0  0  0  0  0  0  0  0  0  0
  -20.4868   59.0468   15.6420 H   0  0  0  0  0  0  0  0  0  0  0  0
 17 18  1  0
 18 19  2  0
 18 16  1  0
 16 22  1  0
 22 23  1  0
 23 24  1  0
 24 25  2  0
 24 26  1  0
 16 12  1  0
 12 13  1  0
 13 14  2  0
 13  1  1  0
  1  2  2  0
  2  3  1  0
  3  4  2  0
  4  5  1  0
  5  6  2  0
  6 28  1  0
 28 29  1  0
 28 30  1  0
 28 31  1  0
 31 32  2  0
 31 33  1  0
 31 34  1  0
  6  7  1  0
  7  8  2  0
  8  9  1  0
  9 10  2  0
 10 11  1  0
 10  1  1  0
  8  3  1  0
 17 20  1  0
 17 21  1  0
 26 27  1  0
 12 15  1  0
 33 35  1  0
 34 36  1  0
M  END
> <minimizedAffinity>
-9.11609

> <CNNscore>
0.9373617768

> <CNNaffinity>
6.3571372032

> <CNN_VS>
5.9589376450

> <CNNaffinity_variance>
0.2428899556

$$$$



 36 37  0  0  0  0  0  0  0  0999 V2000
  -19.0916   54.1087   18.6024 C   0  0  0  0  0  0  0  0  0  0  0  0
  -18.7443   55.3534   18.0541 C   0  0  0  0  0  0  0  0  0  0  0  0
  -19.4374   55.8797   16.9500 C   0  0  0  0  0  0  0  0  0  0  0  0
  -19.0917   57.1206   16.3956 C   0  0  0  0  0  0  0  0  0  0  0  0
  -19.7866   57.6312   15.2968 C   0  0  0  0  0  0  0  0  0  0  0  0
  -20.8439   56.9120   14.7270 C   0  0  0  0  0  0  0  0  0  0  0  0
  -21.1969   55.6718   15.2821 C   0  0  0  0  0  0  0  0  0  0  0  0
  -20.5042   55.1453   16.3851 C   0  0  0  0  0  0  0  0  0  0  0  0
  -20.8488   53.9049   16.9392 C   0  0  0  0  0  0  0  0  0  0  0  0
  -20.1474   53.3992   18.0333 C   0  0  0  0  0  0  0  0  0  0  0  0
  -20.5270   52.2082   18.5214 F   0  0  0  0  0  0  0  0  0  0  0  0
  -17.8533   52.3193   19.7303 N   0  0  0  0  0  0  0  0  0  0  0  0
  -18.3134   53.6121   19.7709 C   0  0  0  0  0  0  0  0  0  0  0  0
  -18.0984   54.3536   20.7255 O   0  0  0  0  0  0  0  0  0  0  0  0
  -18.0602   51.7675   18.9417 H   0  0  0  0  0  0  0  0  0  0  0  0
  -17.0681   51.7313   20.8133 C   0  0  0  0  0  0  0  0  0  0  0  0
  -17.5649   49.5221   19.8367 N   0  0  0  0  0  0  0  0  0  0  0  0
  -16.5963   50.3489   20.3265 C   0  0  0  0  0  0  0  0  0  0  0  0
  -15.4191   49.9937   20.3374 O   0  0  0  0  0  0  0  0  0  0  0  0
  -17.3268   48.6245   19.5098 H   0  0  0  0  0  0  0  0  0  0  0  0
  -18.5018   49.8232   19.8102 H   0  0  0  0  0  0  0  0  0  0  0  0
  -17.9158   51.6509   22.0939 C   0  0  0  0  0  0  0  0  0  0  0  0
  -17.2106   52.0417   23.3890 C   0  0  0  0  0  0  0  0  0  0  0  0
  -15.8828   52.6933   23.1355 C   0  0  0  0  0  0  0  0  0  0  0  0
  -15.6972   53.8986   23.0582 O   0  0  0  0  0  0  0  0  0  0  0  0
  -14.8708   51.8166   23.0442 O   0  0  0  0  0  0  0  0  0  0  0  0
  -15.0404   50.8972   23.1067 H   0  0  0  0  0  0  0  0  0  0  0  0
  -21.6024   57.4724   13.5526 C   0  0  0  0  0  0  0  0  0  0  0  0
  -22.5264   58.4154   13.8992 F   0  0  0  0  0  0  0  0  0  0  0  0
  -22.2788   56.5233   12.8428 F   0  0  0  0  0  0  0  0  0  0  0  0
  -20.6919   58.3246   12.2469 P   0  0  0  0  0  0  0  0  0  0  0  0
  -21.2854   59.5221   11.5678 O   0  0  0  0  0  0  0  0  0  0  0  0
  -20.2635   57.2352   11.1346 O   0  0  0  0  0  0  0  0  0  0  0  0
  -19.2294   58.7005   12.8185 O   0  0  0  0  0  0  0  0  0  0  0  0
  -21.0565   56.9018   10.6863 H   0  0  0  0  0  0  0  0  0  0  0  0
  -19.3171   59.3663   13.5185 H   0  0  0  0  0  0  0  0  0  0  0  0
 17 18  1  0
 18 19  2  0
 18 16  1  0
 16 22  1  0
 22 23  1  0
 23 24  1  0
 24 25  2  0
 24 26  1  0
 16 12  1  0
 12 13  1  0
 13 14  2  0
 13  1  1  0
  1  2  2  0
  2  3  1  0
  3  4  2  0
  4  5  1  0
  5  6  2  0
  6 28  1  0
 28 29  1  0
 28 30  1  0
 28 31  1  0
 31 32  2  0
 31 33  1  0
 31 34  1  0
  6  7  1  0
  7  8  2  0
  8  9  1  0
  9 10  2  0
 10 11  1  0
 10  1  1  0
  8  3  1  0
 17 20  1  0
 17 21  1  0
 26 27  1  0
 12 15  1  0
 33 35  1  0
 34 36  1  0
M  END
> <minimizedAffinity>
-8.75678

> <CNNscore>
0.8704425097

> <CNNaffinity>
6.0931782722

> <CNN_VS>
5.3037614822

> <CNNaffinity_variance>
0.2887666821

$$$$



 36 37  0  0  0  0  0  0  0  0999 V2000
  -18.8401   54.2700   18.8411 C   0  0  0  0  0  0  0  0  0  0  0  0
  -19.6746   53.7668   17.8306 C   0  0  0  0  0  0  0  0  0  0  0  0
  -20.1038   54.5828   16.7693 C   0  0  0  0  0  0  0  0  0  0  0  0
  -20.9410   54.0862   15.7598 C   0  0  0  0  0  0  0  0  0  0  0  0
  -21.3626   54.9082   14.7122 C   0  0  0  0  0  0  0  0  0  0  0  0
  -20.9563   56.2464   14.6502 C   0  0  0  0  0  0  0  0  0  0  0  0
  -20.1139   56.7463   15.6558 C   0  0  0  0  0  0  0  0  0  0  0  0
  -19.6851   55.9313   16.7167 C   0  0  0  0  0  0  0  0  0  0  0  0
  -18.8490   56.4271   17.7264 C   0  0  0  0  0  0  0  0  0  0  0  0
  -18.4359   55.6019   18.7719 C   0  0  0  0  0  0  0  0  0  0  0  0
  -17.6326   56.1334   19.7062 F   0  0  0  0  0  0  0  0  0  0  0  0
  -17.6182   52.2884   19.6075 N   0  0  0  0  0  0  0  0  0  0  0  0
  -18.4255   53.3493   19.9355 C   0  0  0  0  0  0  0  0  0  0  0  0
  -18.8010   53.5547   21.0862 O   0  0  0  0  0  0  0  0  0  0  0  0
  -17.3520   52.1688   18.6673 H   0  0  0  0  0  0  0  0  0  0  0  0
  -17.1392   51.3301   20.6012 C   0  0  0  0  0  0  0  0  0  0  0  0
  -14.8747   52.2935   20.7587 N   0  0  0  0  0  0  0  0  0  0  0  0
  -15.6171   51.2043   20.4064 C   0  0  0  0  0  0  0  0  0  0  0  0
  -15.0708   50.1848   19.9891 O   0  0  0  0  0  0  0  0  0  0  0  0
  -13.8955   52.2754   20.6578 H   0  0  0  0  0  0  0  0  0  0  0  0
  -15.3182   53.0975   21.1138 H   0  0  0  0  0  0  0  0  0  0  0  0
  -17.8709   49.9879   20.4329 C   0  0  0  0  0  0  0  0  0  0  0  0
  -19.0138   49.7219   21.4076 C   0  0  0  0  0  0  0  0  0  0  0  0
  -20.3578   49.8561   20.7534 C   0  0  0  0  0  0  0  0  0  0  0  0
  -21.1875   48.9632   20.6674 O   0  0  0  0  0  0  0  0  0  0  0  0
  -20.6033   51.0935   20.2956 O   0  0  0  0  0  0  0  0  0  0  0  0
  -19.9497   51.7602   20.3739 H   0  0  0  0  0  0  0  0  0  0  0  0
  -21.3988   57.1262   13.5105 C   0  0  0  0  0  0  0  0  0  0  0  0
  -22.7461   57.3433   13.4798 F   0  0  0  0  0  0  0  0  0  0  0  0
  -21.0678   56.6295   12.2835 F   0  0  0  0  0  0  0  0  0  0  0  0
  -20.7611   58.8122   13.4059 P   0  0  0  0  0  0  0  0  0  0  0  0
  -21.6814   59.9512   13.0845 O   0  0  0  0  0  0  0  0  0  0  0  0
  -19.5183   58.8202   12.3748 O   0  0  0  0  0  0  0  0  0  0  0  0
  -19.9654   59.1334   14.7736 O   0  0  0  0  0  0  0  0  0  0  0  0
  -19.8405   58.6368   11.4785 H   0  0  0  0  0  0  0  0  0  0  0  0
  -20.5925   59.1635   15.5131 H   0  0  0  0  0  0  0  0  0  0  0  0
 17 18  1  0
 18 19  2  0
 18 16  1  0
 16 22  1  0
 22 23  1  0
 23 24  1  0
 24 25  2  0
 24 26  1  0
 16 12  1  0
 12 13  1  0
 13 14  2  0
 13  1  1  0
  1  2  2  0
  2  3  1  0
  3  4  2  0
  4  5  1  0
  5  6  2  0
  6 28  1  0
 28 29  1  0
 28 30  1  0
 28 31  1  0
 31 32  2  0
 31 33  1  0
 31 34  1  0
  6  7  1  0
  7  8  2  0
  8  9  1  0
  9 10  2  0
 10 11  1  0
 10  1  1  0
  8  3  1  0
 17 20  1  0
 17 21  1  0
 26 27  1  0
 12 15  1  0
 33 35  1  0
 34 36  1  0
M  END
> <minimizedAffinity>
-8.67601

> <CNNscore>
0.8280706406

> <CNNaffinity>
6.1370110512

> <CNN_VS>
5.0818786621

> <CNNaffinity_variance>
0.2502729893

$$$$



 36 37  0  0  0  0  0  0  0  0999 V2000
  -19.0954   54.3882   18.6566 C   0  0  0  0  0  0  0  0  0  0  0  0
  -18.7715   55.6133   18.0527 C   0  0  0  0  0  0  0  0  0  0  0  0
  -19.4020   56.0278   16.8665 C   0  0  0  0  0  0  0  0  0  0  0  0
  -19.0789   57.2487   16.2568 C   0  0  0  0  0  0  0  0  0  0  0  0
  -19.7108   57.6477   15.0768 C   0  0  0  0  0  0  0  0  0  0  0  0
  -20.6810   56.8344   14.4793 C   0  0  0  0  0  0  0  0  0  0  0  0
  -21.0115   55.6138   15.0891 C   0  0  0  0  0  0  0  0  0  0  0  0
  -20.3812   55.1991   16.2741 C   0  0  0  0  0  0  0  0  0  0  0  0
  -20.7032   53.9787   16.8837 C   0  0  0  0  0  0  0  0  0  0  0  0
  -20.0647   53.5846   18.0591 C   0  0  0  0  0  0  0  0  0  0  0  0
  -20.4190   52.4074   18.5970 F   0  0  0  0  0  0  0  0  0  0  0  0
  -17.7280   52.8082   19.9375 N   0  0  0  0  0  0  0  0  0  0  0  0
  -18.3868   54.0123   19.9112 C   0  0  0  0  0  0  0  0  0  0  0  0
  -18.4007   54.7720   20.8755 O   0  0  0  0  0  0  0  0  0  0  0  0
  -17.7548   52.2360   19.1368 H   0  0  0  0  0  0  0  0  0  0  0  0
  -16.9884   52.3436   21.1091 C   0  0  0  0  0  0  0  0  0  0  0  0
  -14.5399   52.1315   21.3119 N   0  0  0  0  0  0  0  0  0  0  0  0
  -15.6494   51.7793   20.6001 C   0  0  0  0  0  0  0  0  0  0  0  0
  -15.5569   51.0284   19.6307 O   0  0  0  0  0  0  0  0  0  0  0  0
  -13.6537   51.8027   21.0368 H   0  0  0  0  0  0  0  0  0  0  0  0
  -14.6257   52.7145   22.1005 H   0  0  0  0  0  0  0  0  0  0  0  0
  -17.8184   51.2999   21.8752 C   0  0  0  0  0  0  0  0  0  0  0  0
  -18.7652   50.4494   21.0342 C   0  0  0  0  0  0  0  0  0  0  0  0
  -18.1789   49.1078   20.7050 C   0  0  0  0  0  0  0  0  0  0  0  0
  -18.2020   48.1332   21.4417 O   0  0  0  0  0  0  0  0  0  0  0  0
  -17.6498   49.0483   19.4732 O   0  0  0  0  0  0  0  0  0  0  0  0
  -17.6447   49.8105   18.9282 H   0  0  0  0  0  0  0  0  0  0  0  0
  -21.3729   57.2746   13.2158 C   0  0  0  0  0  0  0  0  0  0  0  0
  -22.4173   56.4720   12.8574 F   0  0  0  0  0  0  0  0  0  0  0  0
  -20.5436   57.3220   12.1333 F   0  0  0  0  0  0  0  0  0  0  0  0
  -22.1398   58.9083   13.1600 P   0  0  0  0  0  0  0  0  0  0  0  0
  -23.6297   59.0486   13.2488 O   0  0  0  0  0  0  0  0  0  0  0  0
  -21.6073   59.6725   11.8409 O   0  0  0  0  0  0  0  0  0  0  0  0
  -21.4448   59.8277   14.2907 O   0  0  0  0  0  0  0  0  0  0  0  0
  -21.9486   59.2275   11.0494 H   0  0  0  0  0  0  0  0  0  0  0  0
  -21.6752   59.4885   15.1698 H   0  0  0  0  0  0  0  0  0  0  0  0
 17 18  1  0
 18 19  2  0
 18 16  1  0
 16 22  1  0
 22 23  1  0
 23 24  1  0
 24 25  2  0
 24 26  1  0
 16 12  1  0
 12 13  1  0
 13 14  2  0
 13  1  1  0
  1  2  2  0
  2  3  1  0
  3  4  2  0
  4  5  1  0
  5  6  2  0
  6 28  1  0
 28 29  1  0
 28 30  1  0
 28 31  1  0
 31 32  2  0
 31 33  1  0
 31 34  1  0
  6  7  1  0
  7  8  2  0
  8  9  1  0
  9 10  2  0
 10 11  1  0
 10  1  1  0
  8  3  1  0
 17 20  1  0
 17 21  1  0
 26 27  1  0
 12 15  1  0
 33 35  1  0
 34 36  1  0
M  END
> <minimizedAffinity>
-8.99747

> <CNNscore>
0.7565889359

> <CNNaffinity>
5.8828082085

> <CNN_VS>
4.4508676529

> <CNNaffinity_variance>
0.2812237442

$$$$



 36 37  0  0  0  0  0  0  0  0999 V2000
  -18.7914   53.9091   18.8990 C   0  0  0  0  0  0  0  0  0  0  0  0
  -19.4433   53.7672   17.6640 C   0  0  0  0  0  0  0  0  0  0  0  0
  -19.6710   54.8765   16.8309 C   0  0  0  0  0  0  0  0  0  0  0  0
  -20.3257   54.7409   15.5982 C   0  0  0  0  0  0  0  0  0  0  0  0
  -20.5482   55.8515   14.7810 C   0  0  0  0  0  0  0  0  0  0  0  0
  -20.1206   57.1240   15.1781 C   0  0  0  0  0  0  0  0  0  0  0  0
  -19.4599   57.2636   16.4089 C   0  0  0  0  0  0  0  0  0  0  0  0
  -19.2327   56.1554   17.2419 C   0  0  0  0  0  0  0  0  0  0  0  0
  -18.5790   56.2903   18.4743 C   0  0  0  0  0  0  0  0  0  0  0  0
  -18.3646   55.1776   19.2872 C   0  0  0  0  0  0  0  0  0  0  0  0
  -17.7297   55.3702   20.4536 F   0  0  0  0  0  0  0  0  0  0  0  0
  -17.2944   52.3321   20.0302 N   0  0  0  0  0  0  0  0  0  0  0  0
  -18.5851   52.6911   19.7306 C   0  0  0  0  0  0  0  0  0  0  0  0
  -19.5523   52.0478   20.1280 O   0  0  0  0  0  0  0  0  0  0  0  0
  -16.5565   52.8818   19.6800 H   0  0  0  0  0  0  0  0  0  0  0  0
  -16.9743   51.1651   20.8492 C   0  0  0  0  0  0  0  0  0  0  0  0
  -17.4107   52.8385   22.6071 N   0  0  0  0  0  0  0  0  0  0  0  0
  -16.7853   51.6674   22.2923 C   0  0  0  0  0  0  0  0  0  0  0  0
  -16.1403   51.0560   23.1421 O   0  0  0  0  0  0  0  0  0  0  0  0
  -17.3283   53.2121   23.5142 H   0  0  0  0  0  0  0  0  0  0  0  0
  -17.9443   53.3098   21.9271 H   0  0  0  0  0  0  0  0  0  0  0  0
  -15.7221   50.4629   20.2976 C   0  0  0  0  0  0  0  0  0  0  0  0
  -14.4874   51.3404   20.1174 C   0  0  0  0  0  0  0  0  0  0  0  0
  -13.2255   50.5319   20.0397 C   0  0  0  0  0  0  0  0  0  0  0  0
  -12.8709   49.8778   19.0703 O   0  0  0  0  0  0  0  0  0  0  0  0
  -12.4668   50.6261   21.1426 O   0  0  0  0  0  0  0  0  0  0  0  0
  -12.7620   51.1344   21.8723 H   0  0  0  0  0  0  0  0  0  0  0  0
  -20.3469   58.3175   14.2875 C   0  0  0  0  0  0  0  0  0  0  0  0
  -19.2011   58.9904   13.9749 F   0  0  0  0  0  0  0  0  0  0  0  0
  -21.1933   59.2420   14.8267 F   0  0  0  0  0  0  0  0  0  0  0  0
  -21.0732   58.0668   12.6535 P   0  0  0  0  0  0  0  0  0  0  0  0
  -20.3654   57.2300   11.6307 O   0  0  0  0  0  0  0  0  0  0  0  0
  -21.4098   59.5143   12.0218 O   0  0  0  0  0  0  0  0  0  0  0  0
  -22.5773   57.5145   12.8525 O   0  0  0  0  0  0  0  0  0  0  0  0
  -20.5831   59.9876   11.8393 H   0  0  0  0  0  0  0  0  0  0  0  0
  -22.5468   56.6243   13.2365 H   0  0  0  0  0  0  0  0  0  0  0  0
 17 18  1  0
 18 19  2  0
 18 16  1  0
 16 22  1  0
 22 23  1  0
 23 24  1  0
 24 25  2  0
 24 26  1  0
 16 12  1  0
 12 13  1  0
 13 14  2  0
 13  1  1  0
  1  2  2  0
  2  3  1  0
  3  4  2  0
  4  5  1  0
  5  6  2  0
  6 28  1  0
 28 29  1  0
 28 30  1  0
 28 31  1  0
 31 32  2  0
 31 33  1  0
 31 34  1  0
  6  7  1  0
  7  8  2  0
  8  9  1  0
  9 10  2  0
 10 11  1  0
 10  1  1  0
  8  3  1  0
 17 20  1  0
 17 21  1  0
 26 27  1  0
 12 15  1  0
 33 35  1  0
 34 36  1  0
M  END
> <minimizedAffinity>
-9.11967

> <CNNscore>
0.7330842018

> <CNNaffinity>
5.9567856789

> <CNN_VS>
4.3668255806

> <CNNaffinity_variance>
0.1353666633

$$$$



 36 37  0  0  0  0  0  0  0  0999 V2000
  -18.9703   53.7490   18.7682 C   0  0  0  0  0  0  0  0  0  0  0  0
  -19.6852   53.6657   17.5631 C   0  0  0  0  0  0  0  0  0  0  0  0
  -19.8621   54.7943   16.7437 C   0  0  0  0  0  0  0  0  0  0  0  0
  -20.5792   54.7175   15.5410 C   0  0  0  0  0  0  0  0  0  0  0  0
  -20.7501   55.8470   14.7372 C   0  0  0  0  0  0  0  0  0  0  0  0
  -20.2072   57.0798   15.1181 C   0  0  0  0  0  0  0  0  0  0  0  0
  -19.4840   57.1602   16.3187 C   0  0  0  0  0  0  0  0  0  0  0  0
  -19.3074   56.0327   17.1379 C   0  0  0  0  0  0  0  0  0  0  0  0
  -18.5914   56.1090   18.3404 C   0  0  0  0  0  0  0  0  0  0  0  0
  -18.4290   54.9782   19.1402 C   0  0  0  0  0  0  0  0  0  0  0  0
  -17.7300   55.1137   20.2777 F   0  0  0  0  0  0  0  0  0  0  0  0
  -19.9103   52.0945   20.3129 N   0  0  0  0  0  0  0  0  0  0  0  0
  -18.8233   52.5138   19.5868 C   0  0  0  0  0  0  0  0  0  0  0  0
  -17.7577   51.9041   19.5927 O   0  0  0  0  0  0  0  0  0  0  0  0
  -20.7385   52.6256   20.2753 H   0  0  0  0  0  0  0  0  0  0  0  0
  -19.8847   50.8899   21.1397 C   0  0  0  0  0  0  0  0  0  0  0  0
  -21.2469   48.8863   20.6800 N   0  0  0  0  0  0  0  0  0  0  0  0
  -21.2605   50.2145   20.9918 C   0  0  0  0  0  0  0  0  0  0  0  0
  -22.3253   50.8036   21.1683 O   0  0  0  0  0  0  0  0  0  0  0  0
  -22.0945   48.3973   20.5719 H   0  0  0  0  0  0  0  0  0  0  0  0
  -20.3894   48.4169   20.5632 H   0  0  0  0  0  0  0  0  0  0  0  0
  -19.5593   51.2588   22.5968 C   0  0  0  0  0  0  0  0  0  0  0  0
  -18.2561   50.6953   23.1548 C   0  0  0  0  0  0  0  0  0  0  0  0
  -17.0808   51.5751   22.8442 C   0  0  0  0  0  0  0  0  0  0  0  0
  -15.9364   51.1817   22.6749 O   0  0  0  0  0  0  0  0  0  0  0  0
  -17.4074   52.8704   22.7158 O   0  0  0  0  0  0  0  0  0  0  0  0
  -18.2927   53.1460   22.8510 H   0  0  0  0  0  0  0  0  0  0  0  0
  -20.3786   58.2926   14.2414 C   0  0  0  0  0  0  0  0  0  0  0  0
  -19.2064   58.9326   13.9597 F   0  0  0  0  0  0  0  0  0  0  0  0
  -21.2050   59.2361   14.7789 F   0  0  0  0  0  0  0  0  0  0  0  0
  -21.0821   58.0888   12.5910 P   0  0  0  0  0  0  0  0  0  0  0  0
  -20.4184   57.1908   11.5908 O   0  0  0  0  0  0  0  0  0  0  0  0
  -21.2861   59.5539   11.9433 O   0  0  0  0  0  0  0  0  0  0  0  0
  -22.6301   57.6599   12.7549 O   0  0  0  0  0  0  0  0  0  0  0  0
  -20.4199   59.9584   11.7793 H   0  0  0  0  0  0  0  0  0  0  0  0
  -22.6803   56.7729   13.1443 H   0  0  0  0  0  0  0  0  0  0  0  0
 17 18  1  0
 18 19  2  0
 18 16  1  0
 16 22  1  0
 22 23  1  0
 23 24  1  0
 24 25  2  0
 24 26  1  0
 16 12  1  0
 12 13  1  0
 13 14  2  0
 13  1  1  0
  1  2  2  0
  2  3  1  0
  3  4  2  0
  4  5  1  0
  5  6  2  0
  6 28  1  0
 28 29  1  0
 28 30  1  0
 28 31  1  0
 31 32  2  0
 31 33  1  0
 31 34  1  0
  6  7  1  0
  7  8  2  0
  8  9  1  0
  9 10  2  0
 10 11  1  0
 10  1  1  0
  8  3  1  0
 17 20  1  0
 17 21  1  0
 26 27  1  0
 12 15  1  0
 33 35  1  0
 34 36  1  0
M  END
> <minimizedAffinity>
-8.10555

> <CNNscore>
0.7295902967

> <CNNaffinity>
5.8130965233

> <CNN_VS>
4.2411789894

> <CNNaffinity_variance>
0.1117137074

$$$$



 36 37  0  0  0  0  0  0  0  0999 V2000
  -18.8926   53.9856   18.9612 C   0  0  0  0  0  0  0  0  0  0  0  0
  -19.5534   53.8341   17.7321 C   0  0  0  0  0  0  0  0  0  0  0  0
  -19.7371   54.9265   16.8664 C   0  0  0  0  0  0  0  0  0  0  0  0
  -20.4005   54.7815   15.6394 C   0  0  0  0  0  0  0  0  0  0  0  0
  -20.5789   55.8755   14.7895 C   0  0  0  0  0  0  0  0  0  0  0  0
  -20.0975   57.1403   15.1476 C   0  0  0  0  0  0  0  0  0  0  0  0
  -19.4280   57.2890   16.3725 C   0  0  0  0  0  0  0  0  0  0  0  0
  -19.2447   56.1977   17.2380 C   0  0  0  0  0  0  0  0  0  0  0  0
  -18.5824   56.3422   18.4648 C   0  0  0  0  0  0  0  0  0  0  0  0
  -18.4122   55.2464   19.3104 C   0  0  0  0  0  0  0  0  0  0  0  0
  -17.7664   55.4471   20.4695 F   0  0  0  0  0  0  0  0  0  0  0  0
  -17.4769   52.4941   20.2948 N   0  0  0  0  0  0  0  0  0  0  0  0
  -18.7348   52.7856   19.8286 C   0  0  0  0  0  0  0  0  0  0  0  0
  -19.7122   52.0973   20.1085 O   0  0  0  0  0  0  0  0  0  0  0  0
  -16.7281   53.0777   20.0339 H   0  0  0  0  0  0  0  0  0  0  0  0
  -17.2072   51.3506   21.1637 C   0  0  0  0  0  0  0  0  0  0  0  0
  -18.5816   49.3299   20.8335 N   0  0  0  0  0  0  0  0  0  0  0  0
  -17.5488   50.0839   20.3577 C   0  0  0  0  0  0  0  0  0  0  0  0
  -16.9636   49.7609   19.3256 O   0  0  0  0  0  0  0  0  0  0  0  0
  -18.8486   48.5077   20.3625 H   0  0  0  0  0  0  0  0  0  0  0  0
  -19.0599   49.6081   21.6478 H   0  0  0  0  0  0  0  0  0  0  0  0
  -18.0288   51.4685   22.4584 C   0  0  0  0  0  0  0  0  0  0  0  0
  -17.7050   52.6632   23.3500 C   0  0  0  0  0  0  0  0  0  0  0  0
  -18.9423   53.3752   23.8127 C   0  0  0  0  0  0  0  0  0  0  0  0
  -19.9314   53.5801   23.1251 O   0  0  0  0  0  0  0  0  0  0  0  0
  -18.8925   53.7406   25.1031 O   0  0  0  0  0  0  0  0  0  0  0  0
  -18.1216   53.5718   25.6084 H   0  0  0  0  0  0  0  0  0  0  0  0
  -20.2765   58.3150   14.2219 C   0  0  0  0  0  0  0  0  0  0  0  0
  -19.0992   58.8456   13.7794 F   0  0  0  0  0  0  0  0  0  0  0  0
  -20.9684   59.3472   14.7854 F   0  0  0  0  0  0  0  0  0  0  0  0
  -21.1701   58.0803   12.6706 P   0  0  0  0  0  0  0  0  0  0  0  0
  -21.6649   59.2642   11.8954 O   0  0  0  0  0  0  0  0  0  0  0  0
  -22.3973   57.0664   12.9417 O   0  0  0  0  0  0  0  0  0  0  0  0
  -20.2697   57.1464   11.7093 O   0  0  0  0  0  0  0  0  0  0  0  0
  -23.0466   57.4927   13.5227 H   0  0  0  0  0  0  0  0  0  0  0  0
  -19.4682   57.6273   11.4498 H   0  0  0  0  0  0  0  0  0  0  0  0
 17 18  1  0
 18 19  2  0
 18 16  1  0
 16 22  1  0
 22 23  1  0
 23 24  1  0
 24 25  2  0
 24 26  1  0
 16 12  1  0
 12 13  1  0
 13 14  2  0
 13  1  1  0
  1  2  2  0
  2  3  1  0
  3  4  2  0
  4  5  1  0
  5  6  2  0
  6 28  1  0
 28 29  1  0
 28 30  1  0
 28 31  1  0
 31 32  2  0
 31 33  1  0
 31 34  1  0
  6  7  1  0
  7  8  2  0
  8  9  1  0
  9 10  2  0
 10 11  1  0
 10  1  1  0
  8  3  1  0
 17 20  1  0
 17 21  1  0
 26 27  1  0
 12 15  1  0
 33 35  1  0
 34 36  1  0
M  END
> <minimizedAffinity>
-7.65799

> <CNNscore>
0.7031895518

> <CNNaffinity>
5.7231650352

> <CNN_VS>
4.0244698524

> <CNNaffinity_variance>
0.1114094555

$$$$



 36 37  0  0  0  0  0  0  0  0999 V2000
  -19.2214   54.2108   18.5371 C   0  0  0  0  0  0  0  0  0  0  0  0
  -18.8460   55.4199   17.9308 C   0  0  0  0  0  0  0  0  0  0  0  0
  -19.4847   55.8770   16.7647 C   0  0  0  0  0  0  0  0  0  0  0  0
  -19.1106   57.0820   16.1527 C   0  0  0  0  0  0  0  0  0  0  0  0
  -19.7513   57.5237   14.9928 C   0  0  0  0  0  0  0  0  0  0  0  0
  -20.7816   56.7699   14.4183 C   0  0  0  0  0  0  0  0  0  0  0  0
  -21.1631   55.5656   15.0307 C   0  0  0  0  0  0  0  0  0  0  0  0
  -20.5248   55.1083   16.1956 C   0  0  0  0  0  0  0  0  0  0  0  0
  -20.8977   53.9038   16.8075 C   0  0  0  0  0  0  0  0  0  0  0  0
  -20.2502   53.4667   17.9627 C   0  0  0  0  0  0  0  0  0  0  0  0
  -20.6550   52.3075   18.5041 F   0  0  0  0  0  0  0  0  0  0  0  0
  -17.8292   52.5904   19.7386 N   0  0  0  0  0  0  0  0  0  0  0  0
  -18.5007   53.7874   19.7695 C   0  0  0  0  0  0  0  0  0  0  0  0
  -18.5161   54.5036   20.7665 O   0  0  0  0  0  0  0  0  0  0  0  0
  -17.8554   52.0539   18.9135 H   0  0  0  0  0  0  0  0  0  0  0  0
  -17.0772   52.0825   20.8839 C   0  0  0  0  0  0  0  0  0  0  0  0
  -19.3076   51.8064   21.8987 N   0  0  0  0  0  0  0  0  0  0  0  0
  -18.0628   51.2699   21.7436 C   0  0  0  0  0  0  0  0  0  0  0  0
  -17.7835   50.1840   22.2482 O   0  0  0  0  0  0  0  0  0  0  0  0
  -19.9833   51.3346   22.4373 H   0  0  0  0  0  0  0  0  0  0  0  0
  -19.5302   52.6652   21.4721 H   0  0  0  0  0  0  0  0  0  0  0  0
  -16.4416   53.2510   21.6558 C   0  0  0  0  0  0  0  0  0  0  0  0
  -14.9251   53.3770   21.5499 C   0  0  0  0  0  0  0  0  0  0  0  0
  -14.2519   52.0392   21.4524 C   0  0  0  0  0  0  0  0  0  0  0  0
  -13.0772   51.8254   21.7122 O   0  0  0  0  0  0  0  0  0  0  0  0
  -15.0851   51.0518   21.0895 O   0  0  0  0  0  0  0  0  0  0  0  0
  -15.9817   51.2428   20.8956 H   0  0  0  0  0  0  0  0  0  0  0  0
  -21.4823   57.2566   13.1769 C   0  0  0  0  0  0  0  0  0  0  0  0
  -22.5627   56.4991   12.8275 F   0  0  0  0  0  0  0  0  0  0  0  0
  -20.6739   57.2920   12.0782 F   0  0  0  0  0  0  0  0  0  0  0  0
  -22.1891   58.9181   13.1636 P   0  0  0  0  0  0  0  0  0  0  0  0
  -23.6752   59.1090   13.2136 O   0  0  0  0  0  0  0  0  0  0  0  0
  -21.5891   59.7132   11.8926 O   0  0  0  0  0  0  0  0  0  0  0  0
  -21.4977   59.7669   14.3504 O   0  0  0  0  0  0  0  0  0  0  0  0
  -21.9210   59.3120   11.0742 H   0  0  0  0  0  0  0  0  0  0  0  0
  -21.7673   59.4024   15.2080 H   0  0  0  0  0  0  0  0  0  0  0  0
 17 18  1  0
 18 19  2  0
 18 16  1  0
 16 22  1  0
 22 23  1  0
 23 24  1  0
 24 25  2  0
 24 26  1  0
 16 12  1  0
 12 13  1  0
 13 14  2  0
 13  1  1  0
  1  2  2  0
  2  3  1  0
  3  4  2  0
  4  5  1  0
  5  6  2  0
  6 28  1  0
 28 29  1  0
 28 30  1  0
 28 31  1  0
 31 32  2  0
 31 33  1  0
 31 34  1  0
  6  7  1  0
  7  8  2  0
  8  9  1  0
  9 10  2  0
 10 11  1  0
 10  1  1  0
  8  3  1  0
 17 20  1  0
 17 21  1  0
 26 27  1  0
 12 15  1  0
 33 35  1  0
 34 36  1  0
M  END
> <minimizedAffinity>
-8.47723

> <CNNscore>
0.6407892704

> <CNNaffinity>
5.8574805260

> <CNN_VS>
3.7534105778

> <CNNaffinity_variance>
0.1780885011

$$$$



 36 37  0  0  0  0  0  0  0  0999 V2000
  -19.2314   54.3782   18.6843 C   0  0  0  0  0  0  0  0  0  0  0  0
  -18.8738   55.5872   18.0672 C   0  0  0  0  0  0  0  0  0  0  0  0
  -19.4866   56.0019   16.8717 C   0  0  0  0  0  0  0  0  0  0  0  0
  -19.1300   57.2066   16.2489 C   0  0  0  0  0  0  0  0  0  0  0  0
  -19.7445   57.6059   15.0598 C   0  0  0  0  0  0  0  0  0  0  0  0
  -20.7304   56.8088   14.4661 C   0  0  0  0  0  0  0  0  0  0  0  0
  -21.0943   55.6045   15.0890 C   0  0  0  0  0  0  0  0  0  0  0  0
  -20.4819   55.1897   16.2833 C   0  0  0  0  0  0  0  0  0  0  0  0
  -20.8374   53.9854   16.9060 C   0  0  0  0  0  0  0  0  0  0  0  0
  -20.2161   53.5909   18.0905 C   0  0  0  0  0  0  0  0  0  0  0  0
  -20.6024   52.4295   18.6408 F   0  0  0  0  0  0  0  0  0  0  0  0
  -17.4961   53.1135   19.8661 N   0  0  0  0  0  0  0  0  0  0  0  0
  -18.5401   54.0012   19.9482 C   0  0  0  0  0  0  0  0  0  0  0  0
  -18.9056   54.4846   21.0158 O   0  0  0  0  0  0  0  0  0  0  0  0
  -17.2493   52.7529   18.9838 H   0  0  0  0  0  0  0  0  0  0  0  0
  -16.7373   52.6836   21.0385 C   0  0  0  0  0  0  0  0  0  0  0  0
  -16.2722   54.1725   22.9485 N   0  0  0  0  0  0  0  0  0  0  0  0
  -16.0615   53.9385   21.6209 C   0  0  0  0  0  0  0  0  0  0  0  0
  -15.3437   54.6878   20.9610 O   0  0  0  0  0  0  0  0  0  0  0  0
  -15.8669   54.9591   23.3801 H   0  0  0  0  0  0  0  0  0  0  0  0
  -16.8294   53.5547   23.4748 H   0  0  0  0  0  0  0  0  0  0  0  0
  -15.7251   51.5964   20.6403 C   0  0  0  0  0  0  0  0  0  0  0  0
  -14.2734   51.8587   21.0290 C   0  0  0  0  0  0  0  0  0  0  0  0
  -13.3139   51.0359   20.2202 C   0  0  0  0  0  0  0  0  0  0  0  0
  -13.5871   49.9789   19.6713 O   0  0  0  0  0  0  0  0  0  0  0  0
  -12.1007   51.5978   20.1044 O   0  0  0  0  0  0  0  0  0  0  0  0
  -11.9170   52.4091   20.5357 H   0  0  0  0  0  0  0  0  0  0  0  0
  -21.4033   57.2495   13.1927 C   0  0  0  0  0  0  0  0  0  0  0  0
  -22.5402   56.5506   12.9059 F   0  0  0  0  0  0  0  0  0  0  0  0
  -20.6040   57.1394   12.0923 F   0  0  0  0  0  0  0  0  0  0  0  0
  -21.9845   58.9533   13.0526 P   0  0  0  0  0  0  0  0  0  0  0  0
  -21.6598   59.7663   11.8357 O   0  0  0  0  0  0  0  0  0  0  0  0
  -21.5193   59.7570   14.3738 O   0  0  0  0  0  0  0  0  0  0  0  0
  -23.5810   58.9602   13.2936 O   0  0  0  0  0  0  0  0  0  0  0  0
  -20.5529   59.8399   14.3783 H   0  0  0  0  0  0  0  0  0  0  0  0
  -24.0205   58.4999   12.5616 H   0  0  0  0  0  0  0  0  0  0  0  0
 17 18  1  0
 18 19  2  0
 18 16  1  0
 16 22  1  0
 22 23  1  0
 23 24  1  0
 24 25  2  0
 24 26  1  0
 16 12  1  0
 12 13  1  0
 13 14  2  0
 13  1  1  0
  1  2  2  0
  2  3  1  0
  3  4  2  0
  4  5  1  0
  5  6  2  0
  6 28  1  0
 28 29  1  0
 28 30  1  0
 28 31  1  0
 31 32  2  0
 31 33  1  0
 31 34  1  0
  6  7  1  0
  7  8  2  0
  8  9  1  0
  9 10  2  0
 10 11  1  0
 10  1  1  0
  8  3  1  0
 17 20  1  0
 17 21  1  0
 26 27  1  0
 12 15  1  0
 33 35  1  0
 34 36  1  0
M  END
> <minimizedAffinity>
-8.62315

> <CNNscore>
0.5770285130

> <CNNaffinity>
5.6555886269

> <CNN_VS>
3.2634358406

> <CNNaffinity_variance>
0.0699328780

$$$$
