


 16 18  0  0  0  0  0  0  0  0999 V2000
   22.7501   35.0964   43.8878 O   0  0  0  0  0  0  0  0  0  0  0  0
   23.5823   35.6301   43.1720 C   0  0  0  0  0  0  0  0  0  0  0  0
   24.9107   35.8491   43.5141 N   0  0  0  0  0  0  0  0  0  0  0  0
   25.6012   36.4744   42.4897 C   0  0  0  0  0  0  0  0  0  0  0  0
   26.9293   36.8433   42.4812 C   0  0  0  0  0  0  0  0  0  0  0  0
   27.4128   37.4675   41.3294 C   0  0  0  0  0  0  0  0  0  0  0  0
   26.5665   37.7038   40.2305 C   0  0  0  0  0  0  0  0  0  0  0  0
   25.2222   37.3201   40.2644 C   0  0  0  0  0  0  0  0  0  0  0  0
   24.7494   36.7005   41.4092 C   0  0  0  0  0  0  0  0  0  0  0  0
   23.3719   36.1815   41.7435 C   0  0  0  0  0  0  0  0  0  0  0  0
   22.2775   37.2477   41.7114 C   0  0  0  0  0  0  0  0  0  0  0  0
   21.4159   36.8523   40.5245 C   0  0  0  0  0  0  0  0  0  0  0  0
   21.4772   35.3888   40.4908 N   0  0  0  0  0  0  0  0  0  0  0  0
   22.8834   35.0696   40.8103 C   0  0  0  0  0  0  0  0  0  0  0  0
   25.3108   35.5922   44.3761 H   0  0  0  0  0  0  0  0  0  0  0  0
   21.2295   35.0390   39.5652 H   0  0  0  0  0  0  0  0  0  0  0  0
  1  2  2  0
  2  3  1  0
  3  4  1  0
  4  5  2  0
  5  6  1  0
  6  7  2  0
  7  8  1  0
  8  9  2  0
  9 10  1  0
 10 11  1  0
 11 12  1  0
 12 13  1  0
 13 14  1  0
 10  2  1  0
  9  4  1  0
 14 10  1  0
  3 15  1  0
 13 16  1  0
M  END
> <minimizedAffinity>
-6.94986

> <CNNscore>
0.9862308502

> <CNNaffinity>
4.9840188026

> <CNN_VS>
4.9153928757

> <CNNaffinity_variance>
0.3535283804

$$$$



 16 18  0  0  0  0  0  0  0  0999 V2000
   22.1248   34.4784   40.8651 O   0  0  0  0  0  0  0  0  0  0  0  0
   23.1643   35.0750   41.0959 C   0  0  0  0  0  0  0  0  0  0  0  0
   23.9338   35.7392   40.1490 N   0  0  0  0  0  0  0  0  0  0  0  0
   25.0534   36.3183   40.7218 C   0  0  0  0  0  0  0  0  0  0  0  0
   26.0333   37.0500   40.0856 C   0  0  0  0  0  0  0  0  0  0  0  0
   27.0786   37.5392   40.8717 C   0  0  0  0  0  0  0  0  0  0  0  0
   27.1167   37.2869   42.2554 C   0  0  0  0  0  0  0  0  0  0  0  0
   26.1102   36.5411   42.8769 C   0  0  0  0  0  0  0  0  0  0  0  0
   25.0758   36.0599   42.0918 C   0  0  0  0  0  0  0  0  0  0  0  0
   23.8664   35.2365   42.4633 C   0  0  0  0  0  0  0  0  0  0  0  0
   24.2003   33.8804   43.0839 C   0  0  0  0  0  0  0  0  0  0  0  0
   23.7307   34.0105   44.5226 C   0  0  0  0  0  0  0  0  0  0  0  0
   22.5615   34.8909   44.4547 N   0  0  0  0  0  0  0  0  0  0  0  0
   22.9314   35.9221   43.4641 C   0  0  0  0  0  0  0  0  0  0  0  0
   23.7112   35.7915   39.1914 H   0  0  0  0  0  0  0  0  0  0  0  0
   22.3759   35.3145   45.3638 H   0  0  0  0  0  0  0  0  0  0  0  0
  1  2  2  0
  2  3  1  0
  3  4  1  0
  4  5  2  0
  5  6  1  0
  6  7  2  0
  7  8  1  0
  8  9  2  0
  9 10  1  0
 10 11  1  0
 11 12  1  0
 12 13  1  0
 13 14  1  0
 10  2  1  0
  9  4  1  0
 14 10  1  0
  3 15  1  0
 13 16  1  0
M  END
> <minimizedAffinity>
-6.59016

> <CNNscore>
0.7733737230

> <CNNaffinity>
4.1478676796

> <CNN_VS>
3.2078518867

> <CNNaffinity_variance>
0.4313574135

$$$$



 16 18  0  0  0  0  0  0  0  0999 V2000
   24.9262   33.4307   44.2705 O   0  0  0  0  0  0  0  0  0  0  0  0
   25.1478   34.3284   43.4739 C   0  0  0  0  0  0  0  0  0  0  0  0
   26.4086   34.7920   43.1198 N   0  0  0  0  0  0  0  0  0  0  0  0
   26.3295   35.8170   42.1925 C   0  0  0  0  0  0  0  0  0  0  0  0
   27.3759   36.5099   41.6221 C   0  0  0  0  0  0  0  0  0  0  0  0
   27.0549   37.5125   40.7046 C   0  0  0  0  0  0  0  0  0  0  0  0
   25.7136   37.7928   40.3858 C   0  0  0  0  0  0  0  0  0  0  0  0
   24.6699   37.0754   40.9789 C   0  0  0  0  0  0  0  0  0  0  0  0
   24.9951   36.0818   41.8870 C   0  0  0  0  0  0  0  0  0  0  0  0
   24.1086   35.1528   42.6806 C   0  0  0  0  0  0  0  0  0  0  0  0
   23.1314   35.8669   43.6137 C   0  0  0  0  0  0  0  0  0  0  0  0
   21.7689   35.5780   43.0077 C   0  0  0  0  0  0  0  0  0  0  0  0
   21.8973   34.2409   42.4225 N   0  0  0  0  0  0  0  0  0  0  0  0
   23.2443   34.2297   41.8165 C   0  0  0  0  0  0  0  0  0  0  0  0
   27.2520   34.4365   43.4826 H   0  0  0  0  0  0  0  0  0  0  0  0
   21.1813   34.0879   41.7124 H   0  0  0  0  0  0  0  0  0  0  0  0
  1  2  2  0
  2  3  1  0
  3  4  1  0
  4  5  2  0
  5  6  1  0
  6  7  2  0
  7  8  1  0
  8  9  2  0
  9 10  1  0
 10 11  1  0
 11 12  1  0
 12 13  1  0
 13 14  1  0
 10  2  1  0
  9  4  1  0
 14 10  1  0
  3 15  1  0
 13 16  1  0
M  END
> <minimizedAffinity>
-6.30733

> <CNNscore>
0.7437889576

> <CNNaffinity>
4.0170555115

> <CNN_VS>
2.9878416061

> <CNNaffinity_variance>
0.5104851723

$$$$



 16 18  0  0  0  0  0  0  0  0999 V2000
   21.8706   37.8198   40.2204 O   0  0  0  0  0  0  0  0  0  0  0  0
   21.2955   36.9643   40.8738 C   0  0  0  0  0  0  0  0  0  0  0  0
   19.9171   36.8390   40.9926 N   0  0  0  0  0  0  0  0  0  0  0  0
   19.5735   35.7693   41.8019 C   0  0  0  0  0  0  0  0  0  0  0  0
   18.3040   35.3514   42.1393 C   0  0  0  0  0  0  0  0  0  0  0  0
   18.1980   34.2396   42.9777 C   0  0  0  0  0  0  0  0  0  0  0  0
   19.3492   33.5835   43.4508 C   0  0  0  0  0  0  0  0  0  0  0  0
   20.6262   34.0278   43.0939 C   0  0  0  0  0  0  0  0  0  0  0  0
   20.7243   35.1301   42.2614 C   0  0  0  0  0  0  0  0  0  0  0  0
   21.9398   35.8360   41.7110 C   0  0  0  0  0  0  0  0  0  0  0  0
   22.8742   36.3982   42.7817 C   0  0  0  0  0  0  0  0  0  0  0  0
   24.1282   35.5504   42.6551 C   0  0  0  0  0  0  0  0  0  0  0  0
   24.2166   35.2265   41.2290 N   0  0  0  0  0  0  0  0  0  0  0  0
   22.8227   34.9530   40.8242 C   0  0  0  0  0  0  0  0  0  0  0  0
   19.2666   37.4355   40.5564 H   0  0  0  0  0  0  0  0  0  0  0  0
   24.8026   34.4048   41.0816 H   0  0  0  0  0  0  0  0  0  0  0  0
  1  2  2  0
  2  3  1  0
  3  4  1  0
  4  5  2  0
  5  6  1  0
  6  7  2  0
  7  8  1  0
  8  9  2  0
  9 10  1  0
 10 11  1  0
 11 12  1  0
 12 13  1  0
 13 14  1  0
 10  2  1  0
  9  4  1  0
 14 10  1  0
  3 15  1  0
 13 16  1  0
M  END
> <minimizedAffinity>
-6.28436

> <CNNscore>
0.6501396298

> <CNNaffinity>
3.9925785065

> <CNN_VS>
2.5957334042

> <CNNaffinity_variance>
0.4373713434

$$$$



 16 18  0  0  0  0  0  0  0  0999 V2000
   19.8921   34.6060   42.3207 O   0  0  0  0  0  0  0  0  0  0  0  0
   21.0261   34.2875   42.6406 C   0  0  0  0  0  0  0  0  0  0  0  0
   21.3585   33.1917   43.4271 N   0  0  0  0  0  0  0  0  0  0  0  0
   22.7275   33.0972   43.6117 C   0  0  0  0  0  0  0  0  0  0  0  0
   23.4088   32.1406   44.3333 C   0  0  0  0  0  0  0  0  0  0  0  0
   24.8003   32.2469   44.3828 C   0  0  0  0  0  0  0  0  0  0  0  0
   25.4656   33.2936   43.7184 C   0  0  0  0  0  0  0  0  0  0  0  0
   24.7509   34.2521   42.9930 C   0  0  0  0  0  0  0  0  0  0  0  0
   23.3713   34.1402   42.9471 C   0  0  0  0  0  0  0  0  0  0  0  0
   22.3415   35.0047   42.2610 C   0  0  0  0  0  0  0  0  0  0  0  0
   22.3384   36.4608   42.7253 C   0  0  0  0  0  0  0  0  0  0  0  0
   22.8283   37.2329   41.5124 C   0  0  0  0  0  0  0  0  0  0  0  0
   22.3193   36.4817   40.3620 N   0  0  0  0  0  0  0  0  0  0  0  0
   22.4951   35.0642   40.7383 C   0  0  0  0  0  0  0  0  0  0  0  0
   20.7034   32.5617   43.8055 H   0  0  0  0  0  0  0  0  0  0  0  0
   22.8555   36.7009   39.5225 H   0  0  0  0  0  0  0  0  0  0  0  0
  1  2  2  0
  2  3  1  0
  3  4  1  0
  4  5  2  0
  5  6  1  0
  6  7  2  0
  7  8  1  0
  8  9  2  0
  9 10  1  0
 10 11  1  0
 11 12  1  0
 12 13  1  0
 13 14  1  0
 10  2  1  0
  9  4  1  0
 14 10  1  0
  3 15  1  0
 13 16  1  0
M  END
> <minimizedAffinity>
-5.64366

> <CNNscore>
0.6401376128

> <CNNaffinity>
4.3006043434

> <CNN_VS>
2.7529785633

> <CNNaffinity_variance>
0.4765638113

$$$$



 16 18  0  0  0  0  0  0  0  0999 V2000
   19.7988   35.7720   40.6562 O   0  0  0  0  0  0  0  0  0  0  0  0
   20.9250   36.0880   41.0046 C   0  0  0  0  0  0  0  0  0  0  0  0
   21.7868   36.9050   40.2838 N   0  0  0  0  0  0  0  0  0  0  0  0
   22.9919   37.0772   40.9434 C   0  0  0  0  0  0  0  0  0  0  0  0
   24.0749   37.8199   40.5240 C   0  0  0  0  0  0  0  0  0  0  0  0
   25.1935   37.8482   41.3594 C   0  0  0  0  0  0  0  0  0  0  0  0
   25.2002   37.1422   42.5764 C   0  0  0  0  0  0  0  0  0  0  0  0
   24.0884   36.3955   42.9790 C   0  0  0  0  0  0  0  0  0  0  0  0
   22.9820   36.3725   42.1465 C   0  0  0  0  0  0  0  0  0  0  0  0
   21.6552   35.6692   42.3009 C   0  0  0  0  0  0  0  0  0  0  0  0
   21.7633   34.1491   42.4154 C   0  0  0  0  0  0  0  0  0  0  0  0
   21.3336   33.8580   43.8430 C   0  0  0  0  0  0  0  0  0  0  0  0
   20.3271   34.8791   44.1446 N   0  0  0  0  0  0  0  0  0  0  0  0
   20.8558   36.1134   43.5294 C   0  0  0  0  0  0  0  0  0  0  0  0
   21.5683   37.3104   39.4136 H   0  0  0  0  0  0  0  0  0  0  0  0
   20.2221   34.9951   45.1526 H   0  0  0  0  0  0  0  0  0  0  0  0
  1  2  2  0
  2  3  1  0
  3  4  1  0
  4  5  2  0
  5  6  1  0
  6  7  2  0
  7  8  1  0
  8  9  2  0
  9 10  1  0
 10 11  1  0
 11 12  1  0
 12 13  1  0
 13 14  1  0
 10  2  1  0
  9  4  1  0
 14 10  1  0
  3 15  1  0
 13 16  1  0
M  END
> <minimizedAffinity>
-6.42144

> <CNNscore>
0.5572812557

> <CNNaffinity>
4.0279006958

> <CNN_VS>
2.2446734905

> <CNNaffinity_variance>
0.3283797204

$$$$



 16 18  0  0  0  0  0  0  0  0999 V2000
   20.6994   37.4246   40.2120 O   0  0  0  0  0  0  0  0  0  0  0  0
   20.8966   36.8796   41.2862 C   0  0  0  0  0  0  0  0  0  0  0  0
   19.9523   36.7304   42.2940 N   0  0  0  0  0  0  0  0  0  0  0  0
   20.4806   36.0686   43.3894 C   0  0  0  0  0  0  0  0  0  0  0  0
   19.8339   35.7496   44.5642 C   0  0  0  0  0  0  0  0  0  0  0  0
   20.5729   35.0759   45.5389 C   0  0  0  0  0  0  0  0  0  0  0  0
   21.9218   34.7434   45.3166 C   0  0  0  0  0  0  0  0  0  0  0  0
   22.5551   35.0789   44.1157 C   0  0  0  0  0  0  0  0  0  0  0  0
   21.8163   35.7458   43.1529 C   0  0  0  0  0  0  0  0  0  0  0  0
   22.2119   36.2361   41.7811 C   0  0  0  0  0  0  0  0  0  0  0  0
   23.3605   37.2441   41.7849 C   0  0  0  0  0  0  0  0  0  0  0  0
   24.5054   36.4972   41.1226 C   0  0  0  0  0  0  0  0  0  0  0  0
   23.8605   35.6224   40.1400 N   0  0  0  0  0  0  0  0  0  0  0  0
   22.6519   35.1224   40.8262 C   0  0  0  0  0  0  0  0  0  0  0  0
   19.0244   37.0543   42.2366 H   0  0  0  0  0  0  0  0  0  0  0  0
   24.4763   34.8500   39.8860 H   0  0  0  0  0  0  0  0  0  0  0  0
  1  2  2  0
  2  3  1  0
  3  4  1  0
  4  5  2  0
  5  6  1  0
  6  7  2  0
  7  8  1  0
  8  9  2  0
  9 10  1  0
 10 11  1  0
 11 12  1  0
 12 13  1  0
 13 14  1  0
 10  2  1  0
  9  4  1  0
 14 10  1  0
  3 15  1  0
 13 16  1  0
M  END
> <minimizedAffinity>
-6.59401

> <CNNscore>
0.5071340203

> <CNNaffinity>
4.0788617134

> <CNN_VS>
2.0685296059

> <CNNaffinity_variance>
0.3344795704

$$$$



 16 18  0  0  0  0  0  0  0  0999 V2000
   18.2505   38.2143   42.9697 O   0  0  0  0  0  0  0  0  0  0  0  0
   18.0644   37.0281   43.1889 C   0  0  0  0  0  0  0  0  0  0  0  0
   16.8668   36.4714   43.6197 N   0  0  0  0  0  0  0  0  0  0  0  0
   16.9732   35.1000   43.7771 C   0  0  0  0  0  0  0  0  0  0  0  0
   15.9886   34.2277   44.1892 C   0  0  0  0  0  0  0  0  0  0  0  0
   16.3271   32.8757   44.2768 C   0  0  0  0  0  0  0  0  0  0  0  0
   17.6245   32.4370   43.9546 C   0  0  0  0  0  0  0  0  0  0  0  0
   18.6059   33.3426   43.5393 C   0  0  0  0  0  0  0  0  0  0  0  0
   18.2633   34.6816   43.4535 C   0  0  0  0  0  0  0  0  0  0  0  0
   19.0877   35.8787   43.0460 C   0  0  0  0  0  0  0  0  0  0  0  0
   20.3198   36.1154   43.9187 C   0  0  0  0  0  0  0  0  0  0  0  0
   21.4870   35.8269   42.9904 C   0  0  0  0  0  0  0  0  0  0  0  0
   21.0234   36.2501   41.6665 N   0  0  0  0  0  0  0  0  0  0  0  0
   19.6145   35.8105   41.6094 C   0  0  0  0  0  0  0  0  0  0  0  0
   16.0458   36.9870   43.7914 H   0  0  0  0  0  0  0  0  0  0  0  0
   21.5711   35.8012   40.9323 H   0  0  0  0  0  0  0  0  0  0  0  0
  1  2  2  0
  2  3  1  0
  3  4  1  0
  4  5  2  0
  5  6  1  0
  6  7  2  0
  7  8  1  0
  8  9  2  0
  9 10  1  0
 10 11  1  0
 11 12  1  0
 12 13  1  0
 13 14  1  0
 10  2  1  0
  9  4  1  0
 14 10  1  0
  3 15  1  0
 13 16  1  0
M  END
> <minimizedAffinity>
-5.35505

> <CNNscore>
0.4991013706

> <CNNaffinity>
3.9518649578

> <CNN_VS>
1.9723812342

> <CNNaffinity_variance>
0.3233791888

$$$$



 16 18  0  0  0  0  0  0  0  0999 V2000
   28.2817   31.5595   38.5008 O   0  0  0  0  0  0  0  0  0  0  0  0
   28.1281   32.4989   39.2648 C   0  0  0  0  0  0  0  0  0  0  0  0
   28.0212   33.8309   38.8852 N   0  0  0  0  0  0  0  0  0  0  0  0
   27.8528   34.6585   39.9823 C   0  0  0  0  0  0  0  0  0  0  0  0
   27.7138   36.0299   39.9805 C   0  0  0  0  0  0  0  0  0  0  0  0
   27.5564   36.6588   41.2173 C   0  0  0  0  0  0  0  0  0  0  0  0
   27.5427   35.9098   42.4082 C   0  0  0  0  0  0  0  0  0  0  0  0
   27.6861   34.5190   42.3830 C   0  0  0  0  0  0  0  0  0  0  0  0
   27.8407   33.9014   41.1532 C   0  0  0  0  0  0  0  0  0  0  0  0
   28.0172   32.4432   40.8054 C   0  0  0  0  0  0  0  0  0  0  0  0
   29.2521   31.7963   41.4318 C   0  0  0  0  0  0  0  0  0  0  0  0
   28.6795   30.8062   42.4314 C   0  0  0  0  0  0  0  0  0  0  0  0
   27.4288   30.3444   41.8238 N   0  0  0  0  0  0  0  0  0  0  0  0
   26.8391   31.5579   41.2227 C   0  0  0  0  0  0  0  0  0  0  0  0
   28.0603   34.1466   37.9535 H   0  0  0  0  0  0  0  0  0  0  0  0
   26.8068   29.9541   42.5317 H   0  0  0  0  0  0  0  0  0  0  0  0
  1  2  2  0
  2  3  1  0
  3  4  1  0
  4  5  2  0
  5  6  1  0
  6  7  2  0
  7  8  1  0
  8  9  2  0
  9 10  1  0
 10 11  1  0
 11 12  1  0
 12 13  1  0
 13 14  1  0
 10  2  1  0
  9  4  1  0
 14 10  1  0
  3 15  1  0
 13 16  1  0
M  END
> <minimizedAffinity>
-6.37727

> <CNNscore>
0.4691357017

> <CNNaffinity>
3.6996514797

> <CNN_VS>
1.7356386185

> <CNNaffinity_variance>
1.0609701872

$$$$
