


 28 29  0  0  0  0  0  0  0  0999 V2000
   29.3097   23.7825   -0.3871 C   0  0  0  0  0  0  0  0  0  0  0  0
   30.1813   24.2603    0.5217 C   0  0  0  0  0  0  0  0  0  0  0  0
   30.4665   23.6527    1.8707 C   0  0  0  0  0  0  0  0  0  0  0  0
   31.7267   22.9986    1.7392 O   0  0  0  0  0  0  0  0  0  0  0  0
   29.4097   22.6375    2.2964 C   0  0  0  0  0  0  0  0  0  0  0  0
   29.0739   21.6995    1.1518 C   0  0  0  0  0  0  0  0  0  0  0  0
   28.0513   20.8060    1.5874 O   0  0  0  0  0  0  0  0  0  0  0  0
   28.6149   22.4894   -0.0748 C   0  0  0  0  0  0  0  0  0  0  0  0
   27.7254   22.0537   -0.8062 O   0  0  0  0  0  0  0  0  0  0  0  0
   32.3990   23.6434    1.4686 H   0  0  0  0  0  0  0  0  0  0  0  0
   27.2650   21.3139    1.8417 H   0  0  0  0  0  0  0  0  0  0  0  0
   30.5348   24.7629    2.9484 C   0  0  0  0  0  0  0  0  0  0  0  0
   31.1639   25.8070    2.9102 O   0  0  0  0  0  0  0  0  0  0  0  0
   29.7569   24.4668    4.0191 O   0  0  0  0  0  0  0  0  0  0  0  0
   29.2766   23.6626    4.0412 H   0  0  0  0  0  0  0  0  0  0  0  0
   28.9622   24.3987   -1.7238 C   0  0  0  0  0  0  0  0  0  0  0  0
   29.9299   25.4614   -2.2511 C   0  0  0  0  0  0  0  0  0  0  0  0
   28.4825   26.5561   -3.8335 O   0  0  0  0  0  0  0  0  0  0  0  0
   29.2003   26.6559   -2.8464 C   0  0  0  0  0  0  0  0  0  0  0  0
   29.4705   27.8163   -2.1369 N   0  0  0  0  0  0  0  0  0  0  0  0
   30.0746   27.7238   -1.3651 H   0  0  0  0  0  0  0  0  0  0  0  0
   28.9802   29.1137   -2.3927 C   0  0  0  0  0  0  0  0  0  0  0  0
   29.4789   30.2717   -1.7915 C   0  0  0  0  0  0  0  0  0  0  0  0
   28.9354   31.5243   -2.1002 C   0  0  0  0  0  0  0  0  0  0  0  0
   27.8895   31.6220   -3.0130 C   0  0  0  0  0  0  0  0  0  0  0  0
   27.1567   33.3132   -3.4290 Br  0  0  0  0  0  0  0  0  0  0  0  0
   27.3811   30.4782   -3.6209 C   0  0  0  0  0  0  0  0  0  0  0  0
   27.9263   29.2285   -3.3103 C   0  0  0  0  0  0  0  0  0  0  0  0
 18 19  2  0
 19 17  1  0
 17 16  1  0
 16  1  1  0
  1  2  2  0
  2  3  1  0
  3  4  1  0
  3 12  1  0
 12 13  2  0
 12 14  1  0
  3  5  1  0
  5  6  1  0
  6  7  1  0
  6  8  1  0
  8  9  2  0
 19 20  1  0
 20 22  1  0
 22 23  2  0
 23 24  1  0
 24 25  2  0
 25 26  1  0
 25 27  1  0
 27 28  2  0
  8  1  1  0
 28 22  1  0
  4 10  1  0
 14 15  1  0
  7 11  1  0
 20 21  1  0
M  END
> <minimizedAffinity>
-9.11258

> <CNNscore>
0.9262604713

> <CNNaffinity>
6.6506447792

> <CNN_VS>
6.1602292061

> <CNNaffinity_variance>
0.0049651512

$$$$



 28 29  0  0  0  0  0  0  0  0999 V2000
   30.0270   24.6423    0.0809 C   0  0  0  0  0  0  0  0  0  0  0  0
   29.1864   23.6093    0.2812 C   0  0  0  0  0  0  0  0  0  0  0  0
   28.9303   22.9271    1.6000 C   0  0  0  0  0  0  0  0  0  0  0  0
   27.6589   23.4015    2.0379 O   0  0  0  0  0  0  0  0  0  0  0  0
   29.9854   23.2592    2.6513 C   0  0  0  0  0  0  0  0  0  0  0  0
   30.2783   24.7481    2.6670 C   0  0  0  0  0  0  0  0  0  0  0  0
   31.3010   24.9954    3.6296 O   0  0  0  0  0  0  0  0  0  0  0  0
   30.7138   25.2258    1.2809 C   0  0  0  0  0  0  0  0  0  0  0  0
   31.5775   26.0946    1.1582 O   0  0  0  0  0  0  0  0  0  0  0  0
   26.9876   23.1908    1.3701 H   0  0  0  0  0  0  0  0  0  0  0  0
   32.1002   24.5026    3.3860 H   0  0  0  0  0  0  0  0  0  0  0  0
   28.9051   21.3907    1.4062 C   0  0  0  0  0  0  0  0  0  0  0  0
   29.8413   20.6118    1.4704 O   0  0  0  0  0  0  0  0  0  0  0  0
   27.6500   20.9398    1.1601 O   0  0  0  0  0  0  0  0  0  0  0  0
   26.9359   21.5445    1.1123 H   0  0  0  0  0  0  0  0  0  0  0  0
   30.3458   25.3112   -1.2375 C   0  0  0  0  0  0  0  0  0  0  0  0
   29.3892   25.0149   -2.3955 C   0  0  0  0  0  0  0  0  0  0  0  0
   28.1179   26.2753   -4.0057 O   0  0  0  0  0  0  0  0  0  0  0  0
   28.7871   26.2835   -2.9803 C   0  0  0  0  0  0  0  0  0  0  0  0
   29.1078   27.3935   -2.2134 N   0  0  0  0  0  0  0  0  0  0  0  0
   29.6606   27.2266   -1.4160 H   0  0  0  0  0  0  0  0  0  0  0  0
   28.7339   28.7338   -2.4431 C   0  0  0  0  0  0  0  0  0  0  0  0
   29.4052   29.8363   -1.9096 C   0  0  0  0  0  0  0  0  0  0  0  0
   28.9688   31.1374   -2.1864 C   0  0  0  0  0  0  0  0  0  0  0  0
   27.8575   31.3393   -2.9993 C   0  0  0  0  0  0  0  0  0  0  0  0
   27.2694   33.0958   -3.3723 Br  0  0  0  0  0  0  0  0  0  0  0  0
   27.1774   30.2518   -3.5389 C   0  0  0  0  0  0  0  0  0  0  0  0
   27.6159   28.9535   -3.2604 C   0  0  0  0  0  0  0  0  0  0  0  0
 18 19  2  0
 19 17  1  0
 17 16  1  0
 16  1  1  0
  1  2  2  0
  2  3  1  0
  3  4  1  0
  3 12  1  0
 12 13  2  0
 12 14  1  0
  3  5  1  0
  5  6  1  0
  6  7  1  0
  6  8  1  0
  8  9  2  0
 19 20  1  0
 20 22  1  0
 22 23  2  0
 23 24  1  0
 24 25  2  0
 25 26  1  0
 25 27  1  0
 27 28  2  0
  8  1  1  0
 28 22  1  0
  4 10  1  0
 14 15  1  0
  7 11  1  0
 20 21  1  0
M  END
> <minimizedAffinity>
-8.45688

> <CNNscore>
0.6540245414

> <CNNaffinity>
6.0595498085

> <CNN_VS>
3.9630942345

> <CNNaffinity_variance>
0.1912996173

$$$$



 28 29  0  0  0  0  0  0  0  0999 V2000
   18.7030   35.3636   -2.3718 C   0  0  0  0  0  0  0  0  0  0  0  0
   20.0076   35.6354   -2.5668 C   0  0  0  0  0  0  0  0  0  0  0  0
   20.9097   36.3564   -1.5990 C   0  0  0  0  0  0  0  0  0  0  0  0
   21.7201   35.3459   -1.0028 O   0  0  0  0  0  0  0  0  0  0  0  0
   20.1372   37.0954   -0.5100 C   0  0  0  0  0  0  0  0  0  0  0  0
   19.0406   36.2160    0.0618 C   0  0  0  0  0  0  0  0  0  0  0  0
   18.3225   36.9690    1.0369 O   0  0  0  0  0  0  0  0  0  0  0  0
   18.1035   35.7346   -1.0469 C   0  0  0  0  0  0  0  0  0  0  0  0
   16.8949   35.6183   -0.8419 O   0  0  0  0  0  0  0  0  0  0  0  0
   22.2115   34.8757   -1.6944 H   0  0  0  0  0  0  0  0  0  0  0  0
   17.9344   37.7533    0.6183 H   0  0  0  0  0  0  0  0  0  0  0  0
   21.7852   37.3854   -2.3562 C   0  0  0  0  0  0  0  0  0  0  0  0
   21.4190   38.2637   -3.1190 O   0  0  0  0  0  0  0  0  0  0  0  0
   23.1004   37.2332   -2.0622 O   0  0  0  0  0  0  0  0  0  0  0  0
   23.3739   36.5560   -1.4752 H   0  0  0  0  0  0  0  0  0  0  0  0
   17.7600   34.6917   -3.3446 C   0  0  0  0  0  0  0  0  0  0  0  0
   18.0898   33.2435   -3.7161 C   0  0  0  0  0  0  0  0  0  0  0  0
   16.7019   32.2430   -2.0219 O   0  0  0  0  0  0  0  0  0  0  0  0
   17.7918   32.2782   -2.5790 C   0  0  0  0  0  0  0  0  0  0  0  0
   18.8955   31.4926   -2.2825 N   0  0  0  0  0  0  0  0  0  0  0  0
   19.7006   31.6502   -2.8267 H   0  0  0  0  0  0  0  0  0  0  0  0
   18.9983   30.4939   -1.2921 C   0  0  0  0  0  0  0  0  0  0  0  0
   19.0802   29.1264   -1.5646 C   0  0  0  0  0  0  0  0  0  0  0  0
   19.1799   28.1978   -0.5218 C   0  0  0  0  0  0  0  0  0  0  0  0
   19.1979   28.6355    0.7991 C   0  0  0  0  0  0  0  0  0  0  0  0
   19.3324   27.3813    2.2058 Br  0  0  0  0  0  0  0  0  0  0  0  0
   19.1172   29.9943    1.0878 C   0  0  0  0  0  0  0  0  0  0  0  0
   19.0177   30.9194    0.0438 C   0  0  0  0  0  0  0  0  0  0  0  0
 18 19  2  0
 19 17  1  0
 17 16  1  0
 16  1  1  0
  1  2  2  0
  2  3  1  0
  3  4  1  0
  3 12  1  0
 12 13  2  0
 12 14  1  0
  3  5  1  0
  5  6  1  0
  6  7  1  0
  6  8  1  0
  8  9  2  0
 19 20  1  0
 20 22  1  0
 22 23  2  0
 23 24  1  0
 24 25  2  0
 25 26  1  0
 25 27  1  0
 27 28  2  0
  8  1  1  0
 28 22  1  0
  4 10  1  0
 14 15  1  0
  7 11  1  0
 20 21  1  0
M  END
> <minimizedAffinity>
-5.06637

> <CNNscore>
0.5707807541

> <CNNaffinity>
4.2683424950

> <CNN_VS>
2.4362876415

> <CNNaffinity_variance>
0.2692461908

$$$$



 28 29  0  0  0  0  0  0  0  0999 V2000
   19.3280   27.3060    0.0582 C   0  0  0  0  0  0  0  0  0  0  0  0
   19.3647   26.4032   -0.9405 C   0  0  0  0  0  0  0  0  0  0  0  0
   19.7586   24.9553   -0.8028 C   0  0  0  0  0  0  0  0  0  0  0  0
   18.5386   24.2188   -0.8490 O   0  0  0  0  0  0  0  0  0  0  0  0
   20.4794   24.6617    0.5099 C   0  0  0  0  0  0  0  0  0  0  0  0
   19.7608   25.3161    1.6754 C   0  0  0  0  0  0  0  0  0  0  0  0
   20.4999   25.0510    2.8658 O   0  0  0  0  0  0  0  0  0  0  0  0
   19.6255   26.8224    1.4474 C   0  0  0  0  0  0  0  0  0  0  0  0
   19.7199   27.6114    2.3879 O   0  0  0  0  0  0  0  0  0  0  0  0
   18.0799   24.4049   -1.6832 H   0  0  0  0  0  0  0  0  0  0  0  0
   21.3940   25.4171    2.7795 H   0  0  0  0  0  0  0  0  0  0  0  0
   20.6906   24.5461   -1.9701 C   0  0  0  0  0  0  0  0  0  0  0  0
   20.3840   24.0079   -3.0207 O   0  0  0  0  0  0  0  0  0  0  0  0
   21.9805   24.8817   -1.7193 O   0  0  0  0  0  0  0  0  0  0  0  0
   22.2081   25.2950   -0.9098 H   0  0  0  0  0  0  0  0  0  0  0  0
   18.9904   28.7757   -0.0581 C   0  0  0  0  0  0  0  0  0  0  0  0
   19.1265   29.3930   -1.4525 C   0  0  0  0  0  0  0  0  0  0  0  0
   17.1272   30.7197   -1.2513 O   0  0  0  0  0  0  0  0  0  0  0  0
   18.2993   30.6608   -1.6009 C   0  0  0  0  0  0  0  0  0  0  0  0
   19.0415   31.6827   -2.1738 N   0  0  0  0  0  0  0  0  0  0  0  0
   19.9752   31.4680   -2.4004 H   0  0  0  0  0  0  0  0  0  0  0  0
   18.6139   32.9937   -2.4694 C   0  0  0  0  0  0  0  0  0  0  0  0
   18.1230   33.3951   -3.7139 C   0  0  0  0  0  0  0  0  0  0  0  0
   17.7186   34.7184   -3.9261 C   0  0  0  0  0  0  0  0  0  0  0  0
   17.8044   35.6455   -2.8918 C   0  0  0  0  0  0  0  0  0  0  0  0
   17.2583   37.4314   -3.1793 Br  0  0  0  0  0  0  0  0  0  0  0  0
   18.2911   35.2620   -1.6459 C   0  0  0  0  0  0  0  0  0  0  0  0
   18.6942   33.9393   -1.4373 C   0  0  0  0  0  0  0  0  0  0  0  0
 18 19  2  0
 19 17  1  0
 17 16  1  0
 16  1  1  0
  1  2  2  0
  2  3  1  0
  3  4  1  0
  3 12  1  0
 12 13  2  0
 12 14  1  0
  3  5  1  0
  5  6  1  0
  6  7  1  0
  6  8  1  0
  8  9  2  0
 19 20  1  0
 20 22  1  0
 22 23  2  0
 23 24  1  0
 24 25  2  0
 25 26  1  0
 25 27  1  0
 27 28  2  0
  8  1  1  0
 28 22  1  0
  4 10  1  0
 14 15  1  0
  7 11  1  0
 20 21  1  0
M  END
> <minimizedAffinity>
-5.89330

> <CNNscore>
0.4545350075

> <CNNaffinity>
4.6783599854

> <CNN_VS>
2.1264784336

> <CNNaffinity_variance>
0.6015587449

$$$$



 28 29  0  0  0  0  0  0  0  0999 V2000
   25.7994   29.7655   10.0820 C   0  0  0  0  0  0  0  0  0  0  0  0
   27.0397   30.2561   10.2680 C   0  0  0  0  0  0  0  0  0  0  0  0
   27.4866   31.6599    9.9519 C   0  0  0  0  0  0  0  0  0  0  0  0
   27.5709   32.3288   11.2083 O   0  0  0  0  0  0  0  0  0  0  0  0
   26.5071   32.4017    9.0467 C   0  0  0  0  0  0  0  0  0  0  0  0
   25.0797   32.2006    9.5208 C   0  0  0  0  0  0  0  0  0  0  0  0
   24.2061   32.8724    8.6157 O   0  0  0  0  0  0  0  0  0  0  0  0
   24.7412   30.7109    9.5933 C   0  0  0  0  0  0  0  0  0  0  0  0
   23.6170   30.3066    9.2952 O   0  0  0  0  0  0  0  0  0  0  0  0
   28.1933   31.8579   11.7842 H   0  0  0  0  0  0  0  0  0  0  0  0
   24.3154   32.5021    7.7259 H   0  0  0  0  0  0  0  0  0  0  0  0
   28.8679   31.6317    9.2520 C   0  0  0  0  0  0  0  0  0  0  0  0
   29.1418   31.1819    8.1521 O   0  0  0  0  0  0  0  0  0  0  0  0
   29.8253   32.2156   10.0149 O   0  0  0  0  0  0  0  0  0  0  0  0
   29.6070   32.5589   10.8590 H   0  0  0  0  0  0  0  0  0  0  0  0
   25.3351   28.3491   10.3377 C   0  0  0  0  0  0  0  0  0  0  0  0
   25.8840   27.2762    9.3936 C   0  0  0  0  0  0  0  0  0  0  0  0
   24.5972   25.4792    8.4382 O   0  0  0  0  0  0  0  0  0  0  0  0
   24.7996   26.6850    8.5058 C   0  0  0  0  0  0  0  0  0  0  0  0
   24.1189   27.6757    7.8142 N   0  0  0  0  0  0  0  0  0  0  0  0
   24.4099   28.6013    7.9810 H   0  0  0  0  0  0  0  0  0  0  0  0
   23.0580   27.5111    6.8995 C   0  0  0  0  0  0  0  0  0  0  0  0
   23.0726   26.6020    5.8391 C   0  0  0  0  0  0  0  0  0  0  0  0
   21.9766   26.5003    4.9741 C   0  0  0  0  0  0  0  0  0  0  0  0
   20.8610   27.3093    5.1680 C   0  0  0  0  0  0  0  0  0  0  0  0
   19.3823   27.1711    3.9998 Br  0  0  0  0  0  0  0  0  0  0  0  0
   20.8303   28.2200    6.2196 C   0  0  0  0  0  0  0  0  0  0  0  0
   21.9268   28.3192    7.0819 C   0  0  0  0  0  0  0  0  0  0  0  0
 18 19  2  0
 19 17  1  0
 17 16  1  0
 16  1  1  0
  1  2  2  0
  2  3  1  0
  3  4  1  0
  3 12  1  0
 12 13  2  0
 12 14  1  0
  3  5  1  0
  5  6  1  0
  6  7  1  0
  6  8  1  0
  8  9  2  0
 19 20  1  0
 20 22  1  0
 22 23  2  0
 23 24  1  0
 24 25  2  0
 25 26  1  0
 25 27  1  0
 27 28  2  0
  8  1  1  0
 28 22  1  0
  4 10  1  0
 14 15  1  0
  7 11  1  0
 20 21  1  0
M  END
> <minimizedAffinity>
-5.40991

> <CNNscore>
0.3733838499

> <CNNaffinity>
3.9856081009

> <CNN_VS>
1.4881616831

> <CNNaffinity_variance>
0.6334921718

$$$$



 28 29  0  0  0  0  0  0  0  0999 V2000
   18.3524   34.9904   -1.1324 C   0  0  0  0  0  0  0  0  0  0  0  0
   19.5807   35.0589   -1.6802 C   0  0  0  0  0  0  0  0  0  0  0  0
   20.6957   35.9662   -1.2285 C   0  0  0  0  0  0  0  0  0  0  0  0
   21.6040   35.1323   -0.5125 O   0  0  0  0  0  0  0  0  0  0  0  0
   20.2103   37.0889   -0.3159 C   0  0  0  0  0  0  0  0  0  0  0  0
   19.2607   36.5514    0.7387 C   0  0  0  0  0  0  0  0  0  0  0  0
   18.8022   37.6451    1.5307 O   0  0  0  0  0  0  0  0  0  0  0  0
   18.0834   35.8270    0.0842 C   0  0  0  0  0  0  0  0  0  0  0  0
   16.9535   35.8990    0.5682 O   0  0  0  0  0  0  0  0  0  0  0  0
   21.9129   34.4184   -1.0920 H   0  0  0  0  0  0  0  0  0  0  0  0
   18.3417   38.2838    0.9642 H   0  0  0  0  0  0  0  0  0  0  0  0
   21.3899   36.6052   -2.4568 C   0  0  0  0  0  0  0  0  0  0  0  0
   20.9265   37.4142   -3.2429 O   0  0  0  0  0  0  0  0  0  0  0  0
   22.6689   36.1734   -2.5871 O   0  0  0  0  0  0  0  0  0  0  0  0
   23.0177   35.5516   -1.9791 H   0  0  0  0  0  0  0  0  0  0  0  0
   17.1974   34.1315   -1.5967 C   0  0  0  0  0  0  0  0  0  0  0  0
   17.5557   32.9416   -2.4909 C   0  0  0  0  0  0  0  0  0  0  0  0
   17.7504   31.6397   -0.4748 O   0  0  0  0  0  0  0  0  0  0  0  0
   17.6971   31.6512   -1.6981 C   0  0  0  0  0  0  0  0  0  0  0  0
   17.7625   30.5489   -2.5370 N   0  0  0  0  0  0  0  0  0  0  0  0
   17.7078   30.7330   -3.5026 H   0  0  0  0  0  0  0  0  0  0  0  0
   17.8981   29.1946   -2.1675 C   0  0  0  0  0  0  0  0  0  0  0  0
   18.9331   28.7006   -1.3702 C   0  0  0  0  0  0  0  0  0  0  0  0
   18.9958   27.3396   -1.0485 C   0  0  0  0  0  0  0  0  0  0  0  0
   18.0214   26.4674   -1.5246 C   0  0  0  0  0  0  0  0  0  0  0  0
   18.1071   24.6307   -1.0899 Br  0  0  0  0  0  0  0  0  0  0  0  0
   16.9836   26.9434   -2.3199 C   0  0  0  0  0  0  0  0  0  0  0  0
   16.9238   28.3035   -2.6394 C   0  0  0  0  0  0  0  0  0  0  0  0
 18 19  2  0
 19 17  1  0
 17 16  1  0
 16  1  1  0
  1  2  2  0
  2  3  1  0
  3  4  1  0
  3 12  1  0
 12 13  2  0
 12 14  1  0
  3  5  1  0
  5  6  1  0
  6  7  1  0
  6  8  1  0
  8  9  2  0
 19 20  1  0
 20 22  1  0
 22 23  2  0
 23 24  1  0
 24 25  2  0
 25 26  1  0
 25 27  1  0
 27 28  2  0
  8  1  1  0
 28 22  1  0
  4 10  1  0
 14 15  1  0
  7 11  1  0
 20 21  1  0
M  END
> <minimizedAffinity>
-4.74447

> <CNNscore>
0.3523921967

> <CNNaffinity>
3.7200992107

> <CNN_VS>
1.3109339476

> <CNNaffinity_variance>
0.9291123748

$$$$



 28 29  0  0  0  0  0  0  0  0999 V2000
   20.4529   25.6234   -0.7049 C   0  0  0  0  0  0  0  0  0  0  0  0
   19.9660   24.6995    0.1455 C   0  0  0  0  0  0  0  0  0  0  0  0
   18.9140   24.9402    1.1971 C   0  0  0  0  0  0  0  0  0  0  0  0
   17.7136   24.3729    0.6771 O   0  0  0  0  0  0  0  0  0  0  0  0
   18.6926   26.4229    1.4823 C   0  0  0  0  0  0  0  0  0  0  0  0
   18.5968   27.2104    0.1887 C   0  0  0  0  0  0  0  0  0  0  0  0
   18.4388   28.5902    0.5126 O   0  0  0  0  0  0  0  0  0  0  0  0
   19.8466   26.9957   -0.6662 C   0  0  0  0  0  0  0  0  0  0  0  0
   20.3170   27.9168   -1.3344 O   0  0  0  0  0  0  0  0  0  0  0  0
   17.8536   23.4304    0.4955 H   0  0  0  0  0  0  0  0  0  0  0  0
   19.2034   28.8909    1.0282 H   0  0  0  0  0  0  0  0  0  0  0  0
   19.3195   24.2466    2.5212 C   0  0  0  0  0  0  0  0  0  0  0  0
   18.7197   24.2493    3.5830 O   0  0  0  0  0  0  0  0  0  0  0  0
   20.4817   23.5603    2.3888 O   0  0  0  0  0  0  0  0  0  0  0  0
   20.9368   23.5630    1.5698 H   0  0  0  0  0  0  0  0  0  0  0  0
   21.5452   25.4261   -1.7321 C   0  0  0  0  0  0  0  0  0  0  0  0
   22.1346   26.6987   -2.3462 C   0  0  0  0  0  0  0  0  0  0  0  0
   24.0248   26.4372   -0.8777 O   0  0  0  0  0  0  0  0  0  0  0  0
   23.5663   26.9430   -1.8943 C   0  0  0  0  0  0  0  0  0  0  0  0
   24.2318   27.7924   -2.7654 N   0  0  0  0  0  0  0  0  0  0  0  0
   23.7146   28.1152   -3.5385 H   0  0  0  0  0  0  0  0  0  0  0  0
   25.5634   28.2475   -2.6724 C   0  0  0  0  0  0  0  0  0  0  0  0
   26.6758   27.4053   -2.6079 C   0  0  0  0  0  0  0  0  0  0  0  0
   27.9672   27.9381   -2.5164 C   0  0  0  0  0  0  0  0  0  0  0  0
   28.1494   29.3175   -2.4891 C   0  0  0  0  0  0  0  0  0  0  0  0
   29.8928   30.0354   -2.3656 Br  0  0  0  0  0  0  0  0  0  0  0  0
   27.0519   30.1704   -2.5526 C   0  0  0  0  0  0  0  0  0  0  0  0
   25.7632   29.6350   -2.6439 C   0  0  0  0  0  0  0  0  0  0  0  0
 18 19  2  0
 19 17  1  0
 17 16  1  0
 16  1  1  0
  1  2  2  0
  2  3  1  0
  3  4  1  0
  3 12  1  0
 12 13  2  0
 12 14  1  0
  3  5  1  0
  5  6  1  0
  6  7  1  0
  6  8  1  0
  8  9  2  0
 19 20  1  0
 20 22  1  0
 22 23  2  0
 23 24  1  0
 24 25  2  0
 25 26  1  0
 25 27  1  0
 27 28  2  0
  8  1  1  0
 28 22  1  0
  4 10  1  0
 14 15  1  0
  7 11  1  0
 20 21  1  0
M  END
> <minimizedAffinity>
-4.98520

> <CNNscore>
0.3452242911

> <CNNaffinity>
4.8456749916

> <CNN_VS>
1.6728447676

> <CNNaffinity_variance>
0.1348351240

$$$$



 28 29  0  0  0  0  0  0  0  0999 V2000
   23.5687   27.9573    8.7140 C   0  0  0  0  0  0  0  0  0  0  0  0
   22.4670   28.1764    7.9711 C   0  0  0  0  0  0  0  0  0  0  0  0
   21.7840   27.1620    7.0908 C   0  0  0  0  0  0  0  0  0  0  0  0
   20.6178   26.7568    7.8040 O   0  0  0  0  0  0  0  0  0  0  0  0
   22.6563   25.9418    6.8094 C   0  0  0  0  0  0  0  0  0  0  0  0
   23.3153   25.4471    8.0837 C   0  0  0  0  0  0  0  0  0  0  0  0
   24.1527   24.3401    7.7568 O   0  0  0  0  0  0  0  0  0  0  0  0
   24.1282   26.5649    8.7385 C   0  0  0  0  0  0  0  0  0  0  0  0
   25.1939   26.3186    9.3040 O   0  0  0  0  0  0  0  0  0  0  0  0
   20.0628   27.5320    7.9832 H   0  0  0  0  0  0  0  0  0  0  0  0
   24.8292   24.6229    7.1217 H   0  0  0  0  0  0  0  0  0  0  0  0
   21.4015   27.8077    5.7360 C   0  0  0  0  0  0  0  0  0  0  0  0
   21.3192   27.2683    4.6453 O   0  0  0  0  0  0  0  0  0  0  0  0
   21.1205   29.1272    5.8744 O   0  0  0  0  0  0  0  0  0  0  0  0
   21.1860   29.5345    6.7157 H   0  0  0  0  0  0  0  0  0  0  0  0
   24.3074   28.9677    9.5629 C   0  0  0  0  0  0  0  0  0  0  0  0
   25.3363   29.8385    8.8369 C   0  0  0  0  0  0  0  0  0  0  0  0
   25.9235   31.4889   10.4888 O   0  0  0  0  0  0  0  0  0  0  0  0
   25.4004   31.2466    9.4084 C   0  0  0  0  0  0  0  0  0  0  0  0
   24.7957   32.1626    8.5608 N   0  0  0  0  0  0  0  0  0  0  0  0
   24.4185   31.8005    7.7266 H   0  0  0  0  0  0  0  0  0  0  0  0
   24.6583   33.5527    8.7552 C   0  0  0  0  0  0  0  0  0  0  0  0
   25.7332   34.4378    8.8656 C   0  0  0  0  0  0  0  0  0  0  0  0
   25.5110   35.8064    9.0583 C   0  0  0  0  0  0  0  0  0  0  0  0
   24.2103   36.2943    9.1411 C   0  0  0  0  0  0  0  0  0  0  0  0
   23.9116   38.1418    9.4012 Br  0  0  0  0  0  0  0  0  0  0  0  0
   23.1283   35.4261    9.0330 C   0  0  0  0  0  0  0  0  0  0  0  0
   23.3537   34.0594    8.8406 C   0  0  0  0  0  0  0  0  0  0  0  0
 18 19  2  0
 19 17  1  0
 17 16  1  0
 16  1  1  0
  1  2  2  0
  2  3  1  0
  3  4  1  0
  3 12  1  0
 12 13  2  0
 12 14  1  0
  3  5  1  0
  5  6  1  0
  6  7  1  0
  6  8  1  0
  8  9  2  0
 19 20  1  0
 20 22  1  0
 22 23  2  0
 23 24  1  0
 24 25  2  0
 25 26  1  0
 25 27  1  0
 27 28  2  0
  8  1  1  0
 28 22  1  0
  4 10  1  0
 14 15  1  0
  7 11  1  0
 20 21  1  0
M  END
> <minimizedAffinity>
-4.90191

> <CNNscore>
0.3291511238

> <CNNaffinity>
3.7308673859

> <CNN_VS>
1.2280192375

> <CNNaffinity_variance>
0.4252476692

$$$$



 28 29  0  0  0  0  0  0  0  0999 V2000
   26.8420   30.6197    8.7859 C   0  0  0  0  0  0  0  0  0  0  0  0
   25.6244   31.1889    8.7020 C   0  0  0  0  0  0  0  0  0  0  0  0
   25.2553   32.5558    9.2175 C   0  0  0  0  0  0  0  0  0  0  0  0
   25.1791   33.3935    8.0661 O   0  0  0  0  0  0  0  0  0  0  0  0
   26.2892   33.1198   10.1880 C   0  0  0  0  0  0  0  0  0  0  0  0
   27.6948   32.9185    9.6524 C   0  0  0  0  0  0  0  0  0  0  0  0
   28.6194   33.4183   10.6162 O   0  0  0  0  0  0  0  0  0  0  0  0
   27.9563   31.4384    9.3694 C   0  0  0  0  0  0  0  0  0  0  0  0
   29.0645   30.9446    9.5792 O   0  0  0  0  0  0  0  0  0  0  0  0
   24.5221   33.0356    7.4488 H   0  0  0  0  0  0  0  0  0  0  0  0
   28.5098   32.9353   11.4502 H   0  0  0  0  0  0  0  0  0  0  0  0
   23.8889   32.4972    9.9443 C   0  0  0  0  0  0  0  0  0  0  0  0
   23.5949   32.9748   11.0273 O   0  0  0  0  0  0  0  0  0  0  0  0
   22.9612   31.8354    9.2091 O   0  0  0  0  0  0  0  0  0  0  0  0
   23.1948   31.4712    8.3780 H   0  0  0  0  0  0  0  0  0  0  0  0
   27.2290   29.2312    8.3280 C   0  0  0  0  0  0  0  0  0  0  0  0
   27.1449   28.1233    9.3812 C   0  0  0  0  0  0  0  0  0  0  0  0
   25.8553   26.1204    9.7322 O   0  0  0  0  0  0  0  0  0  0  0  0
   25.9828   27.1759    9.1247 C   0  0  0  0  0  0  0  0  0  0  0  0
   25.1404   27.6671    8.1386 N   0  0  0  0  0  0  0  0  0  0  0  0
   25.3892   28.5351    7.7464 H   0  0  0  0  0  0  0  0  0  0  0  0
   23.9685   27.0674    7.6326 C   0  0  0  0  0  0  0  0  0  0  0  0
   23.2594   27.5443    6.5278 C   0  0  0  0  0  0  0  0  0  0  0  0
   22.1026   26.8898    6.0882 C   0  0  0  0  0  0  0  0  0  0  0  0
   21.6513   25.7541    6.7540 C   0  0  0  0  0  0  0  0  0  0  0  0
   20.0899   24.8715    6.1598 Br  0  0  0  0  0  0  0  0  0  0  0  0
   22.3461   25.2659    7.8563 C   0  0  0  0  0  0  0  0  0  0  0  0
   23.5013   25.9221    8.2928 C   0  0  0  0  0  0  0  0  0  0  0  0
 18 19  2  0
 19 17  1  0
 17 16  1  0
 16  1  1  0
  1  2  2  0
  2  3  1  0
  3  4  1  0
  3 12  1  0
 12 13  2  0
 12 14  1  0
  3  5  1  0
  5  6  1  0
  6  7  1  0
  6  8  1  0
  8  9  2  0
 19 20  1  0
 20 22  1  0
 22 23  2  0
 23 24  1  0
 24 25  2  0
 25 26  1  0
 25 27  1  0
 27 28  2  0
  8  1  1  0
 28 22  1  0
  4 10  1  0
 14 15  1  0
  7 11  1  0
 20 21  1  0
M  END
> <minimizedAffinity>
-5.60491

> <CNNscore>
0.3245768249

> <CNNaffinity>
4.1378765106

> <CNN_VS>
1.3430588245

> <CNNaffinity_variance>
0.1665170640

$$$$
