


 22 22  0  0  0  0  0  0  0  0999 V2000
    7.5029  -11.2190    2.2803 C   0  0  0  0  0  0  0  0  0  0  0  0
    6.1744  -10.5743    2.7739 C   0  0  0  0  0  0  0  0  0  0  0  0
    5.8056  -10.8018    4.2648 C   0  0  0  0  0  0  0  0  0  0  0  0
    5.5726  -12.2745    4.6537 C   0  0  0  0  0  0  0  0  0  0  0  0
    6.6484  -13.2315    4.3459 N   0  0  0  0  0  0  0  0  0  0  0  0
    6.6135  -13.6317    2.9250 C   0  0  0  0  0  0  0  0  0  0  0  0
    7.4082  -12.7282    1.9398 C   0  0  0  0  0  0  0  0  0  0  0  0
    6.5332  -14.0608    4.9285 H   0  0  0  0  0  0  0  0  0  0  0  0
    5.0667  -10.8761    1.8495 N   0  0  0  0  0  0  0  0  0  0  0  0
    3.9813  -11.6383    2.2022 C   0  0  0  0  0  0  0  0  0  0  0  0
    2.9335  -11.7560    1.1282 C   0  0  0  0  0  0  0  0  0  0  0  0
    3.8562  -12.1793    3.2952 O   0  0  0  0  0  0  0  0  0  0  0  0
    5.1074  -10.5135    0.9352 H   0  0  0  0  0  0  0  0  0  0  0  0
    7.1848  -15.0725    2.8324 C   0  0  0  0  0  0  0  0  0  0  0  0
    7.2334  -15.6846    4.1217 O   0  0  0  0  0  0  0  0  0  0  0  0
    7.8105  -15.1663    4.7041 H   0  0  0  0  0  0  0  0  0  0  0  0
    9.1694  -12.2426    3.6587 C   0  0  0  0  0  0  0  0  0  0  0  0
    8.6341  -11.0321    3.1422 O   0  0  0  0  0  0  0  0  0  0  0  0
    6.7958  -10.1851    5.1087 O   0  0  0  0  0  0  0  0  0  0  0  0
    6.5439  -10.3374    6.4977 C   0  0  0  0  0  0  0  0  0  0  0  0
    6.7367  -12.8680    0.6551 O   0  0  0  0  0  0  0  0  0  0  0  0
    6.1104  -14.1409    0.5126 C   0  0  0  0  0  0  0  0  0  0  0  0
 17 18  1  0
  1 18  1  0
  1  2  1  0
  2  9  1  0
  9 10  1  0
 10 11  1  0
 10 12  2  0
  2  3  1  0
  3 19  1  0
 19 20  1  0
  3  4  1  0
  4  5  1  0
  5  6  1  0
  6 14  1  0
 14 15  1  0
  6  7  1  0
  7 21  1  0
 21 22  1  0
  7  1  1  0
  9 13  1  0
  5  8  1  0
 15 16  1  0
M  END
> <minimizedAffinity>
-3.90937

> <CNNscore>
0.4153853655

> <CNNaffinity>
5.3190655708

> <CNN_VS>
2.2094619274

> <CNNaffinity_variance>
0.6287588477

$$$$



 22 22  0  0  0  0  0  0  0  0999 V2000
   10.7826  -21.0714   11.4395 C   0  0  0  0  0  0  0  0  0  0  0  0
    9.8072  -20.0705   10.7533 C   0  0  0  0  0  0  0  0  0  0  0  0
   10.0174  -18.5664   11.0758 C   0  0  0  0  0  0  0  0  0  0  0  0
    9.8198  -18.1910   12.5571 C   0  0  0  0  0  0  0  0  0  0  0  0
   10.6057  -18.9384   13.5528 N   0  0  0  0  0  0  0  0  0  0  0  0
    9.9947  -20.2528   13.8346 C   0  0  0  0  0  0  0  0  0  0  0  0
   10.4301  -21.4228   12.9074 C   0  0  0  0  0  0  0  0  0  0  0  0
   10.6480  -18.3985   14.4172 H   0  0  0  0  0  0  0  0  0  0  0  0
    8.4081  -20.5073   10.9088 N   0  0  0  0  0  0  0  0  0  0  0  0
    7.6819  -21.0760    9.8927 C   0  0  0  0  0  0  0  0  0  0  0  0
    6.2993  -21.5163   10.2923 C   0  0  0  0  0  0  0  0  0  0  0  0
    8.1085  -21.2261    8.7531 O   0  0  0  0  0  0  0  0  0  0  0  0
    7.9736  -20.3852   11.7838 H   0  0  0  0  0  0  0  0  0  0  0  0
   10.3555  -20.6307   15.2968 C   0  0  0  0  0  0  0  0  0  0  0  0
   11.2142  -19.6493   15.8790 O   0  0  0  0  0  0  0  0  0  0  0  0
   12.0368  -19.5954   15.3678 H   0  0  0  0  0  0  0  0  0  0  0  0
   12.8783  -21.2769   10.3033 C   0  0  0  0  0  0  0  0  0  0  0  0
   12.1692  -20.7069   11.3947 O   0  0  0  0  0  0  0  0  0  0  0  0
   11.3059  -18.1425   10.5931 O   0  0  0  0  0  0  0  0  0  0  0  0
   11.2421  -17.2263    9.5102 C   0  0  0  0  0  0  0  0  0  0  0  0
    9.3090  -22.3524   12.9007 O   0  0  0  0  0  0  0  0  0  0  0  0
    8.2310  -21.8989   13.7162 C   0  0  0  0  0  0  0  0  0  0  0  0
 17 18  1  0
  1 18  1  0
  1  2  1  0
  2  9  1  0
  9 10  1  0
 10 11  1  0
 10 12  2  0
  2  3  1  0
  3 19  1  0
 19 20  1  0
  3  4  1  0
  4  5  1  0
  5  6  1  0
  6 14  1  0
 14 15  1  0
  6  7  1  0
  7 21  1  0
 21 22  1  0
  7  1  1  0
  9 13  1  0
  5  8  1  0
 15 16  1  0
M  END
> <minimizedAffinity>
-4.56372

> <CNNscore>
0.3465933502

> <CNNaffinity>
3.1703855991

> <CNN_VS>
1.0988345146

> <CNNaffinity_variance>
1.1596163511

$$$$



 22 22  0  0  0  0  0  0  0  0999 V2000
    9.6350  -16.3033   -1.5932 C   0  0  0  0  0  0  0  0  0  0  0  0
    9.8343  -16.1661   -3.1313 C   0  0  0  0  0  0  0  0  0  0  0  0
    8.9074  -17.0286   -4.0300 C   0  0  0  0  0  0  0  0  0  0  0  0
    9.0721  -18.5504   -3.8530 C   0  0  0  0  0  0  0  0  0  0  0  0
    8.9392  -19.0890   -2.4892 N   0  0  0  0  0  0  0  0  0  0  0  0
   10.1827  -18.8941   -1.7170 C   0  0  0  0  0  0  0  0  0  0  0  0
   10.3113  -17.5440   -0.9562 C   0  0  0  0  0  0  0  0  0  0  0  0
    8.7338  -20.0867   -2.5436 H   0  0  0  0  0  0  0  0  0  0  0  0
   11.2594  -16.2790   -3.4904 N   0  0  0  0  0  0  0  0  0  0  0  0
   11.8500  -15.5171   -4.4672 C   0  0  0  0  0  0  0  0  0  0  0  0
   13.3306  -15.7424   -4.6161 C   0  0  0  0  0  0  0  0  0  0  0  0
   11.2409  -14.7130   -5.1639 O   0  0  0  0  0  0  0  0  0  0  0  0
   11.8143  -16.9324   -3.0062 H   0  0  0  0  0  0  0  0  0  0  0  0
   10.2736  -20.0471   -0.6810 C   0  0  0  0  0  0  0  0  0  0  0  0
    9.3020  -21.0567   -0.9565 O   0  0  0  0  0  0  0  0  0  0  0  0
    8.4129  -20.6723   -0.9054 H   0  0  0  0  0  0  0  0  0  0  0  0
    8.1247  -16.4500    0.2567 C   0  0  0  0  0  0  0  0  0  0  0  0
    8.2733  -16.2647   -1.1441 O   0  0  0  0  0  0  0  0  0  0  0  0
    7.5385  -16.6226   -3.8451 O   0  0  0  0  0  0  0  0  0  0  0  0
    6.6058  -17.3824   -4.5995 C   0  0  0  0  0  0  0  0  0  0  0  0
   11.7415  -17.2874   -0.8571 O   0  0  0  0  0  0  0  0  0  0  0  0
   12.1671  -17.1365    0.4953 C   0  0  0  0  0  0  0  0  0  0  0  0
 17 18  1  0
  1 18  1  0
  1  2  1  0
  2  9  1  0
  9 10  1  0
 10 11  1  0
 10 12  2  0
  2  3  1  0
  3 19  1  0
 19 20  1  0
  3  4  1  0
  4  5  1  0
  5  6  1  0
  6 14  1  0
 14 15  1  0
  6  7  1  0
  7 21  1  0
 21 22  1  0
  7  1  1  0
  9 13  1  0
  5  8  1  0
 15 16  1  0
M  END
> <minimizedAffinity>
-3.65611

> <CNNscore>
0.3423310816

> <CNNaffinity>
2.9903490543

> <CNN_VS>
1.0236893892

> <CNNaffinity_variance>
1.1704167128

$$$$



 22 22  0  0  0  0  0  0  0  0999 V2000
    9.8046  -19.5150   11.9668 C   0  0  0  0  0  0  0  0  0  0  0  0
    9.6924  -20.0058   13.4401 C   0  0  0  0  0  0  0  0  0  0  0  0
   10.9979  -19.9811   14.2802 C   0  0  0  0  0  0  0  0  0  0  0  0
   12.1193  -20.8985   13.7558 C   0  0  0  0  0  0  0  0  0  0  0  0
   12.5305  -20.7265   12.3525 N   0  0  0  0  0  0  0  0  0  0  0  0
   11.5897  -21.4016   11.4362 C   0  0  0  0  0  0  0  0  0  0  0  0
   10.3658  -20.5623   10.9715 C   0  0  0  0  0  0  0  0  0  0  0  0
   13.4612  -21.1244   12.2269 H   0  0  0  0  0  0  0  0  0  0  0  0
    8.9792  -21.2936   13.5139 N   0  0  0  0  0  0  0  0  0  0  0  0
    8.2363  -21.6790   14.6015 C   0  0  0  0  0  0  0  0  0  0  0  0
    7.5318  -22.9982   14.4328 C   0  0  0  0  0  0  0  0  0  0  0  0
    8.1385  -21.0159   15.6280 O   0  0  0  0  0  0  0  0  0  0  0  0
    9.0387  -21.9069   12.7460 H   0  0  0  0  0  0  0  0  0  0  0  0
   12.3916  -21.8306   10.1777 C   0  0  0  0  0  0  0  0  0  0  0  0
   13.1267  -20.7294    9.6428 O   0  0  0  0  0  0  0  0  0  0  0  0
   12.5117  -20.0248    9.3851 H   0  0  0  0  0  0  0  0  0  0  0  0
   10.8153  -17.9957   10.4192 C   0  0  0  0  0  0  0  0  0  0  0  0
   10.5341  -18.2942   11.7795 O   0  0  0  0  0  0  0  0  0  0  0  0
   11.4543  -18.6235   14.4269 O   0  0  0  0  0  0  0  0  0  0  0  0
   12.5219  -18.4717   15.3506 C   0  0  0  0  0  0  0  0  0  0  0  0
    9.3166  -21.5303   10.6830 O   0  0  0  0  0  0  0  0  0  0  0  0
    8.2374  -20.9505    9.9537 C   0  0  0  0  0  0  0  0  0  0  0  0
 17 18  1  0
  1 18  1  0
  1  2  1  0
  2  9  1  0
  9 10  1  0
 10 11  1  0
 10 12  2  0
  2  3  1  0
  3 19  1  0
 19 20  1  0
  3  4  1  0
  4  5  1  0
  5  6  1  0
  6 14  1  0
 14 15  1  0
  6  7  1  0
  7 21  1  0
 21 22  1  0
  7  1  1  0
  9 13  1  0
  5  8  1  0
 15 16  1  0
M  END
> <minimizedAffinity>
-3.96057

> <CNNscore>
0.2894158065

> <CNNaffinity>
2.7265331745

> <CNN_VS>
0.7891017795

> <CNNaffinity_variance>
1.1155953407

$$$$



 22 22  0  0  0  0  0  0  0  0999 V2000
    8.6987  -20.5528   10.5292 C   0  0  0  0  0  0  0  0  0  0  0  0
   10.0465  -20.3422    9.7788 C   0  0  0  0  0  0  0  0  0  0  0  0
   11.0951  -21.4803    9.9045 C   0  0  0  0  0  0  0  0  0  0  0  0
   11.6004  -21.7358   11.3376 C   0  0  0  0  0  0  0  0  0  0  0  0
   10.5871  -21.9944   12.3739 N   0  0  0  0  0  0  0  0  0  0  0  0
    9.9754  -20.7358   12.8452 C   0  0  0  0  0  0  0  0  0  0  0  0
    8.7399  -20.2338   12.0455 C   0  0  0  0  0  0  0  0  0  0  0  0
   11.0301  -22.4654   13.1628 H   0  0  0  0  0  0  0  0  0  0  0  0
   10.6033  -19.0067   10.0598 N   0  0  0  0  0  0  0  0  0  0  0  0
   11.1433  -18.1993    9.0903 C   0  0  0  0  0  0  0  0  0  0  0  0
   11.5831  -16.8479    9.5857 C   0  0  0  0  0  0  0  0  0  0  0  0
   11.2599  -18.5313    7.9159 O   0  0  0  0  0  0  0  0  0  0  0  0
   10.5870  -18.6780   10.9877 H   0  0  0  0  0  0  0  0  0  0  0  0
    9.5448  -20.9510   14.3215 C   0  0  0  0  0  0  0  0  0  0  0  0
    8.9662  -19.7623   14.8614 O   0  0  0  0  0  0  0  0  0  0  0  0
    9.6190  -19.0452   14.8372 H   0  0  0  0  0  0  0  0  0  0  0  0
    7.0146  -21.8672    9.4517 C   0  0  0  0  0  0  0  0  0  0  0  0
    8.1008  -21.8466   10.3673 O   0  0  0  0  0  0  0  0  0  0  0  0
   10.5782  -22.6838    9.3066 O   0  0  0  0  0  0  0  0  0  0  0  0
   11.5136  -23.3657    8.4843 C   0  0  0  0  0  0  0  0  0  0  0  0
    8.7303  -18.7869   12.2109 O   0  0  0  0  0  0  0  0  0  0  0  0
    9.9761  -18.2944   12.6992 C   0  0  0  0  0  0  0  0  0  0  0  0
 17 18  1  0
  1 18  1  0
  1  2  1  0
  2  9  1  0
  9 10  1  0
 10 11  1  0
 10 12  2  0
  2  3  1  0
  3 19  1  0
 19 20  1  0
  3  4  1  0
  4  5  1  0
  5  6  1  0
  6 14  1  0
 14 15  1  0
  6  7  1  0
  7 21  1  0
 21 22  1  0
  7  1  1  0
  9 13  1  0
  5  8  1  0
 15 16  1  0
M  END
> <minimizedAffinity>
-3.88749

> <CNNscore>
0.2862492800

> <CNNaffinity>
2.8220965862

> <CNN_VS>
0.8078231215

> <CNNaffinity_variance>
1.2647423744

$$$$



 22 22  0  0  0  0  0  0  0  0999 V2000
   16.4287  -17.0556    0.7324 C   0  0  0  0  0  0  0  0  0  0  0  0
   16.6709  -15.6147    0.1943 C   0  0  0  0  0  0  0  0  0  0  0  0
   16.5233  -14.4581    1.2194 C   0  0  0  0  0  0  0  0  0  0  0  0
   15.1133  -14.3070    1.8222 C   0  0  0  0  0  0  0  0  0  0  0  0
   14.5199  -15.4960    2.4562 N   0  0  0  0  0  0  0  0  0  0  0  0
   13.9574  -16.4130    1.4446 C   0  0  0  0  0  0  0  0  0  0  0  0
   14.9385  -17.4646    0.8533 C   0  0  0  0  0  0  0  0  0  0  0  0
   13.7758  -15.2002    3.0881 H   0  0  0  0  0  0  0  0  0  0  0  0
   15.9192  -15.3845   -1.0526 N   0  0  0  0  0  0  0  0  0  0  0  0
   16.4665  -14.7848   -2.1591 C   0  0  0  0  0  0  0  0  0  0  0  0
   15.5440  -14.7192   -3.3464 C   0  0  0  0  0  0  0  0  0  0  0  0
   17.6085  -14.3405   -2.1971 O   0  0  0  0  0  0  0  0  0  0  0  0
   14.9794  -15.6748   -1.0936 H   0  0  0  0  0  0  0  0  0  0  0  0
   12.7748  -17.1697    2.1078 C   0  0  0  0  0  0  0  0  0  0  0  0
   13.2162  -17.9006    3.2525 O   0  0  0  0  0  0  0  0  0  0  0  0
   13.8809  -18.5535    2.9826 H   0  0  0  0  0  0  0  0  0  0  0  0
   18.1116  -18.3252    1.8642 C   0  0  0  0  0  0  0  0  0  0  0  0
   17.0722  -17.3630    1.9770 O   0  0  0  0  0  0  0  0  0  0  0  0
   17.5232  -14.5904    2.2468 O   0  0  0  0  0  0  0  0  0  0  0  0
   18.8351  -14.2544    1.8200 C   0  0  0  0  0  0  0  0  0  0  0  0
   14.4340  -17.7615   -0.4803 O   0  0  0  0  0  0  0  0  0  0  0  0
   14.5382  -19.1477   -0.7971 C   0  0  0  0  0  0  0  0  0  0  0  0
 17 18  1  0
  1 18  1  0
  1  2  1  0
  2  9  1  0
  9 10  1  0
 10 11  1  0
 10 12  2  0
  2  3  1  0
  3 19  1  0
 19 20  1  0
  3  4  1  0
  4  5  1  0
  5  6  1  0
  6 14  1  0
 14 15  1  0
  6  7  1  0
  7 21  1  0
 21 22  1  0
  7  1  1  0
  9 13  1  0
  5  8  1  0
 15 16  1  0
M  END
> <minimizedAffinity>
-3.72967

> <CNNscore>
0.2822135687

> <CNNaffinity>
3.8013794422

> <CNN_VS>
1.0728008747

> <CNNaffinity_variance>
1.1545680761

$$$$



 22 22  0  0  0  0  0  0  0  0999 V2000
    7.8356  -18.1242   -1.7640 C   0  0  0  0  0  0  0  0  0  0  0  0
    6.4782  -17.4103   -2.0322 C   0  0  0  0  0  0  0  0  0  0  0  0
    5.9582  -17.4369   -3.4948 C   0  0  0  0  0  0  0  0  0  0  0  0
    6.8656  -16.7222   -4.5147 C   0  0  0  0  0  0  0  0  0  0  0  0
    8.2759  -17.1412   -4.5724 N   0  0  0  0  0  0  0  0  0  0  0  0
    9.0595  -16.5217   -3.4849 C   0  0  0  0  0  0  0  0  0  0  0  0
    9.0923  -17.2971   -2.1374 C   0  0  0  0  0  0  0  0  0  0  0  0
    8.6706  -16.8594   -5.4697 H   0  0  0  0  0  0  0  0  0  0  0  0
    6.4646  -16.0624   -1.4359 N   0  0  0  0  0  0  0  0  0  0  0  0
    6.0135  -15.8083   -0.1650 C   0  0  0  0  0  0  0  0  0  0  0  0
    6.1607  -14.3745    0.2681 C   0  0  0  0  0  0  0  0  0  0  0  0
    5.5344  -16.6642    0.5706 O   0  0  0  0  0  0  0  0  0  0  0  0
    6.7951  -15.3081   -1.9754 H   0  0  0  0  0  0  0  0  0  0  0  0
   10.5187  -16.3659   -3.9923 C   0  0  0  0  0  0  0  0  0  0  0  0
   10.6322  -15.2548   -4.8823 O   0  0  0  0  0  0  0  0  0  0  0  0
   10.0573  -15.3961   -5.6507 H   0  0  0  0  0  0  0  0  0  0  0  0
    9.2650  -19.9942   -2.1942 C   0  0  0  0  0  0  0  0  0  0  0  0
    7.9731  -19.4247   -2.3534 O   0  0  0  0  0  0  0  0  0  0  0  0
    5.6911  -18.7955   -3.8897 O   0  0  0  0  0  0  0  0  0  0  0  0
    4.6059  -19.3937   -3.1965 C   0  0  0  0  0  0  0  0  0  0  0  0
    9.2980  -16.2852   -1.1105 O   0  0  0  0  0  0  0  0  0  0  0  0
    9.6586  -16.8591    0.1438 C   0  0  0  0  0  0  0  0  0  0  0  0
 17 18  1  0
  1 18  1  0
  1  2  1  0
  2  9  1  0
  9 10  1  0
 10 11  1  0
 10 12  2  0
  2  3  1  0
  3 19  1  0
 19 20  1  0
  3  4  1  0
  4  5  1  0
  5  6  1  0
  6 14  1  0
 14 15  1  0
  6  7  1  0
  7 21  1  0
 21 22  1  0
  7  1  1  0
  9 13  1  0
  5  8  1  0
 15 16  1  0
M  END
> <minimizedAffinity>
-4.38341

> <CNNscore>
0.2521249056

> <CNNaffinity>
3.2364356518

> <CNN_VS>
0.8159860373

> <CNNaffinity_variance>
0.9253993034

$$$$



 22 22  0  0  0  0  0  0  0  0999 V2000
   12.2465  -20.1661   11.2707 C   0  0  0  0  0  0  0  0  0  0  0  0
   12.7268  -20.5870   12.6907 C   0  0  0  0  0  0  0  0  0  0  0  0
   12.2896  -21.9936   13.1817 C   0  0  0  0  0  0  0  0  0  0  0  0
   10.7670  -22.1817   13.3253 C   0  0  0  0  0  0  0  0  0  0  0  0
    9.9363  -21.8811   12.1475 N   0  0  0  0  0  0  0  0  0  0  0  0
    9.7143  -20.4277   12.0104 C   0  0  0  0  0  0  0  0  0  0  0  0
   10.7885  -19.6444   11.2036 C   0  0  0  0  0  0  0  0  0  0  0  0
    9.0348  -22.3477   12.2478 H   0  0  0  0  0  0  0  0  0  0  0  0
   12.4626  -19.5212   13.6740 N   0  0  0  0  0  0  0  0  0  0  0  0
   13.3297  -19.2054   14.6898 C   0  0  0  0  0  0  0  0  0  0  0  0
   12.8966  -18.0347   15.5306 C   0  0  0  0  0  0  0  0  0  0  0  0
   14.3743  -19.8100   14.9052 O   0  0  0  0  0  0  0  0  0  0  0  0
   11.6239  -19.0113   13.5984 H   0  0  0  0  0  0  0  0  0  0  0  0
    8.3414  -20.2296   11.3127 C   0  0  0  0  0  0  0  0  0  0  0  0
    7.2752  -20.6755   12.1515 O   0  0  0  0  0  0  0  0  0  0  0  0
    7.3860  -21.6205   12.3404 H   0  0  0  0  0  0  0  0  0  0  0  0
   11.8819  -20.7739    8.9854 C   0  0  0  0  0  0  0  0  0  0  0  0
   12.4065  -21.1594   10.2484 O   0  0  0  0  0  0  0  0  0  0  0  0
   12.8668  -23.0040   12.3338 O   0  0  0  0  0  0  0  0  0  0  0  0
   14.2586  -23.1990   12.5362 C   0  0  0  0  0  0  0  0  0  0  0  0
   10.7611  -18.2880   11.7331 O   0  0  0  0  0  0  0  0  0  0  0  0
    9.7019  -18.0984   12.6684 C   0  0  0  0  0  0  0  0  0  0  0  0
 17 18  1  0
  1 18  1  0
  1  2  1  0
  2  9  1  0
  9 10  1  0
 10 11  1  0
 10 12  2  0
  2  3  1  0
  3 19  1  0
 19 20  1  0
  3  4  1  0
  4  5  1  0
  5  6  1  0
  6 14  1  0
 14 15  1  0
  6  7  1  0
  7 21  1  0
 21 22  1  0
  7  1  1  0
  9 13  1  0
  5  8  1  0
 15 16  1  0
M  END
> <minimizedAffinity>
-4.06198

> <CNNscore>
0.2434927672

> <CNNaffinity>
3.1242847443

> <CNN_VS>
0.7607407570

> <CNNaffinity_variance>
0.8976894021

$$$$



 22 22  0  0  0  0  0  0  0  0999 V2000
    9.9583  -19.8839   12.8882 C   0  0  0  0  0  0  0  0  0  0  0  0
    8.9281  -21.0271   12.6515 C   0  0  0  0  0  0  0  0  0  0  0  0
    9.1747  -22.3527   13.4212 C   0  0  0  0  0  0  0  0  0  0  0  0
   10.4896  -23.0714   13.0624 C   0  0  0  0  0  0  0  0  0  0  0  0
   11.7351  -22.2941   13.1734 N   0  0  0  0  0  0  0  0  0  0  0  0
   11.9244  -21.4224   11.9966 C   0  0  0  0  0  0  0  0  0  0  0  0
   11.2729  -20.0127   12.0772 C   0  0  0  0  0  0  0  0  0  0  0  0
   12.5240  -22.9370   13.2422 H   0  0  0  0  0  0  0  0  0  0  0  0
    8.6858  -21.2286   11.2116 N   0  0  0  0  0  0  0  0  0  0  0  0
    7.4310  -21.2402   10.6560 C   0  0  0  0  0  0  0  0  0  0  0  0
    7.4196  -21.3854    9.1580 C   0  0  0  0  0  0  0  0  0  0  0  0
    6.3976  -21.1365   11.3074 O   0  0  0  0  0  0  0  0  0  0  0  0
    9.4615  -21.3613   10.6200 H   0  0  0  0  0  0  0  0  0  0  0  0
   13.4529  -21.2411   11.7921 C   0  0  0  0  0  0  0  0  0  0  0  0
   13.7722  -19.8749   11.5259 O   0  0  0  0  0  0  0  0  0  0  0  0
   13.3217  -19.5895   10.7156 H   0  0  0  0  0  0  0  0  0  0  0  0
   11.4720  -18.8483   14.4247 C   0  0  0  0  0  0  0  0  0  0  0  0
   10.3077  -19.6456   14.2588 O   0  0  0  0  0  0  0  0  0  0  0  0
    9.0739  -22.1166   14.8379 O   0  0  0  0  0  0  0  0  0  0  0  0
    7.7521  -21.8538   15.2851 C   0  0  0  0  0  0  0  0  0  0  0  0
   11.0017  -19.6296   10.6986 O   0  0  0  0  0  0  0  0  0  0  0  0
   10.7326  -18.2351   10.5722 C   0  0  0  0  0  0  0  0  0  0  0  0
 17 18  1  0
  1 18  1  0
  1  2  1  0
  2  9  1  0
  9 10  1  0
 10 11  1  0
 10 12  2  0
  2  3  1  0
  3 19  1  0
 19 20  1  0
  3  4  1  0
  4  5  1  0
  5  6  1  0
  6 14  1  0
 14 15  1  0
  6  7  1  0
  7 21  1  0
 21 22  1  0
  7  1  1  0
  9 13  1  0
  5  8  1  0
 15 16  1  0
M  END
> <minimizedAffinity>
-3.84191

> <CNNscore>
0.2355486900

> <CNNaffinity>
2.7796719074

> <CNN_VS>
0.6547480822

> <CNNaffinity_variance>
1.0506333113

$$$$
