


 25 26  0  0  0  0  0  0  0  0999 V2000
   33.5591   23.8690   26.0607 C   0  0  0  0  0  0  0  0  0  0  0  0
   32.8679   23.9005   27.4389 C   0  0  0  0  0  0  0  0  0  0  0  0
   33.5562   22.9272   28.4467 C   0  0  0  0  0  0  0  0  0  0  0  0
   34.2110   21.8046   27.8328 O   0  0  0  0  0  0  0  0  0  0  0  0
   33.5382   21.3798   26.6411 C   0  0  0  0  0  0  0  0  0  0  0  0
   33.7351   22.4222   25.5247 C   0  0  0  0  0  0  0  0  0  0  0  0
   34.5136   23.6109   29.3294 N   0  0  0  0  0  0  0  0  0  0  0  0
   35.8608   23.6747   29.0130 C   0  0  0  0  0  0  0  0  0  0  0  0
   36.7308   24.3365   29.7742 C   0  0  0  0  0  0  0  0  0  0  0  0
   38.0406   24.4135   29.4760 F   0  0  0  0  0  0  0  0  0  0  0  0
   36.2614   25.0316   30.9862 C   0  0  0  0  0  0  0  0  0  0  0  0
   37.0074   25.6746   31.7154 O   0  0  0  0  0  0  0  0  0  0  0  0
   34.9177   24.9166   31.2310 N   0  0  0  0  0  0  0  0  0  0  0  0
   33.9984   24.2766   30.4373 C   0  0  0  0  0  0  0  0  0  0  0  0
   32.8027   24.3286   30.7142 O   0  0  0  0  0  0  0  0  0  0  0  0
   34.5790   25.3335   32.0561 H   0  0  0  0  0  0  0  0  0  0  0  0
   34.1354   20.0267   26.2327 C   0  0  0  0  0  0  0  0  0  0  0  0
   33.4304   18.9679   26.8837 O   0  0  0  0  0  0  0  0  0  0  0  0
   33.5069   19.0717   27.8451 H   0  0  0  0  0  0  0  0  0  0  0  0
   35.6027   24.5392   25.0056 C   0  0  0  0  0  0  0  0  0  0  0  0
   34.8350   24.5255   26.2026 O   0  0  0  0  0  0  0  0  0  0  0  0
   31.4867   23.5035   27.2970 O   0  0  0  0  0  0  0  0  0  0  0  0
   30.7095   24.4434   26.5661 C   0  0  0  0  0  0  0  0  0  0  0  0
   32.7948   22.1219   24.4809 O   0  0  0  0  0  0  0  0  0  0  0  0
   31.6873   21.3447   24.9148 C   0  0  0  0  0  0  0  0  0  0  0  0
 20 21  1  0
  1 21  1  0
  1  2  1  0
  2 22  1  0
 22 23  1  0
  2  3  1  0
  3  7  1  0
  7  8  1  0
  8  9  2  0
  9 10  1  0
  9 11  1  0
 11 12  2  0
 11 13  1  0
 13 14  1  0
 14 15  2  0
  3  4  1  0
  4  5  1  0
  5 17  1  0
 17 18  1  0
  5  6  1  0
  6 24  1  0
 24 25  1  0
  6  1  1  0
 14  7  1  0
 13 16  1  0
 18 19  1  0
M  END
> <minimizedAffinity>
-8.18726

> <CNNscore>
0.4436705709

> <CNNaffinity>
4.4374752045

> <CNN_VS>
1.9687771797

> <CNNaffinity_variance>
0.7124645114

$$$$



 25 26  0  0  0  0  0  0  0  0999 V2000
   32.9283   21.2230   26.8276 C   0  0  0  0  0  0  0  0  0  0  0  0
   33.9216   22.3680   26.5444 C   0  0  0  0  0  0  0  0  0  0  0  0
   33.4779   23.6949   27.2367 C   0  0  0  0  0  0  0  0  0  0  0  0
   32.0600   23.8106   27.4416 O   0  0  0  0  0  0  0  0  0  0  0  0
   31.3154   23.1602   26.4044 C   0  0  0  0  0  0  0  0  0  0  0  0
   31.4600   21.6322   26.5309 C   0  0  0  0  0  0  0  0  0  0  0  0
   34.1629   23.9209   28.5185 N   0  0  0  0  0  0  0  0  0  0  0  0
   35.5456   23.9136   28.6032 C   0  0  0  0  0  0  0  0  0  0  0  0
   36.1810   24.1705   29.7455 C   0  0  0  0  0  0  0  0  0  0  0  0
   37.5230   24.1743   29.8416 F   0  0  0  0  0  0  0  0  0  0  0  0
   35.4055   24.4800   30.9600 C   0  0  0  0  0  0  0  0  0  0  0  0
   35.9306   24.7456   32.0349 O   0  0  0  0  0  0  0  0  0  0  0  0
   34.0451   24.4626   30.7938 N   0  0  0  0  0  0  0  0  0  0  0  0
   33.3724   24.2432   29.6173 C   0  0  0  0  0  0  0  0  0  0  0  0
   32.1495   24.3524   29.5769 O   0  0  0  0  0  0  0  0  0  0  0  0
   33.4972   24.6231   31.5958 H   0  0  0  0  0  0  0  0  0  0  0  0
   29.8480   23.5817   26.5575 C   0  0  0  0  0  0  0  0  0  0  0  0
   28.9937   22.5759   26.0094 O   0  0  0  0  0  0  0  0  0  0  0  0
   29.1941   22.4596   25.0675 H   0  0  0  0  0  0  0  0  0  0  0  0
   32.5656   19.5561   28.5095 C   0  0  0  0  0  0  0  0  0  0  0  0
   33.0890   20.8439   28.2095 O   0  0  0  0  0  0  0  0  0  0  0  0
   33.9972   22.6027   25.1215 O   0  0  0  0  0  0  0  0  0  0  0  0
   34.7034   23.7914   24.7900 C   0  0  0  0  0  0  0  0  0  0  0  0
   30.9803   21.0491   25.3087 O   0  0  0  0  0  0  0  0  0  0  0  0
   30.9381   19.6290   25.3302 C   0  0  0  0  0  0  0  0  0  0  0  0
 20 21  1  0
  1 21  1  0
  1  2  1  0
  2 22  1  0
 22 23  1  0
  2  3  1  0
  3  7  1  0
  7  8  1  0
  8  9  2  0
  9 10  1  0
  9 11  1  0
 11 12  2  0
 11 13  1  0
 13 14  1  0
 14 15  2  0
  3  4  1  0
  4  5  1  0
  5 17  1  0
 17 18  1  0
  5  6  1  0
  6 24  1  0
 24 25  1  0
  6  1  1  0
 14  7  1  0
 13 16  1  0
 18 19  1  0
M  END
> <minimizedAffinity>
-6.89700

> <CNNscore>
0.4431366920

> <CNNaffinity>
4.3785681725

> <CNN_VS>
1.9403041601

> <CNNaffinity_variance>
1.0648202896

$$$$



 25 26  0  0  0  0  0  0  0  0999 V2000
   38.3286   24.7464   32.6532 C   0  0  0  0  0  0  0  0  0  0  0  0
   37.7624   25.8078   31.6883 C   0  0  0  0  0  0  0  0  0  0  0  0
   37.7201   25.2814   30.2194 C   0  0  0  0  0  0  0  0  0  0  0  0
   38.7060   24.2791   29.9208 O   0  0  0  0  0  0  0  0  0  0  0  0
   39.9137   24.4787   30.6658 C   0  0  0  0  0  0  0  0  0  0  0  0
   39.6749   24.1561   32.1526 C   0  0  0  0  0  0  0  0  0  0  0  0
   36.3940   24.7712   29.8391 N   0  0  0  0  0  0  0  0  0  0  0  0
   36.2510   23.8186   28.8435 C   0  0  0  0  0  0  0  0  0  0  0  0
   35.0628   23.3073   28.5257 C   0  0  0  0  0  0  0  0  0  0  0  0
   34.9091   22.3764   27.5665 F   0  0  0  0  0  0  0  0  0  0  0  0
   33.8581   23.7519   29.2492 C   0  0  0  0  0  0  0  0  0  0  0  0
   32.7407   23.3047   29.0187 O   0  0  0  0  0  0  0  0  0  0  0  0
   34.0837   24.6982   30.2147 N   0  0  0  0  0  0  0  0  0  0  0  0
   35.3038   25.2057   30.5867 C   0  0  0  0  0  0  0  0  0  0  0  0
   35.3859   25.9789   31.5377 O   0  0  0  0  0  0  0  0  0  0  0  0
   33.2940   25.0480   30.6873 H   0  0  0  0  0  0  0  0  0  0  0  0
   40.9799   23.5486   30.0723 C   0  0  0  0  0  0  0  0  0  0  0  0
   42.2002   23.6788   30.8042 O   0  0  0  0  0  0  0  0  0  0  0  0
   42.5131   24.5954   30.7507 H   0  0  0  0  0  0  0  0  0  0  0  0
   36.1860   24.1252   33.5261 C   0  0  0  0  0  0  0  0  0  0  0  0
   37.3321   23.7135   32.7918 O   0  0  0  0  0  0  0  0  0  0  0  0
   38.5951   26.9872   31.7232 O   0  0  0  0  0  0  0  0  0  0  0  0
   38.7225   27.5404   33.0268 C   0  0  0  0  0  0  0  0  0  0  0  0
   40.7922   24.6732   32.8929 O   0  0  0  0  0  0  0  0  0  0  0  0
   40.4231   25.3597   34.0809 C   0  0  0  0  0  0  0  0  0  0  0  0
 20 21  1  0
  1 21  1  0
  1  2  1  0
  2 22  1  0
 22 23  1  0
  2  3  1  0
  3  7  1  0
  7  8  1  0
  8  9  2  0
  9 10  1  0
  9 11  1  0
 11 12  2  0
 11 13  1  0
 13 14  1  0
 14 15  2  0
  3  4  1  0
  4  5  1  0
  5 17  1  0
 17 18  1  0
  5  6  1  0
  6 24  1  0
 24 25  1  0
  6  1  1  0
 14  7  1  0
 13 16  1  0
 18 19  1  0
M  END
> <minimizedAffinity>
-1.90968

> <CNNscore>
0.3721525669

> <CNNaffinity>
4.2343111038

> <CNN_VS>
1.5758097172

> <CNNaffinity_variance>
0.3148501515

$$$$



 25 26  0  0  0  0  0  0  0  0999 V2000
   35.1877   13.8313   29.2379 C   0  0  0  0  0  0  0  0  0  0  0  0
   34.9745   15.3539   29.1199 C   0  0  0  0  0  0  0  0  0  0  0  0
   33.4570   15.7181   29.0807 C   0  0  0  0  0  0  0  0  0  0  0  0
   32.6131   14.6827   28.5499 O   0  0  0  0  0  0  0  0  0  0  0  0
   33.2794   13.9158   27.5394 C   0  0  0  0  0  0  0  0  0  0  0  0
   34.3735   13.0402   28.1782 C   0  0  0  0  0  0  0  0  0  0  0  0
   32.9388   16.1257   30.3954 N   0  0  0  0  0  0  0  0  0  0  0  0
   32.5897   15.1857   31.3511 C   0  0  0  0  0  0  0  0  0  0  0  0
   32.1706   15.5398   32.5649 C   0  0  0  0  0  0  0  0  0  0  0  0
   31.8351   14.6385   33.5058 F   0  0  0  0  0  0  0  0  0  0  0  0
   32.0772   16.9676   32.9186 C   0  0  0  0  0  0  0  0  0  0  0  0
   31.7197   17.3570   34.0242 O   0  0  0  0  0  0  0  0  0  0  0  0
   32.4358   17.8326   31.9178 N   0  0  0  0  0  0  0  0  0  0  0  0
   32.9107   17.4882   30.6766 C   0  0  0  0  0  0  0  0  0  0  0  0
   33.2938   18.3592   29.8997 O   0  0  0  0  0  0  0  0  0  0  0  0
   32.3438   18.7943   32.1073 H   0  0  0  0  0  0  0  0  0  0  0  0
   32.2210   13.0455   26.8492 C   0  0  0  0  0  0  0  0  0  0  0  0
   32.8571   11.9989   26.1130 O   0  0  0  0  0  0  0  0  0  0  0  0
   33.4392   12.3847   25.4398 H   0  0  0  0  0  0  0  0  0  0  0  0
   35.5650   12.3547   31.0861 C   0  0  0  0  0  0  0  0  0  0  0  0
   34.8083   13.4444   30.5741 O   0  0  0  0  0  0  0  0  0  0  0  0
   35.5877   15.8360   27.9046 O   0  0  0  0  0  0  0  0  0  0  0  0
   36.9014   15.3298   27.7051 C   0  0  0  0  0  0  0  0  0  0  0  0
   35.2108   12.5513   27.1181 O   0  0  0  0  0  0  0  0  0  0  0  0
   35.0232   13.2275   25.8826 C   0  0  0  0  0  0  0  0  0  0  0  0
 20 21  1  0
  1 21  1  0
  1  2  1  0
  2 22  1  0
 22 23  1  0
  2  3  1  0
  3  7  1  0
  7  8  1  0
  8  9  2  0
  9 10  1  0
  9 11  1  0
 11 12  2  0
 11 13  1  0
 13 14  1  0
 14 15  2  0
  3  4  1  0
  4  5  1  0
  5 17  1  0
 17 18  1  0
  5  6  1  0
  6 24  1  0
 24 25  1  0
  6  1  1  0
 14  7  1  0
 13 16  1  0
 18 19  1  0
M  END
> <minimizedAffinity>
56.84648

> <CNNscore>
0.2484716922

> <CNNaffinity>
4.0240387917

> <CNN_VS>
0.9998597503

> <CNNaffinity_variance>
0.0597710907

$$$$



 25 26  0  0  0  0  0  0  0  0999 V2000
   34.0649   15.7396   29.9578 C   0  0  0  0  0  0  0  0  0  0  0  0
   34.8182   16.4873   28.8390 C   0  0  0  0  0  0  0  0  0  0  0  0
   33.9965   16.5100   27.5120 C   0  0  0  0  0  0  0  0  0  0  0  0
   33.0925   15.4034   27.3562 O   0  0  0  0  0  0  0  0  0  0  0  0
   33.6000   14.2091   27.9640 C   0  0  0  0  0  0  0  0  0  0  0  0
   33.5655   14.3430   29.4979 C   0  0  0  0  0  0  0  0  0  0  0  0
   33.2485   17.7633   27.3309 N   0  0  0  0  0  0  0  0  0  0  0  0
   31.9490   17.8955   27.7922 C   0  0  0  0  0  0  0  0  0  0  0  0
   31.2781   19.0412   27.6842 C   0  0  0  0  0  0  0  0  0  0  0  0
   30.0184   19.1869   28.1340 F   0  0  0  0  0  0  0  0  0  0  0  0
   31.9252   20.2121   27.0656 C   0  0  0  0  0  0  0  0  0  0  0  0
   31.3696   21.2988   26.9564 O   0  0  0  0  0  0  0  0  0  0  0  0
   33.2076   19.9980   26.6318 N   0  0  0  0  0  0  0  0  0  0  0  0
   33.9309   18.8397   26.7723 C   0  0  0  0  0  0  0  0  0  0  0  0
   35.1101   18.8039   26.4298 O   0  0  0  0  0  0  0  0  0  0  0  0
   33.6533   20.7477   26.1751 H   0  0  0  0  0  0  0  0  0  0  0  0
   32.7151   13.0447   27.5001 C   0  0  0  0  0  0  0  0  0  0  0  0
   33.2825   12.4360   26.3384 O   0  0  0  0  0  0  0  0  0  0  0  0
   33.3430   13.0921   25.6265 H   0  0  0  0  0  0  0  0  0  0  0  0
   33.0262   16.9714   31.7305 C   0  0  0  0  0  0  0  0  0  0  0  0
   32.9616   16.5730   30.3670 O   0  0  0  0  0  0  0  0  0  0  0  0
   36.0780   15.8303   28.5808 O   0  0  0  0  0  0  0  0  0  0  0  0
   36.7150   16.2933   27.3970 C   0  0  0  0  0  0  0  0  0  0  0  0
   34.3677   13.2834   30.0432 O   0  0  0  0  0  0  0  0  0  0  0  0
   35.5272   12.9906   29.2759 C   0  0  0  0  0  0  0  0  0  0  0  0
 20 21  1  0
  1 21  1  0
  1  2  1  0
  2 22  1  0
 22 23  1  0
  2  3  1  0
  3  7  1  0
  7  8  1  0
  8  9  2  0
  9 10  1  0
  9 11  1  0
 11 12  2  0
 11 13  1  0
 13 14  1  0
 14 15  2  0
  3  4  1  0
  4  5  1  0
  5 17  1  0
 17 18  1  0
  5  6  1  0
  6 24  1  0
 24 25  1  0
  6  1  1  0
 14  7  1  0
 13 16  1  0
 18 19  1  0
M  END
> <minimizedAffinity>
44.60447

> <CNNscore>
0.2020068467

> <CNNaffinity>
3.9699573517

> <CNN_VS>
0.8019585609

> <CNNaffinity_variance>
0.0419734567

$$$$



 25 26  0  0  0  0  0  0  0  0999 V2000
   32.5775   23.3372   27.7771 C   0  0  0  0  0  0  0  0  0  0  0  0
   33.6511   22.4579   28.4495 C   0  0  0  0  0  0  0  0  0  0  0  0
   35.0719   23.0923   28.3232 C   0  0  0  0  0  0  0  0  0  0  0  0
   35.2423   23.9390   27.1744 O   0  0  0  0  0  0  0  0  0  0  0  0
   34.4637   23.4892   26.0587 C   0  0  0  0  0  0  0  0  0  0  0  0
   32.9673   23.7348   26.3274 C   0  0  0  0  0  0  0  0  0  0  0  0
   35.4668   23.8397   29.5268 N   0  0  0  0  0  0  0  0  0  0  0  0
   36.7239   24.4118   29.6348 C   0  0  0  0  0  0  0  0  0  0  0  0
   37.0770   25.1373   30.6947 C   0  0  0  0  0  0  0  0  0  0  0  0
   38.2912   25.7052   30.8105 F   0  0  0  0  0  0  0  0  0  0  0  0
   36.1121   25.3525   31.7879 C   0  0  0  0  0  0  0  0  0  0  0  0
   36.3686   26.0270   32.7784 O   0  0  0  0  0  0  0  0  0  0  0  0
   34.8942   24.7504   31.6069 N   0  0  0  0  0  0  0  0  0  0  0  0
   34.4962   24.0359   30.5043 C   0  0  0  0  0  0  0  0  0  0  0  0
   33.3405   23.6286   30.4179 O   0  0  0  0  0  0  0  0  0  0  0  0
   34.2415   24.8389   32.3386 H   0  0  0  0  0  0  0  0  0  0  0  0
   34.9303   24.2738   24.8254 C   0  0  0  0  0  0  0  0  0  0  0  0
   35.8408   25.3022   25.2196 O   0  0  0  0  0  0  0  0  0  0  0  0
   35.3974   25.9089   25.8329 H   0  0  0  0  0  0  0  0  0  0  0  0
   31.6765   25.5494   27.9592 C   0  0  0  0  0  0  0  0  0  0  0  0
   32.3981   24.5062   28.6020 O   0  0  0  0  0  0  0  0  0  0  0  0
   33.6773   21.1588   27.8193 O   0  0  0  0  0  0  0  0  0  0  0  0
   32.4293   20.4811   27.8888 C   0  0  0  0  0  0  0  0  0  0  0  0
   32.2237   22.9879   25.3512 O   0  0  0  0  0  0  0  0  0  0  0  0
   30.8332   22.9056   25.6313 C   0  0  0  0  0  0  0  0  0  0  0  0
 20 21  1  0
  1 21  1  0
  1  2  1  0
  2 22  1  0
 22 23  1  0
  2  3  1  0
  3  7  1  0
  7  8  1  0
  8  9  2  0
  9 10  1  0
  9 11  1  0
 11 12  2  0
 11 13  1  0
 13 14  1  0
 14 15  2  0
  3  4  1  0
  4  5  1  0
  5 17  1  0
 17 18  1  0
  5  6  1  0
  6 24  1  0
 24 25  1  0
  6  1  1  0
 14  7  1  0
 13 16  1  0
 18 19  1  0
M  END
> <minimizedAffinity>
-7.24449

> <CNNscore>
0.1984176934

> <CNNaffinity>
3.6897480488

> <CNN_VS>
0.7321112752

> <CNNaffinity_variance>
0.9890291095

$$$$



 25 26  0  0  0  0  0  0  0  0999 V2000
   37.0675   24.0504   32.0143 C   0  0  0  0  0  0  0  0  0  0  0  0
   37.9176   24.6265   30.8639 C   0  0  0  0  0  0  0  0  0  0  0  0
   39.1175   25.4664   31.4039 C   0  0  0  0  0  0  0  0  0  0  0  0
   38.8925   26.0589   32.6940 O   0  0  0  0  0  0  0  0  0  0  0  0
   37.5169   26.4101   32.8882 C   0  0  0  0  0  0  0  0  0  0  0  0
   36.6657   25.1367   33.0488 C   0  0  0  0  0  0  0  0  0  0  0  0
   40.3717   24.6994   31.4459 N   0  0  0  0  0  0  0  0  0  0  0  0
   40.7910   23.9512   30.3580 C   0  0  0  0  0  0  0  0  0  0  0  0
   41.9505   23.2955   30.3611 C   0  0  0  0  0  0  0  0  0  0  0  0
   42.3744   22.5709   29.3096 F   0  0  0  0  0  0  0  0  0  0  0  0
   42.8262   23.3640   31.5446 C   0  0  0  0  0  0  0  0  0  0  0  0
   43.9135   22.8015   31.6011 O   0  0  0  0  0  0  0  0  0  0  0  0
   42.3379   24.1200   32.5783 N   0  0  0  0  0  0  0  0  0  0  0  0
   41.1676   24.8376   32.5789 C   0  0  0  0  0  0  0  0  0  0  0  0
   40.8871   25.5587   33.5330 O   0  0  0  0  0  0  0  0  0  0  0  0
   42.8789   24.1514   33.4003 H   0  0  0  0  0  0  0  0  0  0  0  0
   37.4374   27.2795   34.1499 C   0  0  0  0  0  0  0  0  0  0  0  0
   38.7488   27.4943   34.6755 O   0  0  0  0  0  0  0  0  0  0  0  0
   39.1498   26.6408   34.9027 H   0  0  0  0  0  0  0  0  0  0  0  0
   39.2145   23.3264   32.7921 C   0  0  0  0  0  0  0  0  0  0  0  0
   37.8381   23.0036   32.6384 O   0  0  0  0  0  0  0  0  0  0  0  0
   37.0990   25.4839   30.0393 O   0  0  0  0  0  0  0  0  0  0  0  0
   35.8948   24.8605   29.6115 C   0  0  0  0  0  0  0  0  0  0  0  0
   35.2871   25.5174   32.9143 O   0  0  0  0  0  0  0  0  0  0  0  0
   34.3737   24.5334   33.3794 C   0  0  0  0  0  0  0  0  0  0  0  0
 20 21  1  0
  1 21  1  0
  1  2  1  0
  2 22  1  0
 22 23  1  0
  2  3  1  0
  3  7  1  0
  7  8  1  0
  8  9  2  0
  9 10  1  0
  9 11  1  0
 11 12  2  0
 11 13  1  0
 13 14  1  0
 14 15  2  0
  3  4  1  0
  4  5  1  0
  5 17  1  0
 17 18  1  0
  5  6  1  0
  6 24  1  0
 24 25  1  0
  6  1  1  0
 14  7  1  0
 13 16  1  0
 18 19  1  0
M  END
> <minimizedAffinity>
-0.07182

> <CNNscore>
0.1860010177

> <CNNaffinity>
4.1811046600

> <CNN_VS>
0.7776896954

> <CNNaffinity_variance>
0.2824949324

$$$$



 25 26  0  0  0  0  0  0  0  0999 V2000
   37.7813   26.4762   31.9733 C   0  0  0  0  0  0  0  0  0  0  0  0
   37.4795   25.7174   33.2813 C   0  0  0  0  0  0  0  0  0  0  0  0
   38.7916   25.2790   34.0044 C   0  0  0  0  0  0  0  0  0  0  0  0
   39.9128   25.0794   33.1274 O   0  0  0  0  0  0  0  0  0  0  0  0
   39.5060   24.5943   31.8420 C   0  0  0  0  0  0  0  0  0  0  0  0
   38.7788   25.7074   31.0648 C   0  0  0  0  0  0  0  0  0  0  0  0
   39.1854   26.2079   35.0746 N   0  0  0  0  0  0  0  0  0  0  0  0
   38.2654   26.6581   36.0074 C   0  0  0  0  0  0  0  0  0  0  0  0
   38.6182   27.4559   37.0140 C   0  0  0  0  0  0  0  0  0  0  0  0
   37.7377   27.8952   37.9316 F   0  0  0  0  0  0  0  0  0  0  0  0
   40.0242   27.8744   37.1572 C   0  0  0  0  0  0  0  0  0  0  0  0
   40.4157   28.5890   38.0725 O   0  0  0  0  0  0  0  0  0  0  0  0
   40.8693   27.3904   36.1928 N   0  0  0  0  0  0  0  0  0  0  0  0
   40.5346   26.5335   35.1738 C   0  0  0  0  0  0  0  0  0  0  0  0
   41.4057   26.0909   34.4293 O   0  0  0  0  0  0  0  0  0  0  0  0
   41.8075   27.6859   36.2349 H   0  0  0  0  0  0  0  0  0  0  0  0
   40.7709   24.1484   31.0968 C   0  0  0  0  0  0  0  0  0  0  0  0
   41.8715   24.0794   32.0056 O   0  0  0  0  0  0  0  0  0  0  0  0
   42.0243   24.9544   32.3953 H   0  0  0  0  0  0  0  0  0  0  0  0
   37.6973   28.3240   33.4956 C   0  0  0  0  0  0  0  0  0  0  0  0
   38.3052   27.7698   32.3356 O   0  0  0  0  0  0  0  0  0  0  0  0
   36.7070   24.5332   32.9870 O   0  0  0  0  0  0  0  0  0  0  0  0
   35.3236   24.6844   33.2784 C   0  0  0  0  0  0  0  0  0  0  0  0
   38.1179   25.0939   29.9464 O   0  0  0  0  0  0  0  0  0  0  0  0
   37.7196   23.7508   30.1835 C   0  0  0  0  0  0  0  0  0  0  0  0
 20 21  1  0
  1 21  1  0
  1  2  1  0
  2 22  1  0
 22 23  1  0
  2  3  1  0
  3  7  1  0
  7  8  1  0
  8  9  2  0
  9 10  1  0
  9 11  1  0
 11 12  2  0
 11 13  1  0
 13 14  1  0
 14 15  2  0
  3  4  1  0
  4  5  1  0
  5 17  1  0
 17 18  1  0
  5  6  1  0
  6 24  1  0
 24 25  1  0
  6  1  1  0
 14  7  1  0
 13 16  1  0
 18 19  1  0
M  END
> <minimizedAffinity>
-1.33512

> <CNNscore>
0.1808637977

> <CNNaffinity>
4.3406386375

> <CNN_VS>
0.7850643992

> <CNNaffinity_variance>
0.2225176245

$$$$



 25 26  0  0  0  0  0  0  0  0999 V2000
   37.1997   26.8901   32.2051 C   0  0  0  0  0  0  0  0  0  0  0  0
   36.3463   26.4096   33.3963 C   0  0  0  0  0  0  0  0  0  0  0  0
   37.1791   25.5261   34.3774 C   0  0  0  0  0  0  0  0  0  0  0  0
   38.2754   24.8296   33.7619 O   0  0  0  0  0  0  0  0  0  0  0  0
   37.9841   24.4658   32.4069 C   0  0  0  0  0  0  0  0  0  0  0  0
   37.9590   25.7229   31.5176 C   0  0  0  0  0  0  0  0  0  0  0  0
   37.6862   26.2851   35.5307 N   0  0  0  0  0  0  0  0  0  0  0  0
   39.0232   26.6350   35.6266 C   0  0  0  0  0  0  0  0  0  0  0  0
   39.4868   27.3685   36.6372 C   0  0  0  0  0  0  0  0  0  0  0  0
   40.7809   27.7223   36.7401 F   0  0  0  0  0  0  0  0  0  0  0  0
   38.5629   27.8346   37.6867 C   0  0  0  0  0  0  0  0  0  0  0  0
   38.9232   28.5295   38.6296 O   0  0  0  0  0  0  0  0  0  0  0  0
   37.2599   27.4428   37.5212 N   0  0  0  0  0  0  0  0  0  0  0  0
   36.7545   26.7245   36.4661 C   0  0  0  0  0  0  0  0  0  0  0  0
   35.5461   26.5204   36.3819 O   0  0  0  0  0  0  0  0  0  0  0  0
   36.6249   27.7015   38.2277 H   0  0  0  0  0  0  0  0  0  0  0  0
   39.0793   23.4954   31.9452 C   0  0  0  0  0  0  0  0  0  0  0  0
   40.3024   24.2052   31.7396 O   0  0  0  0  0  0  0  0  0  0  0  0
   40.1719   24.8839   31.0590 H   0  0  0  0  0  0  0  0  0  0  0  0
   39.4863   27.5280   32.5266 C   0  0  0  0  0  0  0  0  0  0  0  0
   38.1203   27.8808   32.7054 O   0  0  0  0  0  0  0  0  0  0  0  0
   35.2359   25.6243   32.9108 O   0  0  0  0  0  0  0  0  0  0  0  0
   34.8806   24.5617   33.7862 C   0  0  0  0  0  0  0  0  0  0  0  0
   37.3545   25.3567   30.2669 O   0  0  0  0  0  0  0  0  0  0  0  0
   36.5041   24.2217   30.3531 C   0  0  0  0  0  0  0  0  0  0  0  0
 20 21  1  0
  1 21  1  0
  1  2  1  0
  2 22  1  0
 22 23  1  0
  2  3  1  0
  3  7  1  0
  7  8  1  0
  8  9  2  0
  9 10  1  0
  9 11  1  0
 11 12  2  0
 11 13  1  0
 13 14  1  0
 14 15  2  0
  3  4  1  0
  4  5  1  0
  5 17  1  0
 17 18  1  0
  5  6  1  0
  6 24  1  0
 24 25  1  0
  6  1  1  0
 14  7  1  0
 13 16  1  0
 18 19  1  0
M  END
> <minimizedAffinity>
0.68398

> <CNNscore>
0.1531274468

> <CNNaffinity>
4.4310431480

> <CNN_VS>
0.6785143018

> <CNNaffinity_variance>
0.2338018864

$$$$
