


 29 32  0  0  0  0  0  0  0  0999 V2000
   26.2160   30.0883   26.7325 C   0  0  0  0  0  0  0  0  0  0  0  0
   26.1639   31.4620   26.6846 C   0  0  0  0  0  0  0  0  0  0  0  0
   25.2550   32.0408   27.5313 C   0  0  0  0  0  0  0  0  0  0  0  0
   25.0637   33.7438   27.5715 Cl  0  0  0  0  0  0  0  0  0  0  0  0
   24.4490   31.3773   28.3644 N   0  0  0  0  0  0  0  0  0  0  0  0
   24.5822   30.0549   28.3304 C   0  0  0  0  0  0  0  0  0  0  0  0
   25.4290   29.3701   27.5549 N   0  0  0  0  0  0  0  0  0  0  0  0
   25.5264   27.6150   24.8712 C   0  0  0  0  0  0  0  0  0  0  0  0
   26.8500   28.2890   25.0591 C   0  0  0  0  0  0  0  0  0  0  0  0
   27.1260   29.3222   25.8755 C   0  0  0  0  0  0  0  0  0  0  0  0
   28.8081   29.7687   25.8123 S   0  0  0  0  0  0  0  0  0  0  0  0
   29.1533   28.5040   24.6325 C   0  0  0  0  0  0  0  0  0  0  0  0
   30.2625   28.3003   24.1679 O   0  0  0  0  0  0  0  0  0  0  0  0
   27.9724   27.8305   24.3709 N   0  0  0  0  0  0  0  0  0  0  0  0
   27.9451   26.7319   23.4318 C   0  0  0  0  0  0  0  0  0  0  0  0
   23.7820   29.3149   29.1851 N   0  0  0  0  0  0  0  0  0  0  0  0
   23.5078   28.0839   28.8828 C   0  0  0  0  0  0  0  0  0  0  0  0
   24.0357   27.3110   27.7224 C   0  0  0  0  0  0  0  0  0  0  0  0
   23.5015   26.1202   27.4218 C   0  0  0  0  0  0  0  0  0  0  0  0
   22.3853   25.5068   28.1276 C   0  0  0  0  0  0  0  0  0  0  0  0
   22.0058   26.0760   29.2861 C   0  0  0  0  0  0  0  0  0  0  0  0
   22.5833   27.3410   29.8461 C   0  0  0  0  0  0  0  0  0  0  0  0
   21.8108   24.3431   27.6057 N   0  0  0  0  0  0  0  0  0  0  0  0
   20.6643   23.6498   28.2298 C   0  0  0  0  0  0  0  0  0  0  0  0
   19.6438   23.2138   27.1512 C   0  0  0  0  0  0  0  0  0  0  0  0
   20.2125   22.7126   25.8823 N   0  0  0  0  0  0  0  0  0  0  0  0
   21.6190   22.3336   26.0891 C   0  0  0  0  0  0  0  0  0  0  0  0
   22.5036   23.4974   26.5983 C   0  0  0  0  0  0  0  0  0  0  0  0
   20.1585   23.4440   25.1734 H   0  0  0  0  0  0  0  0  0  0  0  0
  8  9  1  0
  9 10  2  0
 10  1  1  0
  1  2  2  0
  2  3  1  0
  3  4  1  0
  3  5  2  0
  5  6  1  0
  6 16  1  0
 16 17  2  0
 17 18  1  0
 18 19  2  0
 19 20  1  0
 20 23  1  0
 23 24  1  0
 24 25  1  0
 25 26  1  0
 26 27  1  0
 27 28  1  0
 20 21  2  0
 21 22  1  0
  6  7  2  0
 10 11  1  0
 11 12  1  0
 12 13  2  0
 12 14  1  0
 14 15  1  0
 14  9  1  0
  7  1  1  0
 22 17  1  0
 28 23  1  0
 26 29  1  0
M  END
> <minimizedAffinity>
-9.72652

> <CNNscore>
0.9525163770

> <CNNaffinity>
8.3939199448

> <CNN_VS>
7.9953460693

> <CNNaffinity_variance>
0.1397946924

$$$$



 29 32  0  0  0  0  0  0  0  0999 V2000
   27.8642   29.7666   25.5711 C   0  0  0  0  0  0  0  0  0  0  0  0
   29.1042   30.3614   25.5957 C   0  0  0  0  0  0  0  0  0  0  0  0
   30.0287   29.8176   24.7426 C   0  0  0  0  0  0  0  0  0  0  0  0
   31.6237   30.4418   24.6741 Cl  0  0  0  0  0  0  0  0  0  0  0  0
   29.8065   28.7859   23.9239 N   0  0  0  0  0  0  0  0  0  0  0  0
   28.5750   28.2878   23.9801 C   0  0  0  0  0  0  0  0  0  0  0  0
   27.5848   28.7264   24.7640 N   0  0  0  0  0  0  0  0  0  0  0  0
   25.9244   28.0089   27.3613 C   0  0  0  0  0  0  0  0  0  0  0  0
   25.9579   29.4995   27.2247 C   0  0  0  0  0  0  0  0  0  0  0  0
   26.7737   30.2242   26.4377 C   0  0  0  0  0  0  0  0  0  0  0  0
   26.4450   31.9302   26.5574 S   0  0  0  0  0  0  0  0  0  0  0  0
   25.1488   31.6519   27.7205 C   0  0  0  0  0  0  0  0  0  0  0  0
   24.4808   32.5463   28.2120 O   0  0  0  0  0  0  0  0  0  0  0  0
   25.0533   30.2875   27.9349 N   0  0  0  0  0  0  0  0  0  0  0  0
   24.0699   29.7541   28.8502 C   0  0  0  0  0  0  0  0  0  0  0  0
   28.2821   27.2253   23.1411 N   0  0  0  0  0  0  0  0  0  0  0  0
   27.3741   26.3717   23.4998 C   0  0  0  0  0  0  0  0  0  0  0  0
   26.5146   26.4411   24.7159 C   0  0  0  0  0  0  0  0  0  0  0  0
   25.7709   25.3825   25.0625 C   0  0  0  0  0  0  0  0  0  0  0  0
   25.7544   24.1097   24.3554 C   0  0  0  0  0  0  0  0  0  0  0  0
   26.3640   24.0669   23.1567 C   0  0  0  0  0  0  0  0  0  0  0  0
   27.1339   25.2003   22.5487 C   0  0  0  0  0  0  0  0  0  0  0  0
   25.0681   23.0296   24.9201 N   0  0  0  0  0  0  0  0  0  0  0  0
   25.4321   21.6173   24.6797 C   0  0  0  0  0  0  0  0  0  0  0  0
   25.3727   20.8115   25.9996 C   0  0  0  0  0  0  0  0  0  0  0  0
   24.2625   21.1457   26.9165 N   0  0  0  0  0  0  0  0  0  0  0  0
   23.2136   21.8656   26.1774 C   0  0  0  0  0  0  0  0  0  0  0  0
   23.7122   23.1717   25.5128 C   0  0  0  0  0  0  0  0  0  0  0  0
   24.6117   21.7356   27.6719 H   0  0  0  0  0  0  0  0  0  0  0  0
  8  9  1  0
  9 10  2  0
 10  1  1  0
  1  2  2  0
  2  3  1  0
  3  4  1  0
  3  5  2  0
  5  6  1  0
  6 16  1  0
 16 17  2  0
 17 18  1  0
 18 19  2  0
 19 20  1  0
 20 23  1  0
 23 24  1  0
 24 25  1  0
 25 26  1  0
 26 27  1  0
 27 28  1  0
 20 21  2  0
 21 22  1  0
  6  7  2  0
 10 11  1  0
 11 12  1  0
 12 13  2  0
 12 14  1  0
 14 15  1  0
 14  9  1  0
  7  1  1  0
 22 17  1  0
 28 23  1  0
 26 29  1  0
M  END
> <minimizedAffinity>
-9.11415

> <CNNscore>
0.7989233732

> <CNNaffinity>
7.9712471962

> <CNN_VS>
6.3684158325

> <CNNaffinity_variance>
0.1307189316

$$$$



 29 32  0  0  0  0  0  0  0  0999 V2000
   26.1062   29.9821   26.7324 C   0  0  0  0  0  0  0  0  0  0  0  0
   26.1566   31.3565   26.7546 C   0  0  0  0  0  0  0  0  0  0  0  0
   25.2868   31.9578   27.6264 C   0  0  0  0  0  0  0  0  0  0  0  0
   25.2222   33.6661   27.7530 Cl  0  0  0  0  0  0  0  0  0  0  0  0
   24.4275   31.3148   28.4215 N   0  0  0  0  0  0  0  0  0  0  0  0
   24.4624   29.9896   28.3204 C   0  0  0  0  0  0  0  0  0  0  0  0
   25.2618   29.2838   27.5141 N   0  0  0  0  0  0  0  0  0  0  0  0
   29.1812   30.4194   26.0917 C   0  0  0  0  0  0  0  0  0  0  0  0
   28.2736   29.3462   25.5759 C   0  0  0  0  0  0  0  0  0  0  0  0
   26.9632   29.1948   25.8407 C   0  0  0  0  0  0  0  0  0  0  0  0
   26.2836   27.8305   24.9983 S   0  0  0  0  0  0  0  0  0  0  0  0
   27.8370   27.4488   24.2557 C   0  0  0  0  0  0  0  0  0  0  0  0
   28.0065   26.5152   23.4894 O   0  0  0  0  0  0  0  0  0  0  0  0
   28.7608   28.3819   24.6947 N   0  0  0  0  0  0  0  0  0  0  0  0
   30.1349   28.3215   24.2502 C   0  0  0  0  0  0  0  0  0  0  0  0
   23.6031   29.2689   29.1331 N   0  0  0  0  0  0  0  0  0  0  0  0
   23.3473   28.0320   28.8387 C   0  0  0  0  0  0  0  0  0  0  0  0
   23.9522   27.2339   27.7343 C   0  0  0  0  0  0  0  0  0  0  0  0
   23.4371   26.0376   27.4228 C   0  0  0  0  0  0  0  0  0  0  0  0
   22.2731   25.4406   28.0624 C   0  0  0  0  0  0  0  0  0  0  0  0
   21.8158   26.0349   29.1795 C   0  0  0  0  0  0  0  0  0  0  0  0
   22.3564   27.3108   29.7512 C   0  0  0  0  0  0  0  0  0  0  0  0
   21.7331   24.2667   27.5268 N   0  0  0  0  0  0  0  0  0  0  0  0
   20.5767   23.5590   28.1157 C   0  0  0  0  0  0  0  0  0  0  0  0
   19.5988   23.1041   27.0058 C   0  0  0  0  0  0  0  0  0  0  0  0
   20.2163   22.6065   25.7585 N   0  0  0  0  0  0  0  0  0  0  0  0
   21.6206   22.2489   26.0132 C   0  0  0  0  0  0  0  0  0  0  0  0
   22.4709   23.4274   26.5464 C   0  0  0  0  0  0  0  0  0  0  0  0
   20.1752   23.3344   25.0451 H   0  0  0  0  0  0  0  0  0  0  0  0
  8  9  1  0
  9 10  2  0
 10  1  1  0
  1  2  2  0
  2  3  1  0
  3  4  1  0
  3  5  2  0
  5  6  1  0
  6 16  1  0
 16 17  2  0
 17 18  1  0
 18 19  2  0
 19 20  1  0
 20 23  1  0
 23 24  1  0
 24 25  1  0
 25 26  1  0
 26 27  1  0
 27 28  1  0
 20 21  2  0
 21 22  1  0
  6  7  2  0
 10 11  1  0
 11 12  1  0
 12 13  2  0
 12 14  1  0
 14 15  1  0
 14  9  1  0
  7  1  1  0
 22 17  1  0
 28 23  1  0
 26 29  1  0
M  END
> <minimizedAffinity>
-9.90376

> <CNNscore>
0.6492291689

> <CNNaffinity>
7.9250349998

> <CNN_VS>
5.1451640129

> <CNNaffinity_variance>
0.0987365469

$$$$



 29 32  0  0  0  0  0  0  0  0999 V2000
   26.6433   29.1748   26.6867 C   0  0  0  0  0  0  0  0  0  0  0  0
   26.3004   30.2756   27.4369 C   0  0  0  0  0  0  0  0  0  0  0  0
   25.1476   30.1475   28.1667 C   0  0  0  0  0  0  0  0  0  0  0  0
   24.5828   31.4427   29.1373 Cl  0  0  0  0  0  0  0  0  0  0  0  0
   24.3688   29.0627   28.1904 N   0  0  0  0  0  0  0  0  0  0  0  0
   24.7932   28.0578   27.4303 C   0  0  0  0  0  0  0  0  0  0  0  0
   25.8967   28.0549   26.6756 N   0  0  0  0  0  0  0  0  0  0  0  0
   28.6400   31.5666   26.0947 C   0  0  0  0  0  0  0  0  0  0  0  0
   28.7143   30.1564   25.5971 C   0  0  0  0  0  0  0  0  0  0  0  0
   27.8402   29.1629   25.8400 C   0  0  0  0  0  0  0  0  0  0  0  0
   28.2914   27.6883   25.0308 S   0  0  0  0  0  0  0  0  0  0  0  0
   29.7224   28.4475   24.3335 C   0  0  0  0  0  0  0  0  0  0  0  0
   30.5062   27.8647   23.6030 O   0  0  0  0  0  0  0  0  0  0  0  0
   29.7575   29.7644   24.7594 N   0  0  0  0  0  0  0  0  0  0  0  0
   30.8282   30.6427   24.3454 C   0  0  0  0  0  0  0  0  0  0  0  0
   24.0329   26.9001   27.4274 N   0  0  0  0  0  0  0  0  0  0  0  0
   23.1055   26.7537   28.3221 C   0  0  0  0  0  0  0  0  0  0  0  0
   22.6859   27.7541   29.3446 C   0  0  0  0  0  0  0  0  0  0  0  0
   21.8614   27.3847   30.3332 C   0  0  0  0  0  0  0  0  0  0  0  0
   21.3496   26.0357   30.5297 C   0  0  0  0  0  0  0  0  0  0  0  0
   21.5484   25.1539   29.5331 C   0  0  0  0  0  0  0  0  0  0  0  0
   22.3362   25.4340   28.2888 C   0  0  0  0  0  0  0  0  0  0  0  0
   20.6385   25.7442   31.6983 N   0  0  0  0  0  0  0  0  0  0  0  0
   19.4091   24.9238   31.7209 C   0  0  0  0  0  0  0  0  0  0  0  0
   19.4408   23.9350   32.9109 C   0  0  0  0  0  0  0  0  0  0  0  0
   20.0099   24.4534   34.1727 N   0  0  0  0  0  0  0  0  0  0  0  0
   20.0208   25.9243   34.1399 C   0  0  0  0  0  0  0  0  0  0  0  0
   20.8314   26.5095   32.9581 C   0  0  0  0  0  0  0  0  0  0  0  0
   20.9638   24.1090   34.2819 H   0  0  0  0  0  0  0  0  0  0  0  0
  8  9  1  0
  9 10  2  0
 10  1  1  0
  1  2  2  0
  2  3  1  0
  3  4  1  0
  3  5  2  0
  5  6  1  0
  6 16  1  0
 16 17  2  0
 17 18  1  0
 18 19  2  0
 19 20  1  0
 20 23  1  0
 23 24  1  0
 24 25  1  0
 25 26  1  0
 26 27  1  0
 27 28  1  0
 20 21  2  0
 21 22  1  0
  6  7  2  0
 10 11  1  0
 11 12  1  0
 12 13  2  0
 12 14  1  0
 14 15  1  0
 14  9  1  0
  7  1  1  0
 22 17  1  0
 28 23  1  0
 26 29  1  0
M  END
> <minimizedAffinity>
-10.15027

> <CNNscore>
0.5834155679

> <CNNaffinity>
7.3903002739

> <CNN_VS>
4.3116164207

> <CNNaffinity_variance>
0.2300299555

$$$$



 29 32  0  0  0  0  0  0  0  0999 V2000
   25.4730   27.8367   26.3963 C   0  0  0  0  0  0  0  0  0  0  0  0
   26.4620   27.1466   25.7348 C   0  0  0  0  0  0  0  0  0  0  0  0
   26.1221   25.8805   25.3352 C   0  0  0  0  0  0  0  0  0  0  0  0
   27.2569   24.8923   24.5141 Cl  0  0  0  0  0  0  0  0  0  0  0  0
   24.9371   25.3005   25.5432 N   0  0  0  0  0  0  0  0  0  0  0  0
   24.0551   26.0559   26.1906 C   0  0  0  0  0  0  0  0  0  0  0  0
   24.2602   27.3017   26.6303 N   0  0  0  0  0  0  0  0  0  0  0  0
   27.5471   29.9987   25.3564 C   0  0  0  0  0  0  0  0  0  0  0  0
   26.5423   30.1373   26.4576 C   0  0  0  0  0  0  0  0  0  0  0  0
   25.6885   29.1964   26.9005 C   0  0  0  0  0  0  0  0  0  0  0  0
   24.7200   29.7715   28.2287 S   0  0  0  0  0  0  0  0  0  0  0  0
   25.5031   31.3510   28.1841 C   0  0  0  0  0  0  0  0  0  0  0  0
   25.2263   32.2623   28.9460 O   0  0  0  0  0  0  0  0  0  0  0  0
   26.4447   31.3322   27.1692 N   0  0  0  0  0  0  0  0  0  0  0  0
   27.2502   32.4999   26.8919 C   0  0  0  0  0  0  0  0  0  0  0  0
   22.8025   25.5117   26.4212 N   0  0  0  0  0  0  0  0  0  0  0  0
   22.2033   25.7641   27.5433 C   0  0  0  0  0  0  0  0  0  0  0  0
   22.6810   26.6706   28.6261 C   0  0  0  0  0  0  0  0  0  0  0  0
   22.0606   26.6690   29.8130 C   0  0  0  0  0  0  0  0  0  0  0  0
   20.9454   25.8026   30.1679 C   0  0  0  0  0  0  0  0  0  0  0  0
   20.3659   25.1103   29.1702 C   0  0  0  0  0  0  0  0  0  0  0  0
   20.8452   25.0951   27.7500 C   0  0  0  0  0  0  0  0  0  0  0  0
   20.5019   25.7777   31.4942 N   0  0  0  0  0  0  0  0  0  0  0  0
   19.1239   25.4140   31.8860 C   0  0  0  0  0  0  0  0  0  0  0  0
   19.1411   24.4844   33.1231 C   0  0  0  0  0  0  0  0  0  0  0  0
   20.1484   24.7977   34.1585 N   0  0  0  0  0  0  0  0  0  0  0  0
   20.6197   26.1806   33.9840 C   0  0  0  0  0  0  0  0  0  0  0  0
   21.2443   26.4491   32.5933 C   0  0  0  0  0  0  0  0  0  0  0  0
   20.9367   24.1565   34.0706 H   0  0  0  0  0  0  0  0  0  0  0  0
  8  9  1  0
  9 10  2  0
 10  1  1  0
  1  2  2  0
  2  3  1  0
  3  4  1  0
  3  5  2  0
  5  6  1  0
  6 16  1  0
 16 17  2  0
 17 18  1  0
 18 19  2  0
 19 20  1  0
 20 23  1  0
 23 24  1  0
 24 25  1  0
 25 26  1  0
 26 27  1  0
 27 28  1  0
 20 21  2  0
 21 22  1  0
  6  7  2  0
 10 11  1  0
 11 12  1  0
 12 13  2  0
 12 14  1  0
 14 15  1  0
 14  9  1  0
  7  1  1  0
 22 17  1  0
 28 23  1  0
 26 29  1  0
M  END
> <minimizedAffinity>
-9.02792

> <CNNscore>
0.4345132709

> <CNNaffinity>
7.2472043037

> <CNN_VS>
3.1490063667

> <CNNaffinity_variance>
0.1051554084

$$$$



 29 32  0  0  0  0  0  0  0  0999 V2000
   25.0896   27.4749   26.5096 C   0  0  0  0  0  0  0  0  0  0  0  0
   25.3987   28.6047   27.2307 C   0  0  0  0  0  0  0  0  0  0  0  0
   24.4543   28.9881   28.1468 C   0  0  0  0  0  0  0  0  0  0  0  0
   24.6911   30.3873   29.1083 Cl  0  0  0  0  0  0  0  0  0  0  0  0
   23.2988   28.3566   28.3704 N   0  0  0  0  0  0  0  0  0  0  0  0
   23.1016   27.2771   27.6198 C   0  0  0  0  0  0  0  0  0  0  0  0
   23.9411   26.7982   26.6960 N   0  0  0  0  0  0  0  0  0  0  0  0
   24.7134   24.8784   24.7279 C   0  0  0  0  0  0  0  0  0  0  0  0
   25.8385   25.8656   24.6960 C   0  0  0  0  0  0  0  0  0  0  0  0
   25.9912   26.9479   25.4806 C   0  0  0  0  0  0  0  0  0  0  0  0
   27.4687   27.8008   25.1306 S   0  0  0  0  0  0  0  0  0  0  0  0
   27.8989   26.6445   23.8703 C   0  0  0  0  0  0  0  0  0  0  0  0
   28.9208   26.7181   23.2086 O   0  0  0  0  0  0  0  0  0  0  0  0
   26.8960   25.6923   23.8042 N   0  0  0  0  0  0  0  0  0  0  0  0
   26.9741   24.6073   22.8524 C   0  0  0  0  0  0  0  0  0  0  0  0
   21.9260   26.5724   27.8191 N   0  0  0  0  0  0  0  0  0  0  0  0
   21.4295   26.5016   29.0151 C   0  0  0  0  0  0  0  0  0  0  0  0
   21.9458   27.1810   30.2375 C   0  0  0  0  0  0  0  0  0  0  0  0
   21.4548   26.8473   31.4380 C   0  0  0  0  0  0  0  0  0  0  0  0
   20.4533   25.8160   31.6701 C   0  0  0  0  0  0  0  0  0  0  0  0
   19.8284   25.3146   30.5892 C   0  0  0  0  0  0  0  0  0  0  0  0
   20.1564   25.6710   29.1706 C   0  0  0  0  0  0  0  0  0  0  0  0
   20.1541   25.4457   32.9853 N   0  0  0  0  0  0  0  0  0  0  0  0
   20.7249   26.1185   34.1712 C   0  0  0  0  0  0  0  0  0  0  0  0
   19.6325   26.3407   35.2447 C   0  0  0  0  0  0  0  0  0  0  0  0
   18.6529   25.2467   35.4124 N   0  0  0  0  0  0  0  0  0  0  0  0
   19.1916   24.0096   34.8255 C   0  0  0  0  0  0  0  0  0  0  0  0
   19.5328   24.1376   33.3210 C   0  0  0  0  0  0  0  0  0  0  0  0
   17.7826   25.4949   34.9419 H   0  0  0  0  0  0  0  0  0  0  0  0
  8  9  1  0
  9 10  2  0
 10  1  1  0
  1  2  2  0
  2  3  1  0
  3  4  1  0
  3  5  2  0
  5  6  1  0
  6 16  1  0
 16 17  2  0
 17 18  1  0
 18 19  2  0
 19 20  1  0
 20 23  1  0
 23 24  1  0
 24 25  1  0
 25 26  1  0
 26 27  1  0
 27 28  1  0
 20 21  2  0
 21 22  1  0
  6  7  2  0
 10 11  1  0
 11 12  1  0
 12 13  2  0
 12 14  1  0
 14 15  1  0
 14  9  1  0
  7  1  1  0
 22 17  1  0
 28 23  1  0
 26 29  1  0
M  END
> <minimizedAffinity>
-8.81377

> <CNNscore>
0.2580368221

> <CNNaffinity>
6.4625878334

> <CNN_VS>
1.6675856113

> <CNNaffinity_variance>
0.4172189236

$$$$



 29 32  0  0  0  0  0  0  0  0999 V2000
   23.9380   28.0728   28.1926 C   0  0  0  0  0  0  0  0  0  0  0  0
   23.2255   28.2194   29.3600 C   0  0  0  0  0  0  0  0  0  0  0  0
   22.3801   27.1837   29.6610 C   0  0  0  0  0  0  0  0  0  0  0  0
   21.4132   27.2317   31.0757 Cl  0  0  0  0  0  0  0  0  0  0  0  0
   22.2128   26.0866   28.9178 N   0  0  0  0  0  0  0  0  0  0  0  0
   22.9500   26.0472   27.8121 C   0  0  0  0  0  0  0  0  0  0  0  0
   23.8104   26.9870   27.4073 N   0  0  0  0  0  0  0  0  0  0  0  0
   26.2083   27.7989   25.9953 C   0  0  0  0  0  0  0  0  0  0  0  0
   25.8222   29.0154   26.7780 C   0  0  0  0  0  0  0  0  0  0  0  0
   24.8714   29.1026   27.7260 C   0  0  0  0  0  0  0  0  0  0  0  0
   24.7807   30.7016   28.4099 S   0  0  0  0  0  0  0  0  0  0  0  0
   26.0843   31.2767   27.3706 C   0  0  0  0  0  0  0  0  0  0  0  0
   26.5100   32.4194   27.3934 O   0  0  0  0  0  0  0  0  0  0  0  0
   26.4991   30.2181   26.5806 N   0  0  0  0  0  0  0  0  0  0  0  0
   27.5645   30.3914   25.6193 C   0  0  0  0  0  0  0  0  0  0  0  0
   22.8294   24.9250   27.0093 N   0  0  0  0  0  0  0  0  0  0  0  0
   21.7973   24.1536   27.1566 C   0  0  0  0  0  0  0  0  0  0  0  0
   20.6367   24.3791   28.0648 C   0  0  0  0  0  0  0  0  0  0  0  0
   19.7504   23.3950   28.2637 C   0  0  0  0  0  0  0  0  0  0  0  0
   19.8416   22.0629   27.6826 C   0  0  0  0  0  0  0  0  0  0  0  0
   20.7601   21.8773   26.7171 C   0  0  0  0  0  0  0  0  0  0  0  0
   21.7508   22.9098   26.2703 C   0  0  0  0  0  0  0  0  0  0  0  0
   18.9470   21.0754   28.1079 N   0  0  0  0  0  0  0  0  0  0  0  0
   18.9807   20.4714   29.4565 C   0  0  0  0  0  0  0  0  0  0  0  0
   17.5475   20.3371   30.0247 C   0  0  0  0  0  0  0  0  0  0  0  0
   16.4998   19.9408   29.0604 N   0  0  0  0  0  0  0  0  0  0  0  0
   17.1264   19.3420   27.8714 C   0  0  0  0  0  0  0  0  0  0  0  0
   18.1210   20.2877   27.1554 C   0  0  0  0  0  0  0  0  0  0  0  0
   15.9637   20.7633   28.7841 H   0  0  0  0  0  0  0  0  0  0  0  0
  8  9  1  0
  9 10  2  0
 10  1  1  0
  1  2  2  0
  2  3  1  0
  3  4  1  0
  3  5  2  0
  5  6  1  0
  6 16  1  0
 16 17  2  0
 17 18  1  0
 18 19  2  0
 19 20  1  0
 20 23  1  0
 23 24  1  0
 24 25  1  0
 25 26  1  0
 26 27  1  0
 27 28  1  0
 20 21  2  0
 21 22  1  0
  6  7  2  0
 10 11  1  0
 11 12  1  0
 12 13  2  0
 12 14  1  0
 14 15  1  0
 14  9  1  0
  7  1  1  0
 22 17  1  0
 28 23  1  0
 26 29  1  0
M  END
> <minimizedAffinity>
-7.56218

> <CNNscore>
0.2092106491

> <CNNaffinity>
6.6078791618

> <CNN_VS>
1.3824386597

> <CNNaffinity_variance>
0.2264732718

$$$$



 29 32  0  0  0  0  0  0  0  0999 V2000
   22.8532   27.4167   28.7551 C   0  0  0  0  0  0  0  0  0  0  0  0
   22.5688   27.5035   30.0981 C   0  0  0  0  0  0  0  0  0  0  0  0
   21.5129   26.7390   30.5210 C   0  0  0  0  0  0  0  0  0  0  0  0
   21.0284   26.7564   32.1652 Cl  0  0  0  0  0  0  0  0  0  0  0  0
   20.7733   25.9489   29.7383 N   0  0  0  0  0  0  0  0  0  0  0  0
   21.1348   25.9393   28.4589 C   0  0  0  0  0  0  0  0  0  0  0  0
   22.1425   26.6344   27.9217 N   0  0  0  0  0  0  0  0  0  0  0  0
   24.8752   26.4891   26.4949 C   0  0  0  0  0  0  0  0  0  0  0  0
   24.7937   27.8225   27.1710 C   0  0  0  0  0  0  0  0  0  0  0  0
   23.9433   28.1865   28.1479 C   0  0  0  0  0  0  0  0  0  0  0  0
   24.2214   29.8229   28.6749 S   0  0  0  0  0  0  0  0  0  0  0  0
   25.5445   30.0233   27.5262 C   0  0  0  0  0  0  0  0  0  0  0  0
   26.1927   31.0508   27.4173 O   0  0  0  0  0  0  0  0  0  0  0  0
   25.6853   28.8373   26.8260 N   0  0  0  0  0  0  0  0  0  0  0  0
   26.6995   28.7022   25.8050 C   0  0  0  0  0  0  0  0  0  0  0  0
   20.4125   25.1252   27.6021 N   0  0  0  0  0  0  0  0  0  0  0  0
   20.7700   23.8868   27.4597 C   0  0  0  0  0  0  0  0  0  0  0  0
   21.8574   23.1813   28.1962 C   0  0  0  0  0  0  0  0  0  0  0  0
   22.2490   21.9654   27.7940 C   0  0  0  0  0  0  0  0  0  0  0  0
   21.7163   21.2601   26.6367 C   0  0  0  0  0  0  0  0  0  0  0  0
   20.6132   21.7724   26.0614 C   0  0  0  0  0  0  0  0  0  0  0  0
   19.9576   23.0585   26.4654 C   0  0  0  0  0  0  0  0  0  0  0  0
   22.3321   20.0742   26.2234 N   0  0  0  0  0  0  0  0  0  0  0  0
   23.4994   20.0349   25.3174 C   0  0  0  0  0  0  0  0  0  0  0  0
   24.5381   19.0029   25.8184 C   0  0  0  0  0  0  0  0  0  0  0  0
   23.9914   17.7491   26.3787 N   0  0  0  0  0  0  0  0  0  0  0  0
   22.5979   17.5796   25.9381 C   0  0  0  0  0  0  0  0  0  0  0  0
   21.6723   18.7484   26.3542 C   0  0  0  0  0  0  0  0  0  0  0  0
   24.0230   17.7900   27.3974 H   0  0  0  0  0  0  0  0  0  0  0  0
  8  9  1  0
  9 10  2  0
 10  1  1  0
  1  2  2  0
  2  3  1  0
  3  4  1  0
  3  5  2  0
  5  6  1  0
  6 16  1  0
 16 17  2  0
 17 18  1  0
 18 19  2  0
 19 20  1  0
 20 23  1  0
 23 24  1  0
 24 25  1  0
 25 26  1  0
 26 27  1  0
 27 28  1  0
 20 21  2  0
 21 22  1  0
  6  7  2  0
 10 11  1  0
 11 12  1  0
 12 13  2  0
 12 14  1  0
 14 15  1  0
 14  9  1  0
  7  1  1  0
 22 17  1  0
 28 23  1  0
 26 29  1  0
M  END
> <minimizedAffinity>
-7.46548

> <CNNscore>
0.1981185675

> <CNNaffinity>
6.0364036560

> <CNN_VS>
1.1959236860

> <CNNaffinity_variance>
0.3061401844

$$$$



 29 32  0  0  0  0  0  0  0  0999 V2000
   22.1328   26.4890   28.5980 C   0  0  0  0  0  0  0  0  0  0  0  0
   21.6433   26.5525   29.8818 C   0  0  0  0  0  0  0  0  0  0  0  0
   20.6051   25.6998   30.1527 C   0  0  0  0  0  0  0  0  0  0  0  0
   19.8791   25.6771   31.7054 Cl  0  0  0  0  0  0  0  0  0  0  0  0
   20.0621   24.8474   29.2794 N   0  0  0  0  0  0  0  0  0  0  0  0
   20.6114   24.8676   28.0688 C   0  0  0  0  0  0  0  0  0  0  0  0
   21.6253   25.6469   27.6788 N   0  0  0  0  0  0  0  0  0  0  0  0
   24.2117   25.9460   26.2654 C   0  0  0  0  0  0  0  0  0  0  0  0
   24.1067   27.1514   27.1471 C   0  0  0  0  0  0  0  0  0  0  0  0
   23.2318   27.3498   28.1499 C   0  0  0  0  0  0  0  0  0  0  0  0
   23.4879   28.8793   28.9424 S   0  0  0  0  0  0  0  0  0  0  0  0
   24.8358   29.2669   27.8731 C   0  0  0  0  0  0  0  0  0  0  0  0
   25.4801   30.2998   27.9480 O   0  0  0  0  0  0  0  0  0  0  0  0
   24.9998   28.2108   26.9929 N   0  0  0  0  0  0  0  0  0  0  0  0
   26.0379   28.2459   25.9877 C   0  0  0  0  0  0  0  0  0  0  0  0
   20.0987   23.9928   27.1253 N   0  0  0  0  0  0  0  0  0  0  0  0
   20.8369   23.0104   26.7109 C   0  0  0  0  0  0  0  0  0  0  0  0
   22.1949   22.6442   27.2049 C   0  0  0  0  0  0  0  0  0  0  0  0
   22.9194   21.7360   26.5385 C   0  0  0  0  0  0  0  0  0  0  0  0
   22.5017   21.0780   25.3085 C   0  0  0  0  0  0  0  0  0  0  0  0
   21.2189   21.2358   24.9346 C   0  0  0  0  0  0  0  0  0  0  0  0
   20.2255   22.1115   25.6371 C   0  0  0  0  0  0  0  0  0  0  0  0
   23.4221   20.2812   24.6199 N   0  0  0  0  0  0  0  0  0  0  0  0
   23.1762   19.7341   23.2690 C   0  0  0  0  0  0  0  0  0  0  0  0
   24.4413   19.8771   22.3893 C   0  0  0  0  0  0  0  0  0  0  0  0
   25.7338   19.6341   23.0639 N   0  0  0  0  0  0  0  0  0  0  0  0
   25.5052   18.8881   24.3113 C   0  0  0  0  0  0  0  0  0  0  0  0
   24.5629   19.6147   25.3014 C   0  0  0  0  0  0  0  0  0  0  0  0
   26.1781   20.5268   23.2786 H   0  0  0  0  0  0  0  0  0  0  0  0
  8  9  1  0
  9 10  2  0
 10  1  1  0
  1  2  2  0
  2  3  1  0
  3  4  1  0
  3  5  2  0
  5  6  1  0
  6 16  1  0
 16 17  2  0
 17 18  1  0
 18 19  2  0
 19 20  1  0
 20 23  1  0
 23 24  1  0
 24 25  1  0
 25 26  1  0
 26 27  1  0
 27 28  1  0
 20 21  2  0
 21 22  1  0
  6  7  2  0
 10 11  1  0
 11 12  1  0
 12 13  2  0
 12 14  1  0
 14 15  1  0
 14  9  1  0
  7  1  1  0
 22 17  1  0
 28 23  1  0
 26 29  1  0
M  END
> <minimizedAffinity>
-7.24111

> <CNNscore>
0.1640846729

> <CNNaffinity>
6.1376571655

> <CNN_VS>
1.0070954561

> <CNNaffinity_variance>
0.0231302828

$$$$
