


 26 27  0  0  0  0  0  0  0  0999 V2000
   13.4331    2.4320   39.0628 C   0  0  0  0  0  0  0  0  0  0  0  0
   13.6381    2.3165   40.5681 C   0  0  0  0  0  0  0  0  0  0  0  0
   14.7109    1.9103   41.0270 O   0  0  0  0  0  0  0  0  0  0  0  0
   12.5604    2.8409   41.5061 C   0  0  0  0  0  0  0  0  0  0  0  0
   12.6658    4.2651   41.5469 O   0  0  0  0  0  0  0  0  0  0  0  0
   11.1404    2.4056   41.1008 C   0  0  0  0  0  0  0  0  0  0  0  0
   11.0799    1.7585   39.7132 C   0  0  0  0  0  0  0  0  0  0  0  0
   11.9385    2.5106   38.6977 C   0  0  0  0  0  0  0  0  0  0  0  0
   11.4635    3.8591   38.6682 O   0  0  0  0  0  0  0  0  0  0  0  0
   12.5175    4.6258   40.6587 H   0  0  0  0  0  0  0  0  0  0  0  0
   10.5219    3.8653   38.4354 H   0  0  0  0  0  0  0  0  0  0  0  0
   11.7430    1.8442   37.3231 C   0  0  0  0  0  0  0  0  0  0  0  0
   12.0221    2.3016   36.2295 O   0  0  0  0  0  0  0  0  0  0  0  0
   11.1764    0.6182   37.4343 O   0  0  0  0  0  0  0  0  0  0  0  0
   10.9652    0.2746   38.2801 H   0  0  0  0  0  0  0  0  0  0  0  0
   10.6790    1.4389   42.0648 O   0  0  0  0  0  0  0  0  0  0  0  0
   11.0389    0.1025   41.7337 C   0  0  0  0  0  0  0  0  0  0  0  0
   14.2715    3.6039   38.5156 C   0  0  0  0  0  0  0  0  0  0  0  0
   18.0552    2.3177   36.8463 C   0  0  0  0  0  0  0  0  0  0  0  0
   17.9717    2.7412   38.1740 C   0  0  0  0  0  0  0  0  0  0  0  0
   16.7521    3.1527   38.7178 C   0  0  0  0  0  0  0  0  0  0  0  0
   15.5907    3.1416   37.9364 C   0  0  0  0  0  0  0  0  0  0  0  0
   15.6783    2.7188   36.6048 C   0  0  0  0  0  0  0  0  0  0  0  0
   16.9021    2.3084   36.0630 C   0  0  0  0  0  0  0  0  0  0  0  0
   19.3841    1.0818   35.3145 C   0  0  0  0  0  0  0  0  0  0  0  0
   19.3070    1.9424   36.4429 O   0  0  0  0  0  0  0  0  0  0  0  0
 25 26  1  0
 26 19  1  0
 19 20  2  0
 20 21  1  0
 21 22  2  0
 22 18  1  0
  1 18  1  0
  1  2  1  0
  2  3  2  0
  2  4  1  0
  4  5  1  0
  4  6  1  0
  6 16  1  0
 16 17  1  0
  6  7  1  0
  7  8  1  0
  8  9  1  0
  8 12  1  0
 12 13  2  0
 12 14  1  0
 22 23  1  0
 23 24  2  0
 24 19  1  0
  8  1  1  0
  5 10  1  0
  9 11  1  0
 14 15  1  0
M  END
> <minimizedAffinity>
-8.49332

> <CNNscore>
0.9150813818

> <CNNaffinity>
5.6029205322

> <CNN_VS>
5.1271281242

> <CNNaffinity_variance>
0.0671734214

$$$$



 26 27  0  0  0  0  0  0  0  0999 V2000
   15.7876    3.0979   40.2076 C   0  0  0  0  0  0  0  0  0  0  0  0
   16.8161    3.6524   41.1853 C   0  0  0  0  0  0  0  0  0  0  0  0
   18.0171    3.3983   41.0454 O   0  0  0  0  0  0  0  0  0  0  0  0
   16.3678    4.6395   42.2534 C   0  0  0  0  0  0  0  0  0  0  0  0
   16.1930    5.9136   41.6312 O   0  0  0  0  0  0  0  0  0  0  0  0
   15.0840    4.2021   42.9818 C   0  0  0  0  0  0  0  0  0  0  0  0
   14.3888    3.0094   42.3171 C   0  0  0  0  0  0  0  0  0  0  0  0
   14.3641    3.1420   40.7953 C   0  0  0  0  0  0  0  0  0  0  0  0
   13.6977    4.3711   40.4951 O   0  0  0  0  0  0  0  0  0  0  0  0
   15.5060    5.8490   40.9494 H   0  0  0  0  0  0  0  0  0  0  0  0
   12.8079    4.3592   40.8813 H   0  0  0  0  0  0  0  0  0  0  0  0
   13.5713    1.9506   40.2265 C   0  0  0  0  0  0  0  0  0  0  0  0
   13.2581    0.9242   40.8022 O   0  0  0  0  0  0  0  0  0  0  0  0
   13.2371    2.1428   38.9273 O   0  0  0  0  0  0  0  0  0  0  0  0
   13.4826    2.9359   38.4928 H   0  0  0  0  0  0  0  0  0  0  0  0
   15.4424    3.8187   44.3240 O   0  0  0  0  0  0  0  0  0  0  0  0
   16.1160    4.8482   45.0392 C   0  0  0  0  0  0  0  0  0  0  0  0
   15.9249    3.8158   38.8506 C   0  0  0  0  0  0  0  0  0  0  0  0
   18.8575    1.8996   36.3040 C   0  0  0  0  0  0  0  0  0  0  0  0
   17.6296    2.3152   35.7855 C   0  0  0  0  0  0  0  0  0  0  0  0
   16.6825    2.9380   36.6027 C   0  0  0  0  0  0  0  0  0  0  0  0
   16.9548    3.1588   37.9579 C   0  0  0  0  0  0  0  0  0  0  0  0
   18.1859    2.7384   38.4752 C   0  0  0  0  0  0  0  0  0  0  0  0
   19.1319    2.1139   37.6539 C   0  0  0  0  0  0  0  0  0  0  0  0
   20.9045    0.7653   35.9003 C   0  0  0  0  0  0  0  0  0  0  0  0
   19.6904    1.3055   35.3963 O   0  0  0  0  0  0  0  0  0  0  0  0
 25 26  1  0
 26 19  1  0
 19 20  2  0
 20 21  1  0
 21 22  2  0
 22 18  1  0
  1 18  1  0
  1  2  1  0
  2  3  2  0
  2  4  1  0
  4  5  1  0
  4  6  1  0
  6 16  1  0
 16 17  1  0
  6  7  1  0
  7  8  1  0
  8  9  1  0
  8 12  1  0
 12 13  2  0
 12 14  1  0
 22 23  1  0
 23 24  2  0
 24 19  1  0
  8  1  1  0
  5 10  1  0
  9 11  1  0
 14 15  1  0
M  END
> <minimizedAffinity>
-6.50031

> <CNNscore>
0.3444664180

> <CNNaffinity>
4.7661309242

> <CNN_VS>
1.6417720318

> <CNNaffinity_variance>
0.0014236746

$$$$



 26 27  0  0  0  0  0  0  0  0999 V2000
   15.1391    2.8148   38.2765 C   0  0  0  0  0  0  0  0  0  0  0  0
   15.4491    2.7644   39.7674 C   0  0  0  0  0  0  0  0  0  0  0  0
   16.4512    2.1720   40.1813 O   0  0  0  0  0  0  0  0  0  0  0  0
   14.5911    3.5712   40.7313 C   0  0  0  0  0  0  0  0  0  0  0  0
   14.9920    4.9394   40.6396 O   0  0  0  0  0  0  0  0  0  0  0  0
   13.0815    3.4214   40.4695 C   0  0  0  0  0  0  0  0  0  0  0  0
   12.7650    2.7062   39.1519 C   0  0  0  0  0  0  0  0  0  0  0  0
   13.6665    3.1845   38.0150 C   0  0  0  0  0  0  0  0  0  0  0  0
   13.4801    4.5978   37.9021 O   0  0  0  0  0  0  0  0  0  0  0  0
   14.8429    5.2601   39.7364 H   0  0  0  0  0  0  0  0  0  0  0  0
   12.5432    4.7882   37.7383 H   0  0  0  0  0  0  0  0  0  0  0  0
   13.2157    2.4802   36.7218 C   0  0  0  0  0  0  0  0  0  0  0  0
   12.0757    2.2625   36.3533 O   0  0  0  0  0  0  0  0  0  0  0  0
   14.2717    2.0756   35.9749 O   0  0  0  0  0  0  0  0  0  0  0  0
   15.1453    2.2477   36.2667 H   0  0  0  0  0  0  0  0  0  0  0  0
   12.5180    2.6456   41.5453 O   0  0  0  0  0  0  0  0  0  0  0  0
   11.2799    2.0324   41.2044 C   0  0  0  0  0  0  0  0  0  0  0  0
   16.1495    3.7395   37.5697 C   0  0  0  0  0  0  0  0  0  0  0  0
   19.7406    1.6580   36.3335 C   0  0  0  0  0  0  0  0  0  0  0  0
   19.5841    2.0815   37.6546 C   0  0  0  0  0  0  0  0  0  0  0  0
   18.4251    2.7494   38.0586 C   0  0  0  0  0  0  0  0  0  0  0  0
   17.3981    3.0002   37.1410 C   0  0  0  0  0  0  0  0  0  0  0  0
   17.5594    2.5765   35.8166 C   0  0  0  0  0  0  0  0  0  0  0  0
   18.7224    1.9087   35.4151 C   0  0  0  0  0  0  0  0  0  0  0  0
   21.8194    0.8654   37.1645 C   0  0  0  0  0  0  0  0  0  0  0  0
   20.9208    1.0173   36.0739 O   0  0  0  0  0  0  0  0  0  0  0  0
 25 26  1  0
 26 19  1  0
 19 20  2  0
 20 21  1  0
 21 22  2  0
 22 18  1  0
  1 18  1  0
  1  2  1  0
  2  3  2  0
  2  4  1  0
  4  5  1  0
  4  6  1  0
  6 16  1  0
 16 17  1  0
  6  7  1  0
  7  8  1  0
  8  9  1  0
  8 12  1  0
 12 13  2  0
 12 14  1  0
 22 23  1  0
 23 24  2  0
 24 19  1  0
  8  1  1  0
  5 10  1  0
  9 11  1  0
 14 15  1  0
M  END
> <minimizedAffinity>
-8.87157

> <CNNscore>
0.3181973100

> <CNNaffinity>
4.6014838219

> <CNN_VS>
1.4641797543

> <CNNaffinity_variance>
0.1100950241

$$$$



 26 27  0  0  0  0  0  0  0  0999 V2000
   19.6443   -1.4679   41.1650 C   0  0  0  0  0  0  0  0  0  0  0  0
   19.9931   -2.9437   41.0174 C   0  0  0  0  0  0  0  0  0  0  0  0
   20.0038   -3.4787   39.9038 O   0  0  0  0  0  0  0  0  0  0  0  0
   20.4677   -3.7195   42.2377 C   0  0  0  0  0  0  0  0  0  0  0  0
   21.8303   -3.3667   42.4824 O   0  0  0  0  0  0  0  0  0  0  0  0
   19.6025   -3.4725   43.4868 C   0  0  0  0  0  0  0  0  0  0  0  0
   18.6112   -2.3166   43.3161 C   0  0  0  0  0  0  0  0  0  0  0  0
   19.2496   -1.1199   42.6130 C   0  0  0  0  0  0  0  0  0  0  0  0
   20.3795   -0.7297   43.3980 O   0  0  0  0  0  0  0  0  0  0  0  0
   21.8900   -2.4163   42.6668 H   0  0  0  0  0  0  0  0  0  0  0  0
   20.0898   -0.5196   44.2995 H   0  0  0  0  0  0  0  0  0  0  0  0
   18.2106    0.0160   42.5690 C   0  0  0  0  0  0  0  0  0  0  0  0
   18.3891    1.1957   42.8126 O   0  0  0  0  0  0  0  0  0  0  0  0
   16.9812   -0.4397   42.2263 O   0  0  0  0  0  0  0  0  0  0  0  0
   16.8536   -1.3493   42.0407 H   0  0  0  0  0  0  0  0  0  0  0  0
   18.8485   -4.6720   43.7504 O   0  0  0  0  0  0  0  0  0  0  0  0
   19.5243   -5.8578   43.3476 C   0  0  0  0  0  0  0  0  0  0  0  0
   20.7947   -0.6068   40.6077 C   0  0  0  0  0  0  0  0  0  0  0  0
   19.7221    1.4536   36.9524 C   0  0  0  0  0  0  0  0  0  0  0  0
   20.4607    0.2695   36.9100 C   0  0  0  0  0  0  0  0  0  0  0  0
   20.8050   -0.4008   38.0868 C   0  0  0  0  0  0  0  0  0  0  0  0
   20.4082    0.1057   39.3300 C   0  0  0  0  0  0  0  0  0  0  0  0
   19.6700    1.2945   39.3691 C   0  0  0  0  0  0  0  0  0  0  0  0
   19.3280    1.9640   38.1883 C   0  0  0  0  0  0  0  0  0  0  0  0
   18.1392    2.5051   35.5280 C   0  0  0  0  0  0  0  0  0  0  0  0
   19.4542    2.0050   35.7297 O   0  0  0  0  0  0  0  0  0  0  0  0
 25 26  1  0
 26 19  1  0
 19 20  2  0
 20 21  1  0
 21 22  2  0
 22 18  1  0
  1 18  1  0
  1  2  1  0
  2  3  2  0
  2  4  1  0
  4  5  1  0
  4  6  1  0
  6 16  1  0
 16 17  1  0
  6  7  1  0
  7  8  1  0
  8  9  1  0
  8 12  1  0
 12 13  2  0
 12 14  1  0
 22 23  1  0
 23 24  2  0
 24 19  1  0
  8  1  1  0
  5 10  1  0
  9 11  1  0
 14 15  1  0
M  END
> <minimizedAffinity>
-5.00375

> <CNNscore>
0.3134823143

> <CNNaffinity>
3.1522133350

> <CNN_VS>
0.9881631136

> <CNNaffinity_variance>
0.9292586446

$$$$



 26 27  0  0  0  0  0  0  0  0999 V2000
   18.6182   -2.2537   43.8751 C   0  0  0  0  0  0  0  0  0  0  0  0
   19.4550   -1.3902   44.8108 C   0  0  0  0  0  0  0  0  0  0  0  0
   20.5241   -0.9029   44.4285 O   0  0  0  0  0  0  0  0  0  0  0  0
   18.8936   -1.0150   46.1747 C   0  0  0  0  0  0  0  0  0  0  0  0
   17.9336    0.0259   45.9855 O   0  0  0  0  0  0  0  0  0  0  0  0
   18.2715   -2.2080   46.9228 C   0  0  0  0  0  0  0  0  0  0  0  0
   18.1167   -3.4558   46.0472 C   0  0  0  0  0  0  0  0  0  0  0  0
   17.5998   -3.1101   44.6517 C   0  0  0  0  0  0  0  0  0  0  0  0
   16.3520   -2.4336   44.8254 O   0  0  0  0  0  0  0  0  0  0  0  0
   17.2127   -0.2975   45.4229 H   0  0  0  0  0  0  0  0  0  0  0  0
   15.7406   -3.0041   45.3171 H   0  0  0  0  0  0  0  0  0  0  0  0
   17.3918   -4.4273   43.8814 C   0  0  0  0  0  0  0  0  0  0  0  0
   16.8703   -4.5756   42.7910 O   0  0  0  0  0  0  0  0  0  0  0  0
   17.8573   -5.4945   44.5749 O   0  0  0  0  0  0  0  0  0  0  0  0
   18.2570   -5.3704   45.4132 H   0  0  0  0  0  0  0  0  0  0  0  0
   19.1363   -2.5414   48.0263 O   0  0  0  0  0  0  0  0  0  0  0  0
   19.4642   -1.4203   48.8391 C   0  0  0  0  0  0  0  0  0  0  0  0
   17.9855   -1.3690   42.7831 C   0  0  0  0  0  0  0  0  0  0  0  0
   20.2909   -1.3390   39.1169 C   0  0  0  0  0  0  0  0  0  0  0  0
   20.0785   -0.1590   39.8322 C   0  0  0  0  0  0  0  0  0  0  0  0
   19.3391   -0.1650   41.0179 C   0  0  0  0  0  0  0  0  0  0  0  0
   18.8025   -1.3608   41.5096 C   0  0  0  0  0  0  0  0  0  0  0  0
   19.0152   -2.5417   40.7885 C   0  0  0  0  0  0  0  0  0  0  0  0
   19.7554   -2.5317   39.6005 C   0  0  0  0  0  0  0  0  0  0  0  0
   21.3541    0.1380   37.5910 C   0  0  0  0  0  0  0  0  0  0  0  0
   21.0308   -1.1914   37.9761 O   0  0  0  0  0  0  0  0  0  0  0  0
 25 26  1  0
 26 19  1  0
 19 20  2  0
 20 21  1  0
 21 22  2  0
 22 18  1  0
  1 18  1  0
  1  2  1  0
  2  3  2  0
  2  4  1  0
  4  5  1  0
  4  6  1  0
  6 16  1  0
 16 17  1  0
  6  7  1  0
  7  8  1  0
  8  9  1  0
  8 12  1  0
 12 13  2  0
 12 14  1  0
 22 23  1  0
 23 24  2  0
 24 19  1  0
  8  1  1  0
  5 10  1  0
  9 11  1  0
 14 15  1  0
M  END
> <minimizedAffinity>
-4.63581

> <CNNscore>
0.2473880798

> <CNNaffinity>
2.7998600006

> <CNN_VS>
0.6926519871

> <CNNaffinity_variance>
1.0010453463

$$$$



 26 27  0  0  0  0  0  0  0  0999 V2000
   21.3035    1.3910   39.0293 C   0  0  0  0  0  0  0  0  0  0  0  0
   21.1879   -0.0815   39.4030 C   0  0  0  0  0  0  0  0  0  0  0  0
   20.0798   -0.6058   39.5572 O   0  0  0  0  0  0  0  0  0  0  0  0
   22.4458   -0.9372   39.4451 C   0  0  0  0  0  0  0  0  0  0  0  0
   22.8106   -1.2518   38.1001 O   0  0  0  0  0  0  0  0  0  0  0  0
   23.6129   -0.2624   40.1883 C   0  0  0  0  0  0  0  0  0  0  0  0
   23.3543    1.2144   40.5048 C   0  0  0  0  0  0  0  0  0  0  0  0
   22.7105    1.9436   39.3268 C   0  0  0  0  0  0  0  0  0  0  0  0
   23.5927    1.7933   38.2114 O   0  0  0  0  0  0  0  0  0  0  0  0
   22.9993   -0.4326   37.6162 H   0  0  0  0  0  0  0  0  0  0  0  0
   24.4649    2.1520   38.4384 H   0  0  0  0  0  0  0  0  0  0  0  0
   22.5739    3.4302   39.7045 C   0  0  0  0  0  0  0  0  0  0  0  0
   23.2214    4.3681   39.2755 O   0  0  0  0  0  0  0  0  0  0  0  0
   21.6109    3.6258   40.6378 O   0  0  0  0  0  0  0  0  0  0  0  0
   21.1179    2.8979   40.9619 H   0  0  0  0  0  0  0  0  0  0  0  0
   23.8087   -0.9585   41.4349 O   0  0  0  0  0  0  0  0  0  0  0  0
   25.0462   -0.6441   42.0632 C   0  0  0  0  0  0  0  0  0  0  0  0
   20.8504    1.5908   37.5697 C   0  0  0  0  0  0  0  0  0  0  0  0
   16.6911    2.7641   37.2859 C   0  0  0  0  0  0  0  0  0  0  0  0
   17.4003    2.3801   36.1462 C   0  0  0  0  0  0  0  0  0  0  0  0
   18.7411    1.9965   36.2341 C   0  0  0  0  0  0  0  0  0  0  0  0
   19.3935    1.9875   37.4725 C   0  0  0  0  0  0  0  0  0  0  0  0
   18.6803    2.3756   38.6129 C   0  0  0  0  0  0  0  0  0  0  0  0
   17.3375    2.7604   38.5210 C   0  0  0  0  0  0  0  0  0  0  0  0
   14.4818    2.9412   38.1389 C   0  0  0  0  0  0  0  0  0  0  0  0
   15.3888    3.1145   37.0585 O   0  0  0  0  0  0  0  0  0  0  0  0
 25 26  1  0
 26 19  1  0
 19 20  2  0
 20 21  1  0
 21 22  2  0
 22 18  1  0
  1 18  1  0
  1  2  1  0
  2  3  2  0
  2  4  1  0
  4  5  1  0
  4  6  1  0
  6 16  1  0
 16 17  1  0
  6  7  1  0
  7  8  1  0
  8  9  1  0
  8 12  1  0
 12 13  2  0
 12 14  1  0
 22 23  1  0
 23 24  2  0
 24 19  1  0
  8  1  1  0
  5 10  1  0
  9 11  1  0
 14 15  1  0
M  END
> <minimizedAffinity>
-6.29727

> <CNNscore>
0.2452667952

> <CNNaffinity>
3.5405321121

> <CNN_VS>
0.8683749437

> <CNNaffinity_variance>
0.7193782926

$$$$



 26 27  0  0  0  0  0  0  0  0999 V2000
   16.1765    3.7697   43.8776 C   0  0  0  0  0  0  0  0  0  0  0  0
   15.2718    3.9251   42.6616 C   0  0  0  0  0  0  0  0  0  0  0  0
   14.0431    3.9411   42.7903 O   0  0  0  0  0  0  0  0  0  0  0  0
   15.8971    4.2041   41.3024 C   0  0  0  0  0  0  0  0  0  0  0  0
   16.2745    5.5814   41.2647 O   0  0  0  0  0  0  0  0  0  0  0  0
   17.1000    3.2952   40.9910 C   0  0  0  0  0  0  0  0  0  0  0  0
   17.5734    2.4838   42.2014 C   0  0  0  0  0  0  0  0  0  0  0  0
   17.5961    3.3257   43.4761 C   0  0  0  0  0  0  0  0  0  0  0  0
   18.4555    4.4404   43.2237 O   0  0  0  0  0  0  0  0  0  0  0  0
   16.9298    5.7562   41.9581 H   0  0  0  0  0  0  0  0  0  0  0  0
   19.3365    4.1196   42.9748 H   0  0  0  0  0  0  0  0  0  0  0  0
   18.1674    2.4556   44.6110 C   0  0  0  0  0  0  0  0  0  0  0  0
   17.5565    1.7085   45.3537 O   0  0  0  0  0  0  0  0  0  0  0  0
   19.5076    2.6114   44.7385 O   0  0  0  0  0  0  0  0  0  0  0  0
   19.9691    3.1886   44.1623 H   0  0  0  0  0  0  0  0  0  0  0  0
   16.7032    2.3693   39.9604 O   0  0  0  0  0  0  0  0  0  0  0  0
   17.0753    2.7930   38.6538 C   0  0  0  0  0  0  0  0  0  0  0  0
   16.1409    5.0621   44.7167 C   0  0  0  0  0  0  0  0  0  0  0  0
   14.3648    4.3931   48.6096 C   0  0  0  0  0  0  0  0  0  0  0  0
   15.7433    4.2678   48.4266 C   0  0  0  0  0  0  0  0  0  0  0  0
   16.3208    4.4872   47.1733 C   0  0  0  0  0  0  0  0  0  0  0  0
   15.5221    4.8418   46.0798 C   0  0  0  0  0  0  0  0  0  0  0  0
   14.1400    4.9640   46.2661 C   0  0  0  0  0  0  0  0  0  0  0  0
   13.5647    4.7423   47.5228 C   0  0  0  0  0  0  0  0  0  0  0  0
   14.7515    3.3144   50.6897 C   0  0  0  0  0  0  0  0  0  0  0  0
   13.9325    4.1515   49.8845 O   0  0  0  0  0  0  0  0  0  0  0  0
 25 26  1  0
 26 19  1  0
 19 20  2  0
 20 21  1  0
 21 22  2  0
 22 18  1  0
  1 18  1  0
  1  2  1  0
  2  3  2  0
  2  4  1  0
  4  5  1  0
  4  6  1  0
  6 16  1  0
 16 17  1  0
  6  7  1  0
  7  8  1  0
  8  9  1  0
  8 12  1  0
 12 13  2  0
 12 14  1  0
 22 23  1  0
 23 24  2  0
 24 19  1  0
  8  1  1  0
  5 10  1  0
  9 11  1  0
 14 15  1  0
M  END
> <minimizedAffinity>
-5.48877

> <CNNscore>
0.2346770763

> <CNNaffinity>
3.2079193592

> <CNN_VS>
0.7528251410

> <CNNaffinity_variance>
0.7997671962

$$$$



 26 27  0  0  0  0  0  0  0  0999 V2000
   17.4131    4.5307   43.8876 C   0  0  0  0  0  0  0  0  0  0  0  0
   18.9168    4.3191   44.0128 C   0  0  0  0  0  0  0  0  0  0  0  0
   19.6408    5.2092   44.4712 O   0  0  0  0  0  0  0  0  0  0  0  0
   19.5017    2.9491   43.7013 C   0  0  0  0  0  0  0  0  0  0  0  0
   19.2344    2.0922   44.8127 O   0  0  0  0  0  0  0  0  0  0  0  0
   18.9591    2.3415   42.3950 C   0  0  0  0  0  0  0  0  0  0  0  0
   17.7682    3.1142   41.8184 C   0  0  0  0  0  0  0  0  0  0  0  0
   16.7782    3.5269   42.9064 C   0  0  0  0  0  0  0  0  0  0  0  0
   16.3571    2.3283   43.5628 O   0  0  0  0  0  0  0  0  0  0  0  0
   18.2755    2.0086   44.9333 H   0  0  0  0  0  0  0  0  0  0  0  0
   15.9643    1.7247   42.9130 H   0  0  0  0  0  0  0  0  0  0  0  0
   15.5800    4.2128   42.2242 C   0  0  0  0  0  0  0  0  0  0  0  0
   15.6063    5.0191   41.3120 O   0  0  0  0  0  0  0  0  0  0  0  0
   14.4016    3.8300   42.7734 O   0  0  0  0  0  0  0  0  0  0  0  0
   14.3915    3.2090   43.4749 H   0  0  0  0  0  0  0  0  0  0  0  0
   20.0198    2.3632   41.4197 O   0  0  0  0  0  0  0  0  0  0  0  0
   19.5462    2.4042   40.0784 C   0  0  0  0  0  0  0  0  0  0  0  0
   16.7720    4.5239   45.2892 C   0  0  0  0  0  0  0  0  0  0  0  0
   15.1546    8.3902   46.3813 C   0  0  0  0  0  0  0  0  0  0  0  0
   16.1118    8.2803   45.3708 C   0  0  0  0  0  0  0  0  0  0  0  0
   16.6328    7.0342   45.0123 C   0  0  0  0  0  0  0  0  0  0  0  0
   16.1969    5.8731   45.6613 C   0  0  0  0  0  0  0  0  0  0  0  0
   15.2390    5.9872   46.6758 C   0  0  0  0  0  0  0  0  0  0  0  0
   14.7200    7.2372   47.0331 C   0  0  0  0  0  0  0  0  0  0  0  0
   15.1933   10.2714   47.8304 C   0  0  0  0  0  0  0  0  0  0  0  0
   14.7299    9.6662   46.6308 O   0  0  0  0  0  0  0  0  0  0  0  0
 25 26  1  0
 26 19  1  0
 19 20  2  0
 20 21  1  0
 21 22  2  0
 22 18  1  0
  1 18  1  0
  1  2  1  0
  2  3  2  0
  2  4  1  0
  4  5  1  0
  4  6  1  0
  6 16  1  0
 16 17  1  0
  6  7  1  0
  7  8  1  0
  8  9  1  0
  8 12  1  0
 12 13  2  0
 12 14  1  0
 22 23  1  0
 23 24  2  0
 24 19  1  0
  8  1  1  0
  5 10  1  0
  9 11  1  0
 14 15  1  0
M  END
> <minimizedAffinity>
-4.82244

> <CNNscore>
0.2343014628

> <CNNaffinity>
3.0865781307

> <CNN_VS>
0.7231897712

> <CNNaffinity_variance>
0.7777485251

$$$$



 26 27  0  0  0  0  0  0  0  0999 V2000
   13.8986    2.7080   39.0529 C   0  0  0  0  0  0  0  0  0  0  0  0
   13.5789    2.3772   40.5054 C   0  0  0  0  0  0  0  0  0  0  0  0
   14.4152    1.8156   41.2208 O   0  0  0  0  0  0  0  0  0  0  0  0
   12.2726    2.8724   41.1090 C   0  0  0  0  0  0  0  0  0  0  0  0
   12.4211    4.2627   41.4022 O   0  0  0  0  0  0  0  0  0  0  0  0
   11.0544    2.6290   40.1997 C   0  0  0  0  0  0  0  0  0  0  0  0
   11.4364    2.1782   38.7859 C   0  0  0  0  0  0  0  0  0  0  0  0
   12.6195    2.9734   38.2363 C   0  0  0  0  0  0  0  0  0  0  0  0
   12.2426    4.3526   38.2627 O   0  0  0  0  0  0  0  0  0  0  0  0
   12.5970    4.7493   40.5817 H   0  0  0  0  0  0  0  0  0  0  0  0
   11.4358    4.4774   37.7389 H   0  0  0  0  0  0  0  0  0  0  0  0
   12.8693    2.5145   36.7876 C   0  0  0  0  0  0  0  0  0  0  0  0
   13.9374    2.4313   36.2086 O   0  0  0  0  0  0  0  0  0  0  0  0
   11.7137    2.2011   36.1527 O   0  0  0  0  0  0  0  0  0  0  0  0
   10.8967    2.2683   36.6066 H   0  0  0  0  0  0  0  0  0  0  0  0
   10.2528    1.5915   40.7978 O   0  0  0  0  0  0  0  0  0  0  0  0
   10.9179    0.9095   41.8549 C   0  0  0  0  0  0  0  0  0  0  0  0
   14.9235    3.8579   38.9984 C   0  0  0  0  0  0  0  0  0  0  0  0
   18.9816    2.4056   39.4217 C   0  0  0  0  0  0  0  0  0  0  0  0
   18.3243    2.3291   38.1923 C   0  0  0  0  0  0  0  0  0  0  0  0
   17.0166    2.8007   38.0504 C   0  0  0  0  0  0  0  0  0  0  0  0
   16.3460    3.3631   39.1429 C   0  0  0  0  0  0  0  0  0  0  0  0
   17.0070    3.4358   40.3747 C   0  0  0  0  0  0  0  0  0  0  0  0
   18.3167    2.9613   40.5136 C   0  0  0  0  0  0  0  0  0  0  0  0
   20.3974    0.5105   39.6319 C   0  0  0  0  0  0  0  0  0  0  0  0
   20.2559    1.9089   39.4212 O   0  0  0  0  0  0  0  0  0  0  0  0
 25 26  1  0
 26 19  1  0
 19 20  2  0
 20 21  1  0
 21 22  2  0
 22 18  1  0
  1 18  1  0
  1  2  1  0
  2  3  2  0
  2  4  1  0
  4  5  1  0
  4  6  1  0
  6 16  1  0
 16 17  1  0
  6  7  1  0
  7  8  1  0
  8  9  1  0
  8 12  1  0
 12 13  2  0
 12 14  1  0
 22 23  1  0
 23 24  2  0
 24 19  1  0
  8  1  1  0
  5 10  1  0
  9 11  1  0
 14 15  1  0
M  END
> <minimizedAffinity>
-6.31746

> <CNNscore>
0.2111670971

> <CNNaffinity>
4.7510528564

> <CNN_VS>
1.0032660961

> <CNNaffinity_variance>
0.0292305201

$$$$
