


 29 29  0  0  0  0  0  0  0  0999 V2000
   38.3250   40.7945   -3.2467 C   0  0  0  0  0  0  0  0  0  0  0  0
   39.1258   41.7068   -3.4165 O   0  0  0  0  0  0  0  0  0  0  0  0
   36.9595   40.9647   -3.3303 N   0  0  0  0  0  0  0  0  0  0  0  0
   36.3753   40.1756   -3.2567 H   0  0  0  0  0  0  0  0  0  0  0  0
   38.7186   39.3667   -2.9120 C   0  0  0  0  0  0  0  0  0  0  0  0
   38.9365   38.5193   -4.1709 C   0  0  0  0  0  0  0  0  0  0  0  0
   40.3196   37.7856   -4.2730 C   0  0  0  0  0  0  0  0  0  0  0  0
   40.4274   36.8916   -3.0264 C   0  0  0  0  0  0  0  0  0  0  0  0
   41.4395   38.8445   -4.2097 C   0  0  0  0  0  0  0  0  0  0  0  0
   40.3536   36.9801   -5.6165 C   0  0  0  0  0  0  0  0  0  0  0  0
   41.2833   35.7336   -5.8891 C   0  0  0  0  0  0  0  0  0  0  0  0
   41.0264   35.3550   -7.3656 C   0  0  0  0  0  0  0  0  0  0  0  0
   40.8260   34.5350   -5.0309 C   0  0  0  0  0  0  0  0  0  0  0  0
   42.7763   36.0980   -5.6339 C   0  0  0  0  0  0  0  0  0  0  0  0
   44.3669   35.7992   -7.5385 C   0  0  0  0  0  0  0  0  0  0  0  0
   43.9839   35.2446   -6.1411 C   0  0  0  0  0  0  0  0  0  0  0  0
   43.6075   33.7641   -6.3417 C   0  0  0  0  0  0  0  0  0  0  0  0
   45.2285   35.3434   -5.2514 C   0  0  0  0  0  0  0  0  0  0  0  0
   36.3495   42.2844   -3.5253 C   0  0  0  0  0  0  0  0  0  0  0  0
   35.4068   42.2608   -4.7465 C   0  0  0  0  0  0  0  0  0  0  0  0
   36.2301   42.6573   -6.3297 S   0  0  0  0  0  0  0  0  0  0  0  0
   36.7232   43.9238   -6.2795 H   0  0  0  0  0  0  0  0  0  0  0  0
   35.6842   42.7683   -2.2157 C   0  0  0  0  0  0  0  0  0  0  0  0
   36.6405   42.8977   -1.0546 C   0  0  0  0  0  0  0  0  0  0  0  0
   37.6217   43.8982   -1.0413 C   0  0  0  0  0  0  0  0  0  0  0  0
   38.5095   44.0033    0.0308 C   0  0  0  0  0  0  0  0  0  0  0  0
   38.4204   43.1159    1.1020 C   0  0  0  0  0  0  0  0  0  0  0  0
   37.4435   42.1226    1.1027 C   0  0  0  0  0  0  0  0  0  0  0  0
   36.5558   42.0147    0.0314 C   0  0  0  0  0  0  0  0  0  0  0  0
 15 16  1  0
 16 17  1  0
 16 18  1  0
 16 14  1  0
 14 11  1  0
 11 12  1  0
 11 13  1  0
 11 10  1  0
 10  7  1  0
  7  8  1  0
  7  9  1  0
  7  6  1  0
  6  5  1  0
  5  1  1  0
  1  2  2  0
  1  3  1  0
  3 19  1  0
 19 20  1  0
 20 21  1  0
 19 23  1  0
 23 24  1  0
 24 25  2  0
 25 26  1  0
 26 27  2  0
 27 28  1  0
 28 29  2  0
 29 24  1  0
  3  4  1  0
 21 22  1  0
M  END
> <minimizedAffinity>
-5.75390

> <CNNscore>
0.9641615152

> <CNNaffinity>
7.2457671165

> <CNN_VS>
6.9860897064

> <CNNaffinity_variance>
0.1285066903

$$$$



 29 29  0  0  0  0  0  0  0  0999 V2000
   38.4075   40.5433   -3.5657 C   0  0  0  0  0  0  0  0  0  0  0  0
   39.2382   41.4173   -3.3461 O   0  0  0  0  0  0  0  0  0  0  0  0
   37.0928   40.8144   -3.8798 N   0  0  0  0  0  0  0  0  0  0  0  0
   36.4959   40.0685   -4.1175 H   0  0  0  0  0  0  0  0  0  0  0  0
   38.7024   39.0547   -3.5116 C   0  0  0  0  0  0  0  0  0  0  0  0
   40.1890   38.7537   -3.7340 C   0  0  0  0  0  0  0  0  0  0  0  0
   40.5428   37.2658   -4.0844 C   0  0  0  0  0  0  0  0  0  0  0  0
   41.7124   36.8723   -3.1668 C   0  0  0  0  0  0  0  0  0  0  0  0
   41.0327   37.2119   -5.5461 C   0  0  0  0  0  0  0  0  0  0  0  0
   39.2629   36.3889   -3.8654 C   0  0  0  0  0  0  0  0  0  0  0  0
   39.0761   35.3577   -2.6847 C   0  0  0  0  0  0  0  0  0  0  0  0
   39.6934   34.0381   -3.2014 C   0  0  0  0  0  0  0  0  0  0  0  0
   37.5743   35.0902   -2.4488 C   0  0  0  0  0  0  0  0  0  0  0  0
   39.7875   35.8666   -1.3957 C   0  0  0  0  0  0  0  0  0  0  0  0
   41.0147   33.8835   -0.4964 C   0  0  0  0  0  0  0  0  0  0  0  0
   40.0039   34.9968   -0.1147 C   0  0  0  0  0  0  0  0  0  0  0  0
   38.7119   34.2860    0.3317 C   0  0  0  0  0  0  0  0  0  0  0  0
   40.5994   35.7721    1.0663 C   0  0  0  0  0  0  0  0  0  0  0  0
   36.5555   42.1793   -3.8712 C   0  0  0  0  0  0  0  0  0  0  0  0
   35.7652   42.4495   -5.1685 C   0  0  0  0  0  0  0  0  0  0  0  0
   35.4286   40.9512   -6.1602 S   0  0  0  0  0  0  0  0  0  0  0  0
   36.6050   40.4003   -6.5629 H   0  0  0  0  0  0  0  0  0  0  0  0
   35.7552   42.4340   -2.5725 C   0  0  0  0  0  0  0  0  0  0  0  0
   36.6192   42.6937   -1.3618 C   0  0  0  0  0  0  0  0  0  0  0  0
   37.5257   43.7623   -1.3432 C   0  0  0  0  0  0  0  0  0  0  0  0
   38.3292   43.9882   -0.2243 C   0  0  0  0  0  0  0  0  0  0  0  0
   38.2289   43.1544    0.8882 C   0  0  0  0  0  0  0  0  0  0  0  0
   37.3251   42.0941    0.8835 C   0  0  0  0  0  0  0  0  0  0  0  0
   36.5220   41.8655   -0.2346 C   0  0  0  0  0  0  0  0  0  0  0  0
 15 16  1  0
 16 17  1  0
 16 18  1  0
 16 14  1  0
 14 11  1  0
 11 12  1  0
 11 13  1  0
 11 10  1  0
 10  7  1  0
  7  8  1  0
  7  9  1  0
  7  6  1  0
  6  5  1  0
  5  1  1  0
  1  2  2  0
  1  3  1  0
  3 19  1  0
 19 20  1  0
 20 21  1  0
 19 23  1  0
 23 24  1  0
 24 25  2  0
 25 26  1  0
 26 27  2  0
 27 28  1  0
 28 29  2  0
 29 24  1  0
  3  4  1  0
 21 22  1  0
M  END
> <minimizedAffinity>
-6.21059

> <CNNscore>
0.9339514375

> <CNNaffinity>
7.3927216530

> <CNN_VS>
6.9044427872

> <CNNaffinity_variance>
0.2660259008

$$$$



 29 29  0  0  0  0  0  0  0  0999 V2000
   38.4008   40.7011   -3.5540 C   0  0  0  0  0  0  0  0  0  0  0  0
   39.1258   41.6800   -3.4185 O   0  0  0  0  0  0  0  0  0  0  0  0
   37.0371   40.7922   -3.7347 N   0  0  0  0  0  0  0  0  0  0  0  0
   36.5238   39.9709   -3.9116 H   0  0  0  0  0  0  0  0  0  0  0  0
   38.8946   39.2654   -3.5303 C   0  0  0  0  0  0  0  0  0  0  0  0
   38.5455   38.5150   -4.8207 C   0  0  0  0  0  0  0  0  0  0  0  0
   39.5291   37.3639   -5.2324 C   0  0  0  0  0  0  0  0  0  0  0  0
   39.3660   36.2580   -4.1764 C   0  0  0  0  0  0  0  0  0  0  0  0
   40.9721   37.9032   -5.1522 C   0  0  0  0  0  0  0  0  0  0  0  0
   39.1614   36.8945   -6.6813 C   0  0  0  0  0  0  0  0  0  0  0  0
   39.1752   35.3919   -7.1655 C   0  0  0  0  0  0  0  0  0  0  0  0
   38.9021   35.4563   -8.6856 C   0  0  0  0  0  0  0  0  0  0  0  0
   37.9995   34.6204   -6.5292 C   0  0  0  0  0  0  0  0  0  0  0  0
   40.5483   34.7274   -6.8493 C   0  0  0  0  0  0  0  0  0  0  0  0
   41.6640   33.4547   -8.6885 C   0  0  0  0  0  0  0  0  0  0  0  0
   40.9542   33.2924   -7.3185 C   0  0  0  0  0  0  0  0  0  0  0  0
   39.7289   32.3903   -7.5603 C   0  0  0  0  0  0  0  0  0  0  0  0
   41.9347   32.5870   -6.3744 C   0  0  0  0  0  0  0  0  0  0  0  0
   36.3269   42.0741   -3.6716 C   0  0  0  0  0  0  0  0  0  0  0  0
   35.3476   42.1999   -4.8572 C   0  0  0  0  0  0  0  0  0  0  0  0
   36.1213   42.8002   -6.4009 S   0  0  0  0  0  0  0  0  0  0  0  0
   36.6123   44.0531   -6.2044 H   0  0  0  0  0  0  0  0  0  0  0  0
   35.6730   42.2590   -2.2823 C   0  0  0  0  0  0  0  0  0  0  0  0
   36.6343   42.7074   -1.2080 C   0  0  0  0  0  0  0  0  0  0  0  0
   37.3684   43.8926   -1.3512 C   0  0  0  0  0  0  0  0  0  0  0  0
   38.2639   44.2939   -0.3584 C   0  0  0  0  0  0  0  0  0  0  0  0
   38.4282   43.5198    0.7891 C   0  0  0  0  0  0  0  0  0  0  0  0
   37.6974   42.3440    0.9455 C   0  0  0  0  0  0  0  0  0  0  0  0
   36.8027   41.9402   -0.0465 C   0  0  0  0  0  0  0  0  0  0  0  0
 15 16  1  0
 16 17  1  0
 16 18  1  0
 16 14  1  0
 14 11  1  0
 11 12  1  0
 11 13  1  0
 11 10  1  0
 10  7  1  0
  7  8  1  0
  7  9  1  0
  7  6  1  0
  6  5  1  0
  5  1  1  0
  1  2  2  0
  1  3  1  0
  3 19  1  0
 19 20  1  0
 20 21  1  0
 19 23  1  0
 23 24  1  0
 24 25  2  0
 25 26  1  0
 26 27  2  0
 27 28  1  0
 28 29  2  0
 29 24  1  0
  3  4  1  0
 21 22  1  0
M  END
> <minimizedAffinity>
-5.46986

> <CNNscore>
0.9334691763

> <CNNaffinity>
7.1806006432

> <CNN_VS>
6.7028694153

> <CNNaffinity_variance>
0.3825183809

$$$$



 29 29  0  0  0  0  0  0  0  0999 V2000
   38.3159   40.5331   -3.7588 C   0  0  0  0  0  0  0  0  0  0  0  0
   39.1953   41.3172   -3.4210 O   0  0  0  0  0  0  0  0  0  0  0  0
   37.0450   40.9327   -4.1136 N   0  0  0  0  0  0  0  0  0  0  0  0
   36.4089   40.2590   -4.4462 H   0  0  0  0  0  0  0  0  0  0  0  0
   38.4959   39.0267   -3.8221 C   0  0  0  0  0  0  0  0  0  0  0  0
   39.0520   38.4577   -2.5118 C   0  0  0  0  0  0  0  0  0  0  0  0
   40.3560   37.5942   -2.6376 C   0  0  0  0  0  0  0  0  0  0  0  0
   40.1676   36.7054   -3.8782 C   0  0  0  0  0  0  0  0  0  0  0  0
   40.4588   36.6822   -1.3977 C   0  0  0  0  0  0  0  0  0  0  0  0
   41.5816   38.5637   -2.7517 C   0  0  0  0  0  0  0  0  0  0  0  0
   43.0394   38.1185   -3.1626 C   0  0  0  0  0  0  0  0  0  0  0  0
   43.2974   36.8119   -2.3780 C   0  0  0  0  0  0  0  0  0  0  0  0
   44.0691   39.1542   -2.6634 C   0  0  0  0  0  0  0  0  0  0  0  0
   43.1315   37.8997   -4.7023 C   0  0  0  0  0  0  0  0  0  0  0  0
   45.4582   38.2805   -5.5321 C   0  0  0  0  0  0  0  0  0  0  0  0
   44.3396   37.2117   -5.4172 C   0  0  0  0  0  0  0  0  0  0  0  0
   43.9951   36.7770   -6.8546 C   0  0  0  0  0  0  0  0  0  0  0  0
   44.9198   36.0214   -4.6444 C   0  0  0  0  0  0  0  0  0  0  0  0
   36.6109   42.3301   -4.0110 C   0  0  0  0  0  0  0  0  0  0  0  0
   35.8837   42.7587   -5.3025 C   0  0  0  0  0  0  0  0  0  0  0  0
   35.3562   41.3622   -6.3576 S   0  0  0  0  0  0  0  0  0  0  0  0
   36.4502   40.6693   -6.7730 H   0  0  0  0  0  0  0  0  0  0  0  0
   35.7917   42.5452   -2.7169 C   0  0  0  0  0  0  0  0  0  0  0  0
   36.6375   42.7113   -1.4773 C   0  0  0  0  0  0  0  0  0  0  0  0
   36.5172   41.8207   -0.4019 C   0  0  0  0  0  0  0  0  0  0  0  0
   37.2947   41.9885    0.7452 C   0  0  0  0  0  0  0  0  0  0  0  0
   38.2043   43.0416    0.8253 C   0  0  0  0  0  0  0  0  0  0  0  0
   38.3379   43.9280   -0.2412 C   0  0  0  0  0  0  0  0  0  0  0  0
   37.5605   43.7631   -1.3884 C   0  0  0  0  0  0  0  0  0  0  0  0
 15 16  1  0
 16 17  1  0
 16 18  1  0
 16 14  1  0
 14 11  1  0
 11 12  1  0
 11 13  1  0
 11 10  1  0
 10  7  1  0
  7  8  1  0
  7  9  1  0
  7  6  1  0
  6  5  1  0
  5  1  1  0
  1  2  2  0
  1  3  1  0
  3 19  1  0
 19 20  1  0
 20 21  1  0
 19 23  1  0
 23 24  1  0
 24 25  2  0
 25 26  1  0
 26 27  2  0
 27 28  1  0
 28 29  2  0
 29 24  1  0
  3  4  1  0
 21 22  1  0
M  END
> <minimizedAffinity>
-6.82502

> <CNNscore>
0.9105008245

> <CNNaffinity>
6.9810414314

> <CNN_VS>
6.3562440872

> <CNNaffinity_variance>
0.5298025608

$$$$



 29 29  0  0  0  0  0  0  0  0999 V2000
   38.4837   40.2884   -3.9770 C   0  0  0  0  0  0  0  0  0  0  0  0
   39.2392   40.9685   -3.2924 O   0  0  0  0  0  0  0  0  0  0  0  0
   37.2663   40.7443   -4.4362 N   0  0  0  0  0  0  0  0  0  0  0  0
   36.7417   40.1738   -5.0432 H   0  0  0  0  0  0  0  0  0  0  0  0
   38.7726   38.8594   -4.4015 C   0  0  0  0  0  0  0  0  0  0  0  0
   38.2691   37.8402   -3.3730 C   0  0  0  0  0  0  0  0  0  0  0  0
   39.3082   37.3917   -2.2862 C   0  0  0  0  0  0  0  0  0  0  0  0
   39.1386   35.8716   -2.1276 C   0  0  0  0  0  0  0  0  0  0  0  0
   38.9363   38.0642   -0.9488 C   0  0  0  0  0  0  0  0  0  0  0  0
   40.7395   37.8072   -2.7699 C   0  0  0  0  0  0  0  0  0  0  0  0
   41.9015   36.7914   -3.1021 C   0  0  0  0  0  0  0  0  0  0  0  0
   42.3771   36.2612   -1.7303 C   0  0  0  0  0  0  0  0  0  0  0  0
   43.0942   37.5405   -3.7335 C   0  0  0  0  0  0  0  0  0  0  0  0
   41.3809   35.6450   -4.0195 C   0  0  0  0  0  0  0  0  0  0  0  0
   40.0765   34.9916   -6.0489 C   0  0  0  0  0  0  0  0  0  0  0  0
   41.3685   35.7120   -5.5814 C   0  0  0  0  0  0  0  0  0  0  0  0
   42.5510   34.9474   -6.2066 C   0  0  0  0  0  0  0  0  0  0  0  0
   41.3257   37.1393   -6.1392 C   0  0  0  0  0  0  0  0  0  0  0  0
   36.7282   42.0528   -4.0488 C   0  0  0  0  0  0  0  0  0  0  0  0
   35.9316   42.6689   -5.2176 C   0  0  0  0  0  0  0  0  0  0  0  0
   35.3228   41.4441   -6.4304 S   0  0  0  0  0  0  0  0  0  0  0  0
   36.3805   40.8136   -7.0079 H   0  0  0  0  0  0  0  0  0  0  0  0
   35.9339   41.9376   -2.7267 C   0  0  0  0  0  0  0  0  0  0  0  0
   36.7049   42.3857   -1.5083 C   0  0  0  0  0  0  0  0  0  0  0  0
   37.4907   43.5456   -1.5429 C   0  0  0  0  0  0  0  0  0  0  0  0
   38.2096   43.9462   -0.4155 C   0  0  0  0  0  0  0  0  0  0  0  0
   38.1440   43.1970    0.7582 C   0  0  0  0  0  0  0  0  0  0  0  0
   37.3594   42.0468    0.8061 C   0  0  0  0  0  0  0  0  0  0  0  0
   36.6409   41.6436   -0.3203 C   0  0  0  0  0  0  0  0  0  0  0  0
 15 16  1  0
 16 17  1  0
 16 18  1  0
 16 14  1  0
 14 11  1  0
 11 12  1  0
 11 13  1  0
 11 10  1  0
 10  7  1  0
  7  8  1  0
  7  9  1  0
  7  6  1  0
  6  5  1  0
  5  1  1  0
  1  2  2  0
  1  3  1  0
  3 19  1  0
 19 20  1  0
 20 21  1  0
 19 23  1  0
 23 24  1  0
 24 25  2  0
 25 26  1  0
 26 27  2  0
 27 28  1  0
 28 29  2  0
 29 24  1  0
  3  4  1  0
 21 22  1  0
M  END
> <minimizedAffinity>
-5.77845

> <CNNscore>
0.8846175671

> <CNNaffinity>
7.1513175964

> <CNN_VS>
6.3261814117

> <CNNaffinity_variance>
0.4717931449

$$$$



 29 29  0  0  0  0  0  0  0  0999 V2000
   35.6993   42.4037   -5.7768 C   0  0  0  0  0  0  0  0  0  0  0  0
   36.7711   42.9268   -6.0590 O   0  0  0  0  0  0  0  0  0  0  0  0
   35.4168   41.8891   -4.5294 N   0  0  0  0  0  0  0  0  0  0  0  0
   34.5106   41.5498   -4.3477 H   0  0  0  0  0  0  0  0  0  0  0  0
   34.5483   42.2392   -6.7534 C   0  0  0  0  0  0  0  0  0  0  0  0
   34.8226   42.9383   -8.0898 C   0  0  0  0  0  0  0  0  0  0  0  0
   33.7116   42.7818   -9.1867 C   0  0  0  0  0  0  0  0  0  0  0  0
   32.3991   43.2597   -8.5435 C   0  0  0  0  0  0  0  0  0  0  0  0
   33.5689   41.2839   -9.5263 C   0  0  0  0  0  0  0  0  0  0  0  0
   34.1304   43.6264  -10.4382 C   0  0  0  0  0  0  0  0  0  0  0  0
   33.1215   44.2027  -11.5070 C   0  0  0  0  0  0  0  0  0  0  0  0
   33.9577   45.1805  -12.3637 C   0  0  0  0  0  0  0  0  0  0  0  0
   32.0294   45.0387  -10.8064 C   0  0  0  0  0  0  0  0  0  0  0  0
   32.5151   43.0517  -12.3640 C   0  0  0  0  0  0  0  0  0  0  0  0
   30.6092   42.1529  -13.7080 C   0  0  0  0  0  0  0  0  0  0  0  0
   31.6770   43.2775  -13.6641 C   0  0  0  0  0  0  0  0  0  0  0  0
   32.5284   43.1278  -14.9394 C   0  0  0  0  0  0  0  0  0  0  0  0
   30.9333   44.6178  -13.6960 C   0  0  0  0  0  0  0  0  0  0  0  0
   36.4238   41.8313   -3.4643 C   0  0  0  0  0  0  0  0  0  0  0  0
   37.7938   41.4269   -4.0473 C   0  0  0  0  0  0  0  0  0  0  0  0
   38.5422   39.9654   -3.2440 S   0  0  0  0  0  0  0  0  0  0  0  0
   38.7752   40.2387   -1.9322 H   0  0  0  0  0  0  0  0  0  0  0  0
   36.4370   43.1548   -2.6642 C   0  0  0  0  0  0  0  0  0  0  0  0
   37.0419   43.0313   -1.2864 C   0  0  0  0  0  0  0  0  0  0  0  0
   36.5965   42.0479   -0.3927 C   0  0  0  0  0  0  0  0  0  0  0  0
   37.1532   41.9483    0.8835 C   0  0  0  0  0  0  0  0  0  0  0  0
   38.1643   42.8240    1.2755 C   0  0  0  0  0  0  0  0  0  0  0  0
   38.6203   43.8000    0.3921 C   0  0  0  0  0  0  0  0  0  0  0  0
   38.0643   43.9024   -0.8838 C   0  0  0  0  0  0  0  0  0  0  0  0
 15 16  1  0
 16 17  1  0
 16 18  1  0
 16 14  1  0
 14 11  1  0
 11 12  1  0
 11 13  1  0
 11 10  1  0
 10  7  1  0
  7  8  1  0
  7  9  1  0
  7  6  1  0
  6  5  1  0
  5  1  1  0
  1  2  2  0
  1  3  1  0
  3 19  1  0
 19 20  1  0
 20 21  1  0
 19 23  1  0
 23 24  1  0
 24 25  2  0
 25 26  1  0
 26 27  2  0
 27 28  1  0
 28 29  2  0
 29 24  1  0
  3  4  1  0
 21 22  1  0
M  END
> <minimizedAffinity>
-7.03626

> <CNNscore>
0.8820755482

> <CNNaffinity>
6.7392044067

> <CNN_VS>
5.9444875717

> <CNNaffinity_variance>
0.3693175316

$$$$



 29 29  0  0  0  0  0  0  0  0999 V2000
   38.3144   40.1787   -3.6573 C   0  0  0  0  0  0  0  0  0  0  0  0
   37.6664   39.8872   -4.6560 O   0  0  0  0  0  0  0  0  0  0  0  0
   38.2619   41.4202   -3.0603 N   0  0  0  0  0  0  0  0  0  0  0  0
   38.7502   41.5652   -2.2179 H   0  0  0  0  0  0  0  0  0  0  0  0
   39.2652   39.2283   -2.9513 C   0  0  0  0  0  0  0  0  0  0  0  0
   40.6866   39.3081   -3.5198 C   0  0  0  0  0  0  0  0  0  0  0  0
   41.5043   37.9690   -3.5129 C   0  0  0  0  0  0  0  0  0  0  0  0
   40.5906   36.9081   -2.8771 C   0  0  0  0  0  0  0  0  0  0  0  0
   42.7375   38.1550   -2.6050 C   0  0  0  0  0  0  0  0  0  0  0  0
   41.9114   37.6310   -4.9877 C   0  0  0  0  0  0  0  0  0  0  0  0
   42.3009   36.1895   -5.5004 C   0  0  0  0  0  0  0  0  0  0  0  0
   43.3600   35.6781   -4.4973 C   0  0  0  0  0  0  0  0  0  0  0  0
   42.9938   36.2869   -6.8761 C   0  0  0  0  0  0  0  0  0  0  0  0
   41.0470   35.2661   -5.5428 C   0  0  0  0  0  0  0  0  0  0  0  0
   39.6078   37.0145   -6.6004 C   0  0  0  0  0  0  0  0  0  0  0  0
   39.8334   35.4826   -6.5042 C   0  0  0  0  0  0  0  0  0  0  0  0
   38.5314   34.8790   -5.9437 C   0  0  0  0  0  0  0  0  0  0  0  0
   40.0709   34.9634   -7.9270 C   0  0  0  0  0  0  0  0  0  0  0  0
   37.5012   42.5321   -3.6409 C   0  0  0  0  0  0  0  0  0  0  0  0
   36.1640   42.0205   -4.2159 C   0  0  0  0  0  0  0  0  0  0  0  0
   35.7404   42.7209   -5.8504 S   0  0  0  0  0  0  0  0  0  0  0  0
   35.5940   44.0686   -5.7419 H   0  0  0  0  0  0  0  0  0  0  0  0
   37.3561   43.6789   -2.6134 C   0  0  0  0  0  0  0  0  0  0  0  0
   37.5396   43.2431   -1.1795 C   0  0  0  0  0  0  0  0  0  0  0  0
   36.7035   42.2720   -0.6121 C   0  0  0  0  0  0  0  0  0  0  0  0
   36.8726   41.8835    0.7179 C   0  0  0  0  0  0  0  0  0  0  0  0
   37.8825   42.4549    1.4902 C   0  0  0  0  0  0  0  0  0  0  0  0
   38.7246   43.4152    0.9337 C   0  0  0  0  0  0  0  0  0  0  0  0
   38.5564   43.8063   -0.3953 C   0  0  0  0  0  0  0  0  0  0  0  0
 15 16  1  0
 16 17  1  0
 16 18  1  0
 16 14  1  0
 14 11  1  0
 11 12  1  0
 11 13  1  0
 11 10  1  0
 10  7  1  0
  7  8  1  0
  7  9  1  0
  7  6  1  0
  6  5  1  0
  5  1  1  0
  1  2  2  0
  1  3  1  0
  3 19  1  0
 19 20  1  0
 20 21  1  0
 19 23  1  0
 23 24  1  0
 24 25  2  0
 25 26  1  0
 26 27  2  0
 27 28  1  0
 28 29  2  0
 29 24  1  0
  3  4  1  0
 21 22  1  0
M  END
> <minimizedAffinity>
-5.97526

> <CNNscore>
0.8280274272

> <CNNaffinity>
6.4762129784

> <CNN_VS>
5.3624820709

> <CNNaffinity_variance>
0.1213084832

$$$$



 29 29  0  0  0  0  0  0  0  0999 V2000
   31.9109   40.6577   -9.6892 C   0  0  0  0  0  0  0  0  0  0  0  0
   32.8328   39.9036   -9.4002 O   0  0  0  0  0  0  0  0  0  0  0  0
   31.9615   42.0210   -9.4904 N   0  0  0  0  0  0  0  0  0  0  0  0
   31.2164   42.5778   -9.8130 H   0  0  0  0  0  0  0  0  0  0  0  0
   30.5928   40.2012  -10.2892 C   0  0  0  0  0  0  0  0  0  0  0  0
   30.7062   38.8200  -10.9445 C   0  0  0  0  0  0  0  0  0  0  0  0
   29.4503   37.8896  -10.8058 C   0  0  0  0  0  0  0  0  0  0  0  0
   29.7014   36.6846  -11.7275 C   0  0  0  0  0  0  0  0  0  0  0  0
   28.2170   38.6535  -11.3299 C   0  0  0  0  0  0  0  0  0  0  0  0
   29.2935   37.4930   -9.2981 C   0  0  0  0  0  0  0  0  0  0  0  0
   30.2091   36.4483   -8.5479 C   0  0  0  0  0  0  0  0  0  0  0  0
   31.2419   37.3001   -7.7752 C   0  0  0  0  0  0  0  0  0  0  0  0
   30.9974   35.6045   -9.5721 C   0  0  0  0  0  0  0  0  0  0  0  0
   29.3571   35.5602   -7.5928 C   0  0  0  0  0  0  0  0  0  0  0  0
   30.8601   33.5714   -7.4111 C   0  0  0  0  0  0  0  0  0  0  0  0
   29.3801   33.9970   -7.5992 C   0  0  0  0  0  0  0  0  0  0  0  0
   28.9211   33.4133   -8.9491 C   0  0  0  0  0  0  0  0  0  0  0  0
   28.5717   33.3616   -6.4620 C   0  0  0  0  0  0  0  0  0  0  0  0
   33.0904   42.6680   -8.8132 C   0  0  0  0  0  0  0  0  0  0  0  0
   33.9105   41.6236   -8.0276 C   0  0  0  0  0  0  0  0  0  0  0  0
   34.7028   42.2824   -6.5176 S   0  0  0  0  0  0  0  0  0  0  0  0
   35.5900   43.2551   -6.8587 H   0  0  0  0  0  0  0  0  0  0  0  0
   33.9168   43.5005   -9.8212 C   0  0  0  0  0  0  0  0  0  0  0  0
   33.1858   43.8078  -11.1060 C   0  0  0  0  0  0  0  0  0  0  0  0
   33.3969   43.0331  -12.2546 C   0  0  0  0  0  0  0  0  0  0  0  0
   32.7258   43.3315  -13.4417 C   0  0  0  0  0  0  0  0  0  0  0  0
   31.8325   44.4004  -13.4900 C   0  0  0  0  0  0  0  0  0  0  0  0
   31.6090   45.1721  -12.3518 C   0  0  0  0  0  0  0  0  0  0  0  0
   32.2800   44.8765  -11.1644 C   0  0  0  0  0  0  0  0  0  0  0  0
 15 16  1  0
 16 17  1  0
 16 18  1  0
 16 14  1  0
 14 11  1  0
 11 12  1  0
 11 13  1  0
 11 10  1  0
 10  7  1  0
  7  8  1  0
  7  9  1  0
  7  6  1  0
  6  5  1  0
  5  1  1  0
  1  2  2  0
  1  3  1  0
  3 19  1  0
 19 20  1  0
 20 21  1  0
 19 23  1  0
 23 24  1  0
 24 25  2  0
 25 26  1  0
 26 27  2  0
 27 28  1  0
 28 29  2  0
 29 24  1  0
  3  4  1  0
 21 22  1  0
M  END
> <minimizedAffinity>
-5.84736

> <CNNscore>
0.8227134347

> <CNNaffinity>
6.9600281715

> <CNN_VS>
5.7261085510

> <CNNaffinity_variance>
0.8150880933

$$$$



 29 29  0  0  0  0  0  0  0  0999 V2000
   38.5316   39.8453   -3.7223 C   0  0  0  0  0  0  0  0  0  0  0  0
   37.6707   39.2499   -4.3599 O   0  0  0  0  0  0  0  0  0  0  0  0
   38.4305   41.1769   -3.3801 N   0  0  0  0  0  0  0  0  0  0  0  0
   39.1223   41.5748   -2.8035 H   0  0  0  0  0  0  0  0  0  0  0  0
   39.8224   39.2110   -3.2352 C   0  0  0  0  0  0  0  0  0  0  0  0
   40.6956   38.7187   -4.3950 C   0  0  0  0  0  0  0  0  0  0  0  0
   41.7687   37.6328   -4.0329 C   0  0  0  0  0  0  0  0  0  0  0  0
   41.3552   36.3520   -4.7766 C   0  0  0  0  0  0  0  0  0  0  0  0
   41.6940   37.3597   -2.5165 C   0  0  0  0  0  0  0  0  0  0  0  0
   43.1777   38.1686   -4.4604 C   0  0  0  0  0  0  0  0  0  0  0  0
   44.2307   37.3455   -5.3006 C   0  0  0  0  0  0  0  0  0  0  0  0
   45.4263   38.3051   -5.4986 C   0  0  0  0  0  0  0  0  0  0  0  0
   43.6638   37.0374   -6.7028 C   0  0  0  0  0  0  0  0  0  0  0  0
   44.6448   36.0499   -4.5412 C   0  0  0  0  0  0  0  0  0  0  0  0
   45.8151   33.8809   -4.1256 C   0  0  0  0  0  0  0  0  0  0  0  0
   45.1956   34.7646   -5.2401 C   0  0  0  0  0  0  0  0  0  0  0  0
   46.3298   35.0822   -6.2333 C   0  0  0  0  0  0  0  0  0  0  0  0
   44.1166   33.9305   -5.9405 C   0  0  0  0  0  0  0  0  0  0  0  0
   37.3247   42.0196   -3.8478 C   0  0  0  0  0  0  0  0  0  0  0  0
   36.6799   41.4028   -5.1065 C   0  0  0  0  0  0  0  0  0  0  0  0
   35.7995   42.6105   -6.1592 S   0  0  0  0  0  0  0  0  0  0  0  0
   34.7704   43.1574   -5.4583 H   0  0  0  0  0  0  0  0  0  0  0  0
   36.3330   42.2952   -2.6935 C   0  0  0  0  0  0  0  0  0  0  0  0
   36.9991   42.5772   -1.3683 C   0  0  0  0  0  0  0  0  0  0  0  0
   37.8553   43.6761   -1.2150 C   0  0  0  0  0  0  0  0  0  0  0  0
   38.4763   43.9228    0.0105 C   0  0  0  0  0  0  0  0  0  0  0  0
   38.2418   43.0796    1.0954 C   0  0  0  0  0  0  0  0  0  0  0  0
   37.3861   41.9890    0.9563 C   0  0  0  0  0  0  0  0  0  0  0  0
   36.7653   41.7396   -0.2683 C   0  0  0  0  0  0  0  0  0  0  0  0
 15 16  1  0
 16 17  1  0
 16 18  1  0
 16 14  1  0
 14 11  1  0
 11 12  1  0
 11 13  1  0
 11 10  1  0
 10  7  1  0
  7  8  1  0
  7  9  1  0
  7  6  1  0
  6  5  1  0
  5  1  1  0
  1  2  2  0
  1  3  1  0
  3 19  1  0
 19 20  1  0
 20 21  1  0
 19 23  1  0
 23 24  1  0
 24 25  2  0
 25 26  1  0
 26 27  2  0
 27 28  1  0
 28 29  2  0
 29 24  1  0
  3  4  1  0
 21 22  1  0
M  END
> <minimizedAffinity>
-6.01985

> <CNNscore>
0.7682545185

> <CNNaffinity>
6.5466971397

> <CNN_VS>
5.0295295715

> <CNNaffinity_variance>
0.1780575663

$$$$
