


 30 31  0  0  0  0  0  0  0  0999 V2000
   35.8758   24.4254   30.4111 C   0  0  0  0  0  0  0  0  0  0  0  0
   35.2198   23.8939   29.3632 C   0  0  0  0  0  0  0  0  0  0  0  0
   36.1200   23.0979   28.1035 Cl  0  0  0  0  0  0  0  0  0  0  0  0
   33.8324   23.9494   29.2248 N   0  0  0  0  0  0  0  0  0  0  0  0
   33.0489   24.5390   30.2111 C   0  0  0  0  0  0  0  0  0  0  0  0
   31.8201   24.5935   30.2005 O   0  0  0  0  0  0  0  0  0  0  0  0
   33.7175   25.0910   31.2637 N   0  0  0  0  0  0  0  0  0  0  0  0
   35.0641   25.0879   31.4590 C   0  0  0  0  0  0  0  0  0  0  0  0
   35.5570   25.6079   32.4557 O   0  0  0  0  0  0  0  0  0  0  0  0
   33.1712   25.5363   31.9511 H   0  0  0  0  0  0  0  0  0  0  0  0
   33.1084   23.3335   28.1002 C   0  0  0  0  0  0  0  0  0  0  0  0
   32.9752   21.9335   28.3928 O   0  0  0  0  0  0  0  0  0  0  0  0
   32.2685   21.2000   27.3792 C   0  0  0  0  0  0  0  0  0  0  0  0
   32.9676   21.3217   26.0180 C   0  0  0  0  0  0  0  0  0  0  0  0
   32.2444   20.6629   24.9732 O   0  0  0  0  0  0  0  0  0  0  0  0
   33.0679   22.8028   25.6452 C   0  0  0  0  0  0  0  0  0  0  0  0
   33.7768   22.9542   24.4043 O   0  0  0  0  0  0  0  0  0  0  0  0
   33.7924   23.5923   26.7345 C   0  0  0  0  0  0  0  0  0  0  0  0
   33.7579   24.9880   26.3961 O   0  0  0  0  0  0  0  0  0  0  0  0
   31.3696   21.0710   24.8785 H   0  0  0  0  0  0  0  0  0  0  0  0
   34.6774   22.6075   24.5021 H   0  0  0  0  0  0  0  0  0  0  0  0
   32.8359   25.2814   26.3277 H   0  0  0  0  0  0  0  0  0  0  0  0
   32.2023   19.7439   27.8513 C   0  0  0  0  0  0  0  0  0  0  0  0
   33.1358   18.9563   27.1135 O   0  0  0  0  0  0  0  0  0  0  0  0
   32.9180   18.9970   26.1692 H   0  0  0  0  0  0  0  0  0  0  0  0
   38.4888   24.3396   30.6889 C   0  0  0  0  0  0  0  0  0  0  0  0
   37.2949   24.3808   30.5613 C   0  0  0  0  0  0  0  0  0  0  0  0
   39.9487   24.2866   30.8482 C   0  0  0  0  0  0  0  0  0  0  0  0
   41.8557   23.5542   32.3658 C   0  0  0  0  0  0  0  0  0  0  0  0
   40.3609   23.8192   32.2439 C   0  0  0  0  0  0  0  0  0  0  0  0
 29 30  1  0
 30 28  1  0
 28 26  1  0
 26 27  3  0
 27  1  1  0
  1  2  2  0
  2  3  1  0
  2  4  1  0
 11  4  1  0
 11 12  1  0
 12 13  1  0
 13 23  1  0
 23 24  1  0
 13 14  1  0
 14 15  1  0
 14 16  1  0
 16 17  1  0
 16 18  1  0
 18 19  1  0
  4  5  1  0
  5  6  2  0
  5  7  1  0
  7  8  1  0
  8  9  2  0
  8  1  1  0
 18 11  1  0
 24 25  1  0
 15 20  1  0
 17 21  1  0
 19 22  1  0
  7 10  1  0
M  END
> <minimizedAffinity>
-9.87621

> <CNNscore>
0.7536969781

> <CNNaffinity>
4.9620308876

> <CNN_VS>
3.7398676872

> <CNNaffinity_variance>
0.5509365201

$$$$



 30 31  0  0  0  0  0  0  0  0999 V2000
   35.9987   24.4630   31.0628 C   0  0  0  0  0  0  0  0  0  0  0  0
   35.2001   24.1085   30.0393 C   0  0  0  0  0  0  0  0  0  0  0  0
   35.9114   23.6250   28.5257 Cl  0  0  0  0  0  0  0  0  0  0  0  0
   33.8073   24.1103   30.1233 N   0  0  0  0  0  0  0  0  0  0  0  0
   33.1736   24.4514   31.3134 C   0  0  0  0  0  0  0  0  0  0  0  0
   31.9574   24.4365   31.4973 O   0  0  0  0  0  0  0  0  0  0  0  0
   33.9847   24.8258   32.3438 N   0  0  0  0  0  0  0  0  0  0  0  0
   35.3449   24.8619   32.3315 C   0  0  0  0  0  0  0  0  0  0  0  0
   35.9747   25.2057   33.3274 O   0  0  0  0  0  0  0  0  0  0  0  0
   33.5419   25.0972   33.1801 H   0  0  0  0  0  0  0  0  0  0  0  0
   32.9317   23.6841   29.0188 C   0  0  0  0  0  0  0  0  0  0  0  0
   33.5942   22.6056   28.3397 O   0  0  0  0  0  0  0  0  0  0  0  0
   32.8423   22.0738   27.2367 C   0  0  0  0  0  0  0  0  0  0  0  0
   32.5437   23.1603   26.1943 C   0  0  0  0  0  0  0  0  0  0  0  0
   31.7309   22.6763   25.1202 O   0  0  0  0  0  0  0  0  0  0  0  0
   31.7788   24.2990   26.8733 C   0  0  0  0  0  0  0  0  0  0  0  0
   31.5407   25.3630   25.9372 O   0  0  0  0  0  0  0  0  0  0  0  0
   32.5612   24.8478   28.0656 C   0  0  0  0  0  0  0  0  0  0  0  0
   31.7550   25.8287   28.7374 O   0  0  0  0  0  0  0  0  0  0  0  0
   30.8765   22.3787   25.4700 H   0  0  0  0  0  0  0  0  0  0  0  0
   32.3891   25.7152   25.6254 H   0  0  0  0  0  0  0  0  0  0  0  0
   30.9302   25.4173   29.0396 H   0  0  0  0  0  0  0  0  0  0  0  0
   33.6756   20.9343   26.6412 C   0  0  0  0  0  0  0  0  0  0  0  0
   33.5497   20.9386   25.2198 O   0  0  0  0  0  0  0  0  0  0  0  0
   32.6186   20.8151   24.9773 H   0  0  0  0  0  0  0  0  0  0  0  0
   38.6242   24.4746   30.9252 C   0  0  0  0  0  0  0  0  0  0  0  0
   37.4244   24.4714   30.9878 C   0  0  0  0  0  0  0  0  0  0  0  0
   40.0918   24.4754   30.8515 C   0  0  0  0  0  0  0  0  0  0  0  0
   42.2193   23.4868   31.8377 C   0  0  0  0  0  0  0  0  0  0  0  0
   40.7298   23.7397   32.0296 C   0  0  0  0  0  0  0  0  0  0  0  0
 29 30  1  0
 30 28  1  0
 28 26  1  0
 26 27  3  0
 27  1  1  0
  1  2  2  0
  2  3  1  0
  2  4  1  0
 11  4  1  0
 11 12  1  0
 12 13  1  0
 13 23  1  0
 23 24  1  0
 13 14  1  0
 14 15  1  0
 14 16  1  0
 16 17  1  0
 16 18  1  0
 18 19  1  0
  4  5  1  0
  5  6  2  0
  5  7  1  0
  7  8  1  0
  8  9  2  0
  8  1  1  0
 18 11  1  0
 24 25  1  0
 15 20  1  0
 17 21  1  0
 19 22  1  0
  7 10  1  0
M  END
> <minimizedAffinity>
-9.29720

> <CNNscore>
0.6420469284

> <CNNaffinity>
5.1681160927

> <CNN_VS>
3.3181731701

> <CNNaffinity_variance>
0.2399297953

$$$$



 30 31  0  0  0  0  0  0  0  0999 V2000
   36.0106   24.7224   31.1711 C   0  0  0  0  0  0  0  0  0  0  0  0
   35.9242   24.1363   29.9628 C   0  0  0  0  0  0  0  0  0  0  0  0
   37.3801   23.6577   29.1371 Cl  0  0  0  0  0  0  0  0  0  0  0  0
   34.7104   23.8895   29.3205 N   0  0  0  0  0  0  0  0  0  0  0  0
   33.5074   24.2139   29.9384 C   0  0  0  0  0  0  0  0  0  0  0  0
   32.3904   23.9922   29.4733 O   0  0  0  0  0  0  0  0  0  0  0  0
   33.5985   24.8224   31.1554 N   0  0  0  0  0  0  0  0  0  0  0  0
   34.7426   25.1068   31.8348 C   0  0  0  0  0  0  0  0  0  0  0  0
   34.7031   25.6489   32.9354 O   0  0  0  0  0  0  0  0  0  0  0  0
   32.7517   25.0819   31.5854 H   0  0  0  0  0  0  0  0  0  0  0  0
   34.6104   23.2117   28.0170 C   0  0  0  0  0  0  0  0  0  0  0  0
   34.8564   24.1979   27.0021 O   0  0  0  0  0  0  0  0  0  0  0  0
   34.8054   23.6717   25.6660 C   0  0  0  0  0  0  0  0  0  0  0  0
   33.4383   23.0387   25.3715 C   0  0  0  0  0  0  0  0  0  0  0  0
   33.3839   22.4391   24.0730 O   0  0  0  0  0  0  0  0  0  0  0  0
   33.1731   21.9360   26.3992 C   0  0  0  0  0  0  0  0  0  0  0  0
   31.8702   21.3668   26.1899 O   0  0  0  0  0  0  0  0  0  0  0  0
   33.2561   22.4848   27.8229 C   0  0  0  0  0  0  0  0  0  0  0  0
   33.1176   21.3951   28.7486 O   0  0  0  0  0  0  0  0  0  0  0  0
   34.0416   21.7283   24.0173 H   0  0  0  0  0  0  0  0  0  0  0  0
   31.1950   22.0536   26.3054 H   0  0  0  0  0  0  0  0  0  0  0  0
   33.8262   20.7502   28.5971 H   0  0  0  0  0  0  0  0  0  0  0  0
   35.1027   24.8387   24.7188 C   0  0  0  0  0  0  0  0  0  0  0  0
   36.4082   24.6863   24.1632 O   0  0  0  0  0  0  0  0  0  0  0  0
   37.0646   24.6781   24.8773 H   0  0  0  0  0  0  0  0  0  0  0  0
   38.2839   25.2095   32.3986 C   0  0  0  0  0  0  0  0  0  0  0  0
   37.2461   24.9861   31.8361 C   0  0  0  0  0  0  0  0  0  0  0  0
   39.5516   25.4863   33.0884 C   0  0  0  0  0  0  0  0  0  0  0  0
   40.4245   26.9254   34.9971 C   0  0  0  0  0  0  0  0  0  0  0  0
   39.5640   26.8680   33.7419 C   0  0  0  0  0  0  0  0  0  0  0  0
 29 30  1  0
 30 28  1  0
 28 26  1  0
 26 27  3  0
 27  1  1  0
  1  2  2  0
  2  3  1  0
  2  4  1  0
 11  4  1  0
 11 12  1  0
 12 13  1  0
 13 23  1  0
 23 24  1  0
 13 14  1  0
 14 15  1  0
 14 16  1  0
 16 17  1  0
 16 18  1  0
 18 19  1  0
  4  5  1  0
  5  6  2  0
  5  7  1  0
  7  8  1  0
  8  9  2  0
  8  1  1  0
 18 11  1  0
 24 25  1  0
 15 20  1  0
 17 21  1  0
 19 22  1  0
  7 10  1  0
M  END
> <minimizedAffinity>
-9.50924

> <CNNscore>
0.5094320774

> <CNNaffinity>
4.7951493263

> <CNN_VS>
2.4428029060

> <CNNaffinity_variance>
0.7320615649

$$$$



 30 31  0  0  0  0  0  0  0  0999 V2000
   35.8273   25.1606   32.6346 C   0  0  0  0  0  0  0  0  0  0  0  0
   35.3303   24.8239   31.4301 C   0  0  0  0  0  0  0  0  0  0  0  0
   36.3899   24.7750   30.0497 Cl  0  0  0  0  0  0  0  0  0  0  0  0
   33.9870   24.5096   31.2207 N   0  0  0  0  0  0  0  0  0  0  0  0
   33.0925   24.4945   32.2855 C   0  0  0  0  0  0  0  0  0  0  0  0
   31.9045   24.1851   32.2077 O   0  0  0  0  0  0  0  0  0  0  0  0
   33.5954   24.8518   33.5017 N   0  0  0  0  0  0  0  0  0  0  0  0
   34.8858   25.1830   33.7788 C   0  0  0  0  0  0  0  0  0  0  0  0
   35.2291   25.4776   34.9198 O   0  0  0  0  0  0  0  0  0  0  0  0
   32.9614   24.8721   34.2546 H   0  0  0  0  0  0  0  0  0  0  0  0
   33.4484   24.1014   29.9124 C   0  0  0  0  0  0  0  0  0  0  0  0
   34.5610   23.9718   29.0133 O   0  0  0  0  0  0  0  0  0  0  0  0
   34.1841   23.5601   27.6892 C   0  0  0  0  0  0  0  0  0  0  0  0
   33.1967   24.5528   27.0601 C   0  0  0  0  0  0  0  0  0  0  0  0
   32.7454   24.1288   25.7698 O   0  0  0  0  0  0  0  0  0  0  0  0
   31.9666   24.6654   27.9639 C   0  0  0  0  0  0  0  0  0  0  0  0
   31.0505   25.6379   27.4346 O   0  0  0  0  0  0  0  0  0  0  0  0
   32.3657   25.0739   29.3812 C   0  0  0  0  0  0  0  0  0  0  0  0
   31.1972   25.0517   30.2164 O   0  0  0  0  0  0  0  0  0  0  0  0
   32.2798   23.2818   25.8523 H   0  0  0  0  0  0  0  0  0  0  0  0
   31.4820   26.5062   27.4052 H   0  0  0  0  0  0  0  0  0  0  0  0
   30.8192   24.1584   30.2200 H   0  0  0  0  0  0  0  0  0  0  0  0
   35.4767   23.4560   26.8731 C   0  0  0  0  0  0  0  0  0  0  0  0
   35.4876   24.4605   25.8597 O   0  0  0  0  0  0  0  0  0  0  0  0
   34.7265   24.3348   25.2717 H   0  0  0  0  0  0  0  0  0  0  0  0
   38.3522   25.7650   33.0489 C   0  0  0  0  0  0  0  0  0  0  0  0
   37.1978   25.4903   32.8609 C   0  0  0  0  0  0  0  0  0  0  0  0
   39.7652   26.0969   33.2783 C   0  0  0  0  0  0  0  0  0  0  0  0
   38.8861   26.8451   35.5462 C   0  0  0  0  0  0  0  0  0  0  0  0
   39.9527   27.0294   34.4748 C   0  0  0  0  0  0  0  0  0  0  0  0
 29 30  1  0
 30 28  1  0
 28 26  1  0
 26 27  3  0
 27  1  1  0
  1  2  2  0
  2  3  1  0
  2  4  1  0
 11  4  1  0
 11 12  1  0
 12 13  1  0
 13 23  1  0
 23 24  1  0
 13 14  1  0
 14 15  1  0
 14 16  1  0
 16 17  1  0
 16 18  1  0
 18 19  1  0
  4  5  1  0
  5  6  2  0
  5  7  1  0
  7  8  1  0
  8  9  2  0
  8  1  1  0
 18 11  1  0
 24 25  1  0
 15 20  1  0
 17 21  1  0
 19 22  1  0
  7 10  1  0
M  END
> <minimizedAffinity>
-7.01007

> <CNNscore>
0.4223435223

> <CNNaffinity>
4.9484653473

> <CNN_VS>
2.0899522305

> <CNNaffinity_variance>
0.3812059462

$$$$



 30 31  0  0  0  0  0  0  0  0999 V2000
   31.8978   18.9586   27.4807 C   0  0  0  0  0  0  0  0  0  0  0  0
   32.3035   20.2348   27.3476 C   0  0  0  0  0  0  0  0  0  0  0  0
   34.0039   20.6034   27.4063 Cl  0  0  0  0  0  0  0  0  0  0  0  0
   31.4209   21.3001   27.1656 N   0  0  0  0  0  0  0  0  0  0  0  0
   30.0518   21.0731   27.0738 C   0  0  0  0  0  0  0  0  0  0  0  0
   29.2030   21.9391   26.8674 O   0  0  0  0  0  0  0  0  0  0  0  0
   29.6424   19.7812   27.2253 N   0  0  0  0  0  0  0  0  0  0  0  0
   30.4406   18.6963   27.4189 C   0  0  0  0  0  0  0  0  0  0  0  0
   29.9595   17.5725   27.5305 O   0  0  0  0  0  0  0  0  0  0  0  0
   28.6723   19.6170   27.1912 H   0  0  0  0  0  0  0  0  0  0  0  0
   31.8637   22.6920   26.9789 C   0  0  0  0  0  0  0  0  0  0  0  0
   32.1529   23.2270   28.2801 O   0  0  0  0  0  0  0  0  0  0  0  0
   32.6149   24.5874   28.2517 C   0  0  0  0  0  0  0  0  0  0  0  0
   31.5800   25.5106   27.5936 C   0  0  0  0  0  0  0  0  0  0  0  0
   32.0453   26.8596   27.4834 O   0  0  0  0  0  0  0  0  0  0  0  0
   31.2968   25.0043   26.1773 C   0  0  0  0  0  0  0  0  0  0  0  0
   30.2819   25.8106   25.5568 O   0  0  0  0  0  0  0  0  0  0  0  0
   30.8338   23.5482   26.2001 C   0  0  0  0  0  0  0  0  0  0  0  0
   30.6946   23.0847   24.8476 O   0  0  0  0  0  0  0  0  0  0  0  0
   32.8390   26.8834   26.9264 H   0  0  0  0  0  0  0  0  0  0  0  0
   29.4603   25.7466   26.0685 H   0  0  0  0  0  0  0  0  0  0  0  0
   31.5476   23.1571   24.3916 H   0  0  0  0  0  0  0  0  0  0  0  0
   32.8896   24.9922   29.7037 C   0  0  0  0  0  0  0  0  0  0  0  0
   31.8821   24.4460   30.5539 O   0  0  0  0  0  0  0  0  0  0  0  0
   31.0138   24.7853   30.2856 H   0  0  0  0  0  0  0  0  0  0  0  0
   33.5432   16.9394   27.8377 C   0  0  0  0  0  0  0  0  0  0  0  0
   32.7900   17.8608   27.6736 C   0  0  0  0  0  0  0  0  0  0  0  0
   34.4679   15.8149   28.0377 C   0  0  0  0  0  0  0  0  0  0  0  0
   34.5247   14.0653   29.8848 C   0  0  0  0  0  0  0  0  0  0  0  0
   33.7794   14.6066   28.6720 C   0  0  0  0  0  0  0  0  0  0  0  0
 29 30  1  0
 30 28  1  0
 28 26  1  0
 26 27  3  0
 27  1  1  0
  1  2  2  0
  2  3  1  0
  2  4  1  0
 11  4  1  0
 11 12  1  0
 12 13  1  0
 13 23  1  0
 23 24  1  0
 13 14  1  0
 14 15  1  0
 14 16  1  0
 16 17  1  0
 16 18  1  0
 18 19  1  0
  4  5  1  0
  5  6  2  0
  5  7  1  0
  7  8  1  0
  8  9  2  0
  8  1  1  0
 18 11  1  0
 24 25  1  0
 15 20  1  0
 17 21  1  0
 19 22  1  0
  7 10  1  0
M  END
> <minimizedAffinity>
8.76635

> <CNNscore>
0.3981043994

> <CNNaffinity>
5.1476778984

> <CNN_VS>
2.0493133068

> <CNNaffinity_variance>
0.0297755208

$$$$



 30 31  0  0  0  0  0  0  0  0999 V2000
   43.2509   22.7587   30.8974 C   0  0  0  0  0  0  0  0  0  0  0  0
   41.9453   23.0818   30.8520 C   0  0  0  0  0  0  0  0  0  0  0  0
   41.0647   22.8815   29.3636 Cl  0  0  0  0  0  0  0  0  0  0  0  0
   41.2451   23.5815   31.9507 N   0  0  0  0  0  0  0  0  0  0  0  0
   41.8778   23.7331   33.1799 C   0  0  0  0  0  0  0  0  0  0  0  0
   41.3337   24.1194   34.2132 O   0  0  0  0  0  0  0  0  0  0  0  0
   43.2047   23.4204   33.2187 N   0  0  0  0  0  0  0  0  0  0  0  0
   43.9545   22.9428   32.1885 C   0  0  0  0  0  0  0  0  0  0  0  0
   45.1441   22.6830   32.3432 O   0  0  0  0  0  0  0  0  0  0  0  0
   43.6662   23.5535   34.0781 H   0  0  0  0  0  0  0  0  0  0  0  0
   39.8073   23.8973   31.9156 C   0  0  0  0  0  0  0  0  0  0  0  0
   39.3377   23.6062   30.5897 O   0  0  0  0  0  0  0  0  0  0  0  0
   37.9339   23.8550   30.4104 C   0  0  0  0  0  0  0  0  0  0  0  0
   37.5880   25.3202   30.7103 C   0  0  0  0  0  0  0  0  0  0  0  0
   36.1838   25.5795   30.6129 O   0  0  0  0  0  0  0  0  0  0  0  0
   38.0179   25.6458   32.1427 C   0  0  0  0  0  0  0  0  0  0  0  0
   37.7664   27.0307   32.4326 O   0  0  0  0  0  0  0  0  0  0  0  0
   39.5040   25.3542   32.3465 C   0  0  0  0  0  0  0  0  0  0  0  0
   39.8318   25.5623   33.7295 O   0  0  0  0  0  0  0  0  0  0  0  0
   35.7093   25.0388   31.2636 H   0  0  0  0  0  0  0  0  0  0  0  0
   38.2848   27.5865   31.8298 H   0  0  0  0  0  0  0  0  0  0  0  0
   39.2964   24.9709   34.2813 H   0  0  0  0  0  0  0  0  0  0  0  0
   37.5993   23.4812   28.9627 C   0  0  0  0  0  0  0  0  0  0  0  0
   36.2625   23.8785   28.6603 O   0  0  0  0  0  0  0  0  0  0  0  0
   35.6475   23.4258   29.2583 H   0  0  0  0  0  0  0  0  0  0  0  0
   44.5967   21.8261   28.8403 C   0  0  0  0  0  0  0  0  0  0  0  0
   43.9800   22.2527   29.7791 C   0  0  0  0  0  0  0  0  0  0  0  0
   45.3545   21.3061   27.6938 C   0  0  0  0  0  0  0  0  0  0  0  0
   44.5696   20.8578   25.3149 C   0  0  0  0  0  0  0  0  0  0  0  0
   44.8860   21.9095   26.3700 C   0  0  0  0  0  0  0  0  0  0  0  0
 29 30  1  0
 30 28  1  0
 28 26  1  0
 26 27  3  0
 27  1  1  0
  1  2  2  0
  2  3  1  0
  2  4  1  0
 11  4  1  0
 11 12  1  0
 12 13  1  0
 13 23  1  0
 23 24  1  0
 13 14  1  0
 14 15  1  0
 14 16  1  0
 16 17  1  0
 16 18  1  0
 18 19  1  0
  4  5  1  0
  5  6  2  0
  5  7  1  0
  7  8  1  0
  8  9  2  0
  8  1  1  0
 18 11  1  0
 24 25  1  0
 15 20  1  0
 17 21  1  0
 19 22  1  0
  7 10  1  0
M  END
> <minimizedAffinity>
2.15867

> <CNNscore>
0.3599077165

> <CNNaffinity>
5.1747622490

> <CNN_VS>
1.8624368906

> <CNNaffinity_variance>
0.0544753037

$$$$



 30 31  0  0  0  0  0  0  0  0999 V2000
   36.1318   24.3955   31.3272 C   0  0  0  0  0  0  0  0  0  0  0  0
   35.5897   24.1928   30.1123 C   0  0  0  0  0  0  0  0  0  0  0  0
   36.6286   23.8579   28.7561 Cl  0  0  0  0  0  0  0  0  0  0  0  0
   34.2159   24.2405   29.8730 N   0  0  0  0  0  0  0  0  0  0  0  0
   33.3262   24.4680   30.9175 C   0  0  0  0  0  0  0  0  0  0  0  0
   32.1006   24.4807   30.8133 O   0  0  0  0  0  0  0  0  0  0  0  0
   33.8791   24.6892   32.1443 N   0  0  0  0  0  0  0  0  0  0  0  0
   35.2049   24.6722   32.4499 C   0  0  0  0  0  0  0  0  0  0  0  0
   35.5891   24.8742   33.5981 O   0  0  0  0  0  0  0  0  0  0  0  0
   33.2567   24.8804   32.8827 H   0  0  0  0  0  0  0  0  0  0  0  0
   33.6171   23.9789   28.5534 C   0  0  0  0  0  0  0  0  0  0  0  0
   32.4508   24.8097   28.4407 O   0  0  0  0  0  0  0  0  0  0  0  0
   31.7656   24.6699   27.1854 C   0  0  0  0  0  0  0  0  0  0  0  0
   31.3214   23.2187   26.9551 C   0  0  0  0  0  0  0  0  0  0  0  0
   30.7024   23.0346   25.6778 O   0  0  0  0  0  0  0  0  0  0  0  0
   32.5532   22.3116   27.0046 C   0  0  0  0  0  0  0  0  0  0  0  0
   32.1620   20.9367   26.8569 O   0  0  0  0  0  0  0  0  0  0  0  0
   33.3021   22.4792   28.3259 C   0  0  0  0  0  0  0  0  0  0  0  0
   34.5079   21.7000   28.2774 O   0  0  0  0  0  0  0  0  0  0  0  0
   31.3373   23.2498   24.9767 H   0  0  0  0  0  0  0  0  0  0  0  0
   31.5756   20.6871   27.5882 H   0  0  0  0  0  0  0  0  0  0  0  0
   35.0597   22.0036   27.5397 H   0  0  0  0  0  0  0  0  0  0  0  0
   30.5695   25.6267   27.2248 C   0  0  0  0  0  0  0  0  0  0  0  0
   30.3941   26.1225   28.5513 O   0  0  0  0  0  0  0  0  0  0  0  0
   30.2310   25.3808   29.1548 H   0  0  0  0  0  0  0  0  0  0  0  0
   38.7163   24.3217   31.8038 C   0  0  0  0  0  0  0  0  0  0  0  0
   37.5356   24.3555   31.5840 C   0  0  0  0  0  0  0  0  0  0  0  0
   40.1597   24.2824   32.0764 C   0  0  0  0  0  0  0  0  0  0  0  0
   42.3945   23.3856   31.2530 C   0  0  0  0  0  0  0  0  0  0  0  0
   40.9564   23.7341   30.8927 C   0  0  0  0  0  0  0  0  0  0  0  0
 29 30  1  0
 30 28  1  0
 28 26  1  0
 26 27  3  0
 27  1  1  0
  1  2  2  0
  2  3  1  0
  2  4  1  0
 11  4  1  0
 11 12  1  0
 12 13  1  0
 13 23  1  0
 23 24  1  0
 13 14  1  0
 14 15  1  0
 14 16  1  0
 16 17  1  0
 16 18  1  0
 18 19  1  0
  4  5  1  0
  5  6  2  0
  5  7  1  0
  7  8  1  0
  8  9  2  0
  8  1  1  0
 18 11  1  0
 24 25  1  0
 15 20  1  0
 17 21  1  0
 19 22  1  0
  7 10  1  0
M  END
> <minimizedAffinity>
-8.76031

> <CNNscore>
0.3585463166

> <CNNaffinity>
4.8744163513

> <CNN_VS>
1.7477040291

> <CNNaffinity_variance>
0.3579910994

$$$$



 30 31  0  0  0  0  0  0  0  0999 V2000
   36.7055   26.5944   35.7712 C   0  0  0  0  0  0  0  0  0  0  0  0
   36.5887   25.7061   34.7671 C   0  0  0  0  0  0  0  0  0  0  0  0
   35.4489   24.3979   34.9093 Cl  0  0  0  0  0  0  0  0  0  0  0  0
   37.3469   25.7736   33.5976 N   0  0  0  0  0  0  0  0  0  0  0  0
   38.2506   26.8126   33.4028 C   0  0  0  0  0  0  0  0  0  0  0  0
   38.9264   26.9822   32.3890 O   0  0  0  0  0  0  0  0  0  0  0  0
   38.3787   27.7019   34.4286 N   0  0  0  0  0  0  0  0  0  0  0  0
   37.6861   27.6922   35.5999 C   0  0  0  0  0  0  0  0  0  0  0  0
   37.8768   28.5556   36.4513 O   0  0  0  0  0  0  0  0  0  0  0  0
   39.0382   28.4231   34.3100 H   0  0  0  0  0  0  0  0  0  0  0  0
   37.1925   24.8272   32.4801 C   0  0  0  0  0  0  0  0  0  0  0  0
   38.4799   24.6850   31.8592 O   0  0  0  0  0  0  0  0  0  0  0  0
   38.4848   23.7706   30.7507 C   0  0  0  0  0  0  0  0  0  0  0  0
   37.4952   24.2123   29.6636 C   0  0  0  0  0  0  0  0  0  0  0  0
   37.4235   23.2795   28.5804 O   0  0  0  0  0  0  0  0  0  0  0  0
   36.0973   24.3112   30.2790 C   0  0  0  0  0  0  0  0  0  0  0  0
   35.1579   24.7861   29.3007 O   0  0  0  0  0  0  0  0  0  0  0  0
   36.0939   25.2597   31.4771 C   0  0  0  0  0  0  0  0  0  0  0  0
   34.7948   25.2286   32.0893 O   0  0  0  0  0  0  0  0  0  0  0  0
   37.1139   22.4221   28.9120 H   0  0  0  0  0  0  0  0  0  0  0  0
   35.4192   25.6723   29.0050 H   0  0  0  0  0  0  0  0  0  0  0  0
   34.5950   24.3245   32.3782 H   0  0  0  0  0  0  0  0  0  0  0  0
   39.9216   23.7246   30.2209 C   0  0  0  0  0  0  0  0  0  0  0  0
   40.0561   22.6528   29.2885 O   0  0  0  0  0  0  0  0  0  0  0  0
   39.8501   21.8134   29.7288 H   0  0  0  0  0  0  0  0  0  0  0  0
   35.2984   26.4843   37.9893 C   0  0  0  0  0  0  0  0  0  0  0  0
   35.9404   26.5329   36.9750 C   0  0  0  0  0  0  0  0  0  0  0  0
   34.5164   26.4265   39.2321 C   0  0  0  0  0  0  0  0  0  0  0  0
   35.0323   24.5993   40.9267 C   0  0  0  0  0  0  0  0  0  0  0  0
   34.2492   24.9897   39.6802 C   0  0  0  0  0  0  0  0  0  0  0  0
 29 30  1  0
 30 28  1  0
 28 26  1  0
 26 27  3  0
 27  1  1  0
  1  2  2  0
  2  3  1  0
  2  4  1  0
 11  4  1  0
 11 12  1  0
 12 13  1  0
 13 23  1  0
 23 24  1  0
 13 14  1  0
 14 15  1  0
 14 16  1  0
 16 17  1  0
 16 18  1  0
 18 19  1  0
  4  5  1  0
  5  6  2  0
  5  7  1  0
  7  8  1  0
  8  9  2  0
  8  1  1  0
 18 11  1  0
 24 25  1  0
 15 20  1  0
 17 21  1  0
 19 22  1  0
  7 10  1  0
M  END
> <minimizedAffinity>
-1.11192

> <CNNscore>
0.3271206915

> <CNNaffinity>
4.7804150581

> <CNN_VS>
1.5637726784

> <CNNaffinity_variance>
0.0522517748

$$$$



 30 31  0  0  0  0  0  0  0  0999 V2000
   36.0740   24.2582   30.3644 C   0  0  0  0  0  0  0  0  0  0  0  0
   37.4095   24.1284   30.4674 C   0  0  0  0  0  0  0  0  0  0  0  0
   38.2515   23.0553   29.3857 Cl  0  0  0  0  0  0  0  0  0  0  0  0
   38.1714   24.8156   31.4130 N   0  0  0  0  0  0  0  0  0  0  0  0
   37.5680   25.7155   32.2849 C   0  0  0  0  0  0  0  0  0  0  0  0
   38.1607   26.4003   33.1174 O   0  0  0  0  0  0  0  0  0  0  0  0
   36.2127   25.8328   32.1892 N   0  0  0  0  0  0  0  0  0  0  0  0
   35.4046   25.1873   31.3050 C   0  0  0  0  0  0  0  0  0  0  0  0
   34.1925   25.3811   31.3024 O   0  0  0  0  0  0  0  0  0  0  0  0
   35.7752   26.4459   32.8232 H   0  0  0  0  0  0  0  0  0  0  0  0
   39.6372   24.7069   31.5016 C   0  0  0  0  0  0  0  0  0  0  0  0
   40.0669   23.8408   30.4393 O   0  0  0  0  0  0  0  0  0  0  0  0
   41.4907   23.6524   30.3926 C   0  0  0  0  0  0  0  0  0  0  0  0
   42.0151   23.0621   31.7089 C   0  0  0  0  0  0  0  0  0  0  0  0
   43.4406   22.9338   31.7188 O   0  0  0  0  0  0  0  0  0  0  0  0
   41.6291   23.9969   32.8577 C   0  0  0  0  0  0  0  0  0  0  0  0
   42.0500   23.4386   34.1132 O   0  0  0  0  0  0  0  0  0  0  0  0
   40.1185   24.2242   32.8928 C   0  0  0  0  0  0  0  0  0  0  0  0
   39.8192   25.1952   33.9082 O   0  0  0  0  0  0  0  0  0  0  0  0
   43.8448   23.8103   31.6220 H   0  0  0  0  0  0  0  0  0  0  0  0
   41.6042   22.5889   34.2549 H   0  0  0  0  0  0  0  0  0  0  0  0
   40.2776   26.0259   33.7063 H   0  0  0  0  0  0  0  0  0  0  0  0
   41.7761   22.7267   29.2056 C   0  0  0  0  0  0  0  0  0  0  0  0
   42.5697   21.6221   29.6373 O   0  0  0  0  0  0  0  0  0  0  0  0
   43.4089   21.9484   29.9981 H   0  0  0  0  0  0  0  0  0  0  0  0
   34.6193   22.9632   28.5984 C   0  0  0  0  0  0  0  0  0  0  0  0
   35.2824   23.5562   29.4058 C   0  0  0  0  0  0  0  0  0  0  0  0
   33.8116   22.2372   27.6084 C   0  0  0  0  0  0  0  0  0  0  0  0
   32.6551   20.0174   27.1490 C   0  0  0  0  0  0  0  0  0  0  0  0
   33.1390   21.0015   28.2058 C   0  0  0  0  0  0  0  0  0  0  0  0
 29 30  1  0
 30 28  1  0
 28 26  1  0
 26 27  3  0
 27  1  1  0
  1  2  2  0
  2  3  1  0
  2  4  1  0
 11  4  1  0
 11 12  1  0
 12 13  1  0
 13 23  1  0
 23 24  1  0
 13 14  1  0
 14 15  1  0
 14 16  1  0
 16 17  1  0
 16 18  1  0
 18 19  1  0
  4  5  1  0
  5  6  2  0
  5  7  1  0
  7  8  1  0
  8  9  2  0
  8  1  1  0
 18 11  1  0
 24 25  1  0
 15 20  1  0
 17 21  1  0
 19 22  1  0
  7 10  1  0
M  END
> <minimizedAffinity>
-7.06237

> <CNNscore>
0.3121968806

> <CNNaffinity>
4.9607462883

> <CNN_VS>
1.5487295389

> <CNNaffinity_variance>
0.5009787083

$$$$
