


 40 45  0  0  0  0  0  0  0  0999 V2000
   39.4275   32.8007   30.8450 C   0  0  0  0  0  0  0  0  0  0  0  0
   39.6409   31.9820   32.0923 C   0  0  0  0  0  0  0  0  0  0  0  0
   38.5275   31.3850   32.7096 C   0  0  0  0  0  0  0  0  0  0  0  0
   38.6741   30.6217   33.8688 C   0  0  0  0  0  0  0  0  0  0  0  0
   39.9438   30.4362   34.4200 C   0  0  0  0  0  0  0  0  0  0  0  0
   41.0577   31.0332   33.8191 C   0  0  0  0  0  0  0  0  0  0  0  0
   40.9283   31.8006   32.6472 C   0  0  0  0  0  0  0  0  0  0  0  0
   42.1365   32.3890   32.0481 C   0  0  0  0  0  0  0  0  0  0  0  0
   42.8494   31.6940   31.0531 C   0  0  0  0  0  0  0  0  0  0  0  0
   44.0146   32.2192   30.4699 C   0  0  0  0  0  0  0  0  0  0  0  0
   44.4745   33.4722   30.9073 C   0  0  0  0  0  0  0  0  0  0  0  0
   45.5591   34.3505   30.6300 C   0  0  0  0  0  0  0  0  0  0  0  0
   45.4872   35.4624   31.3776 N   0  0  0  0  0  0  0  0  0  0  0  0
   44.3565   35.3204   32.1627 O   0  0  0  0  0  0  0  0  0  0  0  0
   43.7547   34.1348   31.8848 C   0  0  0  0  0  0  0  0  0  0  0  0
   42.5954   33.6453   32.4820 C   0  0  0  0  0  0  0  0  0  0  0  0
   46.6998   34.1866   29.6694 C   0  0  0  0  0  0  0  0  0  0  0  0
   47.0631   32.7086   29.4298 C   0  0  0  0  0  0  0  0  0  0  0  0
   48.5720   32.4816   29.3434 C   0  0  0  0  0  0  0  0  0  0  0  0
   49.2268   33.4940   28.5221 N   0  0  0  0  0  0  0  0  0  0  0  0
   49.0430   34.8542   29.0369 C   0  0  0  0  0  0  0  0  0  0  0  0
   47.9308   35.0037   30.0769 C   0  0  0  0  0  0  0  0  0  0  0  0
   48.8401   33.4480   27.5794 H   0  0  0  0  0  0  0  0  0  0  0  0
   40.1487   29.6328   35.6566 C   0  0  0  0  0  0  0  0  0  0  0  0
   41.0185   29.9914   36.4403 O   0  0  0  0  0  0  0  0  0  0  0  0
   39.3345   28.5193   35.7620 N   0  0  0  0  0  0  0  0  0  0  0  0
   38.7205   28.3563   35.0099 H   0  0  0  0  0  0  0  0  0  0  0  0
   39.2822   27.5891   36.8241 C   0  0  0  0  0  0  0  0  0  0  0  0
   39.0829   26.2523   36.4865 C   0  0  0  0  0  0  0  0  0  0  0  0
   39.0228   25.2980   37.4901 C   0  0  0  0  0  0  0  0  0  0  0  0
   38.8300   24.0135   37.1601 F   0  0  0  0  0  0  0  0  0  0  0  0
   39.1531   25.6469   38.8312 C   0  0  0  0  0  0  0  0  0  0  0  0
   39.3486   26.9788   39.2172 C   0  0  0  0  0  0  0  0  0  0  0  0
   39.4095   27.9329   38.1789 C   0  0  0  0  0  0  0  0  0  0  0  0
   39.4659   27.3376   40.5493 N   0  0  0  0  0  0  0  0  0  0  0  0
   39.3752   26.3485   41.6380 C   0  0  0  0  0  0  0  0  0  0  0  0
   40.1172   26.8671   42.8818 C   0  0  0  0  0  0  0  0  0  0  0  0
   39.6205   28.1144   43.3878 O   0  0  0  0  0  0  0  0  0  0  0  0
   39.0021   28.9270   42.3819 C   0  0  0  0  0  0  0  0  0  0  0  0
   39.5959   28.7412   40.9753 C   0  0  0  0  0  0  0  0  0  0  0  0
  1  2  1  0
  2  3  2  0
  3  4  1  0
  4  5  2  0
  5 24  1  0
 24 25  2  0
 24 26  1  0
 26 28  1  0
 28 29  2  0
 29 30  1  0
 30 31  1  0
 30 32  2  0
 32 33  1  0
 33 35  1  0
 35 36  1  0
 36 37  1  0
 37 38  1  0
 38 39  1  0
 39 40  1  0
 33 34  2  0
  5  6  1  0
  6  7  2  0
  7  8  1  0
  8  9  2  0
  9 10  1  0
 10 11  2  0
 11 12  1  0
 12 17  1  0
 17 18  1  0
 18 19  1  0
 19 20  1  0
 20 21  1  0
 21 22  1  0
 12 13  2  0
 13 14  1  0
 14 15  1  0
 15 16  2  0
  7  2  1  0
 16  8  1  0
 34 28  1  0
 15 11  1  0
 40 35  1  0
 22 17  1  0
 26 27  1  0
 20 23  1  0
M  END
> <minimizedAffinity>
-14.11890

> <CNNscore>
0.9847824574

> <CNNaffinity>
8.4416837692

> <CNN_VS>
8.3132219315

> <CNNaffinity_variance>
0.3683059514

$$$$



 40 45  0  0  0  0  0  0  0  0999 V2000
   39.4942   32.9066   30.7776 C   0  0  0  0  0  0  0  0  0  0  0  0
   39.6849   32.0516   32.0040 C   0  0  0  0  0  0  0  0  0  0  0  0
   38.5571   31.4580   32.5980 C   0  0  0  0  0  0  0  0  0  0  0  0
   38.6825   30.6617   33.7374 C   0  0  0  0  0  0  0  0  0  0  0  0
   39.9450   30.4395   34.2916 C   0  0  0  0  0  0  0  0  0  0  0  0
   41.0732   31.0326   33.7139 C   0  0  0  0  0  0  0  0  0  0  0  0
   40.9651   31.8330   32.5620 C   0  0  0  0  0  0  0  0  0  0  0  0
   42.1874   32.4158   31.9865 C   0  0  0  0  0  0  0  0  0  0  0  0
   42.9086   31.7235   30.9956 C   0  0  0  0  0  0  0  0  0  0  0  0
   44.0872   32.2434   30.4347 C   0  0  0  0  0  0  0  0  0  0  0  0
   44.5519   33.4880   30.8907 C   0  0  0  0  0  0  0  0  0  0  0  0
   45.6484   34.3588   30.6379 C   0  0  0  0  0  0  0  0  0  0  0  0
   45.5755   35.4643   31.3949 N   0  0  0  0  0  0  0  0  0  0  0  0
   44.4319   35.3253   32.1618 O   0  0  0  0  0  0  0  0  0  0  0  0
   43.8236   34.1480   31.8638 C   0  0  0  0  0  0  0  0  0  0  0  0
   42.6512   33.6636   32.4390 C   0  0  0  0  0  0  0  0  0  0  0  0
   46.8017   34.1934   29.6929 C   0  0  0  0  0  0  0  0  0  0  0  0
   47.1371   32.7140   29.4226 C   0  0  0  0  0  0  0  0  0  0  0  0
   48.6421   32.4561   29.3560 C   0  0  0  0  0  0  0  0  0  0  0  0
   49.3327   33.4736   28.5712 N   0  0  0  0  0  0  0  0  0  0  0  0
   49.1694   34.8245   29.1165 C   0  0  0  0  0  0  0  0  0  0  0  0
   48.0429   34.9730   30.1411 C   0  0  0  0  0  0  0  0  0  0  0  0
   48.9615   33.4592   27.6212 H   0  0  0  0  0  0  0  0  0  0  0  0
   40.1275   29.6001   35.5076 C   0  0  0  0  0  0  0  0  0  0  0  0
   41.0211   29.9018   36.2883 O   0  0  0  0  0  0  0  0  0  0  0  0
   39.2655   28.5218   35.5983 N   0  0  0  0  0  0  0  0  0  0  0  0
   38.6365   28.4032   34.8503 H   0  0  0  0  0  0  0  0  0  0  0  0
   39.1835   27.5712   36.6402 C   0  0  0  0  0  0  0  0  0  0  0  0
   39.3256   28.0446   37.9427 C   0  0  0  0  0  0  0  0  0  0  0  0
   39.2541   27.1541   39.0027 C   0  0  0  0  0  0  0  0  0  0  0  0
   39.3923   27.6145   40.2537 F   0  0  0  0  0  0  0  0  0  0  0  0
   39.0475   25.7936   38.7941 C   0  0  0  0  0  0  0  0  0  0  0  0
   38.9053   25.2725   37.5020 C   0  0  0  0  0  0  0  0  0  0  0  0
   38.9786   26.1974   36.4384 C   0  0  0  0  0  0  0  0  0  0  0  0
   38.7129   23.9189   37.2835 N   0  0  0  0  0  0  0  0  0  0  0  0
   39.8330   23.0039   37.0008 C   0  0  0  0  0  0  0  0  0  0  0  0
   39.4515   21.5680   37.3995 C   0  0  0  0  0  0  0  0  0  0  0  0
   38.2936   21.0561   36.7246 O   0  0  0  0  0  0  0  0  0  0  0  0
   37.3810   22.0808   36.3103 C   0  0  0  0  0  0  0  0  0  0  0  0
   37.3704   23.3165   37.2260 C   0  0  0  0  0  0  0  0  0  0  0  0
  1  2  1  0
  2  3  2  0
  3  4  1  0
  4  5  2  0
  5 24  1  0
 24 25  2  0
 24 26  1  0
 26 28  1  0
 28 29  2  0
 29 30  1  0
 30 31  1  0
 30 32  2  0
 32 33  1  0
 33 35  1  0
 35 36  1  0
 36 37  1  0
 37 38  1  0
 38 39  1  0
 39 40  1  0
 33 34  2  0
  5  6  1  0
  6  7  2  0
  7  8  1  0
  8  9  2  0
  9 10  1  0
 10 11  2  0
 11 12  1  0
 12 17  1  0
 17 18  1  0
 18 19  1  0
 19 20  1  0
 20 21  1  0
 21 22  1  0
 12 13  2  0
 13 14  1  0
 14 15  1  0
 15 16  2  0
  7  2  1  0
 16  8  1  0
 34 28  1  0
 15 11  1  0
 40 35  1  0
 22 17  1  0
 26 27  1  0
 20 23  1  0
M  END
> <minimizedAffinity>
-14.04499

> <CNNscore>
0.9774188995

> <CNNaffinity>
8.3737993240

> <CNN_VS>
8.1847095490

> <CNNaffinity_variance>
0.1093871519

$$$$



 40 45  0  0  0  0  0  0  0  0999 V2000
   39.9217   32.8480   30.6026 C   0  0  0  0  0  0  0  0  0  0  0  0
   40.0327   32.0598   31.8825 C   0  0  0  0  0  0  0  0  0  0  0  0
   38.8657   31.5124   32.4442 C   0  0  0  0  0  0  0  0  0  0  0  0
   38.9172   30.7789   33.6305 C   0  0  0  0  0  0  0  0  0  0  0  0
   40.1440   30.5736   34.2654 C   0  0  0  0  0  0  0  0  0  0  0  0
   41.3105   31.1215   33.7199 C   0  0  0  0  0  0  0  0  0  0  0  0
   41.2771   31.8582   32.5219 C   0  0  0  0  0  0  0  0  0  0  0  0
   42.5373   32.3949   31.9844 C   0  0  0  0  0  0  0  0  0  0  0  0
   43.0400   33.6270   32.4428 C   0  0  0  0  0  0  0  0  0  0  0  0
   44.2321   34.1760   31.9414 C   0  0  0  0  0  0  0  0  0  0  0  0
   44.9285   33.4673   30.9485 C   0  0  0  0  0  0  0  0  0  0  0  0
   46.1110   33.6290   30.1739 C   0  0  0  0  0  0  0  0  0  0  0  0
   46.2971   32.5878   29.3482 N   0  0  0  0  0  0  0  0  0  0  0  0
   45.2298   31.7341   29.5662 O   0  0  0  0  0  0  0  0  0  0  0  0
   44.4137   32.2584   30.5169 C   0  0  0  0  0  0  0  0  0  0  0  0
   43.2376   31.6842   30.9936 C   0  0  0  0  0  0  0  0  0  0  0  0
   47.1031   34.7543   30.1681 C   0  0  0  0  0  0  0  0  0  0  0  0
   47.0772   35.5585   28.8542 C   0  0  0  0  0  0  0  0  0  0  0  0
   48.4749   35.9602   28.3842 C   0  0  0  0  0  0  0  0  0  0  0  0
   49.2935   36.4614   29.4826 N   0  0  0  0  0  0  0  0  0  0  0  0
   49.4848   35.4744   30.5495 C   0  0  0  0  0  0  0  0  0  0  0  0
   48.5226   34.2855   30.5063 C   0  0  0  0  0  0  0  0  0  0  0  0
   48.8385   37.2840   29.8784 H   0  0  0  0  0  0  0  0  0  0  0  0
   40.2476   29.8007   35.5335 C   0  0  0  0  0  0  0  0  0  0  0  0
   40.9813   30.2317   36.4139 O   0  0  0  0  0  0  0  0  0  0  0  0
   39.5106   28.6301   35.5569 N   0  0  0  0  0  0  0  0  0  0  0  0
   39.0114   28.4136   34.7364 H   0  0  0  0  0  0  0  0  0  0  0  0
   39.3914   27.7095   36.6220 C   0  0  0  0  0  0  0  0  0  0  0  0
   39.1456   26.3801   36.2860 C   0  0  0  0  0  0  0  0  0  0  0  0
   39.0192   25.4353   37.2925 C   0  0  0  0  0  0  0  0  0  0  0  0
   38.7819   24.1579   36.9641 F   0  0  0  0  0  0  0  0  0  0  0  0
   39.1282   25.7869   38.6348 C   0  0  0  0  0  0  0  0  0  0  0  0
   39.3687   27.1119   39.0191 C   0  0  0  0  0  0  0  0  0  0  0  0
   39.4968   28.0562   37.9779 C   0  0  0  0  0  0  0  0  0  0  0  0
   39.4654   27.4738   40.3520 N   0  0  0  0  0  0  0  0  0  0  0  0
   39.3633   26.4865   41.4413 C   0  0  0  0  0  0  0  0  0  0  0  0
   40.0852   27.0107   42.6945 C   0  0  0  0  0  0  0  0  0  0  0  0
   39.5761   28.2569   43.1908 O   0  0  0  0  0  0  0  0  0  0  0  0
   38.9686   29.0649   42.1745 C   0  0  0  0  0  0  0  0  0  0  0  0
   39.5833   28.8788   40.7770 C   0  0  0  0  0  0  0  0  0  0  0  0
  1  2  1  0
  2  3  2  0
  3  4  1  0
  4  5  2  0
  5 24  1  0
 24 25  2  0
 24 26  1  0
 26 28  1  0
 28 29  2  0
 29 30  1  0
 30 31  1  0
 30 32  2  0
 32 33  1  0
 33 35  1  0
 35 36  1  0
 36 37  1  0
 37 38  1  0
 38 39  1  0
 39 40  1  0
 33 34  2  0
  5  6  1  0
  6  7  2  0
  7  8  1  0
  8  9  2  0
  9 10  1  0
 10 11  2  0
 11 12  1  0
 12 17  1  0
 17 18  1  0
 18 19  1  0
 19 20  1  0
 20 21  1  0
 21 22  1  0
 12 13  2  0
 13 14  1  0
 14 15  1  0
 15 16  2  0
  7  2  1  0
 16  8  1  0
 34 28  1  0
 15 11  1  0
 40 35  1  0
 22 17  1  0
 26 27  1  0
 20 23  1  0
M  END
> <minimizedAffinity>
-13.38273

> <CNNscore>
0.9516053200

> <CNNaffinity>
8.1972169876

> <CNN_VS>
7.8005151749

> <CNNaffinity_variance>
0.3830691278

$$$$



 40 45  0  0  0  0  0  0  0  0999 V2000
   40.8382   32.3204   30.1677 C   0  0  0  0  0  0  0  0  0  0  0  0
   40.7096   31.6760   31.5241 C   0  0  0  0  0  0  0  0  0  0  0  0
   39.5606   31.9365   32.2916 C   0  0  0  0  0  0  0  0  0  0  0  0
   39.3984   31.3666   33.5553 C   0  0  0  0  0  0  0  0  0  0  0  0
   40.3829   30.5165   34.0634 C   0  0  0  0  0  0  0  0  0  0  0  0
   41.5346   30.2574   33.3119 C   0  0  0  0  0  0  0  0  0  0  0  0
   41.7112   30.8187   32.0341 C   0  0  0  0  0  0  0  0  0  0  0  0
   42.9334   30.4965   31.2810 C   0  0  0  0  0  0  0  0  0  0  0  0
   43.3477   29.1595   31.1333 C   0  0  0  0  0  0  0  0  0  0  0  0
   44.5166   28.8168   30.4333 C   0  0  0  0  0  0  0  0  0  0  0  0
   45.2888   29.8492   29.8760 C   0  0  0  0  0  0  0  0  0  0  0  0
   46.4947   29.9770   29.1316 C   0  0  0  0  0  0  0  0  0  0  0  0
   46.7604   31.2626   28.8540 N   0  0  0  0  0  0  0  0  0  0  0  0
   45.7334   31.9948   29.4237 O   0  0  0  0  0  0  0  0  0  0  0  0
   44.8585   31.1541   30.0341 C   0  0  0  0  0  0  0  0  0  0  0  0
   43.7049   31.5289   30.7188 C   0  0  0  0  0  0  0  0  0  0  0  0
   47.4429   28.9149   28.6588 C   0  0  0  0  0  0  0  0  0  0  0  0
   47.6473   27.7985   29.7008 C   0  0  0  0  0  0  0  0  0  0  0  0
   49.0988   27.3262   29.7780 C   0  0  0  0  0  0  0  0  0  0  0  0
   49.6823   27.1472   28.4530 N   0  0  0  0  0  0  0  0  0  0  0  0
   49.6913   28.3807   27.6610 C   0  0  0  0  0  0  0  0  0  0  0  0
   48.7833   29.4923   28.1909 C   0  0  0  0  0  0  0  0  0  0  0  0
   49.1410   26.4428   27.9517 H   0  0  0  0  0  0  0  0  0  0  0  0
   40.2549   29.8881   35.4070 C   0  0  0  0  0  0  0  0  0  0  0  0
   40.6629   30.5132   36.3777 O   0  0  0  0  0  0  0  0  0  0  0  0
   39.7084   28.6172   35.3993 N   0  0  0  0  0  0  0  0  0  0  0  0
   39.4787   28.2476   34.5162 H   0  0  0  0  0  0  0  0  0  0  0  0
   39.4419   27.7885   36.5120 C   0  0  0  0  0  0  0  0  0  0  0  0
   38.8778   26.5414   36.2527 C   0  0  0  0  0  0  0  0  0  0  0  0
   38.5953   25.6887   37.3085 C   0  0  0  0  0  0  0  0  0  0  0  0
   38.0519   24.4904   37.0538 F   0  0  0  0  0  0  0  0  0  0  0  0
   38.8593   26.0533   38.6255 C   0  0  0  0  0  0  0  0  0  0  0  0
   39.4200   27.2990   38.9336 C   0  0  0  0  0  0  0  0  0  0  0  0
   39.7020   28.1496   37.8431 C   0  0  0  0  0  0  0  0  0  0  0  0
   39.6738   27.6763   40.2413 N   0  0  0  0  0  0  0  0  0  0  0  0
   39.1516   26.9167   41.3912 C   0  0  0  0  0  0  0  0  0  0  0  0
   40.0375   27.1575   42.6255 C   0  0  0  0  0  0  0  0  0  0  0  0
   40.1343   28.5326   43.0232 O   0  0  0  0  0  0  0  0  0  0  0  0
   39.9411   29.4501   41.9390 C   0  0  0  0  0  0  0  0  0  0  0  0
   40.4027   28.9117   40.5742 C   0  0  0  0  0  0  0  0  0  0  0  0
  1  2  1  0
  2  3  2  0
  3  4  1  0
  4  5  2  0
  5 24  1  0
 24 25  2  0
 24 26  1  0
 26 28  1  0
 28 29  2  0
 29 30  1  0
 30 31  1  0
 30 32  2  0
 32 33  1  0
 33 35  1  0
 35 36  1  0
 36 37  1  0
 37 38  1  0
 38 39  1  0
 39 40  1  0
 33 34  2  0
  5  6  1  0
  6  7  2  0
  7  8  1  0
  8  9  2  0
  9 10  1  0
 10 11  2  0
 11 12  1  0
 12 17  1  0
 17 18  1  0
 18 19  1  0
 19 20  1  0
 20 21  1  0
 21 22  1  0
 12 13  2  0
 13 14  1  0
 14 15  1  0
 15 16  2  0
  7  2  1  0
 16  8  1  0
 34 28  1  0
 15 11  1  0
 40 35  1  0
 22 17  1  0
 26 27  1  0
 20 23  1  0
M  END
> <minimizedAffinity>
-12.11443

> <CNNscore>
0.9279155731

> <CNNaffinity>
7.9581694603

> <CNN_VS>
7.3845095634

> <CNNaffinity_variance>
0.2825579345

$$$$



 40 45  0  0  0  0  0  0  0  0999 V2000
   39.9508   32.9063   30.5578 C   0  0  0  0  0  0  0  0  0  0  0  0
   40.0455   32.0869   31.8192 C   0  0  0  0  0  0  0  0  0  0  0  0
   38.8685   31.5445   32.3647 C   0  0  0  0  0  0  0  0  0  0  0  0
   38.9049   30.7827   33.5336 C   0  0  0  0  0  0  0  0  0  0  0  0
   40.1264   30.5440   34.1671 C   0  0  0  0  0  0  0  0  0  0  0  0
   41.3029   31.0864   33.6379 C   0  0  0  0  0  0  0  0  0  0  0  0
   41.2847   31.8514   32.4573 C   0  0  0  0  0  0  0  0  0  0  0  0
   42.5546   32.3810   31.9362 C   0  0  0  0  0  0  0  0  0  0  0  0
   43.0550   33.6135   32.3964 C   0  0  0  0  0  0  0  0  0  0  0  0
   44.2564   34.1559   31.9103 C   0  0  0  0  0  0  0  0  0  0  0  0
   44.9648   33.4402   30.9311 C   0  0  0  0  0  0  0  0  0  0  0  0
   46.1593   33.5940   30.1734 C   0  0  0  0  0  0  0  0  0  0  0  0
   46.3538   32.5484   29.3553 N   0  0  0  0  0  0  0  0  0  0  0  0
   45.2803   31.6996   29.5613 O   0  0  0  0  0  0  0  0  0  0  0  0
   44.4521   32.2311   30.4974 C   0  0  0  0  0  0  0  0  0  0  0  0
   43.2669   31.6633   30.9592 C   0  0  0  0  0  0  0  0  0  0  0  0
   47.1555   34.7157   30.1773 C   0  0  0  0  0  0  0  0  0  0  0  0
   47.0867   35.5719   28.8981 C   0  0  0  0  0  0  0  0  0  0  0  0
   48.4687   35.9878   28.3952 C   0  0  0  0  0  0  0  0  0  0  0  0
   49.3278   36.4424   29.4831 N   0  0  0  0  0  0  0  0  0  0  0  0
   49.5522   35.4130   30.5024 C   0  0  0  0  0  0  0  0  0  0  0  0
   48.5840   34.2297   30.4460 C   0  0  0  0  0  0  0  0  0  0  0  0
   48.8905   37.2499   29.9271 H   0  0  0  0  0  0  0  0  0  0  0  0
   40.2141   29.7401   35.4171 C   0  0  0  0  0  0  0  0  0  0  0  0
   40.9723   30.1243   36.2984 O   0  0  0  0  0  0  0  0  0  0  0  0
   39.4342   28.5974   35.4234 N   0  0  0  0  0  0  0  0  0  0  0  0
   38.9190   28.4175   34.6040 H   0  0  0  0  0  0  0  0  0  0  0  0
   39.2917   27.6588   36.4697 C   0  0  0  0  0  0  0  0  0  0  0  0
   39.3886   28.1425   37.7725 C   0  0  0  0  0  0  0  0  0  0  0  0
   39.2571   27.2640   38.8368 C   0  0  0  0  0  0  0  0  0  0  0  0
   39.3520   27.7342   40.0882 F   0  0  0  0  0  0  0  0  0  0  0  0
   39.0340   25.9055   38.6323 C   0  0  0  0  0  0  0  0  0  0  0  0
   38.9357   25.3742   37.3403 C   0  0  0  0  0  0  0  0  0  0  0  0
   39.0698   26.2871   36.2722 C   0  0  0  0  0  0  0  0  0  0  0  0
   38.7274   24.0223   37.1264 N   0  0  0  0  0  0  0  0  0  0  0  0
   39.8394   23.0883   36.8754 C   0  0  0  0  0  0  0  0  0  0  0  0
   39.4269   21.6612   37.2748 C   0  0  0  0  0  0  0  0  0  0  0  0
   38.2768   21.1623   36.5770 O   0  0  0  0  0  0  0  0  0  0  0  0
   37.3898   22.1979   36.1353 C   0  0  0  0  0  0  0  0  0  0  0  0
   37.3774   23.4400   37.0422 C   0  0  0  0  0  0  0  0  0  0  0  0
  1  2  1  0
  2  3  2  0
  3  4  1  0
  4  5  2  0
  5 24  1  0
 24 25  2  0
 24 26  1  0
 26 28  1  0
 28 29  2  0
 29 30  1  0
 30 31  1  0
 30 32  2  0
 32 33  1  0
 33 35  1  0
 35 36  1  0
 36 37  1  0
 37 38  1  0
 38 39  1  0
 39 40  1  0
 33 34  2  0
  5  6  1  0
  6  7  2  0
  7  8  1  0
  8  9  2  0
  9 10  1  0
 10 11  2  0
 11 12  1  0
 12 17  1  0
 17 18  1  0
 18 19  1  0
 19 20  1  0
 20 21  1  0
 21 22  1  0
 12 13  2  0
 13 14  1  0
 14 15  1  0
 15 16  2  0
  7  2  1  0
 16  8  1  0
 34 28  1  0
 15 11  1  0
 40 35  1  0
 22 17  1  0
 26 27  1  0
 20 23  1  0
M  END
> <minimizedAffinity>
-13.45685

> <CNNscore>
0.9142292142

> <CNNaffinity>
8.0131635666

> <CNN_VS>
7.3258681297

> <CNNaffinity_variance>
0.1559402049

$$$$



 40 45  0  0  0  0  0  0  0  0999 V2000
   40.2036   32.8046   30.2527 C   0  0  0  0  0  0  0  0  0  0  0  0
   40.2975   32.0568   31.5580 C   0  0  0  0  0  0  0  0  0  0  0  0
   39.1111   31.7300   32.2383 C   0  0  0  0  0  0  0  0  0  0  0  0
   39.1471   31.0425   33.4524 C   0  0  0  0  0  0  0  0  0  0  0  0
   40.3756   30.6619   33.9967 C   0  0  0  0  0  0  0  0  0  0  0  0
   41.5629   30.9898   33.3326 C   0  0  0  0  0  0  0  0  0  0  0  0
   41.5442   31.6771   32.1053 C   0  0  0  0  0  0  0  0  0  0  0  0
   42.8226   31.9789   31.4422 C   0  0  0  0  0  0  0  0  0  0  0  0
   43.3458   33.2855   31.4644 C   0  0  0  0  0  0  0  0  0  0  0  0
   44.5558   33.6122   30.8298 C   0  0  0  0  0  0  0  0  0  0  0  0
   45.2497   32.5971   30.1507 C   0  0  0  0  0  0  0  0  0  0  0  0
   46.4454   32.4669   29.3906 C   0  0  0  0  0  0  0  0  0  0  0  0
   46.6198   31.2042   28.9717 N   0  0  0  0  0  0  0  0  0  0  0  0
   45.5316   30.4926   29.4458 O   0  0  0  0  0  0  0  0  0  0  0  0
   44.7146   31.3218   30.1456 C   0  0  0  0  0  0  0  0  0  0  0  0
   43.5203   30.9627   30.7658 C   0  0  0  0  0  0  0  0  0  0  0  0
   47.4616   33.5073   29.0223 C   0  0  0  0  0  0  0  0  0  0  0  0
   48.8847   33.1308   29.4772 C   0  0  0  0  0  0  0  0  0  0  0  0
   49.6650   34.3294   30.0161 C   0  0  0  0  0  0  0  0  0  0  0  0
   49.5007   35.5078   29.1720 N   0  0  0  0  0  0  0  0  0  0  0  0
   48.1046   35.9407   29.0604 C   0  0  0  0  0  0  0  0  0  0  0  0
   47.0720   34.9062   29.5125 C   0  0  0  0  0  0  0  0  0  0  0  0
   49.8494   35.2903   28.2384 H   0  0  0  0  0  0  0  0  0  0  0  0
   40.4637   29.9299   35.2901 C   0  0  0  0  0  0  0  0  0  0  0  0
   41.3400   30.2574   36.0801 O   0  0  0  0  0  0  0  0  0  0  0  0
   39.5422   28.9087   35.4383 N   0  0  0  0  0  0  0  0  0  0  0  0
   38.9384   28.7533   34.6764 H   0  0  0  0  0  0  0  0  0  0  0  0
   39.3673   28.0632   36.5567 C   0  0  0  0  0  0  0  0  0  0  0  0
   39.6120   28.6146   37.8124 C   0  0  0  0  0  0  0  0  0  0  0  0
   39.4562   27.8285   38.9436 C   0  0  0  0  0  0  0  0  0  0  0  0
   39.6937   28.3634   40.1492 F   0  0  0  0  0  0  0  0  0  0  0  0
   39.0641   26.4962   38.8523 C   0  0  0  0  0  0  0  0  0  0  0  0
   38.8133   25.8985   37.6109 C   0  0  0  0  0  0  0  0  0  0  0  0
   38.9754   26.7181   36.4732 C   0  0  0  0  0  0  0  0  0  0  0  0
   38.4359   24.5704   37.5088 N   0  0  0  0  0  0  0  0  0  0  0  0
   37.0397   24.1363   37.6935 C   0  0  0  0  0  0  0  0  0  0  0  0
   36.8009   22.8078   36.9557 C   0  0  0  0  0  0  0  0  0  0  0  0
   37.6487   21.7332   37.3857 O   0  0  0  0  0  0  0  0  0  0  0  0
   38.9006   22.1802   37.9221 C   0  0  0  0  0  0  0  0  0  0  0  0
   39.4149   23.4901   37.3016 C   0  0  0  0  0  0  0  0  0  0  0  0
  1  2  1  0
  2  3  2  0
  3  4  1  0
  4  5  2  0
  5 24  1  0
 24 25  2  0
 24 26  1  0
 26 28  1  0
 28 29  2  0
 29 30  1  0
 30 31  1  0
 30 32  2  0
 32 33  1  0
 33 35  1  0
 35 36  1  0
 36 37  1  0
 37 38  1  0
 38 39  1  0
 39 40  1  0
 33 34  2  0
  5  6  1  0
  6  7  2  0
  7  8  1  0
  8  9  2  0
  9 10  1  0
 10 11  2  0
 11 12  1  0
 12 17  1  0
 17 18  1  0
 18 19  1  0
 19 20  1  0
 20 21  1  0
 21 22  1  0
 12 13  2  0
 13 14  1  0
 14 15  1  0
 15 16  2  0
  7  2  1  0
 16  8  1  0
 34 28  1  0
 15 11  1  0
 40 35  1  0
 22 17  1  0
 26 27  1  0
 20 23  1  0
M  END
> <minimizedAffinity>
-13.08760

> <CNNscore>
0.8941295147

> <CNNaffinity>
7.9642949104

> <CNN_VS>
7.1211109161

> <CNNaffinity_variance>
0.2088626772

$$$$



 40 45  0  0  0  0  0  0  0  0999 V2000
   40.6096   32.2576   30.3402 C   0  0  0  0  0  0  0  0  0  0  0  0
   40.5143   31.5270   31.6550 C   0  0  0  0  0  0  0  0  0  0  0  0
   39.3528   31.6805   32.4325 C   0  0  0  0  0  0  0  0  0  0  0  0
   39.2200   31.0280   33.6592 C   0  0  0  0  0  0  0  0  0  0  0  0
   40.2475   30.2015   34.1190 C   0  0  0  0  0  0  0  0  0  0  0  0
   41.4116   30.0487   33.3576 C   0  0  0  0  0  0  0  0  0  0  0  0
   41.5592   30.6943   32.1164 C   0  0  0  0  0  0  0  0  0  0  0  0
   42.7970   30.4823   31.3498 C   0  0  0  0  0  0  0  0  0  0  0  0
   43.2611   29.1787   31.0920 C   0  0  0  0  0  0  0  0  0  0  0  0
   44.4461   28.9398   30.3762 C   0  0  0  0  0  0  0  0  0  0  0  0
   45.1832   30.0435   29.9164 C   0  0  0  0  0  0  0  0  0  0  0  0
   46.3881   30.2782   29.1969 C   0  0  0  0  0  0  0  0  0  0  0  0
   46.6080   31.5917   29.0328 N   0  0  0  0  0  0  0  0  0  0  0  0
   45.5513   32.2346   29.6535 O   0  0  0  0  0  0  0  0  0  0  0  0
   44.7042   31.3135   30.1817 C   0  0  0  0  0  0  0  0  0  0  0  0
   43.5334   31.5863   30.8852 C   0  0  0  0  0  0  0  0  0  0  0  0
   47.3776   29.2956   28.6437 C   0  0  0  0  0  0  0  0  0  0  0  0
   47.3269   27.9354   29.3658 C   0  0  0  0  0  0  0  0  0  0  0  0
   48.7153   27.3356   29.5859 C   0  0  0  0  0  0  0  0  0  0  0  0
   49.5520   27.4536   28.3968 N   0  0  0  0  0  0  0  0  0  0  0  0
   49.7641   28.8437   27.9826 C   0  0  0  0  0  0  0  0  0  0  0  0
   48.8038   29.8558   28.6107 C   0  0  0  0  0  0  0  0  0  0  0  0
   49.1022   26.9512   27.6315 H   0  0  0  0  0  0  0  0  0  0  0  0
   40.1519   29.4877   35.4220 C   0  0  0  0  0  0  0  0  0  0  0  0
   40.6278   30.0280   36.4124 O   0  0  0  0  0  0  0  0  0  0  0  0
   39.5525   28.2427   35.3545 N   0  0  0  0  0  0  0  0  0  0  0  0
   39.2690   27.9439   34.4603 H   0  0  0  0  0  0  0  0  0  0  0  0
   39.3001   27.3504   36.4205 C   0  0  0  0  0  0  0  0  0  0  0  0
   39.3647   27.8705   37.7112 C   0  0  0  0  0  0  0  0  0  0  0  0
   39.1262   27.0382   38.7938 C   0  0  0  0  0  0  0  0  0  0  0  0
   39.1904   27.5433   40.0334 F   0  0  0  0  0  0  0  0  0  0  0  0
   38.8272   25.6900   38.6198 C   0  0  0  0  0  0  0  0  0  0  0  0
   38.7576   25.1228   37.3413 C   0  0  0  0  0  0  0  0  0  0  0  0
   39.0011   25.9892   36.2539 C   0  0  0  0  0  0  0  0  0  0  0  0
   38.4741   23.7800   37.1584 N   0  0  0  0  0  0  0  0  0  0  0  0
   39.5344   22.7599   37.0743 C   0  0  0  0  0  0  0  0  0  0  0  0
   38.9742   21.3858   37.4797 C   0  0  0  0  0  0  0  0  0  0  0  0
   37.8756   20.9355   36.6744 O   0  0  0  0  0  0  0  0  0  0  0  0
   37.1234   22.0081   36.0928 C   0  0  0  0  0  0  0  0  0  0  0  0
   37.1024   23.2900   36.9424 C   0  0  0  0  0  0  0  0  0  0  0  0
  1  2  1  0
  2  3  2  0
  3  4  1  0
  4  5  2  0
  5 24  1  0
 24 25  2  0
 24 26  1  0
 26 28  1  0
 28 29  2  0
 29 30  1  0
 30 31  1  0
 30 32  2  0
 32 33  1  0
 33 35  1  0
 35 36  1  0
 36 37  1  0
 37 38  1  0
 38 39  1  0
 39 40  1  0
 33 34  2  0
  5  6  1  0
  6  7  2  0
  7  8  1  0
  8  9  2  0
  9 10  1  0
 10 11  2  0
 11 12  1  0
 12 17  1  0
 17 18  1  0
 18 19  1  0
 19 20  1  0
 20 21  1  0
 21 22  1  0
 12 13  2  0
 13 14  1  0
 14 15  1  0
 15 16  2  0
  7  2  1  0
 16  8  1  0
 34 28  1  0
 15 11  1  0
 40 35  1  0
 22 17  1  0
 26 27  1  0
 20 23  1  0
M  END
> <minimizedAffinity>
-12.77225

> <CNNscore>
0.8567084670

> <CNNaffinity>
7.7490296364

> <CNN_VS>
6.6386594772

> <CNNaffinity_variance>
0.3115600944

$$$$



 40 45  0  0  0  0  0  0  0  0999 V2000
   39.6738   32.6229   31.2393 C   0  0  0  0  0  0  0  0  0  0  0  0
   39.6982   31.5873   32.3341 C   0  0  0  0  0  0  0  0  0  0  0  0
   38.5389   31.3886   33.1045 C   0  0  0  0  0  0  0  0  0  0  0  0
   38.5143   30.4445   34.1322 C   0  0  0  0  0  0  0  0  0  0  0  0
   39.6509   29.6765   34.3946 C   0  0  0  0  0  0  0  0  0  0  0  0
   40.8129   29.8722   33.6400 C   0  0  0  0  0  0  0  0  0  0  0  0
   40.8529   30.8153   32.5968 C   0  0  0  0  0  0  0  0  0  0  0  0
   42.0959   30.9654   31.8240 C   0  0  0  0  0  0  0  0  0  0  0  0
   42.7893   29.8308   31.3624 C   0  0  0  0  0  0  0  0  0  0  0  0
   43.9862   29.9367   30.6344 C   0  0  0  0  0  0  0  0  0  0  0  0
   44.4983   31.2182   30.3731 C   0  0  0  0  0  0  0  0  0  0  0  0
   45.6270   31.7872   29.7196 C   0  0  0  0  0  0  0  0  0  0  0  0
   45.5969   33.1275   29.7768 N   0  0  0  0  0  0  0  0  0  0  0  0
   44.4496   33.4525   30.4792 O   0  0  0  0  0  0  0  0  0  0  0  0
   43.7967   32.3163   30.8364 C   0  0  0  0  0  0  0  0  0  0  0  0
   42.6072   32.2479   31.5579 C   0  0  0  0  0  0  0  0  0  0  0  0
   46.7723   31.1096   29.0270 C   0  0  0  0  0  0  0  0  0  0  0  0
   46.4251   29.6791   28.5720 C   0  0  0  0  0  0  0  0  0  0  0  0
   47.5800   28.7001   28.7809 C   0  0  0  0  0  0  0  0  0  0  0  0
   48.8554   29.2673   28.3572 N   0  0  0  0  0  0  0  0  0  0  0  0
   49.2103   30.4865   29.0898 C   0  0  0  0  0  0  0  0  0  0  0  0
   48.0576   31.1320   29.8615 C   0  0  0  0  0  0  0  0  0  0  0  0
   48.7983   29.4900   27.3635 H   0  0  0  0  0  0  0  0  0  0  0  0
   39.6726   28.6598   35.4820 C   0  0  0  0  0  0  0  0  0  0  0  0
   39.7212   27.4779   35.1662 O   0  0  0  0  0  0  0  0  0  0  0  0
   39.5947   29.1819   36.7608 N   0  0  0  0  0  0  0  0  0  0  0  0
   39.5130   30.1608   36.8271 H   0  0  0  0  0  0  0  0  0  0  0  0
   39.6187   28.4728   37.9826 C   0  0  0  0  0  0  0  0  0  0  0  0
   39.9417   29.1959   39.1287 C   0  0  0  0  0  0  0  0  0  0  0  0
   39.9804   28.5488   40.3540 C   0  0  0  0  0  0  0  0  0  0  0  0
   40.2926   29.2487   41.4534 F   0  0  0  0  0  0  0  0  0  0  0  0
   39.7075   27.1885   40.4645 C   0  0  0  0  0  0  0  0  0  0  0  0
   39.3843   26.4209   39.3386 C   0  0  0  0  0  0  0  0  0  0  0  0
   39.3479   27.1009   38.1023 C   0  0  0  0  0  0  0  0  0  0  0  0
   39.1243   25.0646   39.4363 N   0  0  0  0  0  0  0  0  0  0  0  0
   39.7239   24.2258   40.4894 C   0  0  0  0  0  0  0  0  0  0  0  0
   38.8432   22.9899   40.7412 C   0  0  0  0  0  0  0  0  0  0  0  0
   38.6462   22.1606   39.5872 O   0  0  0  0  0  0  0  0  0  0  0  0
   38.7485   22.8783   38.3506 C   0  0  0  0  0  0  0  0  0  0  0  0
   38.3069   24.3487   38.4424 C   0  0  0  0  0  0  0  0  0  0  0  0
  1  2  1  0
  2  3  2  0
  3  4  1  0
  4  5  2  0
  5 24  1  0
 24 25  2  0
 24 26  1  0
 26 28  1  0
 28 29  2  0
 29 30  1  0
 30 31  1  0
 30 32  2  0
 32 33  1  0
 33 35  1  0
 35 36  1  0
 36 37  1  0
 37 38  1  0
 38 39  1  0
 39 40  1  0
 33 34  2  0
  5  6  1  0
  6  7  2  0
  7  8  1  0
  8  9  2  0
  9 10  1  0
 10 11  2  0
 11 12  1  0
 12 17  1  0
 17 18  1  0
 18 19  1  0
 19 20  1  0
 20 21  1  0
 21 22  1  0
 12 13  2  0
 13 14  1  0
 14 15  1  0
 15 16  2  0
  7  2  1  0
 16  8  1  0
 34 28  1  0
 15 11  1  0
 40 35  1  0
 22 17  1  0
 26 27  1  0
 20 23  1  0
M  END
> <minimizedAffinity>
-11.74294

> <CNNscore>
0.8136244416

> <CNNaffinity>
7.9664063454

> <CNN_VS>
6.4816627502

> <CNNaffinity_variance>
0.1698766947

$$$$



 40 45  0  0  0  0  0  0  0  0999 V2000
   37.9757   31.3099   32.3911 C   0  0  0  0  0  0  0  0  0  0  0  0
   39.4033   31.7629   32.2229 C   0  0  0  0  0  0  0  0  0  0  0  0
   39.7150   32.6440   31.1723 C   0  0  0  0  0  0  0  0  0  0  0  0
   41.0233   33.0878   30.9733 C   0  0  0  0  0  0  0  0  0  0  0  0
   42.0375   32.6626   31.8341 C   0  0  0  0  0  0  0  0  0  0  0  0
   41.7401   31.7788   32.8775 C   0  0  0  0  0  0  0  0  0  0  0  0
   40.4260   31.3265   33.0957 C   0  0  0  0  0  0  0  0  0  0  0  0
   40.1682   30.4127   34.2197 C   0  0  0  0  0  0  0  0  0  0  0  0
   39.4727   29.2067   34.0125 C   0  0  0  0  0  0  0  0  0  0  0  0
   39.1965   28.3179   35.0649 C   0  0  0  0  0  0  0  0  0  0  0  0
   39.6266   28.6588   36.3578 C   0  0  0  0  0  0  0  0  0  0  0  0
   39.5658   28.1053   37.6672 C   0  0  0  0  0  0  0  0  0  0  0  0
   40.1777   28.8991   38.5592 N   0  0  0  0  0  0  0  0  0  0  0  0
   40.6391   29.9901   37.8438 O   0  0  0  0  0  0  0  0  0  0  0  0
   40.3093   29.8487   36.5338 C   0  0  0  0  0  0  0  0  0  0  0  0
   40.6021   30.7509   35.5137 C   0  0  0  0  0  0  0  0  0  0  0  0
   38.9345   26.8276   38.1361 C   0  0  0  0  0  0  0  0  0  0  0  0
   39.4284   26.4018   39.5320 C   0  0  0  0  0  0  0  0  0  0  0  0
   39.6468   24.8931   39.6424 C   0  0  0  0  0  0  0  0  0  0  0  0
   38.5516   24.1409   39.0399 N   0  0  0  0  0  0  0  0  0  0  0  0
   38.3770   24.4292   37.6133 C   0  0  0  0  0  0  0  0  0  0  0  0
   39.0887   25.6906   37.1199 C   0  0  0  0  0  0  0  0  0  0  0  0
   37.6876   24.3774   39.5277 H   0  0  0  0  0  0  0  0  0  0  0  0
   43.4476   33.1070   31.6594 C   0  0  0  0  0  0  0  0  0  0  0  0
   43.9344   33.8329   32.5169 O   0  0  0  0  0  0  0  0  0  0  0  0
   44.0507   32.6666   30.4948 N   0  0  0  0  0  0  0  0  0  0  0  0
   43.4906   32.1259   29.8922 H   0  0  0  0  0  0  0  0  0  0  0  0
   45.3774   32.9029   30.0703 C   0  0  0  0  0  0  0  0  0  0  0  0
   45.7219   34.2190   29.7708 C   0  0  0  0  0  0  0  0  0  0  0  0
   47.0107   34.5066   29.3489 C   0  0  0  0  0  0  0  0  0  0  0  0
   47.3369   35.7742   29.0611 F   0  0  0  0  0  0  0  0  0  0  0  0
   47.9693   33.5067   29.2134 C   0  0  0  0  0  0  0  0  0  0  0  0
   47.6660   32.1693   29.4975 C   0  0  0  0  0  0  0  0  0  0  0  0
   46.3490   31.9001   29.9281 C   0  0  0  0  0  0  0  0  0  0  0  0
   48.6087   31.1657   29.3530 N   0  0  0  0  0  0  0  0  0  0  0  0
   50.0435   31.4569   29.1845 C   0  0  0  0  0  0  0  0  0  0  0  0
   50.8817   30.2543   29.6507 C   0  0  0  0  0  0  0  0  0  0  0  0
   50.6027   29.0336   28.9503 O   0  0  0  0  0  0  0  0  0  0  0  0
   49.2693   28.9731   28.4279 C   0  0  0  0  0  0  0  0  0  0  0  0
   48.2343   29.7443   29.2642 C   0  0  0  0  0  0  0  0  0  0  0  0
  1  2  1  0
  2  3  2  0
  3  4  1  0
  4  5  2  0
  5 24  1  0
 24 25  2  0
 24 26  1  0
 26 28  1  0
 28 29  2  0
 29 30  1  0
 30 31  1  0
 30 32  2  0
 32 33  1  0
 33 35  1  0
 35 36  1  0
 36 37  1  0
 37 38  1  0
 38 39  1  0
 39 40  1  0
 33 34  2  0
  5  6  1  0
  6  7  2  0
  7  8  1  0
  8  9  2  0
  9 10  1  0
 10 11  2  0
 11 12  1  0
 12 17  1  0
 17 18  1  0
 18 19  1  0
 19 20  1  0
 20 21  1  0
 21 22  1  0
 12 13  2  0
 13 14  1  0
 14 15  1  0
 15 16  2  0
  7  2  1  0
 16  8  1  0
 34 28  1  0
 15 11  1  0
 40 35  1  0
 22 17  1  0
 26 27  1  0
 20 23  1  0
M  END
> <minimizedAffinity>
-10.30036

> <CNNscore>
0.6866409779

> <CNNaffinity>
8.0557479858

> <CNN_VS>
5.5314068794

> <CNNaffinity_variance>
0.0632792488

$$$$
