


 30 31  0  0  0  0  0  0  0  0999 V2000
   12.2513    7.9079   51.4579 C   0  0  0  0  0  0  0  0  0  0  0  0
   13.6517    8.1785   51.8226 N   0  0  0  0  0  0  0  0  0  0  0  0
   14.2713    7.6566   51.2029 H   0  0  0  0  0  0  0  0  0  0  0  0
   13.8136    7.8898   52.7874 H   0  0  0  0  0  0  0  0  0  0  0  0
   11.9232    6.4029   51.6074 C   0  0  0  0  0  0  0  0  0  0  0  0
   12.5883    5.5764   52.7766 C   0  0  0  0  0  0  0  0  0  0  0  0
   12.6079    6.4635   54.0387 C   0  0  0  0  0  0  0  0  0  0  0  0
   14.0235    5.1782   52.4195 C   0  0  0  0  0  0  0  0  0  0  0  0
   11.6485    4.3268   52.9806 C   0  0  0  0  0  0  0  0  0  0  0  0
   11.4671    3.1502   51.9599 C   0  0  0  0  0  0  0  0  0  0  0  0
   11.3690    1.7940   52.6754 C   0  0  0  0  0  0  0  0  0  0  0  0
   10.1967    3.3211   51.0993 C   0  0  0  0  0  0  0  0  0  0  0  0
   12.6659    3.1525   50.9295 C   0  0  0  0  0  0  0  0  0  0  0  0
   11.5329    1.6799   49.1080 C   0  0  0  0  0  0  0  0  0  0  0  0
   12.5266    2.8061   49.4105 C   0  0  0  0  0  0  0  0  0  0  0  0
   12.1620    4.0405   48.5644 C   0  0  0  0  0  0  0  0  0  0  0  0
   13.9238    2.3335   48.9324 C   0  0  0  0  0  0  0  0  0  0  0  0
   11.9584    8.3582   49.9953 C   0  0  0  0  0  0  0  0  0  0  0  0
   10.9338    9.4044   49.9035 N   0  0  0  0  0  0  0  0  0  0  0  0
    9.9836    9.4078   48.9072 C   0  0  0  0  0  0  0  0  0  0  0  0
    9.0400   10.3452   48.8258 C   0  0  0  0  0  0  0  0  0  0  0  0
    8.9868   11.4240   49.8080 C   0  0  0  0  0  0  0  0  0  0  0  0
    8.1305   12.2977   49.7727 O   0  0  0  0  0  0  0  0  0  0  0  0
    9.9658   11.3661   50.7626 N   0  0  0  0  0  0  0  0  0  0  0  0
   10.9352   10.3983   50.8874 C   0  0  0  0  0  0  0  0  0  0  0  0
   11.7307   10.4384   51.8236 O   0  0  0  0  0  0  0  0  0  0  0  0
    8.1057   10.1489   47.6929 C   0  0  0  0  0  0  0  0  0  0  0  0
    8.8360    9.0817   46.8705 C   0  0  0  0  0  0  0  0  0  0  0  0
    9.8338    8.3988   47.8177 C   0  0  0  0  0  0  0  0  0  0  0  0
    9.9773   12.0914   51.4282 H   0  0  0  0  0  0  0  0  0  0  0  0
 14 15  1  0
 15 16  1  0
 15 17  1  0
 15 13  1  0
 13 10  1  0
 10 11  1  0
 10 12  1  0
 10  9  1  0
  9  6  1  0
  6  7  1  0
  6  8  1  0
  6  5  1  0
  5  1  1  0
  1  2  1  0
  1 18  1  0
 18 19  1  0
 19 20  1  0
 20 21  2  0
 21 22  1  0
 22 23  2  0
 22 24  1  0
 24 25  1  0
 25 26  2  0
 21 27  1  0
 27 28  1  0
 28 29  1  0
 25 19  1  0
 29 20  1  0
  2  3  1  0
  2  4  1  0
 24 30  1  0
M  END
> <minimizedAffinity>
-5.76311

> <CNNscore>
0.2054247260

> <CNNaffinity>
5.3883190155

> <CNN_VS>
1.1068940163

> <CNNaffinity_variance>
0.3511969149

$$$$



 30 31  0  0  0  0  0  0  0  0999 V2000
   31.3352   20.2966   61.8048 C   0  0  0  0  0  0  0  0  0  0  0  0
   32.7879   20.4851   61.9503 N   0  0  0  0  0  0  0  0  0  0  0  0
   33.2387   19.5774   62.0653 H   0  0  0  0  0  0  0  0  0  0  0  0
   32.9754   21.0640   62.7690 H   0  0  0  0  0  0  0  0  0  0  0  0
   30.7379   19.6200   63.0621 C   0  0  0  0  0  0  0  0  0  0  0  0
   31.6934   18.8540   64.0585 C   0  0  0  0  0  0  0  0  0  0  0  0
   31.8777   19.7311   65.3142 C   0  0  0  0  0  0  0  0  0  0  0  0
   33.0612   18.5975   63.4190 C   0  0  0  0  0  0  0  0  0  0  0  0
   30.9320   17.5188   64.4105 C   0  0  0  0  0  0  0  0  0  0  0  0
   31.2301   16.1114   63.7865 C   0  0  0  0  0  0  0  0  0  0  0  0
   31.8994   16.2363   62.4090 C   0  0  0  0  0  0  0  0  0  0  0  0
   32.1572   15.2645   64.6848 C   0  0  0  0  0  0  0  0  0  0  0  0
   29.8882   15.2824   63.6822 C   0  0  0  0  0  0  0  0  0  0  0  0
   28.5493   16.6006   61.8823 C   0  0  0  0  0  0  0  0  0  0  0  0
   28.5135   15.8782   63.2330 C   0  0  0  0  0  0  0  0  0  0  0  0
   27.4003   14.8140   63.2057 C   0  0  0  0  0  0  0  0  0  0  0  0
   28.1087   16.9209   64.3066 C   0  0  0  0  0  0  0  0  0  0  0  0
   31.0070   19.4349   60.5488 C   0  0  0  0  0  0  0  0  0  0  0  0
   30.4193   20.2095   59.4501 N   0  0  0  0  0  0  0  0  0  0  0  0
   29.0650   20.2098   59.2022 C   0  0  0  0  0  0  0  0  0  0  0  0
   28.5212   20.9228   58.2165 C   0  0  0  0  0  0  0  0  0  0  0  0
   29.3631   21.7386   57.3465 C   0  0  0  0  0  0  0  0  0  0  0  0
   28.9007   22.4144   56.4368 O   0  0  0  0  0  0  0  0  0  0  0  0
   30.6985   21.6838   57.6413 N   0  0  0  0  0  0  0  0  0  0  0  0
   31.2850   20.9791   58.6666 C   0  0  0  0  0  0  0  0  0  0  0  0
   32.4980   21.0532   58.8517 O   0  0  0  0  0  0  0  0  0  0  0  0
   27.0470   20.7987   58.1388 C   0  0  0  0  0  0  0  0  0  0  0  0
   26.7872   19.6061   59.0654 C   0  0  0  0  0  0  0  0  0  0  0  0
   28.0199   19.4730   59.9720 C   0  0  0  0  0  0  0  0  0  0  0  0
   31.3009   22.2019   57.0599 H   0  0  0  0  0  0  0  0  0  0  0  0
 14 15  1  0
 15 16  1  0
 15 17  1  0
 15 13  1  0
 13 10  1  0
 10 11  1  0
 10 12  1  0
 10  9  1  0
  9  6  1  0
  6  7  1  0
  6  8  1  0
  6  5  1  0
  5  1  1  0
  1  2  1  0
  1 18  1  0
 18 19  1  0
 19 20  1  0
 20 21  2  0
 21 22  1  0
 22 23  2  0
 22 24  1  0
 24 25  1  0
 25 26  2  0
 21 27  1  0
 27 28  1  0
 28 29  1  0
 25 19  1  0
 29 20  1  0
  2  3  1  0
  2  4  1  0
 24 30  1  0
M  END
> <minimizedAffinity>
-6.95206

> <CNNscore>
0.1295916140

> <CNNaffinity>
4.3776936531

> <CNN_VS>
0.5673123598

> <CNNaffinity_variance>
1.5452769995

$$$$



 30 31  0  0  0  0  0  0  0  0999 V2000
    9.1750    8.8358   48.3614 C   0  0  0  0  0  0  0  0  0  0  0  0
    8.1079    8.9883   47.3587 N   0  0  0  0  0  0  0  0  0  0  0  0
    7.2537    9.3059   47.8169 H   0  0  0  0  0  0  0  0  0  0  0  0
    7.9368    8.0909   46.9051 H   0  0  0  0  0  0  0  0  0  0  0  0
    8.7835    7.7853   49.4284 C   0  0  0  0  0  0  0  0  0  0  0  0
    9.3993    6.3337   49.3502 C   0  0  0  0  0  0  0  0  0  0  0  0
   10.8472    6.4554   48.8318 C   0  0  0  0  0  0  0  0  0  0  0  0
    8.5956    5.4476   48.3939 C   0  0  0  0  0  0  0  0  0  0  0  0
    9.3748    5.7984   50.8332 C   0  0  0  0  0  0  0  0  0  0  0  0
   10.6227    5.2938   51.6377 C   0  0  0  0  0  0  0  0  0  0  0  0
   11.6172    6.4336   51.9078 C   0  0  0  0  0  0  0  0  0  0  0  0
   10.2257    4.6835   52.9991 C   0  0  0  0  0  0  0  0  0  0  0  0
   11.3229    4.1173   50.8475 C   0  0  0  0  0  0  0  0  0  0  0  0
   13.6855    4.5285   51.8568 C   0  0  0  0  0  0  0  0  0  0  0  0
   12.7280    3.5282   51.2011 C   0  0  0  0  0  0  0  0  0  0  0  0
   12.6251    2.2733   52.0885 C   0  0  0  0  0  0  0  0  0  0  0  0
   13.3708    3.0783   49.8638 C   0  0  0  0  0  0  0  0  0  0  0  0
    9.4818   10.1938   49.0610 C   0  0  0  0  0  0  0  0  0  0  0  0
   10.8983   10.3644   49.4029 N   0  0  0  0  0  0  0  0  0  0  0  0
   11.8651   10.5352   48.4377 C   0  0  0  0  0  0  0  0  0  0  0  0
   13.1515   10.7066   48.7401 C   0  0  0  0  0  0  0  0  0  0  0  0
   13.5859   10.7128   50.1339 C   0  0  0  0  0  0  0  0  0  0  0  0
   14.7563   10.8765   50.4524 O   0  0  0  0  0  0  0  0  0  0  0  0
   12.5770   10.5271   51.0397 N   0  0  0  0  0  0  0  0  0  0  0  0
   11.2391   10.3741   50.7592 C   0  0  0  0  0  0  0  0  0  0  0  0
   10.4256   10.2616   51.6738 O   0  0  0  0  0  0  0  0  0  0  0  0
   14.0192   10.8949   47.5542 C   0  0  0  0  0  0  0  0  0  0  0  0
   13.0807   10.4823   46.4150 C   0  0  0  0  0  0  0  0  0  0  0  0
   11.6490   10.5850   46.9617 C   0  0  0  0  0  0  0  0  0  0  0  0
   12.8352   10.5002   51.9894 H   0  0  0  0  0  0  0  0  0  0  0  0
 14 15  1  0
 15 16  1  0
 15 17  1  0
 15 13  1  0
 13 10  1  0
 10 11  1  0
 10 12  1  0
 10  9  1  0
  9  6  1  0
  6  7  1  0
  6  8  1  0
  6  5  1  0
  5  1  1  0
  1  2  1  0
  1 18  1  0
 18 19  1  0
 19 20  1  0
 20 21  2  0
 21 22  1  0
 22 23  2  0
 22 24  1  0
 24 25  1  0
 25 26  2  0
 21 27  1  0
 27 28  1  0
 28 29  1  0
 25 19  1  0
 29 20  1  0
  2  3  1  0
  2  4  1  0
 24 30  1  0
M  END
> <minimizedAffinity>
-5.54100

> <CNNscore>
0.1171071455

> <CNNaffinity>
4.9626665115

> <CNN_VS>
0.5811637044

> <CNNaffinity_variance>
0.2459682673

$$$$



 30 31  0  0  0  0  0  0  0  0999 V2000
   13.9541   10.2629   50.0813 C   0  0  0  0  0  0  0  0  0  0  0  0
   15.2291    9.8484   50.6894 N   0  0  0  0  0  0  0  0  0  0  0  0
   15.4066   10.4092   51.5227 H   0  0  0  0  0  0  0  0  0  0  0  0
   15.9859    9.9859   50.0195 H   0  0  0  0  0  0  0  0  0  0  0  0
   14.0030   11.7505   49.6572 C   0  0  0  0  0  0  0  0  0  0  0  0
   13.4700   12.1684   48.2310 C   0  0  0  0  0  0  0  0  0  0  0  0
   12.0184   12.6662   48.3897 C   0  0  0  0  0  0  0  0  0  0  0  0
   13.4910   10.9784   47.2672 C   0  0  0  0  0  0  0  0  0  0  0  0
   14.4193   13.3384   47.7660 C   0  0  0  0  0  0  0  0  0  0  0  0
   14.7850   14.6041   48.6165 C   0  0  0  0  0  0  0  0  0  0  0  0
   15.2180   14.2203   50.0400 C   0  0  0  0  0  0  0  0  0  0  0  0
   15.9318   15.4181   47.9793 C   0  0  0  0  0  0  0  0  0  0  0  0
   13.5513   15.5916   48.6552 C   0  0  0  0  0  0  0  0  0  0  0  0
   14.1263   16.7058   46.3753 C   0  0  0  0  0  0  0  0  0  0  0  0
   13.0530   16.4321   47.4338 C   0  0  0  0  0  0  0  0  0  0  0  0
   11.8253   15.7971   46.7539 C   0  0  0  0  0  0  0  0  0  0  0  0
   12.5939   17.8027   47.9948 C   0  0  0  0  0  0  0  0  0  0  0  0
   12.7681   10.0453   51.0682 C   0  0  0  0  0  0  0  0  0  0  0  0
   12.1142    8.7413   50.9123 N   0  0  0  0  0  0  0  0  0  0  0  0
   12.4753    7.6501   51.6702 C   0  0  0  0  0  0  0  0  0  0  0  0
   11.8759    6.4665   51.5461 C   0  0  0  0  0  0  0  0  0  0  0  0
   10.7986    6.2844   50.5778 C   0  0  0  0  0  0  0  0  0  0  0  0
   10.2174    5.2161   50.4408 O   0  0  0  0  0  0  0  0  0  0  0  0
   10.4982    7.4047   49.8513 N   0  0  0  0  0  0  0  0  0  0  0  0
   11.0805    8.6447   49.9753 C   0  0  0  0  0  0  0  0  0  0  0  0
   10.6833    9.5845   49.2897 O   0  0  0  0  0  0  0  0  0  0  0  0
   12.4015    5.4360   52.4717 C   0  0  0  0  0  0  0  0  0  0  0  0
   13.6808    6.1050   52.9859 C   0  0  0  0  0  0  0  0  0  0  0  0
   13.5267    7.6114   52.7288 C   0  0  0  0  0  0  0  0  0  0  0  0
    9.7932    7.3137   49.1702 H   0  0  0  0  0  0  0  0  0  0  0  0
 14 15  1  0
 15 16  1  0
 15 17  1  0
 15 13  1  0
 13 10  1  0
 10 11  1  0
 10 12  1  0
 10  9  1  0
  9  6  1  0
  6  7  1  0
  6  8  1  0
  6  5  1  0
  5  1  1  0
  1  2  1  0
  1 18  1  0
 18 19  1  0
 19 20  1  0
 20 21  2  0
 21 22  1  0
 22 23  2  0
 22 24  1  0
 24 25  1  0
 25 26  2  0
 21 27  1  0
 27 28  1  0
 28 29  1  0
 25 19  1  0
 29 20  1  0
  2  3  1  0
  2  4  1  0
 24 30  1  0
M  END
> <minimizedAffinity>
-6.38871

> <CNNscore>
0.1068562120

> <CNNaffinity>
5.3623452187

> <CNN_VS>
0.5729998946

> <CNNaffinity_variance>
0.5497757792

$$$$



 30 31  0  0  0  0  0  0  0  0999 V2000
   12.4722    8.1152   51.6457 C   0  0  0  0  0  0  0  0  0  0  0  0
   13.6910    8.9186   51.4548 N   0  0  0  0  0  0  0  0  0  0  0  0
   14.2685    8.4933   50.7296 H   0  0  0  0  0  0  0  0  0  0  0  0
   14.2150    8.9545   52.3292 H   0  0  0  0  0  0  0  0  0  0  0  0
   12.8244    6.6767   52.0949 C   0  0  0  0  0  0  0  0  0  0  0  0
   11.7661    5.5217   51.8984 C   0  0  0  0  0  0  0  0  0  0  0  0
   10.5705    6.0971   51.1113 C   0  0  0  0  0  0  0  0  0  0  0  0
   11.2722    4.9945   53.2488 C   0  0  0  0  0  0  0  0  0  0  0  0
   12.5159    4.4184   51.0575 C   0  0  0  0  0  0  0  0  0  0  0  0
   11.8771    3.5591   49.9118 C   0  0  0  0  0  0  0  0  0  0  0  0
   11.8099    4.3419   48.5913 C   0  0  0  0  0  0  0  0  0  0  0  0
   12.6718    2.2616   49.6497 C   0  0  0  0  0  0  0  0  0  0  0  0
   10.4364    3.0781   50.3499 C   0  0  0  0  0  0  0  0  0  0  0  0
   11.3299    1.6107   52.3039 C   0  0  0  0  0  0  0  0  0  0  0  0
   10.1615    1.9173   51.3615 C   0  0  0  0  0  0  0  0  0  0  0  0
    8.8914    2.1640   52.1974 C   0  0  0  0  0  0  0  0  0  0  0  0
    9.9000    0.6439   50.5165 C   0  0  0  0  0  0  0  0  0  0  0  0
   11.6314    8.0564   50.3352 C   0  0  0  0  0  0  0  0  0  0  0  0
   11.4638    9.3649   49.6931 N   0  0  0  0  0  0  0  0  0  0  0  0
   11.7366    9.5613   48.3580 C   0  0  0  0  0  0  0  0  0  0  0  0
   11.5720   10.7424   47.7634 C   0  0  0  0  0  0  0  0  0  0  0  0
   11.0928   11.8909   48.5267 C   0  0  0  0  0  0  0  0  0  0  0  0
   10.9200   12.9891   48.0149 O   0  0  0  0  0  0  0  0  0  0  0  0
   10.8521   11.6288   49.8482 N   0  0  0  0  0  0  0  0  0  0  0  0
   10.9874   10.4161   50.4830 C   0  0  0  0  0  0  0  0  0  0  0  0
   10.6915   10.3047   51.6709 O   0  0  0  0  0  0  0  0  0  0  0  0
   11.9011   10.7298   46.3190 C   0  0  0  0  0  0  0  0  0  0  0  0
   12.6232    9.3855   46.1775 C   0  0  0  0  0  0  0  0  0  0  0  0
   12.2117    8.5325   47.3867 C   0  0  0  0  0  0  0  0  0  0  0  0
   10.5513   12.3858   50.4012 H   0  0  0  0  0  0  0  0  0  0  0  0
 14 15  1  0
 15 16  1  0
 15 17  1  0
 15 13  1  0
 13 10  1  0
 10 11  1  0
 10 12  1  0
 10  9  1  0
  9  6  1  0
  6  7  1  0
  6  8  1  0
  6  5  1  0
  5  1  1  0
  1  2  1  0
  1 18  1  0
 18 19  1  0
 19 20  1  0
 20 21  2  0
 21 22  1  0
 22 23  2  0
 22 24  1  0
 24 25  1  0
 25 26  2  0
 21 27  1  0
 27 28  1  0
 28 29  1  0
 25 19  1  0
 29 20  1  0
  2  3  1  0
  2  4  1  0
 24 30  1  0
M  END
> <minimizedAffinity>
-5.58579

> <CNNscore>
0.1006825343

> <CNNaffinity>
5.0325341225

> <CNN_VS>
0.5066882968

> <CNNaffinity_variance>
0.6749019623

$$$$



 30 31  0  0  0  0  0  0  0  0999 V2000
   11.9619   10.8674   48.2935 C   0  0  0  0  0  0  0  0  0  0  0  0
   11.5320   11.8157   49.3343 N   0  0  0  0  0  0  0  0  0  0  0  0
   12.0131   11.6026   50.2081 H   0  0  0  0  0  0  0  0  0  0  0  0
   10.5246   11.7351   49.4725 H   0  0  0  0  0  0  0  0  0  0  0  0
   11.6110    9.4138   48.6926 C   0  0  0  0  0  0  0  0  0  0  0  0
   10.8773    9.1415   50.0638 C   0  0  0  0  0  0  0  0  0  0  0  0
    9.3571    9.1409   49.8012 C   0  0  0  0  0  0  0  0  0  0  0  0
   11.2101   10.2290   51.0895 C   0  0  0  0  0  0  0  0  0  0  0  0
   11.3717    7.7140   50.5160 C   0  0  0  0  0  0  0  0  0  0  0  0
   10.7747    6.3489   50.0271 C   0  0  0  0  0  0  0  0  0  0  0  0
    9.3795    6.0994   50.6206 C   0  0  0  0  0  0  0  0  0  0  0  0
   10.6493    6.2895   48.4894 C   0  0  0  0  0  0  0  0  0  0  0  0
   11.7610    5.1729   50.4054 C   0  0  0  0  0  0  0  0  0  0  0  0
   13.3117    5.9594   52.3410 C   0  0  0  0  0  0  0  0  0  0  0  0
   12.3118    4.9096   51.8455 C   0  0  0  0  0  0  0  0  0  0  0  0
   11.1815    4.7618   52.8816 C   0  0  0  0  0  0  0  0  0  0  0  0
   13.0533    3.5489   51.7960 C   0  0  0  0  0  0  0  0  0  0  0  0
   13.4948   10.9774   48.0369 C   0  0  0  0  0  0  0  0  0  0  0  0
   14.1930   11.7994   49.0315 N   0  0  0  0  0  0  0  0  0  0  0  0
   14.3499   13.1580   48.8728 C   0  0  0  0  0  0  0  0  0  0  0  0
   14.9687   13.9144   49.7787 C   0  0  0  0  0  0  0  0  0  0  0  0
   15.5164   13.3123   50.9907 C   0  0  0  0  0  0  0  0  0  0  0  0
   16.0830   13.9744   51.8501 O   0  0  0  0  0  0  0  0  0  0  0  0
   15.3354   11.9587   51.0792 N   0  0  0  0  0  0  0  0  0  0  0  0
   14.6791   11.1569   50.1745 C   0  0  0  0  0  0  0  0  0  0  0  0
   14.5452    9.9555   50.3979 O   0  0  0  0  0  0  0  0  0  0  0  0
   15.0077   15.3521   49.4234 C   0  0  0  0  0  0  0  0  0  0  0  0
   14.5790   15.3195   47.9524 C   0  0  0  0  0  0  0  0  0  0  0  0
   13.8547   13.9831   47.7320 C   0  0  0  0  0  0  0  0  0  0  0  0
   15.7136   11.5132   51.8715 H   0  0  0  0  0  0  0  0  0  0  0  0
 14 15  1  0
 15 16  1  0
 15 17  1  0
 15 13  1  0
 13 10  1  0
 10 11  1  0
 10 12  1  0
 10  9  1  0
  9  6  1  0
  6  7  1  0
  6  8  1  0
  6  5  1  0
  5  1  1  0
  1  2  1  0
  1 18  1  0
 18 19  1  0
 19 20  1  0
 20 21  2  0
 21 22  1  0
 22 23  2  0
 22 24  1  0
 24 25  1  0
 25 26  2  0
 21 27  1  0
 27 28  1  0
 28 29  1  0
 25 19  1  0
 29 20  1  0
  2  3  1  0
  2  4  1  0
 24 30  1  0
M  END
> <minimizedAffinity>
-6.46630

> <CNNscore>
0.0998456851

> <CNNaffinity>
4.7629752159

> <CNN_VS>
0.4755625129

> <CNNaffinity_variance>
0.6635305285

$$$$



 30 31  0  0  0  0  0  0  0  0999 V2000
   11.1581    9.4831   49.9029 C   0  0  0  0  0  0  0  0  0  0  0  0
   10.0107   10.3385   50.2481 N   0  0  0  0  0  0  0  0  0  0  0  0
    9.1985   10.0554   49.6998 H   0  0  0  0  0  0  0  0  0  0  0  0
   10.2377   11.3113   50.0420 H   0  0  0  0  0  0  0  0  0  0  0  0
   11.5186    9.6219   48.4043 C   0  0  0  0  0  0  0  0  0  0  0  0
   12.7819   10.4714   47.9859 C   0  0  0  0  0  0  0  0  0  0  0  0
   13.5141    9.7160   46.8574 C   0  0  0  0  0  0  0  0  0  0  0  0
   13.7361   10.6551   49.1696 C   0  0  0  0  0  0  0  0  0  0  0  0
   12.1995   11.8400   47.4623 C   0  0  0  0  0  0  0  0  0  0  0  0
   13.0160   13.1675   47.2882 C   0  0  0  0  0  0  0  0  0  0  0  0
   13.9017   13.1236   46.0334 C   0  0  0  0  0  0  0  0  0  0  0  0
   12.0959   14.4019   47.1716 C   0  0  0  0  0  0  0  0  0  0  0  0
   13.8899   13.4260   48.5799 C   0  0  0  0  0  0  0  0  0  0  0  0
   15.5005   15.2828   47.7266 C   0  0  0  0  0  0  0  0  0  0  0  0
   14.6431   14.7625   48.8848 C   0  0  0  0  0  0  0  0  0  0  0  0
   13.6845   15.8779   49.3427 C   0  0  0  0  0  0  0  0  0  0  0  0
   15.5949   14.4749   50.0745 C   0  0  0  0  0  0  0  0  0  0  0  0
   10.8576    7.9888   50.2263 C   0  0  0  0  0  0  0  0  0  0  0  0
   11.8238    7.3892   51.1534 N   0  0  0  0  0  0  0  0  0  0  0  0
   12.1709    6.0588   51.0839 C   0  0  0  0  0  0  0  0  0  0  0  0
   13.0592    5.5100   51.9117 C   0  0  0  0  0  0  0  0  0  0  0  0
   13.7014    6.3182   52.9440 C   0  0  0  0  0  0  0  0  0  0  0  0
   14.5288    5.8533   53.7168 O   0  0  0  0  0  0  0  0  0  0  0  0
   13.3031    7.6274   52.9641 N   0  0  0  0  0  0  0  0  0  0  0  0
   12.4096    8.2273   52.1075 C   0  0  0  0  0  0  0  0  0  0  0  0
   12.1731    9.4297   52.2050 O   0  0  0  0  0  0  0  0  0  0  0  0
   13.3039    4.0724   51.6501 C   0  0  0  0  0  0  0  0  0  0  0  0
   12.1514    3.7299   50.6999 C   0  0  0  0  0  0  0  0  0  0  0  0
   11.6615    5.0570   50.1017 C   0  0  0  0  0  0  0  0  0  0  0  0
   13.6962    8.1982   53.6633 H   0  0  0  0  0  0  0  0  0  0  0  0
 14 15  1  0
 15 16  1  0
 15 17  1  0
 15 13  1  0
 13 10  1  0
 10 11  1  0
 10 12  1  0
 10  9  1  0
  9  6  1  0
  6  7  1  0
  6  8  1  0
  6  5  1  0
  5  1  1  0
  1  2  1  0
  1 18  1  0
 18 19  1  0
 19 20  1  0
 20 21  2  0
 21 22  1  0
 22 23  2  0
 22 24  1  0
 24 25  1  0
 25 26  2  0
 21 27  1  0
 27 28  1  0
 28 29  1  0
 25 19  1  0
 29 20  1  0
  2  3  1  0
  2  4  1  0
 24 30  1  0
M  END
> <minimizedAffinity>
-6.19090

> <CNNscore>
0.0960866660

> <CNNaffinity>
4.6123623848

> <CNN_VS>
0.4431865215

> <CNNaffinity_variance>
0.7888988853

$$$$



 30 31  0  0  0  0  0  0  0  0999 V2000
   12.5739    9.2759   50.4931 C   0  0  0  0  0  0  0  0  0  0  0  0
   13.9663    9.5743   50.8666 N   0  0  0  0  0  0  0  0  0  0  0  0
   13.9765   10.1535   51.7060 H   0  0  0  0  0  0  0  0  0  0  0  0
   14.4234   10.0734   50.1035 H   0  0  0  0  0  0  0  0  0  0  0  0
   11.7936   10.5771   50.1879 C   0  0  0  0  0  0  0  0  0  0  0  0
   11.1679   10.7880   48.7538 C   0  0  0  0  0  0  0  0  0  0  0  0
    9.6663   10.4429   48.8313 C   0  0  0  0  0  0  0  0  0  0  0  0
   11.8406    9.8773   47.7224 C   0  0  0  0  0  0  0  0  0  0  0  0
   11.3789   12.3181   48.4363 C   0  0  0  0  0  0  0  0  0  0  0  0
   12.7004   12.9579   47.8855 C   0  0  0  0  0  0  0  0  0  0  0  0
   13.9436   12.3262   48.5309 C   0  0  0  0  0  0  0  0  0  0  0  0
   12.8294   12.7932   46.3558 C   0  0  0  0  0  0  0  0  0  0  0  0
   12.6761   14.5193   48.1308 C   0  0  0  0  0  0  0  0  0  0  0  0
   14.9979   15.1717   47.1542 C   0  0  0  0  0  0  0  0  0  0  0  0
   13.9525   15.4159   48.2473 C   0  0  0  0  0  0  0  0  0  0  0  0
   13.6065   16.9164   48.2874 C   0  0  0  0  0  0  0  0  0  0  0  0
   14.6138   15.0733   49.6071 C   0  0  0  0  0  0  0  0  0  0  0  0
   11.8477    8.4914   51.6268 C   0  0  0  0  0  0  0  0  0  0  0  0
   11.6600    7.0688   51.3208 N   0  0  0  0  0  0  0  0  0  0  0  0
   12.5347    6.1055   51.7708 C   0  0  0  0  0  0  0  0  0  0  0  0
   12.3630    4.8099   51.5108 C   0  0  0  0  0  0  0  0  0  0  0  0
   11.2209    4.3626   50.7190 C   0  0  0  0  0  0  0  0  0  0  0  0
   11.0236    3.1813   50.4669 O   0  0  0  0  0  0  0  0  0  0  0  0
   10.3990    5.3714   50.2951 N   0  0  0  0  0  0  0  0  0  0  0  0
   10.5358    6.7124   50.5692 C   0  0  0  0  0  0  0  0  0  0  0  0
    9.6964    7.5140   50.1644 O   0  0  0  0  0  0  0  0  0  0  0  0
   13.4053    3.9424   52.1074 C   0  0  0  0  0  0  0  0  0  0  0  0
   14.4617    4.9707   52.5262 C   0  0  0  0  0  0  0  0  0  0  0  0
   13.7490    6.3288   52.6093 C   0  0  0  0  0  0  0  0  0  0  0  0
    9.6311    5.1106   49.7369 H   0  0  0  0  0  0  0  0  0  0  0  0
 14 15  1  0
 15 16  1  0
 15 17  1  0
 15 13  1  0
 13 10  1  0
 10 11  1  0
 10 12  1  0
 10  9  1  0
  9  6  1  0
  6  7  1  0
  6  8  1  0
  6  5  1  0
  5  1  1  0
  1  2  1  0
  1 18  1  0
 18 19  1  0
 19 20  1  0
 20 21  2  0
 21 22  1  0
 22 23  2  0
 22 24  1  0
 24 25  1  0
 25 26  2  0
 21 27  1  0
 27 28  1  0
 28 29  1  0
 25 19  1  0
 29 20  1  0
  2  3  1  0
  2  4  1  0
 24 30  1  0
M  END
> <minimizedAffinity>
-5.20795

> <CNNscore>
0.0924625024

> <CNNaffinity>
5.0761408806

> <CNN_VS>
0.4693526924

> <CNNaffinity_variance>
0.4791549742

$$$$



 30 31  0  0  0  0  0  0  0  0999 V2000
   12.6584   10.6748   47.5999 C   0  0  0  0  0  0  0  0  0  0  0  0
   11.8099   10.5460   46.4039 N   0  0  0  0  0  0  0  0  0  0  0  0
   11.4222   11.4579   46.1622 H   0  0  0  0  0  0  0  0  0  0  0  0
   11.0497    9.8932   46.5950 H   0  0  0  0  0  0  0  0  0  0  0  0
   11.8353   11.1819   48.8084 C   0  0  0  0  0  0  0  0  0  0  0  0
   11.3509   10.1530   49.9036 C   0  0  0  0  0  0  0  0  0  0  0  0
   10.0090   10.6574   50.4737 C   0  0  0  0  0  0  0  0  0  0  0  0
   12.3705   10.0418   51.0410 C   0  0  0  0  0  0  0  0  0  0  0  0
   11.1588    8.7924   49.1302 C   0  0  0  0  0  0  0  0  0  0  0  0
   10.7556    7.4251   49.7837 C   0  0  0  0  0  0  0  0  0  0  0  0
    9.2746    7.4115   50.1930 C   0  0  0  0  0  0  0  0  0  0  0  0
   10.9905    6.2353   48.8282 C   0  0  0  0  0  0  0  0  0  0  0  0
   11.6826    7.1400   51.0319 C   0  0  0  0  0  0  0  0  0  0  0  0
   10.3454    5.1735   52.0877 C   0  0  0  0  0  0  0  0  0  0  0  0
   11.7229    5.7849   51.8120 C   0  0  0  0  0  0  0  0  0  0  0  0
   12.6079    4.7371   51.1108 C   0  0  0  0  0  0  0  0  0  0  0  0
   12.3825    6.0809   53.1836 C   0  0  0  0  0  0  0  0  0  0  0  0
   13.8470   11.6480   47.3390 C   0  0  0  0  0  0  0  0  0  0  0  0
   13.6368   12.9862   47.9024 N   0  0  0  0  0  0  0  0  0  0  0  0
   12.9144   13.9512   47.2373 C   0  0  0  0  0  0  0  0  0  0  0  0
   12.7053   15.1638   47.7488 C   0  0  0  0  0  0  0  0  0  0  0  0
   13.2524   15.5162   49.0556 C   0  0  0  0  0  0  0  0  0  0  0  0
   13.0744   16.6157   49.5631 O   0  0  0  0  0  0  0  0  0  0  0  0
   13.9679   14.5158   49.6557 N   0  0  0  0  0  0  0  0  0  0  0  0
   14.1781   13.2481   49.1650 C   0  0  0  0  0  0  0  0  0  0  0  0
   14.8037   12.4248   49.8296 O   0  0  0  0  0  0  0  0  0  0  0  0
   11.8845   16.0398   46.8806 C   0  0  0  0  0  0  0  0  0  0  0  0
   11.8845   15.2577   45.5627 C   0  0  0  0  0  0  0  0  0  0  0  0
   12.2489   13.8064   45.9092 C   0  0  0  0  0  0  0  0  0  0  0  0
   14.3737   14.7249   50.5280 H   0  0  0  0  0  0  0  0  0  0  0  0
 14 15  1  0
 15 16  1  0
 15 17  1  0
 15 13  1  0
 13 10  1  0
 10 11  1  0
 10 12  1  0
 10  9  1  0
  9  6  1  0
  6  7  1  0
  6  8  1  0
  6  5  1  0
  5  1  1  0
  1  2  1  0
  1 18  1  0
 18 19  1  0
 19 20  1  0
 20 21  2  0
 21 22  1  0
 22 23  2  0
 22 24  1  0
 24 25  1  0
 25 26  2  0
 21 27  1  0
 27 28  1  0
 28 29  1  0
 25 19  1  0
 29 20  1  0
  2  3  1  0
  2  4  1  0
 24 30  1  0
M  END
> <minimizedAffinity>
-5.03070

> <CNNscore>
0.0915511027

> <CNNaffinity>
4.1796336174

> <CNN_VS>
0.3826500773

> <CNNaffinity_variance>
1.1411132812

$$$$
