


 33 36  0  0  0  0  0  0  0  0999 V2000
   18.4918   17.2321   16.9038 C   0  0  0  0  0  0  0  0  0  0  0  0
   17.3374   16.7804   17.3247 N   0  0  0  0  0  0  0  0  0  0  0  0
   17.3773   16.8645   18.6978 C   0  0  0  0  0  0  0  0  0  0  0  0
   16.3965   16.5048   19.6423 C   0  0  0  0  0  0  0  0  0  0  0  0
   16.7147   16.6679   21.0157 C   0  0  0  0  0  0  0  0  0  0  0  0
   15.7430   16.2720   21.9567 N   0  0  0  0  0  0  0  0  0  0  0  0
   15.9908   16.3903   23.2158 C   0  0  0  0  0  0  0  0  0  0  0  0
   15.0736   16.0160   24.1382 N   0  0  0  0  0  0  0  0  0  0  0  0
   17.1663   16.8794   23.6809 N   0  0  0  0  0  0  0  0  0  0  0  0
   18.1778   17.3348   22.8739 C   0  0  0  0  0  0  0  0  0  0  0  0
   19.1815   17.8217   23.3788 O   0  0  0  0  0  0  0  0  0  0  0  0
   17.9601   17.2003   21.4120 C   0  0  0  0  0  0  0  0  0  0  0  0
   18.9255   17.5740   20.4622 C   0  0  0  0  0  0  0  0  0  0  0  0
   20.4814   18.2238   20.8150 Cl  0  0  0  0  0  0  0  0  0  0  0  0
   18.5917   17.3820   19.1200 C   0  0  0  0  0  0  0  0  0  0  0  0
   19.2758   17.6241   17.9531 N   0  0  0  0  0  0  0  0  0  0  0  0
   14.2044   15.6547   23.8497 H   0  0  0  0  0  0  0  0  0  0  0  0
   15.2756   16.1050   25.0976 H   0  0  0  0  0  0  0  0  0  0  0  0
   17.3022   16.9096   24.6556 H   0  0  0  0  0  0  0  0  0  0  0  0
   20.1774   18.0136   17.8844 H   0  0  0  0  0  0  0  0  0  0  0  0
   18.0384   18.0223   14.6495 C   0  0  0  0  0  0  0  0  0  0  0  0
   18.8825   17.3550   15.6195 N   0  0  0  0  0  0  0  0  0  0  0  0
   19.7511   16.9871   15.3376 H   0  0  0  0  0  0  0  0  0  0  0  0
   15.0659   15.9290   19.2050 C   0  0  0  0  0  0  0  0  0  0  0  0
   15.1769   14.4231   18.9302 C   0  0  0  0  0  0  0  0  0  0  0  0
   14.0474   13.8631   18.1728 N   0  0  0  0  0  0  0  0  0  0  0  0
   13.6066   13.1337   18.7332 H   0  0  0  0  0  0  0  0  0  0  0  0
   13.0409   14.8752   17.8417 C   0  0  0  0  0  0  0  0  0  0  0  0
   11.6369   14.3631   18.1759 C   0  0  0  0  0  0  0  0  0  0  0  0
   10.9185   13.7843   16.9583 C   0  0  0  0  0  0  0  0  0  0  0  0
    9.4597   13.7221   17.3934 C   0  0  0  0  0  0  0  0  0  0  0  0
    9.2808   14.8397   18.4210 C   0  0  0  0  0  0  0  0  0  0  0  0
   10.6639   15.4489   18.6365 C   0  0  0  0  0  0  0  0  0  0  0  0
 21 22  1  0
 22  1  1  0
  1  2  2  0
  2  3  1  0
  3  4  2  0
  4 24  1  0
 24 25  1  0
 25 26  1  0
 26 28  1  0
 28 29  1  0
 29 30  1  0
 30 31  1  0
 31 32  1  0
 32 33  1  0
  4  5  1  0
  5  6  1  0
  6  7  2  0
  7  8  1  0
  7  9  1  0
  9 10  1  0
 10 11  2  0
 10 12  1  0
 12 13  1  0
 13 14  1  0
 13 15  2  0
 15 16  1  0
 16  1  1  0
 15  3  1  0
 33 29  1  0
 12  5  2  0
 22 23  1  0
 26 27  1  0
  8 17  1  0
  8 18  1  0
  9 19  1  0
 16 20  1  0
M  END
> <minimizedAffinity>
-8.95903

> <CNNscore>
0.9936670065

> <CNNaffinity>
8.1450805664

> <CNN_VS>
8.0934982300

> <CNNaffinity_variance>
0.1974672228

$$$$



 33 36  0  0  0  0  0  0  0  0999 V2000
   18.4275   18.2615   14.5153 C   0  0  0  0  0  0  0  0  0  0  0  0
   17.3004   17.6407   14.2738 N   0  0  0  0  0  0  0  0  0  0  0  0
   16.8868   17.1265   15.4815 C   0  0  0  0  0  0  0  0  0  0  0  0
   15.7386   16.3681   15.7818 C   0  0  0  0  0  0  0  0  0  0  0  0
   15.5698   15.9328   17.1219 C   0  0  0  0  0  0  0  0  0  0  0  0
   14.4378   15.1435   17.4083 N   0  0  0  0  0  0  0  0  0  0  0  0
   14.2476   14.7150   18.6087 C   0  0  0  0  0  0  0  0  0  0  0  0
   13.1684   13.9546   18.9076 N   0  0  0  0  0  0  0  0  0  0  0  0
   15.1064   14.9886   19.6211 N   0  0  0  0  0  0  0  0  0  0  0  0
   16.2222   15.7751   19.4857 C   0  0  0  0  0  0  0  0  0  0  0  0
   16.9088   16.0248   20.4684 O   0  0  0  0  0  0  0  0  0  0  0  0
   16.5076   16.2771   18.1186 C   0  0  0  0  0  0  0  0  0  0  0  0
   17.6405   17.0499   17.8138 C   0  0  0  0  0  0  0  0  0  0  0  0
   18.8602   17.5275   18.9327 Cl  0  0  0  0  0  0  0  0  0  0  0  0
   17.7902   17.4454   16.4830 C   0  0  0  0  0  0  0  0  0  0  0  0
   18.7539   18.1852   15.8408 N   0  0  0  0  0  0  0  0  0  0  0  0
   12.5158   13.7287   18.2060 H   0  0  0  0  0  0  0  0  0  0  0  0
   13.0361   13.6275   19.8267 H   0  0  0  0  0  0  0  0  0  0  0  0
   14.9183   14.6000   20.5059 H   0  0  0  0  0  0  0  0  0  0  0  0
   19.5449   18.5912   16.2634 H   0  0  0  0  0  0  0  0  0  0  0  0
   19.1363   18.5939   12.2134 C   0  0  0  0  0  0  0  0  0  0  0  0
   19.1766   18.9362   13.6204 N   0  0  0  0  0  0  0  0  0  0  0  0
   19.7576   19.6697   13.9265 H   0  0  0  0  0  0  0  0  0  0  0  0
   14.7423   16.0000   14.7025 C   0  0  0  0  0  0  0  0  0  0  0  0
   13.4057   16.7252   14.9112 C   0  0  0  0  0  0  0  0  0  0  0  0
   12.3209   15.8616   15.4018 N   0  0  0  0  0  0  0  0  0  0  0  0
   12.7057   15.2076   16.0835 H   0  0  0  0  0  0  0  0  0  0  0  0
   11.2439   16.6250   16.0377 C   0  0  0  0  0  0  0  0  0  0  0  0
   10.2265   15.6794   16.6826 C   0  0  0  0  0  0  0  0  0  0  0  0
   10.3088   15.6815   18.2080 C   0  0  0  0  0  0  0  0  0  0  0  0
    9.5439   14.4280   18.6143 C   0  0  0  0  0  0  0  0  0  0  0  0
    9.6905   13.4510   17.4476 C   0  0  0  0  0  0  0  0  0  0  0  0
   10.4419   14.2023   16.3516 C   0  0  0  0  0  0  0  0  0  0  0  0
 21 22  1  0
 22  1  1  0
  1  2  2  0
  2  3  1  0
  3  4  2  0
  4 24  1  0
 24 25  1  0
 25 26  1  0
 26 28  1  0
 28 29  1  0
 29 30  1  0
 30 31  1  0
 31 32  1  0
 32 33  1  0
  4  5  1  0
  5  6  1  0
  6  7  2  0
  7  8  1  0
  7  9  1  0
  9 10  1  0
 10 11  2  0
 10 12  1  0
 12 13  1  0
 13 14  1  0
 13 15  2  0
 15 16  1  0
 16  1  1  0
 15  3  1  0
 33 29  1  0
 12  5  2  0
 22 23  1  0
 26 27  1  0
  8 17  1  0
  8 18  1  0
  9 19  1  0
 16 20  1  0
M  END
> <minimizedAffinity>
-8.04883

> <CNNscore>
0.1822723001

> <CNNaffinity>
6.0724396706

> <CNN_VS>
1.1068375111

> <CNNaffinity_variance>
0.5740218759

$$$$



 33 36  0  0  0  0  0  0  0  0999 V2000
   12.2298   18.7812   14.0876 C   0  0  0  0  0  0  0  0  0  0  0  0
   13.4085   18.4571   14.5560 N   0  0  0  0  0  0  0  0  0  0  0  0
   13.1938   17.4167   15.4310 C   0  0  0  0  0  0  0  0  0  0  0  0
   14.1230   16.6997   16.2094 C   0  0  0  0  0  0  0  0  0  0  0  0
   13.6208   15.6825   17.0620 C   0  0  0  0  0  0  0  0  0  0  0  0
   14.5515   14.9934   17.8654 N   0  0  0  0  0  0  0  0  0  0  0  0
   14.1416   14.0690   18.6642 C   0  0  0  0  0  0  0  0  0  0  0  0
   15.0164   13.3941   19.4462 N   0  0  0  0  0  0  0  0  0  0  0  0
   12.8332   13.7311   18.7721 N   0  0  0  0  0  0  0  0  0  0  0  0
   11.8335   14.2957   18.0213 C   0  0  0  0  0  0  0  0  0  0  0  0
   10.6856   13.8850   18.1363 O   0  0  0  0  0  0  0  0  0  0  0  0
   12.2418   15.3856   17.1006 C   0  0  0  0  0  0  0  0  0  0  0  0
   11.3241   16.0935   16.3065 C   0  0  0  0  0  0  0  0  0  0  0  0
    9.6212   15.8359   16.2693 Cl  0  0  0  0  0  0  0  0  0  0  0  0
   11.8455   17.1023   15.4940 C   0  0  0  0  0  0  0  0  0  0  0  0
   11.2566   17.9772   14.6130 N   0  0  0  0  0  0  0  0  0  0  0  0
   15.9774   13.6034   19.4038 H   0  0  0  0  0  0  0  0  0  0  0  0
   14.6916   12.6939   20.0573 H   0  0  0  0  0  0  0  0  0  0  0  0
   12.5859   13.0398   19.4279 H   0  0  0  0  0  0  0  0  0  0  0  0
   10.2970   18.0181   14.3968 H   0  0  0  0  0  0  0  0  0  0  0  0
   12.3543   21.1147   13.4161 C   0  0  0  0  0  0  0  0  0  0  0  0
   11.9669   19.7395   13.1767 N   0  0  0  0  0  0  0  0  0  0  0  0
   11.5065   19.5021   12.3395 H   0  0  0  0  0  0  0  0  0  0  0  0
   15.5999   17.0313   16.1638 C   0  0  0  0  0  0  0  0  0  0  0  0
   16.3262   16.4994   17.4070 C   0  0  0  0  0  0  0  0  0  0  0  0
   17.4929   17.2981   17.8120 N   0  0  0  0  0  0  0  0  0  0  0  0
   17.1741   18.2265   18.0892 H   0  0  0  0  0  0  0  0  0  0  0  0
   18.2197   16.6959   18.9328 C   0  0  0  0  0  0  0  0  0  0  0  0
   17.6471   17.1847   20.2663 C   0  0  0  0  0  0  0  0  0  0  0  0
   18.6586   17.0935   21.4075 C   0  0  0  0  0  0  0  0  0  0  0  0
   17.8033   17.2227   22.6617 C   0  0  0  0  0  0  0  0  0  0  0  0
   16.4259   16.6746   22.2880 C   0  0  0  0  0  0  0  0  0  0  0  0
   16.4860   16.3444   20.7987 C   0  0  0  0  0  0  0  0  0  0  0  0
 21 22  1  0
 22  1  1  0
  1  2  2  0
  2  3  1  0
  3  4  2  0
  4 24  1  0
 24 25  1  0
 25 26  1  0
 26 28  1  0
 28 29  1  0
 29 30  1  0
 30 31  1  0
 31 32  1  0
 32 33  1  0
  4  5  1  0
  5  6  1  0
  6  7  2  0
  7  8  1  0
  7  9  1  0
  9 10  1  0
 10 11  2  0
 10 12  1  0
 12 13  1  0
 13 14  1  0
 13 15  2  0
 15 16  1  0
 16  1  1  0
 15  3  1  0
 33 29  1  0
 12  5  2  0
 22 23  1  0
 26 27  1  0
  8 17  1  0
  8 18  1  0
  9 19  1  0
 16 20  1  0
M  END
> <minimizedAffinity>
-7.96504

> <CNNscore>
0.1345346123

> <CNNaffinity>
4.7992138863

> <CNN_VS>
0.6456604004

> <CNNaffinity_variance>
2.6253566742

$$$$



 33 36  0  0  0  0  0  0  0  0999 V2000
   12.1089   15.7767   17.9022 C   0  0  0  0  0  0  0  0  0  0  0  0
   12.4804   16.0948   16.6878 N   0  0  0  0  0  0  0  0  0  0  0  0
   13.8270   16.3685   16.7648 C   0  0  0  0  0  0  0  0  0  0  0  0
   14.7165   16.7638   15.7470 C   0  0  0  0  0  0  0  0  0  0  0  0
   16.0646   17.0148   16.1124 C   0  0  0  0  0  0  0  0  0  0  0  0
   16.9412   17.4453   15.0962 N   0  0  0  0  0  0  0  0  0  0  0  0
   18.1724   17.6968   15.3819 C   0  0  0  0  0  0  0  0  0  0  0  0
   19.0328   18.1124   14.4232 N   0  0  0  0  0  0  0  0  0  0  0  0
   18.6660   17.5704   16.6381 N   0  0  0  0  0  0  0  0  0  0  0  0
   17.9309   17.1246   17.7071 C   0  0  0  0  0  0  0  0  0  0  0  0
   18.4735   16.9781   18.7950 O   0  0  0  0  0  0  0  0  0  0  0  0
   16.4977   16.8430   17.4445 C   0  0  0  0  0  0  0  0  0  0  0  0
   15.6075   16.4302   18.4499 C   0  0  0  0  0  0  0  0  0  0  0  0
   16.0070   16.1943   20.1089 Cl  0  0  0  0  0  0  0  0  0  0  0  0
   14.2835   16.2115   18.0640 C   0  0  0  0  0  0  0  0  0  0  0  0
   13.1693   15.8161   18.7644 N   0  0  0  0  0  0  0  0  0  0  0  0
   18.7215   18.2196   13.4954 H   0  0  0  0  0  0  0  0  0  0  0  0
   19.9698   18.3076   14.6537 H   0  0  0  0  0  0  0  0  0  0  0  0
   19.6076   17.8129   16.7923 H   0  0  0  0  0  0  0  0  0  0  0  0
   13.1396   15.5983   19.7241 H   0  0  0  0  0  0  0  0  0  0  0  0
    9.9127   14.9064   17.3267 C   0  0  0  0  0  0  0  0  0  0  0  0
   10.8710   15.4097   18.2895 N   0  0  0  0  0  0  0  0  0  0  0  0
   10.6153   15.4846   19.2373 H   0  0  0  0  0  0  0  0  0  0  0  0
   14.2387   16.9504   14.3221 C   0  0  0  0  0  0  0  0  0  0  0  0
   13.5123   18.2918   14.1522 C   0  0  0  0  0  0  0  0  0  0  0  0
   13.8621   19.0154   12.9205 N   0  0  0  0  0  0  0  0  0  0  0  0
   13.2372   19.8155   12.8218 H   0  0  0  0  0  0  0  0  0  0  0  0
   15.2458   19.4974   12.9301 C   0  0  0  0  0  0  0  0  0  0  0  0
   15.2795   21.0282   12.9031 C   0  0  0  0  0  0  0  0  0  0  0  0
   13.9429   21.6369   12.4830 C   0  0  0  0  0  0  0  0  0  0  0  0
   14.2947   23.0767   12.1303 C   0  0  0  0  0  0  0  0  0  0  0  0
   15.7519   23.0510   11.6688 C   0  0  0  0  0  0  0  0  0  0  0  0
   16.2398   21.6186   11.8700 C   0  0  0  0  0  0  0  0  0  0  0  0
 21 22  1  0
 22  1  1  0
  1  2  2  0
  2  3  1  0
  3  4  2  0
  4 24  1  0
 24 25  1  0
 25 26  1  0
 26 28  1  0
 28 29  1  0
 29 30  1  0
 30 31  1  0
 31 32  1  0
 32 33  1  0
  4  5  1  0
  5  6  1  0
  6  7  2  0
  7  8  1  0
  7  9  1  0
  9 10  1  0
 10 11  2  0
 10 12  1  0
 12 13  1  0
 13 14  1  0
 13 15  2  0
 15 16  1  0
 16  1  1  0
 15  3  1  0
 33 29  1  0
 12  5  2  0
 22 23  1  0
 26 27  1  0
  8 17  1  0
  8 18  1  0
  9 19  1  0
 16 20  1  0
M  END
> <minimizedAffinity>
-7.07738

> <CNNscore>
0.1208431646

> <CNNaffinity>
4.5036139488

> <CNN_VS>
0.5442309380

> <CNNaffinity_variance>
1.4689108133

$$$$



 33 36  0  0  0  0  0  0  0  0999 V2000
   22.5790   23.1059   10.7297 C   0  0  0  0  0  0  0  0  0  0  0  0
   21.9020   22.1489   11.3124 N   0  0  0  0  0  0  0  0  0  0  0  0
   22.7332   21.0520   11.3240 C   0  0  0  0  0  0  0  0  0  0  0  0
   22.4966   19.7589   11.8293 C   0  0  0  0  0  0  0  0  0  0  0  0
   23.5278   18.7955   11.6801 C   0  0  0  0  0  0  0  0  0  0  0  0
   23.2710   17.4936   12.1551 N   0  0  0  0  0  0  0  0  0  0  0  0
   24.1728   16.5814   12.0316 C   0  0  0  0  0  0  0  0  0  0  0  0
   23.9488   15.3238   12.4792 N   0  0  0  0  0  0  0  0  0  0  0  0
   25.3729   16.8220   11.4490 N   0  0  0  0  0  0  0  0  0  0  0  0
   25.7629   18.0511   10.9811 C   0  0  0  0  0  0  0  0  0  0  0  0
   26.8911   18.1953   10.5274 O   0  0  0  0  0  0  0  0  0  0  0  0
   24.7551   19.1367   11.0730 C   0  0  0  0  0  0  0  0  0  0  0  0
   24.9895   20.4344   10.5885 C   0  0  0  0  0  0  0  0  0  0  0  0
   26.4347   20.9734    9.8213 Cl  0  0  0  0  0  0  0  0  0  0  0  0
   23.9486   21.3543   10.7306 C   0  0  0  0  0  0  0  0  0  0  0  0
   23.8284   22.6767   10.3770 N   0  0  0  0  0  0  0  0  0  0  0  0
   23.0922   15.0997   12.9097 H   0  0  0  0  0  0  0  0  0  0  0  0
   24.6425   14.6330   12.3743 H   0  0  0  0  0  0  0  0  0  0  0  0
   26.0017   16.0702   11.3562 H   0  0  0  0  0  0  0  0  0  0  0  0
   24.5236   23.2224    9.9433 H   0  0  0  0  0  0  0  0  0  0  0  0
   22.3504   25.0132    9.2391 C   0  0  0  0  0  0  0  0  0  0  0  0
   22.1603   24.3706   10.5234 N   0  0  0  0  0  0  0  0  0  0  0  0
   21.7205   24.8629   11.2537 H   0  0  0  0  0  0  0  0  0  0  0  0
   21.1732   19.4029   12.4737 C   0  0  0  0  0  0  0  0  0  0  0  0
   20.3231   18.5245   11.5454 C   0  0  0  0  0  0  0  0  0  0  0  0
   19.5018   17.5253   12.2455 N   0  0  0  0  0  0  0  0  0  0  0  0
   19.3967   17.8114   13.2189 H   0  0  0  0  0  0  0  0  0  0  0  0
   18.1703   17.3815   11.6508 C   0  0  0  0  0  0  0  0  0  0  0  0
   17.0895   17.4626   12.7327 C   0  0  0  0  0  0  0  0  0  0  0  0
   16.2722   16.1767   12.8428 C   0  0  0  0  0  0  0  0  0  0  0  0
   15.0439   16.5947   13.6412 C   0  0  0  0  0  0  0  0  0  0  0  0
   14.8334   18.0788   13.3403 C   0  0  0  0  0  0  0  0  0  0  0  0
   16.0071   18.5087   12.4639 C   0  0  0  0  0  0  0  0  0  0  0  0
 21 22  1  0
 22  1  1  0
  1  2  2  0
  2  3  1  0
  3  4  2  0
  4 24  1  0
 24 25  1  0
 25 26  1  0
 26 28  1  0
 28 29  1  0
 29 30  1  0
 30 31  1  0
 31 32  1  0
 32 33  1  0
  4  5  1  0
  5  6  1  0
  6  7  2  0
  7  8  1  0
  7  9  1  0
  9 10  1  0
 10 11  2  0
 10 12  1  0
 12 13  1  0
 13 14  1  0
 13 15  2  0
 15 16  1  0
 16  1  1  0
 15  3  1  0
 33 29  1  0
 12  5  2  0
 22 23  1  0
 26 27  1  0
  8 17  1  0
  8 18  1  0
  9 19  1  0
 16 20  1  0
M  END
> <minimizedAffinity>
-6.14083

> <CNNscore>
0.1113636345

> <CNNaffinity>
5.2533888817

> <CNN_VS>
0.5850364566

> <CNNaffinity_variance>
0.0530969538

$$$$



 33 36  0  0  0  0  0  0  0  0999 V2000
   18.7791   18.2223   12.7568 C   0  0  0  0  0  0  0  0  0  0  0  0
   19.2401   19.4170   12.4847 N   0  0  0  0  0  0  0  0  0  0  0  0
   20.5424   19.2353   12.0783 C   0  0  0  0  0  0  0  0  0  0  0  0
   21.4930   20.1932   11.6754 C   0  0  0  0  0  0  0  0  0  0  0  0
   22.7899   19.7295   11.3336 C   0  0  0  0  0  0  0  0  0  0  0  0
   23.7472   20.6967   10.9664 N   0  0  0  0  0  0  0  0  0  0  0  0
   24.9421   20.3249   10.6586 C   0  0  0  0  0  0  0  0  0  0  0  0
   25.8787   21.2354   10.3038 N   0  0  0  0  0  0  0  0  0  0  0  0
   25.3255   19.0249   10.6805 N   0  0  0  0  0  0  0  0  0  0  0  0
   24.4838   17.9845   10.9816 C   0  0  0  0  0  0  0  0  0  0  0  0
   24.8967   16.8336   10.9141 O   0  0  0  0  0  0  0  0  0  0  0  0
   23.0996   18.3532   11.3696 C   0  0  0  0  0  0  0  0  0  0  0  0
   22.1394   17.4027   11.7548 C   0  0  0  0  0  0  0  0  0  0  0  0
   22.3932   15.7014   11.8495 Cl  0  0  0  0  0  0  0  0  0  0  0  0
   20.8792   17.8911   12.1056 C   0  0  0  0  0  0  0  0  0  0  0  0
   19.7293   17.2668   12.5252 N   0  0  0  0  0  0  0  0  0  0  0  0
   25.6484   22.1921   10.2731 H   0  0  0  0  0  0  0  0  0  0  0  0
   26.7902   20.9409   10.0765 H   0  0  0  0  0  0  0  0  0  0  0  0
   26.2636   18.8151   10.4676 H   0  0  0  0  0  0  0  0  0  0  0  0
   19.6098   16.2963   12.6396 H   0  0  0  0  0  0  0  0  0  0  0  0
   16.7663   16.8802   12.5132 C   0  0  0  0  0  0  0  0  0  0  0  0
   17.5314   17.9212   13.1687 N   0  0  0  0  0  0  0  0  0  0  0  0
   17.1357   18.4142   13.9235 H   0  0  0  0  0  0  0  0  0  0  0  0
   21.1507   21.6680   11.6463 C   0  0  0  0  0  0  0  0  0  0  0  0
   21.2219   22.2815   13.0515 C   0  0  0  0  0  0  0  0  0  0  0  0
   19.9717   22.9148   13.4974 N   0  0  0  0  0  0  0  0  0  0  0  0
   19.5352   22.3187   14.2008 H   0  0  0  0  0  0  0  0  0  0  0  0
   20.1941   24.2418   14.0775 C   0  0  0  0  0  0  0  0  0  0  0  0
   19.2969   24.4481   15.3013 C   0  0  0  0  0  0  0  0  0  0  0  0
   19.8487   25.4995   16.2625 C   0  0  0  0  0  0  0  0  0  0  0  0
   19.0679   25.2606   17.5487 C   0  0  0  0  0  0  0  0  0  0  0  0
   18.6949   23.7780   17.5434 C   0  0  0  0  0  0  0  0  0  0  0  0
   19.1728   23.2209   16.2049 C   0  0  0  0  0  0  0  0  0  0  0  0
 21 22  1  0
 22  1  1  0
  1  2  2  0
  2  3  1  0
  3  4  2  0
  4 24  1  0
 24 25  1  0
 25 26  1  0
 26 28  1  0
 28 29  1  0
 29 30  1  0
 30 31  1  0
 31 32  1  0
 32 33  1  0
  4  5  1  0
  5  6  1  0
  6  7  2  0
  7  8  1  0
  7  9  1  0
  9 10  1  0
 10 11  2  0
 10 12  1  0
 12 13  1  0
 13 14  1  0
 13 15  2  0
 15 16  1  0
 16  1  1  0
 15  3  1  0
 33 29  1  0
 12  5  2  0
 22 23  1  0
 26 27  1  0
  8 17  1  0
  8 18  1  0
  9 19  1  0
 16 20  1  0
M  END
> <minimizedAffinity>
-5.99446

> <CNNscore>
0.1028291956

> <CNNaffinity>
5.2512059212

> <CNN_VS>
0.5399772525

> <CNNaffinity_variance>
0.0274242237

$$$$



 33 36  0  0  0  0  0  0  0  0999 V2000
   12.0608   15.9585   17.9266 C   0  0  0  0  0  0  0  0  0  0  0  0
   12.4412   16.2938   16.7197 N   0  0  0  0  0  0  0  0  0  0  0  0
   13.7976   16.5130   16.7990 C   0  0  0  0  0  0  0  0  0  0  0  0
   14.6991   16.9002   15.7886 C   0  0  0  0  0  0  0  0  0  0  0  0
   16.0569   17.0891   16.1556 C   0  0  0  0  0  0  0  0  0  0  0  0
   16.9469   17.5120   15.1479 N   0  0  0  0  0  0  0  0  0  0  0  0
   18.1877   17.7080   15.4357 C   0  0  0  0  0  0  0  0  0  0  0  0
   19.0611   18.1151   14.4850 N   0  0  0  0  0  0  0  0  0  0  0  0
   18.6792   17.5296   16.6863 N   0  0  0  0  0  0  0  0  0  0  0  0
   17.9302   17.0846   17.7459 C   0  0  0  0  0  0  0  0  0  0  0  0
   18.4695   16.8886   18.8276 O   0  0  0  0  0  0  0  0  0  0  0  0
   16.4864   16.8658   17.4812 C   0  0  0  0  0  0  0  0  0  0  0  0
   15.5835   16.4614   18.4787 C   0  0  0  0  0  0  0  0  0  0  0  0
   15.9778   16.1667   20.1295 Cl  0  0  0  0  0  0  0  0  0  0  0  0
   14.2510   16.3044   18.0920 C   0  0  0  0  0  0  0  0  0  0  0  0
   13.1241   15.9342   18.7858 N   0  0  0  0  0  0  0  0  0  0  0  0
   18.7518   18.2585   13.5615 H   0  0  0  0  0  0  0  0  0  0  0  0
   20.0055   18.2677   14.7172 H   0  0  0  0  0  0  0  0  0  0  0  0
   19.6300   17.7312   16.8434 H   0  0  0  0  0  0  0  0  0  0  0  0
   13.0885   15.6925   19.7395 H   0  0  0  0  0  0  0  0  0  0  0  0
    9.9421   14.8744   17.4290 C   0  0  0  0  0  0  0  0  0  0  0  0
   10.8105   15.6297   18.3087 N   0  0  0  0  0  0  0  0  0  0  0  0
   10.4840   15.9059   19.1955 H   0  0  0  0  0  0  0  0  0  0  0  0
   14.2253   17.1426   14.3709 C   0  0  0  0  0  0  0  0  0  0  0  0
   14.1471   18.6439   14.0615 C   0  0  0  0  0  0  0  0  0  0  0  0
   13.0483   19.3441   14.7437 N   0  0  0  0  0  0  0  0  0  0  0  0
   12.9716   18.9848   15.6953 H   0  0  0  0  0  0  0  0  0  0  0  0
   13.2612   20.7926   14.8033 C   0  0  0  0  0  0  0  0  0  0  0  0
   12.4193   21.4116   15.9228 C   0  0  0  0  0  0  0  0  0  0  0  0
   11.1166   22.0215   15.4082 C   0  0  0  0  0  0  0  0  0  0  0  0
   10.6527   22.9086   16.5567 C   0  0  0  0  0  0  0  0  0  0  0  0
   11.9216   23.3386   17.2930 C   0  0  0  0  0  0  0  0  0  0  0  0
   13.0775   22.6024   16.6204 C   0  0  0  0  0  0  0  0  0  0  0  0
 21 22  1  0
 22  1  1  0
  1  2  2  0
  2  3  1  0
  3  4  2  0
  4 24  1  0
 24 25  1  0
 25 26  1  0
 26 28  1  0
 28 29  1  0
 29 30  1  0
 30 31  1  0
 31 32  1  0
 32 33  1  0
  4  5  1  0
  5  6  1  0
  6  7  2  0
  7  8  1  0
  7  9  1  0
  9 10  1  0
 10 11  2  0
 10 12  1  0
 12 13  1  0
 13 14  1  0
 13 15  2  0
 15 16  1  0
 16  1  1  0
 15  3  1  0
 33 29  1  0
 12  5  2  0
 22 23  1  0
 26 27  1  0
  8 17  1  0
  8 18  1  0
  9 19  1  0
 16 20  1  0
M  END
> <minimizedAffinity>
-7.99106

> <CNNscore>
0.1027882844

> <CNNaffinity>
4.8921399117

> <CNN_VS>
0.5028546453

> <CNNaffinity_variance>
1.3807430267

$$$$



 33 36  0  0  0  0  0  0  0  0999 V2000
   18.4935   18.2637   14.2600 C   0  0  0  0  0  0  0  0  0  0  0  0
   17.2904   17.8194   13.9974 N   0  0  0  0  0  0  0  0  0  0  0  0
   16.7958   17.3422   15.1897 C   0  0  0  0  0  0  0  0  0  0  0  0
   15.5471   16.7519   15.4651 C   0  0  0  0  0  0  0  0  0  0  0  0
   15.3050   16.3141   16.7930 C   0  0  0  0  0  0  0  0  0  0  0  0
   14.0678   15.6912   17.0538 N   0  0  0  0  0  0  0  0  0  0  0  0
   13.8069   15.2665   18.2422 C   0  0  0  0  0  0  0  0  0  0  0  0
   12.6261   14.6643   18.5165 N   0  0  0  0  0  0  0  0  0  0  0  0
   14.6874   15.3881   19.2656 N   0  0  0  0  0  0  0  0  0  0  0  0
   15.9068   16.0069   19.1556 C   0  0  0  0  0  0  0  0  0  0  0  0
   16.6137   16.1306   20.1478 O   0  0  0  0  0  0  0  0  0  0  0  0
   16.2741   16.4944   17.8029 C   0  0  0  0  0  0  0  0  0  0  0  0
   17.5099   17.1013   17.5233 C   0  0  0  0  0  0  0  0  0  0  0  0
   18.7761   17.3696   18.6600 Cl  0  0  0  0  0  0  0  0  0  0  0  0
   17.7271   17.5023   16.2035 C   0  0  0  0  0  0  0  0  0  0  0  0
   18.7937   18.1091   15.5850 N   0  0  0  0  0  0  0  0  0  0  0  0
   11.9538   14.5525   17.8061 H   0  0  0  0  0  0  0  0  0  0  0  0
   12.4396   14.3381   19.4265 H   0  0  0  0  0  0  0  0  0  0  0  0
   14.4370   15.0100   20.1394 H   0  0  0  0  0  0  0  0  0  0  0  0
   19.6316   18.3856   16.0217 H   0  0  0  0  0  0  0  0  0  0  0  0
   20.3111   18.0508   12.6592 C   0  0  0  0  0  0  0  0  0  0  0  0
   19.3405   18.8434   13.3861 N   0  0  0  0  0  0  0  0  0  0  0  0
   19.2991   19.8161   13.2403 H   0  0  0  0  0  0  0  0  0  0  0  0
   14.5173   16.5585   14.3717 C   0  0  0  0  0  0  0  0  0  0  0  0
   13.9365   17.9031   13.9129 C   0  0  0  0  0  0  0  0  0  0  0  0
   12.6117   18.2106   14.4728 N   0  0  0  0  0  0  0  0  0  0  0  0
   12.7290   18.5352   15.4327 H   0  0  0  0  0  0  0  0  0  0  0  0
   11.9091   19.2448   13.7088 C   0  0  0  0  0  0  0  0  0  0  0  0
   12.0785   20.6120   14.3774 C   0  0  0  0  0  0  0  0  0  0  0  0
   12.3019   20.5041   15.8847 C   0  0  0  0  0  0  0  0  0  0  0  0
   12.0380   21.9160   16.3927 C   0  0  0  0  0  0  0  0  0  0  0  0
   11.0438   22.5358   15.4105 C   0  0  0  0  0  0  0  0  0  0  0  0
   10.8421   21.5083   14.2996 C   0  0  0  0  0  0  0  0  0  0  0  0
 21 22  1  0
 22  1  1  0
  1  2  2  0
  2  3  1  0
  3  4  2  0
  4 24  1  0
 24 25  1  0
 25 26  1  0
 26 28  1  0
 28 29  1  0
 29 30  1  0
 30 31  1  0
 31 32  1  0
 32 33  1  0
  4  5  1  0
  5  6  1  0
  6  7  2  0
  7  8  1  0
  7  9  1  0
  9 10  1  0
 10 11  2  0
 10 12  1  0
 12 13  1  0
 13 14  1  0
 13 15  2  0
 15 16  1  0
 16  1  1  0
 15  3  1  0
 33 29  1  0
 12  5  2  0
 22 23  1  0
 26 27  1  0
  8 17  1  0
  8 18  1  0
  9 19  1  0
 16 20  1  0
M  END
> <minimizedAffinity>
-7.54057

> <CNNscore>
0.0988756344

> <CNNaffinity>
4.7176337242

> <CNN_VS>
0.4664590359

> <CNNaffinity_variance>
1.4530749321

$$$$



 33 36  0  0  0  0  0  0  0  0999 V2000
   14.6174   15.5840   17.0337 C   0  0  0  0  0  0  0  0  0  0  0  0
   15.8919   15.8819   17.0086 N   0  0  0  0  0  0  0  0  0  0  0  0
   16.0273   16.8817   16.0726 C   0  0  0  0  0  0  0  0  0  0  0  0
   17.1885   17.5589   15.6523 C   0  0  0  0  0  0  0  0  0  0  0  0
   17.0471   18.5376   14.6345 C   0  0  0  0  0  0  0  0  0  0  0  0
   18.2181   19.1857   14.1926 N   0  0  0  0  0  0  0  0  0  0  0  0
   18.1417   20.0739   13.2620 C   0  0  0  0  0  0  0  0  0  0  0  0
   19.2525   20.7089   12.8206 N   0  0  0  0  0  0  0  0  0  0  0  0
   16.9668   20.4112   12.6760 N   0  0  0  0  0  0  0  0  0  0  0  0
   15.7528   19.8854   13.0388 C   0  0  0  0  0  0  0  0  0  0  0  0
   14.7317   20.2946   12.5009 O   0  0  0  0  0  0  0  0  0  0  0  0
   15.7805   18.8375   14.0892 C   0  0  0  0  0  0  0  0  0  0  0  0
   14.6247   18.1702   14.5279 C   0  0  0  0  0  0  0  0  0  0  0  0
   13.0280   18.4355   13.9382 Cl  0  0  0  0  0  0  0  0  0  0  0  0
   14.7985   17.1979   15.5149 C   0  0  0  0  0  0  0  0  0  0  0  0
   13.9147   16.3666   16.1600 N   0  0  0  0  0  0  0  0  0  0  0  0
   20.1296   20.4982   13.2151 H   0  0  0  0  0  0  0  0  0  0  0  0
   19.1835   21.3814   12.1049 H   0  0  0  0  0  0  0  0  0  0  0  0
   16.9859   21.0726   11.9470 H   0  0  0  0  0  0  0  0  0  0  0  0
   12.9410   16.3392   16.0174 H   0  0  0  0  0  0  0  0  0  0  0  0
   14.7449   14.0731   18.9344 C   0  0  0  0  0  0  0  0  0  0  0  0
   14.0252   14.6695   17.8276 N   0  0  0  0  0  0  0  0  0  0  0  0
   13.0933   14.4041   17.6534 H   0  0  0  0  0  0  0  0  0  0  0  0
   18.5431   17.2242   16.2408 C   0  0  0  0  0  0  0  0  0  0  0  0
   18.6660   17.7438   17.6798 C   0  0  0  0  0  0  0  0  0  0  0  0
   18.3180   16.7540   18.7104 N   0  0  0  0  0  0  0  0  0  0  0  0
   18.5209   15.8213   18.3507 H   0  0  0  0  0  0  0  0  0  0  0  0
   19.0698   16.9533   19.9522 C   0  0  0  0  0  0  0  0  0  0  0  0
   18.2230   16.5462   21.1616 C   0  0  0  0  0  0  0  0  0  0  0  0
   16.7265   16.5419   20.8550 C   0  0  0  0  0  0  0  0  0  0  0  0
   16.0741   16.5219   22.2316 C   0  0  0  0  0  0  0  0  0  0  0  0
   17.0616   17.2111   23.1734 C   0  0  0  0  0  0  0  0  0  0  0  0
   18.3058   17.5140   22.3424 C   0  0  0  0  0  0  0  0  0  0  0  0
 21 22  1  0
 22  1  1  0
  1  2  2  0
  2  3  1  0
  3  4  2  0
  4 24  1  0
 24 25  1  0
 25 26  1  0
 26 28  1  0
 28 29  1  0
 29 30  1  0
 30 31  1  0
 31 32  1  0
 32 33  1  0
  4  5  1  0
  5  6  1  0
  6  7  2  0
  7  8  1  0
  7  9  1  0
  9 10  1  0
 10 11  2  0
 10 12  1  0
 12 13  1  0
 13 14  1  0
 13 15  2  0
 15 16  1  0
 16  1  1  0
 15  3  1  0
 33 29  1  0
 12  5  2  0
 22 23  1  0
 26 27  1  0
  8 17  1  0
  8 18  1  0
  9 19  1  0
 16 20  1  0
M  END
> <minimizedAffinity>
-7.06317

> <CNNscore>
0.0977592692

> <CNNaffinity>
4.8798346519

> <CNN_VS>
0.4770490825

> <CNNaffinity_variance>
1.5372594595

$$$$
