


 17 18  0  0  0  0  0  0  0  0999 V2000
   14.0891   15.7136   19.3038 C   0  0  0  0  0  0  0  0  0  0  0  0
   15.4177   16.3663   19.5656 C   0  0  0  0  0  0  0  0  0  0  0  0
   16.2442   16.7054   18.4797 C   0  0  0  0  0  0  0  0  0  0  0  0
   17.4932   17.2934   18.6913 C   0  0  0  0  0  0  0  0  0  0  0  0
   18.5829   17.7317   17.2101 Br  0  0  0  0  0  0  0  0  0  0  0  0
   17.9438   17.5520   19.9796 C   0  0  0  0  0  0  0  0  0  0  0  0
   17.1233   17.2232   21.0622 C   0  0  0  0  0  0  0  0  0  0  0  0
   17.5649   17.4804   22.4603 C   0  0  0  0  0  0  0  0  0  0  0  0
   18.6932   17.9284   22.6388 O   0  0  0  0  0  0  0  0  0  0  0  0
   16.7014   17.2206   23.5032 N   0  0  0  0  0  0  0  0  0  0  0  0
   15.5711   16.6647   23.2293 C   0  0  0  0  0  0  0  0  0  0  0  0
   14.6869   16.3906   24.2214 N   0  0  0  0  0  0  0  0  0  0  0  0
   15.1160   16.2855   22.0065 N   0  0  0  0  0  0  0  0  0  0  0  0
   15.8544   16.6532   20.8716 C   0  0  0  0  0  0  0  0  0  0  0  0
   14.9060   16.6203   25.1534 H   0  0  0  0  0  0  0  0  0  0  0  0
   13.8263   15.9621   24.0093 H   0  0  0  0  0  0  0  0  0  0  0  0
   14.2857   15.7639   21.9187 H   0  0  0  0  0  0  0  0  0  0  0  0
  1  2  1  0
  2  3  2  0
  3  4  1  0
  4  5  1  0
  4  6  2  0
  6  7  1  0
  7  8  1  0
  8  9  2  0
  8 10  1  0
 10 11  2  0
 11 12  1  0
 11 13  1  0
 13 14  1  0
 14  2  1  0
 14  7  2  0
 12 15  1  0
 12 16  1  0
 13 17  1  0
M  END
> <minimizedAffinity>
-6.93329

> <CNNscore>
0.9708400965

> <CNNaffinity>
5.8700184822

> <CNN_VS>
5.6988492012

> <CNNaffinity_variance>
0.1429230273

$$$$



 17 18  0  0  0  0  0  0  0  0999 V2000
   15.4488   17.9995   15.5952 C   0  0  0  0  0  0  0  0  0  0  0  0
   14.0218   18.4393   15.4223 C   0  0  0  0  0  0  0  0  0  0  0  0
   13.7519   19.7598   15.0214 C   0  0  0  0  0  0  0  0  0  0  0  0
   12.4364   20.2046   14.8726 C   0  0  0  0  0  0  0  0  0  0  0  0
   12.1073   21.9877   14.3380 Br  0  0  0  0  0  0  0  0  0  0  0  0
   11.3691   19.3508   15.1208 C   0  0  0  0  0  0  0  0  0  0  0  0
   11.6319   18.0352   15.5129 C   0  0  0  0  0  0  0  0  0  0  0  0
   10.5201   17.0852   15.7911 C   0  0  0  0  0  0  0  0  0  0  0  0
    9.3690   17.5058   15.7297 O   0  0  0  0  0  0  0  0  0  0  0  0
   10.8100   15.7725   16.0969 N   0  0  0  0  0  0  0  0  0  0  0  0
   12.0486   15.4411   16.2301 C   0  0  0  0  0  0  0  0  0  0  0  0
   12.3844   14.1609   16.5291 N   0  0  0  0  0  0  0  0  0  0  0  0
   13.1338   16.2499   16.1104 N   0  0  0  0  0  0  0  0  0  0  0  0
   12.9465   17.5604   15.6457 C   0  0  0  0  0  0  0  0  0  0  0  0
   11.6813   13.4808   16.6409 H   0  0  0  0  0  0  0  0  0  0  0  0
   13.3311   13.9120   16.6343 H   0  0  0  0  0  0  0  0  0  0  0  0
   14.0324   15.9233   16.3448 H   0  0  0  0  0  0  0  0  0  0  0  0
  1  2  1  0
  2  3  2  0
  3  4  1  0
  4  5  1  0
  4  6  2  0
  6  7  1  0
  7  8  1  0
  8  9  2  0
  8 10  1  0
 10 11  2  0
 11 12  1  0
 11 13  1  0
 13 14  1  0
 14  2  1  0
 14  7  2  0
 12 15  1  0
 12 16  1  0
 13 17  1  0
M  END
> <minimizedAffinity>
-5.72548

> <CNNscore>
0.4849591851

> <CNNaffinity>
4.7671456337

> <CNN_VS>
2.3118710518

> <CNNaffinity_variance>
0.0575150065

$$$$



 17 18  0  0  0  0  0  0  0  0999 V2000
   13.6439   21.2238   15.5049 C   0  0  0  0  0  0  0  0  0  0  0  0
   12.2863   20.6832   15.1520 C   0  0  0  0  0  0  0  0  0  0  0  0
   11.4799   21.3882   14.2410 C   0  0  0  0  0  0  0  0  0  0  0  0
   10.2055   20.9229   13.9092 C   0  0  0  0  0  0  0  0  0  0  0  0
    9.1440   21.8973   12.6857 Br  0  0  0  0  0  0  0  0  0  0  0  0
    9.7095   19.7554   14.4754 C   0  0  0  0  0  0  0  0  0  0  0  0
   10.5098   19.0471   15.3762 C   0  0  0  0  0  0  0  0  0  0  0  0
   10.0196   17.7920   16.0089 C   0  0  0  0  0  0  0  0  0  0  0  0
    8.8717   17.4313   15.7683 O   0  0  0  0  0  0  0  0  0  0  0  0
   10.8615   17.0726   16.8301 N   0  0  0  0  0  0  0  0  0  0  0  0
   12.0179   17.5740   17.1004 C   0  0  0  0  0  0  0  0  0  0  0  0
   12.8824   16.9029   17.9026 N   0  0  0  0  0  0  0  0  0  0  0  0
   12.5207   18.7606   16.6700 N   0  0  0  0  0  0  0  0  0  0  0  0
   11.8028   19.4840   15.7058 C   0  0  0  0  0  0  0  0  0  0  0  0
   12.6289   16.0283   18.2768 H   0  0  0  0  0  0  0  0  0  0  0  0
   13.7632   17.2906   18.1104 H   0  0  0  0  0  0  0  0  0  0  0  0
   13.3709   19.1054   17.0271 H   0  0  0  0  0  0  0  0  0  0  0  0
  1  2  1  0
  2  3  2  0
  3  4  1  0
  4  5  1  0
  4  6  2  0
  6  7  1  0
  7  8  1  0
  8  9  2  0
  8 10  1  0
 10 11  2  0
 11 12  1  0
 11 13  1  0
 13 14  1  0
 14  2  1  0
 14  7  2  0
 12 15  1  0
 12 16  1  0
 13 17  1  0
M  END
> <minimizedAffinity>
-5.51037

> <CNNscore>
0.4824950099

> <CNNaffinity>
4.4606814384

> <CNN_VS>
2.1522564888

> <CNNaffinity_variance>
0.0822419450

$$$$



 17 18  0  0  0  0  0  0  0  0999 V2000
   20.9211   20.5543   12.4359 C   0  0  0  0  0  0  0  0  0  0  0  0
   20.2149   19.2908   12.0302 C   0  0  0  0  0  0  0  0  0  0  0  0
   18.8634   19.1157   12.3768 C   0  0  0  0  0  0  0  0  0  0  0  0
   18.1857   17.9440   12.0328 C   0  0  0  0  0  0  0  0  0  0  0  0
   16.3706   17.7370   12.5188 Br  0  0  0  0  0  0  0  0  0  0  0  0
   18.8354   16.9278   11.3436 C   0  0  0  0  0  0  0  0  0  0  0  0
   20.1768   17.0997   10.9906 C   0  0  0  0  0  0  0  0  0  0  0  0
   20.9141   16.0374   10.2532 C   0  0  0  0  0  0  0  0  0  0  0  0
   20.3323   14.9824   10.0209 O   0  0  0  0  0  0  0  0  0  0  0  0
   22.2114   16.2686    9.8480 N   0  0  0  0  0  0  0  0  0  0  0  0
   22.7739   17.3686   10.2159 C   0  0  0  0  0  0  0  0  0  0  0  0
   24.0489   17.6421    9.8407 N   0  0  0  0  0  0  0  0  0  0  0  0
   22.2336   18.3525   10.9814 N   0  0  0  0  0  0  0  0  0  0  0  0
   20.8705   18.2791   11.3056 C   0  0  0  0  0  0  0  0  0  0  0  0
   24.5459   17.0015    9.2823 H   0  0  0  0  0  0  0  0  0  0  0  0
   24.4769   18.4812   10.1269 H   0  0  0  0  0  0  0  0  0  0  0  0
   22.7869   19.1011   11.3019 H   0  0  0  0  0  0  0  0  0  0  0  0
  1  2  1  0
  2  3  2  0
  3  4  1  0
  4  5  1  0
  4  6  2  0
  6  7  1  0
  7  8  1  0
  8  9  2  0
  8 10  1  0
 10 11  2  0
 11 12  1  0
 11 13  1  0
 13 14  1  0
 14  2  1  0
 14  7  2  0
 12 15  1  0
 12 16  1  0
 13 17  1  0
M  END
> <minimizedAffinity>
-5.09892

> <CNNscore>
0.4362419844

> <CNNaffinity>
4.0581555367

> <CNN_VS>
1.7703378201

> <CNNaffinity_variance>
0.0393180065

$$$$



 17 18  0  0  0  0  0  0  0  0999 V2000
   20.9141   20.7141   12.2248 C   0  0  0  0  0  0  0  0  0  0  0  0
   20.7594   19.2665   11.8502 C   0  0  0  0  0  0  0  0  0  0  0  0
   19.5614   18.8337   11.2545 C   0  0  0  0  0  0  0  0  0  0  0  0
   19.3792   17.4914   10.9145 C   0  0  0  0  0  0  0  0  0  0  0  0
   17.7545   16.9406   10.1204 Br  0  0  0  0  0  0  0  0  0  0  0  0
   20.3777   16.5576   11.1611 C   0  0  0  0  0  0  0  0  0  0  0  0
   21.5730   16.9839   11.7468 C   0  0  0  0  0  0  0  0  0  0  0  0
   22.6702   16.0188   12.0311 C   0  0  0  0  0  0  0  0  0  0  0  0
   22.4724   14.8307   11.7973 O   0  0  0  0  0  0  0  0  0  0  0  0
   23.8675   16.4818   12.5340 N   0  0  0  0  0  0  0  0  0  0  0  0
   23.9545   17.7320   12.8360 C   0  0  0  0  0  0  0  0  0  0  0  0
   25.1126   18.2354   13.3327 N   0  0  0  0  0  0  0  0  0  0  0  0
   22.9825   18.6747   12.7237 N   0  0  0  0  0  0  0  0  0  0  0  0
   21.7866   18.3322   12.0749 C   0  0  0  0  0  0  0  0  0  0  0  0
   25.8910   17.6461   13.4596 H   0  0  0  0  0  0  0  0  0  0  0  0
   25.1743   19.1898   13.5662 H   0  0  0  0  0  0  0  0  0  0  0  0
   23.1146   19.5790   13.0899 H   0  0  0  0  0  0  0  0  0  0  0  0
  1  2  1  0
  2  3  2  0
  3  4  1  0
  4  5  1  0
  4  6  2  0
  6  7  1  0
  7  8  1  0
  8  9  2  0
  8 10  1  0
 10 11  2  0
 11 12  1  0
 11 13  1  0
 13 14  1  0
 14  2  1  0
 14  7  2  0
 12 15  1  0
 12 16  1  0
 13 17  1  0
M  END
> <minimizedAffinity>
-5.71936

> <CNNscore>
0.3897743225

> <CNNaffinity>
3.8427746296

> <CNN_VS>
1.4978148937

> <CNNaffinity_variance>
0.2952859104

$$$$



 17 18  0  0  0  0  0  0  0  0999 V2000
   12.1177   20.7575   17.0487 C   0  0  0  0  0  0  0  0  0  0  0  0
   11.4072   19.6436   16.3317 C   0  0  0  0  0  0  0  0  0  0  0  0
   10.4630   19.9563   15.3378 C   0  0  0  0  0  0  0  0  0  0  0  0
    9.7710   18.9443   14.6688 C   0  0  0  0  0  0  0  0  0  0  0  0
    8.5035   19.3983   13.3418 Br  0  0  0  0  0  0  0  0  0  0  0  0
   10.0008   17.6090   14.9749 C   0  0  0  0  0  0  0  0  0  0  0  0
   10.9434   17.2925   15.9572 C   0  0  0  0  0  0  0  0  0  0  0  0
   11.2217   15.8757   16.3196 C   0  0  0  0  0  0  0  0  0  0  0  0
   10.5561   14.9976   15.7795 O   0  0  0  0  0  0  0  0  0  0  0  0
   12.2140   15.5916   17.2336 N   0  0  0  0  0  0  0  0  0  0  0  0
   12.7987   16.5799   17.8193 C   0  0  0  0  0  0  0  0  0  0  0  0
   13.7826   16.3512   18.7254 N   0  0  0  0  0  0  0  0  0  0  0  0
   12.5457   17.9038   17.6480 N   0  0  0  0  0  0  0  0  0  0  0  0
   11.6674   18.2928   16.6254 C   0  0  0  0  0  0  0  0  0  0  0  0
   14.0548   15.4284   18.9341 H   0  0  0  0  0  0  0  0  0  0  0  0
   14.2242   17.1081   19.1740 H   0  0  0  0  0  0  0  0  0  0  0  0
   12.9697   18.5759   18.2292 H   0  0  0  0  0  0  0  0  0  0  0  0
  1  2  1  0
  2  3  2  0
  3  4  1  0
  4  5  1  0
  4  6  2  0
  6  7  1  0
  7  8  1  0
  8  9  2  0
  8 10  1  0
 10 11  2  0
 11 12  1  0
 11 13  1  0
 13 14  1  0
 14  2  1  0
 14  7  2  0
 12 15  1  0
 12 16  1  0
 13 17  1  0
M  END
> <minimizedAffinity>
-5.88472

> <CNNscore>
0.2827472091

> <CNNaffinity>
3.9451637268

> <CNN_VS>
1.1154839993

> <CNNaffinity_variance>
0.5885591507

$$$$



 17 18  0  0  0  0  0  0  0  0999 V2000
   14.4566   15.5349   18.2975 C   0  0  0  0  0  0  0  0  0  0  0  0
   15.3844   16.1995   19.2759 C   0  0  0  0  0  0  0  0  0  0  0  0
   15.1312   16.0815   20.6541 C   0  0  0  0  0  0  0  0  0  0  0  0
   15.9626   16.7050   21.5872 C   0  0  0  0  0  0  0  0  0  0  0  0
   15.5914   16.5319   23.4326 Br  0  0  0  0  0  0  0  0  0  0  0  0
   17.0545   17.4561   21.1707 C   0  0  0  0  0  0  0  0  0  0  0  0
   17.3145   17.5708   19.8022 C   0  0  0  0  0  0  0  0  0  0  0  0
   18.4721   18.3666   19.3095 C   0  0  0  0  0  0  0  0  0  0  0  0
   19.1525   18.9710   20.1324 O   0  0  0  0  0  0  0  0  0  0  0  0
   18.7505   18.3946   17.9595 N   0  0  0  0  0  0  0  0  0  0  0  0
   17.9287   17.8063   17.1594 C   0  0  0  0  0  0  0  0  0  0  0  0
   18.1604   17.8051   15.8224 N   0  0  0  0  0  0  0  0  0  0  0  0
   16.7860   17.1501   17.4906 N   0  0  0  0  0  0  0  0  0  0  0  0
   16.5058   16.9330   18.8481 C   0  0  0  0  0  0  0  0  0  0  0  0
   18.9604   18.2508   15.4610 H   0  0  0  0  0  0  0  0  0  0  0  0
   17.5285   17.3585   15.2137 H   0  0  0  0  0  0  0  0  0  0  0  0
   16.1678   16.8336   16.7928 H   0  0  0  0  0  0  0  0  0  0  0  0
  1  2  1  0
  2  3  2  0
  3  4  1  0
  4  5  1  0
  4  6  2  0
  6  7  1  0
  7  8  1  0
  8  9  2  0
  8 10  1  0
 10 11  2  0
 11 12  1  0
 11 13  1  0
 13 14  1  0
 14  2  1  0
 14  7  2  0
 12 15  1  0
 12 16  1  0
 13 17  1  0
M  END
> <minimizedAffinity>
-5.33045

> <CNNscore>
0.2516241670

> <CNNaffinity>
4.1825003624

> <CNN_VS>
1.0524181128

> <CNNaffinity_variance>
0.4758319855

$$$$



 17 18  0  0  0  0  0  0  0  0999 V2000
   21.3757   20.6486   12.5305 C   0  0  0  0  0  0  0  0  0  0  0  0
   22.0230   19.3172   12.2695 C   0  0  0  0  0  0  0  0  0  0  0  0
   23.4008   19.1635   12.5049 C   0  0  0  0  0  0  0  0  0  0  0  0
   24.0353   17.9452   12.2520 C   0  0  0  0  0  0  0  0  0  0  0  0
   25.8901   17.7730   12.5733 Br  0  0  0  0  0  0  0  0  0  0  0  0
   23.3170   16.8626   11.7603 C   0  0  0  0  0  0  0  0  0  0  0  0
   21.9459   17.0081   11.5311 C   0  0  0  0  0  0  0  0  0  0  0  0
   21.1360   15.8761   11.0033 C   0  0  0  0  0  0  0  0  0  0  0  0
   21.7155   14.8338   10.7144 O   0  0  0  0  0  0  0  0  0  0  0  0
   19.7724   16.0244   10.8643 N   0  0  0  0  0  0  0  0  0  0  0  0
   19.2618   17.1835   11.1042 C   0  0  0  0  0  0  0  0  0  0  0  0
   17.9245   17.3787   10.9827 N   0  0  0  0  0  0  0  0  0  0  0  0
   19.9208   18.3105   11.4803 N   0  0  0  0  0  0  0  0  0  0  0  0
   21.2835   18.2164   11.8007 C   0  0  0  0  0  0  0  0  0  0  0  0
   17.3405   16.6329   10.7148 H   0  0  0  0  0  0  0  0  0  0  0  0
   17.5383   18.2663   11.1626 H   0  0  0  0  0  0  0  0  0  0  0  0
   19.4520   19.1750   11.5272 H   0  0  0  0  0  0  0  0  0  0  0  0
  1  2  1  0
  2  3  2  0
  3  4  1  0
  4  5  1  0
  4  6  2  0
  6  7  1  0
  7  8  1  0
  8  9  2  0
  8 10  1  0
 10 11  2  0
 11 12  1  0
 11 13  1  0
 13 14  1  0
 14  2  1  0
 14  7  2  0
 12 15  1  0
 12 16  1  0
 13 17  1  0
M  END
> <minimizedAffinity>
-5.31279

> <CNNscore>
0.2431947589

> <CNNaffinity>
3.7726800442

> <CNN_VS>
0.9174960256

> <CNNaffinity_variance>
0.3773265183

$$$$



 17 18  0  0  0  0  0  0  0  0999 V2000
   11.8043   20.2391   16.9713 C   0  0  0  0  0  0  0  0  0  0  0  0
   12.5866   19.4836   15.9335 C   0  0  0  0  0  0  0  0  0  0  0  0
   13.2891   20.1971   14.9463 C   0  0  0  0  0  0  0  0  0  0  0  0
   14.0076   19.5235   13.9560 C   0  0  0  0  0  0  0  0  0  0  0  0
   14.9366   20.5121   12.6394 Br  0  0  0  0  0  0  0  0  0  0  0  0
   14.0395   18.1351   13.9263 C   0  0  0  0  0  0  0  0  0  0  0  0
   13.3485   17.4212   14.9094 C   0  0  0  0  0  0  0  0  0  0  0  0
   13.3530   15.9326   14.9166 C   0  0  0  0  0  0  0  0  0  0  0  0
   13.9250   15.3501   14.0006 O   0  0  0  0  0  0  0  0  0  0  0  0
   12.7304   15.2573   15.9448 N   0  0  0  0  0  0  0  0  0  0  0  0
   12.0757   15.9482   16.8141 C   0  0  0  0  0  0  0  0  0  0  0  0
   11.4475   15.3292   17.8452 N   0  0  0  0  0  0  0  0  0  0  0  0
   11.9126   17.2969   16.8388 N   0  0  0  0  0  0  0  0  0  0  0  0
   12.6395   18.0780   15.9278 C   0  0  0  0  0  0  0  0  0  0  0  0
   11.4943   14.3498   17.9335 H   0  0  0  0  0  0  0  0  0  0  0  0
   10.9448   15.8595   18.5051 H   0  0  0  0  0  0  0  0  0  0  0  0
   11.2974   17.7171   17.4824 H   0  0  0  0  0  0  0  0  0  0  0  0
  1  2  1  0
  2  3  2  0
  3  4  1  0
  4  5  1  0
  4  6  2  0
  6  7  1  0
  7  8  1  0
  8  9  2  0
  8 10  1  0
 10 11  2  0
 11 12  1  0
 11 13  1  0
 13 14  1  0
 14  2  1  0
 14  7  2  0
 12 15  1  0
 12 16  1  0
 13 17  1  0
M  END
> <minimizedAffinity>
-5.52811

> <CNNscore>
0.2065228373

> <CNNaffinity>
4.2534189224

> <CNN_VS>
0.8784281611

> <CNNaffinity_variance>
0.0975717977

$$$$
