


 32 35  0  0  0  0  0  0  0  0999 V2000
   23.8722    5.7658   15.2331 C   0  0  0  0  0  0  0  0  0  0  0  0
   21.6071    4.7929    9.7155 C   0  0  0  0  0  0  0  0  0  0  0  0
   20.3688    4.8961   10.3981 C   0  0  0  0  0  0  0  0  0  0  0  0
   20.3210    5.1513   11.7740 C   0  0  0  0  0  0  0  0  0  0  0  0
   21.5275    5.2998   12.4284 C   0  0  0  0  0  0  0  0  0  0  0  0
   22.7374    5.2003   11.7655 C   0  0  0  0  0  0  0  0  0  0  0  0
   22.8169    4.9457   10.4095 C   0  0  0  0  0  0  0  0  0  0  0  0
   23.7956    5.3941   12.7541 C   0  0  0  0  0  0  0  0  0  0  0  0
   24.9832    5.3113   12.5088 O   0  0  0  0  0  0  0  0  0  0  0  0
   23.1769    5.6496   13.9477 N   0  0  0  0  0  0  0  0  0  0  0  0
   21.8166    5.5592   13.8374 C   0  0  0  0  0  0  0  0  0  0  0  0
   20.9676    5.6598   14.7011 O   0  0  0  0  0  0  0  0  0  0  0  0
   22.3734    4.9333    7.4396 O   0  0  0  0  0  0  0  0  0  0  0  0
   21.5751    4.5183    8.2579 C   0  0  0  0  0  0  0  0  0  0  0  0
   20.5431    3.7355    7.9026 O   0  0  0  0  0  0  0  0  0  0  0  0
   19.9420    3.4290    8.5528 H   0  0  0  0  0  0  0  0  0  0  0  0
   25.0122    6.7857   15.1256 C   0  0  0  0  0  0  0  0  0  0  0  0
   25.1828    7.5867   14.2186 O   0  0  0  0  0  0  0  0  0  0  0  0
   25.8629    6.8003   16.1763 O   0  0  0  0  0  0  0  0  0  0  0  0
   25.7476    6.1936   16.8809 H   0  0  0  0  0  0  0  0  0  0  0  0
   22.9184    6.1250   16.3860 C   0  0  0  0  0  0  0  0  0  0  0  0
   22.4527    7.5717   16.3413 C   0  0  0  0  0  0  0  0  0  0  0  0
   23.1281    8.4511   15.4772 C   0  0  0  0  0  0  0  0  0  0  0  0
   22.7628    9.7897   15.3927 C   0  0  0  0  0  0  0  0  0  0  0  0
   21.7165   10.2735   16.1711 C   0  0  0  0  0  0  0  0  0  0  0  0
   21.0219    9.4275   17.0465 C   0  0  0  0  0  0  0  0  0  0  0  0
   19.9729    9.9402   17.8244 C   0  0  0  0  0  0  0  0  0  0  0  0
   19.2789    9.1147   18.6976 C   0  0  0  0  0  0  0  0  0  0  0  0
   18.2804    9.6209   19.4329 F   0  0  0  0  0  0  0  0  0  0  0  0
   19.6049    7.7752   18.8183 C   0  0  0  0  0  0  0  0  0  0  0  0
   20.6455    7.2501   18.0492 C   0  0  0  0  0  0  0  0  0  0  0  0
   21.3815    8.0559   17.1462 C   0  0  0  0  0  0  0  0  0  0  0  0
 13 14  2  0
 14 15  1  0
 14  2  1  0
  2  3  2  0
  3  4  1  0
  4  5  2  0
  5  6  1  0
  6  7  2  0
  6  8  1  0
  8  9  2  0
  8 10  1  0
 10  1  1  0
  1 21  1  0
 21 22  1  0
 22 23  2  0
 23 24  1  0
 24 25  2  0
 25 26  1  0
 26 27  2  0
 27 28  1  0
 28 29  1  0
 28 30  2  0
 30 31  1  0
 31 32  2  0
  1 17  1  0
 17 18  2  0
 17 19  1  0
 10 11  1  0
 11 12  2  0
  7  2  1  0
 32 22  1  0
 11  5  1  0
 32 26  1  0
 15 16  1  0
 19 20  1  0
M  END
> <minimizedAffinity>
-7.82663

> <CNNscore>
0.5281109214

> <CNNaffinity>
4.7066779137

> <CNN_VS>
2.4856479168

> <CNNaffinity_variance>
0.1493159980

$$$$



 32 35  0  0  0  0  0  0  0  0999 V2000
   18.1552    7.7335   20.6346 C   0  0  0  0  0  0  0  0  0  0  0  0
   23.4144    5.8203   18.3538 C   0  0  0  0  0  0  0  0  0  0  0  0
   23.5179    5.1658   19.6071 C   0  0  0  0  0  0  0  0  0  0  0  0
   22.4993    5.2683   20.5624 C   0  0  0  0  0  0  0  0  0  0  0  0
   21.3968    6.0284   20.2269 C   0  0  0  0  0  0  0  0  0  0  0  0
   21.2922    6.6679   19.0049 C   0  0  0  0  0  0  0  0  0  0  0  0
   22.2819    6.5886   18.0437 C   0  0  0  0  0  0  0  0  0  0  0  0
   20.0189    7.3843   18.9932 C   0  0  0  0  0  0  0  0  0  0  0  0
   19.6443    8.0968   18.0824 O   0  0  0  0  0  0  0  0  0  0  0  0
   19.3984    7.1033   20.1800 N   0  0  0  0  0  0  0  0  0  0  0  0
   20.1892    6.3363   20.9906 C   0  0  0  0  0  0  0  0  0  0  0  0
   19.9858    5.9585   22.1277 O   0  0  0  0  0  0  0  0  0  0  0  0
   25.5256    6.3711   17.3408 O   0  0  0  0  0  0  0  0  0  0  0  0
   24.5364    5.6657   17.3954 C   0  0  0  0  0  0  0  0  0  0  0  0
   24.3594    4.6325   16.5558 O   0  0  0  0  0  0  0  0  0  0  0  0
   23.5880    4.1043   16.6189 H   0  0  0  0  0  0  0  0  0  0  0  0
   17.1805    7.8843   19.4604 C   0  0  0  0  0  0  0  0  0  0  0  0
   16.4850    7.0017   18.9801 O   0  0  0  0  0  0  0  0  0  0  0  0
   17.0747    9.1385   18.9667 O   0  0  0  0  0  0  0  0  0  0  0  0
   17.6001    9.8279   19.3226 H   0  0  0  0  0  0  0  0  0  0  0  0
   17.5012    6.9691   21.7989 C   0  0  0  0  0  0  0  0  0  0  0  0
   16.5096    7.8156   22.5812 C   0  0  0  0  0  0  0  0  0  0  0  0
   15.1402    7.5504   22.4060 C   0  0  0  0  0  0  0  0  0  0  0  0
   14.1774    8.2917   23.0812 C   0  0  0  0  0  0  0  0  0  0  0  0
   14.5661    9.3120   23.9430 C   0  0  0  0  0  0  0  0  0  0  0  0
   15.9218    9.6077   24.1406 C   0  0  0  0  0  0  0  0  0  0  0  0
   16.2884   10.6446   25.0117 C   0  0  0  0  0  0  0  0  0  0  0  0
   17.6268   10.9501   25.2141 C   0  0  0  0  0  0  0  0  0  0  0  0
   17.9589   11.9434   26.0491 F   0  0  0  0  0  0  0  0  0  0  0  0
   18.6227   10.2419   24.5649 C   0  0  0  0  0  0  0  0  0  0  0  0
   18.2732    9.2059   23.6961 C   0  0  0  0  0  0  0  0  0  0  0  0
   16.9202    8.8603   23.4586 C   0  0  0  0  0  0  0  0  0  0  0  0
 13 14  2  0
 14 15  1  0
 14  2  1  0
  2  3  2  0
  3  4  1  0
  4  5  2  0
  5  6  1  0
  6  7  2  0
  6  8  1  0
  8  9  2  0
  8 10  1  0
 10  1  1  0
  1 21  1  0
 21 22  1  0
 22 23  2  0
 23 24  1  0
 24 25  2  0
 25 26  1  0
 26 27  2  0
 27 28  1  0
 28 29  1  0
 28 30  2  0
 30 31  1  0
 31 32  2  0
  1 17  1  0
 17 18  2  0
 17 19  1  0
 10 11  1  0
 11 12  2  0
  7  2  1  0
 32 22  1  0
 11  5  1  0
 32 26  1  0
 15 16  1  0
 19 20  1  0
M  END
> <minimizedAffinity>
-8.12524

> <CNNscore>
0.4687178731

> <CNNaffinity>
4.1291451454

> <CNN_VS>
1.9354041815

> <CNNaffinity_variance>
0.6176240444

$$$$



 32 35  0  0  0  0  0  0  0  0999 V2000
   23.9832    7.6479   14.5165 C   0  0  0  0  0  0  0  0  0  0  0  0
   20.7951    3.9671   10.9374 C   0  0  0  0  0  0  0  0  0  0  0  0
   21.9885    3.2020   10.9579 C   0  0  0  0  0  0  0  0  0  0  0  0
   23.1020    3.6193   11.6973 C   0  0  0  0  0  0  0  0  0  0  0  0
   22.9821    4.8000   12.4025 C   0  0  0  0  0  0  0  0  0  0  0  0
   21.8191    5.5487   12.3852 C   0  0  0  0  0  0  0  0  0  0  0  0
   20.7055    5.1651   11.6624 C   0  0  0  0  0  0  0  0  0  0  0  0
   22.0448    6.7274   13.2185 C   0  0  0  0  0  0  0  0  0  0  0  0
   21.2359    7.6220   13.3698 O   0  0  0  0  0  0  0  0  0  0  0  0
   23.3062    6.6082   13.7353 N   0  0  0  0  0  0  0  0  0  0  0  0
   23.9456    5.5015   13.2485 C   0  0  0  0  0  0  0  0  0  0  0  0
   25.0855    5.1263   13.4405 O   0  0  0  0  0  0  0  0  0  0  0  0
   18.8117    2.6755   10.5081 O   0  0  0  0  0  0  0  0  0  0  0  0
   19.6597    3.4601   10.1282 C   0  0  0  0  0  0  0  0  0  0  0  0
   19.6464    3.9655    8.8838 O   0  0  0  0  0  0  0  0  0  0  0  0
   20.3117    4.5685    8.6159 H   0  0  0  0  0  0  0  0  0  0  0  0
   24.2400    8.8812   13.6421 C   0  0  0  0  0  0  0  0  0  0  0  0
   25.1890    9.0501   12.8910 O   0  0  0  0  0  0  0  0  0  0  0  0
   23.2788    9.8301   13.7011 O   0  0  0  0  0  0  0  0  0  0  0  0
   22.5438    9.7176   14.2714 H   0  0  0  0  0  0  0  0  0  0  0  0
   23.2046    8.0268   15.7885 C   0  0  0  0  0  0  0  0  0  0  0  0
   23.7367    7.3397   17.0361 C   0  0  0  0  0  0  0  0  0  0  0  0
   25.1215    7.1122   17.1187 C   0  0  0  0  0  0  0  0  0  0  0  0
   25.6763    6.4799   18.2255 C   0  0  0  0  0  0  0  0  0  0  0  0
   24.8567    6.0628   19.2690 C   0  0  0  0  0  0  0  0  0  0  0  0
   23.4713    6.2694   19.2208 C   0  0  0  0  0  0  0  0  0  0  0  0
   22.6652    5.8357   20.2840 C   0  0  0  0  0  0  0  0  0  0  0  0
   21.2918    6.0308   20.2478 C   0  0  0  0  0  0  0  0  0  0  0  0
   20.5373    5.6101   21.2714 F   0  0  0  0  0  0  0  0  0  0  0  0
   20.6916    6.6545   19.1681 C   0  0  0  0  0  0  0  0  0  0  0  0
   21.4813    7.0933   18.1030 C   0  0  0  0  0  0  0  0  0  0  0  0
   22.8864    6.9141   18.0971 C   0  0  0  0  0  0  0  0  0  0  0  0
 13 14  2  0
 14 15  1  0
 14  2  1  0
  2  3  2  0
  3  4  1  0
  4  5  2  0
  5  6  1  0
  6  7  2  0
  6  8  1  0
  8  9  2  0
  8 10  1  0
 10  1  1  0
  1 21  1  0
 21 22  1  0
 22 23  2  0
 23 24  1  0
 24 25  2  0
 25 26  1  0
 26 27  2  0
 27 28  1  0
 28 29  1  0
 28 30  2  0
 30 31  1  0
 31 32  2  0
  1 17  1  0
 17 18  2  0
 17 19  1  0
 10 11  1  0
 11 12  2  0
  7  2  1  0
 32 22  1  0
 11  5  1  0
 32 26  1  0
 15 16  1  0
 19 20  1  0
M  END
> <minimizedAffinity>
-8.76829

> <CNNscore>
0.4467953742

> <CNNaffinity>
4.7614784241

> <CNN_VS>
2.1274065971

> <CNNaffinity_variance>
0.4340654910

$$$$



 32 35  0  0  0  0  0  0  0  0999 V2000
   21.8939    7.3502   16.5673 C   0  0  0  0  0  0  0  0  0  0  0  0
   26.6546    7.0331   20.2763 C   0  0  0  0  0  0  0  0  0  0  0  0
   26.6886    5.6874   19.8313 C   0  0  0  0  0  0  0  0  0  0  0  0
   25.7620    5.2120   18.8954 C   0  0  0  0  0  0  0  0  0  0  0  0
   24.8234    6.1099   18.4277 C   0  0  0  0  0  0  0  0  0  0  0  0
   24.7877    7.4235   18.8592 C   0  0  0  0  0  0  0  0  0  0  0  0
   25.6858    7.9209   19.7843 C   0  0  0  0  0  0  0  0  0  0  0  0
   23.6728    8.0779   18.1784 C   0  0  0  0  0  0  0  0  0  0  0  0
   23.3304    9.2271   18.3776 O   0  0  0  0  0  0  0  0  0  0  0  0
   23.1251    7.1479   17.3371 N   0  0  0  0  0  0  0  0  0  0  0  0
   23.7330    5.9301   17.4712 C   0  0  0  0  0  0  0  0  0  0  0  0
   23.4635    4.8737   16.9340 O   0  0  0  0  0  0  0  0  0  0  0  0
   28.0063    6.8316   22.2559 O   0  0  0  0  0  0  0  0  0  0  0  0
   27.6686    7.4607   21.2714 C   0  0  0  0  0  0  0  0  0  0  0  0
   28.2074    8.6556   20.9784 O   0  0  0  0  0  0  0  0  0  0  0  0
   27.9296    9.1200   20.2135 H   0  0  0  0  0  0  0  0  0  0  0  0
   20.6861    7.4098   17.5102 C   0  0  0  0  0  0  0  0  0  0  0  0
   19.5366    7.1014   17.2332 O   0  0  0  0  0  0  0  0  0  0  0  0
   20.9693    7.8021   18.7727 O   0  0  0  0  0  0  0  0  0  0  0  0
   21.8451    8.0423   19.0033 H   0  0  0  0  0  0  0  0  0  0  0  0
   21.9587    8.6023   15.6751 C   0  0  0  0  0  0  0  0  0  0  0  0
   22.6760    8.3550   14.3575 C   0  0  0  0  0  0  0  0  0  0  0  0
   23.5604    9.3459   13.8969 C   0  0  0  0  0  0  0  0  0  0  0  0
   24.2424    9.1915   12.6955 C   0  0  0  0  0  0  0  0  0  0  0  0
   24.0520    8.0442   11.9325 C   0  0  0  0  0  0  0  0  0  0  0  0
   23.1760    7.0361   12.3577 C   0  0  0  0  0  0  0  0  0  0  0  0
   22.9977    5.8900   11.5683 C   0  0  0  0  0  0  0  0  0  0  0  0
   22.1310    4.8858   11.9757 C   0  0  0  0  0  0  0  0  0  0  0  0
   21.9725    3.7986   11.2096 F   0  0  0  0  0  0  0  0  0  0  0  0
   21.4285    4.9928   13.1632 C   0  0  0  0  0  0  0  0  0  0  0  0
   21.5971    6.1270   13.9604 C   0  0  0  0  0  0  0  0  0  0  0  0
   22.4701    7.1768   13.5834 C   0  0  0  0  0  0  0  0  0  0  0  0
 13 14  2  0
 14 15  1  0
 14  2  1  0
  2  3  2  0
  3  4  1  0
  4  5  2  0
  5  6  1  0
  6  7  2  0
  6  8  1  0
  8  9  2  0
  8 10  1  0
 10  1  1  0
  1 21  1  0
 21 22  1  0
 22 23  2  0
 23 24  1  0
 24 25  2  0
 25 26  1  0
 26 27  2  0
 27 28  1  0
 28 29  1  0
 28 30  2  0
 30 31  1  0
 31 32  2  0
  1 17  1  0
 17 18  2  0
 17 19  1  0
 10 11  1  0
 11 12  2  0
  7  2  1  0
 32 22  1  0
 11  5  1  0
 32 26  1  0
 15 16  1  0
 19 20  1  0
M  END
> <minimizedAffinity>
-7.76477

> <CNNscore>
0.4424923956

> <CNNaffinity>
4.8628506660

> <CNN_VS>
2.1517744064

> <CNNaffinity_variance>
0.4505047500

$$$$



 32 35  0  0  0  0  0  0  0  0999 V2000
   22.2872    8.8332   13.9197 C   0  0  0  0  0  0  0  0  0  0  0  0
   24.3987    6.2376   18.9522 C   0  0  0  0  0  0  0  0  0  0  0  0
   25.6433    6.3674   18.2859 C   0  0  0  0  0  0  0  0  0  0  0  0
   25.7267    6.9563   17.0183 C   0  0  0  0  0  0  0  0  0  0  0  0
   24.5489    7.4039   16.4542 C   0  0  0  0  0  0  0  0  0  0  0  0
   23.3329    7.2793   17.1016 C   0  0  0  0  0  0  0  0  0  0  0  0
   23.2182    6.6997   18.3508 C   0  0  0  0  0  0  0  0  0  0  0  0
   22.3091    7.8381   16.2216 C   0  0  0  0  0  0  0  0  0  0  0  0
   21.1190    7.8331   16.4688 O   0  0  0  0  0  0  0  0  0  0  0  0
   22.9586    8.3153   15.1157 N   0  0  0  0  0  0  0  0  0  0  0  0
   24.2983    8.0439   15.1643 C   0  0  0  0  0  0  0  0  0  0  0  0
   25.1569    8.2621   14.3323 O   0  0  0  0  0  0  0  0  0  0  0  0
   25.1515    5.8600   21.2055 O   0  0  0  0  0  0  0  0  0  0  0  0
   24.3919    5.6002   20.2919 C   0  0  0  0  0  0  0  0  0  0  0  0
   23.4309    4.6702   20.4162 O   0  0  0  0  0  0  0  0  0  0  0  0
   22.8585    4.4889   19.6968 H   0  0  0  0  0  0  0  0  0  0  0  0
   21.9131   10.3066   14.1214 C   0  0  0  0  0  0  0  0  0  0  0  0
   21.4601   11.0603   13.2729 O   0  0  0  0  0  0  0  0  0  0  0  0
   22.0706   10.7655   15.3833 O   0  0  0  0  0  0  0  0  0  0  0  0
   22.4165   10.2019   16.0471 H   0  0  0  0  0  0  0  0  0  0  0  0
   23.1312    8.6484   12.6464 C   0  0  0  0  0  0  0  0  0  0  0  0
   22.4532    7.7685   11.6082 C   0  0  0  0  0  0  0  0  0  0  0  0
   21.6411    8.3957   10.6473 C   0  0  0  0  0  0  0  0  0  0  0  0
   20.9823    7.6525    9.6746 C   0  0  0  0  0  0  0  0  0  0  0  0
   21.1228    6.2690    9.6455 C   0  0  0  0  0  0  0  0  0  0  0  0
   21.9213    5.6082   10.5889 C   0  0  0  0  0  0  0  0  0  0  0  0
   22.0436    4.2113   10.5414 C   0  0  0  0  0  0  0  0  0  0  0  0
   22.8283    3.5440   11.4712 C   0  0  0  0  0  0  0  0  0  0  0  0
   22.9336    2.2101   11.4113 F   0  0  0  0  0  0  0  0  0  0  0  0
   23.5035    4.2387   12.4594 C   0  0  0  0  0  0  0  0  0  0  0  0
   23.3928    5.6296   12.5183 C   0  0  0  0  0  0  0  0  0  0  0  0
   22.6023    6.3517   11.5909 C   0  0  0  0  0  0  0  0  0  0  0  0
 13 14  2  0
 14 15  1  0
 14  2  1  0
  2  3  2  0
  3  4  1  0
  4  5  2  0
  5  6  1  0
  6  7  2  0
  6  8  1  0
  8  9  2  0
  8 10  1  0
 10  1  1  0
  1 21  1  0
 21 22  1  0
 22 23  2  0
 23 24  1  0
 24 25  2  0
 25 26  1  0
 26 27  2  0
 27 28  1  0
 28 29  1  0
 28 30  2  0
 30 31  1  0
 31 32  2  0
  1 17  1  0
 17 18  2  0
 17 19  1  0
 10 11  1  0
 11 12  2  0
  7  2  1  0
 32 22  1  0
 11  5  1  0
 32 26  1  0
 15 16  1  0
 19 20  1  0
M  END
> <minimizedAffinity>
-8.10183

> <CNNscore>
0.3659040332

> <CNNaffinity>
4.5266618729

> <CNN_VS>
1.6563237906

> <CNNaffinity_variance>
0.6867772937

$$$$



 32 35  0  0  0  0  0  0  0  0999 V2000
   23.4590    5.8929   13.1787 C   0  0  0  0  0  0  0  0  0  0  0  0
   19.8361    4.7024    8.4905 C   0  0  0  0  0  0  0  0  0  0  0  0
   20.9585    5.1347    7.7399 C   0  0  0  0  0  0  0  0  0  0  0  0
   22.1431    5.5294    8.3734 C   0  0  0  0  0  0  0  0  0  0  0  0
   22.1671    5.4747    9.7526 C   0  0  0  0  0  0  0  0  0  0  0  0
   21.0741    5.0530   10.4881 C   0  0  0  0  0  0  0  0  0  0  0  0
   19.8906    4.6610    9.8920 C   0  0  0  0  0  0  0  0  0  0  0  0
   21.4394    5.1333   11.9005 C   0  0  0  0  0  0  0  0  0  0  0  0
   20.6807    4.8860   12.8174 O   0  0  0  0  0  0  0  0  0  0  0  0
   22.7425    5.5484   11.9469 N   0  0  0  0  0  0  0  0  0  0  0  0
   23.2274    5.8206   10.6973 C   0  0  0  0  0  0  0  0  0  0  0  0
   24.3108    6.2663   10.3740 O   0  0  0  0  0  0  0  0  0  0  0  0
   18.0383    3.2376    7.8509 O   0  0  0  0  0  0  0  0  0  0  0  0
   18.6162    4.3027    7.7468 C   0  0  0  0  0  0  0  0  0  0  0  0
   18.1836    5.2613    6.9114 O   0  0  0  0  0  0  0  0  0  0  0  0
   18.6471    6.0733    6.8499 H   0  0  0  0  0  0  0  0  0  0  0  0
   24.6280    4.9249   13.3971 C   0  0  0  0  0  0  0  0  0  0  0  0
   25.7818    5.2317   13.6577 O   0  0  0  0  0  0  0  0  0  0  0  0
   24.3010    3.6147   13.3324 O   0  0  0  0  0  0  0  0  0  0  0  0
   23.4212    3.3607   13.1338 H   0  0  0  0  0  0  0  0  0  0  0  0
   23.9439    7.3532   13.1867 C   0  0  0  0  0  0  0  0  0  0  0  0
   23.3839    8.1576   14.3492 C   0  0  0  0  0  0  0  0  0  0  0  0
   22.3195    9.0370   14.0850 C   0  0  0  0  0  0  0  0  0  0  0  0
   21.7650    9.8112   15.0976 C   0  0  0  0  0  0  0  0  0  0  0  0
   22.2652    9.7210   16.3924 C   0  0  0  0  0  0  0  0  0  0  0  0
   23.3277    8.8579   16.6933 C   0  0  0  0  0  0  0  0  0  0  0  0
   23.8174    8.7879   18.0062 C   0  0  0  0  0  0  0  0  0  0  0  0
   24.8710    7.9402   18.3174 C   0  0  0  0  0  0  0  0  0  0  0  0
   25.3263    7.8862   19.5759 F   0  0  0  0  0  0  0  0  0  0  0  0
   25.4573    7.1497   17.3445 C   0  0  0  0  0  0  0  0  0  0  0  0
   24.9794    7.2072   16.0336 C   0  0  0  0  0  0  0  0  0  0  0  0
   23.9071    8.0587   15.6706 C   0  0  0  0  0  0  0  0  0  0  0  0
 13 14  2  0
 14 15  1  0
 14  2  1  0
  2  3  2  0
  3  4  1  0
  4  5  2  0
  5  6  1  0
  6  7  2  0
  6  8  1  0
  8  9  2  0
  8 10  1  0
 10  1  1  0
  1 21  1  0
 21 22  1  0
 22 23  2  0
 23 24  1  0
 24 25  2  0
 25 26  1  0
 26 27  2  0
 27 28  1  0
 28 29  1  0
 28 30  2  0
 30 31  1  0
 31 32  2  0
  1 17  1  0
 17 18  2  0
 17 19  1  0
 10 11  1  0
 11 12  2  0
  7  2  1  0
 32 22  1  0
 11  5  1  0
 32 26  1  0
 15 16  1  0
 19 20  1  0
M  END
> <minimizedAffinity>
-8.35872

> <CNNscore>
0.3631553650

> <CNNaffinity>
4.8130650520

> <CNN_VS>
1.7478903532

> <CNNaffinity_variance>
0.2308303863

$$$$



 32 35  0  0  0  0  0  0  0  0999 V2000
   22.7786    5.0526   13.2968 C   0  0  0  0  0  0  0  0  0  0  0  0
   22.4392    6.1245    7.3590 C   0  0  0  0  0  0  0  0  0  0  0  0
   21.4990    5.0642    7.4002 C   0  0  0  0  0  0  0  0  0  0  0  0
   21.1727    4.4340    8.6072 C   0  0  0  0  0  0  0  0  0  0  0  0
   21.8026    4.8929    9.7467 C   0  0  0  0  0  0  0  0  0  0  0  0
   22.7200    5.9275    9.7103 C   0  0  0  0  0  0  0  0  0  0  0  0
   23.0652    6.5664    8.5345 C   0  0  0  0  0  0  0  0  0  0  0  0
   23.1937    6.1409   11.0759 C   0  0  0  0  0  0  0  0  0  0  0  0
   24.0525    6.9443   11.3833 O   0  0  0  0  0  0  0  0  0  0  0  0
   22.5067    5.2652   11.8720 N   0  0  0  0  0  0  0  0  0  0  0  0
   21.6915    4.4507   11.1353 C   0  0  0  0  0  0  0  0  0  0  0  0
   20.9947    3.5255   11.5033 O   0  0  0  0  0  0  0  0  0  0  0  0
   22.7858    7.9328    5.8109 O   0  0  0  0  0  0  0  0  0  0  0  0
   22.7339    6.7398    6.0416 C   0  0  0  0  0  0  0  0  0  0  0  0
   22.9498    5.8255    5.0816 O   0  0  0  0  0  0  0  0  0  0  0  0
   22.9039    4.9122    5.2857 H   0  0  0  0  0  0  0  0  0  0  0  0
   24.2606    5.3101   13.5950 C   0  0  0  0  0  0  0  0  0  0  0  0
   24.8590    6.3628   13.4305 O   0  0  0  0  0  0  0  0  0  0  0  0
   24.9227    4.2614   14.1331 O   0  0  0  0  0  0  0  0  0  0  0  0
   24.4801    3.4464   14.2666 H   0  0  0  0  0  0  0  0  0  0  0  0
   21.8773    5.9118   14.2009 C   0  0  0  0  0  0  0  0  0  0  0  0
   22.6171    7.0752   14.8420 C   0  0  0  0  0  0  0  0  0  0  0  0
   22.7111    8.2735   14.1131 C   0  0  0  0  0  0  0  0  0  0  0  0
   23.3816    9.3746   14.6330 C   0  0  0  0  0  0  0  0  0  0  0  0
   23.9711    9.2973   15.8905 C   0  0  0  0  0  0  0  0  0  0  0  0
   23.9010    8.1185   16.6453 C   0  0  0  0  0  0  0  0  0  0  0  0
   24.5074    8.0639   17.9093 C   0  0  0  0  0  0  0  0  0  0  0  0
   24.4485    6.9021   18.6659 C   0  0  0  0  0  0  0  0  0  0  0  0
   25.0332    6.8675   19.8704 F   0  0  0  0  0  0  0  0  0  0  0  0
   23.7934    5.7790   18.1922 C   0  0  0  0  0  0  0  0  0  0  0  0
   23.1835    5.8187   16.9365 C   0  0  0  0  0  0  0  0  0  0  0  0
   23.2196    6.9825   16.1298 C   0  0  0  0  0  0  0  0  0  0  0  0
 13 14  2  0
 14 15  1  0
 14  2  1  0
  2  3  2  0
  3  4  1  0
  4  5  2  0
  5  6  1  0
  6  7  2  0
  6  8  1  0
  8  9  2  0
  8 10  1  0
 10  1  1  0
  1 21  1  0
 21 22  1  0
 22 23  2  0
 23 24  1  0
 24 25  2  0
 25 26  1  0
 26 27  2  0
 27 28  1  0
 28 29  1  0
 28 30  2  0
 30 31  1  0
 31 32  2  0
  1 17  1  0
 17 18  2  0
 17 19  1  0
 10 11  1  0
 11 12  2  0
  7  2  1  0
 32 22  1  0
 11  5  1  0
 32 26  1  0
 15 16  1  0
 19 20  1  0
M  END
> <minimizedAffinity>
-8.92220

> <CNNscore>
0.3438696265

> <CNNaffinity>
4.1695833206

> <CNN_VS>
1.4337930679

> <CNNaffinity_variance>
1.2076787949

$$$$



 32 35  0  0  0  0  0  0  0  0999 V2000
   19.5454    6.8182   13.4838 C   0  0  0  0  0  0  0  0  0  0  0  0
   24.3587    7.2518   17.1122 C   0  0  0  0  0  0  0  0  0  0  0  0
   24.7026    8.3125   16.2366 C   0  0  0  0  0  0  0  0  0  0  0  0
   23.8696    8.6669   15.1684 C   0  0  0  0  0  0  0  0  0  0  0  0
   22.7051    7.9421   15.0118 C   0  0  0  0  0  0  0  0  0  0  0  0
   22.3662    6.9071   15.8644 C   0  0  0  0  0  0  0  0  0  0  0  0
   23.1692    6.5317   16.9247 C   0  0  0  0  0  0  0  0  0  0  0  0
   21.0930    6.3587   15.4030 C   0  0  0  0  0  0  0  0  0  0  0  0
   20.5425    5.3968   15.9022 O   0  0  0  0  0  0  0  0  0  0  0  0
   20.7031    7.1166   14.3324 N   0  0  0  0  0  0  0  0  0  0  0  0
   21.6464    8.0531   14.0102 C   0  0  0  0  0  0  0  0  0  0  0  0
   21.6603    8.8433   13.0870 O   0  0  0  0  0  0  0  0  0  0  0  0
   26.1996    6.1240   18.1733 O   0  0  0  0  0  0  0  0  0  0  0  0
   25.2943    6.9349   18.2192 C   0  0  0  0  0  0  0  0  0  0  0  0
   25.0461    7.6534   19.3265 O   0  0  0  0  0  0  0  0  0  0  0  0
   24.3423    8.2718   19.3357 H   0  0  0  0  0  0  0  0  0  0  0  0
   19.0057    8.1086   12.8553 C   0  0  0  0  0  0  0  0  0  0  0  0
   18.7432    8.2830   11.6746 O   0  0  0  0  0  0  0  0  0  0  0  0
   18.7673    9.1109   13.7307 O   0  0  0  0  0  0  0  0  0  0  0  0
   18.9623    8.9951   14.6398 H   0  0  0  0  0  0  0  0  0  0  0  0
   19.8645    5.7704   12.4030 C   0  0  0  0  0  0  0  0  0  0  0  0
   21.3491    5.6761   12.0886 C   0  0  0  0  0  0  0  0  0  0  0  0
   22.1426    4.8583   12.9118 C   0  0  0  0  0  0  0  0  0  0  0  0
   23.5091    4.7330   12.6893 C   0  0  0  0  0  0  0  0  0  0  0  0
   24.1070    5.4237   11.6404 C   0  0  0  0  0  0  0  0  0  0  0  0
   23.3489    6.2509   10.8005 C   0  0  0  0  0  0  0  0  0  0  0  0
   23.9759    6.9406    9.7519 C   0  0  0  0  0  0  0  0  0  0  0  0
   23.2379    7.7655    8.9149 C   0  0  0  0  0  0  0  0  0  0  0  0
   23.8528    8.4167    7.9189 F   0  0  0  0  0  0  0  0  0  0  0  0
   21.8751    7.9239    9.0956 C   0  0  0  0  0  0  0  0  0  0  0  0
   21.2368    7.2424   10.1341 C   0  0  0  0  0  0  0  0  0  0  0  0
   21.9504    6.3912   11.0130 C   0  0  0  0  0  0  0  0  0  0  0  0
 13 14  2  0
 14 15  1  0
 14  2  1  0
  2  3  2  0
  3  4  1  0
  4  5  2  0
  5  6  1  0
  6  7  2  0
  6  8  1  0
  8  9  2  0
  8 10  1  0
 10  1  1  0
  1 21  1  0
 21 22  1  0
 22 23  2  0
 23 24  1  0
 24 25  2  0
 25 26  1  0
 26 27  2  0
 27 28  1  0
 28 29  1  0
 28 30  2  0
 30 31  1  0
 31 32  2  0
  1 17  1  0
 17 18  2  0
 17 19  1  0
 10 11  1  0
 11 12  2  0
  7  2  1  0
 32 22  1  0
 11  5  1  0
 32 26  1  0
 15 16  1  0
 19 20  1  0
M  END
> <minimizedAffinity>
-7.41644

> <CNNscore>
0.3360847831

> <CNNaffinity>
4.2401366234

> <CNN_VS>
1.4250453711

> <CNNaffinity_variance>
0.4539946020

$$$$



 32 35  0  0  0  0  0  0  0  0999 V2000
   23.5029    8.1021   14.4372 C   0  0  0  0  0  0  0  0  0  0  0  0
   20.7559    3.9939   10.9589 C   0  0  0  0  0  0  0  0  0  0  0  0
   21.9859    3.3045   11.1070 C   0  0  0  0  0  0  0  0  0  0  0  0
   23.0255    3.8386   11.8781 C   0  0  0  0  0  0  0  0  0  0  0  0
   22.7963    5.0571   12.4851 C   0  0  0  0  0  0  0  0  0  0  0  0
   21.5973    5.7321   12.3433 C   0  0  0  0  0  0  0  0  0  0  0  0
   20.5546    5.2327   11.5863 C   0  0  0  0  0  0  0  0  0  0  0  0
   21.7044    6.9782   13.0986 C   0  0  0  0  0  0  0  0  0  0  0  0
   20.8395    7.8316   13.1347 O   0  0  0  0  0  0  0  0  0  0  0  0
   22.9352    6.9712   13.6967 N   0  0  0  0  0  0  0  0  0  0  0  0
   23.6641    5.8728   13.3323 C   0  0  0  0  0  0  0  0  0  0  0  0
   24.8085    5.5807   13.6189 O   0  0  0  0  0  0  0  0  0  0  0  0
   18.8337    2.6145   10.5240 O   0  0  0  0  0  0  0  0  0  0  0  0
   19.7037    3.3642   10.1237 C   0  0  0  0  0  0  0  0  0  0  0  0
   19.7971    3.7092    8.8290 O   0  0  0  0  0  0  0  0  0  0  0  0
   20.4771    4.2887    8.5465 H   0  0  0  0  0  0  0  0  0  0  0  0
   24.0415    9.1547   13.4608 C   0  0  0  0  0  0  0  0  0  0  0  0
   25.1308    9.1372   12.9072 O   0  0  0  0  0  0  0  0  0  0  0  0
   23.1815   10.1580   13.1752 O   0  0  0  0  0  0  0  0  0  0  0  0
   22.3419   10.1877   13.5900 H   0  0  0  0  0  0  0  0  0  0  0  0
   22.4957    8.7257   15.4192 C   0  0  0  0  0  0  0  0  0  0  0  0
   22.3332    7.9160   16.6959 C   0  0  0  0  0  0  0  0  0  0  0  0
   21.0409    7.4788   17.0345 C   0  0  0  0  0  0  0  0  0  0  0  0
   20.8167    6.7430   18.1925 C   0  0  0  0  0  0  0  0  0  0  0  0
   21.8803    6.4320   19.0332 C   0  0  0  0  0  0  0  0  0  0  0  0
   23.1823    6.8534   18.7302 C   0  0  0  0  0  0  0  0  0  0  0  0
   24.2378    6.5308   19.5963 C   0  0  0  0  0  0  0  0  0  0  0  0
   25.5311    6.9444   19.3103 C   0  0  0  0  0  0  0  0  0  0  0  0
   26.5268    6.6278   20.1484 F   0  0  0  0  0  0  0  0  0  0  0  0
   25.8056    7.6795   18.1704 C   0  0  0  0  0  0  0  0  0  0  0  0
   24.7654    8.0067   17.2979 C   0  0  0  0  0  0  0  0  0  0  0  0
   23.4303    7.6066   17.5505 C   0  0  0  0  0  0  0  0  0  0  0  0
 13 14  2  0
 14 15  1  0
 14  2  1  0
  2  3  2  0
  3  4  1  0
  4  5  2  0
  5  6  1  0
  6  7  2  0
  6  8  1  0
  8  9  2  0
  8 10  1  0
 10  1  1  0
  1 21  1  0
 21 22  1  0
 22 23  2  0
 23 24  1  0
 24 25  2  0
 25 26  1  0
 26 27  2  0
 27 28  1  0
 28 29  1  0
 28 30  2  0
 30 31  1  0
 31 32  2  0
  1 17  1  0
 17 18  2  0
 17 19  1  0
 10 11  1  0
 11 12  2  0
  7  2  1  0
 32 22  1  0
 11  5  1  0
 32 26  1  0
 15 16  1  0
 19 20  1  0
M  END
> <minimizedAffinity>
-8.41163

> <CNNscore>
0.2993027568

> <CNNaffinity>
4.9221072197

> <CNN_VS>
1.4732002020

> <CNNaffinity_variance>
0.2347962856

$$$$
