


 13 13  0  0  0  0  0  0  0  0999 V2000
   45.4193   20.5737   51.5877 C   0  0  0  0  0  0  0  0  0  0  0  0
   44.8658   20.0842   50.3937 C   0  0  0  0  0  0  0  0  0  0  0  0
   44.0174   20.8877   49.6300 C   0  0  0  0  0  0  0  0  0  0  0  0
   43.7212   22.1757   50.0573 C   0  0  0  0  0  0  0  0  0  0  0  0
   42.9057   22.9433   49.3243 F   0  0  0  0  0  0  0  0  0  0  0  0
   44.2593   22.6777   51.2353 C   0  0  0  0  0  0  0  0  0  0  0  0
   45.1082   21.8785   52.0028 C   0  0  0  0  0  0  0  0  0  0  0  0
   46.3117   19.6989   52.4286 C   0  0  0  0  0  0  0  0  0  0  0  0
   46.2997   17.8419   54.0568 N   0  0  0  0  0  0  0  0  0  0  0  0
   45.5561   18.4725   52.9344 C   0  0  0  0  0  0  0  0  0  0  0  0
   45.7873   17.0243   54.3873 H   0  0  0  0  0  0  0  0  0  0  0  0
   46.3979   18.5127   54.8189 H   0  0  0  0  0  0  0  0  0  0  0  0
   47.2242   17.5562   53.7341 H   0  0  0  0  0  0  0  0  0  0  0  0
  9 10  1  0
 10  8  1  0
  8  1  1  0
  1  2  2  0
  2  3  1  0
  3  4  2  0
  4  5  1  0
  4  6  1  0
  6  7  2  0
  7  1  1  0
  9 11  1  0
  9 12  1  0
  9 13  1  0
M  CHG 1   9   1
M  END
> <minimizedAffinity>
-4.76564

> <CNNscore>
0.9149473310

> <CNNaffinity>
4.2128338814

> <CNN_VS>
3.8545210361

> <CNNaffinity_variance>
0.1763493419

$$$$



 13 13  0  0  0  0  0  0  0  0999 V2000
   44.9144   20.4157   51.1327 C   0  0  0  0  0  0  0  0  0  0  0  0
   45.1548   21.3967   52.1081 C   0  0  0  0  0  0  0  0  0  0  0  0
   44.6968   22.7021   51.9211 C   0  0  0  0  0  0  0  0  0  0  0  0
   44.0021   23.0278   50.7633 C   0  0  0  0  0  0  0  0  0  0  0  0
   43.5660   24.2806   50.5855 F   0  0  0  0  0  0  0  0  0  0  0  0
   43.7543   22.0711   49.7873 C   0  0  0  0  0  0  0  0  0  0  0  0
   44.2100   20.7643   49.9692 C   0  0  0  0  0  0  0  0  0  0  0  0
   45.4326   19.0136   51.3185 C   0  0  0  0  0  0  0  0  0  0  0  0
   45.7415   17.2234   52.9917 N   0  0  0  0  0  0  0  0  0  0  0  0
   45.6244   18.6930   52.7989 C   0  0  0  0  0  0  0  0  0  0  0  0
   45.8692   17.0197   53.9829 H   0  0  0  0  0  0  0  0  0  0  0  0
   46.5434   16.8745   52.4668 H   0  0  0  0  0  0  0  0  0  0  0  0
   44.8921   16.7680   52.6576 H   0  0  0  0  0  0  0  0  0  0  0  0
  9 10  1  0
 10  8  1  0
  8  1  1  0
  1  2  2  0
  2  3  1  0
  3  4  2  0
  4  5  1  0
  4  6  1  0
  6  7  2  0
  7  1  1  0
  9 11  1  0
  9 12  1  0
  9 13  1  0
M  CHG 1   9   1
M  END
> <minimizedAffinity>
-4.72525

> <CNNscore>
0.9012660980

> <CNNaffinity>
3.8666522503

> <CNN_VS>
3.4848825932

> <CNNaffinity_variance>
0.3589839935

$$$$



 13 13  0  0  0  0  0  0  0  0999 V2000
   45.8703   20.2475   50.8581 C   0  0  0  0  0  0  0  0  0  0  0  0
   45.3753   20.7236   49.6334 C   0  0  0  0  0  0  0  0  0  0  0  0
   45.6501   22.0293   49.2232 C   0  0  0  0  0  0  0  0  0  0  0  0
   46.4155   22.8580   50.0335 C   0  0  0  0  0  0  0  0  0  0  0  0
   46.6756   24.1102   49.6389 F   0  0  0  0  0  0  0  0  0  0  0  0
   46.9142   22.4050   51.2482 C   0  0  0  0  0  0  0  0  0  0  0  0
   46.6424   21.1002   51.6632 C   0  0  0  0  0  0  0  0  0  0  0  0
   45.5511   18.8487   51.3168 C   0  0  0  0  0  0  0  0  0  0  0  0
   45.9208   17.3263   53.2260 N   0  0  0  0  0  0  0  0  0  0  0  0
   45.6503   18.7352   52.8361 C   0  0  0  0  0  0  0  0  0  0  0  0
   45.9852   17.2610   54.2419 H   0  0  0  0  0  0  0  0  0  0  0  0
   46.8003   17.0210   52.8093 H   0  0  0  0  0  0  0  0  0  0  0  0
   45.1625   16.7301   52.8944 H   0  0  0  0  0  0  0  0  0  0  0  0
  9 10  1  0
 10  8  1  0
  8  1  1  0
  1  2  2  0
  2  3  1  0
  3  4  2  0
  4  5  1  0
  4  6  1  0
  6  7  2  0
  7  1  1  0
  9 11  1  0
  9 12  1  0
  9 13  1  0
M  CHG 1   9   1
M  END
> <minimizedAffinity>
-4.86338

> <CNNscore>
0.8587956429

> <CNNaffinity>
3.9940443039

> <CNN_VS>
3.4300677776

> <CNNaffinity_variance>
0.2897426486

$$$$



 13 13  0  0  0  0  0  0  0  0999 V2000
   39.0393   25.3538   54.5430 C   0  0  0  0  0  0  0  0  0  0  0  0
   38.2655   26.3112   53.8676 C   0  0  0  0  0  0  0  0  0  0  0  0
   38.7047   26.8416   52.6533 C   0  0  0  0  0  0  0  0  0  0  0  0
   39.9133   26.4187   52.1152 C   0  0  0  0  0  0  0  0  0  0  0  0
   40.3332   26.9304   50.9519 F   0  0  0  0  0  0  0  0  0  0  0  0
   40.6925   25.4723   52.7683 C   0  0  0  0  0  0  0  0  0  0  0  0
   40.2581   24.9387   53.9828 C   0  0  0  0  0  0  0  0  0  0  0  0
   38.5821   24.8013   55.8676 C   0  0  0  0  0  0  0  0  0  0  0  0
   36.1992   24.7990   56.5169 N   0  0  0  0  0  0  0  0  0  0  0  0
   37.2397   24.0875   55.7284 C   0  0  0  0  0  0  0  0  0  0  0  0
   35.3070   24.3148   56.4175 H   0  0  0  0  0  0  0  0  0  0  0  0
   36.1073   25.7552   56.1738 H   0  0  0  0  0  0  0  0  0  0  0  0
   36.4696   24.8152   57.5003 H   0  0  0  0  0  0  0  0  0  0  0  0
  9 10  1  0
 10  8  1  0
  8  1  1  0
  1  2  2  0
  2  3  1  0
  3  4  2  0
  4  5  1  0
  4  6  1  0
  6  7  2  0
  7  1  1  0
  9 11  1  0
  9 12  1  0
  9 13  1  0
M  CHG 1   9   1
M  END
> <minimizedAffinity>
-3.92691

> <CNNscore>
0.7784746289

> <CNNaffinity>
2.9696362019

> <CNN_VS>
2.3117864132

> <CNNaffinity_variance>
0.7288112044

$$$$



 13 13  0  0  0  0  0  0  0  0999 V2000
   45.7842   20.1837   50.8811 C   0  0  0  0  0  0  0  0  0  0  0  0
   46.6401   20.9859   51.6529 C   0  0  0  0  0  0  0  0  0  0  0  0
   46.9664   22.2758   51.2305 C   0  0  0  0  0  0  0  0  0  0  0  0
   46.4411   22.7633   50.0407 C   0  0  0  0  0  0  0  0  0  0  0  0
   46.7573   23.9995   49.6369 F   0  0  0  0  0  0  0  0  0  0  0  0
   45.5925   21.9849   49.2639 C   0  0  0  0  0  0  0  0  0  0  0  0
   45.2631   20.6943   49.6815 C   0  0  0  0  0  0  0  0  0  0  0  0
   45.4536   18.7811   51.3196 C   0  0  0  0  0  0  0  0  0  0  0  0
   45.9119   17.2584   53.2094 N   0  0  0  0  0  0  0  0  0  0  0  0
   45.5377   18.6487   52.8383 C   0  0  0  0  0  0  0  0  0  0  0  0
   45.9654   17.1803   54.2250 H   0  0  0  0  0  0  0  0  0  0  0  0
   46.8191   17.0304   52.8026 H   0  0  0  0  0  0  0  0  0  0  0  0
   45.2080   16.6108   52.8552 H   0  0  0  0  0  0  0  0  0  0  0  0
  9 10  1  0
 10  8  1  0
  8  1  1  0
  1  2  2  0
  2  3  1  0
  3  4  2  0
  4  5  1  0
  4  6  1  0
  6  7  2  0
  7  1  1  0
  9 11  1  0
  9 12  1  0
  9 13  1  0
M  CHG 1   9   1
M  END
> <minimizedAffinity>
-4.88071

> <CNNscore>
0.7621530890

> <CNNaffinity>
3.9506208897

> <CNN_VS>
3.0109779835

> <CNNaffinity_variance>
0.3201701939

$$$$



 13 13  0  0  0  0  0  0  0  0999 V2000
   50.7900   25.6875   41.0829 C   0  0  0  0  0  0  0  0  0  0  0  0
   52.0145   25.0076   40.9821 C   0  0  0  0  0  0  0  0  0  0  0  0
   52.1044   23.6624   41.3439 C   0  0  0  0  0  0  0  0  0  0  0  0
   50.9757   22.9978   41.8062 C   0  0  0  0  0  0  0  0  0  0  0  0
   51.0651   21.7086   42.1546 F   0  0  0  0  0  0  0  0  0  0  0  0
   49.7557   23.6532   41.9125 C   0  0  0  0  0  0  0  0  0  0  0  0
   49.6602   24.9983   41.5522 C   0  0  0  0  0  0  0  0  0  0  0  0
   50.6967   27.1466   40.7208 C   0  0  0  0  0  0  0  0  0  0  0  0
   51.9368   27.8934   38.7199 N   0  0  0  0  0  0  0  0  0  0  0  0
   52.0299   27.6638   40.1858 C   0  0  0  0  0  0  0  0  0  0  0  0
   52.8316   28.2385   38.3723 H   0  0  0  0  0  0  0  0  0  0  0  0
   51.2094   28.5825   38.5292 H   0  0  0  0  0  0  0  0  0  0  0  0
   51.7057   27.0168   38.2524 H   0  0  0  0  0  0  0  0  0  0  0  0
  9 10  1  0
 10  8  1  0
  8  1  1  0
  1  2  2  0
  2  3  1  0
  3  4  2  0
  4  5  1  0
  4  6  1  0
  6  7  2  0
  7  1  1  0
  9 11  1  0
  9 12  1  0
  9 13  1  0
M  CHG 1   9   1
M  END
> <minimizedAffinity>
-3.21396

> <CNNscore>
0.6762550473

> <CNNaffinity>
3.4957265854

> <CNN_VS>
2.3640027046

> <CNNaffinity_variance>
0.4245108068

$$$$



 13 13  0  0  0  0  0  0  0  0999 V2000
   50.0148   24.4645   42.7285 C   0  0  0  0  0  0  0  0  0  0  0  0
   50.4394   23.4644   41.8390 C   0  0  0  0  0  0  0  0  0  0  0  0
   51.7631   23.4313   41.3972 C   0  0  0  0  0  0  0  0  0  0  0  0
   52.6603   24.3944   41.8407 C   0  0  0  0  0  0  0  0  0  0  0  0
   53.9284   24.3617   41.4138 F   0  0  0  0  0  0  0  0  0  0  0  0
   52.2592   25.3913   42.7208 C   0  0  0  0  0  0  0  0  0  0  0  0
   50.9367   25.4290   43.1658 C   0  0  0  0  0  0  0  0  0  0  0  0
   48.5801   24.5199   43.1841 C   0  0  0  0  0  0  0  0  0  0  0  0
   46.3638   25.4729   42.6557 N   0  0  0  0  0  0  0  0  0  0  0  0
   47.8302   25.6560   42.4928 C   0  0  0  0  0  0  0  0  0  0  0  0
   45.8721   26.2362   42.1909 H   0  0  0  0  0  0  0  0  0  0  0  0
   46.1295   25.4722   43.6484 H   0  0  0  0  0  0  0  0  0  0  0  0
   46.0837   24.5847   42.2396 H   0  0  0  0  0  0  0  0  0  0  0  0
  9 10  1  0
 10  8  1  0
  8  1  1  0
  1  2  2  0
  2  3  1  0
  3  4  2  0
  4  5  1  0
  4  6  1  0
  6  7  2  0
  7  1  1  0
  9 11  1  0
  9 12  1  0
  9 13  1  0
M  CHG 1   9   1
M  END
> <minimizedAffinity>
-4.06631

> <CNNscore>
0.6171655655

> <CNNaffinity>
3.1957833767

> <CNN_VS>
1.9723274708

> <CNNaffinity_variance>
0.4832879603

$$$$



 13 13  0  0  0  0  0  0  0  0999 V2000
   50.8610   24.7101   41.8351 C   0  0  0  0  0  0  0  0  0  0  0  0
   50.3956   25.7802   41.0540 C   0  0  0  0  0  0  0  0  0  0  0  0
   49.0691   26.2023   41.1577 C   0  0  0  0  0  0  0  0  0  0  0  0
   48.2090   25.5576   42.0374 C   0  0  0  0  0  0  0  0  0  0  0  0
   46.9371   25.9628   42.1332 F   0  0  0  0  0  0  0  0  0  0  0  0
   48.6510   24.4975   42.8186 C   0  0  0  0  0  0  0  0  0  0  0  0
   49.9765   24.0713   42.7188 C   0  0  0  0  0  0  0  0  0  0  0  0
   52.2839   24.2337   41.7042 C   0  0  0  0  0  0  0  0  0  0  0  0
   52.2228   23.2289   39.4489 N   0  0  0  0  0  0  0  0  0  0  0  0
   52.3549   22.9373   40.9007 C   0  0  0  0  0  0  0  0  0  0  0  0
   52.2715   22.3574   38.9212 H   0  0  0  0  0  0  0  0  0  0  0  0
   52.9799   23.8465   39.1558 H   0  0  0  0  0  0  0  0  0  0  0  0
   51.3265   23.6830   39.2735 H   0  0  0  0  0  0  0  0  0  0  0  0
  9 10  1  0
 10  8  1  0
  8  1  1  0
  1  2  2  0
  2  3  1  0
  3  4  2  0
  4  5  1  0
  4  6  1  0
  6  7  2  0
  7  1  1  0
  9 11  1  0
  9 12  1  0
  9 13  1  0
M  CHG 1   9   1
M  END
> <minimizedAffinity>
-3.84824

> <CNNscore>
0.5446637869

> <CNNaffinity>
3.6069800854

> <CNN_VS>
1.9645913839

> <CNNaffinity_variance>
0.1354454905

$$$$



 13 13  0  0  0  0  0  0  0  0999 V2000
   52.8702   25.2948   42.3005 C   0  0  0  0  0  0  0  0  0  0  0  0
   52.9580   24.2102   41.4129 C   0  0  0  0  0  0  0  0  0  0  0  0
   51.8546   23.3813   41.2034 C   0  0  0  0  0  0  0  0  0  0  0  0
   50.6673   23.6330   41.8789 C   0  0  0  0  0  0  0  0  0  0  0  0
   49.6115   22.8353   41.6779 F   0  0  0  0  0  0  0  0  0  0  0  0
   50.5610   24.7011   42.7605 C   0  0  0  0  0  0  0  0  0  0  0  0
   51.6613   25.5331   42.9737 C   0  0  0  0  0  0  0  0  0  0  0  0
   54.0677   26.1735   42.5506 C   0  0  0  0  0  0  0  0  0  0  0  0
   56.4406   25.8488   41.9476 N   0  0  0  0  0  0  0  0  0  0  0  0
   55.0731   26.0665   41.4065 C   0  0  0  0  0  0  0  0  0  0  0  0
   57.1043   25.7787   41.1763 H   0  0  0  0  0  0  0  0  0  0  0  0
   56.4580   24.9855   42.4906 H   0  0  0  0  0  0  0  0  0  0  0  0
   56.6978   26.6328   42.5473 H   0  0  0  0  0  0  0  0  0  0  0  0
  9 10  1  0
 10  8  1  0
  8  1  1  0
  1  2  2  0
  2  3  1  0
  3  4  2  0
  4  5  1  0
  4  6  1  0
  6  7  2  0
  7  1  1  0
  9 11  1  0
  9 12  1  0
  9 13  1  0
M  CHG 1   9   1
M  END
> <minimizedAffinity>
-3.54824

> <CNNscore>
0.5341723561

> <CNNaffinity>
2.8204746246

> <CNN_VS>
1.5066195726

> <CNNaffinity_variance>
0.7100546360

$$$$
