


 19 20  0  0  0  0  0  0  0  0999 V2000
   -7.4095   10.0152   10.5479 C   0  0  0  0  0  0  0  0  0  0  0  0
   -7.3558    9.9757    9.1414 C   0  0  0  0  0  0  0  0  0  0  0  0
   -8.3906    9.4115    8.3930 C   0  0  0  0  0  0  0  0  0  0  0  0
   -8.2805    9.3853    6.6748 Cl  0  0  0  0  0  0  0  0  0  0  0  0
   -9.5049    8.8671    9.0213 C   0  0  0  0  0  0  0  0  0  0  0  0
   -9.5926    8.8804   10.4159 C   0  0  0  0  0  0  0  0  0  0  0  0
   -8.5468    9.4583   11.1631 C   0  0  0  0  0  0  0  0  0  0  0  0
  -10.7673    8.2961   11.0917 C   0  0  0  0  0  0  0  0  0  0  0  0
  -11.4749    9.0180   11.9840 C   0  0  0  0  0  0  0  0  0  0  0  0
  -12.6212    8.4675   12.6701 C   0  0  0  0  0  0  0  0  0  0  0  0
  -12.9974    7.2067   12.4327 C   0  0  0  0  0  0  0  0  0  0  0  0
  -12.2992    6.4387   11.5405 N   0  0  0  0  0  0  0  0  0  0  0  0
  -11.1976    6.8738   10.8373 C   0  0  0  0  0  0  0  0  0  0  0  0
  -10.6143    6.1325   10.0526 O   0  0  0  0  0  0  0  0  0  0  0  0
  -12.6043    5.5146   11.3916 H   0  0  0  0  0  0  0  0  0  0  0  0
   -6.6707   11.1520   12.7495 C   0  0  0  0  0  0  0  0  0  0  0  0
   -6.2585   10.6534   11.3459 C   0  0  0  0  0  0  0  0  0  0  0  0
   -5.1286    9.6197   11.5436 C   0  0  0  0  0  0  0  0  0  0  0  0
   -5.7046   11.8704   10.5738 C   0  0  0  0  0  0  0  0  0  0  0  0
 16 17  1  0
 17 18  1  0
 17 19  1  0
 17  1  1  0
  1  2  2  0
  2  3  1  0
  3  4  1  0
  3  5  2  0
  5  6  1  0
  6  8  1  0
  8  9  2  0
  9 10  1  0
 10 11  2  0
 11 12  1  0
 12 13  1  0
 13 14  2  0
  6  7  2  0
  7  1  1  0
 13  8  1  0
 12 15  1  0
M  END
> <minimizedAffinity>
-8.33659

> <CNNscore>
0.9772422910

> <CNNaffinity>
6.0628933907

> <CNN_VS>
5.9249157906

> <CNNaffinity_variance>
0.0132093420

$$$$



 19 20  0  0  0  0  0  0  0  0999 V2000
   -9.5380    9.0208    7.1562 C   0  0  0  0  0  0  0  0  0  0  0  0
   -8.2764    9.5174    7.5364 C   0  0  0  0  0  0  0  0  0  0  0  0
   -7.9079    9.6053    8.8801 C   0  0  0  0  0  0  0  0  0  0  0  0
   -6.3544   10.2198    9.2971 Cl  0  0  0  0  0  0  0  0  0  0  0  0
   -8.7840    9.2066    9.8832 C   0  0  0  0  0  0  0  0  0  0  0  0
  -10.0483    8.7149    9.5473 C   0  0  0  0  0  0  0  0  0  0  0  0
  -10.4091    8.6229    8.1881 C   0  0  0  0  0  0  0  0  0  0  0  0
  -10.9884    8.2984   10.6059 C   0  0  0  0  0  0  0  0  0  0  0  0
  -11.4440    9.1902   11.5086 C   0  0  0  0  0  0  0  0  0  0  0  0
  -12.3546    8.8079   12.5634 C   0  0  0  0  0  0  0  0  0  0  0  0
  -12.7580    7.5375   12.6669 C   0  0  0  0  0  0  0  0  0  0  0  0
  -12.3107    6.6005   11.7751 N   0  0  0  0  0  0  0  0  0  0  0  0
  -11.4457    6.8678   10.7370 C   0  0  0  0  0  0  0  0  0  0  0  0
  -11.0807    5.9799    9.9727 O   0  0  0  0  0  0  0  0  0  0  0  0
  -12.6280    5.6748   11.8827 H   0  0  0  0  0  0  0  0  0  0  0  0
  -11.1804    9.7232    5.2870 C   0  0  0  0  0  0  0  0  0  0  0  0
   -9.9122    8.9255    5.6664 C   0  0  0  0  0  0  0  0  0  0  0  0
   -8.7544    9.4743    4.8045 C   0  0  0  0  0  0  0  0  0  0  0  0
  -10.1711    7.4507    5.2900 C   0  0  0  0  0  0  0  0  0  0  0  0
 16 17  1  0
 17 18  1  0
 17 19  1  0
 17  1  1  0
  1  2  2  0
  2  3  1  0
  3  4  1  0
  3  5  2  0
  5  6  1  0
  6  8  1  0
  8  9  2  0
  9 10  1  0
 10 11  2  0
 11 12  1  0
 12 13  1  0
 13 14  2  0
  6  7  2  0
  7  1  1  0
 13  8  1  0
 12 15  1  0
M  END
> <minimizedAffinity>
-6.87996

> <CNNscore>
0.9273897409

> <CNNaffinity>
5.5948109627

> <CNN_VS>
5.1885704994

> <CNNaffinity_variance>
0.0554874390

$$$$



 19 20  0  0  0  0  0  0  0  0999 V2000
   -7.7234    9.8751   11.0802 C   0  0  0  0  0  0  0  0  0  0  0  0
   -7.5077    9.7753    9.6923 C   0  0  0  0  0  0  0  0  0  0  0  0
   -8.5333    9.3922    8.8261 C   0  0  0  0  0  0  0  0  0  0  0  0
   -8.2223    9.2834    7.1359 Cl  0  0  0  0  0  0  0  0  0  0  0  0
   -9.7999    9.0933    9.3150 C   0  0  0  0  0  0  0  0  0  0  0  0
  -10.0524    9.1733   10.6871 C   0  0  0  0  0  0  0  0  0  0  0  0
   -9.0132    9.5678   11.5535 C   0  0  0  0  0  0  0  0  0  0  0  0
  -11.3913    8.8486   11.2161 C   0  0  0  0  0  0  0  0  0  0  0  0
  -11.7159    7.5777   11.5283 C   0  0  0  0  0  0  0  0  0  0  0  0
  -13.0231    7.2288   12.0355 C   0  0  0  0  0  0  0  0  0  0  0  0
  -13.9505    8.1784   12.1958 C   0  0  0  0  0  0  0  0  0  0  0  0
  -13.6624    9.4791   11.8815 N   0  0  0  0  0  0  0  0  0  0  0  0
  -12.4475    9.9093   11.3954 C   0  0  0  0  0  0  0  0  0  0  0  0
  -12.2546   11.0917   11.1305 O   0  0  0  0  0  0  0  0  0  0  0  0
  -14.3699   10.1512   12.0114 H   0  0  0  0  0  0  0  0  0  0  0  0
   -6.9739   10.3879   13.5010 C   0  0  0  0  0  0  0  0  0  0  0  0
   -6.5764   10.3105   12.0095 C   0  0  0  0  0  0  0  0  0  0  0  0
   -5.4102    9.3042   11.9009 C   0  0  0  0  0  0  0  0  0  0  0  0
   -6.0782   11.7123   11.5967 C   0  0  0  0  0  0  0  0  0  0  0  0
 16 17  1  0
 17 18  1  0
 17 19  1  0
 17  1  1  0
  1  2  2  0
  2  3  1  0
  3  4  1  0
  3  5  2  0
  5  6  1  0
  6  8  1  0
  8  9  2  0
  9 10  1  0
 10 11  2  0
 11 12  1  0
 12 13  1  0
 13 14  2  0
  6  7  2  0
  7  1  1  0
 13  8  1  0
 12 15  1  0
M  END
> <minimizedAffinity>
-7.80310

> <CNNscore>
0.8810612559

> <CNNaffinity>
5.3650760651

> <CNN_VS>
4.7269606590

> <CNNaffinity_variance>
0.1503102928

$$$$



 19 20  0  0  0  0  0  0  0  0999 V2000
   -8.0600    9.7348   11.1695 C   0  0  0  0  0  0  0  0  0  0  0  0
   -9.2000    9.5648   11.9784 C   0  0  0  0  0  0  0  0  0  0  0  0
  -10.4191    9.1562   11.4346 C   0  0  0  0  0  0  0  0  0  0  0  0
  -11.7864    8.9622   12.4632 Cl  0  0  0  0  0  0  0  0  0  0  0  0
  -10.5406    8.9097   10.0718 C   0  0  0  0  0  0  0  0  0  0  0  0
   -9.4343    9.0741    9.2340 C   0  0  0  0  0  0  0  0  0  0  0  0
   -8.2057    9.4799    9.7927 C   0  0  0  0  0  0  0  0  0  0  0  0
   -9.5565    8.8240    7.7847 C   0  0  0  0  0  0  0  0  0  0  0  0
   -8.9817    9.6569    6.8939 C   0  0  0  0  0  0  0  0  0  0  0  0
   -9.0959    9.4440    5.4693 C   0  0  0  0  0  0  0  0  0  0  0  0
   -9.7954    8.4034    5.0055 C   0  0  0  0  0  0  0  0  0  0  0  0
  -10.4015    7.5402    5.8779 N   0  0  0  0  0  0  0  0  0  0  0  0
  -10.3478    7.6578    7.2492 C   0  0  0  0  0  0  0  0  0  0  0  0
  -10.9165    6.8496    7.9765 O   0  0  0  0  0  0  0  0  0  0  0  0
  -10.9091    6.7858    5.5004 H   0  0  0  0  0  0  0  0  0  0  0  0
   -5.6392    9.0777   11.7960 C   0  0  0  0  0  0  0  0  0  0  0  0
   -6.7266   10.1758   11.7990 C   0  0  0  0  0  0  0  0  0  0  0  0
   -6.1582   11.3814   11.0192 C   0  0  0  0  0  0  0  0  0  0  0  0
   -6.9577   10.5851   13.2697 C   0  0  0  0  0  0  0  0  0  0  0  0
 16 17  1  0
 17 18  1  0
 17 19  1  0
 17  1  1  0
  1  2  2  0
  2  3  1  0
  3  4  1  0
  3  5  2  0
  5  6  1  0
  6  8  1  0
  8  9  2  0
  9 10  1  0
 10 11  2  0
 11 12  1  0
 12 13  1  0
 13 14  2  0
  6  7  2  0
  7  1  1  0
 13  8  1  0
 12 15  1  0
M  END
> <minimizedAffinity>
-7.44567

> <CNNscore>
0.8159413934

> <CNNaffinity>
5.6132512093

> <CNN_VS>
4.5800838470

> <CNNaffinity_variance>
0.2868605554

$$$$



 19 20  0  0  0  0  0  0  0  0999 V2000
   -8.1835    9.5472    8.7646 C   0  0  0  0  0  0  0  0  0  0  0  0
   -8.1873    9.4789    7.3582 C   0  0  0  0  0  0  0  0  0  0  0  0
   -9.3074    9.0265    6.6584 C   0  0  0  0  0  0  0  0  0  0  0  0
   -9.2653    8.9598    4.9382 Cl  0  0  0  0  0  0  0  0  0  0  0  0
  -10.4527    8.6251    7.3365 C   0  0  0  0  0  0  0  0  0  0  0  0
  -10.4862    8.6710    8.7328 C   0  0  0  0  0  0  0  0  0  0  0  0
   -9.3536    9.1359    9.4307 C   0  0  0  0  0  0  0  0  0  0  0  0
  -11.6944    8.2378    9.4613 C   0  0  0  0  0  0  0  0  0  0  0  0
  -12.7698    9.0463    9.5483 C   0  0  0  0  0  0  0  0  0  0  0  0
  -13.9609    8.6537   10.2659 C   0  0  0  0  0  0  0  0  0  0  0  0
  -14.0103    7.4642   10.8741 C   0  0  0  0  0  0  0  0  0  0  0  0
  -12.9354    6.6187   10.8165 N   0  0  0  0  0  0  0  0  0  0  0  0
  -11.7600    6.9017   10.1565 C   0  0  0  0  0  0  0  0  0  0  0  0
  -10.8315    6.0995   10.1452 O   0  0  0  0  0  0  0  0  0  0  0  0
  -13.0072    5.7515   11.2769 H   0  0  0  0  0  0  0  0  0  0  0  0
   -6.5731    9.2352   10.7631 C   0  0  0  0  0  0  0  0  0  0  0  0
   -6.9377   10.0605    9.5084 C   0  0  0  0  0  0  0  0  0  0  0  0
   -5.7160   10.0182    8.5649 C   0  0  0  0  0  0  0  0  0  0  0  0
   -7.1724   11.5147    9.9710 C   0  0  0  0  0  0  0  0  0  0  0  0
 16 17  1  0
 17 18  1  0
 17 19  1  0
 17  1  1  0
  1  2  2  0
  2  3  1  0
  3  4  1  0
  3  5  2  0
  5  6  1  0
  6  8  1  0
  8  9  2  0
  9 10  1  0
 10 11  2  0
 11 12  1  0
 12 13  1  0
 13 14  2  0
  6  7  2  0
  7  1  1  0
 13  8  1  0
 12 15  1  0
M  END
> <minimizedAffinity>
-6.26997

> <CNNscore>
0.8046078086

> <CNNaffinity>
5.5228419304

> <CNN_VS>
4.4437217712

> <CNNaffinity_variance>
0.3536521494

$$$$



 19 20  0  0  0  0  0  0  0  0999 V2000
   -8.0234    9.9696   11.1764 C   0  0  0  0  0  0  0  0  0  0  0  0
   -9.1683    9.5439   11.8771 C   0  0  0  0  0  0  0  0  0  0  0  0
  -10.3509    9.2264   11.2066 C   0  0  0  0  0  0  0  0  0  0  0  0
  -11.7258    8.7107   12.1060 Cl  0  0  0  0  0  0  0  0  0  0  0  0
  -10.4304    9.3274    9.8224 C   0  0  0  0  0  0  0  0  0  0  0  0
   -9.3182    9.7533    9.0912 C   0  0  0  0  0  0  0  0  0  0  0  0
   -8.1263   10.0648    9.7755 C   0  0  0  0  0  0  0  0  0  0  0  0
   -9.3965    9.8726    7.6223 C   0  0  0  0  0  0  0  0  0  0  0  0
   -8.6367    9.0908    6.8290 C   0  0  0  0  0  0  0  0  0  0  0  0
   -8.6830    9.1949    5.3886 C   0  0  0  0  0  0  0  0  0  0  0  0
   -9.4883   10.0925    4.8114 C   0  0  0  0  0  0  0  0  0  0  0  0
  -10.2686   10.9108    5.5828 N   0  0  0  0  0  0  0  0  0  0  0  0
  -10.2957   10.8851    6.9597 C   0  0  0  0  0  0  0  0  0  0  0  0
  -11.0176   11.6490    7.5929 O   0  0  0  0  0  0  0  0  0  0  0  0
  -10.8484   11.5604    5.1233 H   0  0  0  0  0  0  0  0  0  0  0  0
   -6.0520   11.6137   11.4847 C   0  0  0  0  0  0  0  0  0  0  0  0
   -6.7303   10.3024   11.9417 C   0  0  0  0  0  0  0  0  0  0  0  0
   -7.0418   10.4517   13.4467 C   0  0  0  0  0  0  0  0  0  0  0  0
   -5.7043    9.1655   11.7454 C   0  0  0  0  0  0  0  0  0  0  0  0
 16 17  1  0
 17 18  1  0
 17 19  1  0
 17  1  1  0
  1  2  2  0
  2  3  1  0
  3  4  1  0
  3  5  2  0
  5  6  1  0
  6  8  1  0
  8  9  2  0
  9 10  1  0
 10 11  2  0
 11 12  1  0
 12 13  1  0
 13 14  2  0
  6  7  2  0
  7  1  1  0
 13  8  1  0
 12 15  1  0
M  END
> <minimizedAffinity>
-7.33389

> <CNNscore>
0.6807050109

> <CNNaffinity>
5.2075762749

> <CNN_VS>
3.5448231697

> <CNNaffinity_variance>
0.6092423797

$$$$



 19 20  0  0  0  0  0  0  0  0999 V2000
  -10.1704    8.9383    5.6346 C   0  0  0  0  0  0  0  0  0  0  0  0
   -8.9320    9.2805    6.2107 C   0  0  0  0  0  0  0  0  0  0  0  0
   -8.7364    9.2260    7.5920 C   0  0  0  0  0  0  0  0  0  0  0  0
   -7.2044    9.6544    8.2512 Cl  0  0  0  0  0  0  0  0  0  0  0  0
   -9.7668    8.8345    8.4391 C   0  0  0  0  0  0  0  0  0  0  0  0
  -11.0132    8.4939    7.9069 C   0  0  0  0  0  0  0  0  0  0  0  0
  -11.1996    8.5449    6.5109 C   0  0  0  0  0  0  0  0  0  0  0  0
  -12.1156    8.0864    8.7994 C   0  0  0  0  0  0  0  0  0  0  0  0
  -12.6786    8.9741    9.6438 C   0  0  0  0  0  0  0  0  0  0  0  0
  -13.7502    8.5999   10.5379 C   0  0  0  0  0  0  0  0  0  0  0  0
  -14.2005    7.3411   10.5477 C   0  0  0  0  0  0  0  0  0  0  0  0
  -13.6486    6.4083    9.7117 N   0  0  0  0  0  0  0  0  0  0  0  0
  -12.6277    6.6686    8.8243 C   0  0  0  0  0  0  0  0  0  0  0  0
  -12.1754    5.7850    8.1031 O   0  0  0  0  0  0  0  0  0  0  0  0
  -14.0046    5.4911    9.7470 H   0  0  0  0  0  0  0  0  0  0  0  0
  -10.4656    7.6103    3.4359 C   0  0  0  0  0  0  0  0  0  0  0  0
  -10.3532    8.9976    4.1075 C   0  0  0  0  0  0  0  0  0  0  0  0
  -11.6450    9.7731    3.7693 C   0  0  0  0  0  0  0  0  0  0  0  0
   -9.1462    9.7176    3.4684 C   0  0  0  0  0  0  0  0  0  0  0  0
 16 17  1  0
 17 18  1  0
 17 19  1  0
 17  1  1  0
  1  2  2  0
  2  3  1  0
  3  4  1  0
  3  5  2  0
  5  6  1  0
  6  8  1  0
  8  9  2  0
  9 10  1  0
 10 11  2  0
 11 12  1  0
 12 13  1  0
 13 14  2  0
  6  7  2  0
  7  1  1  0
 13  8  1  0
 12 15  1  0
M  END
> <minimizedAffinity>
-5.97780

> <CNNscore>
0.6417739391

> <CNNaffinity>
5.0402641296

> <CNN_VS>
3.2347102165

> <CNNaffinity_variance>
0.0400054865

$$$$



 19 20  0  0  0  0  0  0  0  0999 V2000
   -8.5236    9.1593    8.9825 C   0  0  0  0  0  0  0  0  0  0  0  0
   -9.4257    8.3568    9.7071 C   0  0  0  0  0  0  0  0  0  0  0  0
  -10.4200    7.6204    9.0605 C   0  0  0  0  0  0  0  0  0  0  0  0
  -11.5010    6.6534    9.9887 Cl  0  0  0  0  0  0  0  0  0  0  0  0
  -10.5484    7.6643    7.6770 C   0  0  0  0  0  0  0  0  0  0  0  0
   -9.6771    8.4545    6.9224 C   0  0  0  0  0  0  0  0  0  0  0  0
   -8.6719    9.1889    7.5828 C   0  0  0  0  0  0  0  0  0  0  0  0
   -9.8122    8.5146    5.4540 C   0  0  0  0  0  0  0  0  0  0  0  0
   -9.2454    9.5175    4.7534 C   0  0  0  0  0  0  0  0  0  0  0  0
   -9.3722    9.6088    3.3170 C   0  0  0  0  0  0  0  0  0  0  0  0
  -10.0757    8.6876    2.6506 C   0  0  0  0  0  0  0  0  0  0  0  0
  -10.6739    7.6590    3.3271 N   0  0  0  0  0  0  0  0  0  0  0  0
  -10.6081    7.4856    4.6920 C   0  0  0  0  0  0  0  0  0  0  0  0
  -11.1702    6.5414    5.2379 O   0  0  0  0  0  0  0  0  0  0  0  0
  -11.1847    6.9999    2.8038 H   0  0  0  0  0  0  0  0  0  0  0  0
   -7.8585   11.3807   10.1260 C   0  0  0  0  0  0  0  0  0  0  0  0
   -7.4308    9.9517    9.7218 C   0  0  0  0  0  0  0  0  0  0  0  0
   -7.0394    9.2099   11.0184 C   0  0  0  0  0  0  0  0  0  0  0  0
   -6.1864   10.0863    8.8179 C   0  0  0  0  0  0  0  0  0  0  0  0
 16 17  1  0
 17 18  1  0
 17 19  1  0
 17  1  1  0
  1  2  2  0
  2  3  1  0
  3  4  1  0
  3  5  2  0
  5  6  1  0
  6  8  1  0
  8  9  2  0
  9 10  1  0
 10 11  2  0
 11 12  1  0
 12 13  1  0
 13 14  2  0
  6  7  2  0
  7  1  1  0
 13  8  1  0
 12 15  1  0
M  END
> <minimizedAffinity>
-6.63259

> <CNNscore>
0.5814517140

> <CNNaffinity>
5.4541912079

> <CNN_VS>
3.1713488102

> <CNNaffinity_variance>
0.0721736401

$$$$



 19 20  0  0  0  0  0  0  0  0999 V2000
  -10.4801    9.0242    9.7743 C   0  0  0  0  0  0  0  0  0  0  0  0
  -10.8905    8.9041   11.1159 C   0  0  0  0  0  0  0  0  0  0  0  0
  -12.1225    8.3376   11.4481 C   0  0  0  0  0  0  0  0  0  0  0  0
  -12.5819    8.2124   13.1029 Cl  0  0  0  0  0  0  0  0  0  0  0  0
  -12.9825    7.8790   10.4568 C   0  0  0  0  0  0  0  0  0  0  0  0
  -12.6150    7.9868    9.1128 C   0  0  0  0  0  0  0  0  0  0  0  0
  -11.3665    8.5534    8.7870 C   0  0  0  0  0  0  0  0  0  0  0  0
  -13.5258    7.5115    8.0534 C   0  0  0  0  0  0  0  0  0  0  0  0
  -14.3330    8.3746    7.4044 C   0  0  0  0  0  0  0  0  0  0  0  0
  -15.2439    7.9355    6.3723 C   0  0  0  0  0  0  0  0  0  0  0  0
  -15.3075    6.6402    6.0472 C   0  0  0  0  0  0  0  0  0  0  0  0
  -14.5106    5.7315    6.6896 N   0  0  0  0  0  0  0  0  0  0  0  0
  -13.6113    6.0528    7.6823 C   0  0  0  0  0  0  0  0  0  0  0  0
  -12.9271    5.1881    8.2206 O   0  0  0  0  0  0  0  0  0  0  0  0
  -14.5852    4.7862    6.4249 H   0  0  0  0  0  0  0  0  0  0  0  0
   -8.5992    9.3000    8.0219 C   0  0  0  0  0  0  0  0  0  0  0  0
   -9.1115    9.6432    9.4390 C   0  0  0  0  0  0  0  0  0  0  0  0
   -9.2017   11.1820    9.5301 C   0  0  0  0  0  0  0  0  0  0  0  0
   -8.0531    9.1359   10.4421 C   0  0  0  0  0  0  0  0  0  0  0  0
 16 17  1  0
 17 18  1  0
 17 19  1  0
 17  1  1  0
  1  2  2  0
  2  3  1  0
  3  4  1  0
  3  5  2  0
  5  6  1  0
  6  8  1  0
  8  9  2  0
  9 10  1  0
 10 11  2  0
 11 12  1  0
 12 13  1  0
 13 14  2  0
  6  7  2  0
  7  1  1  0
 13  8  1  0
 12 15  1  0
M  END
> <minimizedAffinity>
-5.65572

> <CNNscore>
0.4929797947

> <CNNaffinity>
5.4436683655

> <CNN_VS>
2.6836185455

> <CNNaffinity_variance>
0.3014304340

$$$$
