


 25 28  0  0  0  0  0  0  0  0999 V2000
    8.8100   57.5598   -0.5688 C   0  0  0  0  0  0  0  0  0  0  0  0
    8.8920   58.8690   -0.7658 N   0  0  0  0  0  0  0  0  0  0  0  0
    7.7249   59.4011   -0.3006 C   0  0  0  0  0  0  0  0  0  0  0  0
    7.2457   60.7231   -0.2808 C   0  0  0  0  0  0  0  0  0  0  0  0
    6.0080   61.0545    0.1988 N   0  0  0  0  0  0  0  0  0  0  0  0
    5.2725   60.0133    0.6242 C   0  0  0  0  0  0  0  0  0  0  0  0
    3.9957   60.0523    1.1079 N   0  0  0  0  0  0  0  0  0  0  0  0
    3.5723   58.7715    1.3926 C   0  0  0  0  0  0  0  0  0  0  0  0
    4.5997   57.8885    1.0995 C   0  0  0  0  0  0  0  0  0  0  0  0
    5.6713   58.6946    0.6411 C   0  0  0  0  0  0  0  0  0  0  0  0
    6.9263   58.3909    0.1982 C   0  0  0  0  0  0  0  0  0  0  0  0
    7.6418   57.2416    0.1335 N   0  0  0  0  0  0  0  0  0  0  0  0
    3.4604   60.8689    1.2338 H   0  0  0  0  0  0  0  0  0  0  0  0
    7.3163   55.9631    0.7556 C   0  0  0  0  0  0  0  0  0  0  0  0
    7.2367   56.0324    2.2894 C   0  0  0  0  0  0  0  0  0  0  0  0
    6.3259   54.9557    2.8955 C   0  0  0  0  0  0  0  0  0  0  0  0
    6.3716   53.6218    2.1391 C   0  0  0  0  0  0  0  0  0  0  0  0
    5.9910   53.7944    0.6553 C   0  0  0  0  0  0  0  0  0  0  0  0
    6.1151   55.2340    0.1338 C   0  0  0  0  0  0  0  0  0  0  0  0
    7.7064   53.0018    2.2706 C   0  0  0  0  0  0  0  0  0  0  0  0
    8.7386   52.4835    2.3757 N   0  0  0  0  0  0  0  0  0  0  0  0
    9.8265   56.5735   -1.0886 C   0  0  0  0  0  0  0  0  0  0  0  0
   10.7631   57.2672   -2.0766 C   0  0  0  0  0  0  0  0  0  0  0  0
   10.7001   54.6943    0.1147 C   0  0  0  0  0  0  0  0  0  0  0  0
   10.6453   56.1065   -0.0064 O   0  0  0  0  0  0  0  0  0  0  0  0
 24 25  1  0
 25 22  1  0
 22 23  1  0
 22  1  1  0
  1  2  2  0
  2  3  1  0
  3  4  2  0
  4  5  1  0
  5  6  2  0
  6  7  1  0
  7  8  1  0
  8  9  2  0
  9 10  1  0
 10 11  2  0
 11 12  1  0
 14 12  1  0
 14 15  1  0
 15 16  1  0
 16 17  1  0
 17 20  1  0
 20 21  3  0
 17 18  1  0
 18 19  1  0
 12  1  1  0
 19 14  1  0
 11  3  1  0
 10  6  1  0
  7 13  1  0
M  END
> <minimizedAffinity>
-8.86400

> <CNNscore>
0.9925888181

> <CNNaffinity>
8.0036277771

> <CNN_VS>
7.9443116188

> <CNNaffinity_variance>
0.0387836657

$$$$



 25 28  0  0  0  0  0  0  0  0999 V2000
    5.5114   58.2085    0.8458 C   0  0  0  0  0  0  0  0  0  0  0  0
    5.7272   59.3126    0.1431 N   0  0  0  0  0  0  0  0  0  0  0  0
    6.9426   59.1545   -0.4566 C   0  0  0  0  0  0  0  0  0  0  0  0
    7.6913   60.0090   -1.2855 C   0  0  0  0  0  0  0  0  0  0  0  0
    8.9313   59.6796   -1.7606 N   0  0  0  0  0  0  0  0  0  0  0  0
    9.3919   58.4858   -1.3499 C   0  0  0  0  0  0  0  0  0  0  0  0
   10.6070   57.9312   -1.6361 N   0  0  0  0  0  0  0  0  0  0  0  0
   10.7229   56.7188   -0.9898 C   0  0  0  0  0  0  0  0  0  0  0  0
    9.5553   56.4789   -0.2826 C   0  0  0  0  0  0  0  0  0  0  0  0
    8.7194   57.5930   -0.5443 C   0  0  0  0  0  0  0  0  0  0  0  0
    7.4658   57.9226   -0.1164 C   0  0  0  0  0  0  0  0  0  0  0  0
    6.5274   57.2738    0.6154 N   0  0  0  0  0  0  0  0  0  0  0  0
   11.2938   58.3348   -2.2145 H   0  0  0  0  0  0  0  0  0  0  0  0
    6.5230   55.8658    0.9959 C   0  0  0  0  0  0  0  0  0  0  0  0
    6.6759   54.9094   -0.1981 C   0  0  0  0  0  0  0  0  0  0  0  0
    7.2885   53.5558    0.1876 C   0  0  0  0  0  0  0  0  0  0  0  0
    6.8598   53.0663    1.5769 C   0  0  0  0  0  0  0  0  0  0  0  0
    7.2164   54.0864    2.6761 C   0  0  0  0  0  0  0  0  0  0  0  0
    7.4616   55.5124    2.1601 C   0  0  0  0  0  0  0  0  0  0  0  0
    5.4138   52.7622    1.5912 C   0  0  0  0  0  0  0  0  0  0  0  0
    4.2867   52.4891    1.6044 N   0  0  0  0  0  0  0  0  0  0  0  0
    4.3493   58.0372    1.7927 C   0  0  0  0  0  0  0  0  0  0  0  0
    3.5970   59.3595    1.9339 C   0  0  0  0  0  0  0  0  0  0  0  0
    3.1872   55.9604    2.0738 C   0  0  0  0  0  0  0  0  0  0  0  0
    3.4172   57.0912    1.2489 O   0  0  0  0  0  0  0  0  0  0  0  0
 24 25  1  0
 25 22  1  0
 22 23  1  0
 22  1  1  0
  1  2  2  0
  2  3  1  0
  3  4  2  0
  4  5  1  0
  5  6  2  0
  6  7  1  0
  7  8  1  0
  8  9  2  0
  9 10  1  0
 10 11  2  0
 11 12  1  0
 14 12  1  0
 14 15  1  0
 15 16  1  0
 16 17  1  0
 17 20  1  0
 20 21  3  0
 17 18  1  0
 18 19  1  0
 12  1  1  0
 19 14  1  0
 11  3  1  0
 10  6  1  0
  7 13  1  0
M  END
> <minimizedAffinity>
-7.66206

> <CNNscore>
0.8890603185

> <CNNaffinity>
7.3143181801

> <CNN_VS>
6.5028700829

> <CNNaffinity_variance>
0.0131728910

$$$$



 25 28  0  0  0  0  0  0  0  0999 V2000
    8.9841   58.7313   -1.0381 C   0  0  0  0  0  0  0  0  0  0  0  0
    8.4070   59.9236   -1.1076 N   0  0  0  0  0  0  0  0  0  0  0  0
    7.1805   59.7910   -0.5246 C   0  0  0  0  0  0  0  0  0  0  0  0
    6.1297   60.7082   -0.3449 C   0  0  0  0  0  0  0  0  0  0  0  0
    4.9395   60.3655    0.2363 N   0  0  0  0  0  0  0  0  0  0  0  0
    4.8412   59.0748    0.5974 C   0  0  0  0  0  0  0  0  0  0  0  0
    3.7578   58.4580    1.1558 N   0  0  0  0  0  0  0  0  0  0  0  0
    4.0326   57.1189    1.3350 C   0  0  0  0  0  0  0  0  0  0  0  0
    5.3230   56.8675    0.8961 C   0  0  0  0  0  0  0  0  0  0  0  0
    5.8240   58.1191    0.4592 C   0  0  0  0  0  0  0  0  0  0  0  0
    7.0195   58.4922   -0.0839 C   0  0  0  0  0  0  0  0  0  0  0  0
    8.1888   57.8433   -0.3046 N   0  0  0  0  0  0  0  0  0  0  0  0
    2.9115   58.9013    1.3935 H   0  0  0  0  0  0  0  0  0  0  0  0
    8.5812   56.5340    0.2043 C   0  0  0  0  0  0  0  0  0  0  0  0
    8.7457   56.4964    1.7325 C   0  0  0  0  0  0  0  0  0  0  0  0
    8.5314   55.0980    2.3282 C   0  0  0  0  0  0  0  0  0  0  0  0
    9.0360   53.9661    1.4239 C   0  0  0  0  0  0  0  0  0  0  0  0
    8.3682   54.0049    0.0352 C   0  0  0  0  0  0  0  0  0  0  0  0
    7.7444   55.3607   -0.3289 C   0  0  0  0  0  0  0  0  0  0  0  0
   10.5074   54.0233    1.3013 C   0  0  0  0  0  0  0  0  0  0  0  0
   11.6642   54.0354    1.2177 N   0  0  0  0  0  0  0  0  0  0  0  0
   10.2922   58.3981   -1.7120 C   0  0  0  0  0  0  0  0  0  0  0  0
   10.1424   57.1152   -2.5280 C   0  0  0  0  0  0  0  0  0  0  0  0
   11.9691   59.3685   -3.1223 C   0  0  0  0  0  0  0  0  0  0  0  0
   10.6367   59.4368   -2.6405 O   0  0  0  0  0  0  0  0  0  0  0  0
 24 25  1  0
 25 22  1  0
 22 23  1  0
 22  1  1  0
  1  2  2  0
  2  3  1  0
  3  4  2  0
  4  5  1  0
  5  6  2  0
  6  7  1  0
  7  8  1  0
  8  9  2  0
  9 10  1  0
 10 11  2  0
 11 12  1  0
 14 12  1  0
 14 15  1  0
 15 16  1  0
 16 17  1  0
 17 20  1  0
 20 21  3  0
 17 18  1  0
 18 19  1  0
 12  1  1  0
 19 14  1  0
 11  3  1  0
 10  6  1  0
  7 13  1  0
M  END
> <minimizedAffinity>
-7.23529

> <CNNscore>
0.7976252437

> <CNNaffinity>
7.4668750763

> <CNN_VS>
5.9557681084

> <CNNaffinity_variance>
0.0390282907

$$$$



 25 28  0  0  0  0  0  0  0  0999 V2000
    5.7033   58.0966    0.7957 C   0  0  0  0  0  0  0  0  0  0  0  0
    5.8736   59.2118    0.0981 N   0  0  0  0  0  0  0  0  0  0  0  0
    7.0824   59.0946   -0.5240 C   0  0  0  0  0  0  0  0  0  0  0  0
    7.7904   59.9773   -1.3591 C   0  0  0  0  0  0  0  0  0  0  0  0
    9.0310   59.6887   -1.8584 N   0  0  0  0  0  0  0  0  0  0  0  0
    9.5343   58.5062   -1.4654 C   0  0  0  0  0  0  0  0  0  0  0  0
   10.7601   57.9903   -1.7772 N   0  0  0  0  0  0  0  0  0  0  0  0
   10.9235   56.7772   -1.1427 C   0  0  0  0  0  0  0  0  0  0  0  0
    9.7763   56.4972   -0.4171 C   0  0  0  0  0  0  0  0  0  0  0  0
    8.9031   57.5877   -0.6553 C   0  0  0  0  0  0  0  0  0  0  0  0
    7.6480   57.8765   -0.2029 C   0  0  0  0  0  0  0  0  0  0  0  0
    6.7425   57.1945    0.5401 N   0  0  0  0  0  0  0  0  0  0  0  0
   11.4242   58.4186   -2.3643 H   0  0  0  0  0  0  0  0  0  0  0  0
    6.7867   55.7841    0.9094 C   0  0  0  0  0  0  0  0  0  0  0  0
    6.6791   55.5454    2.4244 C   0  0  0  0  0  0  0  0  0  0  0  0
    6.1049   54.1666    2.7787 C   0  0  0  0  0  0  0  0  0  0  0  0
    6.5313   53.0601    1.8053 C   0  0  0  0  0  0  0  0  0  0  0  0
    6.1288   53.3906    0.3545 C   0  0  0  0  0  0  0  0  0  0  0  0
    5.8451   54.8787    0.1002 C   0  0  0  0  0  0  0  0  0  0  0  0
    7.9859   52.8199    1.9054 C   0  0  0  0  0  0  0  0  0  0  0  0
    9.1332   52.6650    1.9749 N   0  0  0  0  0  0  0  0  0  0  0  0
    4.5638   57.8836    1.7614 C   0  0  0  0  0  0  0  0  0  0  0  0
    3.8236   59.2008    1.9877 C   0  0  0  0  0  0  0  0  0  0  0  0
    3.0392   56.0716    2.1291 C   0  0  0  0  0  0  0  0  0  0  0  0
    3.6126   56.9709    1.1939 O   0  0  0  0  0  0  0  0  0  0  0  0
 24 25  1  0
 25 22  1  0
 22 23  1  0
 22  1  1  0
  1  2  2  0
  2  3  1  0
  3  4  2  0
  4  5  1  0
  5  6  2  0
  6  7  1  0
  7  8  1  0
  8  9  2  0
  9 10  1  0
 10 11  2  0
 11 12  1  0
 14 12  1  0
 14 15  1  0
 15 16  1  0
 16 17  1  0
 17 20  1  0
 20 21  3  0
 17 18  1  0
 18 19  1  0
 12  1  1  0
 19 14  1  0
 11  3  1  0
 10  6  1  0
  7 13  1  0
M  END
> <minimizedAffinity>
-7.55040

> <CNNscore>
0.7334490418

> <CNNaffinity>
7.2153544426

> <CNN_VS>
5.2920947075

> <CNNaffinity_variance>
0.0124871144

$$$$



 25 28  0  0  0  0  0  0  0  0999 V2000
    7.2474   58.8495   -0.2307 C   0  0  0  0  0  0  0  0  0  0  0  0
    8.0952   59.3062   -1.1429 N   0  0  0  0  0  0  0  0  0  0  0  0
    9.0399   58.3357   -1.3089 C   0  0  0  0  0  0  0  0  0  0  0  0
   10.1910   58.2836   -2.1152 C   0  0  0  0  0  0  0  0  0  0  0  0
   11.0509   57.2195   -2.1094 N   0  0  0  0  0  0  0  0  0  0  0  0
   10.7253   56.2381   -1.2510 C   0  0  0  0  0  0  0  0  0  0  0  0
   11.4251   55.0895   -1.0122 N   0  0  0  0  0  0  0  0  0  0  0  0
   10.7916   54.3611   -0.0279 C   0  0  0  0  0  0  0  0  0  0  0  0
    9.6533   55.0455    0.3683 C   0  0  0  0  0  0  0  0  0  0  0  0
    9.6165   56.2134   -0.4336 C   0  0  0  0  0  0  0  0  0  0  0  0
    8.7484   57.2656   -0.4863 C   0  0  0  0  0  0  0  0  0  0  0  0
    7.5645   57.5315    0.1176 N   0  0  0  0  0  0  0  0  0  0  0  0
   12.2539   54.8230   -1.4721 H   0  0  0  0  0  0  0  0  0  0  0  0
    6.7375   56.6066    0.8843 C   0  0  0  0  0  0  0  0  0  0  0  0
    6.1916   55.4376    0.0480 C   0  0  0  0  0  0  0  0  0  0  0  0
    5.8870   54.1874    0.8851 C   0  0  0  0  0  0  0  0  0  0  0  0
    5.3541   54.5077    2.2877 C   0  0  0  0  0  0  0  0  0  0  0  0
    6.3355   55.3915    3.0825 C   0  0  0  0  0  0  0  0  0  0  0  0
    7.3543   56.1447    2.2138 C   0  0  0  0  0  0  0  0  0  0  0  0
    4.0249   55.1470    2.1989 C   0  0  0  0  0  0  0  0  0  0  0  0
    2.9953   55.6731    2.1076 N   0  0  0  0  0  0  0  0  0  0  0  0
    6.1379   59.6800    0.3656 C   0  0  0  0  0  0  0  0  0  0  0  0
    5.7618   60.8077   -0.5942 C   0  0  0  0  0  0  0  0  0  0  0  0
    3.9697   59.4511    1.3601 C   0  0  0  0  0  0  0  0  0  0  0  0
    4.9631   58.8722    0.5294 O   0  0  0  0  0  0  0  0  0  0  0  0
 24 25  1  0
 25 22  1  0
 22 23  1  0
 22  1  1  0
  1  2  2  0
  2  3  1  0
  3  4  2  0
  4  5  1  0
  5  6  2  0
  6  7  1  0
  7  8  1  0
  8  9  2  0
  9 10  1  0
 10 11  2  0
 11 12  1  0
 14 12  1  0
 14 15  1  0
 15 16  1  0
 16 17  1  0
 17 20  1  0
 20 21  3  0
 17 18  1  0
 18 19  1  0
 12  1  1  0
 19 14  1  0
 11  3  1  0
 10  6  1  0
  7 13  1  0
M  END
> <minimizedAffinity>
-7.98617

> <CNNscore>
0.4283494055

> <CNNaffinity>
6.4939804077

> <CNN_VS>
2.7816927433

> <CNNaffinity_variance>
0.2323313951

$$$$



 25 28  0  0  0  0  0  0  0  0999 V2000
    9.8577   55.4877    0.3091 C   0  0  0  0  0  0  0  0  0  0  0  0
   10.4087   56.6743    0.0906 N   0  0  0  0  0  0  0  0  0  0  0  0
    9.3790   57.5653    0.0025 C   0  0  0  0  0  0  0  0  0  0  0  0
    9.3622   58.9484   -0.2511 C   0  0  0  0  0  0  0  0  0  0  0  0
    8.2034   59.6697   -0.3441 N   0  0  0  0  0  0  0  0  0  0  0  0
    7.0788   58.9478   -0.2025 C   0  0  0  0  0  0  0  0  0  0  0  0
    5.7938   59.4024   -0.2914 N   0  0  0  0  0  0  0  0  0  0  0  0
    4.9206   58.3469   -0.1355 C   0  0  0  0  0  0  0  0  0  0  0  0
    5.6549   57.1897    0.0711 C   0  0  0  0  0  0  0  0  0  0  0  0
    7.0126   57.5952    0.0512 C   0  0  0  0  0  0  0  0  0  0  0  0
    8.1813   56.9021    0.1831 C   0  0  0  0  0  0  0  0  0  0  0  0
    8.4747   55.6135    0.4836 N   0  0  0  0  0  0  0  0  0  0  0  0
    5.5317   60.3391   -0.4434 H   0  0  0  0  0  0  0  0  0  0  0  0
    7.5605   54.5943    0.9866 C   0  0  0  0  0  0  0  0  0  0  0  0
    7.0776   54.8610    2.4216 C   0  0  0  0  0  0  0  0  0  0  0  0
    5.7158   54.2224    2.7284 C   0  0  0  0  0  0  0  0  0  0  0  0
    5.5056   52.8710    2.0332 C   0  0  0  0  0  0  0  0  0  0  0  0
    5.6480   52.9886    0.5029 C   0  0  0  0  0  0  0  0  0  0  0  0
    6.4101   54.2368    0.0327 C   0  0  0  0  0  0  0  0  0  0  0  0
    6.4433   51.8642    2.5725 C   0  0  0  0  0  0  0  0  0  0  0  0
    7.1616   51.0490    2.9780 N   0  0  0  0  0  0  0  0  0  0  0  0
   10.6361   54.1952    0.3109 C   0  0  0  0  0  0  0  0  0  0  0  0
   11.3948   54.0456   -1.0067 C   0  0  0  0  0  0  0  0  0  0  0  0
   12.3485   53.0165    1.5030 C   0  0  0  0  0  0  0  0  0  0  0  0
   11.6239   54.2265    1.3516 O   0  0  0  0  0  0  0  0  0  0  0  0
 24 25  1  0
 25 22  1  0
 22 23  1  0
 22  1  1  0
  1  2  2  0
  2  3  1  0
  3  4  2  0
  4  5  1  0
  5  6  2  0
  6  7  1  0
  7  8  1  0
  8  9  2  0
  9 10  1  0
 10 11  2  0
 11 12  1  0
 14 12  1  0
 14 15  1  0
 15 16  1  0
 16 17  1  0
 17 20  1  0
 20 21  3  0
 17 18  1  0
 18 19  1  0
 12  1  1  0
 19 14  1  0
 11  3  1  0
 10  6  1  0
  7 13  1  0
M  END
> <minimizedAffinity>
-7.98795

> <CNNscore>
0.4252903163

> <CNNaffinity>
6.7110519409

> <CNN_VS>
2.8541452885

> <CNNaffinity_variance>
0.1290705800

$$$$



 25 28  0  0  0  0  0  0  0  0999 V2000
   17.0152   65.9292   -1.8929 C   0  0  0  0  0  0  0  0  0  0  0  0
   17.5451   65.0470   -1.0560 N   0  0  0  0  0  0  0  0  0  0  0  0
   17.1742   63.8153   -1.5114 C   0  0  0  0  0  0  0  0  0  0  0  0
   17.4156   62.5242   -1.0089 C   0  0  0  0  0  0  0  0  0  0  0  0
   16.9129   61.3955   -1.5964 N   0  0  0  0  0  0  0  0  0  0  0  0
   16.1454   61.6182   -2.6769 C   0  0  0  0  0  0  0  0  0  0  0  0
   15.4883   60.6830   -3.4249 N   0  0  0  0  0  0  0  0  0  0  0  0
   14.7687   61.3117   -4.4187 C   0  0  0  0  0  0  0  0  0  0  0  0
   14.9748   62.6787   -4.3195 C   0  0  0  0  0  0  0  0  0  0  0  0
   15.8664   62.8483   -3.2311 C   0  0  0  0  0  0  0  0  0  0  0  0
   16.4131   63.9584   -2.6546 C   0  0  0  0  0  0  0  0  0  0  0  0
   16.3958   65.2775   -2.9655 N   0  0  0  0  0  0  0  0  0  0  0  0
   15.5231   59.7103   -3.2771 H   0  0  0  0  0  0  0  0  0  0  0  0
   15.9264   65.8860   -4.2052 C   0  0  0  0  0  0  0  0  0  0  0  0
   16.6494   65.3604   -5.4561 C   0  0  0  0  0  0  0  0  0  0  0  0
   15.8063   65.4764   -6.7337 C   0  0  0  0  0  0  0  0  0  0  0  0
   14.9198   66.7280   -6.7676 C   0  0  0  0  0  0  0  0  0  0  0  0
   13.9681   66.7857   -5.5563 C   0  0  0  0  0  0  0  0  0  0  0  0
   14.3990   65.9085   -4.3712 C   0  0  0  0  0  0  0  0  0  0  0  0
   15.7529   67.9462   -6.8400 C   0  0  0  0  0  0  0  0  0  0  0  0
   16.4052   68.9008   -6.9321 N   0  0  0  0  0  0  0  0  0  0  0  0
   17.0486   67.4200   -1.6631 C   0  0  0  0  0  0  0  0  0  0  0  0
   17.1061   67.7119   -0.1645 C   0  0  0  0  0  0  0  0  0  0  0  0
   19.2094   68.3826   -1.2797 C   0  0  0  0  0  0  0  0  0  0  0  0
   18.2442   67.9712   -2.2343 O   0  0  0  0  0  0  0  0  0  0  0  0
 24 25  1  0
 25 22  1  0
 22 23  1  0
 22  1  1  0
  1  2  2  0
  2  3  1  0
  3  4  2  0
  4  5  1  0
  5  6  2  0
  6  7  1  0
  7  8  1  0
  8  9  2  0
  9 10  1  0
 10 11  2  0
 11 12  1  0
 14 12  1  0
 14 15  1  0
 15 16  1  0
 16 17  1  0
 17 20  1  0
 20 21  3  0
 17 18  1  0
 18 19  1  0
 12  1  1  0
 19 14  1  0
 11  3  1  0
 10  6  1  0
  7 13  1  0
M  END
> <minimizedAffinity>
-4.05284

> <CNNscore>
0.3496198058

> <CNNaffinity>
4.4921116829

> <CNN_VS>
1.5705312490

> <CNNaffinity_variance>
0.6866526008

$$$$



 25 28  0  0  0  0  0  0  0  0999 V2000
    7.2323   55.9216    1.4284 C   0  0  0  0  0  0  0  0  0  0  0  0
    6.5464   57.0222    1.1498 N   0  0  0  0  0  0  0  0  0  0  0  0
    7.2709   57.6988    0.2121 C   0  0  0  0  0  0  0  0  0  0  0  0
    7.0510   58.9343   -0.4228 C   0  0  0  0  0  0  0  0  0  0  0  0
    7.9325   59.4725   -1.3200 N   0  0  0  0  0  0  0  0  0  0  0  0
    9.0410   58.7413   -1.5269 C   0  0  0  0  0  0  0  0  0  0  0  0
   10.0970   59.0600   -2.3325 N   0  0  0  0  0  0  0  0  0  0  0  0
   11.0599   58.0778   -2.2388 C   0  0  0  0  0  0  0  0  0  0  0  0
   10.6123   57.0987   -1.3658 C   0  0  0  0  0  0  0  0  0  0  0  0
    9.3264   57.5238   -0.9486 C   0  0  0  0  0  0  0  0  0  0  0  0
    8.4135   56.9842   -0.0890 C   0  0  0  0  0  0  0  0  0  0  0  0
    8.3477   55.8130    0.5899 N   0  0  0  0  0  0  0  0  0  0  0  0
   10.1608   59.8666   -2.8935 H   0  0  0  0  0  0  0  0  0  0  0  0
    9.1965   54.6404    0.4112 C   0  0  0  0  0  0  0  0  0  0  0  0
   10.5307   54.7303    1.1700 C   0  0  0  0  0  0  0  0  0  0  0  0
   11.1211   53.3566    1.5172 C   0  0  0  0  0  0  0  0  0  0  0  0
   10.8621   52.2924    0.4429 C   0  0  0  0  0  0  0  0  0  0  0  0
    9.3557   52.1134    0.1691 C   0  0  0  0  0  0  0  0  0  0  0  0
    8.4855   53.2948    0.6236 C   0  0  0  0  0  0  0  0  0  0  0  0
   11.5857   52.6303   -0.8004 C   0  0  0  0  0  0  0  0  0  0  0  0
   12.1365   52.8693   -1.7927 N   0  0  0  0  0  0  0  0  0  0  0  0
    6.8623   54.9675    2.5371 C   0  0  0  0  0  0  0  0  0  0  0  0
    6.9235   55.6884    3.8828 C   0  0  0  0  0  0  0  0  0  0  0  0
    5.3444   53.1215    2.3617 C   0  0  0  0  0  0  0  0  0  0  0  0
    5.5058   54.5307    2.3673 O   0  0  0  0  0  0  0  0  0  0  0  0
 24 25  1  0
 25 22  1  0
 22 23  1  0
 22  1  1  0
  1  2  2  0
  2  3  1  0
  3  4  2  0
  4  5  1  0
  5  6  2  0
  6  7  1  0
  7  8  1  0
  8  9  2  0
  9 10  1  0
 10 11  2  0
 11 12  1  0
 14 12  1  0
 14 15  1  0
 15 16  1  0
 16 17  1  0
 17 20  1  0
 20 21  3  0
 17 18  1  0
 18 19  1  0
 12  1  1  0
 19 14  1  0
 11  3  1  0
 10  6  1  0
  7 13  1  0
M  END
> <minimizedAffinity>
-7.36339

> <CNNscore>
0.2590948045

> <CNNaffinity>
6.1923451424

> <CNN_VS>
1.6044044495

> <CNNaffinity_variance>
0.1558240205

$$$$



 25 28  0  0  0  0  0  0  0  0999 V2000
    5.2040   57.3265    0.5223 C   0  0  0  0  0  0  0  0  0  0  0  0
    5.6966   58.3450   -0.1702 N   0  0  0  0  0  0  0  0  0  0  0  0
    7.0066   58.0482   -0.4100 C   0  0  0  0  0  0  0  0  0  0  0  0
    8.0213   58.7697   -1.0640 C   0  0  0  0  0  0  0  0  0  0  0  0
    9.3066   58.3123   -1.1657 N   0  0  0  0  0  0  0  0  0  0  0  0
    9.5321   57.1307   -0.5665 C   0  0  0  0  0  0  0  0  0  0  0  0
   10.7234   56.4682   -0.4781 N   0  0  0  0  0  0  0  0  0  0  0  0
   10.5543   55.3138    0.2564 C   0  0  0  0  0  0  0  0  0  0  0  0
    9.2255   55.2214    0.6393 C   0  0  0  0  0  0  0  0  0  0  0  0
    8.5932   56.3637    0.0881 C   0  0  0  0  0  0  0  0  0  0  0  0
    7.3071   56.8181    0.1409 C   0  0  0  0  0  0  0  0  0  0  0  0
    6.1545   56.3055    0.6367 N   0  0  0  0  0  0  0  0  0  0  0  0
   11.5717   56.7687   -0.8773 H   0  0  0  0  0  0  0  0  0  0  0  0
    5.9213   54.9413    1.0968 C   0  0  0  0  0  0  0  0  0  0  0  0
    6.3137   53.8723    0.0638 C   0  0  0  0  0  0  0  0  0  0  0  0
    6.6743   52.5225    0.6997 C   0  0  0  0  0  0  0  0  0  0  0  0
    5.8369   52.1903    1.9415 C   0  0  0  0  0  0  0  0  0  0  0  0
    5.9640   53.2810    3.0234 C   0  0  0  0  0  0  0  0  0  0  0  0
    6.4667   54.6351    2.5004 C   0  0  0  0  0  0  0  0  0  0  0  0
    4.4225   51.9834    1.5674 C   0  0  0  0  0  0  0  0  0  0  0  0
    3.3090   51.7983    1.3007 N   0  0  0  0  0  0  0  0  0  0  0  0
    3.8240   57.3235    1.1324 C   0  0  0  0  0  0  0  0  0  0  0  0
    3.5508   55.9711    1.7885 C   0  0  0  0  0  0  0  0  0  0  0  0
    3.3536   59.5946    1.7354 C   0  0  0  0  0  0  0  0  0  0  0  0
    3.7538   58.3068    2.1754 O   0  0  0  0  0  0  0  0  0  0  0  0
 24 25  1  0
 25 22  1  0
 22 23  1  0
 22  1  1  0
  1  2  2  0
  2  3  1  0
  3  4  2  0
  4  5  1  0
  5  6  2  0
  6  7  1  0
  7  8  1  0
  8  9  2  0
  9 10  1  0
 10 11  2  0
 11 12  1  0
 14 12  1  0
 14 15  1  0
 15 16  1  0
 16 17  1  0
 17 20  1  0
 20 21  3  0
 17 18  1  0
 18 19  1  0
 12  1  1  0
 19 14  1  0
 11  3  1  0
 10  6  1  0
  7 13  1  0
M  END
> <minimizedAffinity>
-7.89769

> <CNNscore>
0.2464912832

> <CNNaffinity>
6.3370876312

> <CNN_VS>
1.5620368719

> <CNNaffinity_variance>
0.0684386864

$$$$
