


 40 42  0  0  0  0  0  0  0  0999 V2000
   45.0536   14.4089    1.3754 C   0  0  0  0  0  0  0  0  0  0  0  0
   44.9873   15.5552    2.1468 C   0  0  0  0  0  0  0  0  0  0  0  0
   44.4363   16.8804    1.2013 S   0  0  0  0  0  0  0  0  0  0  0  0
   44.3601   15.9501   -0.2380 C   0  0  0  0  0  0  0  0  0  0  0  0
   44.7266   14.6460    0.0115 C   0  0  0  0  0  0  0  0  0  0  0  0
   44.8336   13.2714   -1.2926 Br  0  0  0  0  0  0  0  0  0  0  0  0
   43.9413   16.5975   -1.4833 C   0  0  0  0  0  0  0  0  0  0  0  0
   44.8049   17.4639   -2.1573 C   0  0  0  0  0  0  0  0  0  0  0  0
   44.3823   18.1037   -3.3198 C   0  0  0  0  0  0  0  0  0  0  0  0
   43.1000   17.8693   -3.8263 C   0  0  0  0  0  0  0  0  0  0  0  0
   42.2270   16.9708   -3.2050 C   0  0  0  0  0  0  0  0  0  0  0  0
   42.6577   16.3726   -2.0086 C   0  0  0  0  0  0  0  0  0  0  0  0
   40.9119   16.7460   -3.6187 N   0  0  0  0  0  0  0  0  0  0  0  0
   40.2825   17.5027   -3.6442 H   0  0  0  0  0  0  0  0  0  0  0  0
   40.4446   15.4216   -4.0143 C   0  0  0  0  0  0  0  0  0  0  0  0
   39.4916   14.8335   -2.9995 C   0  0  0  0  0  0  0  0  0  0  0  0
   39.0438   15.6032   -1.9149 C   0  0  0  0  0  0  0  0  0  0  0  0
   38.1682   15.0610   -0.9729 C   0  0  0  0  0  0  0  0  0  0  0  0
   37.7274   13.7454   -1.1049 C   0  0  0  0  0  0  0  0  0  0  0  0
   38.1651   12.9684   -2.1757 C   0  0  0  0  0  0  0  0  0  0  0  0
   39.0441   13.5072   -3.1173 C   0  0  0  0  0  0  0  0  0  0  0  0
   45.2977   15.7109    3.5506 C   0  0  0  0  0  0  0  0  0  0  0  0
   44.6514   16.3005    4.4058 O   0  0  0  0  0  0  0  0  0  0  0  0
   46.4590   15.1156    3.9131 O   0  0  0  0  0  0  0  0  0  0  0  0
   46.9703   14.6584    3.2747 H   0  0  0  0  0  0  0  0  0  0  0  0
   45.4863   13.2199    1.8613 O   0  0  0  0  0  0  0  0  0  0  0  0
   44.9752   12.1194    1.1080 C   0  0  0  0  0  0  0  0  0  0  0  0
   45.7092   10.8262    1.4824 C   0  0  0  0  0  0  0  0  0  0  0  0
   47.2762   10.8681    1.5962 C   0  0  0  0  0  0  0  0  0  0  0  0
   47.7825   11.3831    0.2367 C   0  0  0  0  0  0  0  0  0  0  0  0
   47.6819   11.8954    2.6730 C   0  0  0  0  0  0  0  0  0  0  0  0
   47.7923    9.4327    1.9428 C   0  0  0  0  0  0  0  0  0  0  0  0
   48.2985    8.3809    0.8781 C   0  0  0  0  0  0  0  0  0  0  0  0
   47.3883    8.3690   -0.3599 C   0  0  0  0  0  0  0  0  0  0  0  0
   49.6859    8.8908    0.4295 C   0  0  0  0  0  0  0  0  0  0  0  0
   48.3924    6.9624    1.5368 C   0  0  0  0  0  0  0  0  0  0  0  0
   50.3207    7.4013    3.1973 C   0  0  0  0  0  0  0  0  0  0  0  0
   48.9733    6.6931    2.9645 C   0  0  0  0  0  0  0  0  0  0  0  0
   47.9707    7.3074    3.9767 C   0  0  0  0  0  0  0  0  0  0  0  0
   49.1094    5.2038    3.3017 C   0  0  0  0  0  0  0  0  0  0  0  0
 37 38  1  0
 38 39  1  0
 38 40  1  0
 38 36  1  0
 36 33  1  0
 33 34  1  0
 33 35  1  0
 33 32  1  0
 32 29  1  0
 29 30  1  0
 29 31  1  0
 29 28  1  0
 28 27  1  0
 27 26  1  0
 26  1  1  0
  1  2  2  0
  2 22  1  0
 22 23  2  0
 22 24  1  0
  2  3  1  0
  3  4  1  0
  4  7  1  0
  7  8  2  0
  8  9  1  0
  9 10  2  0
 10 11  1  0
 11 13  1  0
 13 15  1  0
 15 16  1  0
 16 17  2  0
 17 18  1  0
 18 19  2  0
 19 20  1  0
 20 21  2  0
 11 12  2  0
  4  5  2  0
  5  6  1  0
  5  1  1  0
 12  7  1  0
 21 16  1  0
 24 25  1  0
 13 14  1  0
M  END
> <minimizedAffinity>
-7.27793

> <CNNscore>
0.3252639771

> <CNNaffinity>
6.4659152031

> <CNN_VS>
2.1031293869

> <CNNaffinity_variance>
0.3277763426

$$$$



 40 42  0  0  0  0  0  0  0  0999 V2000
   45.0532   14.9562    1.7691 C   0  0  0  0  0  0  0  0  0  0  0  0
   45.6508   15.2793    2.9741 C   0  0  0  0  0  0  0  0  0  0  0  0
   46.9128   14.1688    3.3318 S   0  0  0  0  0  0  0  0  0  0  0  0
   46.6135   13.2246    1.9311 C   0  0  0  0  0  0  0  0  0  0  0  0
   45.5833   13.7673    1.1954 C   0  0  0  0  0  0  0  0  0  0  0  0
   44.8796   13.0344   -0.4074 Br  0  0  0  0  0  0  0  0  0  0  0  0
   47.4294   12.0327    1.6878 C   0  0  0  0  0  0  0  0  0  0  0  0
   47.4405   10.9812    2.6070 C   0  0  0  0  0  0  0  0  0  0  0  0
   48.2494    9.8697    2.3843 C   0  0  0  0  0  0  0  0  0  0  0  0
   49.0401    9.7935    1.2333 C   0  0  0  0  0  0  0  0  0  0  0  0
   49.0165   10.8050    0.2679 C   0  0  0  0  0  0  0  0  0  0  0  0
   48.2287   11.9372    0.5361 C   0  0  0  0  0  0  0  0  0  0  0  0
   49.8327   10.8227   -0.8656 N   0  0  0  0  0  0  0  0  0  0  0  0
   49.4628   10.5194   -1.7261 H   0  0  0  0  0  0  0  0  0  0  0  0
   51.2178   11.2781   -0.8104 C   0  0  0  0  0  0  0  0  0  0  0  0
   51.3695   12.6874   -1.3342 C   0  0  0  0  0  0  0  0  0  0  0  0
   50.4477   13.2064   -2.2563 C   0  0  0  0  0  0  0  0  0  0  0  0
   50.5883   14.5057   -2.7463 C   0  0  0  0  0  0  0  0  0  0  0  0
   51.6490   15.3024   -2.3189 C   0  0  0  0  0  0  0  0  0  0  0  0
   52.5733   14.7999   -1.4051 C   0  0  0  0  0  0  0  0  0  0  0  0
   52.4370   13.4991   -0.9162 C   0  0  0  0  0  0  0  0  0  0  0  0
   45.3415   16.3775    3.8627 C   0  0  0  0  0  0  0  0  0  0  0  0
   44.9335   16.3245    5.0148 O   0  0  0  0  0  0  0  0  0  0  0  0
   45.5411   17.5942    3.3023 O   0  0  0  0  0  0  0  0  0  0  0  0
   45.8532   17.6587    2.4211 H   0  0  0  0  0  0  0  0  0  0  0  0
   44.0070   15.6498    1.2581 O   0  0  0  0  0  0  0  0  0  0  0  0
   44.4253   16.5941    0.2717 C   0  0  0  0  0  0  0  0  0  0  0  0
   43.7712   16.2831   -1.0799 C   0  0  0  0  0  0  0  0  0  0  0  0
   44.4018   16.9159   -2.3731 C   0  0  0  0  0  0  0  0  0  0  0  0
   43.2183   17.2352   -3.3044 C   0  0  0  0  0  0  0  0  0  0  0  0
   45.0889   18.2474   -2.0063 C   0  0  0  0  0  0  0  0  0  0  0  0
   45.4131   15.8939   -2.9894 C   0  0  0  0  0  0  0  0  0  0  0  0
   46.4266   16.2276   -4.1545 C   0  0  0  0  0  0  0  0  0  0  0  0
   47.4255   15.0784   -4.3616 C   0  0  0  0  0  0  0  0  0  0  0  0
   45.5620   16.3269   -5.4307 C   0  0  0  0  0  0  0  0  0  0  0  0
   47.1592   17.5786   -3.8496 C   0  0  0  0  0  0  0  0  0  0  0  0
   48.0704   17.9287   -6.2402 C   0  0  0  0  0  0  0  0  0  0  0  0
   47.5935   18.6093   -4.9438 C   0  0  0  0  0  0  0  0  0  0  0  0
   46.3277   19.4265   -5.3138 C   0  0  0  0  0  0  0  0  0  0  0  0
   48.6563   19.6042   -4.4636 C   0  0  0  0  0  0  0  0  0  0  0  0
 37 38  1  0
 38 39  1  0
 38 40  1  0
 38 36  1  0
 36 33  1  0
 33 34  1  0
 33 35  1  0
 33 32  1  0
 32 29  1  0
 29 30  1  0
 29 31  1  0
 29 28  1  0
 28 27  1  0
 27 26  1  0
 26  1  1  0
  1  2  2  0
  2 22  1  0
 22 23  2  0
 22 24  1  0
  2  3  1  0
  3  4  1  0
  4  7  1  0
  7  8  2  0
  8  9  1  0
  9 10  2  0
 10 11  1  0
 11 13  1  0
 13 15  1  0
 15 16  1  0
 16 17  2  0
 17 18  1  0
 18 19  2  0
 19 20  1  0
 20 21  2  0
 11 12  2  0
  4  5  2  0
  5  6  1  0
  5  1  1  0
 12  7  1  0
 21 16  1  0
 24 25  1  0
 13 14  1  0
M  END
> <minimizedAffinity>
-6.96071

> <CNNscore>
0.2950887680

> <CNNaffinity>
6.4556870461

> <CNN_VS>
1.9050006866

> <CNNaffinity_variance>
0.0972279683

$$$$



 40 42  0  0  0  0  0  0  0  0999 V2000
   45.0964   14.8484    1.6859 C   0  0  0  0  0  0  0  0  0  0  0  0
   45.7451   15.2693    2.8328 C   0  0  0  0  0  0  0  0  0  0  0  0
   47.0152   14.1830    3.2335 S   0  0  0  0  0  0  0  0  0  0  0  0
   46.6532   13.1238    1.9335 C   0  0  0  0  0  0  0  0  0  0  0  0
   45.5961   13.6097    1.1963 C   0  0  0  0  0  0  0  0  0  0  0  0
   44.8226   12.7470   -0.3067 Br  0  0  0  0  0  0  0  0  0  0  0  0
   47.4522   11.9083    1.7613 C   0  0  0  0  0  0  0  0  0  0  0  0
   47.3772   10.8722    2.6949 C   0  0  0  0  0  0  0  0  0  0  0  0
   48.1700    9.7376    2.5416 C   0  0  0  0  0  0  0  0  0  0  0  0
   49.0308    9.6229    1.4455 C   0  0  0  0  0  0  0  0  0  0  0  0
   49.0954   10.6185    0.4657 C   0  0  0  0  0  0  0  0  0  0  0  0
   48.3212   11.7741    0.6654 C   0  0  0  0  0  0  0  0  0  0  0  0
   49.9829   10.5974   -0.6128 N   0  0  0  0  0  0  0  0  0  0  0  0
   49.6289   10.6996   -1.5258 H   0  0  0  0  0  0  0  0  0  0  0  0
   51.4199   10.4279   -0.4245 C   0  0  0  0  0  0  0  0  0  0  0  0
   52.1927   11.6561   -0.8465 C   0  0  0  0  0  0  0  0  0  0  0  0
   51.5360   12.8837   -1.0230 C   0  0  0  0  0  0  0  0  0  0  0  0
   52.2459   14.0185   -1.4182 C   0  0  0  0  0  0  0  0  0  0  0  0
   53.6200   13.9411   -1.6387 C   0  0  0  0  0  0  0  0  0  0  0  0
   54.2853   12.7284   -1.4692 C   0  0  0  0  0  0  0  0  0  0  0  0
   53.5767   11.5909   -1.0776 C   0  0  0  0  0  0  0  0  0  0  0  0
   45.4786   16.4429    3.6346 C   0  0  0  0  0  0  0  0  0  0  0  0
   45.6142   17.6177    3.3215 O   0  0  0  0  0  0  0  0  0  0  0  0
   45.0289   16.1525    4.8787 O   0  0  0  0  0  0  0  0  0  0  0  0
   44.9174   15.2596    5.1400 H   0  0  0  0  0  0  0  0  0  0  0  0
   44.0333   15.5042    1.1598 O   0  0  0  0  0  0  0  0  0  0  0  0
   44.4336   16.4838    0.2007 C   0  0  0  0  0  0  0  0  0  0  0  0
   44.4749   15.8725   -1.2050 C   0  0  0  0  0  0  0  0  0  0  0  0
   44.3542   16.8388   -2.4387 C   0  0  0  0  0  0  0  0  0  0  0  0
   42.8467   17.0780   -2.6390 C   0  0  0  0  0  0  0  0  0  0  0  0
   45.0070   18.1927   -2.0917 C   0  0  0  0  0  0  0  0  0  0  0  0
   45.0408   16.1650   -3.6723 C   0  0  0  0  0  0  0  0  0  0  0  0
   44.9255   16.6881   -5.1586 C   0  0  0  0  0  0  0  0  0  0  0  0
   45.1483   18.2070   -5.2267 C   0  0  0  0  0  0  0  0  0  0  0  0
   46.0887   16.0137   -5.9192 C   0  0  0  0  0  0  0  0  0  0  0  0
   43.5354   16.2831   -5.7572 C   0  0  0  0  0  0  0  0  0  0  0  0
   43.4850   17.6222   -7.9645 C   0  0  0  0  0  0  0  0  0  0  0  0
   42.6940   17.1888   -6.7164 C   0  0  0  0  0  0  0  0  0  0  0  0
   41.5101   16.3231   -7.2223 C   0  0  0  0  0  0  0  0  0  0  0  0
   42.0979   18.4233   -6.0303 C   0  0  0  0  0  0  0  0  0  0  0  0
 37 38  1  0
 38 39  1  0
 38 40  1  0
 38 36  1  0
 36 33  1  0
 33 34  1  0
 33 35  1  0
 33 32  1  0
 32 29  1  0
 29 30  1  0
 29 31  1  0
 29 28  1  0
 28 27  1  0
 27 26  1  0
 26  1  1  0
  1  2  2  0
  2 22  1  0
 22 23  2  0
 22 24  1  0
  2  3  1  0
  3  4  1  0
  4  7  1  0
  7  8  2  0
  8  9  1  0
  9 10  2  0
 10 11  1  0
 11 13  1  0
 13 15  1  0
 15 16  1  0
 16 17  2  0
 17 18  1  0
 18 19  2  0
 19 20  1  0
 20 21  2  0
 11 12  2  0
  4  5  2  0
  5  6  1  0
  5  1  1  0
 12  7  1  0
 21 16  1  0
 24 25  1  0
 13 14  1  0
M  END
> <minimizedAffinity>
-6.09649

> <CNNscore>
0.2654937506

> <CNNaffinity>
6.4062209129

> <CNN_VS>
1.7008116245

> <CNNaffinity_variance>
0.0842419267

$$$$



 40 42  0  0  0  0  0  0  0  0999 V2000
   45.0443   14.9576    1.7663 C   0  0  0  0  0  0  0  0  0  0  0  0
   45.6440   15.2942    2.9665 C   0  0  0  0  0  0  0  0  0  0  0  0
   46.9071   14.1882    3.3341 S   0  0  0  0  0  0  0  0  0  0  0  0
   46.6056   13.2284    1.9445 C   0  0  0  0  0  0  0  0  0  0  0  0
   45.5738   13.7626    1.2048 C   0  0  0  0  0  0  0  0  0  0  0  0
   44.8672   13.0118   -0.3885 Br  0  0  0  0  0  0  0  0  0  0  0  0
   47.4214   12.0342    1.7129 C   0  0  0  0  0  0  0  0  0  0  0  0
   47.4384   10.9952    2.6460 C   0  0  0  0  0  0  0  0  0  0  0  0
   48.2474    9.8816    2.4338 C   0  0  0  0  0  0  0  0  0  0  0  0
   49.0321    9.7907    1.2798 C   0  0  0  0  0  0  0  0  0  0  0  0
   49.0024   10.7892    0.3012 C   0  0  0  0  0  0  0  0  0  0  0  0
   48.2147   11.9241    0.5584 C   0  0  0  0  0  0  0  0  0  0  0  0
   49.8125   10.7925   -0.8368 N   0  0  0  0  0  0  0  0  0  0  0  0
   49.4459   10.4553   -1.6860 H   0  0  0  0  0  0  0  0  0  0  0  0
   51.1867   11.2818   -0.8025 C   0  0  0  0  0  0  0  0  0  0  0  0
   51.3024   12.6784   -1.3681 C   0  0  0  0  0  0  0  0  0  0  0  0
   50.3669   13.1465   -2.3035 C   0  0  0  0  0  0  0  0  0  0  0  0
   50.4743   14.4338   -2.8321 C   0  0  0  0  0  0  0  0  0  0  0  0
   51.5153   15.2692   -2.4304 C   0  0  0  0  0  0  0  0  0  0  0  0
   52.4528   14.8173   -1.5037 C   0  0  0  0  0  0  0  0  0  0  0  0
   52.3497   13.5286   -0.9763 C   0  0  0  0  0  0  0  0  0  0  0  0
   45.3360   16.4021    3.8434 C   0  0  0  0  0  0  0  0  0  0  0  0
   44.9251   16.3617    4.9950 O   0  0  0  0  0  0  0  0  0  0  0  0
   45.5407   17.6126    3.2715 O   0  0  0  0  0  0  0  0  0  0  0  0
   45.8551   17.6674    2.3905 H   0  0  0  0  0  0  0  0  0  0  0  0
   43.9968   15.6451    1.2496 O   0  0  0  0  0  0  0  0  0  0  0  0
   44.4081   16.5510    0.2249 C   0  0  0  0  0  0  0  0  0  0  0  0
   43.6550   16.2631   -1.0794 C   0  0  0  0  0  0  0  0  0  0  0  0
   44.2464   16.8328   -2.4196 C   0  0  0  0  0  0  0  0  0  0  0  0
   43.0338   17.2663   -3.2631 C   0  0  0  0  0  0  0  0  0  0  0  0
   45.0846   18.0910   -2.1129 C   0  0  0  0  0  0  0  0  0  0  0  0
   45.1055   15.7179   -3.1023 C   0  0  0  0  0  0  0  0  0  0  0  0
   45.9777   15.9288   -4.4027 C   0  0  0  0  0  0  0  0  0  0  0  0
   45.5263   17.1805   -5.1715 C   0  0  0  0  0  0  0  0  0  0  0  0
   47.4125   16.1893   -3.8931 C   0  0  0  0  0  0  0  0  0  0  0  0
   45.9100   14.6467   -5.3005 C   0  0  0  0  0  0  0  0  0  0  0  0
   46.9464   12.9113   -3.6935 C   0  0  0  0  0  0  0  0  0  0  0  0
   46.8622   13.4146   -5.1464 C   0  0  0  0  0  0  0  0  0  0  0  0
   46.2383   12.2625   -5.9775 C   0  0  0  0  0  0  0  0  0  0  0  0
   48.2749   13.6578   -5.6898 C   0  0  0  0  0  0  0  0  0  0  0  0
 37 38  1  0
 38 39  1  0
 38 40  1  0
 38 36  1  0
 36 33  1  0
 33 34  1  0
 33 35  1  0
 33 32  1  0
 32 29  1  0
 29 30  1  0
 29 31  1  0
 29 28  1  0
 28 27  1  0
 27 26  1  0
 26  1  1  0
  1  2  2  0
  2 22  1  0
 22 23  2  0
 22 24  1  0
  2  3  1  0
  3  4  1  0
  4  7  1  0
  7  8  2  0
  8  9  1  0
  9 10  2  0
 10 11  1  0
 11 13  1  0
 13 15  1  0
 15 16  1  0
 16 17  2  0
 17 18  1  0
 18 19  2  0
 19 20  1  0
 20 21  2  0
 11 12  2  0
  4  5  2  0
  5  6  1  0
  5  1  1  0
 12  7  1  0
 21 16  1  0
 24 25  1  0
 13 14  1  0
M  END
> <minimizedAffinity>
-6.57391

> <CNNscore>
0.2357116938

> <CNNaffinity>
6.4788413048

> <CNN_VS>
1.5271387100

> <CNNaffinity_variance>
0.0742261782

$$$$



 40 42  0  0  0  0  0  0  0  0999 V2000
   42.4448   10.2757   -3.2346 C   0  0  0  0  0  0  0  0  0  0  0  0
   41.9575    9.0983   -2.6965 C   0  0  0  0  0  0  0  0  0  0  0  0
   40.2469    9.0342   -2.8500 S   0  0  0  0  0  0  0  0  0  0  0  0
   40.1528   10.5939   -3.5582 C   0  0  0  0  0  0  0  0  0  0  0  0
   41.4109   11.1378   -3.6946 C   0  0  0  0  0  0  0  0  0  0  0  0
   41.7870   12.8641   -4.3872 Br  0  0  0  0  0  0  0  0  0  0  0  0
   38.8399   11.1354   -3.9166 C   0  0  0  0  0  0  0  0  0  0  0  0
   38.4821   11.2990   -5.2567 C   0  0  0  0  0  0  0  0  0  0  0  0
   37.2463   11.8505   -5.5855 C   0  0  0  0  0  0  0  0  0  0  0  0
   36.3526   12.2269   -4.5778 C   0  0  0  0  0  0  0  0  0  0  0  0
   36.6575   12.0321   -3.2270 C   0  0  0  0  0  0  0  0  0  0  0  0
   37.9280   11.5172   -2.9181 C   0  0  0  0  0  0  0  0  0  0  0  0
   35.8410   12.4498   -2.1734 N   0  0  0  0  0  0  0  0  0  0  0  0
   35.5610   11.7928   -1.4957 H   0  0  0  0  0  0  0  0  0  0  0  0
   35.3913   13.8323   -2.0487 C   0  0  0  0  0  0  0  0  0  0  0  0
   36.5512   14.7975   -1.9677 C   0  0  0  0  0  0  0  0  0  0  0  0
   36.7427   15.7646   -2.9664 C   0  0  0  0  0  0  0  0  0  0  0  0
   37.8163   16.6538   -2.8974 C   0  0  0  0  0  0  0  0  0  0  0  0
   38.7090   16.5894   -1.8288 C   0  0  0  0  0  0  0  0  0  0  0  0
   38.5326   15.6331   -0.8307 C   0  0  0  0  0  0  0  0  0  0  0  0
   37.4616   14.7399   -0.8995 C   0  0  0  0  0  0  0  0  0  0  0  0
   42.6989    8.0152   -2.0894 C   0  0  0  0  0  0  0  0  0  0  0  0
   43.0640    7.9090   -0.9266 O   0  0  0  0  0  0  0  0  0  0  0  0
   43.0061    7.0220   -2.9574 O   0  0  0  0  0  0  0  0  0  0  0  0
   42.7366    7.0823   -3.8528 H   0  0  0  0  0  0  0  0  0  0  0  0
   43.7604   10.6010   -3.2212 O   0  0  0  0  0  0  0  0  0  0  0  0
   44.1092   11.3604   -2.0630 C   0  0  0  0  0  0  0  0  0  0  0  0
   45.4208   10.8448   -1.4586 C   0  0  0  0  0  0  0  0  0  0  0  0
   46.6549   11.8174   -1.4230 C   0  0  0  0  0  0  0  0  0  0  0  0
   47.8175   11.0447   -2.0720 C   0  0  0  0  0  0  0  0  0  0  0  0
   46.3575   13.0509   -2.3002 C   0  0  0  0  0  0  0  0  0  0  0  0
   46.9345   12.2184    0.0630 C   0  0  0  0  0  0  0  0  0  0  0  0
   46.5386   11.3430    1.3172 C   0  0  0  0  0  0  0  0  0  0  0  0
   47.3677   11.7389    2.5489 C   0  0  0  0  0  0  0  0  0  0  0  0
   45.0655   11.7004    1.6147 C   0  0  0  0  0  0  0  0  0  0  0  0
   46.7042    9.8227    0.9767 C   0  0  0  0  0  0  0  0  0  0  0  0
   48.1567    7.7842    0.3420 C   0  0  0  0  0  0  0  0  0  0  0  0
   47.9897    8.9871    1.2888 C   0  0  0  0  0  0  0  0  0  0  0  0
   49.2016    9.9216    1.0337 C   0  0  0  0  0  0  0  0  0  0  0  0
   48.0761    8.5127    2.7440 C   0  0  0  0  0  0  0  0  0  0  0  0
 37 38  1  0
 38 39  1  0
 38 40  1  0
 38 36  1  0
 36 33  1  0
 33 34  1  0
 33 35  1  0
 33 32  1  0
 32 29  1  0
 29 30  1  0
 29 31  1  0
 29 28  1  0
 28 27  1  0
 27 26  1  0
 26  1  1  0
  1  2  2  0
  2 22  1  0
 22 23  2  0
 22 24  1  0
  2  3  1  0
  3  4  1  0
  4  7  1  0
  7  8  2  0
  8  9  1  0
  9 10  2  0
 10 11  1  0
 11 13  1  0
 13 15  1  0
 15 16  1  0
 16 17  2  0
 17 18  1  0
 18 19  2  0
 19 20  1  0
 20 21  2  0
 11 12  2  0
  4  5  2  0
  5  6  1  0
  5  1  1  0
 12  7  1  0
 21 16  1  0
 24 25  1  0
 13 14  1  0
M  END
> <minimizedAffinity>
-5.91117

> <CNNscore>
0.2054691017

> <CNNaffinity>
5.9812417030

> <CNN_VS>
1.2289603949

> <CNNaffinity_variance>
0.2033987492

$$$$



 40 42  0  0  0  0  0  0  0  0999 V2000
   42.1748   10.0302   -3.5917 C   0  0  0  0  0  0  0  0  0  0  0  0
   41.7576    8.9150   -2.8877 C   0  0  0  0  0  0  0  0  0  0  0  0
   40.0416    8.8199   -2.8813 S   0  0  0  0  0  0  0  0  0  0  0  0
   39.8579   10.2914   -3.7438 C   0  0  0  0  0  0  0  0  0  0  0  0
   41.0893   10.8277   -4.0493 C   0  0  0  0  0  0  0  0  0  0  0  0
   41.3724   12.4705   -4.9561 Br  0  0  0  0  0  0  0  0  0  0  0  0
   38.5092   10.7792   -4.0413 C   0  0  0  0  0  0  0  0  0  0  0  0
   38.0045   10.7193   -5.3422 C   0  0  0  0  0  0  0  0  0  0  0  0
   36.7356   11.2210   -5.6209 C   0  0  0  0  0  0  0  0  0  0  0  0
   35.9555   11.7707   -4.5985 C   0  0  0  0  0  0  0  0  0  0  0  0
   36.4091   11.8021   -3.2761 C   0  0  0  0  0  0  0  0  0  0  0  0
   37.7100   11.3328   -3.0269 C   0  0  0  0  0  0  0  0  0  0  0  0
   35.7105   12.3994   -2.2242 N   0  0  0  0  0  0  0  0  0  0  0  0
   35.4781   11.8576   -1.4357 H   0  0  0  0  0  0  0  0  0  0  0  0
   35.3155   13.8036   -2.2610 C   0  0  0  0  0  0  0  0  0  0  0  0
   36.4999   14.7272   -2.0939 C   0  0  0  0  0  0  0  0  0  0  0  0
   37.3212   14.6324   -0.9599 C   0  0  0  0  0  0  0  0  0  0  0  0
   38.4124   15.4878   -0.7999 C   0  0  0  0  0  0  0  0  0  0  0  0
   38.6977   16.4453   -1.7717 C   0  0  0  0  0  0  0  0  0  0  0  0
   37.8899   16.5523   -2.9022 C   0  0  0  0  0  0  0  0  0  0  0  0
   36.7954   15.7003   -3.0627 C   0  0  0  0  0  0  0  0  0  0  0  0
   42.5686    7.9115   -2.2345 C   0  0  0  0  0  0  0  0  0  0  0  0
   42.8800    7.8441   -1.0533 O   0  0  0  0  0  0  0  0  0  0  0  0
   43.0177    6.9516   -3.0778 O   0  0  0  0  0  0  0  0  0  0  0  0
   42.7916    6.9832   -3.9866 H   0  0  0  0  0  0  0  0  0  0  0  0
   43.4805   10.3661   -3.7303 O   0  0  0  0  0  0  0  0  0  0  0  0
   43.9155   11.2497   -2.6960 C   0  0  0  0  0  0  0  0  0  0  0  0
   44.8714   10.5265   -1.7396 C   0  0  0  0  0  0  0  0  0  0  0  0
   46.4029   10.5100   -2.0923 C   0  0  0  0  0  0  0  0  0  0  0  0
   46.5863    9.3737   -3.1146 C   0  0  0  0  0  0  0  0  0  0  0  0
   46.7811   11.8357   -2.7844 C   0  0  0  0  0  0  0  0  0  0  0  0
   47.2184   10.2920   -0.7753 C   0  0  0  0  0  0  0  0  0  0  0  0
   47.7688   11.4555    0.1410 C   0  0  0  0  0  0  0  0  0  0  0  0
   48.0493   10.9494    1.5646 C   0  0  0  0  0  0  0  0  0  0  0  0
   49.1226   11.8598   -0.4833 C   0  0  0  0  0  0  0  0  0  0  0  0
   46.7569   12.6516    0.1446 C   0  0  0  0  0  0  0  0  0  0  0  0
   44.8965   14.1974    1.0488 C   0  0  0  0  0  0  0  0  0  0  0  0
   45.8721   13.0506    1.3719 C   0  0  0  0  0  0  0  0  0  0  0  0
   45.0013   11.8132    1.7146 C   0  0  0  0  0  0  0  0  0  0  0  0
   46.6821   13.4014    2.6253 C   0  0  0  0  0  0  0  0  0  0  0  0
 37 38  1  0
 38 39  1  0
 38 40  1  0
 38 36  1  0
 36 33  1  0
 33 34  1  0
 33 35  1  0
 33 32  1  0
 32 29  1  0
 29 30  1  0
 29 31  1  0
 29 28  1  0
 28 27  1  0
 27 26  1  0
 26  1  1  0
  1  2  2  0
  2 22  1  0
 22 23  2  0
 22 24  1  0
  2  3  1  0
  3  4  1  0
  4  7  1  0
  7  8  2  0
  8  9  1  0
  9 10  2  0
 10 11  1  0
 11 13  1  0
 13 15  1  0
 15 16  1  0
 16 17  2  0
 17 18  1  0
 18 19  2  0
 19 20  1  0
 20 21  2  0
 11 12  2  0
  4  5  2  0
  5  6  1  0
  5  1  1  0
 12  7  1  0
 21 16  1  0
 24 25  1  0
 13 14  1  0
M  END
> <minimizedAffinity>
-5.99539

> <CNNscore>
0.1853364259

> <CNNaffinity>
6.0377783775

> <CNN_VS>
1.1190202236

> <CNNaffinity_variance>
0.1205377579

$$$$



 40 42  0  0  0  0  0  0  0  0999 V2000
   46.0326   10.1384    0.4556 C   0  0  0  0  0  0  0  0  0  0  0  0
   45.3395   10.0416   -0.7376 C   0  0  0  0  0  0  0  0  0  0  0  0
   44.6847   11.5696   -1.1737 S   0  0  0  0  0  0  0  0  0  0  0  0
   45.2565   12.3328    0.2523 C   0  0  0  0  0  0  0  0  0  0  0  0
   45.9551   11.4370    1.0311 C   0  0  0  0  0  0  0  0  0  0  0  0
   46.7294   11.8268    2.7193 Br  0  0  0  0  0  0  0  0  0  0  0  0
   44.9624   13.7514    0.4679 C   0  0  0  0  0  0  0  0  0  0  0  0
   44.9237   14.2791    1.7604 C   0  0  0  0  0  0  0  0  0  0  0  0
   44.6053   15.6207    1.9559 C   0  0  0  0  0  0  0  0  0  0  0  0
   44.3399   16.4483    0.8603 C   0  0  0  0  0  0  0  0  0  0  0  0
   44.4178   15.9658   -0.4499 C   0  0  0  0  0  0  0  0  0  0  0  0
   44.6952   14.5989   -0.6206 C   0  0  0  0  0  0  0  0  0  0  0  0
   44.0965   16.7200   -1.5809 N   0  0  0  0  0  0  0  0  0  0  0  0
   44.1210   17.7025   -1.5235 H   0  0  0  0  0  0  0  0  0  0  0  0
   43.7257   16.0927   -2.8451 C   0  0  0  0  0  0  0  0  0  0  0  0
   42.2758   15.6670   -2.8595 C   0  0  0  0  0  0  0  0  0  0  0  0
   41.9059   14.4205   -3.3874 C   0  0  0  0  0  0  0  0  0  0  0  0
   40.5669   14.0269   -3.4075 C   0  0  0  0  0  0  0  0  0  0  0  0
   39.5827   14.8721   -2.8978 C   0  0  0  0  0  0  0  0  0  0  0  0
   39.9349   16.1137   -2.3722 C   0  0  0  0  0  0  0  0  0  0  0  0
   41.2732   16.5114   -2.3545 C   0  0  0  0  0  0  0  0  0  0  0  0
   45.1530    8.8772   -1.5746 C   0  0  0  0  0  0  0  0  0  0  0  0
   44.1013    8.3835   -1.9577 O   0  0  0  0  0  0  0  0  0  0  0  0
   46.3163    8.2949   -1.9515 O   0  0  0  0  0  0  0  0  0  0  0  0
   47.1337    8.6560   -1.6699 H   0  0  0  0  0  0  0  0  0  0  0  0
   46.6269    9.0746    1.0489 O   0  0  0  0  0  0  0  0  0  0  0  0
   48.0401    9.0706    0.8421 C   0  0  0  0  0  0  0  0  0  0  0  0
   48.7786    9.0327    2.1854 C   0  0  0  0  0  0  0  0  0  0  0  0
   49.2120    7.6336    2.7554 C   0  0  0  0  0  0  0  0  0  0  0  0
   48.2323    7.3253    3.9021 C   0  0  0  0  0  0  0  0  0  0  0  0
   49.0206    6.5579    1.6664 C   0  0  0  0  0  0  0  0  0  0  0  0
   50.7017    7.7229    3.2245 C   0  0  0  0  0  0  0  0  0  0  0  0
   51.4777    6.5656    3.9692 C   0  0  0  0  0  0  0  0  0  0  0  0
   52.5708    7.1368    4.8858 C   0  0  0  0  0  0  0  0  0  0  0  0
   50.4250    5.8839    4.8709 C   0  0  0  0  0  0  0  0  0  0  0  0
   52.0715    5.5647    2.9203 C   0  0  0  0  0  0  0  0  0  0  0  0
   52.7414    3.1067    2.4985 C   0  0  0  0  0  0  0  0  0  0  0  0
   53.0531    4.3991    3.2756 C   0  0  0  0  0  0  0  0  0  0  0  0
   54.4667    4.8543    2.8266 C   0  0  0  0  0  0  0  0  0  0  0  0
   53.1261    4.0929    4.7760 C   0  0  0  0  0  0  0  0  0  0  0  0
 37 38  1  0
 38 39  1  0
 38 40  1  0
 38 36  1  0
 36 33  1  0
 33 34  1  0
 33 35  1  0
 33 32  1  0
 32 29  1  0
 29 30  1  0
 29 31  1  0
 29 28  1  0
 28 27  1  0
 27 26  1  0
 26  1  1  0
  1  2  2  0
  2 22  1  0
 22 23  2  0
 22 24  1  0
  2  3  1  0
  3  4  1  0
  4  7  1  0
  7  8  2  0
  8  9  1  0
  9 10  2  0
 10 11  1  0
 11 13  1  0
 13 15  1  0
 15 16  1  0
 16 17  2  0
 17 18  1  0
 18 19  2  0
 19 20  1  0
 20 21  2  0
 11 12  2  0
  4  5  2  0
  5  6  1  0
  5  1  1  0
 12  7  1  0
 21 16  1  0
 24 25  1  0
 13 14  1  0
M  END
> <minimizedAffinity>
-6.77334

> <CNNscore>
0.1585551053

> <CNNaffinity>
5.6413307190

> <CNN_VS>
0.8944618106

> <CNNaffinity_variance>
0.5128250122

$$$$



 40 42  0  0  0  0  0  0  0  0999 V2000
   46.3315   10.2661    0.5788 C   0  0  0  0  0  0  0  0  0  0  0  0
   45.6233   10.1262   -0.6011 C   0  0  0  0  0  0  0  0  0  0  0  0
   44.8692   11.6113   -1.0249 S   0  0  0  0  0  0  0  0  0  0  0  0
   45.4204   12.4093    0.3902 C   0  0  0  0  0  0  0  0  0  0  0  0
   46.1863   11.5583    1.1557 C   0  0  0  0  0  0  0  0  0  0  0  0
   46.9670   11.9961    2.8292 Br  0  0  0  0  0  0  0  0  0  0  0  0
   45.0451   13.8078    0.6112 C   0  0  0  0  0  0  0  0  0  0  0  0
   44.9773   14.3276    1.9058 C   0  0  0  0  0  0  0  0  0  0  0  0
   44.5822   15.6479    2.1065 C   0  0  0  0  0  0  0  0  0  0  0  0
   44.2683   16.4628    1.0142 C   0  0  0  0  0  0  0  0  0  0  0  0
   44.3726   15.9904   -0.2978 C   0  0  0  0  0  0  0  0  0  0  0  0
   44.7283   14.6424   -0.4738 C   0  0  0  0  0  0  0  0  0  0  0  0
   44.0072   16.7289   -1.4258 N   0  0  0  0  0  0  0  0  0  0  0  0
   43.2877   17.3964   -1.3481 H   0  0  0  0  0  0  0  0  0  0  0  0
   44.6617   16.5390   -2.7160 C   0  0  0  0  0  0  0  0  0  0  0  0
   44.2910   17.6229   -3.7015 C   0  0  0  0  0  0  0  0  0  0  0  0
   43.1124   17.5244   -4.4569 C   0  0  0  0  0  0  0  0  0  0  0  0
   42.7701   18.5210   -5.3721 C   0  0  0  0  0  0  0  0  0  0  0  0
   43.5990   19.6287   -5.5411 C   0  0  0  0  0  0  0  0  0  0  0  0
   44.7735   19.7392   -4.7993 C   0  0  0  0  0  0  0  0  0  0  0  0
   45.1201   18.7417   -3.8859 C   0  0  0  0  0  0  0  0  0  0  0  0
   45.4920    8.9517   -1.4346 C   0  0  0  0  0  0  0  0  0  0  0  0
   44.4953    8.5472   -2.0173 O   0  0  0  0  0  0  0  0  0  0  0  0
   46.6409    8.2439   -1.5499 O   0  0  0  0  0  0  0  0  0  0  0  0
   47.4166    8.5352   -1.1122 H   0  0  0  0  0  0  0  0  0  0  0  0
   47.0000    9.2409    1.1609 O   0  0  0  0  0  0  0  0  0  0  0  0
   48.3625    9.5767    1.4270 C   0  0  0  0  0  0  0  0  0  0  0  0
   49.2744    8.3746    1.1535 C   0  0  0  0  0  0  0  0  0  0  0  0
   49.6407    7.4317    2.3564 C   0  0  0  0  0  0  0  0  0  0  0  0
   48.5531    7.6661    3.4203 C   0  0  0  0  0  0  0  0  0  0  0  0
   49.5470    5.9615    1.8988 C   0  0  0  0  0  0  0  0  0  0  0  0
   51.0790    7.7914    2.8554 C   0  0  0  0  0  0  0  0  0  0  0  0
   51.9131    6.9285    3.8830 C   0  0  0  0  0  0  0  0  0  0  0  0
   52.6552    7.8286    4.8832 C   0  0  0  0  0  0  0  0  0  0  0  0
   50.8661    6.1165    4.6772 C   0  0  0  0  0  0  0  0  0  0  0  0
   52.9016    5.9912    3.1091 C   0  0  0  0  0  0  0  0  0  0  0  0
   52.7184    3.4614    3.5938 C   0  0  0  0  0  0  0  0  0  0  0  0
   53.5836    4.7278    3.7313 C   0  0  0  0  0  0  0  0  0  0  0  0
   54.8763    4.4705    2.9127 C   0  0  0  0  0  0  0  0  0  0  0  0
   53.9983    4.9116    5.1956 C   0  0  0  0  0  0  0  0  0  0  0  0
 37 38  1  0
 38 39  1  0
 38 40  1  0
 38 36  1  0
 36 33  1  0
 33 34  1  0
 33 35  1  0
 33 32  1  0
 32 29  1  0
 29 30  1  0
 29 31  1  0
 29 28  1  0
 28 27  1  0
 27 26  1  0
 26  1  1  0
  1  2  2  0
  2 22  1  0
 22 23  2  0
 22 24  1  0
  2  3  1  0
  3  4  1  0
  4  7  1  0
  7  8  2  0
  8  9  1  0
  9 10  2  0
 10 11  1  0
 11 13  1  0
 13 15  1  0
 15 16  1  0
 16 17  2  0
 17 18  1  0
 18 19  2  0
 19 20  1  0
 20 21  2  0
 11 12  2  0
  4  5  2  0
  5  6  1  0
  5  1  1  0
 12  7  1  0
 21 16  1  0
 24 25  1  0
 13 14  1  0
M  END
> <minimizedAffinity>
-6.81351

> <CNNscore>
0.1363471597

> <CNNaffinity>
5.4636650085

> <CNN_VS>
0.7449551821

> <CNNaffinity_variance>
0.5140931010

$$$$



 40 42  0  0  0  0  0  0  0  0999 V2000
   50.0067    5.3463    3.0157 C   0  0  0  0  0  0  0  0  0  0  0  0
   50.2756    5.8990    4.2549 C   0  0  0  0  0  0  0  0  0  0  0  0
   49.9230    7.5811    4.2481 S   0  0  0  0  0  0  0  0  0  0  0  0
   49.4887    7.5843    2.5885 C   0  0  0  0  0  0  0  0  0  0  0  0
   49.5898    6.3157    2.0616 C   0  0  0  0  0  0  0  0  0  0  0  0
   49.2521    5.8525    0.2525 Br  0  0  0  0  0  0  0  0  0  0  0  0
   49.0847    8.8443    1.9603 C   0  0  0  0  0  0  0  0  0  0  0  0
   49.7222    9.2958    0.8026 C   0  0  0  0  0  0  0  0  0  0  0  0
   49.3560   10.5140    0.2356 C   0  0  0  0  0  0  0  0  0  0  0  0
   48.3387   11.2814    0.8118 C   0  0  0  0  0  0  0  0  0  0  0  0
   47.6457   10.8371    1.9422 C   0  0  0  0  0  0  0  0  0  0  0  0
   48.0634    9.6279    2.5235 C   0  0  0  0  0  0  0  0  0  0  0  0
   46.6709   11.5859    2.6057 N   0  0  0  0  0  0  0  0  0  0  0  0
   46.5395   11.4509    3.5721 H   0  0  0  0  0  0  0  0  0  0  0  0
   45.8419   12.5625    1.9071 C   0  0  0  0  0  0  0  0  0  0  0  0
   46.0867   13.9685    2.4041 C   0  0  0  0  0  0  0  0  0  0  0  0
   47.1507   14.2385    3.2784 C   0  0  0  0  0  0  0  0  0  0  0  0
   47.3759   15.5350    3.7438 C   0  0  0  0  0  0  0  0  0  0  0  0
   46.5433   16.5769    3.3390 C   0  0  0  0  0  0  0  0  0  0  0  0
   45.4816   16.3234    2.4726 C   0  0  0  0  0  0  0  0  0  0  0  0
   45.2518   15.0267    2.0087 C   0  0  0  0  0  0  0  0  0  0  0  0
   50.7656    5.2384    5.4444 C   0  0  0  0  0  0  0  0  0  0  0  0
   50.3406    4.2194    5.9714 O   0  0  0  0  0  0  0  0  0  0  0  0
   51.8241    5.8662    6.0098 O   0  0  0  0  0  0  0  0  0  0  0  0
   52.1662    6.6482    5.6233 H   0  0  0  0  0  0  0  0  0  0  0  0
   50.2230    4.0390    2.7312 O   0  0  0  0  0  0  0  0  0  0  0  0
   51.4659    3.8396    2.0565 C   0  0  0  0  0  0  0  0  0  0  0  0
   52.5440    3.3768    3.0438 C   0  0  0  0  0  0  0  0  0  0  0  0
   54.0049    3.9261    2.8593 C   0  0  0  0  0  0  0  0  0  0  0  0
   53.8909    5.4591    2.9428 C   0  0  0  0  0  0  0  0  0  0  0  0
   54.8808    3.4512    4.0370 C   0  0  0  0  0  0  0  0  0  0  0  0
   54.5602    3.4230    1.4861 C   0  0  0  0  0  0  0  0  0  0  0  0
   56.0813    3.4727    1.0620 C   0  0  0  0  0  0  0  0  0  0  0  0
   56.2316    3.3606   -0.4632 C   0  0  0  0  0  0  0  0  0  0  0  0
   56.5737    4.8774    1.4751 C   0  0  0  0  0  0  0  0  0  0  0  0
   56.8757    2.3438    1.8029 C   0  0  0  0  0  0  0  0  0  0  0  0
   58.9248    1.1193    2.7878 C   0  0  0  0  0  0  0  0  0  0  0  0
   58.4212    2.3713    2.0462 C   0  0  0  0  0  0  0  0  0  0  0  0
   59.0929    2.3565    0.6478 C   0  0  0  0  0  0  0  0  0  0  0  0
   58.9065    3.6305    2.7736 C   0  0  0  0  0  0  0  0  0  0  0  0
 37 38  1  0
 38 39  1  0
 38 40  1  0
 38 36  1  0
 36 33  1  0
 33 34  1  0
 33 35  1  0
 33 32  1  0
 32 29  1  0
 29 30  1  0
 29 31  1  0
 29 28  1  0
 28 27  1  0
 27 26  1  0
 26  1  1  0
  1  2  2  0
  2 22  1  0
 22 23  2  0
 22 24  1  0
  2  3  1  0
  3  4  1  0
  4  7  1  0
  7  8  2  0
  8  9  1  0
  9 10  2  0
 10 11  1  0
 11 13  1  0
 13 15  1  0
 15 16  1  0
 16 17  2  0
 17 18  1  0
 18 19  2  0
 19 20  1  0
 20 21  2  0
 11 12  2  0
  4  5  2  0
  5  6  1  0
  5  1  1  0
 12  7  1  0
 21 16  1  0
 24 25  1  0
 13 14  1  0
M  END
> <minimizedAffinity>
-6.54518

> <CNNscore>
0.1278821677

> <CNNaffinity>
5.3661918640

> <CNN_VS>
0.6862402558

> <CNNaffinity_variance>
0.5176494718

$$$$
