


 17 17  0  0  0  0  0  0  0  0999 V2000
   83.1339    8.3891   34.0157 C   0  0  0  0  0  0  0  0  0  0  0  0
   81.6395    8.5079   33.7026 C   0  0  0  0  0  0  0  0  0  0  0  0
   80.7989    8.8109   34.9570 C   0  0  0  0  0  0  0  0  0  0  0  0
   79.9721    7.6287   35.4556 C   0  0  0  0  0  0  0  0  0  0  0  0
   80.7079    6.3191   35.2363 C   0  0  0  0  0  0  0  0  0  0  0  0
   80.9672    6.0657   33.7420 C   0  0  0  0  0  0  0  0  0  0  0  0
   81.1425    7.3270   32.9782 N   0  0  0  0  0  0  0  0  0  0  0  0
   81.0000    7.4172   31.5919 C   0  0  0  0  0  0  0  0  0  0  0  0
   81.2589    8.4505   30.9733 O   0  0  0  0  0  0  0  0  0  0  0  0
   82.1777    5.1299   33.5789 C   0  0  0  0  0  0  0  0  0  0  0  0
   82.4402    4.1359   34.2370 O   0  0  0  0  0  0  0  0  0  0  0  0
   83.0433    5.5497   32.6314 O   0  0  0  0  0  0  0  0  0  0  0  0
   82.8477    6.3120   32.1228 H   0  0  0  0  0  0  0  0  0  0  0  0
   80.4727    6.1912   30.8620 C   0  0  0  0  0  0  0  0  0  0  0  0
   78.9659    6.2860   30.6499 C   0  0  0  0  0  0  0  0  0  0  0  0
   78.5989    6.9683   29.0027 S   0  0  0  0  0  0  0  0  0  0  0  0
   79.1322    8.2151   28.8993 H   0  0  0  0  0  0  0  0  0  0  0  0
  2  1  1  0
  2  3  1  0
  3  4  1  0
  4  5  1  0
  5  6  1  0
  6 10  1  0
 10 11  2  0
 10 12  1  0
  6  7  1  0
  7  8  1  0
  8  9  2  0
  8 14  1  0
 14 15  1  0
 15 16  1  0
  7  2  1  0
 12 13  1  0
 16 17  1  0
M  END
> <minimizedAffinity>
-4.40045

> <CNNscore>
0.8435243368

> <CNNaffinity>
3.3604104519

> <CNN_VS>
2.8345880508

> <CNNaffinity_variance>
0.5056331754

$$$$



 17 17  0  0  0  0  0  0  0  0999 V2000
   84.4068    6.6802   30.0766 C   0  0  0  0  0  0  0  0  0  0  0  0
   83.1235    5.8730   30.2926 C   0  0  0  0  0  0  0  0  0  0  0  0
   82.4851    5.4188   28.9667 C   0  0  0  0  0  0  0  0  0  0  0  0
   81.2139    6.1767   28.5934 C   0  0  0  0  0  0  0  0  0  0  0  0
   81.2983    7.6286   29.0286 C   0  0  0  0  0  0  0  0  0  0  0  0
   81.4407    7.7485   30.5550 C   0  0  0  0  0  0  0  0  0  0  0  0
   82.1664    6.5956   31.1460 N   0  0  0  0  0  0  0  0  0  0  0  0
   82.0986    6.2503   32.4975 C   0  0  0  0  0  0  0  0  0  0  0  0
   82.7965    5.3574   32.9805 O   0  0  0  0  0  0  0  0  0  0  0  0
   82.1154    9.0856   30.9077 C   0  0  0  0  0  0  0  0  0  0  0  0
   81.9935    9.7284   31.9383 O   0  0  0  0  0  0  0  0  0  0  0  0
   82.8570    9.5838   29.8952 O   0  0  0  0  0  0  0  0  0  0  0  0
   82.9546    9.0955   29.1015 H   0  0  0  0  0  0  0  0  0  0  0  0
   81.0945    6.9988   33.3609 C   0  0  0  0  0  0  0  0  0  0  0  0
   79.9667    6.0777   33.8126 C   0  0  0  0  0  0  0  0  0  0  0  0
   79.1511    5.3201   32.3723 S   0  0  0  0  0  0  0  0  0  0  0  0
   78.6265    6.2958   31.5832 H   0  0  0  0  0  0  0  0  0  0  0  0
  2  1  1  0
  2  3  1  0
  3  4  1  0
  4  5  1  0
  5  6  1  0
  6 10  1  0
 10 11  2  0
 10 12  1  0
  6  7  1  0
  7  8  1  0
  8  9  2  0
  8 14  1  0
 14 15  1  0
 15 16  1  0
  7  2  1  0
 12 13  1  0
 16 17  1  0
M  END
> <minimizedAffinity>
-3.50216

> <CNNscore>
0.7881295681

> <CNNaffinity>
3.4549274445

> <CNN_VS>
2.7229304314

> <CNNaffinity_variance>
0.3769724369

$$$$



 17 17  0  0  0  0  0  0  0  0999 V2000
   84.3238    7.9269   36.1308 C   0  0  0  0  0  0  0  0  0  0  0  0
   82.8415    7.8940   35.7477 C   0  0  0  0  0  0  0  0  0  0  0  0
   81.9156    8.0480   36.9688 C   0  0  0  0  0  0  0  0  0  0  0  0
   81.2045    6.7615   37.3798 C   0  0  0  0  0  0  0  0  0  0  0  0
   82.0916    5.5516   37.1482 C   0  0  0  0  0  0  0  0  0  0  0  0
   82.4458    5.3933   35.6602 C   0  0  0  0  0  0  0  0  0  0  0  0
   82.5135    6.6982   34.9548 N   0  0  0  0  0  0  0  0  0  0  0  0
   82.4255    6.8322   33.5675 C   0  0  0  0  0  0  0  0  0  0  0  0
   82.5950    7.9136   33.0025 O   0  0  0  0  0  0  0  0  0  0  0  0
   83.7597    4.6044   35.5228 C   0  0  0  0  0  0  0  0  0  0  0  0
   84.8744    4.9532   35.8777 O   0  0  0  0  0  0  0  0  0  0  0  0
   83.6049    3.4347   34.8662 O   0  0  0  0  0  0  0  0  0  0  0  0
   82.7519    3.1612   34.5911 H   0  0  0  0  0  0  0  0  0  0  0  0
   82.0727    5.5884   32.7659 C   0  0  0  0  0  0  0  0  0  0  0  0
   82.2036    5.8462   31.2689 C   0  0  0  0  0  0  0  0  0  0  0  0
   80.5742    6.2084   30.5428 S   0  0  0  0  0  0  0  0  0  0  0  0
   79.7476    5.1448   30.7305 H   0  0  0  0  0  0  0  0  0  0  0  0
  2  1  1  0
  2  3  1  0
  3  4  1  0
  4  5  1  0
  5  6  1  0
  6 10  1  0
 10 11  2  0
 10 12  1  0
  6  7  1  0
  7  8  1  0
  8  9  2  0
  8 14  1  0
 14 15  1  0
 15 16  1  0
  7  2  1  0
 12 13  1  0
 16 17  1  0
M  END
> <minimizedAffinity>
-3.60086

> <CNNscore>
0.7496724725

> <CNNaffinity>
4.3171067238

> <CNN_VS>
3.2364161015

> <CNNaffinity_variance>
0.0414808691

$$$$



 17 17  0  0  0  0  0  0  0  0999 V2000
   78.1050    8.1428   26.6766 C   0  0  0  0  0  0  0  0  0  0  0  0
   78.9848    8.4233   27.8982 C   0  0  0  0  0  0  0  0  0  0  0  0
   80.3483    9.0277   27.5138 C   0  0  0  0  0  0  0  0  0  0  0  0
   81.5223    8.0630   27.6583 C   0  0  0  0  0  0  0  0  0  0  0  0
   81.1069    6.6445   27.3121 C   0  0  0  0  0  0  0  0  0  0  0  0
   80.0092    6.1349   28.2608 C   0  0  0  0  0  0  0  0  0  0  0  0
   79.1307    7.2292   28.7462 N   0  0  0  0  0  0  0  0  0  0  0  0
   78.3288    7.1288   29.8851 C   0  0  0  0  0  0  0  0  0  0  0  0
   77.5284    8.0102   30.2016 O   0  0  0  0  0  0  0  0  0  0  0  0
   79.2020    5.0235   27.5674 C   0  0  0  0  0  0  0  0  0  0  0  0
   79.1323    4.7946   26.3704 O   0  0  0  0  0  0  0  0  0  0  0  0
   78.4554    4.3000   28.4290 O   0  0  0  0  0  0  0  0  0  0  0  0
   78.5042    4.4707   29.3490 H   0  0  0  0  0  0  0  0  0  0  0  0
   78.5029    5.8940   30.7563 C   0  0  0  0  0  0  0  0  0  0  0  0
   79.0789    6.2620   32.1191 C   0  0  0  0  0  0  0  0  0  0  0  0
   79.8929    4.8194   32.8741 S   0  0  0  0  0  0  0  0  0  0  0  0
   78.9839    3.8216   33.0408 H   0  0  0  0  0  0  0  0  0  0  0  0
  2  1  1  0
  2  3  1  0
  3  4  1  0
  4  5  1  0
  5  6  1  0
  6 10  1  0
 10 11  2  0
 10 12  1  0
  6  7  1  0
  7  8  1  0
  8  9  2  0
  8 14  1  0
 14 15  1  0
 15 16  1  0
  7  2  1  0
 12 13  1  0
 16 17  1  0
M  END
> <minimizedAffinity>
-5.89766

> <CNNscore>
0.7334457040

> <CNNaffinity>
3.5482540131

> <CNN_VS>
2.6024515629

> <CNNaffinity_variance>
0.7364590764

$$$$



 17 17  0  0  0  0  0  0  0  0999 V2000
   80.6175    6.0115   29.2542 C   0  0  0  0  0  0  0  0  0  0  0  0
   80.5198    6.4935   27.8039 C   0  0  0  0  0  0  0  0  0  0  0  0
   81.3681    7.7525   27.5450 C   0  0  0  0  0  0  0  0  0  0  0  0
   80.5526    9.0319   27.3777 C   0  0  0  0  0  0  0  0  0  0  0  0
   79.3269    9.0169   28.2732 C   0  0  0  0  0  0  0  0  0  0  0  0
   78.3860    7.8545   27.9157 C   0  0  0  0  0  0  0  0  0  0  0  0
   79.1201    6.6768   27.3873 N   0  0  0  0  0  0  0  0  0  0  0  0
   78.5185    5.6637   26.6377 C   0  0  0  0  0  0  0  0  0  0  0  0
   79.1272    4.6451   26.3068 O   0  0  0  0  0  0  0  0  0  0  0  0
   77.5295    7.4875   29.1401 C   0  0  0  0  0  0  0  0  0  0  0  0
   76.4408    6.9353   29.1447 O   0  0  0  0  0  0  0  0  0  0  0  0
   78.0659    7.9129   30.3039 O   0  0  0  0  0  0  0  0  0  0  0  0
   78.9012    8.3375   30.3073 H   0  0  0  0  0  0  0  0  0  0  0  0
   77.0758    5.8766   26.2050 C   0  0  0  0  0  0  0  0  0  0  0  0
   76.8196    5.2645   24.8324 C   0  0  0  0  0  0  0  0  0  0  0  0
   76.2830    6.5462   23.6564 S   0  0  0  0  0  0  0  0  0  0  0  0
   75.1307    7.1155   24.1010 H   0  0  0  0  0  0  0  0  0  0  0  0
  2  1  1  0
  2  3  1  0
  3  4  1  0
  4  5  1  0
  5  6  1  0
  6 10  1  0
 10 11  2  0
 10 12  1  0
  6  7  1  0
  7  8  1  0
  8  9  2  0
  8 14  1  0
 14 15  1  0
 15 16  1  0
  7  2  1  0
 12 13  1  0
 16 17  1  0
M  END
> <minimizedAffinity>
-5.67034

> <CNNscore>
0.7245627046

> <CNNaffinity>
3.9199841022

> <CNN_VS>
2.8402743340

> <CNNaffinity_variance>
0.3657287359

$$$$



 17 17  0  0  0  0  0  0  0  0999 V2000
   79.3699    6.9066   33.5315 C   0  0  0  0  0  0  0  0  0  0  0  0
   80.3093    6.9430   34.7404 C   0  0  0  0  0  0  0  0  0  0  0  0
   79.9226    8.0380   35.7520 C   0  0  0  0  0  0  0  0  0  0  0  0
   80.8632    9.2401   35.7615 C   0  0  0  0  0  0  0  0  0  0  0  0
   81.3843    9.5344   34.3664 C   0  0  0  0  0  0  0  0  0  0  0  0
   82.1977    8.3533   33.8114 C   0  0  0  0  0  0  0  0  0  0  0  0
   81.7184    7.0463   34.3282 N   0  0  0  0  0  0  0  0  0  0  0  0
   82.4862    5.8799   34.3107 C   0  0  0  0  0  0  0  0  0  0  0  0
   82.0245    4.7876   34.6441 O   0  0  0  0  0  0  0  0  0  0  0  0
   82.1857    8.3950   32.2733 C   0  0  0  0  0  0  0  0  0  0  0  0
   81.2271    8.2350   31.5349 O   0  0  0  0  0  0  0  0  0  0  0  0
   83.4158    8.5619   31.7420 O   0  0  0  0  0  0  0  0  0  0  0  0
   84.1558    8.6852   32.3034 H   0  0  0  0  0  0  0  0  0  0  0  0
   83.9437    6.0084   33.8947 C   0  0  0  0  0  0  0  0  0  0  0  0
   84.8712    5.4540   34.9703 C   0  0  0  0  0  0  0  0  0  0  0  0
   84.7579    6.4579   36.4846 S   0  0  0  0  0  0  0  0  0  0  0  0
   85.1273    7.7375   36.2088 H   0  0  0  0  0  0  0  0  0  0  0  0
  2  1  1  0
  2  3  1  0
  3  4  1  0
  4  5  1  0
  5  6  1  0
  6 10  1  0
 10 11  2  0
 10 12  1  0
  6  7  1  0
  7  8  1  0
  8  9  2  0
  8 14  1  0
 14 15  1  0
 15 16  1  0
  7  2  1  0
 12 13  1  0
 16 17  1  0
M  END
> <minimizedAffinity>
-3.70222

> <CNNscore>
0.7196414471

> <CNNaffinity>
3.6087322235

> <CNN_VS>
2.5969932079

> <CNNaffinity_variance>
0.1575332284

$$$$



 17 17  0  0  0  0  0  0  0  0999 V2000
   82.5022    5.8352   25.9939 C   0  0  0  0  0  0  0  0  0  0  0  0
   82.2908    6.9914   26.9755 C   0  0  0  0  0  0  0  0  0  0  0  0
   83.1652    6.8588   28.2364 C   0  0  0  0  0  0  0  0  0  0  0  0
   82.3939    6.4633   29.4928 C   0  0  0  0  0  0  0  0  0  0  0  0
   81.2576    5.5142   29.1575 C   0  0  0  0  0  0  0  0  0  0  0  0
   80.2378    6.1726   28.2135 C   0  0  0  0  0  0  0  0  0  0  0  0
   80.8677    7.1664   27.3077 N   0  0  0  0  0  0  0  0  0  0  0  0
   80.1554    8.1680   26.6445 C   0  0  0  0  0  0  0  0  0  0  0  0
   80.6858    8.9083   25.8149 O   0  0  0  0  0  0  0  0  0  0  0  0
   79.4840    5.0854   27.4277 C   0  0  0  0  0  0  0  0  0  0  0  0
   79.5851    4.8250   26.2394 O   0  0  0  0  0  0  0  0  0  0  0  0
   78.5746    4.4284   28.1790 O   0  0  0  0  0  0  0  0  0  0  0  0
   78.4920    4.6235   29.0917 H   0  0  0  0  0  0  0  0  0  0  0  0
   78.6893    8.3426   27.0104 C   0  0  0  0  0  0  0  0  0  0  0  0
   78.5354    8.7763   28.4639 C   0  0  0  0  0  0  0  0  0  0  0  0
   77.1845    7.8531   29.2617 S   0  0  0  0  0  0  0  0  0  0  0  0
   76.0181    8.1010   28.6078 H   0  0  0  0  0  0  0  0  0  0  0  0
  2  1  1  0
  2  3  1  0
  3  4  1  0
  4  5  1  0
  5  6  1  0
  6 10  1  0
 10 11  2  0
 10 12  1  0
  6  7  1  0
  7  8  1  0
  8  9  2  0
  8 14  1  0
 14 15  1  0
 15 16  1  0
  7  2  1  0
 12 13  1  0
 16 17  1  0
M  END
> <minimizedAffinity>
-4.65862

> <CNNscore>
0.6835099459

> <CNNaffinity>
3.2033421993

> <CNN_VS>
2.1895163059

> <CNNaffinity_variance>
0.7677158713

$$$$



 17 17  0  0  0  0  0  0  0  0999 V2000
   79.8791    6.0429   29.3824 C   0  0  0  0  0  0  0  0  0  0  0  0
   80.4187    7.0459   28.3588 C   0  0  0  0  0  0  0  0  0  0  0  0
   79.8912    8.4727   28.6001 C   0  0  0  0  0  0  0  0  0  0  0  0
   78.8488    8.9335   27.5849 C   0  0  0  0  0  0  0  0  0  0  0  0
   77.9679    7.7774   27.1466 C   0  0  0  0  0  0  0  0  0  0  0  0
   78.7899    6.6781   26.4536 C   0  0  0  0  0  0  0  0  0  0  0  0
   80.1763    6.5949   26.9789 N   0  0  0  0  0  0  0  0  0  0  0  0
   81.2276    5.9840   26.2920 C   0  0  0  0  0  0  0  0  0  0  0  0
   82.3401    5.8326   26.7989 O   0  0  0  0  0  0  0  0  0  0  0  0
   78.0556    5.3311   26.5725 C   0  0  0  0  0  0  0  0  0  0  0  0
   77.0206    4.9995   26.0168 O   0  0  0  0  0  0  0  0  0  0  0  0
   78.6346    4.4927   27.4585 O   0  0  0  0  0  0  0  0  0  0  0  0
   79.4292    4.7413   27.8885 H   0  0  0  0  0  0  0  0  0  0  0  0
   80.9624    5.5363   24.8626 C   0  0  0  0  0  0  0  0  0  0  0  0
   81.9503    4.4569   24.4345 C   0  0  0  0  0  0  0  0  0  0  0  0
   83.1042    5.1114   23.1880 S   0  0  0  0  0  0  0  0  0  0  0  0
   82.4063    5.5209   22.0949 H   0  0  0  0  0  0  0  0  0  0  0  0
  2  1  1  0
  2  3  1  0
  3  4  1  0
  4  5  1  0
  5  6  1  0
  6 10  1  0
 10 11  2  0
 10 12  1  0
  6  7  1  0
  7  8  1  0
  8  9  2  0
  8 14  1  0
 14 15  1  0
 15 16  1  0
  7  2  1  0
 12 13  1  0
 16 17  1  0
M  END
> <minimizedAffinity>
-5.38453

> <CNNscore>
0.6769673824

> <CNNaffinity>
2.9860584736

> <CNN_VS>
2.0214641094

> <CNNaffinity_variance>
1.0166312456

$$$$



 17 17  0  0  0  0  0  0  0  0999 V2000
   80.5256    4.4946   33.8448 C   0  0  0  0  0  0  0  0  0  0  0  0
   79.6730    5.7124   33.4771 C   0  0  0  0  0  0  0  0  0  0  0  0
   78.8855    5.5049   32.1699 C   0  0  0  0  0  0  0  0  0  0  0  0
   79.4267    6.2963   30.9822 C   0  0  0  0  0  0  0  0  0  0  0  0
   80.9401    6.3996   31.0413 C   0  0  0  0  0  0  0  0  0  0  0  0
   81.4018    7.1455   32.3043 C   0  0  0  0  0  0  0  0  0  0  0  0
   80.4752    6.9460   33.4473 N   0  0  0  0  0  0  0  0  0  0  0  0
   80.4278    7.7888   34.5599 C   0  0  0  0  0  0  0  0  0  0  0  0
   79.7278    7.5374   35.5419 O   0  0  0  0  0  0  0  0  0  0  0  0
   82.8387    6.7234   32.6575 C   0  0  0  0  0  0  0  0  0  0  0  0
   83.2284    5.6098   32.9707 O   0  0  0  0  0  0  0  0  0  0  0  0
   83.7033    7.7605   32.6713 O   0  0  0  0  0  0  0  0  0  0  0  0
   83.4105    8.6177   32.4320 H   0  0  0  0  0  0  0  0  0  0  0  0
   81.2531    9.0655   34.5056 C   0  0  0  0  0  0  0  0  0  0  0  0
   81.5912    9.5591   35.9079 C   0  0  0  0  0  0  0  0  0  0  0  0
   80.6582   11.0751   36.2888 S   0  0  0  0  0  0  0  0  0  0  0  0
   80.9864   12.0460   35.3948 H   0  0  0  0  0  0  0  0  0  0  0  0
  2  1  1  0
  2  3  1  0
  3  4  1  0
  4  5  1  0
  5  6  1  0
  6 10  1  0
 10 11  2  0
 10 12  1  0
  6  7  1  0
  7  8  1  0
  8  9  2  0
  8 14  1  0
 14 15  1  0
 15 16  1  0
  7  2  1  0
 12 13  1  0
 16 17  1  0
M  END
> <minimizedAffinity>
-4.51794

> <CNNscore>
0.6576480865

> <CNNaffinity>
3.2708847523

> <CNN_VS>
2.1510910988

> <CNNaffinity_variance>
0.5336360335

$$$$
