


 28 31  0  0  0  0  0  0  0  0999 V2000
    9.1300   58.3869   -1.4551 C   0  0  0  0  0  0  0  0  0  0  0  0
    8.6823   59.6363   -1.4425 N   0  0  0  0  0  0  0  0  0  0  0  0
    7.5017   59.6052   -0.7553 C   0  0  0  0  0  0  0  0  0  0  0  0
    6.5577   60.6082   -0.4687 C   0  0  0  0  0  0  0  0  0  0  0  0
    5.3949   60.3590    0.2101 N   0  0  0  0  0  0  0  0  0  0  0  0
    5.2121   59.0753    0.5628 C   0  0  0  0  0  0  0  0  0  0  0  0
    4.1333   58.5409    1.2079 N   0  0  0  0  0  0  0  0  0  0  0  0
    4.3146   57.1872    1.3383 C   0  0  0  0  0  0  0  0  0  0  0  0
    3.0656   56.0017    2.1394 Br  0  0  0  0  0  0  0  0  0  0  0  0
    5.5293   56.8259    0.7886 C   0  0  0  0  0  0  0  0  0  0  0  0
    6.0909   58.0408    0.3251 C   0  0  0  0  0  0  0  0  0  0  0  0
    7.2609   58.3179   -0.3185 C   0  0  0  0  0  0  0  0  0  0  0  0
    8.3396   57.5672   -0.6492 N   0  0  0  0  0  0  0  0  0  0  0  0
    3.3512   59.0459    1.5279 H   0  0  0  0  0  0  0  0  0  0  0  0
    8.6523   56.2202   -0.1810 C   0  0  0  0  0  0  0  0  0  0  0  0
    9.2791   56.2157    1.2176 C   0  0  0  0  0  0  0  0  0  0  0  0
    9.7179   54.8105    1.6338 C   0  0  0  0  0  0  0  0  0  0  0  0
    8.5778   53.7855    1.5183 C   0  0  0  0  0  0  0  0  0  0  0  0
    7.9823   53.8001    0.0979 C   0  0  0  0  0  0  0  0  0  0  0  0
    7.5107   55.1970   -0.3079 C   0  0  0  0  0  0  0  0  0  0  0  0
    9.0343   52.3514    1.8685 C   0  0  0  0  0  0  0  0  0  0  0  0
    8.0353   51.2380    1.5390 C   0  0  0  0  0  0  0  0  0  0  0  0
    7.5733   50.5283    2.7386 C   0  0  0  0  0  0  0  0  0  0  0  0
    7.1988   49.9653    3.6813 N   0  0  0  0  0  0  0  0  0  0  0  0
   10.9172   59.1091   -3.0556 C   0  0  0  0  0  0  0  0  0  0  0  0
   10.3520   57.9698   -2.2168 C   0  0  0  0  0  0  0  0  0  0  0  0
   11.3201   57.5859   -1.2438 O   0  0  0  0  0  0  0  0  0  0  0  0
   11.5087   58.3382   -0.6611 H   0  0  0  0  0  0  0  0  0  0  0  0
 26 25  1  0
 26 27  1  0
 26  1  1  0
  1  2  2  0
  2  3  1  0
  3  4  2  0
  4  5  1  0
  5  6  2  0
  6  7  1  0
  7  8  1  0
  8  9  1  0
  8 10  2  0
 10 11  1  0
 11 12  2  0
 12 13  1  0
 15 13  1  0
 15 16  1  0
 16 17  1  0
 17 18  1  0
 18 21  1  0
 21 22  1  0
 22 23  1  0
 23 24  3  0
 18 19  1  0
 19 20  1  0
 13  1  1  0
 20 15  1  0
 12  3  1  0
 11  6  1  0
 27 28  1  0
  7 14  1  0
M  END
> <minimizedAffinity>
-8.29480

> <CNNscore>
0.9290306568

> <CNNaffinity>
7.7372741699

> <CNN_VS>
7.1881647110

> <CNNaffinity_variance>
0.0074531105

$$$$



 28 31  0  0  0  0  0  0  0  0999 V2000
    9.1076   58.5358   -1.5055 C   0  0  0  0  0  0  0  0  0  0  0  0
    8.6134   59.7676   -1.4992 N   0  0  0  0  0  0  0  0  0  0  0  0
    7.4400   59.6979   -0.8025 C   0  0  0  0  0  0  0  0  0  0  0  0
    6.4612   60.6671   -0.5164 C   0  0  0  0  0  0  0  0  0  0  0  0
    5.3137   60.3801    0.1734 N   0  0  0  0  0  0  0  0  0  0  0  0
    5.1818   59.0934    0.5375 C   0  0  0  0  0  0  0  0  0  0  0  0
    4.1288   58.5241    1.1952 N   0  0  0  0  0  0  0  0  0  0  0  0
    4.3617   57.1793    1.3348 C   0  0  0  0  0  0  0  0  0  0  0  0
    3.1641   55.9544    2.1550 Br  0  0  0  0  0  0  0  0  0  0  0  0
    5.5850   56.8593    0.7785 C   0  0  0  0  0  0  0  0  0  0  0  0
    6.0970   58.0906    0.3011 C   0  0  0  0  0  0  0  0  0  0  0  0
    7.2510   58.4060   -0.3538 C   0  0  0  0  0  0  0  0  0  0  0  0
    8.3546   57.6936   -0.6870 N   0  0  0  0  0  0  0  0  0  0  0  0
    3.3307   59.0021    1.5174 H   0  0  0  0  0  0  0  0  0  0  0  0
    8.7211   56.3632   -0.2107 C   0  0  0  0  0  0  0  0  0  0  0  0
    9.2963   56.3861    1.2097 C   0  0  0  0  0  0  0  0  0  0  0  0
    9.7937   55.0044    1.6385 C   0  0  0  0  0  0  0  0  0  0  0  0
    8.7144   53.9209    1.4795 C   0  0  0  0  0  0  0  0  0  0  0  0
    8.1706   53.9099    0.0385 C   0  0  0  0  0  0  0  0  0  0  0  0
    7.6406   55.2815   -0.3811 C   0  0  0  0  0  0  0  0  0  0  0  0
    9.2333   52.5116    1.8429 C   0  0  0  0  0  0  0  0  0  0  0  0
   10.3914   51.9898    0.9867 C   0  0  0  0  0  0  0  0  0  0  0  0
   11.6879   52.5363    1.4070 C   0  0  0  0  0  0  0  0  0  0  0  0
   12.7155   52.9578    1.7418 N   0  0  0  0  0  0  0  0  0  0  0  0
   10.9009   59.3344   -3.0622 C   0  0  0  0  0  0  0  0  0  0  0  0
   10.3386   58.1585   -2.2734 C   0  0  0  0  0  0  0  0  0  0  0  0
   11.3023   57.7440   -1.3087 O   0  0  0  0  0  0  0  0  0  0  0  0
   11.4805   58.4741   -0.6954 H   0  0  0  0  0  0  0  0  0  0  0  0
 26 25  1  0
 26 27  1  0
 26  1  1  0
  1  2  2  0
  2  3  1  0
  3  4  2  0
  4  5  1  0
  5  6  2  0
  6  7  1  0
  7  8  1  0
  8  9  1  0
  8 10  2  0
 10 11  1  0
 11 12  2  0
 12 13  1  0
 15 13  1  0
 15 16  1  0
 16 17  1  0
 17 18  1  0
 18 21  1  0
 21 22  1  0
 22 23  1  0
 23 24  3  0
 18 19  1  0
 19 20  1  0
 13  1  1  0
 20 15  1  0
 12  3  1  0
 11  6  1  0
 27 28  1  0
  7 14  1  0
M  END
> <minimizedAffinity>
-8.00383

> <CNNscore>
0.8941308260

> <CNNaffinity>
7.7253003120

> <CNN_VS>
6.9074292183

> <CNNaffinity_variance>
0.0016293791

$$$$



 28 31  0  0  0  0  0  0  0  0999 V2000
    6.5378   56.4531    1.5993 C   0  0  0  0  0  0  0  0  0  0  0  0
    5.8187   57.5278    1.3004 N   0  0  0  0  0  0  0  0  0  0  0  0
    6.5426   58.2169    0.3686 C   0  0  0  0  0  0  0  0  0  0  0  0
    6.3133   59.4473   -0.2737 C   0  0  0  0  0  0  0  0  0  0  0  0
    7.1997   59.9963   -1.1613 N   0  0  0  0  0  0  0  0  0  0  0  0
    8.3196   59.2796   -1.3557 C   0  0  0  0  0  0  0  0  0  0  0  0
    9.3821   59.6054   -2.1497 N   0  0  0  0  0  0  0  0  0  0  0  0
   10.3422   58.6320   -2.0352 C   0  0  0  0  0  0  0  0  0  0  0  0
   12.0205   58.6594   -2.9239 Br  0  0  0  0  0  0  0  0  0  0  0  0
    9.9050   57.6474   -1.1704 C   0  0  0  0  0  0  0  0  0  0  0  0
    8.6123   58.0665   -0.7710 C   0  0  0  0  0  0  0  0  0  0  0  0
    7.6984   57.5189    0.0804 C   0  0  0  0  0  0  0  0  0  0  0  0
    7.6469   56.3474    0.7597 N   0  0  0  0  0  0  0  0  0  0  0  0
    9.4485   60.4096   -2.7136 H   0  0  0  0  0  0  0  0  0  0  0  0
    8.5125   55.1858    0.5792 C   0  0  0  0  0  0  0  0  0  0  0  0
    9.7664   55.2459    1.4583 C   0  0  0  0  0  0  0  0  0  0  0  0
   10.7206   54.0882    1.1587 C   0  0  0  0  0  0  0  0  0  0  0  0
   10.0252   52.7202    1.2528 C   0  0  0  0  0  0  0  0  0  0  0  0
    8.7817   52.6846    0.3444 C   0  0  0  0  0  0  0  0  0  0  0  0
    7.8093   53.8204    0.6649 C   0  0  0  0  0  0  0  0  0  0  0  0
   10.9657   51.5520    0.8810 C   0  0  0  0  0  0  0  0  0  0  0  0
   12.4473   51.9132    0.7367 C   0  0  0  0  0  0  0  0  0  0  0  0
   13.3039   51.1295    1.6358 C   0  0  0  0  0  0  0  0  0  0  0  0
   13.9782   50.5173    2.3543 N   0  0  0  0  0  0  0  0  0  0  0  0
    6.7697   55.8499    4.0200 C   0  0  0  0  0  0  0  0  0  0  0  0
    6.1463   55.4881    2.6778 C   0  0  0  0  0  0  0  0  0  0  0  0
    4.7275   55.5651    2.7897 O   0  0  0  0  0  0  0  0  0  0  0  0
    4.4700   56.4718    3.0187 H   0  0  0  0  0  0  0  0  0  0  0  0
 26 25  1  0
 26 27  1  0
 26  1  1  0
  1  2  2  0
  2  3  1  0
  3  4  2  0
  4  5  1  0
  5  6  2  0
  6  7  1  0
  7  8  1  0
  8  9  1  0
  8 10  2  0
 10 11  1  0
 11 12  2  0
 12 13  1  0
 15 13  1  0
 15 16  1  0
 16 17  1  0
 17 18  1  0
 18 21  1  0
 21 22  1  0
 22 23  1  0
 23 24  3  0
 18 19  1  0
 19 20  1  0
 13  1  1  0
 20 15  1  0
 12  3  1  0
 11  6  1  0
 27 28  1  0
  7 14  1  0
M  END
> <minimizedAffinity>
-7.74773

> <CNNscore>
0.7048720717

> <CNNaffinity>
7.0663356781

> <CNN_VS>
4.9808626175

> <CNNaffinity_variance>
0.1306968480

$$$$



 28 31  0  0  0  0  0  0  0  0999 V2000
    6.3321   56.5571    1.6931 C   0  0  0  0  0  0  0  0  0  0  0  0
    5.5867   57.6405    1.5132 N   0  0  0  0  0  0  0  0  0  0  0  0
    6.2490   58.4035    0.5934 C   0  0  0  0  0  0  0  0  0  0  0  0
    5.9713   59.6732    0.0548 C   0  0  0  0  0  0  0  0  0  0  0  0
    6.7997   60.2955   -0.8405 N   0  0  0  0  0  0  0  0  0  0  0  0
    7.9132   59.6096   -1.1491 C   0  0  0  0  0  0  0  0  0  0  0  0
    8.9249   60.0051   -1.9771 N   0  0  0  0  0  0  0  0  0  0  0  0
    9.8991   59.0391   -1.9874 C   0  0  0  0  0  0  0  0  0  0  0  0
   11.5229   59.1521   -2.9662 Br  0  0  0  0  0  0  0  0  0  0  0  0
    9.5219   57.9900   -1.1717 C   0  0  0  0  0  0  0  0  0  0  0  0
    8.2506   58.3622   -0.6703 C   0  0  0  0  0  0  0  0  0  0  0  0
    7.3928   57.7434    0.1905 C   0  0  0  0  0  0  0  0  0  0  0  0
    7.3916   56.5261    0.7862 N   0  0  0  0  0  0  0  0  0  0  0  0
    8.9509   60.8481   -2.4850 H   0  0  0  0  0  0  0  0  0  0  0  0
    8.2562   55.3921    0.4739 C   0  0  0  0  0  0  0  0  0  0  0  0
    9.5427   55.3879    1.3069 C   0  0  0  0  0  0  0  0  0  0  0  0
   10.4912   54.2687    0.8732 C   0  0  0  0  0  0  0  0  0  0  0  0
    9.8077   52.8915    0.8757 C   0  0  0  0  0  0  0  0  0  0  0  0
    8.5304   52.9226    0.0154 C   0  0  0  0  0  0  0  0  0  0  0  0
    7.5646   54.0180    0.4687 C   0  0  0  0  0  0  0  0  0  0  0  0
   10.7399   51.7679    0.3697 C   0  0  0  0  0  0  0  0  0  0  0  0
   10.2171   50.3396    0.5518 C   0  0  0  0  0  0  0  0  0  0  0  0
    9.7844   49.7368   -0.7152 C   0  0  0  0  0  0  0  0  0  0  0  0
    9.4504   49.2527   -1.7152 N   0  0  0  0  0  0  0  0  0  0  0  0
    6.6555   55.8224    4.0665 C   0  0  0  0  0  0  0  0  0  0  0  0
    6.0127   55.5129    2.7203 C   0  0  0  0  0  0  0  0  0  0  0  0
    4.5954   55.5184    2.8711 O   0  0  0  0  0  0  0  0  0  0  0  0
    4.3044   56.3972    3.1607 H   0  0  0  0  0  0  0  0  0  0  0  0
 26 25  1  0
 26 27  1  0
 26  1  1  0
  1  2  2  0
  2  3  1  0
  3  4  2  0
  4  5  1  0
  5  6  2  0
  6  7  1  0
  7  8  1  0
  8  9  1  0
  8 10  2  0
 10 11  1  0
 11 12  2  0
 12 13  1  0
 15 13  1  0
 15 16  1  0
 16 17  1  0
 17 18  1  0
 18 21  1  0
 21 22  1  0
 22 23  1  0
 23 24  3  0
 18 19  1  0
 19 20  1  0
 13  1  1  0
 20 15  1  0
 12  3  1  0
 11  6  1  0
 27 28  1  0
  7 14  1  0
M  END
> <minimizedAffinity>
-7.81012

> <CNNscore>
0.6428179145

> <CNNaffinity>
7.0903887749

> <CNN_VS>
4.5578289032

> <CNNaffinity_variance>
0.1225408539

$$$$



 28 31  0  0  0  0  0  0  0  0999 V2000
    9.6647   56.8342   -1.1609 C   0  0  0  0  0  0  0  0  0  0  0  0
    9.9758   58.0771   -1.5071 N   0  0  0  0  0  0  0  0  0  0  0  0
    8.9367   58.8564   -1.0828 C   0  0  0  0  0  0  0  0  0  0  0  0
    8.6839   60.2341   -1.2149 C   0  0  0  0  0  0  0  0  0  0  0  0
    7.5404   60.8255   -0.7484 N   0  0  0  0  0  0  0  0  0  0  0  0
    6.6647   59.9840   -0.1735 C   0  0  0  0  0  0  0  0  0  0  0  0
    5.4366   60.2920    0.3389 N   0  0  0  0  0  0  0  0  0  0  0  0
    4.8383   59.1428    0.7902 C   0  0  0  0  0  0  0  0  0  0  0  0
    3.1026   59.0571    1.5567 Br  0  0  0  0  0  0  0  0  0  0  0  0
    5.6832   58.0687    0.5883 C   0  0  0  0  0  0  0  0  0  0  0  0
    6.8432   58.6284   -0.0011 C   0  0  0  0  0  0  0  0  0  0  0  0
    8.0061   58.0660   -0.4385 C   0  0  0  0  0  0  0  0  0  0  0  0
    8.5121   56.8104   -0.3753 N   0  0  0  0  0  0  0  0  0  0  0  0
    5.0439   61.1939    0.3782 H   0  0  0  0  0  0  0  0  0  0  0  0
    8.0088   55.6972    0.4239 C   0  0  0  0  0  0  0  0  0  0  0  0
    7.0385   54.8049   -0.3579 C   0  0  0  0  0  0  0  0  0  0  0  0
    6.4238   53.7243    0.5338 C   0  0  0  0  0  0  0  0  0  0  0  0
    7.4919   52.8968    1.2676 C   0  0  0  0  0  0  0  0  0  0  0  0
    8.4383   53.8193    2.0586 C   0  0  0  0  0  0  0  0  0  0  0  0
    9.0813   54.8789    1.1631 C   0  0  0  0  0  0  0  0  0  0  0  0
    6.8757   51.8516    2.2245 C   0  0  0  0  0  0  0  0  0  0  0  0
    5.4433   52.1374    2.6856 C   0  0  0  0  0  0  0  0  0  0  0  0
    4.6195   50.9229    2.7365 C   0  0  0  0  0  0  0  0  0  0  0  0
    3.9633   49.9668    2.7677 N   0  0  0  0  0  0  0  0  0  0  0  0
   11.5261   56.0035   -2.6177 C   0  0  0  0  0  0  0  0  0  0  0  0
   10.4964   55.6498   -1.5520 C   0  0  0  0  0  0  0  0  0  0  0  0
   11.1762   55.2294   -0.3720 O   0  0  0  0  0  0  0  0  0  0  0  0
   11.7299   55.9543   -0.0421 H   0  0  0  0  0  0  0  0  0  0  0  0
 26 25  1  0
 26 27  1  0
 26  1  1  0
  1  2  2  0
  2  3  1  0
  3  4  2  0
  4  5  1  0
  5  6  2  0
  6  7  1  0
  7  8  1  0
  8  9  1  0
  8 10  2  0
 10 11  1  0
 11 12  2  0
 12 13  1  0
 15 13  1  0
 15 16  1  0
 16 17  1  0
 17 18  1  0
 18 21  1  0
 21 22  1  0
 22 23  1  0
 23 24  3  0
 18 19  1  0
 19 20  1  0
 13  1  1  0
 20 15  1  0
 12  3  1  0
 11  6  1  0
 27 28  1  0
  7 14  1  0
M  END
> <minimizedAffinity>
-6.12450

> <CNNscore>
0.5669170618

> <CNNaffinity>
7.3679642677

> <CNN_VS>
4.1770248413

> <CNNaffinity_variance>
0.0254906565

$$$$



 28 31  0  0  0  0  0  0  0  0999 V2000
    6.0507   57.9663    1.0509 C   0  0  0  0  0  0  0  0  0  0  0  0
    6.0666   59.2016    0.5656 N   0  0  0  0  0  0  0  0  0  0  0  0
    7.1169   59.2487   -0.3070 C   0  0  0  0  0  0  0  0  0  0  0  0
    7.6513   60.3000   -1.0741 C   0  0  0  0  0  0  0  0  0  0  0  0
    8.7564   60.1500   -1.8687 N   0  0  0  0  0  0  0  0  0  0  0  0
    9.3074   58.9247   -1.8424 C   0  0  0  0  0  0  0  0  0  0  0  0
   10.4291   58.5084   -2.5012 N   0  0  0  0  0  0  0  0  0  0  0  0
   10.6829   57.2010   -2.1719 C   0  0  0  0  0  0  0  0  0  0  0  0
   12.1594   56.1923   -2.8122 Br  0  0  0  0  0  0  0  0  0  0  0  0
    9.7132   56.7446   -1.3004 C   0  0  0  0  0  0  0  0  0  0  0  0
    8.8395   57.8454   -1.1246 C   0  0  0  0  0  0  0  0  0  0  0  0
    7.7151   58.0060   -0.3697 C   0  0  0  0  0  0  0  0  0  0  0  0
    6.9769   57.1599    0.3891 N   0  0  0  0  0  0  0  0  0  0  0  0
   10.9688   59.0583   -3.1140 H   0  0  0  0  0  0  0  0  0  0  0  0
    7.0704   55.7036    0.4293 C   0  0  0  0  0  0  0  0  0  0  0  0
    7.8857   55.2006    1.6256 C   0  0  0  0  0  0  0  0  0  0  0  0
    8.0814   53.6841    1.5765 C   0  0  0  0  0  0  0  0  0  0  0  0
    6.7495   52.9286    1.4380 C   0  0  0  0  0  0  0  0  0  0  0  0
    5.9633   53.4425    0.2172 C   0  0  0  0  0  0  0  0  0  0  0  0
    5.7358   54.9533    0.2807 C   0  0  0  0  0  0  0  0  0  0  0  0
    6.9464   51.4009    1.3155 C   0  0  0  0  0  0  0  0  0  0  0  0
    5.7996   50.5390    1.8523 C   0  0  0  0  0  0  0  0  0  0  0  0
    6.2091   49.7117    2.9943 C   0  0  0  0  0  0  0  0  0  0  0  0
    6.5351   49.0499    3.8896 N   0  0  0  0  0  0  0  0  0  0  0  0
    3.9643   56.6916    1.5981 C   0  0  0  0  0  0  0  0  0  0  0  0
    5.1139   57.5329    2.1382 C   0  0  0  0  0  0  0  0  0  0  0  0
    5.8838   56.7418    3.0397 O   0  0  0  0  0  0  0  0  0  0  0  0
    6.2512   55.9785    2.5673 H   0  0  0  0  0  0  0  0  0  0  0  0
 26 25  1  0
 26 27  1  0
 26  1  1  0
  1  2  2  0
  2  3  1  0
  3  4  2  0
  4  5  1  0
  5  6  2  0
  6  7  1  0
  7  8  1  0
  8  9  1  0
  8 10  2  0
 10 11  1  0
 11 12  2  0
 12 13  1  0
 15 13  1  0
 15 16  1  0
 16 17  1  0
 17 18  1  0
 18 21  1  0
 21 22  1  0
 22 23  1  0
 23 24  3  0
 18 19  1  0
 19 20  1  0
 13  1  1  0
 20 15  1  0
 12  3  1  0
 11  6  1  0
 27 28  1  0
  7 14  1  0
M  END
> <minimizedAffinity>
-7.22874

> <CNNscore>
0.3154342473

> <CNNaffinity>
6.9894104004

> <CNN_VS>
2.2046995163

> <CNNaffinity_variance>
0.0600071587

$$$$



 28 31  0  0  0  0  0  0  0  0999 V2000
    9.0789   54.4251    0.6335 C   0  0  0  0  0  0  0  0  0  0  0  0
    8.2571   53.4303    0.9446 N   0  0  0  0  0  0  0  0  0  0  0  0
    7.0408   54.0072    1.1787 C   0  0  0  0  0  0  0  0  0  0  0  0
    5.8108   53.4647    1.5935 C   0  0  0  0  0  0  0  0  0  0  0  0
    4.6997   54.2334    1.8168 N   0  0  0  0  0  0  0  0  0  0  0  0
    4.8801   55.5520    1.6316 C   0  0  0  0  0  0  0  0  0  0  0  0
    3.9625   56.5462    1.8192 N   0  0  0  0  0  0  0  0  0  0  0  0
    4.5562   57.7572    1.5676 C   0  0  0  0  0  0  0  0  0  0  0  0
    3.6899   59.4398    1.7287 Br  0  0  0  0  0  0  0  0  0  0  0  0
    5.8722   57.5614    1.1963 C   0  0  0  0  0  0  0  0  0  0  0  0
    6.0484   56.1562    1.2206 C   0  0  0  0  0  0  0  0  0  0  0  0
    7.1322   55.3683    0.9664 C   0  0  0  0  0  0  0  0  0  0  0  0
    8.3801   55.6257    0.5050 N   0  0  0  0  0  0  0  0  0  0  0  0
    3.0255   56.4149    2.0913 H   0  0  0  0  0  0  0  0  0  0  0  0
    8.8603   56.8696   -0.0892 C   0  0  0  0  0  0  0  0  0  0  0  0
   10.1442   56.6742   -0.9030 C   0  0  0  0  0  0  0  0  0  0  0  0
   10.7007   58.0073   -1.4064 C   0  0  0  0  0  0  0  0  0  0  0  0
    9.6527   58.8201   -2.1843 C   0  0  0  0  0  0  0  0  0  0  0  0
    8.3835   59.0160   -1.3339 C   0  0  0  0  0  0  0  0  0  0  0  0
    7.8049   57.6829   -0.8581 C   0  0  0  0  0  0  0  0  0  0  0  0
   10.1875   60.1986   -2.6331 C   0  0  0  0  0  0  0  0  0  0  0  0
   11.2179   60.1737   -3.7662 C   0  0  0  0  0  0  0  0  0  0  0  0
   12.5980   60.1363   -3.2662 C   0  0  0  0  0  0  0  0  0  0  0  0
   13.6891   60.1177   -2.8726 N   0  0  0  0  0  0  0  0  0  0  0  0
   11.2166   53.5652    1.6172 C   0  0  0  0  0  0  0  0  0  0  0  0
   10.5491   54.2267    0.4181 C   0  0  0  0  0  0  0  0  0  0  0  0
   10.6772   53.3710   -0.7144 O   0  0  0  0  0  0  0  0  0  0  0  0
   10.2313   52.5284   -0.5351 H   0  0  0  0  0  0  0  0  0  0  0  0
 26 25  1  0
 26 27  1  0
 26  1  1  0
  1  2  2  0
  2  3  1  0
  3  4  2  0
  4  5  1  0
  5  6  2  0
  6  7  1  0
  7  8  1  0
  8  9  1  0
  8 10  2  0
 10 11  1  0
 11 12  2  0
 12 13  1  0
 15 13  1  0
 15 16  1  0
 16 17  1  0
 17 18  1  0
 18 21  1  0
 21 22  1  0
 22 23  1  0
 23 24  3  0
 18 19  1  0
 19 20  1  0
 13  1  1  0
 20 15  1  0
 12  3  1  0
 11  6  1  0
 27 28  1  0
  7 14  1  0
M  END
> <minimizedAffinity>
-8.50814

> <CNNscore>
0.2883293331

> <CNNaffinity>
5.9486045837

> <CNN_VS>
1.7151571512

> <CNNaffinity_variance>
0.8246166706

$$$$



 28 31  0  0  0  0  0  0  0  0999 V2000
    9.4669   54.7375    0.0542 C   0  0  0  0  0  0  0  0  0  0  0  0
    8.4354   53.9659    0.3742 N   0  0  0  0  0  0  0  0  0  0  0  0
    7.3584   54.8008    0.4735 C   0  0  0  0  0  0  0  0  0  0  0  0
    6.0190   54.5637    0.8329 C   0  0  0  0  0  0  0  0  0  0  0  0
    5.0861   55.5627    0.9156 N   0  0  0  0  0  0  0  0  0  0  0  0
    5.5536   56.7939    0.6492 C   0  0  0  0  0  0  0  0  0  0  0  0
    4.8596   57.9694    0.6944 N   0  0  0  0  0  0  0  0  0  0  0  0
    5.7112   59.0042    0.4008 C   0  0  0  0  0  0  0  0  0  0  0  0
    5.2153   60.8375    0.3735 Br  0  0  0  0  0  0  0  0  0  0  0  0
    6.9746   58.5080    0.1447 C   0  0  0  0  0  0  0  0  0  0  0  0
    6.8458   57.1044    0.2843 C   0  0  0  0  0  0  0  0  0  0  0  0
    7.7497   56.0896    0.1703 C   0  0  0  0  0  0  0  0  0  0  0  0
    9.0486   56.0412   -0.2134 N   0  0  0  0  0  0  0  0  0  0  0  0
    3.9019   58.0596    0.9041 H   0  0  0  0  0  0  0  0  0  0  0  0
    9.8164   57.1019   -0.8587 C   0  0  0  0  0  0  0  0  0  0  0  0
   10.8835   56.5562   -1.8139 C   0  0  0  0  0  0  0  0  0  0  0  0
   11.7606   57.6757   -2.3778 C   0  0  0  0  0  0  0  0  0  0  0  0
   10.9310   58.7935   -3.0307 C   0  0  0  0  0  0  0  0  0  0  0  0
    9.8820   59.3339   -2.0408 C   0  0  0  0  0  0  0  0  0  0  0  0
    8.9811   58.2221   -1.5019 C   0  0  0  0  0  0  0  0  0  0  0  0
   11.8073   59.9608   -3.5378 C   0  0  0  0  0  0  0  0  0  0  0  0
   13.2148   60.0427   -2.9388 C   0  0  0  0  0  0  0  0  0  0  0  0
   14.2297   60.3902   -3.9415 C   0  0  0  0  0  0  0  0  0  0  0  0
   15.0273   60.6572   -4.7405 N   0  0  0  0  0  0  0  0  0  0  0  0
   11.3527   53.6472    1.2919 C   0  0  0  0  0  0  0  0  0  0  0  0
   10.8711   54.2203   -0.0350 C   0  0  0  0  0  0  0  0  0  0  0  0
   10.8551   53.1812   -1.0103 O   0  0  0  0  0  0  0  0  0  0  0  0
   10.2410   52.4845   -0.7304 H   0  0  0  0  0  0  0  0  0  0  0  0
 26 25  1  0
 26 27  1  0
 26  1  1  0
  1  2  2  0
  2  3  1  0
  3  4  2  0
  4  5  1  0
  5  6  2  0
  6  7  1  0
  7  8  1  0
  8  9  1  0
  8 10  2  0
 10 11  1  0
 11 12  2  0
 12 13  1  0
 15 13  1  0
 15 16  1  0
 16 17  1  0
 17 18  1  0
 18 21  1  0
 21 22  1  0
 22 23  1  0
 23 24  3  0
 18 19  1  0
 19 20  1  0
 13  1  1  0
 20 15  1  0
 12  3  1  0
 11  6  1  0
 27 28  1  0
  7 14  1  0
M  END
> <minimizedAffinity>
-7.73041

> <CNNscore>
0.2863409519

> <CNNaffinity>
5.9096636772

> <CNN_VS>
1.6921787262

> <CNNaffinity_variance>
0.6269824505

$$$$



 28 31  0  0  0  0  0  0  0  0999 V2000
    8.8526   45.5506    3.3297 C   0  0  0  0  0  0  0  0  0  0  0  0
    8.8508   44.8877    4.4796 N   0  0  0  0  0  0  0  0  0  0  0  0
   10.0900   45.0759    5.0236 C   0  0  0  0  0  0  0  0  0  0  0  0
   10.6837   44.5769    6.1973 C   0  0  0  0  0  0  0  0  0  0  0  0
   11.9776   44.8550    6.5491 N   0  0  0  0  0  0  0  0  0  0  0  0
   12.6467   45.6242    5.6739 C   0  0  0  0  0  0  0  0  0  0  0  0
   13.9512   46.0215    5.7513 N   0  0  0  0  0  0  0  0  0  0  0  0
   14.2626   46.7572    4.6359 C   0  0  0  0  0  0  0  0  0  0  0  0
   15.9731   47.4989    4.2732 Br  0  0  0  0  0  0  0  0  0  0  0  0
   13.1513   46.8599    3.8218 C   0  0  0  0  0  0  0  0  0  0  0  0
   12.1336   46.1553    4.5104 C   0  0  0  0  0  0  0  0  0  0  0  0
   10.8313   45.8978    4.1982 C   0  0  0  0  0  0  0  0  0  0  0  0
   10.0204   46.3007    3.1899 N   0  0  0  0  0  0  0  0  0  0  0  0
   14.5689   45.8133    6.4891 H   0  0  0  0  0  0  0  0  0  0  0  0
   10.2792   47.3630    2.2226 C   0  0  0  0  0  0  0  0  0  0  0  0
   10.6001   46.8198    0.8260 C   0  0  0  0  0  0  0  0  0  0  0  0
   10.9953   47.9405   -0.1375 C   0  0  0  0  0  0  0  0  0  0  0  0
    9.9439   49.0611   -0.1910 C   0  0  0  0  0  0  0  0  0  0  0  0
    9.6577   49.5990    1.2237 C   0  0  0  0  0  0  0  0  0  0  0  0
    9.2287   48.4860    2.1805 C   0  0  0  0  0  0  0  0  0  0  0  0
   10.3713   50.2295   -1.1074 C   0  0  0  0  0  0  0  0  0  0  0  0
   11.0070   51.4298   -0.3993 C   0  0  0  0  0  0  0  0  0  0  0  0
   11.6606   52.3507   -1.3379 C   0  0  0  0  0  0  0  0  0  0  0  0
   12.1843   53.0703   -2.0820 N   0  0  0  0  0  0  0  0  0  0  0  0
    7.3058   44.0692    2.0296 C   0  0  0  0  0  0  0  0  0  0  0  0
    7.7090   45.5004    2.3617 C   0  0  0  0  0  0  0  0  0  0  0  0
    6.6146   46.1544    2.9988 O   0  0  0  0  0  0  0  0  0  0  0  0
    6.3976   45.6924    3.8236 H   0  0  0  0  0  0  0  0  0  0  0  0
 26 25  1  0
 26 27  1  0
 26  1  1  0
  1  2  2  0
  2  3  1  0
  3  4  2  0
  4  5  1  0
  5  6  2  0
  6  7  1  0
  7  8  1  0
  8  9  1  0
  8 10  2  0
 10 11  1  0
 11 12  2  0
 12 13  1  0
 15 13  1  0
 15 16  1  0
 16 17  1  0
 17 18  1  0
 18 21  1  0
 21 22  1  0
 22 23  1  0
 23 24  3  0
 18 19  1  0
 19 20  1  0
 13  1  1  0
 20 15  1  0
 12  3  1  0
 11  6  1  0
 27 28  1  0
  7 14  1  0
M  END
> <minimizedAffinity>
-4.27748

> <CNNscore>
0.2257442176

> <CNNaffinity>
4.3912425041

> <CNN_VS>
0.9912976027

> <CNNaffinity_variance>
0.4885925949

$$$$
