


 20 20  0  0  0  0  0  0  0  0999 V2000
   36.7461   42.2760   -2.1087 C   0  0  0  0  0  0  0  0  0  0  0  0
   36.2204   42.3255   -4.5393 C   0  0  0  0  0  0  0  0  0  0  0  0
   37.3618   42.6644   -4.8344 O   0  0  0  0  0  0  0  0  0  0  0  0
   35.7997   42.1675   -3.2315 N   0  0  0  0  0  0  0  0  0  0  0  0
   34.8509   41.9791   -3.0479 H   0  0  0  0  0  0  0  0  0  0  0  0
   35.1621   42.0061   -5.5589 C   0  0  0  0  0  0  0  0  0  0  0  0
   35.4359   41.5023   -7.9123 O   0  0  0  0  0  0  0  0  0  0  0  0
   35.6004   42.2537   -6.9645 C   0  0  0  0  0  0  0  0  0  0  0  0
   36.1560   43.4681   -7.1433 O   0  0  0  0  0  0  0  0  0  0  0  0
   36.2790   44.0394   -6.4109 H   0  0  0  0  0  0  0  0  0  0  0  0
   36.4012   43.4980   -1.2259 C   0  0  0  0  0  0  0  0  0  0  0  0
   37.6566   44.8166   -1.2980 S   0  0  0  0  0  0  0  0  0  0  0  0
   38.8422   44.3398   -0.8326 H   0  0  0  0  0  0  0  0  0  0  0  0
   36.7492   40.9705   -1.2733 C   0  0  0  0  0  0  0  0  0  0  0  0
   37.7488   39.9387   -1.7533 C   0  0  0  0  0  0  0  0  0  0  0  0
   37.8029   38.6724   -1.1534 C   0  0  0  0  0  0  0  0  0  0  0  0
   38.7153   37.7155   -1.6007 C   0  0  0  0  0  0  0  0  0  0  0  0
   39.5854   38.0157   -2.6466 C   0  0  0  0  0  0  0  0  0  0  0  0
   39.5483   39.2746   -3.2423 C   0  0  0  0  0  0  0  0  0  0  0  0
   38.6375   40.2334   -2.7963 C   0  0  0  0  0  0  0  0  0  0  0  0
  7  8  2  0
  8  9  1  0
  8  6  1  0
  6  2  1  0
  2  3  2  0
  2  4  1  0
  4  1  1  0
  1 11  1  0
 11 12  1  0
  1 14  1  0
 14 15  1  0
 15 16  2  0
 16 17  1  0
 17 18  2  0
 18 19  1  0
 19 20  2  0
 20 15  1  0
  9 10  1  0
  4  5  1  0
 12 13  1  0
M  END
> <minimizedAffinity>
-6.24037

> <CNNscore>
0.9465630651

> <CNNaffinity>
5.8015251160

> <CNN_VS>
5.4915094376

> <CNNaffinity_variance>
0.0037488441

$$$$



 20 20  0  0  0  0  0  0  0  0999 V2000
   36.7035   41.3547   -4.4049 C   0  0  0  0  0  0  0  0  0  0  0  0
   38.7174   39.9963   -3.8701 C   0  0  0  0  0  0  0  0  0  0  0  0
   39.3426   40.9775   -3.4815 O   0  0  0  0  0  0  0  0  0  0  0  0
   37.4416   40.0806   -4.3973 N   0  0  0  0  0  0  0  0  0  0  0  0
   37.0196   39.2748   -4.7740 H   0  0  0  0  0  0  0  0  0  0  0  0
   39.2453   38.5908   -3.7836 C   0  0  0  0  0  0  0  0  0  0  0  0
   41.0800   37.7994   -5.1528 O   0  0  0  0  0  0  0  0  0  0  0  0
   39.9106   38.1301   -5.0382 C   0  0  0  0  0  0  0  0  0  0  0  0
   39.0651   38.0248   -6.0819 O   0  0  0  0  0  0  0  0  0  0  0  0
   38.1687   38.2806   -5.9864 H   0  0  0  0  0  0  0  0  0  0  0  0
   35.7148   41.4007   -5.5930 C   0  0  0  0  0  0  0  0  0  0  0  0
   35.8082   42.9491   -6.5490 S   0  0  0  0  0  0  0  0  0  0  0  0
   35.4805   43.9974   -5.7470 H   0  0  0  0  0  0  0  0  0  0  0  0
   35.9639   41.5615   -3.0586 C   0  0  0  0  0  0  0  0  0  0  0  0
   36.6838   42.4875   -2.1003 C   0  0  0  0  0  0  0  0  0  0  0  0
   36.9198   42.0920   -0.7758 C   0  0  0  0  0  0  0  0  0  0  0  0
   37.5928   42.9385    0.1066 C   0  0  0  0  0  0  0  0  0  0  0  0
   38.0312   44.1891   -0.3231 C   0  0  0  0  0  0  0  0  0  0  0  0
   37.7920   44.5972   -1.6336 C   0  0  0  0  0  0  0  0  0  0  0  0
   37.1186   43.7530   -2.5177 C   0  0  0  0  0  0  0  0  0  0  0  0
  7  8  2  0
  8  9  1  0
  8  6  1  0
  6  2  1  0
  2  3  2  0
  2  4  1  0
  4  1  1  0
  1 11  1  0
 11 12  1  0
  1 14  1  0
 14 15  1  0
 15 16  2  0
 16 17  1  0
 17 18  2  0
 18 19  1  0
 19 20  2  0
 20 15  1  0
  9 10  1  0
  4  5  1  0
 12 13  1  0
M  END
> <minimizedAffinity>
-5.15924

> <CNNscore>
0.8292635679

> <CNNaffinity>
5.9856238365

> <CNN_VS>
4.9636597633

> <CNNaffinity_variance>
0.4644642174

$$$$



 20 20  0  0  0  0  0  0  0  0999 V2000
   37.0771   41.7307   -4.0049 C   0  0  0  0  0  0  0  0  0  0  0  0
   38.0221   39.4313   -4.0850 C   0  0  0  0  0  0  0  0  0  0  0  0
   37.4313   39.1665   -5.1269 O   0  0  0  0  0  0  0  0  0  0  0  0
   37.8703   40.6355   -3.4221 N   0  0  0  0  0  0  0  0  0  0  0  0
   38.2999   40.7627   -2.5455 H   0  0  0  0  0  0  0  0  0  0  0  0
   39.0046   38.4994   -3.4308 C   0  0  0  0  0  0  0  0  0  0  0  0
   39.3762   37.7084   -1.1717 O   0  0  0  0  0  0  0  0  0  0  0  0
   38.6211   38.1165   -2.0396 C   0  0  0  0  0  0  0  0  0  0  0  0
   37.3203   38.3364   -1.7659 O   0  0  0  0  0  0  0  0  0  0  0  0
   36.7467   38.6498   -2.4373 H   0  0  0  0  0  0  0  0  0  0  0  0
   36.2533   41.2209   -5.2101 C   0  0  0  0  0  0  0  0  0  0  0  0
   35.5388   42.5630   -6.2143 S   0  0  0  0  0  0  0  0  0  0  0  0
   34.6787   43.2906   -5.4525 H   0  0  0  0  0  0  0  0  0  0  0  0
   36.1565   42.3649   -2.9313 C   0  0  0  0  0  0  0  0  0  0  0  0
   36.8450   42.6176   -1.6060 C   0  0  0  0  0  0  0  0  0  0  0  0
   36.5416   41.8274   -0.4881 C   0  0  0  0  0  0  0  0  0  0  0  0
   37.1824   42.0505    0.7316 C   0  0  0  0  0  0  0  0  0  0  0  0
   38.1274   43.0676    0.8480 C   0  0  0  0  0  0  0  0  0  0  0  0
   38.4283   43.8664   -0.2531 C   0  0  0  0  0  0  0  0  0  0  0  0
   37.7883   43.6459   -1.4736 C   0  0  0  0  0  0  0  0  0  0  0  0
  7  8  2  0
  8  9  1  0
  8  6  1  0
  6  2  1  0
  2  3  2  0
  2  4  1  0
  4  1  1  0
  1 11  1  0
 11 12  1  0
  1 14  1  0
 14 15  1  0
 15 16  2  0
 16 17  1  0
 17 18  2  0
 18 19  1  0
 19 20  2  0
 20 15  1  0
  9 10  1  0
  4  5  1  0
 12 13  1  0
M  END
> <minimizedAffinity>
-5.62966

> <CNNscore>
0.7804841995

> <CNNaffinity>
5.4687485695

> <CNN_VS>
4.2682719231

> <CNNaffinity_variance>
0.2216234207

$$$$



 20 20  0  0  0  0  0  0  0  0999 V2000
   33.4363   42.5462   -9.8427 C   0  0  0  0  0  0  0  0  0  0  0  0
   34.3358   41.4158   -7.8179 C   0  0  0  0  0  0  0  0  0  0  0  0
   33.3492   40.6940   -7.7164 O   0  0  0  0  0  0  0  0  0  0  0  0
   34.4510   42.3964   -8.7863 N   0  0  0  0  0  0  0  0  0  0  0  0
   35.2248   43.0047   -8.7690 H   0  0  0  0  0  0  0  0  0  0  0  0
   35.5448   41.2945   -6.9318 C   0  0  0  0  0  0  0  0  0  0  0  0
   35.3876   42.8488   -5.0807 O   0  0  0  0  0  0  0  0  0  0  0  0
   35.8472   42.5417   -6.1690 C   0  0  0  0  0  0  0  0  0  0  0  0
   36.7754   43.3174   -6.7625 O   0  0  0  0  0  0  0  0  0  0  0  0
   37.1237   43.0752   -7.5979 H   0  0  0  0  0  0  0  0  0  0  0  0
   33.5709   43.9242  -10.5313 C   0  0  0  0  0  0  0  0  0  0  0  0
   32.2352   44.2686  -11.7219 S   0  0  0  0  0  0  0  0  0  0  0  0
   32.2682   43.3454  -12.7199 H   0  0  0  0  0  0  0  0  0  0  0  0
   33.5535   41.3958  -10.8748 C   0  0  0  0  0  0  0  0  0  0  0  0
   32.2527   40.6605  -11.1227 C   0  0  0  0  0  0  0  0  0  0  0  0
   31.1687   40.8247  -10.2485 C   0  0  0  0  0  0  0  0  0  0  0  0
   29.9649   40.1572  -10.4802 C   0  0  0  0  0  0  0  0  0  0  0  0
   29.8342   39.3159  -11.5829 C   0  0  0  0  0  0  0  0  0  0  0  0
   30.9085   39.1363  -12.4517 C   0  0  0  0  0  0  0  0  0  0  0  0
   32.1134   39.8019  -12.2218 C   0  0  0  0  0  0  0  0  0  0  0  0
  7  8  2  0
  8  9  1  0
  8  6  1  0
  6  2  1  0
  2  3  2  0
  2  4  1  0
  4  1  1  0
  1 11  1  0
 11 12  1  0
  1 14  1  0
 14 15  1  0
 15 16  2  0
 16 17  1  0
 17 18  2  0
 18 19  1  0
 19 20  2  0
 20 15  1  0
  9 10  1  0
  4  5  1  0
 12 13  1  0
M  END
> <minimizedAffinity>
-5.28321

> <CNNscore>
0.7080195546

> <CNNaffinity>
4.7000660896

> <CNN_VS>
3.3277387619

> <CNNaffinity_variance>
0.2314261198

$$$$



 20 20  0  0  0  0  0  0  0  0999 V2000
   33.5714   41.9661  -10.1836 C   0  0  0  0  0  0  0  0  0  0  0  0
   34.2138   42.2326   -7.7955 C   0  0  0  0  0  0  0  0  0  0  0  0
   33.4052   43.1388   -7.6230 O   0  0  0  0  0  0  0  0  0  0  0  0
   34.4164   41.6324   -9.0249 N   0  0  0  0  0  0  0  0  0  0  0  0
   35.1381   40.9706   -9.1270 H   0  0  0  0  0  0  0  0  0  0  0  0
   35.0465   41.6447   -6.6898 C   0  0  0  0  0  0  0  0  0  0  0  0
   35.8406   42.8799   -4.7635 O   0  0  0  0  0  0  0  0  0  0  0  0
   35.8671   42.6586   -5.9636 C   0  0  0  0  0  0  0  0  0  0  0  0
   36.7469   43.2998   -6.7576 O   0  0  0  0  0  0  0  0  0  0  0  0
   36.7613   43.1247   -7.6780 H   0  0  0  0  0  0  0  0  0  0  0  0
   32.1400   41.4148   -9.9866 C   0  0  0  0  0  0  0  0  0  0  0  0
   32.1008   39.6375   -9.5869 S   0  0  0  0  0  0  0  0  0  0  0  0
   32.6375   38.9293  -10.6164 H   0  0  0  0  0  0  0  0  0  0  0  0
   33.5493   43.4983  -10.4160 C   0  0  0  0  0  0  0  0  0  0  0  0
   33.3725   43.8952  -11.8670 C   0  0  0  0  0  0  0  0  0  0  0  0
   33.5668   45.2253  -12.2662 C   0  0  0  0  0  0  0  0  0  0  0  0
   33.4156   45.5921  -13.6043 C   0  0  0  0  0  0  0  0  0  0  0  0
   33.0637   44.6362  -14.5548 C   0  0  0  0  0  0  0  0  0  0  0  0
   32.8569   43.3140  -14.1676 C   0  0  0  0  0  0  0  0  0  0  0  0
   33.0066   42.9448  -12.8300 C   0  0  0  0  0  0  0  0  0  0  0  0
  7  8  2  0
  8  9  1  0
  8  6  1  0
  6  2  1  0
  2  3  2  0
  2  4  1  0
  4  1  1  0
  1 11  1  0
 11 12  1  0
  1 14  1  0
 14 15  1  0
 15 16  2  0
 16 17  1  0
 17 18  2  0
 18 19  1  0
 19 20  2  0
 20 15  1  0
  9 10  1  0
  4  5  1  0
 12 13  1  0
M  END
> <minimizedAffinity>
-6.99204

> <CNNscore>
0.5547209978

> <CNNaffinity>
4.9333567619

> <CNN_VS>
2.7366366386

> <CNNaffinity_variance>
0.0069669164

$$$$



 20 20  0  0  0  0  0  0  0  0999 V2000
   37.0884   42.2489   -3.4548 C   0  0  0  0  0  0  0  0  0  0  0  0
   35.5380   41.8976   -5.3679 C   0  0  0  0  0  0  0  0  0  0  0  0
   35.3274   43.1000   -5.4881 O   0  0  0  0  0  0  0  0  0  0  0  0
   36.3355   41.3724   -4.3675 N   0  0  0  0  0  0  0  0  0  0  0  0
   36.4011   40.3955   -4.2638 H   0  0  0  0  0  0  0  0  0  0  0  0
   34.9893   40.8628   -6.3111 C   0  0  0  0  0  0  0  0  0  0  0  0
   35.1736   42.3309   -8.2288 O   0  0  0  0  0  0  0  0  0  0  0  0
   34.6121   41.4180   -7.6447 C   0  0  0  0  0  0  0  0  0  0  0  0
   33.5960   40.7545   -8.2301 O   0  0  0  0  0  0  0  0  0  0  0  0
   33.1698   40.0548   -7.7754 H   0  0  0  0  0  0  0  0  0  0  0  0
   36.2425   42.5829   -2.2041 C   0  0  0  0  0  0  0  0  0  0  0  0
   36.5949   44.2324   -1.5149 S   0  0  0  0  0  0  0  0  0  0  0  0
   37.8938   44.2888   -1.1158 H   0  0  0  0  0  0  0  0  0  0  0  0
   38.4334   41.5900   -3.0559 C   0  0  0  0  0  0  0  0  0  0  0  0
   38.3247   40.1095   -2.7555 C   0  0  0  0  0  0  0  0  0  0  0  0
   38.7185   39.1621   -3.7114 C   0  0  0  0  0  0  0  0  0  0  0  0
   38.6301   37.7971   -3.4336 C   0  0  0  0  0  0  0  0  0  0  0  0
   38.1427   37.3655   -2.2018 C   0  0  0  0  0  0  0  0  0  0  0  0
   37.7377   38.2978   -1.2490 C   0  0  0  0  0  0  0  0  0  0  0  0
   37.8244   39.6632   -1.5246 C   0  0  0  0  0  0  0  0  0  0  0  0
  7  8  2  0
  8  9  1  0
  8  6  1  0
  6  2  1  0
  2  3  2  0
  2  4  1  0
  4  1  1  0
  1 11  1  0
 11 12  1  0
  1 14  1  0
 14 15  1  0
 15 16  2  0
 16 17  1  0
 17 18  2  0
 18 19  1  0
 19 20  2  0
 20 15  1  0
  9 10  1  0
  4  5  1  0
 12 13  1  0
M  END
> <minimizedAffinity>
-5.43496

> <CNNscore>
0.5456010699

> <CNNaffinity>
5.7310981750

> <CNN_VS>
3.1268932819

> <CNNaffinity_variance>
0.2623717487

$$$$



 20 20  0  0  0  0  0  0  0  0999 V2000
   32.9769   43.4964  -10.7068 C   0  0  0  0  0  0  0  0  0  0  0  0
   33.5216   42.4926   -8.4972 C   0  0  0  0  0  0  0  0  0  0  0  0
   33.2832   41.3566   -8.8938 O   0  0  0  0  0  0  0  0  0  0  0  0
   33.3453   43.6147   -9.2862 N   0  0  0  0  0  0  0  0  0  0  0  0
   33.4683   44.5080   -8.8911 H   0  0  0  0  0  0  0  0  0  0  0  0
   34.0672   42.7941   -7.1286 C   0  0  0  0  0  0  0  0  0  0  0  0
   35.7739   41.1349   -6.6795 O   0  0  0  0  0  0  0  0  0  0  0  0
   35.4566   42.2886   -6.9207 C   0  0  0  0  0  0  0  0  0  0  0  0
   36.4000   43.2332   -7.1028 O   0  0  0  0  0  0  0  0  0  0  0  0
   36.1488   44.1168   -7.2876 H   0  0  0  0  0  0  0  0  0  0  0  0
   33.6196   44.6369  -11.5298 C   0  0  0  0  0  0  0  0  0  0  0  0
   32.3973   45.7424  -12.3069 S   0  0  0  0  0  0  0  0  0  0  0  0
   31.6349   45.0322  -13.1810 H   0  0  0  0  0  0  0  0  0  0  0  0
   33.3914   42.1096  -11.2613 C   0  0  0  0  0  0  0  0  0  0  0  0
   32.4554   41.5697  -12.3227 C   0  0  0  0  0  0  0  0  0  0  0  0
   32.8462   41.5522  -13.6693 C   0  0  0  0  0  0  0  0  0  0  0  0
   31.9904   41.0451  -14.6483 C   0  0  0  0  0  0  0  0  0  0  0  0
   30.7350   40.5562  -14.2931 C   0  0  0  0  0  0  0  0  0  0  0  0
   30.3317   40.5793  -12.9597 C   0  0  0  0  0  0  0  0  0  0  0  0
   31.1853   41.0867  -11.9790 C   0  0  0  0  0  0  0  0  0  0  0  0
  7  8  2  0
  8  9  1  0
  8  6  1  0
  6  2  1  0
  2  3  2  0
  2  4  1  0
  4  1  1  0
  1 11  1  0
 11 12  1  0
  1 14  1  0
 14 15  1  0
 15 16  2  0
 16 17  1  0
 17 18  2  0
 18 19  1  0
 19 20  2  0
 20 15  1  0
  9 10  1  0
  4  5  1  0
 12 13  1  0
M  END
> <minimizedAffinity>
-5.22703

> <CNNscore>
0.4969109595

> <CNNaffinity>
4.6513581276

> <CNN_VS>
2.3113107681

> <CNNaffinity_variance>
0.2100871354

$$$$



 20 20  0  0  0  0  0  0  0  0999 V2000
   33.3395   42.0154   -9.5050 C   0  0  0  0  0  0  0  0  0  0  0  0
   34.8923   41.1379   -7.7714 C   0  0  0  0  0  0  0  0  0  0  0  0
   35.5580   40.5258   -8.6002 O   0  0  0  0  0  0  0  0  0  0  0  0
   33.7524   41.8480   -8.1016 N   0  0  0  0  0  0  0  0  0  0  0  0
   33.2076   42.2484   -7.3860 H   0  0  0  0  0  0  0  0  0  0  0  0
   35.2565   41.2202   -6.3146 C   0  0  0  0  0  0  0  0  0  0  0  0
   35.7320   43.0502   -4.8006 O   0  0  0  0  0  0  0  0  0  0  0  0
   35.7958   42.5534   -5.9137 C   0  0  0  0  0  0  0  0  0  0  0  0
   36.4646   43.1771   -6.9032 O   0  0  0  0  0  0  0  0  0  0  0  0
   36.5092   42.7896   -7.7552 H   0  0  0  0  0  0  0  0  0  0  0  0
   32.0203   41.2553   -9.7758 C   0  0  0  0  0  0  0  0  0  0  0  0
   32.1114   39.4832   -9.3613 S   0  0  0  0  0  0  0  0  0  0  0  0
   33.0555   38.8845  -10.1358 H   0  0  0  0  0  0  0  0  0  0  0  0
   33.1954   43.5190   -9.8526 C   0  0  0  0  0  0  0  0  0  0  0  0
   33.1991   43.8068  -11.3397 C   0  0  0  0  0  0  0  0  0  0  0  0
   32.9325   42.7829  -12.2600 C   0  0  0  0  0  0  0  0  0  0  0  0
   32.9241   43.0473  -13.6304 C   0  0  0  0  0  0  0  0  0  0  0  0
   33.1872   44.3342  -14.0949 C   0  0  0  0  0  0  0  0  0  0  0  0
   33.4647   45.3567  -13.1901 C   0  0  0  0  0  0  0  0  0  0  0  0
   33.4745   45.0948  -11.8193 C   0  0  0  0  0  0  0  0  0  0  0  0
  7  8  2  0
  8  9  1  0
  8  6  1  0
  6  2  1  0
  2  3  2  0
  2  4  1  0
  4  1  1  0
  1 11  1  0
 11 12  1  0
  1 14  1  0
 14 15  1  0
 15 16  2  0
 16 17  1  0
 17 18  2  0
 18 19  1  0
 19 20  2  0
 20 15  1  0
  9 10  1  0
  4  5  1  0
 12 13  1  0
M  END
> <minimizedAffinity>
-6.75729

> <CNNscore>
0.4711773098

> <CNNaffinity>
5.0803751945

> <CNN_VS>
2.3937575817

> <CNNaffinity_variance>
0.0047855130

$$$$



 20 20  0  0  0  0  0  0  0  0999 V2000
   35.3702   40.3770   -7.7097 C   0  0  0  0  0  0  0  0  0  0  0  0
   36.0852   42.0570   -6.0206 C   0  0  0  0  0  0  0  0  0  0  0  0
   36.1919   42.9404   -6.8650 O   0  0  0  0  0  0  0  0  0  0  0  0
   35.7482   40.7537   -6.3374 N   0  0  0  0  0  0  0  0  0  0  0  0
   35.7614   40.0658   -5.6332 H   0  0  0  0  0  0  0  0  0  0  0  0
   36.2685   42.2942   -4.5469 C   0  0  0  0  0  0  0  0  0  0  0  0
   38.2352   42.2081   -3.1355 O   0  0  0  0  0  0  0  0  0  0  0  0
   37.6849   42.5695   -4.1634 C   0  0  0  0  0  0  0  0  0  0  0  0
   38.3793   43.2176   -5.1189 O   0  0  0  0  0  0  0  0  0  0  0  0
   37.9501   43.4920   -5.9053 H   0  0  0  0  0  0  0  0  0  0  0  0
   35.6069   38.8665   -7.9414 C   0  0  0  0  0  0  0  0  0  0  0  0
   36.0229   38.4585   -9.6678 S   0  0  0  0  0  0  0  0  0  0  0  0
   34.9867   38.8047  -10.4777 H   0  0  0  0  0  0  0  0  0  0  0  0
   33.8940   40.7572   -7.9898 C   0  0  0  0  0  0  0  0  0  0  0  0
   33.7040   41.5997   -9.2340 C   0  0  0  0  0  0  0  0  0  0  0  0
   33.8861   42.9892   -9.1833 C   0  0  0  0  0  0  0  0  0  0  0  0
   33.7228   43.7670  -10.3306 C   0  0  0  0  0  0  0  0  0  0  0  0
   33.3707   43.1661  -11.5372 C   0  0  0  0  0  0  0  0  0  0  0  0
   33.1759   41.7878  -11.5967 C   0  0  0  0  0  0  0  0  0  0  0  0
   33.3378   41.0079  -10.4507 C   0  0  0  0  0  0  0  0  0  0  0  0
  7  8  2  0
  8  9  1  0
  8  6  1  0
  6  2  1  0
  2  3  2  0
  2  4  1  0
  4  1  1  0
  1 11  1  0
 11 12  1  0
  1 14  1  0
 14 15  1  0
 15 16  2  0
 16 17  1  0
 17 18  2  0
 18 19  1  0
 19 20  2  0
 20 15  1  0
  9 10  1  0
  4  5  1  0
 12 13  1  0
M  END
> <minimizedAffinity>
-6.34341

> <CNNscore>
0.4645473361

> <CNNaffinity>
5.4772238731

> <CNN_VS>
2.5444297791

> <CNNaffinity_variance>
0.0386960395

$$$$
