


 39 43  0  0  0  0  0  0  0  0999 V2000
    4.7221   24.6693   19.1594 C   0  0  0  0  0  0  0  0  0  0  0  0
    4.3329   24.3498   20.4544 C   0  0  0  0  0  0  0  0  0  0  0  0
    2.9997   24.0732   20.6830 C   0  0  0  0  0  0  0  0  0  0  0  0
    2.0883   24.1319   19.6840 N   0  0  0  0  0  0  0  0  0  0  0  0
    2.4651   24.4722   18.4362 C   0  0  0  0  0  0  0  0  0  0  0  0
    3.7879   24.7425   18.1345 C   0  0  0  0  0  0  0  0  0  0  0  0
    6.5964   25.0023   17.3839 O   0  0  0  0  0  0  0  0  0  0  0  0
    6.4249   25.0065   18.8252 S   0  0  0  0  0  0  0  0  0  0  0  0
    7.2158   24.1098   19.6507 O   0  0  0  0  0  0  0  0  0  0  0  0
    6.7271   26.6603   19.4032 C   0  0  0  0  0  0  0  0  0  0  0  0
    6.5607   26.9594   20.7589 C   0  0  0  0  0  0  0  0  0  0  0  0
    6.8076   28.2562   21.2092 C   0  0  0  0  0  0  0  0  0  0  0  0
    7.2248   29.2404   20.3111 C   0  0  0  0  0  0  0  0  0  0  0  0
    7.4027   28.9318   18.9608 C   0  0  0  0  0  0  0  0  0  0  0  0
    7.1589   27.6377   18.5016 C   0  0  0  0  0  0  0  0  0  0  0  0
    2.4747   23.7133   21.9226 N   0  0  0  0  0  0  0  0  0  0  0  0
    3.1394   23.7183   22.6488 H   0  0  0  0  0  0  0  0  0  0  0  0
    1.2387   23.3598   22.3250 C   0  0  0  0  0  0  0  0  0  0  0  0
    0.1571   23.2992   21.4117 C   0  0  0  0  0  0  0  0  0  0  0  0
   -0.9537   22.9324   22.1463 C   0  0  0  0  0  0  0  0  0  0  0  0
   -0.4749   22.7784   23.4200 N   0  0  0  0  0  0  0  0  0  0  0  0
    0.8361   23.0265   23.5525 N   0  0  0  0  0  0  0  0  0  0  0  0
   -1.0456   22.5080   24.1753 H   0  0  0  0  0  0  0  0  0  0  0  0
   -2.3442   22.7066   21.7630 C   0  0  0  0  0  0  0  0  0  0  0  0
   -3.0303   23.6188   20.9481 C   0  0  0  0  0  0  0  0  0  0  0  0
   -4.3622   23.3921   20.5894 C   0  0  0  0  0  0  0  0  0  0  0  0
   -5.0232   22.2519   21.0403 C   0  0  0  0  0  0  0  0  0  0  0  0
   -4.3521   21.3350   21.8457 C   0  0  0  0  0  0  0  0  0  0  0  0
   -3.0197   21.5600   22.2024 C   0  0  0  0  0  0  0  0  0  0  0  0
    1.5303   24.5160   17.3866 N   0  0  0  0  0  0  0  0  0  0  0  0
    1.6522   25.1050   16.6072 H   0  0  0  0  0  0  0  0  0  0  0  0
    0.3600   23.6336   17.5165 C   0  0  0  0  0  0  0  0  0  0  0  0
   -0.8056   24.2659   16.7405 C   0  0  0  0  0  0  0  0  0  0  0  0
   -2.0931   23.4399   16.8312 C   0  0  0  0  0  0  0  0  0  0  0  0
   -1.8433   21.9336   16.9398 C   0  0  0  0  0  0  0  0  0  0  0  0
   -1.8118   21.5561   18.3149 O   0  0  0  0  0  0  0  0  0  0  0  0
   -0.5188   21.5351   16.3013 C   0  0  0  0  0  0  0  0  0  0  0  0
    0.6786   22.2315   16.9589 C   0  0  0  0  0  0  0  0  0  0  0  0
   -1.0861   22.0199   18.7610 H   0  0  0  0  0  0  0  0  0  0  0  0
  7  8  2  0
  8  9  2  0
  8 10  1  0
 10 11  2  0
 11 12  1  0
 12 13  2  0
 13 14  1  0
 14 15  2  0
  8  1  1  0
  1  2  2  0
  2  3  1  0
  3 16  1  0
 16 18  1  0
 18 19  1  0
 19 20  2  0
 20 24  1  0
 24 25  2  0
 25 26  1  0
 26 27  2  0
 27 28  1  0
 28 29  2  0
 20 21  1  0
 21 22  1  0
  3  4  2  0
  4  5  1  0
  5 30  1  0
 32 30  1  0
 32 33  1  0
 33 34  1  0
 34 35  1  0
 35 36  1  0
 35 37  1  0
 37 38  1  0
  5  6  2  0
 15 10  1  0
  6  1  1  0
 22 18  2  0
 38 32  1  0
 29 24  1  0
 16 17  1  0
 21 23  1  0
 30 31  1  0
 36 39  1  0
M  END
> <minimizedAffinity>
-10.31885

> <CNNscore>
0.9826189280

> <CNNaffinity>
8.2688598633

> <CNN_VS>
8.1251382828

> <CNNaffinity_variance>
0.0219456609

$$$$



 39 43  0  0  0  0  0  0  0  0999 V2000
    2.6816   24.2613   18.3202 C   0  0  0  0  0  0  0  0  0  0  0  0
    2.0469   23.9267   19.5102 C   0  0  0  0  0  0  0  0  0  0  0  0
    2.7915   23.9484   20.6726 C   0  0  0  0  0  0  0  0  0  0  0  0
    4.1080   24.2632   20.6583 N   0  0  0  0  0  0  0  0  0  0  0  0
    4.7264   24.5568   19.4981 C   0  0  0  0  0  0  0  0  0  0  0  0
    4.0347   24.5726   18.3000 C   0  0  0  0  0  0  0  0  0  0  0  0
    2.6821   24.0153   15.7288 O   0  0  0  0  0  0  0  0  0  0  0  0
    1.7536   24.2668   16.8157 S   0  0  0  0  0  0  0  0  0  0  0  0
    0.9420   25.4719   16.8099 O   0  0  0  0  0  0  0  0  0  0  0  0
    0.6422   22.8825   16.9117 C   0  0  0  0  0  0  0  0  0  0  0  0
   -0.5222   22.9835   17.6793 C   0  0  0  0  0  0  0  0  0  0  0  0
   -1.3956   21.8980   17.7444 C   0  0  0  0  0  0  0  0  0  0  0  0
   -1.1084   20.7267   17.0408 C   0  0  0  0  0  0  0  0  0  0  0  0
    0.0491   20.6372   16.2647 C   0  0  0  0  0  0  0  0  0  0  0  0
    0.9278   21.7178   16.1931 C   0  0  0  0  0  0  0  0  0  0  0  0
    2.2804   23.6625   21.9369 N   0  0  0  0  0  0  0  0  0  0  0  0
    2.9384   23.7687   22.6614 H   0  0  0  0  0  0  0  0  0  0  0  0
    1.0650   23.2698   22.3651 C   0  0  0  0  0  0  0  0  0  0  0  0
   -0.0388   23.1971   21.4796 C   0  0  0  0  0  0  0  0  0  0  0  0
   -1.1197   22.7886   22.2363 C   0  0  0  0  0  0  0  0  0  0  0  0
   -0.6032   22.6247   23.4939 N   0  0  0  0  0  0  0  0  0  0  0  0
    0.7040   22.9045   23.5965 N   0  0  0  0  0  0  0  0  0  0  0  0
   -1.1464   22.3262   24.2589 H   0  0  0  0  0  0  0  0  0  0  0  0
   -2.5137   22.5333   21.8856 C   0  0  0  0  0  0  0  0  0  0  0  0
   -3.1379   21.3238   22.2237 C   0  0  0  0  0  0  0  0  0  0  0  0
   -4.4728   21.0906   21.8807 C   0  0  0  0  0  0  0  0  0  0  0  0
   -5.1989   22.0628   21.1967 C   0  0  0  0  0  0  0  0  0  0  0  0
   -4.5929   23.2707   20.8596 C   0  0  0  0  0  0  0  0  0  0  0  0
   -3.2591   23.5052   21.2045 C   0  0  0  0  0  0  0  0  0  0  0  0
    6.0885   24.9054   19.4742 N   0  0  0  0  0  0  0  0  0  0  0  0
    6.7616   24.3387   19.0326 H   0  0  0  0  0  0  0  0  0  0  0  0
    6.4530   26.1632   20.1452 C   0  0  0  0  0  0  0  0  0  0  0  0
    7.8452   25.9869   20.7707 C   0  0  0  0  0  0  0  0  0  0  0  0
    8.3167   27.2348   21.5248 C   0  0  0  0  0  0  0  0  0  0  0  0
    7.8004   28.5427   20.9199 C   0  0  0  0  0  0  0  0  0  0  0  0
    6.5906   28.9223   21.5732 O   0  0  0  0  0  0  0  0  0  0  0  0
    7.5180   28.4007   19.4296 C   0  0  0  0  0  0  0  0  0  0  0  0
    6.4615   27.3289   19.1356 C   0  0  0  0  0  0  0  0  0  0  0  0
    5.9197   28.2353   21.4359 H   0  0  0  0  0  0  0  0  0  0  0  0
  7  8  2  0
  8  9  2  0
  8 10  1  0
 10 11  2  0
 11 12  1  0
 12 13  2  0
 13 14  1  0
 14 15  2  0
  8  1  1  0
  1  2  2  0
  2  3  1  0
  3 16  1  0
 16 18  1  0
 18 19  1  0
 19 20  2  0
 20 24  1  0
 24 25  2  0
 25 26  1  0
 26 27  2  0
 27 28  1  0
 28 29  2  0
 20 21  1  0
 21 22  1  0
  3  4  2  0
  4  5  1  0
  5 30  1  0
 32 30  1  0
 32 33  1  0
 33 34  1  0
 34 35  1  0
 35 36  1  0
 35 37  1  0
 37 38  1  0
  5  6  2  0
 15 10  1  0
  6  1  1  0
 22 18  2  0
 38 32  1  0
 29 24  1  0
 16 17  1  0
 21 23  1  0
 30 31  1  0
 36 39  1  0
M  END
> <minimizedAffinity>
-10.04650

> <CNNscore>
0.9815632701

> <CNNaffinity>
7.9234223366

> <CNN_VS>
7.7773404121

> <CNNaffinity_variance>
0.0939325988

$$$$



 39 43  0  0  0  0  0  0  0  0999 V2000
    3.9491   24.3075   18.0100 C   0  0  0  0  0  0  0  0  0  0  0  0
    3.3416   23.7796   19.1427 C   0  0  0  0  0  0  0  0  0  0  0  0
    3.6565   24.3338   20.3674 C   0  0  0  0  0  0  0  0  0  0  0  0
    4.5477   25.3472   20.4720 N   0  0  0  0  0  0  0  0  0  0  0  0
    5.1575   25.8353   19.3744 C   0  0  0  0  0  0  0  0  0  0  0  0
    4.8732   25.3387   18.1148 C   0  0  0  0  0  0  0  0  0  0  0  0
    3.6220   22.1921   16.5287 O   0  0  0  0  0  0  0  0  0  0  0  0
    3.5519   23.6381   16.4229 S   0  0  0  0  0  0  0  0  0  0  0  0
    4.3681   24.3323   15.4416 O   0  0  0  0  0  0  0  0  0  0  0  0
    1.8586   24.0779   16.1071 C   0  0  0  0  0  0  0  0  0  0  0  0
    1.2374   23.6367   14.9347 C   0  0  0  0  0  0  0  0  0  0  0  0
   -0.0939   23.9768   14.6955 C   0  0  0  0  0  0  0  0  0  0  0  0
   -0.7973   24.7441   15.6261 C   0  0  0  0  0  0  0  0  0  0  0  0
   -0.1754   25.1697   16.8018 C   0  0  0  0  0  0  0  0  0  0  0  0
    1.1552   24.8339   17.0497 C   0  0  0  0  0  0  0  0  0  0  0  0
    3.1044   23.9236   21.5792 N   0  0  0  0  0  0  0  0  0  0  0  0
    3.7602   23.8639   22.3111 H   0  0  0  0  0  0  0  0  0  0  0  0
    1.8521   23.5923   21.9486 C   0  0  0  0  0  0  0  0  0  0  0  0
    0.7922   23.5601   21.0087 C   0  0  0  0  0  0  0  0  0  0  0  0
   -0.3434   23.2108   21.7131 C   0  0  0  0  0  0  0  0  0  0  0  0
    0.1007   23.0380   22.9969 N   0  0  0  0  0  0  0  0  0  0  0  0
    1.4127   23.2585   23.1633 N   0  0  0  0  0  0  0  0  0  0  0  0
   -0.4937   22.7738   23.7360 H   0  0  0  0  0  0  0  0  0  0  0  0
   -1.7283   23.0159   21.2942 C   0  0  0  0  0  0  0  0  0  0  0  0
   -2.1742   23.4470   20.0364 C   0  0  0  0  0  0  0  0  0  0  0  0
   -3.5033   23.2561   19.6476 C   0  0  0  0  0  0  0  0  0  0  0  0
   -4.4013   22.6324   20.5105 C   0  0  0  0  0  0  0  0  0  0  0  0
   -3.9706   22.1944   21.7605 C   0  0  0  0  0  0  0  0  0  0  0  0
   -2.6413   22.3827   22.1485 C   0  0  0  0  0  0  0  0  0  0  0  0
    6.0694   26.9015   19.4692 N   0  0  0  0  0  0  0  0  0  0  0  0
    6.0263   27.6766   18.8637 H   0  0  0  0  0  0  0  0  0  0  0  0
    7.0914   26.7958   20.5225 C   0  0  0  0  0  0  0  0  0  0  0  0
    8.4522   26.5628   19.8484 C   0  0  0  0  0  0  0  0  0  0  0  0
    9.5938   26.4086   20.8590 C   0  0  0  0  0  0  0  0  0  0  0  0
    9.3908   27.2280   22.1359 C   0  0  0  0  0  0  0  0  0  0  0  0
    8.7545   26.4183   23.1229 O   0  0  0  0  0  0  0  0  0  0  0  0
    8.5213   28.4537   21.8860 C   0  0  0  0  0  0  0  0  0  0  0  0
    7.1255   28.0835   21.3705 C   0  0  0  0  0  0  0  0  0  0  0  0
    7.8850   26.1364   22.7983 H   0  0  0  0  0  0  0  0  0  0  0  0
  7  8  2  0
  8  9  2  0
  8 10  1  0
 10 11  2  0
 11 12  1  0
 12 13  2  0
 13 14  1  0
 14 15  2  0
  8  1  1  0
  1  2  2  0
  2  3  1  0
  3 16  1  0
 16 18  1  0
 18 19  1  0
 19 20  2  0
 20 24  1  0
 24 25  2  0
 25 26  1  0
 26 27  2  0
 27 28  1  0
 28 29  2  0
 20 21  1  0
 21 22  1  0
  3  4  2  0
  4  5  1  0
  5 30  1  0
 32 30  1  0
 32 33  1  0
 33 34  1  0
 34 35  1  0
 35 36  1  0
 35 37  1  0
 37 38  1  0
  5  6  2  0
 15 10  1  0
  6  1  1  0
 22 18  2  0
 38 32  1  0
 29 24  1  0
 16 17  1  0
 21 23  1  0
 30 31  1  0
 36 39  1  0
M  END
> <minimizedAffinity>
-9.80055

> <CNNscore>
0.9765868187

> <CNNaffinity>
7.6371688843

> <CNN_VS>
7.4583582878

> <CNNaffinity_variance>
0.0893435106

$$$$



 39 43  0  0  0  0  0  0  0  0999 V2000
    2.7700   23.8667   18.0220 C   0  0  0  0  0  0  0  0  0  0  0  0
    2.1790   23.5687   19.2437 C   0  0  0  0  0  0  0  0  0  0  0  0
    2.8607   23.9073   20.3955 C   0  0  0  0  0  0  0  0  0  0  0  0
    4.0803   24.4924   20.3442 N   0  0  0  0  0  0  0  0  0  0  0  0
    4.6631   24.7514   19.1576 C   0  0  0  0  0  0  0  0  0  0  0  0
    4.0264   24.4555   17.9655 C   0  0  0  0  0  0  0  0  0  0  0  0
    2.5670   22.3083   15.9469 O   0  0  0  0  0  0  0  0  0  0  0  0
    1.9155   23.4686   16.5266 S   0  0  0  0  0  0  0  0  0  0  0  0
    1.7971   24.6934   15.7542 O   0  0  0  0  0  0  0  0  0  0  0  0
    0.2729   22.9860   17.0058 C   0  0  0  0  0  0  0  0  0  0  0  0
   -0.0193   21.6330   17.2045 C   0  0  0  0  0  0  0  0  0  0  0  0
   -1.3069   21.2600   17.5891 C   0  0  0  0  0  0  0  0  0  0  0  0
   -2.2889   22.2339   17.7805 C   0  0  0  0  0  0  0  0  0  0  0  0
   -1.9870   23.5845   17.5943 C   0  0  0  0  0  0  0  0  0  0  0  0
   -0.7020   23.9669   17.2103 C   0  0  0  0  0  0  0  0  0  0  0  0
    2.3774   23.6929   21.6847 N   0  0  0  0  0  0  0  0  0  0  0  0
    3.0502   23.8419   22.3878 H   0  0  0  0  0  0  0  0  0  0  0  0
    1.1728   23.3224   22.1605 C   0  0  0  0  0  0  0  0  0  0  0  0
    0.0402   23.2423   21.3128 C   0  0  0  0  0  0  0  0  0  0  0  0
   -1.0196   22.8616   22.1128 C   0  0  0  0  0  0  0  0  0  0  0  0
   -0.4641   22.7194   23.3564 N   0  0  0  0  0  0  0  0  0  0  0  0
    0.8485   22.9876   23.4105 N   0  0  0  0  0  0  0  0  0  0  0  0
   -0.9851   22.4434   24.1448 H   0  0  0  0  0  0  0  0  0  0  0  0
   -2.4267   22.6136   21.8129 C   0  0  0  0  0  0  0  0  0  0  0  0
   -3.1867   23.5364   21.0797 C   0  0  0  0  0  0  0  0  0  0  0  0
   -4.5337   23.2881   20.8005 C   0  0  0  0  0  0  0  0  0  0  0  0
   -5.1362   22.1156   21.2503 C   0  0  0  0  0  0  0  0  0  0  0  0
   -4.3917   21.1879   21.9748 C   0  0  0  0  0  0  0  0  0  0  0  0
   -3.0443   21.4346   22.2519 C   0  0  0  0  0  0  0  0  0  0  0  0
    5.9205   25.3776   19.0924 N   0  0  0  0  0  0  0  0  0  0  0  0
    6.0573   26.3009   19.4054 H   0  0  0  0  0  0  0  0  0  0  0  0
    7.0205   24.5778   18.5308 C   0  0  0  0  0  0  0  0  0  0  0  0
    7.6196   25.3515   17.3464 C   0  0  0  0  0  0  0  0  0  0  0  0
    8.7631   24.5939   16.6631 C   0  0  0  0  0  0  0  0  0  0  0  0
    9.5739   23.7206   17.6239 C   0  0  0  0  0  0  0  0  0  0  0  0
    9.0431   22.3967   17.6240 O   0  0  0  0  0  0  0  0  0  0  0  0
    9.5268   24.2577   19.0487 C   0  0  0  0  0  0  0  0  0  0  0  0
    8.0983   24.3175   19.6027 C   0  0  0  0  0  0  0  0  0  0  0  0
    8.1232   22.4172   17.9310 H   0  0  0  0  0  0  0  0  0  0  0  0
  7  8  2  0
  8  9  2  0
  8 10  1  0
 10 11  2  0
 11 12  1  0
 12 13  2  0
 13 14  1  0
 14 15  2  0
  8  1  1  0
  1  2  2  0
  2  3  1  0
  3 16  1  0
 16 18  1  0
 18 19  1  0
 19 20  2  0
 20 24  1  0
 24 25  2  0
 25 26  1  0
 26 27  2  0
 27 28  1  0
 28 29  2  0
 20 21  1  0
 21 22  1  0
  3  4  2  0
  4  5  1  0
  5 30  1  0
 32 30  1  0
 32 33  1  0
 33 34  1  0
 34 35  1  0
 35 36  1  0
 35 37  1  0
 37 38  1  0
  5  6  2  0
 15 10  1  0
  6  1  1  0
 22 18  2  0
 38 32  1  0
 29 24  1  0
 16 17  1  0
 21 23  1  0
 30 31  1  0
 36 39  1  0
M  END
> <minimizedAffinity>
-9.82629

> <CNNscore>
0.9673101902

> <CNNaffinity>
7.7926526070

> <CNN_VS>
7.5379123688

> <CNNaffinity_variance>
0.0862057135

$$$$



 39 43  0  0  0  0  0  0  0  0999 V2000
    4.5812   24.7948   19.0104 C   0  0  0  0  0  0  0  0  0  0  0  0
    4.2278   24.4320   20.3042 C   0  0  0  0  0  0  0  0  0  0  0  0
    2.9375   23.9942   20.5272 C   0  0  0  0  0  0  0  0  0  0  0  0
    2.0307   23.9391   19.5238 N   0  0  0  0  0  0  0  0  0  0  0  0
    2.3689   24.3212   18.2771 C   0  0  0  0  0  0  0  0  0  0  0  0
    3.6501   24.7514   17.9810 C   0  0  0  0  0  0  0  0  0  0  0  0
    6.9124   25.4586   19.9596 O   0  0  0  0  0  0  0  0  0  0  0  0
    6.2314   25.3379   18.6835 S   0  0  0  0  0  0  0  0  0  0  0  0
    6.1436   26.4869   17.7985 O   0  0  0  0  0  0  0  0  0  0  0  0
    7.0146   24.0281   17.7717 C   0  0  0  0  0  0  0  0  0  0  0  0
    6.2550   23.2456   16.8965 C   0  0  0  0  0  0  0  0  0  0  0  0
    6.8756   22.2249   16.1766 C   0  0  0  0  0  0  0  0  0  0  0  0
    8.2449   21.9966   16.3266 C   0  0  0  0  0  0  0  0  0  0  0  0
    9.0006   22.7907   17.1916 C   0  0  0  0  0  0  0  0  0  0  0  0
    8.3887   23.8140   17.9150 C   0  0  0  0  0  0  0  0  0  0  0  0
    2.4546   23.5744   21.7650 N   0  0  0  0  0  0  0  0  0  0  0  0
    3.1530   23.4953   22.4544 H   0  0  0  0  0  0  0  0  0  0  0  0
    1.2225   23.2553   22.2061 C   0  0  0  0  0  0  0  0  0  0  0  0
    0.1201   23.1805   21.3190 C   0  0  0  0  0  0  0  0  0  0  0  0
   -0.9797   22.8577   22.0897 C   0  0  0  0  0  0  0  0  0  0  0  0
   -0.4754   22.7403   23.3574 N   0  0  0  0  0  0  0  0  0  0  0  0
    0.8419   22.9715   23.4529 N   0  0  0  0  0  0  0  0  0  0  0  0
   -1.0334   22.5057   24.1338 H   0  0  0  0  0  0  0  0  0  0  0  0
   -2.3816   22.6412   21.7445 C   0  0  0  0  0  0  0  0  0  0  0  0
   -3.0743   23.5410   20.9214 C   0  0  0  0  0  0  0  0  0  0  0  0
   -4.4171   23.3236   20.5995 C   0  0  0  0  0  0  0  0  0  0  0  0
   -5.0826   22.2052   21.0959 C   0  0  0  0  0  0  0  0  0  0  0  0
   -4.4052   21.3005   21.9099 C   0  0  0  0  0  0  0  0  0  0  0  0
   -3.0621   21.5163   22.2298 C   0  0  0  0  0  0  0  0  0  0  0  0
    1.4410   24.2485   17.2230 N   0  0  0  0  0  0  0  0  0  0  0  0
    1.2677   25.0152   16.6302 H   0  0  0  0  0  0  0  0  0  0  0  0
    0.7430   22.9641   17.0543 C   0  0  0  0  0  0  0  0  0  0  0  0
   -0.6593   23.0964   17.6679 C   0  0  0  0  0  0  0  0  0  0  0  0
   -1.4707   21.7999   17.5730 C   0  0  0  0  0  0  0  0  0  0  0  0
   -1.1464   20.9689   16.3290 C   0  0  0  0  0  0  0  0  0  0  0  0
   -0.1397   20.0101   16.6483 O   0  0  0  0  0  0  0  0  0  0  0  0
   -0.6365   21.8395   15.1876 C   0  0  0  0  0  0  0  0  0  0  0  0
    0.6430   22.5984   15.5594 C   0  0  0  0  0  0  0  0  0  0  0  0
    0.6672   20.4697   16.9286 H   0  0  0  0  0  0  0  0  0  0  0  0
  7  8  2  0
  8  9  2  0
  8 10  1  0
 10 11  2  0
 11 12  1  0
 12 13  2  0
 13 14  1  0
 14 15  2  0
  8  1  1  0
  1  2  2  0
  2  3  1  0
  3 16  1  0
 16 18  1  0
 18 19  1  0
 19 20  2  0
 20 24  1  0
 24 25  2  0
 25 26  1  0
 26 27  2  0
 27 28  1  0
 28 29  2  0
 20 21  1  0
 21 22  1  0
  3  4  2  0
  4  5  1  0
  5 30  1  0
 32 30  1  0
 32 33  1  0
 33 34  1  0
 34 35  1  0
 35 36  1  0
 35 37  1  0
 37 38  1  0
  5  6  2  0
 15 10  1  0
  6  1  1  0
 22 18  2  0
 38 32  1  0
 29 24  1  0
 16 17  1  0
 21 23  1  0
 30 31  1  0
 36 39  1  0
M  END
> <minimizedAffinity>
-9.96539

> <CNNscore>
0.9533791542

> <CNNaffinity>
7.8920669556

> <CNN_VS>
7.5241322517

> <CNNaffinity_variance>
0.0382108353

$$$$



 39 43  0  0  0  0  0  0  0  0999 V2000
    5.1622   24.6052   19.1345 C   0  0  0  0  0  0  0  0  0  0  0  0
    4.5959   24.6481   20.4027 C   0  0  0  0  0  0  0  0  0  0  0  0
    3.2845   24.2400   20.5433 C   0  0  0  0  0  0  0  0  0  0  0  0
    2.5577   23.8303   19.4774 N   0  0  0  0  0  0  0  0  0  0  0  0
    3.1013   23.8196   18.2448 C   0  0  0  0  0  0  0  0  0  0  0  0
    4.4159   24.1973   18.0368 C   0  0  0  0  0  0  0  0  0  0  0  0
    7.1238   25.0996   17.4963 O   0  0  0  0  0  0  0  0  0  0  0  0
    6.8463   25.0982   18.9210 S   0  0  0  0  0  0  0  0  0  0  0  0
    7.6538   24.2857   19.8148 O   0  0  0  0  0  0  0  0  0  0  0  0
    6.9497   26.7772   19.4960 C   0  0  0  0  0  0  0  0  0  0  0  0
    6.7906   27.0521   20.8578 C   0  0  0  0  0  0  0  0  0  0  0  0
    6.8815   28.3699   21.3054 C   0  0  0  0  0  0  0  0  0  0  0  0
    7.1373   29.4001   20.3984 C   0  0  0  0  0  0  0  0  0  0  0  0
    7.3092   29.1173   19.0417 C   0  0  0  0  0  0  0  0  0  0  0  0
    7.2208   27.8026   18.5851 C   0  0  0  0  0  0  0  0  0  0  0  0
    2.5997   24.2052   21.7563 N   0  0  0  0  0  0  0  0  0  0  0  0
    3.0792   24.6491   22.4927 H   0  0  0  0  0  0  0  0  0  0  0  0
    1.4122   23.6850   22.1220 C   0  0  0  0  0  0  0  0  0  0  0  0
    0.3066   23.6811   21.2357 C   0  0  0  0  0  0  0  0  0  0  0  0
   -0.7431   23.1045   21.9238 C   0  0  0  0  0  0  0  0  0  0  0  0
   -0.2073   22.7862   23.1432 N   0  0  0  0  0  0  0  0  0  0  0  0
    1.0829   23.1218   23.2858 N   0  0  0  0  0  0  0  0  0  0  0  0
   -0.7262   22.3476   23.8557 H   0  0  0  0  0  0  0  0  0  0  0  0
   -2.1235   22.8249   21.5395 C   0  0  0  0  0  0  0  0  0  0  0  0
   -2.7285   23.4948   20.4661 C   0  0  0  0  0  0  0  0  0  0  0  0
   -4.0516   23.2194   20.1090 C   0  0  0  0  0  0  0  0  0  0  0  0
   -4.7847   22.2718   20.8196 C   0  0  0  0  0  0  0  0  0  0  0  0
   -4.1944   21.5951   21.8842 C   0  0  0  0  0  0  0  0  0  0  0  0
   -2.8708   21.8684   22.2400 C   0  0  0  0  0  0  0  0  0  0  0  0
    2.3620   23.3763   17.1337 N   0  0  0  0  0  0  0  0  0  0  0  0
    1.6558   22.6957   17.2183 H   0  0  0  0  0  0  0  0  0  0  0  0
    2.7015   23.9852   15.8379 C   0  0  0  0  0  0  0  0  0  0  0  0
    3.3376   22.9032   14.9519 C   0  0  0  0  0  0  0  0  0  0  0  0
    3.7591   23.4364   13.5784 C   0  0  0  0  0  0  0  0  0  0  0  0
    2.8576   24.5591   13.0588 C   0  0  0  0  0  0  0  0  0  0  0  0
    3.4099   25.8208   13.4297 O   0  0  0  0  0  0  0  0  0  0  0  0
    1.4501   24.4626   13.6336 C   0  0  0  0  0  0  0  0  0  0  0  0
    1.4374   24.5564   15.1640 C   0  0  0  0  0  0  0  0  0  0  0  0
    3.4512   25.8839   14.3968 H   0  0  0  0  0  0  0  0  0  0  0  0
  7  8  2  0
  8  9  2  0
  8 10  1  0
 10 11  2  0
 11 12  1  0
 12 13  2  0
 13 14  1  0
 14 15  2  0
  8  1  1  0
  1  2  2  0
  2  3  1  0
  3 16  1  0
 16 18  1  0
 18 19  1  0
 19 20  2  0
 20 24  1  0
 24 25  2  0
 25 26  1  0
 26 27  2  0
 27 28  1  0
 28 29  2  0
 20 21  1  0
 21 22  1  0
  3  4  2  0
  4  5  1  0
  5 30  1  0
 32 30  1  0
 32 33  1  0
 33 34  1  0
 34 35  1  0
 35 36  1  0
 35 37  1  0
 37 38  1  0
  5  6  2  0
 15 10  1  0
  6  1  1  0
 22 18  2  0
 38 32  1  0
 29 24  1  0
 16 17  1  0
 21 23  1  0
 30 31  1  0
 36 39  1  0
M  END
> <minimizedAffinity>
-9.26799

> <CNNscore>
0.9527723789

> <CNNaffinity>
7.7871780396

> <CNN_VS>
7.4194083214

> <CNNaffinity_variance>
0.0146501968

$$$$



 39 43  0  0  0  0  0  0  0  0999 V2000
    4.6541   24.7334   18.9439 C   0  0  0  0  0  0  0  0  0  0  0  0
    4.3146   24.3049   20.2213 C   0  0  0  0  0  0  0  0  0  0  0  0
    2.9758   24.1502   20.5208 C   0  0  0  0  0  0  0  0  0  0  0  0
    2.0148   24.4279   19.6088 N   0  0  0  0  0  0  0  0  0  0  0  0
    2.3475   24.8727   18.3815 C   0  0  0  0  0  0  0  0  0  0  0  0
    3.6707   25.0312   18.0098 C   0  0  0  0  0  0  0  0  0  0  0  0
    6.7679   23.7186   17.8133 O   0  0  0  0  0  0  0  0  0  0  0  0
    6.3595   24.9201   18.5179 S   0  0  0  0  0  0  0  0  0  0  0  0
    7.0656   25.3295   19.7199 O   0  0  0  0  0  0  0  0  0  0  0  0
    6.4400   26.2760   17.3708 C   0  0  0  0  0  0  0  0  0  0  0  0
    6.4578   26.0180   15.9966 C   0  0  0  0  0  0  0  0  0  0  0  0
    6.5119   27.0853   15.1004 C   0  0  0  0  0  0  0  0  0  0  0  0
    6.5396   28.3974   15.5768 C   0  0  0  0  0  0  0  0  0  0  0  0
    6.5073   28.6488   16.9501 C   0  0  0  0  0  0  0  0  0  0  0  0
    6.4525   27.5880   17.8537 C   0  0  0  0  0  0  0  0  0  0  0  0
    2.4934   23.7032   21.7493 N   0  0  0  0  0  0  0  0  0  0  0  0
    3.1877   23.6337   22.4438 H   0  0  0  0  0  0  0  0  0  0  0  0
    1.2662   23.3472   22.1757 C   0  0  0  0  0  0  0  0  0  0  0  0
    0.1653   23.2927   21.2854 C   0  0  0  0  0  0  0  0  0  0  0  0
   -0.9296   22.9213   22.0411 C   0  0  0  0  0  0  0  0  0  0  0  0
   -0.4238   22.7590   23.3033 N   0  0  0  0  0  0  0  0  0  0  0  0
    0.8898   23.0061   23.4094 N   0  0  0  0  0  0  0  0  0  0  0  0
   -0.9783   22.4838   24.0688 H   0  0  0  0  0  0  0  0  0  0  0  0
   -2.3280   22.6981   21.6862 C   0  0  0  0  0  0  0  0  0  0  0  0
   -3.0544   21.6299   22.2322 C   0  0  0  0  0  0  0  0  0  0  0  0
   -4.3925   21.4257   21.8831 C   0  0  0  0  0  0  0  0  0  0  0  0
   -5.0197   22.2862   20.9850 C   0  0  0  0  0  0  0  0  0  0  0  0
   -4.3117   23.3543   20.4394 C   0  0  0  0  0  0  0  0  0  0  0  0
   -2.9747   23.5602   20.7902 C   0  0  0  0  0  0  0  0  0  0  0  0
    1.3584   25.1445   17.4196 N   0  0  0  0  0  0  0  0  0  0  0  0
    0.9958   26.0505   17.2898 H   0  0  0  0  0  0  0  0  0  0  0  0
    0.8950   24.0011   16.6178 C   0  0  0  0  0  0  0  0  0  0  0  0
    1.2258   22.7120   17.3853 C   0  0  0  0  0  0  0  0  0  0  0  0
    0.8097   21.4481   16.6249 C   0  0  0  0  0  0  0  0  0  0  0  0
   -0.4369   21.6423   15.7581 C   0  0  0  0  0  0  0  0  0  0  0  0
   -0.0432   21.9962   14.4336 O   0  0  0  0  0  0  0  0  0  0  0  0
   -1.3356   22.7449   16.3034 C   0  0  0  0  0  0  0  0  0  0  0  0
   -0.6231   24.1012   16.3649 C   0  0  0  0  0  0  0  0  0  0  0  0
    0.4483   22.8321   14.4549 H   0  0  0  0  0  0  0  0  0  0  0  0
  7  8  2  0
  8  9  2  0
  8 10  1  0
 10 11  2  0
 11 12  1  0
 12 13  2  0
 13 14  1  0
 14 15  2  0
  8  1  1  0
  1  2  2  0
  2  3  1  0
  3 16  1  0
 16 18  1  0
 18 19  1  0
 19 20  2  0
 20 24  1  0
 24 25  2  0
 25 26  1  0
 26 27  2  0
 27 28  1  0
 28 29  2  0
 20 21  1  0
 21 22  1  0
  3  4  2  0
  4  5  1  0
  5 30  1  0
 32 30  1  0
 32 33  1  0
 33 34  1  0
 34 35  1  0
 35 36  1  0
 35 37  1  0
 37 38  1  0
  5  6  2  0
 15 10  1  0
  6  1  1  0
 22 18  2  0
 38 32  1  0
 29 24  1  0
 16 17  1  0
 21 23  1  0
 30 31  1  0
 36 39  1  0
M  END
> <minimizedAffinity>
-9.40771

> <CNNscore>
0.9392752051

> <CNNaffinity>
7.8975710869

> <CNN_VS>
7.4179925919

> <CNNaffinity_variance>
0.0273739938

$$$$



 39 43  0  0  0  0  0  0  0  0999 V2000
    4.5774   24.8501   19.3644 C   0  0  0  0  0  0  0  0  0  0  0  0
    4.1409   24.4908   20.6336 C   0  0  0  0  0  0  0  0  0  0  0  0
    2.9603   23.7829   20.7390 C   0  0  0  0  0  0  0  0  0  0  0  0
    2.2317   23.4642   19.6436 N   0  0  0  0  0  0  0  0  0  0  0  0
    2.6429   23.8414   18.4175 C   0  0  0  0  0  0  0  0  0  0  0  0
    3.8263   24.5357   18.2395 C   0  0  0  0  0  0  0  0  0  0  0  0
    6.5607   26.0749   20.5231 O   0  0  0  0  0  0  0  0  0  0  0  0
    6.0967   25.7368   19.1899 S   0  0  0  0  0  0  0  0  0  0  0  0
    5.8765   26.7884   18.2119 O   0  0  0  0  0  0  0  0  0  0  0  0
    7.2610   24.5942   18.4833 C   0  0  0  0  0  0  0  0  0  0  0  0
    6.8829   23.8113   17.3882 C   0  0  0  0  0  0  0  0  0  0  0  0
    7.8026   22.9228   16.8315 C   0  0  0  0  0  0  0  0  0  0  0  0
    9.0904   22.8262   17.3623 C   0  0  0  0  0  0  0  0  0  0  0  0
    9.4664   23.6211   18.4471 C   0  0  0  0  0  0  0  0  0  0  0  0
    8.5536   24.5128   19.0098 C   0  0  0  0  0  0  0  0  0  0  0  0
    2.4188   23.3354   21.9423 N   0  0  0  0  0  0  0  0  0  0  0  0
    3.0941   23.1541   22.6353 H   0  0  0  0  0  0  0  0  0  0  0  0
    1.1551   23.1015   22.3462 C   0  0  0  0  0  0  0  0  0  0  0  0
    0.0848   23.0476   21.4193 C   0  0  0  0  0  0  0  0  0  0  0  0
   -1.0596   22.8170   22.1577 C   0  0  0  0  0  0  0  0  0  0  0  0
   -0.6108   22.7273   23.4484 N   0  0  0  0  0  0  0  0  0  0  0  0
    0.7125   22.8920   23.5872 N   0  0  0  0  0  0  0  0  0  0  0  0
   -1.2099   22.5563   24.2107 H   0  0  0  0  0  0  0  0  0  0  0  0
   -2.4571   22.6610   21.7656 C   0  0  0  0  0  0  0  0  0  0  0  0
   -3.1262   23.6626   21.0471 C   0  0  0  0  0  0  0  0  0  0  0  0
   -4.4651   23.5020   20.6790 C   0  0  0  0  0  0  0  0  0  0  0  0
   -5.1503   22.3394   21.0240 C   0  0  0  0  0  0  0  0  0  0  0  0
   -4.4964   21.3343   21.7326 C   0  0  0  0  0  0  0  0  0  0  0  0
   -3.1571   21.4934   22.0986 C   0  0  0  0  0  0  0  0  0  0  0  0
    1.9047   23.4979   17.2711 N   0  0  0  0  0  0  0  0  0  0  0  0
    1.0996   22.9335   17.3220 H   0  0  0  0  0  0  0  0  0  0  0  0
    2.4008   24.0279   15.9912 C   0  0  0  0  0  0  0  0  0  0  0  0
    3.1880   22.9140   15.2840 C   0  0  0  0  0  0  0  0  0  0  0  0
    3.7785   23.3666   13.9443 C   0  0  0  0  0  0  0  0  0  0  0  0
    2.9222   24.4111   13.2238 C   0  0  0  0  0  0  0  0  0  0  0  0
    3.3770   25.7179   13.5701 O   0  0  0  0  0  0  0  0  0  0  0  0
    1.4524   24.2960   13.6076 C   0  0  0  0  0  0  0  0  0  0  0  0
    1.2246   24.4966   15.1106 C   0  0  0  0  0  0  0  0  0  0  0  0
    3.2819   25.8505   14.5263 H   0  0  0  0  0  0  0  0  0  0  0  0
  7  8  2  0
  8  9  2  0
  8 10  1  0
 10 11  2  0
 11 12  1  0
 12 13  2  0
 13 14  1  0
 14 15  2  0
  8  1  1  0
  1  2  2  0
  2  3  1  0
  3 16  1  0
 16 18  1  0
 18 19  1  0
 19 20  2  0
 20 24  1  0
 24 25  2  0
 25 26  1  0
 26 27  2  0
 27 28  1  0
 28 29  2  0
 20 21  1  0
 21 22  1  0
  3  4  2  0
  4  5  1  0
  5 30  1  0
 32 30  1  0
 32 33  1  0
 33 34  1  0
 34 35  1  0
 35 36  1  0
 35 37  1  0
 37 38  1  0
  5  6  2  0
 15 10  1  0
  6  1  1  0
 22 18  2  0
 38 32  1  0
 29 24  1  0
 16 17  1  0
 21 23  1  0
 30 31  1  0
 36 39  1  0
M  END
> <minimizedAffinity>
-9.49407

> <CNNscore>
0.9212797880

> <CNNaffinity>
7.6180720329

> <CNN_VS>
7.0183758736

> <CNNaffinity_variance>
0.0536252260

$$$$



 39 43  0  0  0  0  0  0  0  0999 V2000
    0.9871   23.8486   18.7661 C   0  0  0  0  0  0  0  0  0  0  0  0
    2.3011   24.0399   19.1756 C   0  0  0  0  0  0  0  0  0  0  0  0
    2.5963   23.8704   20.5136 C   0  0  0  0  0  0  0  0  0  0  0  0
    1.6345   23.5497   21.4105 N   0  0  0  0  0  0  0  0  0  0  0  0
    0.3563   23.3955   21.0140 C   0  0  0  0  0  0  0  0  0  0  0  0
   -0.0044   23.5317   19.6853 C   0  0  0  0  0  0  0  0  0  0  0  0
    1.8144   23.9660   16.3008 O   0  0  0  0  0  0  0  0  0  0  0  0
    0.5771   24.0343   17.0567 S   0  0  0  0  0  0  0  0  0  0  0  0
   -0.2791   25.2022   16.9393 O   0  0  0  0  0  0  0  0  0  0  0  0
   -0.4028   22.6157   16.6233 C   0  0  0  0  0  0  0  0  0  0  0  0
    0.1085   21.6700   15.7292 C   0  0  0  0  0  0  0  0  0  0  0  0
   -0.6603   20.5541   15.3992 C   0  0  0  0  0  0  0  0  0  0  0  0
   -1.9250   20.3842   15.9660 C   0  0  0  0  0  0  0  0  0  0  0  0
   -2.4241   21.3250   16.8692 C   0  0  0  0  0  0  0  0  0  0  0  0
   -1.6622   22.4436   17.2056 C   0  0  0  0  0  0  0  0  0  0  0  0
    3.8719   24.0034   21.0583 N   0  0  0  0  0  0  0  0  0  0  0  0
    3.9849   23.5345   21.9166 H   0  0  0  0  0  0  0  0  0  0  0  0
    4.9812   24.6457   20.6443 C   0  0  0  0  0  0  0  0  0  0  0  0
    4.9362   26.0008   20.2329 C   0  0  0  0  0  0  0  0  0  0  0  0
    6.2216   26.3367   19.8549 C   0  0  0  0  0  0  0  0  0  0  0  0
    6.9439   25.1951   20.0791 N   0  0  0  0  0  0  0  0  0  0  0  0
    6.2239   24.1686   20.5540 N   0  0  0  0  0  0  0  0  0  0  0  0
    7.9111   25.1333   19.9059 H   0  0  0  0  0  0  0  0  0  0  0  0
    6.7951   27.5809   19.3505 C   0  0  0  0  0  0  0  0  0  0  0  0
    7.3968   28.5065   20.2154 C   0  0  0  0  0  0  0  0  0  0  0  0
    7.9408   29.6952   19.7204 C   0  0  0  0  0  0  0  0  0  0  0  0
    7.8901   29.9723   18.3562 C   0  0  0  0  0  0  0  0  0  0  0  0
    7.3004   29.0593   17.4853 C   0  0  0  0  0  0  0  0  0  0  0  0
    6.7586   27.8697   17.9796 C   0  0  0  0  0  0  0  0  0  0  0  0
   -0.6471   23.0420   21.9336 N   0  0  0  0  0  0  0  0  0  0  0  0
   -0.4769   23.0159   22.9029 H   0  0  0  0  0  0  0  0  0  0  0  0
   -1.9652   22.7133   21.3682 C   0  0  0  0  0  0  0  0  0  0  0  0
   -2.7074   21.8176   22.3719 C   0  0  0  0  0  0  0  0  0  0  0  0
   -4.0905   21.3882   21.8708 C   0  0  0  0  0  0  0  0  0  0  0  0
   -4.7669   22.4340   20.9808 C   0  0  0  0  0  0  0  0  0  0  0  0
   -4.4713   22.1557   19.6135 O   0  0  0  0  0  0  0  0  0  0  0  0
   -4.2830   23.8428   21.3003 C   0  0  0  0  0  0  0  0  0  0  0  0
   -2.7712   24.0001   21.0984 C   0  0  0  0  0  0  0  0  0  0  0  0
   -3.5130   22.2074   19.4728 H   0  0  0  0  0  0  0  0  0  0  0  0
  7  8  2  0
  8  9  2  0
  8 10  1  0
 10 11  2  0
 11 12  1  0
 12 13  2  0
 13 14  1  0
 14 15  2  0
  8  1  1  0
  1  2  2  0
  2  3  1  0
  3 16  1  0
 16 18  1  0
 18 19  1  0
 19 20  2  0
 20 24  1  0
 24 25  2  0
 25 26  1  0
 26 27  2  0
 27 28  1  0
 28 29  2  0
 20 21  1  0
 21 22  1  0
  3  4  2  0
  4  5  1  0
  5 30  1  0
 32 30  1  0
 32 33  1  0
 33 34  1  0
 34 35  1  0
 35 36  1  0
 35 37  1  0
 37 38  1  0
  5  6  2  0
 15 10  1  0
  6  1  1  0
 22 18  2  0
 38 32  1  0
 29 24  1  0
 16 17  1  0
 21 23  1  0
 30 31  1  0
 36 39  1  0
M  END
> <minimizedAffinity>
-9.71477

> <CNNscore>
0.8346092701

> <CNNaffinity>
7.6569747925

> <CNN_VS>
6.3905820847

> <CNNaffinity_variance>
0.0208081398

$$$$
