


 29 31  0  0  0  0  0  0  0  0999 V2000
    2.6740  -11.3844   -5.5951 C   0  0  0  0  0  0  0  0  0  0  0  0
    1.8230  -12.1957   -6.3588 C   0  0  0  0  0  0  0  0  0  0  0  0
    2.0368  -12.3578   -7.7332 C   0  0  0  0  0  0  0  0  0  0  0  0
    0.9461  -13.3892   -8.5935 Cl  0  0  0  0  0  0  0  0  0  0  0  0
    3.1084  -11.7117   -8.3792 C   0  0  0  0  0  0  0  0  0  0  0  0
    3.9555  -10.9043   -7.6012 C   0  0  0  0  0  0  0  0  0  0  0  0
    3.7371  -10.7464   -6.2322 C   0  0  0  0  0  0  0  0  0  0  0  0
    4.5858   -9.9616   -5.5503 F   0  0  0  0  0  0  0  0  0  0  0  0
    3.3755  -11.8444   -9.8181 C   0  0  0  0  0  0  0  0  0  0  0  0
    4.6905  -11.9393  -10.2957 C   0  0  0  0  0  0  0  0  0  0  0  0
    4.9537  -12.0562  -11.6664 C   0  0  0  0  0  0  0  0  0  0  0  0
    3.9077  -12.0785  -12.5964 C   0  0  0  0  0  0  0  0  0  0  0  0
    4.1260  -12.2003  -14.0553 C   0  0  0  0  0  0  0  0  0  0  0  0
    5.5190  -12.3097  -14.6009 C   0  0  0  0  0  0  0  0  0  0  0  0
    3.0579  -12.2121  -14.8719 C   0  0  0  0  0  0  0  0  0  0  0  0
    1.6709  -12.1082  -14.3654 C   0  0  0  0  0  0  0  0  0  0  0  0
    0.7173  -12.1194  -15.1356 O   0  0  0  0  0  0  0  0  0  0  0  0
    1.5193  -11.9991  -13.0135 N   0  0  0  0  0  0  0  0  0  0  0  0
    2.5920  -11.9813  -12.1138 C   0  0  0  0  0  0  0  0  0  0  0  0
    2.3253  -11.8645  -10.7462 C   0  0  0  0  0  0  0  0  0  0  0  0
    0.6065  -11.9292  -12.6514 H   0  0  0  0  0  0  0  0  0  0  0  0
    2.3684   -9.9797   -3.6067 N   0  0  0  0  0  0  0  0  0  0  0  0
    2.3978  -11.2492   -4.1381 C   0  0  0  0  0  0  0  0  0  0  0  0
    2.2100  -12.2544   -3.4611 O   0  0  0  0  0  0  0  0  0  0  0  0
    2.5312   -9.2100   -4.1987 H   0  0  0  0  0  0  0  0  0  0  0  0
    2.1042   -9.7425   -2.1993 C   0  0  0  0  0  0  0  0  0  0  0  0
    2.6834   -8.4167   -1.6952 C   0  0  0  0  0  0  0  0  0  0  0  0
    3.4599   -6.2749   -2.3782 C   0  0  0  0  0  0  0  0  0  0  0  0
    3.1590   -7.6063   -2.7729 O   0  0  0  0  0  0  0  0  0  0  0  0
 28 29  1  0
 29 27  1  0
 27 26  1  0
 26 22  1  0
 22 23  1  0
 23 24  2  0
 23  1  1  0
  1  2  2  0
  2  3  1  0
  3  4  1  0
  3  5  2  0
  5  9  1  0
  9 10  2  0
 10 11  1  0
 11 12  2  0
 12 13  1  0
 13 14  1  0
 13 15  2  0
 15 16  1  0
 16 17  2  0
 16 18  1  0
 18 19  1  0
 19 20  2  0
  5  6  1  0
  6  7  2  0
  7  8  1  0
  7  1  1  0
 20  9  1  0
 19 12  1  0
 22 25  1  0
 18 21  1  0
M  END
> <minimizedAffinity>
-11.34552

> <CNNscore>
0.9566304088

> <CNNaffinity>
7.6827220917

> <CNN_VS>
7.3495254517

> <CNNaffinity_variance>
0.1117081866

$$$$



 29 31  0  0  0  0  0  0  0  0999 V2000
    2.6804  -11.3912   -5.6167 C   0  0  0  0  0  0  0  0  0  0  0  0
    1.8437  -12.2213   -6.3761 C   0  0  0  0  0  0  0  0  0  0  0  0
    2.0541  -12.3788   -7.7516 C   0  0  0  0  0  0  0  0  0  0  0  0
    0.9821  -13.4342   -8.6062 Cl  0  0  0  0  0  0  0  0  0  0  0  0
    3.1077  -11.7091   -8.4030 C   0  0  0  0  0  0  0  0  0  0  0  0
    3.9407  -10.8831   -7.6293 C   0  0  0  0  0  0  0  0  0  0  0  0
    3.7258  -10.7299   -6.2592 C   0  0  0  0  0  0  0  0  0  0  0  0
    4.5604   -9.9264   -5.5817 F   0  0  0  0  0  0  0  0  0  0  0  0
    3.3704  -11.8360   -9.8432 C   0  0  0  0  0  0  0  0  0  0  0  0
    4.6843  -11.9192  -10.3261 C   0  0  0  0  0  0  0  0  0  0  0  0
    4.9431  -12.0306  -11.6981 C   0  0  0  0  0  0  0  0  0  0  0  0
    3.8938  -12.0588  -12.6241 C   0  0  0  0  0  0  0  0  0  0  0  0
    4.1075  -12.1753  -14.0841 C   0  0  0  0  0  0  0  0  0  0  0  0
    5.4992  -12.2721  -14.6353 C   0  0  0  0  0  0  0  0  0  0  0  0
    3.0364  -12.1935  -14.8967 C   0  0  0  0  0  0  0  0  0  0  0  0
    1.6505  -12.1019  -14.3847 C   0  0  0  0  0  0  0  0  0  0  0  0
    0.6941  -12.1187  -15.1512 O   0  0  0  0  0  0  0  0  0  0  0  0
    1.5033  -11.9975  -13.0319 N   0  0  0  0  0  0  0  0  0  0  0  0
    2.5793  -11.9734  -12.1363 C   0  0  0  0  0  0  0  0  0  0  0  0
    2.3168  -11.8622  -10.7673 C   0  0  0  0  0  0  0  0  0  0  0  0
    0.5913  -11.9357  -12.6661 H   0  0  0  0  0  0  0  0  0  0  0  0
    2.3489  -12.4178   -3.4130 N   0  0  0  0  0  0  0  0  0  0  0  0
    2.4087  -11.2620   -4.1583 C   0  0  0  0  0  0  0  0  0  0  0  0
    2.2455  -10.1496   -3.6685 O   0  0  0  0  0  0  0  0  0  0  0  0
    2.4834  -13.2835   -3.8621 H   0  0  0  0  0  0  0  0  0  0  0  0
    2.0932  -12.3975   -1.9842 C   0  0  0  0  0  0  0  0  0  0  0  0
    2.1567  -13.7877   -1.3436 C   0  0  0  0  0  0  0  0  0  0  0  0
    2.7987  -15.7536   -2.5183 C   0  0  0  0  0  0  0  0  0  0  0  0
    1.7672  -14.8100   -2.2642 O   0  0  0  0  0  0  0  0  0  0  0  0
 28 29  1  0
 29 27  1  0
 27 26  1  0
 26 22  1  0
 22 23  1  0
 23 24  2  0
 23  1  1  0
  1  2  2  0
  2  3  1  0
  3  4  1  0
  3  5  2  0
  5  9  1  0
  9 10  2  0
 10 11  1  0
 11 12  2  0
 12 13  1  0
 13 14  1  0
 13 15  2  0
 15 16  1  0
 16 17  2  0
 16 18  1  0
 18 19  1  0
 19 20  2  0
  5  6  1  0
  6  7  2  0
  7  8  1  0
  7  1  1  0
 20  9  1  0
 19 12  1  0
 22 25  1  0
 18 21  1  0
M  END
> <minimizedAffinity>
-10.81969

> <CNNscore>
0.9178301096

> <CNNaffinity>
7.3391075134

> <CNN_VS>
6.7360539436

> <CNNaffinity_variance>
0.0187588651

$$$$



 29 31  0  0  0  0  0  0  0  0999 V2000
    2.6863  -11.0394   -6.0288 C   0  0  0  0  0  0  0  0  0  0  0  0
    2.9523   -9.9428   -6.8609 C   0  0  0  0  0  0  0  0  0  0  0  0
    3.1872  -10.1267   -8.2291 C   0  0  0  0  0  0  0  0  0  0  0  0
    3.4923   -8.7155   -9.1824 Cl  0  0  0  0  0  0  0  0  0  0  0  0
    3.1620  -11.4137   -8.8002 C   0  0  0  0  0  0  0  0  0  0  0  0
    2.8908  -12.5035   -7.9554 C   0  0  0  0  0  0  0  0  0  0  0  0
    2.6579  -12.3138   -6.5929 C   0  0  0  0  0  0  0  0  0  0  0  0
    2.4042  -13.3991   -5.8452 F   0  0  0  0  0  0  0  0  0  0  0  0
    3.4051  -11.6630  -10.2278 C   0  0  0  0  0  0  0  0  0  0  0  0
    4.6953  -11.9542  -10.6936 C   0  0  0  0  0  0  0  0  0  0  0  0
    4.9366  -12.1834  -12.0541 C   0  0  0  0  0  0  0  0  0  0  0  0
    3.8935  -12.1245  -12.9856 C   0  0  0  0  0  0  0  0  0  0  0  0
    4.0894  -12.3580  -14.4340 C   0  0  0  0  0  0  0  0  0  0  0  0
    5.4549  -12.6775  -14.9666 C   0  0  0  0  0  0  0  0  0  0  0  0
    3.0261  -12.2793  -15.2531 C   0  0  0  0  0  0  0  0  0  0  0  0
    1.6656  -11.9682  -14.7594 C   0  0  0  0  0  0  0  0  0  0  0  0
    0.7160  -11.9010  -15.5316 O   0  0  0  0  0  0  0  0  0  0  0  0
    1.5339  -11.7623  -13.4167 N   0  0  0  0  0  0  0  0  0  0  0  0
    2.6029  -11.8307  -12.5150 C   0  0  0  0  0  0  0  0  0  0  0  0
    2.3580  -11.6013  -11.1576 C   0  0  0  0  0  0  0  0  0  0  0  0
    0.6389  -11.5543  -13.0631 H   0  0  0  0  0  0  0  0  0  0  0  0
    2.5796  -11.8420   -3.7126 N   0  0  0  0  0  0  0  0  0  0  0  0
    2.4444  -10.7833   -4.5820 C   0  0  0  0  0  0  0  0  0  0  0  0
    2.1337   -9.6569   -4.2096 O   0  0  0  0  0  0  0  0  0  0  0  0
    2.8267  -12.7254   -4.0702 H   0  0  0  0  0  0  0  0  0  0  0  0
    2.3687  -11.6941   -2.2841 C   0  0  0  0  0  0  0  0  0  0  0  0
    3.4554  -10.8579   -1.6006 C   0  0  0  0  0  0  0  0  0  0  0  0
    1.8700  -10.9210    0.1712 C   0  0  0  0  0  0  0  0  0  0  0  0
    3.2340  -10.7570   -0.1917 O   0  0  0  0  0  0  0  0  0  0  0  0
 28 29  1  0
 29 27  1  0
 27 26  1  0
 26 22  1  0
 22 23  1  0
 23 24  2  0
 23  1  1  0
  1  2  2  0
  2  3  1  0
  3  4  1  0
  3  5  2  0
  5  9  1  0
  9 10  2  0
 10 11  1  0
 11 12  2  0
 12 13  1  0
 13 14  1  0
 13 15  2  0
 15 16  1  0
 16 17  2  0
 16 18  1  0
 18 19  1  0
 19 20  2  0
  5  6  1  0
  6  7  2  0
  7  8  1  0
  7  1  1  0
 20  9  1  0
 19 12  1  0
 22 25  1  0
 18 21  1  0
M  END
> <minimizedAffinity>
-9.02963

> <CNNscore>
0.5853415728

> <CNNaffinity>
6.8822617531

> <CNN_VS>
4.0284738541

> <CNNaffinity_variance>
0.0016452729

$$$$



 29 31  0  0  0  0  0  0  0  0999 V2000
    2.7829  -11.6155  -10.5136 C   0  0  0  0  0  0  0  0  0  0  0  0
    2.1568  -12.5756   -9.7063 C   0  0  0  0  0  0  0  0  0  0  0  0
    2.0739  -12.3966   -8.3199 C   0  0  0  0  0  0  0  0  0  0  0  0
    1.2707  -13.6251   -7.4040 Cl  0  0  0  0  0  0  0  0  0  0  0  0
    2.6160  -11.2514   -7.7053 C   0  0  0  0  0  0  0  0  0  0  0  0
    3.2377  -10.2955   -8.5266 C   0  0  0  0  0  0  0  0  0  0  0  0
    3.3174  -10.4797   -9.9074 C   0  0  0  0  0  0  0  0  0  0  0  0
    3.9239   -9.5261  -10.6312 F   0  0  0  0  0  0  0  0  0  0  0  0
    2.5600  -11.0159   -6.2559 C   0  0  0  0  0  0  0  0  0  0  0  0
    2.3902   -9.7201   -5.7477 C   0  0  0  0  0  0  0  0  0  0  0  0
    2.3455   -9.4864   -4.3674 C   0  0  0  0  0  0  0  0  0  0  0  0
    2.4724  -10.5432   -3.4584 C   0  0  0  0  0  0  0  0  0  0  0  0
    2.4324  -10.3558   -1.9907 C   0  0  0  0  0  0  0  0  0  0  0  0
    2.2465   -8.9843   -1.4123 C   0  0  0  0  0  0  0  0  0  0  0  0
    2.5638  -11.4322   -1.1959 C   0  0  0  0  0  0  0  0  0  0  0  0
    2.7465  -12.7988   -1.7348 C   0  0  0  0  0  0  0  0  0  0  0  0
    2.8660  -13.7605   -0.9841 O   0  0  0  0  0  0  0  0  0  0  0  0
    2.7755  -12.9222   -3.0936 N   0  0  0  0  0  0  0  0  0  0  0  0
    2.6441  -11.8395   -3.9717 C   0  0  0  0  0  0  0  0  0  0  0  0
    2.6892  -12.0768   -5.3490 C   0  0  0  0  0  0  0  0  0  0  0  0
    2.8953  -13.8210   -3.4772 H   0  0  0  0  0  0  0  0  0  0  0  0
    1.6501  -11.9188  -12.6688 N   0  0  0  0  0  0  0  0  0  0  0  0
    2.8412  -11.8594  -11.9815 C   0  0  0  0  0  0  0  0  0  0  0  0
    3.9292  -12.0012  -12.5294 O   0  0  0  0  0  0  0  0  0  0  0  0
    0.8067  -11.8022  -12.1744 H   0  0  0  0  0  0  0  0  0  0  0  0
    1.6010  -12.1485  -14.1013 C   0  0  0  0  0  0  0  0  0  0  0  0
    2.8728  -12.8052  -14.6475 C   0  0  0  0  0  0  0  0  0  0  0  0
    4.5980  -11.8504  -15.9775 C   0  0  0  0  0  0  0  0  0  0  0  0
    3.2401  -12.2646  -15.9192 O   0  0  0  0  0  0  0  0  0  0  0  0
 28 29  1  0
 29 27  1  0
 27 26  1  0
 26 22  1  0
 22 23  1  0
 23 24  2  0
 23  1  1  0
  1  2  2  0
  2  3  1  0
  3  4  1  0
  3  5  2  0
  5  9  1  0
  9 10  2  0
 10 11  1  0
 11 12  2  0
 12 13  1  0
 13 14  1  0
 13 15  2  0
 15 16  1  0
 16 17  2  0
 16 18  1  0
 18 19  1  0
 19 20  2  0
  5  6  1  0
  6  7  2  0
  7  8  1  0
  7  1  1  0
 20  9  1  0
 19 12  1  0
 22 25  1  0
 18 21  1  0
M  END
> <minimizedAffinity>
-9.79135

> <CNNscore>
0.4416935742

> <CNNaffinity>
6.6856079102

> <CNN_VS>
2.9529900551

> <CNNaffinity_variance>
0.0833050907

$$$$



 29 31  0  0  0  0  0  0  0  0999 V2000
    2.8272  -11.6769  -10.3440 C   0  0  0  0  0  0  0  0  0  0  0  0
    2.1963  -12.6525   -9.5593 C   0  0  0  0  0  0  0  0  0  0  0  0
    2.1238  -12.5108   -8.1680 C   0  0  0  0  0  0  0  0  0  0  0  0
    1.3137  -13.7560   -7.2810 Cl  0  0  0  0  0  0  0  0  0  0  0  0
    2.6815  -11.3885   -7.5257 C   0  0  0  0  0  0  0  0  0  0  0  0
    3.3078  -10.4167   -8.3245 C   0  0  0  0  0  0  0  0  0  0  0  0
    3.3770  -10.5636   -9.7103 C   0  0  0  0  0  0  0  0  0  0  0  0
    3.9889   -9.5967  -10.4115 F   0  0  0  0  0  0  0  0  0  0  0  0
    2.6368  -11.1925   -6.0701 C   0  0  0  0  0  0  0  0  0  0  0  0
    2.5180  -12.2888   -5.2039 C   0  0  0  0  0  0  0  0  0  0  0  0
    2.4650  -12.1094   -3.8158 C   0  0  0  0  0  0  0  0  0  0  0  0
    2.5267  -10.8274   -3.2573 C   0  0  0  0  0  0  0  0  0  0  0  0
    2.4755  -10.5778   -1.7992 C   0  0  0  0  0  0  0  0  0  0  0  0
    2.3544  -11.7274   -0.8431 C   0  0  0  0  0  0  0  0  0  0  0  0
    2.5408   -9.3103   -1.3557 C   0  0  0  0  0  0  0  0  0  0  0  0
    2.6627   -8.1543   -2.2723 C   0  0  0  0  0  0  0  0  0  0  0  0
    2.7176   -7.0095   -1.8375 O   0  0  0  0  0  0  0  0  0  0  0  0
    2.7076   -8.4337   -3.6074 N   0  0  0  0  0  0  0  0  0  0  0  0
    2.6439   -9.7317   -4.1286 C   0  0  0  0  0  0  0  0  0  0  0  0
    2.6971   -9.9068   -5.5149 C   0  0  0  0  0  0  0  0  0  0  0  0
    2.7891   -7.6821   -4.2380 H   0  0  0  0  0  0  0  0  0  0  0  0
    1.6767  -11.9390  -12.4953 N   0  0  0  0  0  0  0  0  0  0  0  0
    2.8739  -11.8809  -11.8183 C   0  0  0  0  0  0  0  0  0  0  0  0
    3.9581  -11.9926  -12.3805 O   0  0  0  0  0  0  0  0  0  0  0  0
    0.8370  -11.8475  -11.9897 H   0  0  0  0  0  0  0  0  0  0  0  0
    1.6163  -12.1312  -13.9328 C   0  0  0  0  0  0  0  0  0  0  0  0
    2.9590  -12.5519  -14.5388 C   0  0  0  0  0  0  0  0  0  0  0  0
    4.6672  -11.8612  -16.0427 C   0  0  0  0  0  0  0  0  0  0  0  0
    3.3003  -11.7486  -15.6713 O   0  0  0  0  0  0  0  0  0  0  0  0
 28 29  1  0
 29 27  1  0
 27 26  1  0
 26 22  1  0
 22 23  1  0
 23 24  2  0
 23  1  1  0
  1  2  2  0
  2  3  1  0
  3  4  1  0
  3  5  2  0
  5  9  1  0
  9 10  2  0
 10 11  1  0
 11 12  2  0
 12 13  1  0
 13 14  1  0
 13 15  2  0
 15 16  1  0
 16 17  2  0
 16 18  1  0
 18 19  1  0
 19 20  2  0
  5  6  1  0
  6  7  2  0
  7  8  1  0
  7  1  1  0
 20  9  1  0
 19 12  1  0
 22 25  1  0
 18 21  1  0
M  END
> <minimizedAffinity>
-10.45131

> <CNNscore>
0.3892662227

> <CNNaffinity>
6.5355505943

> <CNN_VS>
2.5440690517

> <CNNaffinity_variance>
0.2555893362

$$$$



 29 31  0  0  0  0  0  0  0  0999 V2000
   -6.9846  -17.5334   -4.6122 C   0  0  0  0  0  0  0  0  0  0  0  0
   -6.3565  -18.7562   -4.8878 C   0  0  0  0  0  0  0  0  0  0  0  0
   -5.2485  -19.1730   -4.1397 C   0  0  0  0  0  0  0  0  0  0  0  0
   -4.5463  -20.7027   -4.5396 Cl  0  0  0  0  0  0  0  0  0  0  0  0
   -4.7400  -18.3761   -3.0959 C   0  0  0  0  0  0  0  0  0  0  0  0
   -5.3812  -17.1545   -2.8281 C   0  0  0  0  0  0  0  0  0  0  0  0
   -6.4846  -16.7446   -3.5773 C   0  0  0  0  0  0  0  0  0  0  0  0
   -7.0484  -15.5671   -3.2665 F   0  0  0  0  0  0  0  0  0  0  0  0
   -3.5790  -18.7637   -2.2829 C   0  0  0  0  0  0  0  0  0  0  0  0
   -3.7529  -19.3662   -1.0287 C   0  0  0  0  0  0  0  0  0  0  0  0
   -2.6513  -19.7297   -0.2438 C   0  0  0  0  0  0  0  0  0  0  0  0
   -1.3457  -19.4973   -0.6918 C   0  0  0  0  0  0  0  0  0  0  0  0
   -0.1450  -19.8602    0.0940 C   0  0  0  0  0  0  0  0  0  0  0  0
   -0.2936  -20.5114    1.4371 C   0  0  0  0  0  0  0  0  0  0  0  0
    1.0696  -19.5968   -0.4190 C   0  0  0  0  0  0  0  0  0  0  0  0
    1.2505  -18.9574   -1.7418 C   0  0  0  0  0  0  0  0  0  0  0  0
    2.3714  -18.7278   -2.1816 O   0  0  0  0  0  0  0  0  0  0  0  0
    0.1148  -18.6423   -2.4299 N   0  0  0  0  0  0  0  0  0  0  0  0
   -1.1759  -18.8918   -1.9480 C   0  0  0  0  0  0  0  0  0  0  0  0
   -2.2732  -18.5276   -2.7345 C   0  0  0  0  0  0  0  0  0  0  0  0
    0.2082  -18.2167   -3.3127 H   0  0  0  0  0  0  0  0  0  0  0  0
   -8.0129  -16.0704   -6.2923 N   0  0  0  0  0  0  0  0  0  0  0  0
   -8.1585  -17.1421   -5.4407 C   0  0  0  0  0  0  0  0  0  0  0  0
   -9.2063  -17.7716   -5.3424 O   0  0  0  0  0  0  0  0  0  0  0  0
   -7.1486  -15.6001   -6.3250 H   0  0  0  0  0  0  0  0  0  0  0  0
   -9.0963  -15.6135   -7.1433 C   0  0  0  0  0  0  0  0  0  0  0  0
   -8.6935  -15.4971   -8.6169 C   0  0  0  0  0  0  0  0  0  0  0  0
   -7.1851  -17.0333   -9.6277 C   0  0  0  0  0  0  0  0  0  0  0  0
   -8.5227  -16.7825   -9.2193 O   0  0  0  0  0  0  0  0  0  0  0  0
 28 29  1  0
 29 27  1  0
 27 26  1  0
 26 22  1  0
 22 23  1  0
 23 24  2  0
 23  1  1  0
  1  2  2  0
  2  3  1  0
  3  4  1  0
  3  5  2  0
  5  9  1  0
  9 10  2  0
 10 11  1  0
 11 12  2  0
 12 13  1  0
 13 14  1  0
 13 15  2  0
 15 16  1  0
 16 17  2  0
 16 18  1  0
 18 19  1  0
 19 20  2  0
  5  6  1  0
  6  7  2  0
  7  8  1  0
  7  1  1  0
 20  9  1  0
 19 12  1  0
 22 25  1  0
 18 21  1  0
M  END
> <minimizedAffinity>
-5.59080

> <CNNscore>
0.3588393927

> <CNNaffinity>
5.4866995811

> <CNN_VS>
1.9688439369

> <CNNaffinity_variance>
0.4039924145

$$$$



 29 31  0  0  0  0  0  0  0  0999 V2000
    2.7010  -11.2503   -5.7378 C   0  0  0  0  0  0  0  0  0  0  0  0
    1.7720  -12.0109   -6.4617 C   0  0  0  0  0  0  0  0  0  0  0  0
    1.9154  -12.1846   -7.8438 C   0  0  0  0  0  0  0  0  0  0  0  0
    0.7303  -13.1511   -8.6530 Cl  0  0  0  0  0  0  0  0  0  0  0  0
    2.9929  -11.6010   -8.5376 C   0  0  0  0  0  0  0  0  0  0  0  0
    3.9186  -10.8441   -7.7993 C   0  0  0  0  0  0  0  0  0  0  0  0
    3.7701  -10.6744   -6.4224 C   0  0  0  0  0  0  0  0  0  0  0  0
    4.6917   -9.9401   -5.7802 F   0  0  0  0  0  0  0  0  0  0  0  0
    3.1885  -11.7483   -9.9865 C   0  0  0  0  0  0  0  0  0  0  0  0
    2.0933  -11.7269  -10.8620 C   0  0  0  0  0  0  0  0  0  0  0  0
    2.2706  -11.8764  -12.2433 C   0  0  0  0  0  0  0  0  0  0  0  0
    3.5488  -12.0542  -12.7854 C   0  0  0  0  0  0  0  0  0  0  0  0
    3.7961  -12.2169  -14.2357 C   0  0  0  0  0  0  0  0  0  0  0  0
    2.6486  -12.1933  -15.2016 C   0  0  0  0  0  0  0  0  0  0  0  0
    5.0599  -12.3832  -14.6633 C   0  0  0  0  0  0  0  0  0  0  0  0
    6.2140  -12.4090  -13.7367 C   0  0  0  0  0  0  0  0  0  0  0  0
    7.3550  -12.5649  -14.1569 O   0  0  0  0  0  0  0  0  0  0  0  0
    5.9371  -12.2536  -12.4094 N   0  0  0  0  0  0  0  0  0  0  0  0
    4.6430  -12.0769  -11.9047 C   0  0  0  0  0  0  0  0  0  0  0  0
    4.4700  -11.9280  -10.5252 C   0  0  0  0  0  0  0  0  0  0  0  0
    6.6876  -12.2665  -11.7724 H   0  0  0  0  0  0  0  0  0  0  0  0
    2.4008   -9.8234   -3.7645 N   0  0  0  0  0  0  0  0  0  0  0  0
    2.4974  -11.1000   -4.2704 C   0  0  0  0  0  0  0  0  0  0  0  0
    2.4254  -12.0992   -3.5630 O   0  0  0  0  0  0  0  0  0  0  0  0
    2.4708   -9.0587   -4.3806 H   0  0  0  0  0  0  0  0  0  0  0  0
    2.1985   -9.5717   -2.3493 C   0  0  0  0  0  0  0  0  0  0  0  0
    3.4202   -8.9435   -1.6711 C   0  0  0  0  0  0  0  0  0  0  0  0
    1.7292   -8.2679   -0.1412 C   0  0  0  0  0  0  0  0  0  0  0  0
    3.0382   -8.0298   -0.6398 O   0  0  0  0  0  0  0  0  0  0  0  0
 28 29  1  0
 29 27  1  0
 27 26  1  0
 26 22  1  0
 22 23  1  0
 23 24  2  0
 23  1  1  0
  1  2  2  0
  2  3  1  0
  3  4  1  0
  3  5  2  0
  5  9  1  0
  9 10  2  0
 10 11  1  0
 11 12  2  0
 12 13  1  0
 13 14  1  0
 13 15  2  0
 15 16  1  0
 16 17  2  0
 16 18  1  0
 18 19  1  0
 19 20  2  0
  5  6  1  0
  6  7  2  0
  7  8  1  0
  7  1  1  0
 20  9  1  0
 19 12  1  0
 22 25  1  0
 18 21  1  0
M  END
> <minimizedAffinity>
-10.45565

> <CNNscore>
0.3288893402

> <CNNaffinity>
6.4488410950

> <CNN_VS>
2.1209549904

> <CNNaffinity_variance>
0.5385885835

$$$$



 29 31  0  0  0  0  0  0  0  0999 V2000
    0.4714  -18.4722   -2.0622 C   0  0  0  0  0  0  0  0  0  0  0  0
   -0.3766  -17.3562   -2.0947 C   0  0  0  0  0  0  0  0  0  0  0  0
    0.1030  -16.1084   -2.5117 C   0  0  0  0  0  0  0  0  0  0  0  0
   -1.0176  -14.7905   -2.5345 Cl  0  0  0  0  0  0  0  0  0  0  0  0
    1.4448  -15.9451   -2.9070 C   0  0  0  0  0  0  0  0  0  0  0  0
    2.2829  -17.0726   -2.8728 C   0  0  0  0  0  0  0  0  0  0  0  0
    1.7991  -18.3132   -2.4560 C   0  0  0  0  0  0  0  0  0  0  0  0
    2.6544  -19.3474   -2.4491 F   0  0  0  0  0  0  0  0  0  0  0  0
    2.0002  -14.6586   -3.3491 C   0  0  0  0  0  0  0  0  0  0  0  0
    2.8681  -13.9318   -2.5216 C   0  0  0  0  0  0  0  0  0  0  0  0
    3.3939  -12.7001   -2.9319 C   0  0  0  0  0  0  0  0  0  0  0  0
    3.0630  -12.1613   -4.1807 C   0  0  0  0  0  0  0  0  0  0  0  0
    3.5881  -10.8656   -4.6665 C   0  0  0  0  0  0  0  0  0  0  0  0
    4.5233  -10.0642   -3.8100 C   0  0  0  0  0  0  0  0  0  0  0  0
    3.2128  -10.4283   -5.8813 C   0  0  0  0  0  0  0  0  0  0  0  0
    2.2937  -11.1958   -6.7516 C   0  0  0  0  0  0  0  0  0  0  0  0
    1.9679  -10.7694   -7.8538 O   0  0  0  0  0  0  0  0  0  0  0  0
    1.8367  -12.3848   -6.2618 N   0  0  0  0  0  0  0  0  0  0  0  0
    2.1918  -12.8917   -5.0058 C   0  0  0  0  0  0  0  0  0  0  0  0
    1.6648  -14.1216   -4.5997 C   0  0  0  0  0  0  0  0  0  0  0  0
    1.2244  -12.9147   -6.8218 H   0  0  0  0  0  0  0  0  0  0  0  0
   -1.4305  -19.8120   -1.2825 N   0  0  0  0  0  0  0  0  0  0  0  0
   -0.0940  -19.7734   -1.6099 C   0  0  0  0  0  0  0  0  0  0  0  0
    0.6333  -20.7584   -1.5393 O   0  0  0  0  0  0  0  0  0  0  0  0
   -1.9640  -18.9877   -1.3542 H   0  0  0  0  0  0  0  0  0  0  0  0
   -2.0762  -21.0325   -0.8345 C   0  0  0  0  0  0  0  0  0  0  0  0
   -3.1163  -21.5602   -1.8278 C   0  0  0  0  0  0  0  0  0  0  0  0
   -4.0960  -20.5822   -3.7619 C   0  0  0  0  0  0  0  0  0  0  0  0
   -2.9019  -21.0388   -3.1417 O   0  0  0  0  0  0  0  0  0  0  0  0
 28 29  1  0
 29 27  1  0
 27 26  1  0
 26 22  1  0
 22 23  1  0
 23 24  2  0
 23  1  1  0
  1  2  2  0
  2  3  1  0
  3  4  1  0
  3  5  2  0
  5  9  1  0
  9 10  2  0
 10 11  1  0
 11 12  2  0
 12 13  1  0
 13 14  1  0
 13 15  2  0
 15 16  1  0
 16 17  2  0
 16 18  1  0
 18 19  1  0
 19 20  2  0
  5  6  1  0
  6  7  2  0
  7  8  1  0
  7  1  1  0
 20  9  1  0
 19 12  1  0
 22 25  1  0
 18 21  1  0
M  END
> <minimizedAffinity>
-6.58954

> <CNNscore>
0.3131747246

> <CNNaffinity>
5.1571736336

> <CNN_VS>
1.6150964499

> <CNNaffinity_variance>
0.3544497192

$$$$



 29 31  0  0  0  0  0  0  0  0999 V2000
    2.4344  -11.5271   -9.1748 C   0  0  0  0  0  0  0  0  0  0  0  0
    3.2815  -10.9405   -8.2240 C   0  0  0  0  0  0  0  0  0  0  0  0
    3.1819  -11.2867   -6.8707 C   0  0  0  0  0  0  0  0  0  0  0  0
    4.2776  -10.5241   -5.7701 Cl  0  0  0  0  0  0  0  0  0  0  0  0
    2.2313  -12.2292   -6.4338 C   0  0  0  0  0  0  0  0  0  0  0  0
    1.3909  -12.8119   -7.3977 C   0  0  0  0  0  0  0  0  0  0  0  0
    1.4947  -12.4626   -8.7446 C   0  0  0  0  0  0  0  0  0  0  0  0
    0.6611  -13.0590   -9.6110 F   0  0  0  0  0  0  0  0  0  0  0  0
    2.0820  -12.6253   -5.0267 C   0  0  0  0  0  0  0  0  0  0  0  0
    1.4991  -13.8547   -4.6875 C   0  0  0  0  0  0  0  0  0  0  0  0
    1.3446  -14.2351   -3.3484 C   0  0  0  0  0  0  0  0  0  0  0  0
    1.7668  -13.3939   -2.3124 C   0  0  0  0  0  0  0  0  0  0  0  0
    1.6292  -13.7433   -0.8807 C   0  0  0  0  0  0  0  0  0  0  0  0
    1.0155  -15.0527   -0.4816 C   0  0  0  0  0  0  0  0  0  0  0  0
    2.0637  -12.8699    0.0445 C   0  0  0  0  0  0  0  0  0  0  0  0
    2.6755  -11.5711   -0.3160 C   0  0  0  0  0  0  0  0  0  0  0  0
    3.0600  -10.7944    0.5509 O   0  0  0  0  0  0  0  0  0  0  0  0
    2.7825  -11.2935   -1.6479 N   0  0  0  0  0  0  0  0  0  0  0  0
    2.3486  -12.1624   -2.6565 C   0  0  0  0  0  0  0  0  0  0  0  0
    2.5046  -11.7791   -3.9922 C   0  0  0  0  0  0  0  0  0  0  0  0
    3.1866  -10.4360   -1.9139 H   0  0  0  0  0  0  0  0  0  0  0  0
    2.3071  -12.0591  -11.5666 N   0  0  0  0  0  0  0  0  0  0  0  0
    2.5859  -11.1203  -10.5992 C   0  0  0  0  0  0  0  0  0  0  0  0
    2.9512   -9.9810  -10.8685 O   0  0  0  0  0  0  0  0  0  0  0  0
    2.0221  -12.9600  -11.2902 H   0  0  0  0  0  0  0  0  0  0  0  0
    2.4210  -11.7596  -12.9824 C   0  0  0  0  0  0  0  0  0  0  0  0
    1.6743  -12.7610  -13.8694 C   0  0  0  0  0  0  0  0  0  0  0  0
    3.0396  -11.9393  -15.6351 C   0  0  0  0  0  0  0  0  0  0  0  0
    1.7518  -12.4007  -15.2509 O   0  0  0  0  0  0  0  0  0  0  0  0
 28 29  1  0
 29 27  1  0
 27 26  1  0
 26 22  1  0
 22 23  1  0
 23 24  2  0
 23  1  1  0
  1  2  2  0
  2  3  1  0
  3  4  1  0
  3  5  2  0
  5  9  1  0
  9 10  2  0
 10 11  1  0
 11 12  2  0
 12 13  1  0
 13 14  1  0
 13 15  2  0
 15 16  1  0
 16 17  2  0
 16 18  1  0
 18 19  1  0
 19 20  2  0
  5  6  1  0
  6  7  2  0
  7  8  1  0
  7  1  1  0
 20  9  1  0
 19 12  1  0
 22 25  1  0
 18 21  1  0
M  END
> <minimizedAffinity>
-8.82958

> <CNNscore>
0.3089398444

> <CNNaffinity>
6.0087285042

> <CNN_VS>
1.8563356400

> <CNNaffinity_variance>
1.0536063910

$$$$
