


 50 51  0  0  0  0  0  0  0  0999 V2000
   35.6660   41.9590   -4.4103 N   0  0  0  0  0  0  0  0  0  0  0  0
   34.7132   42.1792   -4.1203 H   0  0  0  0  0  0  0  0  0  0  0  0
   35.8230   42.5317   -5.9325 P   0  0  0  0  0  0  0  0  0  0  0  0
   37.2367   42.6094   -6.4117 O   0  0  0  0  0  0  0  0  0  0  0  0
   35.2457   44.0292   -5.7781 O   0  0  0  0  0  0  0  0  0  0  0  0
   35.8253   44.5403   -5.1918 H   0  0  0  0  0  0  0  0  0  0  0  0
   34.6322   41.7205   -7.0490 C   0  0  0  0  0  0  0  0  0  0  0  0
   34.6691   42.3961   -8.3483 N   0  0  0  0  0  0  0  0  0  0  0  0
   33.6874   43.2073   -8.8198 C   0  0  0  0  0  0  0  0  0  0  0  0
   32.6723   43.5249   -8.2118 O   0  0  0  0  0  0  0  0  0  0  0  0
   35.4589   42.2523   -8.9182 H   0  0  0  0  0  0  0  0  0  0  0  0
   34.0205   43.5950  -10.0674 O   0  0  0  0  0  0  0  0  0  0  0  0
   33.1736   44.5829  -10.6714 C   0  0  0  0  0  0  0  0  0  0  0  0
   33.1953   44.4002  -12.1689 C   0  0  0  0  0  0  0  0  0  0  0  0
   32.8198   43.1755  -12.7411 C   0  0  0  0  0  0  0  0  0  0  0  0
   32.8053   43.0158  -14.1287 C   0  0  0  0  0  0  0  0  0  0  0  0
   33.1616   44.0764  -14.9599 C   0  0  0  0  0  0  0  0  0  0  0  0
   33.5267   45.3012  -14.4033 C   0  0  0  0  0  0  0  0  0  0  0  0
   33.5437   45.4648  -13.0153 C   0  0  0  0  0  0  0  0  0  0  0  0
   34.9058   40.2282   -7.2673 C   0  0  0  0  0  0  0  0  0  0  0  0
   33.6933   39.3896   -7.5753 C   0  0  0  0  0  0  0  0  0  0  0  0
   32.9650   39.5760   -8.7602 C   0  0  0  0  0  0  0  0  0  0  0  0
   31.8601   38.7710   -9.0466 C   0  0  0  0  0  0  0  0  0  0  0  0
   31.4742   37.7676   -8.1598 C   0  0  0  0  0  0  0  0  0  0  0  0
   32.1981   37.5634   -6.9864 C   0  0  0  0  0  0  0  0  0  0  0  0
   33.3066   38.3635   -6.6986 C   0  0  0  0  0  0  0  0  0  0  0  0
   36.5355   42.3964   -3.3197 C   0  0  0  0  0  0  0  0  0  0  0  0
   37.8324   41.5619   -3.4103 C   0  0  0  0  0  0  0  0  0  0  0  0
   38.9557   42.0439   -3.2403 O   0  0  0  0  0  0  0  0  0  0  0  0
   37.6751   40.2442   -3.8285 N   0  0  0  0  0  0  0  0  0  0  0  0
   36.8231   39.9424   -4.2187 H   0  0  0  0  0  0  0  0  0  0  0  0
   38.7921   39.3152   -3.6800 C   0  0  0  0  0  0  0  0  0  0  0  0
   38.7042   38.6461   -2.3034 C   0  0  0  0  0  0  0  0  0  0  0  0
   38.9123   38.2025   -4.7745 C   0  0  0  0  0  0  0  0  0  0  0  0
   39.4512   36.7351   -4.3555 N   0  0  0  0  0  0  0  0  0  0  0  0
   39.4703   35.8555   -5.6231 C   0  0  0  0  0  0  0  0  0  0  0  0
   38.4287   36.1883   -3.3645 C   0  0  0  0  0  0  0  0  0  0  0  0
   40.8654   36.9539   -3.8094 C   0  0  0  0  0  0  0  0  0  0  0  0
   41.6629   35.8886   -3.0424 N   0  0  0  0  0  0  0  0  0  0  0  0
   41.2771   34.4482   -3.4630 C   0  0  0  0  0  0  0  0  0  0  0  0
   41.4706   35.9630   -1.5370 C   0  0  0  0  0  0  0  0  0  0  0  0
   43.1730   35.9610   -3.4247 C   0  0  0  0  0  0  0  0  0  0  0  0
   43.9760   37.2487   -3.3816 N   0  0  0  0  0  0  0  0  0  0  0  0
   45.4870   36.7851   -3.2829 C   0  0  0  0  0  0  0  0  0  0  0  0
   43.7649   38.0898   -2.1038 C   0  0  0  0  0  0  0  0  0  0  0  0
   43.9117   38.1600   -4.5940 C   0  0  0  0  0  0  0  0  0  0  0  0
   35.9504   42.2031   -1.9046 C   0  0  0  0  0  0  0  0  0  0  0  0
   37.2401   42.7133    0.1974 C   0  0  0  0  0  0  0  0  0  0  0  0
   36.3620   43.3078   -0.9076 C   0  0  0  0  0  0  0  0  0  0  0  0
   37.1169   44.4488   -1.6079 C   0  0  0  0  0  0  0  0  0  0  0  0
 48 49  1  0
 49 50  1  0
 49 47  1  0
 27 47  1  0
 27  1  1  0
  1  3  1  0
  3  4  2  0
  3  5  1  0
  3  7  1  0
  7 20  1  0
 20 21  1  0
 21 22  2  0
 22 23  1  0
 23 24  2  0
 24 25  1  0
 25 26  2  0
  7  8  1  0
  8  9  1  0
  9 10  2  0
  9 12  1  0
 12 13  1  0
 13 14  1  0
 14 15  2  0
 15 16  1  0
 16 17  2  0
 17 18  1  0
 18 19  2  0
 27 28  1  0
 28 29  2  0
 28 30  1  0
 30 32  1  0
 32 33  1  0
 32 34  1  0
 34 35  1  0
 35 36  1  0
 35 37  1  0
 35 38  1  0
 38 39  1  0
 39 40  1  0
 39 41  1  0
 39 42  1  0
 42 43  1  0
 43 44  1  0
 43 45  1  0
 43 46  1  0
 26 21  1  0
 19 14  1  0
  1  2  1  0
  5  6  1  0
  8 11  1  0
 30 31  1  0
M  CHG 1  35   1
M  CHG 1  39   1
M  CHG 1  43   1
M  END
> <minimizedAffinity>
-8.85668

> <CNNscore>
0.8707477450

> <CNNaffinity>
8.5112009048

> <CNN_VS>
7.4111089706

> <CNNaffinity_variance>
0.1259736568

$$$$



 50 51  0  0  0  0  0  0  0  0999 V2000
   35.5762   42.0178   -4.2946 N   0  0  0  0  0  0  0  0  0  0  0  0
   34.6648   42.3623   -3.9928 H   0  0  0  0  0  0  0  0  0  0  0  0
   35.7901   42.5685   -5.8180 P   0  0  0  0  0  0  0  0  0  0  0  0
   37.2229   42.7222   -6.2151 O   0  0  0  0  0  0  0  0  0  0  0  0
   35.1167   44.0310   -5.7329 O   0  0  0  0  0  0  0  0  0  0  0  0
   35.6288   44.5879   -5.1258 H   0  0  0  0  0  0  0  0  0  0  0  0
   34.7186   41.6646   -6.9832 C   0  0  0  0  0  0  0  0  0  0  0  0
   34.7231   42.3666   -8.2689 N   0  0  0  0  0  0  0  0  0  0  0  0
   33.7123   43.1556   -8.7162 C   0  0  0  0  0  0  0  0  0  0  0  0
   32.6929   43.4287   -8.0939 O   0  0  0  0  0  0  0  0  0  0  0  0
   35.5121   42.2592   -8.8478 H   0  0  0  0  0  0  0  0  0  0  0  0
   34.0223   43.5782   -9.9583 O   0  0  0  0  0  0  0  0  0  0  0  0
   33.0988   44.4928  -10.5655 C   0  0  0  0  0  0  0  0  0  0  0  0
   33.1502   44.3217  -12.0636 C   0  0  0  0  0  0  0  0  0  0  0  0
   32.8333   43.0870  -12.6494 C   0  0  0  0  0  0  0  0  0  0  0  0
   32.8461   42.9366  -14.0381 C   0  0  0  0  0  0  0  0  0  0  0  0
   33.1715   44.0167  -14.8569 C   0  0  0  0  0  0  0  0  0  0  0  0
   33.4782   45.2513  -14.2869 C   0  0  0  0  0  0  0  0  0  0  0  0
   33.4679   45.4056  -12.8977 C   0  0  0  0  0  0  0  0  0  0  0  0
   35.1474   40.2120   -7.2191 C   0  0  0  0  0  0  0  0  0  0  0  0
   34.0356   39.2635   -7.5827 C   0  0  0  0  0  0  0  0  0  0  0  0
   33.2754   38.6236   -6.5919 C   0  0  0  0  0  0  0  0  0  0  0  0
   32.2279   37.7693   -6.9439 C   0  0  0  0  0  0  0  0  0  0  0  0
   31.9223   37.5497   -8.2858 C   0  0  0  0  0  0  0  0  0  0  0  0
   32.6610   38.1905   -9.2789 C   0  0  0  0  0  0  0  0  0  0  0  0
   33.7064   39.0494   -8.9307 C   0  0  0  0  0  0  0  0  0  0  0  0
   36.5092   42.3322   -3.2142 C   0  0  0  0  0  0  0  0  0  0  0  0
   37.7426   41.4206   -3.3996 C   0  0  0  0  0  0  0  0  0  0  0  0
   38.8970   41.7980   -3.1806 O   0  0  0  0  0  0  0  0  0  0  0  0
   37.4922   40.1717   -3.9595 N   0  0  0  0  0  0  0  0  0  0  0  0
   36.6227   39.9774   -4.3782 H   0  0  0  0  0  0  0  0  0  0  0  0
   38.5380   39.1532   -3.9171 C   0  0  0  0  0  0  0  0  0  0  0  0
   38.3701   38.3195   -2.6414 C   0  0  0  0  0  0  0  0  0  0  0  0
   38.6073   38.1860   -5.1459 C   0  0  0  0  0  0  0  0  0  0  0  0
   39.8777   37.1958   -5.3032 N   0  0  0  0  0  0  0  0  0  0  0  0
   39.9715   36.7739   -6.7843 C   0  0  0  0  0  0  0  0  0  0  0  0
   39.5606   35.9788   -4.4400 C   0  0  0  0  0  0  0  0  0  0  0  0
   41.0987   38.0188   -4.8812 C   0  0  0  0  0  0  0  0  0  0  0  0
   42.3998   37.4073   -4.3404 N   0  0  0  0  0  0  0  0  0  0  0  0
   43.5620   38.4314   -4.3070 C   0  0  0  0  0  0  0  0  0  0  0  0
   42.8922   36.2247   -5.1574 C   0  0  0  0  0  0  0  0  0  0  0  0
   42.2376   37.0285   -2.8365 C   0  0  0  0  0  0  0  0  0  0  0  0
   43.0670   35.9511   -2.1611 N   0  0  0  0  0  0  0  0  0  0  0  0
   42.3968   34.5847   -2.5989 C   0  0  0  0  0  0  0  0  0  0  0  0
   42.9610   35.9360   -0.6206 C   0  0  0  0  0  0  0  0  0  0  0  0
   44.5266   35.8312   -2.5611 C   0  0  0  0  0  0  0  0  0  0  0  0
   35.9598   42.0958   -1.7915 C   0  0  0  0  0  0  0  0  0  0  0  0
   37.4339   42.7123    0.1550 C   0  0  0  0  0  0  0  0  0  0  0  0
   36.3350   43.2087   -0.7892 C   0  0  0  0  0  0  0  0  0  0  0  0
   36.8098   44.4810   -1.5088 C   0  0  0  0  0  0  0  0  0  0  0  0
 48 49  1  0
 49 50  1  0
 49 47  1  0
 27 47  1  0
 27  1  1  0
  1  3  1  0
  3  4  2  0
  3  5  1  0
  3  7  1  0
  7 20  1  0
 20 21  1  0
 21 22  2  0
 22 23  1  0
 23 24  2  0
 24 25  1  0
 25 26  2  0
  7  8  1  0
  8  9  1  0
  9 10  2  0
  9 12  1  0
 12 13  1  0
 13 14  1  0
 14 15  2  0
 15 16  1  0
 16 17  2  0
 17 18  1  0
 18 19  2  0
 27 28  1  0
 28 29  2  0
 28 30  1  0
 30 32  1  0
 32 33  1  0
 32 34  1  0
 34 35  1  0
 35 36  1  0
 35 37  1  0
 35 38  1  0
 38 39  1  0
 39 40  1  0
 39 41  1  0
 39 42  1  0
 42 43  1  0
 43 44  1  0
 43 45  1  0
 43 46  1  0
 26 21  1  0
 19 14  1  0
  1  2  1  0
  5  6  1  0
  8 11  1  0
 30 31  1  0
M  CHG 1  35   1
M  CHG 1  39   1
M  CHG 1  43   1
M  END
> <minimizedAffinity>
-8.73232

> <CNNscore>
0.8616172671

> <CNNaffinity>
8.3733062744

> <CNN_VS>
7.2145853043

> <CNNaffinity_variance>
0.1488148570

$$$$



 50 51  0  0  0  0  0  0  0  0999 V2000
   35.6032   41.8275   -4.4643 N   0  0  0  0  0  0  0  0  0  0  0  0
   34.6392   41.9865   -4.1713 H   0  0  0  0  0  0  0  0  0  0  0  0
   35.7328   42.4577   -5.9663 P   0  0  0  0  0  0  0  0  0  0  0  0
   37.1386   42.5677   -6.4619 O   0  0  0  0  0  0  0  0  0  0  0  0
   35.1430   43.9424   -5.7483 O   0  0  0  0  0  0  0  0  0  0  0  0
   35.7259   44.4374   -5.1516 H   0  0  0  0  0  0  0  0  0  0  0  0
   34.5341   41.6762   -7.0954 C   0  0  0  0  0  0  0  0  0  0  0  0
   34.5835   42.3667   -8.3864 N   0  0  0  0  0  0  0  0  0  0  0  0
   33.6100   43.1897   -8.8544 C   0  0  0  0  0  0  0  0  0  0  0  0
   32.5930   43.5065   -8.2491 O   0  0  0  0  0  0  0  0  0  0  0  0
   35.3760   42.2246   -8.9529 H   0  0  0  0  0  0  0  0  0  0  0  0
   33.9533   43.5899  -10.0952 O   0  0  0  0  0  0  0  0  0  0  0  0
   33.3921   42.8393  -11.1813 C   0  0  0  0  0  0  0  0  0  0  0  0
   33.2561   43.7405  -12.3836 C   0  0  0  0  0  0  0  0  0  0  0  0
   33.5548   45.1077  -12.2846 C   0  0  0  0  0  0  0  0  0  0  0  0
   33.4635   45.9366  -13.4052 C   0  0  0  0  0  0  0  0  0  0  0  0
   33.0768   45.4101  -14.6366 C   0  0  0  0  0  0  0  0  0  0  0  0
   32.7874   44.0513  -14.7497 C   0  0  0  0  0  0  0  0  0  0  0  0
   32.8763   43.2186  -13.6305 C   0  0  0  0  0  0  0  0  0  0  0  0
   34.7882   40.1830   -7.3310 C   0  0  0  0  0  0  0  0  0  0  0  0
   33.5685   39.3685   -7.6734 C   0  0  0  0  0  0  0  0  0  0  0  0
   32.8963   39.5470   -8.8922 C   0  0  0  0  0  0  0  0  0  0  0  0
   31.7840   38.7637   -9.2090 C   0  0  0  0  0  0  0  0  0  0  0  0
   31.3348   37.7901   -8.3188 C   0  0  0  0  0  0  0  0  0  0  0  0
   32.0025   37.5938   -7.1113 C   0  0  0  0  0  0  0  0  0  0  0  0
   33.1183   38.3719   -6.7929 C   0  0  0  0  0  0  0  0  0  0  0  0
   36.4452   42.2747   -3.3564 C   0  0  0  0  0  0  0  0  0  0  0  0
   37.7784   41.5008   -3.4580 C   0  0  0  0  0  0  0  0  0  0  0  0
   38.8708   42.0581   -3.5962 O   0  0  0  0  0  0  0  0  0  0  0  0
   37.6696   40.1150   -3.5171 N   0  0  0  0  0  0  0  0  0  0  0  0
   36.7966   39.6890   -3.6776 H   0  0  0  0  0  0  0  0  0  0  0  0
   38.8690   39.3014   -3.3377 C   0  0  0  0  0  0  0  0  0  0  0  0
   38.6681   38.3769   -2.1312 C   0  0  0  0  0  0  0  0  0  0  0  0
   39.3050   38.4371   -4.5678 C   0  0  0  0  0  0  0  0  0  0  0  0
   40.6743   37.5783   -4.4862 N   0  0  0  0  0  0  0  0  0  0  0  0
   41.1331   37.2763   -5.9281 C   0  0  0  0  0  0  0  0  0  0  0  0
   40.3035   36.2779   -3.7807 C   0  0  0  0  0  0  0  0  0  0  0  0
   41.6817   38.4737   -3.7584 C   0  0  0  0  0  0  0  0  0  0  0  0
   43.0214   37.9760   -3.1955 N   0  0  0  0  0  0  0  0  0  0  0  0
   42.8355   37.0337   -1.9798 C   0  0  0  0  0  0  0  0  0  0  0  0
   43.9328   39.1003   -2.7327 C   0  0  0  0  0  0  0  0  0  0  0  0
   43.7376   37.0566   -4.2315 C   0  0  0  0  0  0  0  0  0  0  0  0
   45.1950   37.2277   -4.6205 N   0  0  0  0  0  0  0  0  0  0  0  0
   45.4592   36.1150   -5.7159 C   0  0  0  0  0  0  0  0  0  0  0  0
   46.1994   36.8855   -3.4985 C   0  0  0  0  0  0  0  0  0  0  0  0
   45.6016   38.5383   -5.2700 C   0  0  0  0  0  0  0  0  0  0  0  0
   35.8600   42.0199   -1.9512 C   0  0  0  0  0  0  0  0  0  0  0  0
   37.1344   42.4881    0.1698 C   0  0  0  0  0  0  0  0  0  0  0  0
   36.2427   43.0988   -0.9153 C   0  0  0  0  0  0  0  0  0  0  0  0
   36.9694   44.2822   -1.5737 C   0  0  0  0  0  0  0  0  0  0  0  0
 48 49  1  0
 49 50  1  0
 49 47  1  0
 27 47  1  0
 27  1  1  0
  1  3  1  0
  3  4  2  0
  3  5  1  0
  3  7  1  0
  7 20  1  0
 20 21  1  0
 21 22  2  0
 22 23  1  0
 23 24  2  0
 24 25  1  0
 25 26  2  0
  7  8  1  0
  8  9  1  0
  9 10  2  0
  9 12  1  0
 12 13  1  0
 13 14  1  0
 14 15  2  0
 15 16  1  0
 16 17  2  0
 17 18  1  0
 18 19  2  0
 27 28  1  0
 28 29  2  0
 28 30  1  0
 30 32  1  0
 32 33  1  0
 32 34  1  0
 34 35  1  0
 35 36  1  0
 35 37  1  0
 35 38  1  0
 38 39  1  0
 39 40  1  0
 39 41  1  0
 39 42  1  0
 42 43  1  0
 43 44  1  0
 43 45  1  0
 43 46  1  0
 26 21  1  0
 19 14  1  0
  1  2  1  0
  5  6  1  0
  8 11  1  0
 30 31  1  0
M  CHG 1  35   1
M  CHG 1  39   1
M  CHG 1  43   1
M  END
> <minimizedAffinity>
-9.39472

> <CNNscore>
0.8165485263

> <CNNaffinity>
8.1751565933

> <CNN_VS>
6.6754121780

> <CNNaffinity_variance>
0.3840070665

$$$$



 50 51  0  0  0  0  0  0  0  0999 V2000
   35.7681   41.8329   -4.5323 N   0  0  0  0  0  0  0  0  0  0  0  0
   34.8529   42.0389   -4.1317 H   0  0  0  0  0  0  0  0  0  0  0  0
   35.7782   42.5116   -6.0186 P   0  0  0  0  0  0  0  0  0  0  0  0
   37.1454   42.7076   -6.5899 O   0  0  0  0  0  0  0  0  0  0  0  0
   35.1295   43.9573   -5.7207 O   0  0  0  0  0  0  0  0  0  0  0  0
   35.7211   44.4643   -5.1429 H   0  0  0  0  0  0  0  0  0  0  0  0
   34.5556   41.7023   -7.1016 C   0  0  0  0  0  0  0  0  0  0  0  0
   34.5825   42.3550   -8.4127 N   0  0  0  0  0  0  0  0  0  0  0  0
   33.6191   43.1945   -8.8722 C   0  0  0  0  0  0  0  0  0  0  0  0
   32.6329   43.5593   -8.2434 O   0  0  0  0  0  0  0  0  0  0  0  0
   35.3510   42.1728   -9.0005 H   0  0  0  0  0  0  0  0  0  0  0  0
   33.9326   43.5494  -10.1345 O   0  0  0  0  0  0  0  0  0  0  0  0
   33.2333   42.8586  -11.1794 C   0  0  0  0  0  0  0  0  0  0  0  0
   33.2134   43.7251  -12.4143 C   0  0  0  0  0  0  0  0  0  0  0  0
   32.8983   43.1733  -13.6650 C   0  0  0  0  0  0  0  0  0  0  0  0
   32.8448   43.9808  -14.8035 C   0  0  0  0  0  0  0  0  0  0  0  0
   33.1014   45.3474  -14.7059 C   0  0  0  0  0  0  0  0  0  0  0  0
   33.4056   45.9091  -13.4669 C   0  0  0  0  0  0  0  0  0  0  0  0
   33.4614   45.1043  -12.3255 C   0  0  0  0  0  0  0  0  0  0  0  0
   34.8002   40.2020   -7.2986 C   0  0  0  0  0  0  0  0  0  0  0  0
   33.5855   39.3957   -7.6764 C   0  0  0  0  0  0  0  0  0  0  0  0
   32.9188   39.6155   -8.8915 C   0  0  0  0  0  0  0  0  0  0  0  0
   31.8113   38.8399   -9.2421 C   0  0  0  0  0  0  0  0  0  0  0  0
   31.3615   37.8331   -8.3900 C   0  0  0  0  0  0  0  0  0  0  0  0
   32.0239   37.5959   -7.1869 C   0  0  0  0  0  0  0  0  0  0  0  0
   33.1349   38.3663   -6.8348 C   0  0  0  0  0  0  0  0  0  0  0  0
   36.7500   42.1848   -3.5083 C   0  0  0  0  0  0  0  0  0  0  0  0
   37.9411   41.2141   -3.6687 C   0  0  0  0  0  0  0  0  0  0  0  0
   39.1149   41.5560   -3.5000 O   0  0  0  0  0  0  0  0  0  0  0  0
   37.6271   39.9462   -4.1477 N   0  0  0  0  0  0  0  0  0  0  0  0
   36.7399   39.7637   -4.5334 H   0  0  0  0  0  0  0  0  0  0  0  0
   38.6325   38.8899   -4.0701 C   0  0  0  0  0  0  0  0  0  0  0  0
   38.4674   38.1415   -2.7422 C   0  0  0  0  0  0  0  0  0  0  0  0
   38.6292   37.8489   -5.2391 C   0  0  0  0  0  0  0  0  0  0  0  0
   39.8840   36.8402   -5.4044 N   0  0  0  0  0  0  0  0  0  0  0  0
   39.9091   36.3477   -6.8663 C   0  0  0  0  0  0  0  0  0  0  0  0
   39.5964   35.6687   -4.4710 C   0  0  0  0  0  0  0  0  0  0  0  0
   41.1286   37.6707   -5.0761 C   0  0  0  0  0  0  0  0  0  0  0  0
   42.5638   37.1276   -5.1421 N   0  0  0  0  0  0  0  0  0  0  0  0
   42.9259   36.5907   -6.5497 C   0  0  0  0  0  0  0  0  0  0  0  0
   42.8203   35.9894   -4.1687 C   0  0  0  0  0  0  0  0  0  0  0  0
   43.5914   38.2838   -4.9450 C   0  0  0  0  0  0  0  0  0  0  0  0
   44.3610   38.4947   -3.6534 N   0  0  0  0  0  0  0  0  0  0  0  0
   43.2777   38.9851   -2.6075 C   0  0  0  0  0  0  0  0  0  0  0  0
   45.3794   39.6546   -3.6997 C   0  0  0  0  0  0  0  0  0  0  0  0
   45.0161   37.2818   -3.0175 C   0  0  0  0  0  0  0  0  0  0  0  0
   36.2432   42.0705   -2.0550 C   0  0  0  0  0  0  0  0  0  0  0  0
   36.9100   44.3332   -1.1735 C   0  0  0  0  0  0  0  0  0  0  0  0
   37.1207   42.8229   -1.0315 C   0  0  0  0  0  0  0  0  0  0  0  0
   36.8045   42.3917    0.4094 C   0  0  0  0  0  0  0  0  0  0  0  0
 48 49  1  0
 49 50  1  0
 49 47  1  0
 27 47  1  0
 27  1  1  0
  1  3  1  0
  3  4  2  0
  3  5  1  0
  3  7  1  0
  7 20  1  0
 20 21  1  0
 21 22  2  0
 22 23  1  0
 23 24  2  0
 24 25  1  0
 25 26  2  0
  7  8  1  0
  8  9  1  0
  9 10  2  0
  9 12  1  0
 12 13  1  0
 13 14  1  0
 14 15  2  0
 15 16  1  0
 16 17  2  0
 17 18  1  0
 18 19  2  0
 27 28  1  0
 28 29  2  0
 28 30  1  0
 30 32  1  0
 32 33  1  0
 32 34  1  0
 34 35  1  0
 35 36  1  0
 35 37  1  0
 35 38  1  0
 38 39  1  0
 39 40  1  0
 39 41  1  0
 39 42  1  0
 42 43  1  0
 43 44  1  0
 43 45  1  0
 43 46  1  0
 26 21  1  0
 19 14  1  0
  1  2  1  0
  5  6  1  0
  8 11  1  0
 30 31  1  0
M  CHG 1  35   1
M  CHG 1  39   1
M  CHG 1  43   1
M  END
> <minimizedAffinity>
-9.24053

> <CNNscore>
0.7826701999

> <CNNaffinity>
8.2303295135

> <CNN_VS>
6.4416337013

> <CNNaffinity_variance>
0.2951970100

$$$$



 50 51  0  0  0  0  0  0  0  0999 V2000
   35.7073   41.6995   -4.4819 N   0  0  0  0  0  0  0  0  0  0  0  0
   34.8070   41.9143   -4.0533 H   0  0  0  0  0  0  0  0  0  0  0  0
   35.6910   42.4062   -5.9550 P   0  0  0  0  0  0  0  0  0  0  0  0
   37.0173   42.4095   -6.6442 O   0  0  0  0  0  0  0  0  0  0  0  0
   35.2971   43.9249   -5.5831 O   0  0  0  0  0  0  0  0  0  0  0  0
   36.0065   44.3228   -5.0547 H   0  0  0  0  0  0  0  0  0  0  0  0
   34.2706   41.8168   -6.9335 C   0  0  0  0  0  0  0  0  0  0  0  0
   34.4469   42.2430   -8.3239 N   0  0  0  0  0  0  0  0  0  0  0  0
   33.6270   43.1111   -8.9705 C   0  0  0  0  0  0  0  0  0  0  0  0
   32.6693   43.6913   -8.4733 O   0  0  0  0  0  0  0  0  0  0  0  0
   35.2116   41.8752   -8.8232 H   0  0  0  0  0  0  0  0  0  0  0  0
   34.0451   43.2179  -10.2478 O   0  0  0  0  0  0  0  0  0  0  0  0
   33.5465   44.3423  -10.9860 C   0  0  0  0  0  0  0  0  0  0  0  0
   33.2277   43.9041  -12.3940 C   0  0  0  0  0  0  0  0  0  0  0  0
   33.1974   44.8387  -13.4399 C   0  0  0  0  0  0  0  0  0  0  0  0
   32.9373   44.4292  -14.7498 C   0  0  0  0  0  0  0  0  0  0  0  0
   32.7081   43.0834  -15.0308 C   0  0  0  0  0  0  0  0  0  0  0  0
   32.7457   42.1439  -14.0016 C   0  0  0  0  0  0  0  0  0  0  0  0
   33.0044   42.5497  -12.6893 C   0  0  0  0  0  0  0  0  0  0  0  0
   34.0909   40.2947   -6.9090 C   0  0  0  0  0  0  0  0  0  0  0  0
   34.4185   39.5869   -8.1974 C   0  0  0  0  0  0  0  0  0  0  0  0
   33.4550   39.4347   -9.2062 C   0  0  0  0  0  0  0  0  0  0  0  0
   33.7815   38.8021  -10.4079 C   0  0  0  0  0  0  0  0  0  0  0  0
   35.0724   38.3217  -10.6199 C   0  0  0  0  0  0  0  0  0  0  0  0
   36.0419   38.4794   -9.6312 C   0  0  0  0  0  0  0  0  0  0  0  0
   35.7205   39.1157   -8.4297 C   0  0  0  0  0  0  0  0  0  0  0  0
   36.7222   42.0140   -3.4780 C   0  0  0  0  0  0  0  0  0  0  0  0
   37.8401   40.9566   -3.6157 C   0  0  0  0  0  0  0  0  0  0  0  0
   38.9221   41.0412   -3.0281 O   0  0  0  0  0  0  0  0  0  0  0  0
   37.6113   39.9539   -4.5528 N   0  0  0  0  0  0  0  0  0  0  0  0
   36.8787   40.0377   -5.2051 H   0  0  0  0  0  0  0  0  0  0  0  0
   38.4736   38.7753   -4.5547 C   0  0  0  0  0  0  0  0  0  0  0  0
   38.1849   37.9488   -5.8134 C   0  0  0  0  0  0  0  0  0  0  0  0
   40.0128   39.0482   -4.4730 C   0  0  0  0  0  0  0  0  0  0  0  0
   41.0025   37.8619   -3.9909 N   0  0  0  0  0  0  0  0  0  0  0  0
   41.9014   38.4194   -2.8675 C   0  0  0  0  0  0  0  0  0  0  0  0
   41.8541   37.5159   -5.2080 C   0  0  0  0  0  0  0  0  0  0  0  0
   40.0898   36.7471   -3.4709 C   0  0  0  0  0  0  0  0  0  0  0  0
   40.5401   35.2919   -3.2741 N   0  0  0  0  0  0  0  0  0  0  0  0
   42.0827   35.1538   -3.2303 C   0  0  0  0  0  0  0  0  0  0  0  0
   40.0560   34.3600   -4.3723 C   0  0  0  0  0  0  0  0  0  0  0  0
   40.1129   34.7771   -1.8655 C   0  0  0  0  0  0  0  0  0  0  0  0
   38.8039   35.1690   -1.2039 N   0  0  0  0  0  0  0  0  0  0  0  0
   37.6767   34.6378   -2.1813 C   0  0  0  0  0  0  0  0  0  0  0  0
   38.5505   36.6911   -1.1426 C   0  0  0  0  0  0  0  0  0  0  0  0
   38.4870   34.5565    0.1486 C   0  0  0  0  0  0  0  0  0  0  0  0
   36.2235   41.9830   -2.0177 C   0  0  0  0  0  0  0  0  0  0  0  0
   37.2252   42.8820    0.1107 C   0  0  0  0  0  0  0  0  0  0  0  0
   36.5652   43.2592   -1.2188 C   0  0  0  0  0  0  0  0  0  0  0  0
   37.4973   44.1896   -2.0111 C   0  0  0  0  0  0  0  0  0  0  0  0
 48 49  1  0
 49 50  1  0
 49 47  1  0
 27 47  1  0
 27  1  1  0
  1  3  1  0
  3  4  2  0
  3  5  1  0
  3  7  1  0
  7 20  1  0
 20 21  1  0
 21 22  2  0
 22 23  1  0
 23 24  2  0
 24 25  1  0
 25 26  2  0
  7  8  1  0
  8  9  1  0
  9 10  2  0
  9 12  1  0
 12 13  1  0
 13 14  1  0
 14 15  2  0
 15 16  1  0
 16 17  2  0
 17 18  1  0
 18 19  2  0
 27 28  1  0
 28 29  2  0
 28 30  1  0
 30 32  1  0
 32 33  1  0
 32 34  1  0
 34 35  1  0
 35 36  1  0
 35 37  1  0
 35 38  1  0
 38 39  1  0
 39 40  1  0
 39 41  1  0
 39 42  1  0
 42 43  1  0
 43 44  1  0
 43 45  1  0
 43 46  1  0
 26 21  1  0
 19 14  1  0
  1  2  1  0
  5  6  1  0
  8 11  1  0
 30 31  1  0
M  CHG 1  35   1
M  CHG 1  39   1
M  CHG 1  43   1
M  END
> <minimizedAffinity>
-8.33633

> <CNNscore>
0.7765408754

> <CNNaffinity>
7.9784321785

> <CNN_VS>
6.1955785751

> <CNNaffinity_variance>
0.2626975477

$$$$



 50 51  0  0  0  0  0  0  0  0999 V2000
   35.8523   41.7591   -4.5551 N   0  0  0  0  0  0  0  0  0  0  0  0
   34.9032   41.8524   -4.1933 H   0  0  0  0  0  0  0  0  0  0  0  0
   35.8424   42.4379   -6.0413 P   0  0  0  0  0  0  0  0  0  0  0  0
   37.2018   42.7550   -6.5757 O   0  0  0  0  0  0  0  0  0  0  0  0
   35.0603   43.8201   -5.7626 O   0  0  0  0  0  0  0  0  0  0  0  0
   35.5889   44.3767   -5.1696 H   0  0  0  0  0  0  0  0  0  0  0  0
   34.7260   41.5249   -7.1561 C   0  0  0  0  0  0  0  0  0  0  0  0
   34.6794   42.2167   -8.4464 N   0  0  0  0  0  0  0  0  0  0  0  0
   33.7354   43.1287   -8.7949 C   0  0  0  0  0  0  0  0  0  0  0  0
   32.8340   43.5333   -8.0705 O   0  0  0  0  0  0  0  0  0  0  0  0
   35.3798   42.0064   -9.1056 H   0  0  0  0  0  0  0  0  0  0  0  0
   33.9589   43.5040  -10.0703 O   0  0  0  0  0  0  0  0  0  0  0  0
   33.3172   42.7176  -11.0842 C   0  0  0  0  0  0  0  0  0  0  0  0
   33.2000   43.5398  -12.3437 C   0  0  0  0  0  0  0  0  0  0  0  0
   33.4758   44.9152  -12.3232 C   0  0  0  0  0  0  0  0  0  0  0  0
   33.4022   45.6710  -13.4956 C   0  0  0  0  0  0  0  0  0  0  0  0
   33.0562   45.0625  -14.7010 C   0  0  0  0  0  0  0  0  0  0  0  0
   32.7898   43.6946  -14.7359 C   0  0  0  0  0  0  0  0  0  0  0  0
   32.8612   42.9350  -13.5648 C   0  0  0  0  0  0  0  0  0  0  0  0
   35.1455   40.0705   -7.3973 C   0  0  0  0  0  0  0  0  0  0  0  0
   34.0239   39.1249   -7.7381 C   0  0  0  0  0  0  0  0  0  0  0  0
   33.2233   38.5582   -6.7347 C   0  0  0  0  0  0  0  0  0  0  0  0
   32.1677   37.7061   -7.0675 C   0  0  0  0  0  0  0  0  0  0  0  0
   31.8943   37.4161   -8.4029 C   0  0  0  0  0  0  0  0  0  0  0  0
   32.6736   37.9839   -9.4092 C   0  0  0  0  0  0  0  0  0  0  0  0
   33.7272   38.8404   -9.0806 C   0  0  0  0  0  0  0  0  0  0  0  0
   36.7414   42.2240   -3.4921 C   0  0  0  0  0  0  0  0  0  0  0  0
   37.9622   41.2774   -3.4747 C   0  0  0  0  0  0  0  0  0  0  0  0
   39.1275   41.6815   -3.5194 O   0  0  0  0  0  0  0  0  0  0  0  0
   37.6736   39.9177   -3.5381 N   0  0  0  0  0  0  0  0  0  0  0  0
   36.7683   39.6098   -3.7723 H   0  0  0  0  0  0  0  0  0  0  0  0
   38.7329   38.9540   -3.2523 C   0  0  0  0  0  0  0  0  0  0  0  0
   38.7991   38.7209   -1.7384 C   0  0  0  0  0  0  0  0  0  0  0  0
   38.6155   37.5684   -3.9710 C   0  0  0  0  0  0  0  0  0  0  0  0
   39.8441   37.0439   -4.8845 N   0  0  0  0  0  0  0  0  0  0  0  0
   40.9857   38.0771   -4.7851 C   0  0  0  0  0  0  0  0  0  0  0  0
   39.3082   37.0040   -6.3120 C   0  0  0  0  0  0  0  0  0  0  0  0
   40.2598   35.6969   -4.2853 C   0  0  0  0  0  0  0  0  0  0  0  0
   39.6847   34.3449   -4.7333 N   0  0  0  0  0  0  0  0  0  0  0  0
   38.1579   34.4101   -4.9886 C   0  0  0  0  0  0  0  0  0  0  0  0
   39.9042   33.2339   -3.7203 C   0  0  0  0  0  0  0  0  0  0  0  0
   40.2468   33.9532   -6.1341 C   0  0  0  0  0  0  0  0  0  0  0  0
   41.7317   33.9148   -6.4479 N   0  0  0  0  0  0  0  0  0  0  0  0
   41.9237   32.6352   -7.3610 C   0  0  0  0  0  0  0  0  0  0  0  0
   42.6349   33.6348   -5.2271 C   0  0  0  0  0  0  0  0  0  0  0  0
   42.3137   35.0694   -7.2436 C   0  0  0  0  0  0  0  0  0  0  0  0
   36.1225   42.2184   -2.0782 C   0  0  0  0  0  0  0  0  0  0  0  0
   36.8843   44.3892   -1.0538 C   0  0  0  0  0  0  0  0  0  0  0  0
   37.0241   42.8649   -1.0044 C   0  0  0  0  0  0  0  0  0  0  0  0
   36.6752   42.3608    0.4049 C   0  0  0  0  0  0  0  0  0  0  0  0
 48 49  1  0
 49 50  1  0
 49 47  1  0
 27 47  1  0
 27  1  1  0
  1  3  1  0
  3  4  2  0
  3  5  1  0
  3  7  1  0
  7 20  1  0
 20 21  1  0
 21 22  2  0
 22 23  1  0
 23 24  2  0
 24 25  1  0
 25 26  2  0
  7  8  1  0
  8  9  1  0
  9 10  2  0
  9 12  1  0
 12 13  1  0
 13 14  1  0
 14 15  2  0
 15 16  1  0
 16 17  2  0
 17 18  1  0
 18 19  2  0
 27 28  1  0
 28 29  2  0
 28 30  1  0
 30 32  1  0
 32 33  1  0
 32 34  1  0
 34 35  1  0
 35 36  1  0
 35 37  1  0
 35 38  1  0
 38 39  1  0
 39 40  1  0
 39 41  1  0
 39 42  1  0
 42 43  1  0
 43 44  1  0
 43 45  1  0
 43 46  1  0
 26 21  1  0
 19 14  1  0
  1  2  1  0
  5  6  1  0
  8 11  1  0
 30 31  1  0
M  CHG 1  35   1
M  CHG 1  39   1
M  CHG 1  43   1
M  END
> <minimizedAffinity>
-8.29783

> <CNNscore>
0.7292273045

> <CNNaffinity>
8.1958627701

> <CNN_VS>
5.9766469002

> <CNNaffinity_variance>
0.0753712505

$$$$



 50 51  0  0  0  0  0  0  0  0999 V2000
   35.9042   41.5015   -4.7915 N   0  0  0  0  0  0  0  0  0  0  0  0
   34.9883   41.3986   -4.3545 H   0  0  0  0  0  0  0  0  0  0  0  0
   35.6473   42.2608   -6.2153 P   0  0  0  0  0  0  0  0  0  0  0  0
   36.8754   42.4174   -7.0528 O   0  0  0  0  0  0  0  0  0  0  0  0
   35.1662   43.7192   -5.7242 O   0  0  0  0  0  0  0  0  0  0  0  0
   35.8955   44.1618   -5.2625 H   0  0  0  0  0  0  0  0  0  0  0  0
   34.1783   41.5777   -7.0506 C   0  0  0  0  0  0  0  0  0  0  0  0
   34.1919   42.0047   -8.4518 N   0  0  0  0  0  0  0  0  0  0  0  0
   33.3759   42.9574   -8.9720 C   0  0  0  0  0  0  0  0  0  0  0  0
   32.5619   43.6205   -8.3404 O   0  0  0  0  0  0  0  0  0  0  0  0
   34.8362   41.5717   -9.0574 H   0  0  0  0  0  0  0  0  0  0  0  0
   33.6126   43.0414  -10.2965 O   0  0  0  0  0  0  0  0  0  0  0  0
   33.6659   44.3646  -10.8482 C   0  0  0  0  0  0  0  0  0  0  0  0
   33.4034   44.2898  -12.3320 C   0  0  0  0  0  0  0  0  0  0  0  0
   32.9142   43.1081  -12.9088 C   0  0  0  0  0  0  0  0  0  0  0  0
   32.6371   43.0483  -14.2766 C   0  0  0  0  0  0  0  0  0  0  0  0
   32.8417   44.1669  -15.0825 C   0  0  0  0  0  0  0  0  0  0  0  0
   33.3177   45.3498  -14.5192 C   0  0  0  0  0  0  0  0  0  0  0  0
   33.5974   45.4135  -13.1512 C   0  0  0  0  0  0  0  0  0  0  0  0
   34.0972   40.0476   -7.0078 C   0  0  0  0  0  0  0  0  0  0  0  0
   34.5088   39.3453   -8.2749 C   0  0  0  0  0  0  0  0  0  0  0  0
   35.8538   39.0349   -8.5276 C   0  0  0  0  0  0  0  0  0  0  0  0
   36.2173   38.3568   -9.6934 C   0  0  0  0  0  0  0  0  0  0  0  0
   35.2445   37.9745  -10.6151 C   0  0  0  0  0  0  0  0  0  0  0  0
   33.9038   38.2646  -10.3686 C   0  0  0  0  0  0  0  0  0  0  0  0
   33.5356   38.9385   -9.2015 C   0  0  0  0  0  0  0  0  0  0  0  0
   36.7870   42.0504   -3.7638 C   0  0  0  0  0  0  0  0  0  0  0  0
   38.0178   41.1206   -3.6785 C   0  0  0  0  0  0  0  0  0  0  0  0
   39.1394   41.5177   -3.3505 O   0  0  0  0  0  0  0  0  0  0  0  0
   37.8222   39.8168   -4.1231 N   0  0  0  0  0  0  0  0  0  0  0  0
   37.0127   39.5782   -4.6301 H   0  0  0  0  0  0  0  0  0  0  0  0
   38.8349   38.8072   -3.8267 C   0  0  0  0  0  0  0  0  0  0  0  0
   40.2217   39.3916   -4.1197 C   0  0  0  0  0  0  0  0  0  0  0  0
   38.8278   38.2315   -2.3711 C   0  0  0  0  0  0  0  0  0  0  0  0
   39.2852   36.6989   -2.1239 N   0  0  0  0  0  0  0  0  0  0  0  0
   38.4051   36.1153   -0.9989 C   0  0  0  0  0  0  0  0  0  0  0  0
   40.7356   36.7720   -1.6576 C   0  0  0  0  0  0  0  0  0  0  0  0
   39.0422   35.9751   -3.4518 C   0  0  0  0  0  0  0  0  0  0  0  0
   39.9313   34.8423   -3.9863 N   0  0  0  0  0  0  0  0  0  0  0  0
   39.2588   34.0626   -5.1441 C   0  0  0  0  0  0  0  0  0  0  0  0
   40.2933   33.8134   -2.9284 C   0  0  0  0  0  0  0  0  0  0  0  0
   41.2063   35.4278   -4.6666 C   0  0  0  0  0  0  0  0  0  0  0  0
   41.3573   35.5517   -6.1722 N   0  0  0  0  0  0  0  0  0  0  0  0
   40.2974   36.6477   -6.6005 C   0  0  0  0  0  0  0  0  0  0  0  0
   40.9280   34.2961   -6.9620 C   0  0  0  0  0  0  0  0  0  0  0  0
   42.6887   36.0463   -6.7084 C   0  0  0  0  0  0  0  0  0  0  0  0
   36.1664   42.1389   -2.3535 C   0  0  0  0  0  0  0  0  0  0  0  0
   36.9131   44.3787   -1.4774 C   0  0  0  0  0  0  0  0  0  0  0  0
   37.0635   42.8621   -1.3259 C   0  0  0  0  0  0  0  0  0  0  0  0
   36.7180   42.4514    0.1143 C   0  0  0  0  0  0  0  0  0  0  0  0
 48 49  1  0
 49 50  1  0
 49 47  1  0
 27 47  1  0
 27  1  1  0
  1  3  1  0
  3  4  2  0
  3  5  1  0
  3  7  1  0
  7 20  1  0
 20 21  1  0
 21 22  2  0
 22 23  1  0
 23 24  2  0
 24 25  1  0
 25 26  2  0
  7  8  1  0
  8  9  1  0
  9 10  2  0
  9 12  1  0
 12 13  1  0
 13 14  1  0
 14 15  2  0
 15 16  1  0
 16 17  2  0
 17 18  1  0
 18 19  2  0
 27 28  1  0
 28 29  2  0
 28 30  1  0
 30 32  1  0
 32 33  1  0
 32 34  1  0
 34 35  1  0
 35 36  1  0
 35 37  1  0
 35 38  1  0
 38 39  1  0
 39 40  1  0
 39 41  1  0
 39 42  1  0
 42 43  1  0
 43 44  1  0
 43 45  1  0
 43 46  1  0
 26 21  1  0
 19 14  1  0
  1  2  1  0
  5  6  1  0
  8 11  1  0
 30 31  1  0
M  CHG 1  35   1
M  CHG 1  39   1
M  CHG 1  43   1
M  END
> <minimizedAffinity>
-8.29253

> <CNNscore>
0.6942178607

> <CNNaffinity>
8.0164337158

> <CNN_VS>
5.5651516914

> <CNNaffinity_variance>
0.1947712898

$$$$



 50 51  0  0  0  0  0  0  0  0999 V2000
   36.2294   41.1623   -4.9888 N   0  0  0  0  0  0  0  0  0  0  0  0
   35.4491   40.7202   -4.5029 H   0  0  0  0  0  0  0  0  0  0  0  0
   35.5714   42.0631   -6.1827 P   0  0  0  0  0  0  0  0  0  0  0  0
   36.4910   43.1009   -6.7408 O   0  0  0  0  0  0  0  0  0  0  0  0
   34.3668   42.8022   -5.4066 O   0  0  0  0  0  0  0  0  0  0  0  0
   34.7327   43.3971   -4.7335 H   0  0  0  0  0  0  0  0  0  0  0  0
   34.7195   40.9996   -7.3934 C   0  0  0  0  0  0  0  0  0  0  0  0
   34.6679   41.6981   -8.6800 N   0  0  0  0  0  0  0  0  0  0  0  0
   33.7827   42.6819   -8.9844 C   0  0  0  0  0  0  0  0  0  0  0  0
   32.9496   43.1524   -8.2192 O   0  0  0  0  0  0  0  0  0  0  0  0
   35.3189   41.4367   -9.3707 H   0  0  0  0  0  0  0  0  0  0  0  0
   33.9761   43.0439  -10.2686 O   0  0  0  0  0  0  0  0  0  0  0  0
   32.9142   42.7328  -11.1816 C   0  0  0  0  0  0  0  0  0  0  0  0
   33.0427   43.6095  -12.4027 C   0  0  0  0  0  0  0  0  0  0  0  0
   32.7036   43.1157  -13.6713 C   0  0  0  0  0  0  0  0  0  0  0  0
   32.7883   43.9370  -14.7980 C   0  0  0  0  0  0  0  0  0  0  0  0
   33.2085   45.2599  -14.6708 C   0  0  0  0  0  0  0  0  0  0  0  0
   33.5383   45.7649  -13.4141 C   0  0  0  0  0  0  0  0  0  0  0  0
   33.4562   44.9461  -12.2843 C   0  0  0  0  0  0  0  0  0  0  0  0
   35.3929   39.6388   -7.6039 C   0  0  0  0  0  0  0  0  0  0  0  0
   34.4623   38.4547   -7.6146 C   0  0  0  0  0  0  0  0  0  0  0  0
   34.9452   37.1550   -7.8309 C   0  0  0  0  0  0  0  0  0  0  0  0
   34.0747   36.0629   -7.8086 C   0  0  0  0  0  0  0  0  0  0  0  0
   32.7161   36.2534   -7.5632 C   0  0  0  0  0  0  0  0  0  0  0  0
   32.2267   37.5379   -7.3329 C   0  0  0  0  0  0  0  0  0  0  0  0
   33.0950   38.6322   -7.3498 C   0  0  0  0  0  0  0  0  0  0  0  0
   37.0787   41.7445   -3.9513 C   0  0  0  0  0  0  0  0  0  0  0  0
   38.2530   40.7667   -3.7242 C   0  0  0  0  0  0  0  0  0  0  0  0
   39.2634   41.0666   -3.0821 O   0  0  0  0  0  0  0  0  0  0  0  0
   38.1693   39.5541   -4.4012 N   0  0  0  0  0  0  0  0  0  0  0  0
   37.5048   39.4263   -5.1163 H   0  0  0  0  0  0  0  0  0  0  0  0
   39.0813   38.4736   -4.0358 C   0  0  0  0  0  0  0  0  0  0  0  0
   40.5227   38.9320   -4.2868 C   0  0  0  0  0  0  0  0  0  0  0  0
   38.9690   37.9452   -2.5666 C   0  0  0  0  0  0  0  0  0  0  0  0
   39.2767   36.3861   -2.2606 N   0  0  0  0  0  0  0  0  0  0  0  0
   40.2143   35.8600   -3.3673 C   0  0  0  0  0  0  0  0  0  0  0  0
   37.9295   35.6759   -2.3462 C   0  0  0  0  0  0  0  0  0  0  0  0
   39.9636   36.3607   -0.8917 C   0  0  0  0  0  0  0  0  0  0  0  0
   41.1172   35.4139   -0.5285 N   0  0  0  0  0  0  0  0  0  0  0  0
   41.2585   35.2182    1.0020 C   0  0  0  0  0  0  0  0  0  0  0  0
   42.4692   35.8962   -1.0268 C   0  0  0  0  0  0  0  0  0  0  0  0
   40.8118   33.9690   -1.0289 C   0  0  0  0  0  0  0  0  0  0  0  0
   40.1168   32.9266   -0.1713 N   0  0  0  0  0  0  0  0  0  0  0  0
   38.8642   33.6739    0.4456 C   0  0  0  0  0  0  0  0  0  0  0  0
   40.9237   32.4774    1.0663 C   0  0  0  0  0  0  0  0  0  0  0  0
   39.5528   31.7021   -0.8695 C   0  0  0  0  0  0  0  0  0  0  0  0
   36.3834   41.9676   -2.5916 C   0  0  0  0  0  0  0  0  0  0  0  0
   37.2448   44.2318   -1.9037 C   0  0  0  0  0  0  0  0  0  0  0  0
   37.2499   42.7368   -1.5712 C   0  0  0  0  0  0  0  0  0  0  0  0
   36.7500   42.5271   -0.1331 C   0  0  0  0  0  0  0  0  0  0  0  0
 48 49  1  0
 49 50  1  0
 49 47  1  0
 27 47  1  0
 27  1  1  0
  1  3  1  0
  3  4  2  0
  3  5  1  0
  3  7  1  0
  7 20  1  0
 20 21  1  0
 21 22  2  0
 22 23  1  0
 23 24  2  0
 24 25  1  0
 25 26  2  0
  7  8  1  0
  8  9  1  0
  9 10  2  0
  9 12  1  0
 12 13  1  0
 13 14  1  0
 14 15  2  0
 15 16  1  0
 16 17  2  0
 17 18  1  0
 18 19  2  0
 27 28  1  0
 28 29  2  0
 28 30  1  0
 30 32  1  0
 32 33  1  0
 32 34  1  0
 34 35  1  0
 35 36  1  0
 35 37  1  0
 35 38  1  0
 38 39  1  0
 39 40  1  0
 39 41  1  0
 39 42  1  0
 42 43  1  0
 43 44  1  0
 43 45  1  0
 43 46  1  0
 26 21  1  0
 19 14  1  0
  1  2  1  0
  5  6  1  0
  8 11  1  0
 30 31  1  0
M  CHG 1  35   1
M  CHG 1  39   1
M  CHG 1  43   1
M  END
> <minimizedAffinity>
-8.04363

> <CNNscore>
0.6592640877

> <CNNaffinity>
8.1345815659

> <CNN_VS>
5.3628373146

> <CNNaffinity_variance>
0.0585816763

$$$$



 50 51  0  0  0  0  0  0  0  0999 V2000
   36.2922   41.4490   -4.7936 N   0  0  0  0  0  0  0  0  0  0  0  0
   35.4679   41.2035   -4.2452 H   0  0  0  0  0  0  0  0  0  0  0  0
   35.7422   42.2364   -6.1155 P   0  0  0  0  0  0  0  0  0  0  0  0
   36.8091   42.5958   -7.0987 O   0  0  0  0  0  0  0  0  0  0  0  0
   35.1578   43.5920   -5.4671 O   0  0  0  0  0  0  0  0  0  0  0  0
   35.8845   44.1044   -5.0794 H   0  0  0  0  0  0  0  0  0  0  0  0
   34.2659   41.4060   -6.7888 C   0  0  0  0  0  0  0  0  0  0  0  0
   34.1340   41.7549   -8.2054 N   0  0  0  0  0  0  0  0  0  0  0  0
   33.3925   42.7912   -8.6749 C   0  0  0  0  0  0  0  0  0  0  0  0
   32.7810   43.5992   -7.9863 O   0  0  0  0  0  0  0  0  0  0  0  0
   34.6155   41.2007   -8.8614 H   0  0  0  0  0  0  0  0  0  0  0  0
   33.4422   42.7720  -10.0220 O   0  0  0  0  0  0  0  0  0  0  0  0
   33.6774   44.0323  -10.6656 C   0  0  0  0  0  0  0  0  0  0  0  0
   32.8984   44.0783  -11.9568 C   0  0  0  0  0  0  0  0  0  0  0  0
   31.8982   45.0430  -12.1498 C   0  0  0  0  0  0  0  0  0  0  0  0
   31.2004   45.1095  -13.3580 C   0  0  0  0  0  0  0  0  0  0  0  0
   31.4950   44.2169  -14.3873 C   0  0  0  0  0  0  0  0  0  0  0  0
   32.4937   43.2605  -14.2111 C   0  0  0  0  0  0  0  0  0  0  0  0
   33.1934   43.1898  -13.0033 C   0  0  0  0  0  0  0  0  0  0  0  0
   34.3038   39.8787   -6.6642 C   0  0  0  0  0  0  0  0  0  0  0  0
   34.5104   39.1322   -7.9558 C   0  0  0  0  0  0  0  0  0  0  0  0
   33.4286   38.5634   -8.6453 C   0  0  0  0  0  0  0  0  0  0  0  0
   33.6315   37.8994   -9.8573 C   0  0  0  0  0  0  0  0  0  0  0  0
   34.9121   37.8020  -10.3984 C   0  0  0  0  0  0  0  0  0  0  0  0
   35.9925   38.3751   -9.7300 C   0  0  0  0  0  0  0  0  0  0  0  0
   35.7930   39.0441   -8.5199 C   0  0  0  0  0  0  0  0  0  0  0  0
   37.2364   42.0595   -3.8596 C   0  0  0  0  0  0  0  0  0  0  0  0
   38.2706   40.9746   -3.4853 C   0  0  0  0  0  0  0  0  0  0  0  0
   39.4841   41.1925   -3.4301 O   0  0  0  0  0  0  0  0  0  0  0  0
   37.7677   39.6857   -3.3375 N   0  0  0  0  0  0  0  0  0  0  0  0
   36.8576   39.4668   -3.6426 H   0  0  0  0  0  0  0  0  0  0  0  0
   38.6092   38.6625   -2.7231 C   0  0  0  0  0  0  0  0  0  0  0  0
   38.2272   38.5248   -1.2447 C   0  0  0  0  0  0  0  0  0  0  0  0
   38.5677   37.2462   -3.3885 C   0  0  0  0  0  0  0  0  0  0  0  0
   39.1181   37.0652   -4.8996 N   0  0  0  0  0  0  0  0  0  0  0  0
   40.4495   37.8361   -5.0165 C   0  0  0  0  0  0  0  0  0  0  0  0
   38.0691   37.7095   -5.8001 C   0  0  0  0  0  0  0  0  0  0  0  0
   39.3295   35.5595   -5.0855 C   0  0  0  0  0  0  0  0  0  0  0  0
   39.3693   34.8615   -6.4531 N   0  0  0  0  0  0  0  0  0  0  0  0
   40.5908   33.9193   -6.5978 C   0  0  0  0  0  0  0  0  0  0  0  0
   39.4342   35.8318   -7.6206 C   0  0  0  0  0  0  0  0  0  0  0  0
   38.1653   33.8812   -6.5977 C   0  0  0  0  0  0  0  0  0  0  0  0
   37.0780   34.0554   -7.6428 N   0  0  0  0  0  0  0  0  0  0  0  0
   36.0756   32.8549   -7.3940 C   0  0  0  0  0  0  0  0  0  0  0  0
   37.5514   33.8442   -9.0974 C   0  0  0  0  0  0  0  0  0  0  0  0
   36.2286   35.3117   -7.5730 C   0  0  0  0  0  0  0  0  0  0  0  0
   36.6092   42.5825   -2.5500 C   0  0  0  0  0  0  0  0  0  0  0  0
   36.3432   44.8144   -1.4143 C   0  0  0  0  0  0  0  0  0  0  0  0
   37.3531   43.7935   -1.9469 C   0  0  0  0  0  0  0  0  0  0  0  0
   38.3015   43.3680   -0.8149 C   0  0  0  0  0  0  0  0  0  0  0  0
 48 49  1  0
 49 50  1  0
 49 47  1  0
 27 47  1  0
 27  1  1  0
  1  3  1  0
  3  4  2  0
  3  5  1  0
  3  7  1  0
  7 20  1  0
 20 21  1  0
 21 22  2  0
 22 23  1  0
 23 24  2  0
 24 25  1  0
 25 26  2  0
  7  8  1  0
  8  9  1  0
  9 10  2  0
  9 12  1  0
 12 13  1  0
 13 14  1  0
 14 15  2  0
 15 16  1  0
 16 17  2  0
 17 18  1  0
 18 19  2  0
 27 28  1  0
 28 29  2  0
 28 30  1  0
 30 32  1  0
 32 33  1  0
 32 34  1  0
 34 35  1  0
 35 36  1  0
 35 37  1  0
 35 38  1  0
 38 39  1  0
 39 40  1  0
 39 41  1  0
 39 42  1  0
 42 43  1  0
 43 44  1  0
 43 45  1  0
 43 46  1  0
 26 21  1  0
 19 14  1  0
  1  2  1  0
  5  6  1  0
  8 11  1  0
 30 31  1  0
M  CHG 1  35   1
M  CHG 1  39   1
M  CHG 1  43   1
M  END
> <minimizedAffinity>
-7.18941

> <CNNscore>
0.6511269212

> <CNNaffinity>
8.0112476349

> <CNN_VS>
5.2163391113

> <CNNaffinity_variance>
0.0219899621

$$$$
