


 22 22  0  0  0  0  0  0  0  0999 V2000
   83.5930    8.2929   34.9516 C   0  0  0  0  0  0  0  0  0  0  0  0
   82.2790    7.6959   34.4556 C   0  0  0  0  0  0  0  0  0  0  0  0
   81.1020    8.0212   35.3815 C   0  0  0  0  0  0  0  0  0  0  0  0
   79.7744    7.4743   34.8314 C   0  0  0  0  0  0  0  0  0  0  0  0
   79.8972    6.9589   33.3917 C   0  0  0  0  0  0  0  0  0  0  0  0
   81.0227    5.9041   33.2905 C   0  0  0  0  0  0  0  0  0  0  0  0
   82.2233    6.2658   34.0759 N   0  0  0  0  0  0  0  0  0  0  0  0
   82.8929    5.1848   34.6591 C   0  0  0  0  0  0  0  0  0  0  0  0
   82.6751    4.0237   34.2997 O   0  0  0  0  0  0  0  0  0  0  0  0
   81.2805    5.3720   31.8555 C   0  0  0  0  0  0  0  0  0  0  0  0
   81.1979    6.2549   30.5539 C   0  0  0  0  0  0  0  0  0  0  0  0
   79.7229    6.5146   30.1936 C   0  0  0  0  0  0  0  0  0  0  0  0
   81.8885    5.5680   29.3765 C   0  0  0  0  0  0  0  0  0  0  0  0
   81.8948    7.6174   30.9445 C   0  0  0  0  0  0  0  0  0  0  0  0
   83.4158    7.9271   30.7569 C   0  0  0  0  0  0  0  0  0  0  0  0
   83.8207    9.2598   31.4160 C   0  0  0  0  0  0  0  0  0  0  0  0
   83.6510    8.0981   29.2331 C   0  0  0  0  0  0  0  0  0  0  0  0
   84.3494    6.8114   31.2379 C   0  0  0  0  0  0  0  0  0  0  0  0
   83.9006    5.4432   35.7577 C   0  0  0  0  0  0  0  0  0  0  0  0
   85.3041    5.0216   35.3311 C   0  0  0  0  0  0  0  0  0  0  0  0
   85.7697    3.4562   36.1353 S   0  0  0  0  0  0  0  0  0  0  0  0
   85.7568    3.6188   37.4855 H   0  0  0  0  0  0  0  0  0  0  0  0
  2  1  1  0
  2  3  1  0
  3  4  1  0
  4  5  1  0
  5  6  1  0
  6 10  1  0
 10 11  1  0
 11 12  1  0
 11 13  1  0
 11 14  1  0
 14 15  1  0
 15 16  1  0
 15 17  1  0
 15 18  1  0
  6  7  1  0
  7  8  1  0
  8  9  2  0
  8 19  1  0
 19 20  1  0
 20 21  1  0
  7  2  1  0
 21 22  1  0
M  END
> <minimizedAffinity>
-4.32800

> <CNNscore>
0.7162352204

> <CNNaffinity>
5.0733437538

> <CNN_VS>
3.6337075233

> <CNNaffinity_variance>
0.0611704588

$$$$



 22 22  0  0  0  0  0  0  0  0999 V2000
   83.6596    8.5214   34.3704 C   0  0  0  0  0  0  0  0  0  0  0  0
   82.2810    7.8882   34.2041 C   0  0  0  0  0  0  0  0  0  0  0  0
   81.3412    8.2179   35.3689 C   0  0  0  0  0  0  0  0  0  0  0  0
   79.9358    7.6331   35.1519 C   0  0  0  0  0  0  0  0  0  0  0  0
   79.7362    7.0810   33.7346 C   0  0  0  0  0  0  0  0  0  0  0  0
   80.8324    6.0437   33.4004 C   0  0  0  0  0  0  0  0  0  0  0  0
   82.1727    6.4476   33.8796 N   0  0  0  0  0  0  0  0  0  0  0  0
   82.9835    5.3947   34.3168 C   0  0  0  0  0  0  0  0  0  0  0  0
   82.7160    4.2207   34.0433 O   0  0  0  0  0  0  0  0  0  0  0  0
   80.7657    5.4775   31.9568 C   0  0  0  0  0  0  0  0  0  0  0  0
   80.7668    6.3642   30.6552 C   0  0  0  0  0  0  0  0  0  0  0  0
   81.6085    5.6812   29.5607 C   0  0  0  0  0  0  0  0  0  0  0  0
   81.3389    7.7534   30.9343 C   0  0  0  0  0  0  0  0  0  0  0  0
   79.2548    6.4196   30.2023 C   0  0  0  0  0  0  0  0  0  0  0  0
   78.7191    7.2341   28.9798 C   0  0  0  0  0  0  0  0  0  0  0  0
   77.3071    7.7968   29.2331 C   0  0  0  0  0  0  0  0  0  0  0  0
   78.5917    6.2348   27.8001 C   0  0  0  0  0  0  0  0  0  0  0  0
   79.6473    8.3631   28.5202 C   0  0  0  0  0  0  0  0  0  0  0  0
   84.2105    5.7004   35.1475 C   0  0  0  0  0  0  0  0  0  0  0  0
   84.1308    5.0330   36.5179 C   0  0  0  0  0  0  0  0  0  0  0  0
   85.5930    3.9862   36.8012 S   0  0  0  0  0  0  0  0  0  0  0  0
   85.6481    3.0170   35.8487 H   0  0  0  0  0  0  0  0  0  0  0  0
  2  1  1  0
  2  3  1  0
  3  4  1  0
  4  5  1  0
  5  6  1  0
  6 10  1  0
 10 11  1  0
 11 12  1  0
 11 13  1  0
 11 14  1  0
 14 15  1  0
 15 16  1  0
 15 17  1  0
 15 18  1  0
  6  7  1  0
  7  8  1  0
  8  9  2  0
  8 19  1  0
 19 20  1  0
 20 21  1  0
  7  2  1  0
 21 22  1  0
M  END
> <minimizedAffinity>
-5.25160

> <CNNscore>
0.7011925578

> <CNNaffinity>
4.8718390465

> <CNN_VS>
3.4160971642

> <CNNaffinity_variance>
0.2404917032

$$$$



 22 22  0  0  0  0  0  0  0  0999 V2000
   81.0404    8.7647   34.1984 C   0  0  0  0  0  0  0  0  0  0  0  0
   80.7144    7.6370   33.2233 C   0  0  0  0  0  0  0  0  0  0  0  0
   79.3627    6.9788   33.5206 C   0  0  0  0  0  0  0  0  0  0  0  0
   79.0161    5.8941   32.4874 C   0  0  0  0  0  0  0  0  0  0  0  0
   79.9672    5.8969   31.2838 C   0  0  0  0  0  0  0  0  0  0  0  0
   81.4342    5.7735   31.7551 C   0  0  0  0  0  0  0  0  0  0  0  0
   81.7232    6.5864   32.9571 N   0  0  0  0  0  0  0  0  0  0  0  0
   82.6402    6.0165   33.8467 C   0  0  0  0  0  0  0  0  0  0  0  0
   83.3617    5.0728   33.5097 O   0  0  0  0  0  0  0  0  0  0  0  0
   82.4855    5.8426   30.6155 C   0  0  0  0  0  0  0  0  0  0  0  0
   82.2952    6.6572   29.2811 C   0  0  0  0  0  0  0  0  0  0  0  0
   81.9863    5.6918   28.1212 C   0  0  0  0  0  0  0  0  0  0  0  0
   83.5487    7.4630   28.9429 C   0  0  0  0  0  0  0  0  0  0  0  0
   81.0429    7.5822   29.5471 C   0  0  0  0  0  0  0  0  0  0  0  0
   80.5027    8.6602   28.5518 C   0  0  0  0  0  0  0  0  0  0  0  0
   81.0163   10.0723   28.8931 C   0  0  0  0  0  0  0  0  0  0  0  0
   78.9617    8.6960   28.7270 C   0  0  0  0  0  0  0  0  0  0  0  0
   80.7848    8.3532   27.0774 C   0  0  0  0  0  0  0  0  0  0  0  0
   82.7457    6.5638   35.2533 C   0  0  0  0  0  0  0  0  0  0  0  0
   82.8561    5.4378   36.2778 C   0  0  0  0  0  0  0  0  0  0  0  0
   84.5704    5.2837   36.8708 S   0  0  0  0  0  0  0  0  0  0  0  0
   85.3888    4.9988   35.8227 H   0  0  0  0  0  0  0  0  0  0  0  0
  2  1  1  0
  2  3  1  0
  3  4  1  0
  4  5  1  0
  5  6  1  0
  6 10  1  0
 10 11  1  0
 11 12  1  0
 11 13  1  0
 11 14  1  0
 14 15  1  0
 15 16  1  0
 15 17  1  0
 15 18  1  0
  6  7  1  0
  7  8  1  0
  8  9  2  0
  8 19  1  0
 19 20  1  0
 20 21  1  0
  7  2  1  0
 21 22  1  0
M  END
> <minimizedAffinity>
-4.74215

> <CNNscore>
0.6601423025

> <CNNaffinity>
5.1489758492

> <CNN_VS>
3.3990566730

> <CNNaffinity_variance>
0.0296695232

$$$$



 22 22  0  0  0  0  0  0  0  0999 V2000
   81.0576    4.3874   33.6591 C   0  0  0  0  0  0  0  0  0  0  0  0
   81.3053    5.0353   32.2997 C   0  0  0  0  0  0  0  0  0  0  0  0
   82.6308    5.8030   32.2502 C   0  0  0  0  0  0  0  0  0  0  0  0
   82.8997    6.3889   30.8542 C   0  0  0  0  0  0  0  0  0  0  0  0
   81.9206    5.8677   29.7944 C   0  0  0  0  0  0  0  0  0  0  0  0
   80.4614    6.1212   30.2369 C   0  0  0  0  0  0  0  0  0  0  0  0
   80.2411    5.8540   31.6754 N   0  0  0  0  0  0  0  0  0  0  0  0
   79.3200    6.7032   32.2976 C   0  0  0  0  0  0  0  0  0  0  0  0
   78.5461    7.4053   31.6396 O   0  0  0  0  0  0  0  0  0  0  0  0
   79.3870    5.5619   29.2665 C   0  0  0  0  0  0  0  0  0  0  0  0
   78.9398    6.2719   27.9337 C   0  0  0  0  0  0  0  0  0  0  0  0
   80.1396    7.0083   27.3081 C   0  0  0  0  0  0  0  0  0  0  0  0
   77.8156    7.2739   28.1926 C   0  0  0  0  0  0  0  0  0  0  0  0
   78.4860    5.0961   26.9818 C   0  0  0  0  0  0  0  0  0  0  0  0
   78.1621    5.2547   25.4604 C   0  0  0  0  0  0  0  0  0  0  0  0
   78.4915    6.6681   24.9427 C   0  0  0  0  0  0  0  0  0  0  0  0
   76.6286    5.0751   25.3103 C   0  0  0  0  0  0  0  0  0  0  0  0
   78.8315    4.2094   24.5620 C   0  0  0  0  0  0  0  0  0  0  0  0
   79.2752    6.7677   33.8086 C   0  0  0  0  0  0  0  0  0  0  0  0
   80.1779    7.8770   34.3416 C   0  0  0  0  0  0  0  0  0  0  0  0
   81.0678    7.3139   35.8266 S   0  0  0  0  0  0  0  0  0  0  0  0
   80.1712    6.9815   36.7937 H   0  0  0  0  0  0  0  0  0  0  0  0
  2  1  1  0
  2  3  1  0
  3  4  1  0
  4  5  1  0
  5  6  1  0
  6 10  1  0
 10 11  1  0
 11 12  1  0
 11 13  1  0
 11 14  1  0
 14 15  1  0
 15 16  1  0
 15 17  1  0
 15 18  1  0
  6  7  1  0
  7  8  1  0
  8  9  2  0
  8 19  1  0
 19 20  1  0
 20 21  1  0
  7  2  1  0
 21 22  1  0
M  END
> <minimizedAffinity>
-6.04361

> <CNNscore>
0.6203172803

> <CNNaffinity>
5.1019673347

> <CNN_VS>
3.1648385525

> <CNNaffinity_variance>
0.2038629651

$$$$



 22 22  0  0  0  0  0  0  0  0999 V2000
   83.7605    8.6668   34.5099 C   0  0  0  0  0  0  0  0  0  0  0  0
   82.8117    7.7179   35.2367 C   0  0  0  0  0  0  0  0  0  0  0  0
   82.7844    7.9628   36.7493 C   0  0  0  0  0  0  0  0  0  0  0  0
   81.7714    7.0483   37.4577 C   0  0  0  0  0  0  0  0  0  0  0  0
   80.8648    6.2955   36.4754 C   0  0  0  0  0  0  0  0  0  0  0  0
   81.7146    5.5054   35.4541 C   0  0  0  0  0  0  0  0  0  0  0  0
   82.8929    6.2625   34.9772 N   0  0  0  0  0  0  0  0  0  0  0  0
   84.0295    5.4862   34.7268 C   0  0  0  0  0  0  0  0  0  0  0  0
   83.9594    4.2577   34.6241 O   0  0  0  0  0  0  0  0  0  0  0  0
   80.8916    4.7664   34.3653 C   0  0  0  0  0  0  0  0  0  0  0  0
   80.3014    5.4565   33.0785 C   0  0  0  0  0  0  0  0  0  0  0  0
   79.6761    6.8129   33.4555 C   0  0  0  0  0  0  0  0  0  0  0  0
   79.2373    4.5790   32.4207 C   0  0  0  0  0  0  0  0  0  0  0  0
   81.5481    5.6919   32.1379 C   0  0  0  0  0  0  0  0  0  0  0  0
   81.4879    6.3684   30.7296 C   0  0  0  0  0  0  0  0  0  0  0  0
   82.1693    5.5108   29.6458 C   0  0  0  0  0  0  0  0  0  0  0  0
   82.3051    7.6831   30.8316 C   0  0  0  0  0  0  0  0  0  0  0  0
   80.0751    6.7464   30.2728 C   0  0  0  0  0  0  0  0  0  0  0  0
   85.3739    6.1656   34.5852 C   0  0  0  0  0  0  0  0  0  0  0  0
   86.2295    5.9638   35.8329 C   0  0  0  0  0  0  0  0  0  0  0  0
   87.7750    5.0992   35.4110 S   0  0  0  0  0  0  0  0  0  0  0  0
   87.4830    3.8803   34.8830 H   0  0  0  0  0  0  0  0  0  0  0  0
  2  1  1  0
  2  3  1  0
  3  4  1  0
  4  5  1  0
  5  6  1  0
  6 10  1  0
 10 11  1  0
 11 12  1  0
 11 13  1  0
 11 14  1  0
 14 15  1  0
 15 16  1  0
 15 17  1  0
 15 18  1  0
  6  7  1  0
  7  8  1  0
  8  9  2  0
  8 19  1  0
 19 20  1  0
 20 21  1  0
  7  2  1  0
 21 22  1  0
M  END
> <minimizedAffinity>
-4.89947

> <CNNscore>
0.6176136136

> <CNNaffinity>
4.9112801552

> <CNN_VS>
3.0332734585

> <CNNaffinity_variance>
0.3195846975

$$$$



 22 22  0  0  0  0  0  0  0  0999 V2000
   80.4560    9.4764   27.9864 C   0  0  0  0  0  0  0  0  0  0  0  0
   80.6227    8.1253   28.6761 C   0  0  0  0  0  0  0  0  0  0  0  0
   81.4320    7.1339   27.8331 C   0  0  0  0  0  0  0  0  0  0  0  0
   81.6523    5.8031   28.5713 C   0  0  0  0  0  0  0  0  0  0  0  0
   81.2339    5.8673   30.0458 C   0  0  0  0  0  0  0  0  0  0  0  0
   79.7679    6.3413   30.1705 C   0  0  0  0  0  0  0  0  0  0  0  0
   79.4359    7.4387   29.2353 N   0  0  0  0  0  0  0  0  0  0  0  0
   78.1315    7.4079   28.7308 C   0  0  0  0  0  0  0  0  0  0  0  0
   77.2569    6.7091   29.2517 O   0  0  0  0  0  0  0  0  0  0  0  0
   79.2678    6.5133   31.6297 C   0  0  0  0  0  0  0  0  0  0  0  0
   80.1186    6.1586   32.9066 C   0  0  0  0  0  0  0  0  0  0  0  0
   81.5837    6.5827   32.6905 C   0  0  0  0  0  0  0  0  0  0  0  0
   80.0687    4.6606   33.2044 C   0  0  0  0  0  0  0  0  0  0  0  0
   79.4841    7.0210   34.0677 C   0  0  0  0  0  0  0  0  0  0  0  0
   80.3016    7.8012   35.1483 C   0  0  0  0  0  0  0  0  0  0  0  0
   81.3553    8.7316   34.5170 C   0  0  0  0  0  0  0  0  0  0  0  0
   81.0826    6.7406   35.9679 C   0  0  0  0  0  0  0  0  0  0  0  0
   79.4412    8.5953   36.1367 C   0  0  0  0  0  0  0  0  0  0  0  0
   77.7867    8.2434   27.5175 C   0  0  0  0  0  0  0  0  0  0  0  0
   78.1400    7.5131   26.2246 C   0  0  0  0  0  0  0  0  0  0  0  0
   77.9384    5.7160   26.4342 S   0  0  0  0  0  0  0  0  0  0  0  0
   78.7668    5.2788   27.4202 H   0  0  0  0  0  0  0  0  0  0  0  0
  2  1  1  0
  2  3  1  0
  3  4  1  0
  4  5  1  0
  5  6  1  0
  6 10  1  0
 10 11  1  0
 11 12  1  0
 11 13  1  0
 11 14  1  0
 14 15  1  0
 15 16  1  0
 15 17  1  0
 15 18  1  0
  6  7  1  0
  7  8  1  0
  8  9  2  0
  8 19  1  0
 19 20  1  0
 20 21  1  0
  7  2  1  0
 21 22  1  0
M  END
> <minimizedAffinity>
-6.18158

> <CNNscore>
0.6034460068

> <CNNaffinity>
5.0121979713

> <CNN_VS>
3.0245909691

> <CNNaffinity_variance>
0.1775923520

$$$$



 22 22  0  0  0  0  0  0  0  0999 V2000
   79.2826    4.6141   32.2809 C   0  0  0  0  0  0  0  0  0  0  0  0
   80.0228    5.4030   33.3574 C   0  0  0  0  0  0  0  0  0  0  0  0
   79.3603    6.7529   33.6532 C   0  0  0  0  0  0  0  0  0  0  0  0
   80.0752    7.5033   34.7890 C   0  0  0  0  0  0  0  0  0  0  0  0
   81.1104    6.6337   35.5139 C   0  0  0  0  0  0  0  0  0  0  0  0
   82.1239    6.0472   34.5048 C   0  0  0  0  0  0  0  0  0  0  0  0
   81.4878    5.5890   33.2500 N   0  0  0  0  0  0  0  0  0  0  0  0
   82.2582    5.7753   32.0973 C   0  0  0  0  0  0  0  0  0  0  0  0
   83.4671    6.0175   32.1639 O   0  0  0  0  0  0  0  0  0  0  0  0
   83.1729    5.0880   35.1281 C   0  0  0  0  0  0  0  0  0  0  0  0
   84.5399    5.5552   35.7553 C   0  0  0  0  0  0  0  0  0  0  0  0
   84.3520    5.8451   37.2565 C   0  0  0  0  0  0  0  0  0  0  0  0
   85.0634    6.8128   35.0631 C   0  0  0  0  0  0  0  0  0  0  0  0
   85.5109    4.3230   35.5720 C   0  0  0  0  0  0  0  0  0  0  0  0
   87.0207    4.3090   35.9783 C   0  0  0  0  0  0  0  0  0  0  0  0
   87.2346    3.7323   37.3911 C   0  0  0  0  0  0  0  0  0  0  0  0
   87.4817    5.7893   36.0306 C   0  0  0  0  0  0  0  0  0  0  0  0
   87.9335    3.5842   34.9838 C   0  0  0  0  0  0  0  0  0  0  0  0
   81.5949    5.6844   30.7404 C   0  0  0  0  0  0  0  0  0  0  0  0
   81.2244    7.0676   30.2123 C   0  0  0  0  0  0  0  0  0  0  0  0
   79.7579    6.9663   29.1384 S   0  0  0  0  0  0  0  0  0  0  0  0
   80.0260    6.1550   28.0803 H   0  0  0  0  0  0  0  0  0  0  0  0
  2  1  1  0
  2  3  1  0
  3  4  1  0
  4  5  1  0
  5  6  1  0
  6 10  1  0
 10 11  1  0
 11 12  1  0
 11 13  1  0
 11 14  1  0
 14 15  1  0
 15 16  1  0
 15 17  1  0
 15 18  1  0
  6  7  1  0
  7  8  1  0
  8  9  2  0
  8 19  1  0
 19 20  1  0
 20 21  1  0
  7  2  1  0
 21 22  1  0
M  END
> <minimizedAffinity>
-5.21114

> <CNNscore>
0.5680044293

> <CNNaffinity>
4.8350987434

> <CNN_VS>
2.7463574409

> <CNNaffinity_variance>
0.2246000320

$$$$



 22 22  0  0  0  0  0  0  0  0999 V2000
   82.3528   10.9745   34.7156 C   0  0  0  0  0  0  0  0  0  0  0  0
   81.5138    9.7169   34.9240 C   0  0  0  0  0  0  0  0  0  0  0  0
   81.3358    9.3712   36.4064 C   0  0  0  0  0  0  0  0  0  0  0  0
   80.4296    8.1445   36.6020 C   0  0  0  0  0  0  0  0  0  0  0  0
   79.7285    7.7134   35.3074 C   0  0  0  0  0  0  0  0  0  0  0  0
   80.7657    7.4711   34.1871 C   0  0  0  0  0  0  0  0  0  0  0  0
   81.8423    8.4858   34.1697 N   0  0  0  0  0  0  0  0  0  0  0  0
   83.1024    8.0010   33.8033 C   0  0  0  0  0  0  0  0  0  0  0  0
   83.2344    6.9018   33.2565 O   0  0  0  0  0  0  0  0  0  0  0  0
   80.1527    7.1025   32.8097 C   0  0  0  0  0  0  0  0  0  0  0  0
   80.0237    5.6319   32.2610 C   0  0  0  0  0  0  0  0  0  0  0  0
   78.5869    5.3861   31.7631 C   0  0  0  0  0  0  0  0  0  0  0  0
   80.3618    4.6075   33.3433 C   0  0  0  0  0  0  0  0  0  0  0  0
   81.0248    5.5661   31.0412 C   0  0  0  0  0  0  0  0  0  0  0  0
   81.0352    6.5681   29.8409 C   0  0  0  0  0  0  0  0  0  0  0  0
   79.6325    7.1343   29.5473 C   0  0  0  0  0  0  0  0  0  0  0  0
   81.4559    5.7570   28.5872 C   0  0  0  0  0  0  0  0  0  0  0  0
   82.0334    7.7207   29.9917 C   0  0  0  0  0  0  0  0  0  0  0  0
   84.3298    8.8382   34.0888 C   0  0  0  0  0  0  0  0  0  0  0  0
   84.8560    8.5850   35.4990 C   0  0  0  0  0  0  0  0  0  0  0  0
   84.5736    6.8524   35.9813 S   0  0  0  0  0  0  0  0  0  0  0  0
   83.2397    6.5880   35.9616 H   0  0  0  0  0  0  0  0  0  0  0  0
  2  1  1  0
  2  3  1  0
  3  4  1  0
  4  5  1  0
  5  6  1  0
  6 10  1  0
 10 11  1  0
 11 12  1  0
 11 13  1  0
 11 14  1  0
 14 15  1  0
 15 16  1  0
 15 17  1  0
 15 18  1  0
  6  7  1  0
  7  8  1  0
  8  9  2  0
  8 19  1  0
 19 20  1  0
 20 21  1  0
  7  2  1  0
 21 22  1  0
M  END
> <minimizedAffinity>
-4.45435

> <CNNscore>
0.5578320622

> <CNNaffinity>
4.9654483795

> <CNN_VS>
2.7698862553

> <CNNaffinity_variance>
0.0905636027

$$$$



 22 22  0  0  0  0  0  0  0  0999 V2000
   81.1460    8.8008   34.3996 C   0  0  0  0  0  0  0  0  0  0  0  0
   80.9143    7.5522   33.5533 C   0  0  0  0  0  0  0  0  0  0  0  0
   79.8235    6.6458   34.1341 C   0  0  0  0  0  0  0  0  0  0  0  0
   79.5518    5.4297   33.2332 C   0  0  0  0  0  0  0  0  0  0  0  0
   80.2447    5.5368   31.8687 C   0  0  0  0  0  0  0  0  0  0  0  0
   81.7617    5.7715   32.0508 C   0  0  0  0  0  0  0  0  0  0  0  0
   82.0703    6.7247   33.1395 N   0  0  0  0  0  0  0  0  0  0  0  0
   83.2375    6.4415   33.8567 C   0  0  0  0  0  0  0  0  0  0  0  0
   84.0816    5.6503   33.4249 O   0  0  0  0  0  0  0  0  0  0  0  0
   82.5469    5.9700   30.7269 C   0  0  0  0  0  0  0  0  0  0  0  0
   81.9969    6.7576   29.4788 C   0  0  0  0  0  0  0  0  0  0  0  0
   81.2604    8.0269   29.9473 C   0  0  0  0  0  0  0  0  0  0  0  0
   81.0379    5.8944   28.6603 C   0  0  0  0  0  0  0  0  0  0  0  0
   83.2837    7.1651   28.6586 C   0  0  0  0  0  0  0  0  0  0  0  0
   83.2766    8.0487   27.3687 C   0  0  0  0  0  0  0  0  0  0  0  0
   84.0474    7.3875   26.2099 C   0  0  0  0  0  0  0  0  0  0  0  0
   84.0384    9.3540   27.7186 C   0  0  0  0  0  0  0  0  0  0  0  0
   81.8782    8.4536   26.8909 C   0  0  0  0  0  0  0  0  0  0  0  0
   83.4677    7.1138   35.1924 C   0  0  0  0  0  0  0  0  0  0  0  0
   83.5101    6.0922   36.3256 C   0  0  0  0  0  0  0  0  0  0  0  0
   81.9848    6.1776   37.3158 S   0  0  0  0  0  0  0  0  0  0  0  0
   81.8637    7.4200   37.8555 H   0  0  0  0  0  0  0  0  0  0  0  0
  2  1  1  0
  2  3  1  0
  3  4  1  0
  4  5  1  0
  5  6  1  0
  6 10  1  0
 10 11  1  0
 11 12  1  0
 11 13  1  0
 11 14  1  0
 14 15  1  0
 15 16  1  0
 15 17  1  0
 15 18  1  0
  6  7  1  0
  7  8  1  0
  8  9  2  0
  8 19  1  0
 19 20  1  0
 20 21  1  0
  7  2  1  0
 21 22  1  0
M  END
> <minimizedAffinity>
-4.40948

> <CNNscore>
0.5546038151

> <CNNaffinity>
4.8629665375

> <CNN_VS>
2.6970198154

> <CNNaffinity_variance>
0.0581348538

$$$$
