


 18 18  0  0  0  0  0  0  0  0999 V2000
   65.7861   35.1537   26.0397 C   0  0  0  0  0  0  0  0  0  0  0  0
   66.1043   34.0828   26.8931 C   0  0  0  0  0  0  0  0  0  0  0  0
   65.0868   33.2630   27.3726 C   0  0  0  0  0  0  0  0  0  0  0  0
   63.7677   33.5273   26.9808 C   0  0  0  0  0  0  0  0  0  0  0  0
   62.7453   32.7430   27.4422 O   0  0  0  0  0  0  0  0  0  0  0  0
   63.4498   34.5705   26.1166 C   0  0  0  0  0  0  0  0  0  0  0  0
   64.4691   35.3875   25.6311 C   0  0  0  0  0  0  0  0  0  0  0  0
   64.0487   36.6556   24.5397 Cl  0  0  0  0  0  0  0  0  0  0  0  0
   62.9265   32.0324   28.0256 H   0  0  0  0  0  0  0  0  0  0  0  0
   67.0991   37.2434   26.0939 N   0  0  0  0  0  0  0  0  0  0  0  0
   66.8996   35.9764   25.5442 C   0  0  0  0  0  0  0  0  0  0  0  0
   67.6292   35.4691   24.6963 O   0  0  0  0  0  0  0  0  0  0  0  0
   67.1418   38.6247   28.1579 C   0  0  0  0  0  0  0  0  0  0  0  0
   66.2974   37.8349   27.1707 C   0  0  0  0  0  0  0  0  0  0  0  0
   68.2291   38.0254   25.5925 C   0  0  0  0  0  0  0  0  0  0  0  0
   67.8186   38.9417   24.4500 C   0  0  0  0  0  0  0  0  0  0  0  0
   65.2379   32.1937   28.2157 O   0  0  0  0  0  0  0  0  0  0  0  0
   64.6198   32.2967   29.4945 C   0  0  0  0  0  0  0  0  0  0  0  0
 13 14  1  0
 14 10  1  0
 10 15  1  0
 15 16  1  0
 10 11  1  0
 11 12  2  0
 11  1  1  0
  1  2  2  0
  2  3  1  0
  3 17  1  0
 17 18  1  0
  3  4  2  0
  4  5  1  0
  4  6  1  0
  6  7  2  0
  7  8  1  0
  7  1  1  0
  5  9  1  0
M  END
> <minimizedAffinity>
-4.79283

> <CNNscore>
0.7585022449

> <CNNaffinity>
5.9187874794

> <CNN_VS>
4.4894137383

> <CNNaffinity_variance>
0.3370334208

$$$$



 18 18  0  0  0  0  0  0  0  0999 V2000
   64.8813   34.1661   25.8893 C   0  0  0  0  0  0  0  0  0  0  0  0
   63.6818   33.7998   26.5245 C   0  0  0  0  0  0  0  0  0  0  0  0
   63.7251   32.9923   27.6574 C   0  0  0  0  0  0  0  0  0  0  0  0
   64.9725   32.5729   28.1384 C   0  0  0  0  0  0  0  0  0  0  0  0
   65.0462   31.7721   29.2459 O   0  0  0  0  0  0  0  0  0  0  0  0
   66.1641   32.9527   27.5283 C   0  0  0  0  0  0  0  0  0  0  0  0
   66.1213   33.7665   26.3978 C   0  0  0  0  0  0  0  0  0  0  0  0
   67.6151   34.2441   25.6791 Cl  0  0  0  0  0  0  0  0  0  0  0  0
   64.2618   31.4989   29.6796 H   0  0  0  0  0  0  0  0  0  0  0  0
   65.1027   36.3893   24.8394 N   0  0  0  0  0  0  0  0  0  0  0  0
   64.7818   35.0374   24.7090 C   0  0  0  0  0  0  0  0  0  0  0  0
   64.4643   34.5024   23.6501 O   0  0  0  0  0  0  0  0  0  0  0  0
   65.2479   38.5180   26.1111 C   0  0  0  0  0  0  0  0  0  0  0  0
   65.5718   37.0330   26.0713 C   0  0  0  0  0  0  0  0  0  0  0  0
   65.0134   37.2219   23.6400 C   0  0  0  0  0  0  0  0  0  0  0  0
   66.3531   37.3322   22.9284 C   0  0  0  0  0  0  0  0  0  0  0  0
   62.6470   32.5455   28.3751 O   0  0  0  0  0  0  0  0  0  0  0  0
   62.0758   31.3073   27.9645 C   0  0  0  0  0  0  0  0  0  0  0  0
 13 14  1  0
 14 10  1  0
 10 15  1  0
 15 16  1  0
 10 11  1  0
 11 12  2  0
 11  1  1  0
  1  2  2  0
  2  3  1  0
  3 17  1  0
 17 18  1  0
  3  4  2  0
  4  5  1  0
  4  6  1  0
  6  7  2  0
  7  8  1  0
  7  1  1  0
  5  9  1  0
M  END
> <minimizedAffinity>
-6.32374

> <CNNscore>
0.7161781788

> <CNNaffinity>
5.3607296944

> <CNN_VS>
3.8392376900

> <CNNaffinity_variance>
0.0571543574

$$$$



 18 18  0  0  0  0  0  0  0  0999 V2000
   65.2019   34.6299   25.3938 C   0  0  0  0  0  0  0  0  0  0  0  0
   66.5445   34.2793   25.6194 C   0  0  0  0  0  0  0  0  0  0  0  0
   66.8717   33.4934   26.7206 C   0  0  0  0  0  0  0  0  0  0  0  0
   65.8444   33.0659   27.5722 C   0  0  0  0  0  0  0  0  0  0  0  0
   66.1366   32.2984   28.6672 O   0  0  0  0  0  0  0  0  0  0  0  0
   64.5111   33.3891   27.3398 C   0  0  0  0  0  0  0  0  0  0  0  0
   64.1825   34.1705   26.2338 C   0  0  0  0  0  0  0  0  0  0  0  0
   62.5188   34.5323   25.9554 Cl  0  0  0  0  0  0  0  0  0  0  0  0
   67.0248   32.0635   28.8512 H   0  0  0  0  0  0  0  0  0  0  0  0
   65.2003   36.8077   24.2314 N   0  0  0  0  0  0  0  0  0  0  0  0
   64.9070   35.4437   24.2050 C   0  0  0  0  0  0  0  0  0  0  0  0
   64.4581   34.8530   23.2262 O   0  0  0  0  0  0  0  0  0  0  0  0
   65.1889   38.8796   25.6014 C   0  0  0  0  0  0  0  0  0  0  0  0
   65.8203   37.5187   25.3548 C   0  0  0  0  0  0  0  0  0  0  0  0
   64.9139   37.5823   23.0240 C   0  0  0  0  0  0  0  0  0  0  0  0
   66.1586   37.7818   22.1729 C   0  0  0  0  0  0  0  0  0  0  0  0
   68.1290   33.0815   27.0766 O   0  0  0  0  0  0  0  0  0  0  0  0
   69.0875   34.1036   27.3303 C   0  0  0  0  0  0  0  0  0  0  0  0
 13 14  1  0
 14 10  1  0
 10 15  1  0
 15 16  1  0
 10 11  1  0
 11 12  2  0
 11  1  1  0
  1  2  2  0
  2  3  1  0
  3 17  1  0
 17 18  1  0
  3  4  2  0
  4  5  1  0
  4  6  1  0
  6  7  2  0
  7  8  1  0
  7  1  1  0
  5  9  1  0
M  END
> <minimizedAffinity>
-6.07514

> <CNNscore>
0.6349520087

> <CNNaffinity>
5.4513626099

> <CNN_VS>
3.4613535404

> <CNNaffinity_variance>
0.0600484312

$$$$



 18 18  0  0  0  0  0  0  0  0999 V2000
   65.7315   35.8704   24.7608 C   0  0  0  0  0  0  0  0  0  0  0  0
   66.7413   36.7227   25.2407 C   0  0  0  0  0  0  0  0  0  0  0  0
   67.1128   37.8350   24.4910 C   0  0  0  0  0  0  0  0  0  0  0  0
   66.4586   38.0775   23.2759 C   0  0  0  0  0  0  0  0  0  0  0  0
   66.8077   39.1592   22.5133 O   0  0  0  0  0  0  0  0  0  0  0  0
   65.4413   37.2513   22.8081 C   0  0  0  0  0  0  0  0  0  0  0  0
   65.0647   36.1413   23.5617 C   0  0  0  0  0  0  0  0  0  0  0  0
   63.7819   35.1507   22.9705 Cl  0  0  0  0  0  0  0  0  0  0  0  0
   67.4889   39.7348   22.8008 H   0  0  0  0  0  0  0  0  0  0  0  0
   66.2819   34.2450   26.5353 N   0  0  0  0  0  0  0  0  0  0  0  0
   65.3617   34.7215   25.6007 C   0  0  0  0  0  0  0  0  0  0  0  0
   64.2263   34.2746   25.4601 O   0  0  0  0  0  0  0  0  0  0  0  0
   68.6387   33.7627   27.1539 C   0  0  0  0  0  0  0  0  0  0  0  0
   67.6088   34.8185   26.7853 C   0  0  0  0  0  0  0  0  0  0  0  0
   65.8724   33.1146   27.3686 C   0  0  0  0  0  0  0  0  0  0  0  0
   66.1584   31.7824   26.6927 C   0  0  0  0  0  0  0  0  0  0  0  0
   68.0817   38.7463   24.8197 O   0  0  0  0  0  0  0  0  0  0  0  0
   68.0618   39.2460   26.1530 C   0  0  0  0  0  0  0  0  0  0  0  0
 13 14  1  0
 14 10  1  0
 10 15  1  0
 15 16  1  0
 10 11  1  0
 11 12  2  0
 11  1  1  0
  1  2  2  0
  2  3  1  0
  3 17  1  0
 17 18  1  0
  3  4  2  0
  4  5  1  0
  4  6  1  0
  6  7  2  0
  7  8  1  0
  7  1  1  0
  5  9  1  0
M  END
> <minimizedAffinity>
-5.94406

> <CNNscore>
0.4953085780

> <CNNaffinity>
4.8152794838

> <CNN_VS>
2.3850493431

> <CNNaffinity_variance>
0.2181989551

$$$$



 18 18  0  0  0  0  0  0  0  0999 V2000
   66.4330   35.5352   25.7504 C   0  0  0  0  0  0  0  0  0  0  0  0
   66.4660   36.3829   24.6293 C   0  0  0  0  0  0  0  0  0  0  0  0
   65.4798   36.2678   23.6539 C   0  0  0  0  0  0  0  0  0  0  0  0
   64.4723   35.3090   23.8244 C   0  0  0  0  0  0  0  0  0  0  0  0
   63.4935   35.1675   22.8782 O   0  0  0  0  0  0  0  0  0  0  0  0
   64.4207   34.4843   24.9440 C   0  0  0  0  0  0  0  0  0  0  0  0
   65.4043   34.6038   25.9239 C   0  0  0  0  0  0  0  0  0  0  0  0
   65.2991   33.5874   27.3139 Cl  0  0  0  0  0  0  0  0  0  0  0  0
   63.5002   35.7079   22.1128 H   0  0  0  0  0  0  0  0  0  0  0  0
   67.8103   37.0030   27.1795 N   0  0  0  0  0  0  0  0  0  0  0  0
   67.4856   35.7117   26.7619 C   0  0  0  0  0  0  0  0  0  0  0  0
   67.9893   34.6904   27.2219 O   0  0  0  0  0  0  0  0  0  0  0  0
   65.9601   38.6153   27.5633 C   0  0  0  0  0  0  0  0  0  0  0  0
   67.1604   38.2324   26.7123 C   0  0  0  0  0  0  0  0  0  0  0  0
   68.8468   37.1399   28.2026 C   0  0  0  0  0  0  0  0  0  0  0  0
   69.2306   38.5946   28.4260 C   0  0  0  0  0  0  0  0  0  0  0  0
   65.3849   37.0108   22.5067 O   0  0  0  0  0  0  0  0  0  0  0  0
   65.6033   38.4122   22.6340 C   0  0  0  0  0  0  0  0  0  0  0  0
 13 14  1  0
 14 10  1  0
 10 15  1  0
 15 16  1  0
 10 11  1  0
 11 12  2  0
 11  1  1  0
  1  2  2  0
  2  3  1  0
  3 17  1  0
 17 18  1  0
  3  4  2  0
  4  5  1  0
  4  6  1  0
  6  7  2  0
  7  8  1  0
  7  1  1  0
  5  9  1  0
M  END
> <minimizedAffinity>
-5.99380

> <CNNscore>
0.4590938091

> <CNNaffinity>
4.8903565407

> <CNN_VS>
2.2451324463

> <CNNaffinity_variance>
0.2474518418

$$$$



 18 18  0  0  0  0  0  0  0  0999 V2000
   66.5723   36.5119   25.1885 C   0  0  0  0  0  0  0  0  0  0  0  0
   66.9285   35.1521   25.1614 C   0  0  0  0  0  0  0  0  0  0  0  0
   66.0832   34.2107   25.7415 C   0  0  0  0  0  0  0  0  0  0  0  0
   64.8906   34.6493   26.3319 C   0  0  0  0  0  0  0  0  0  0  0  0
   64.0432   33.7475   26.9169 O   0  0  0  0  0  0  0  0  0  0  0  0
   64.5211   35.9908   26.3397 C   0  0  0  0  0  0  0  0  0  0  0  0
   65.3641   36.9328   25.7532 C   0  0  0  0  0  0  0  0  0  0  0  0
   64.8671   38.5849   25.7533 Cl  0  0  0  0  0  0  0  0  0  0  0  0
   64.2633   32.8368   26.9282 H   0  0  0  0  0  0  0  0  0  0  0  0
   67.2181   37.8839   23.2406 N   0  0  0  0  0  0  0  0  0  0  0  0
   67.4892   37.4632   24.5433 C   0  0  0  0  0  0  0  0  0  0  0  0
   68.4275   37.8750   25.2204 O   0  0  0  0  0  0  0  0  0  0  0  0
   65.0056   38.5726   22.3462 C   0  0  0  0  0  0  0  0  0  0  0  0
   66.0552   37.4771   22.4444 C   0  0  0  0  0  0  0  0  0  0  0  0
   68.1394   38.8471   22.6378 C   0  0  0  0  0  0  0  0  0  0  0  0
   68.2486   38.6578   21.1326 C   0  0  0  0  0  0  0  0  0  0  0  0
   66.2980   32.8590   25.8036 O   0  0  0  0  0  0  0  0  0  0  0  0
   67.5125   32.4329   26.4130 C   0  0  0  0  0  0  0  0  0  0  0  0
 13 14  1  0
 14 10  1  0
 10 15  1  0
 15 16  1  0
 10 11  1  0
 11 12  2  0
 11  1  1  0
  1  2  2  0
  2  3  1  0
  3 17  1  0
 17 18  1  0
  3  4  2  0
  4  5  1  0
  4  6  1  0
  6  7  2  0
  7  8  1  0
  7  1  1  0
  5  9  1  0
M  END
> <minimizedAffinity>
-4.57882

> <CNNscore>
0.4231045842

> <CNNaffinity>
4.9065151215

> <CNN_VS>
2.0759689808

> <CNNaffinity_variance>
0.0937263370

$$$$



 18 18  0  0  0  0  0  0  0  0999 V2000
   65.3453   37.8708   25.2511 C   0  0  0  0  0  0  0  0  0  0  0  0
   65.1870   36.8278   26.1805 C   0  0  0  0  0  0  0  0  0  0  0  0
   64.9384   35.5362   25.7253 C   0  0  0  0  0  0  0  0  0  0  0  0
   64.8608   35.3119   24.3443 C   0  0  0  0  0  0  0  0  0  0  0  0
   64.6098   34.0538   23.8673 O   0  0  0  0  0  0  0  0  0  0  0  0
   65.0412   36.3357   23.4194 C   0  0  0  0  0  0  0  0  0  0  0  0
   65.2967   37.6277   23.8747 C   0  0  0  0  0  0  0  0  0  0  0  0
   65.5436   38.8714   22.7048 Cl  0  0  0  0  0  0  0  0  0  0  0  0
   64.4837   33.3428   24.4644 H   0  0  0  0  0  0  0  0  0  0  0  0
   66.7262   39.3871   26.6251 N   0  0  0  0  0  0  0  0  0  0  0  0
   65.6273   39.2124   25.7829 C   0  0  0  0  0  0  0  0  0  0  0  0
   64.8941   40.1232   25.4069 O   0  0  0  0  0  0  0  0  0  0  0  0
   68.7074   38.0545   25.9403 C   0  0  0  0  0  0  0  0  0  0  0  0
   67.6694   38.3336   27.0156 C   0  0  0  0  0  0  0  0  0  0  0  0
   66.9894   40.7389   27.1181 C   0  0  0  0  0  0  0  0  0  0  0  0
   68.0224   41.4594   26.2654 C   0  0  0  0  0  0  0  0  0  0  0  0
   64.7517   34.4249   26.5045 O   0  0  0  0  0  0  0  0  0  0  0  0
   63.4096   34.1197   26.8699 C   0  0  0  0  0  0  0  0  0  0  0  0
 13 14  1  0
 14 10  1  0
 10 15  1  0
 15 16  1  0
 10 11  1  0
 11 12  2  0
 11  1  1  0
  1  2  2  0
  2  3  1  0
  3 17  1  0
 17 18  1  0
  3  4  2  0
  4  5  1  0
  4  6  1  0
  6  7  2  0
  7  8  1  0
  7  1  1  0
  5  9  1  0
M  END
> <minimizedAffinity>
-5.42017

> <CNNscore>
0.3721297681

> <CNNaffinity>
4.3335380554

> <CNN_VS>
1.6126384735

> <CNNaffinity_variance>
0.3903331757

$$$$



 18 18  0  0  0  0  0  0  0  0999 V2000
   66.8326   37.8549   24.8369 C   0  0  0  0  0  0  0  0  0  0  0  0
   67.5288   36.9047   25.6044 C   0  0  0  0  0  0  0  0  0  0  0  0
   66.8219   35.8948   26.2505 C   0  0  0  0  0  0  0  0  0  0  0  0
   65.4286   35.8508   26.1085 C   0  0  0  0  0  0  0  0  0  0  0  0
   64.7059   34.8738   26.7383 O   0  0  0  0  0  0  0  0  0  0  0  0
   64.7369   36.7738   25.3301 C   0  0  0  0  0  0  0  0  0  0  0  0
   65.4451   37.7812   24.6778 C   0  0  0  0  0  0  0  0  0  0  0  0
   64.5644   38.8945   23.6974 Cl  0  0  0  0  0  0  0  0  0  0  0  0
   65.1421   34.2373   27.2697 H   0  0  0  0  0  0  0  0  0  0  0  0
   67.9420   38.7201   22.8084 N   0  0  0  0  0  0  0  0  0  0  0  0
   67.6280   38.8884   24.1576 C   0  0  0  0  0  0  0  0  0  0  0  0
   67.9309   39.8784   24.8185 O   0  0  0  0  0  0  0  0  0  0  0  0
   66.3477   37.9474   21.0673 C   0  0  0  0  0  0  0  0  0  0  0  0
   67.5149   37.5914   21.9743 C   0  0  0  0  0  0  0  0  0  0  0  0
   68.7161   39.7780   22.1593 C   0  0  0  0  0  0  0  0  0  0  0  0
   69.2112   39.3532   20.7853 C   0  0  0  0  0  0  0  0  0  0  0  0
   67.3557   34.9091   27.0382 O   0  0  0  0  0  0  0  0  0  0  0  0
   67.7758   33.7204   26.3761 C   0  0  0  0  0  0  0  0  0  0  0  0
 13 14  1  0
 14 10  1  0
 10 15  1  0
 15 16  1  0
 10 11  1  0
 11 12  2  0
 11  1  1  0
  1  2  2  0
  2  3  1  0
  3 17  1  0
 17 18  1  0
  3  4  2  0
  4  5  1  0
  4  6  1  0
  6  7  2  0
  7  8  1  0
  7  1  1  0
  5  9  1  0
M  END
> <minimizedAffinity>
-4.60743

> <CNNscore>
0.3673593402

> <CNNaffinity>
4.3992600441

> <CNN_VS>
1.6161092520

> <CNNaffinity_variance>
0.2448260039

$$$$



 18 18  0  0  0  0  0  0  0  0999 V2000
   66.3358   37.3061   26.1741 C   0  0  0  0  0  0  0  0  0  0  0  0
   66.8928   36.2399   26.9017 C   0  0  0  0  0  0  0  0  0  0  0  0
   66.4005   34.9515   26.7147 C   0  0  0  0  0  0  0  0  0  0  0  0
   65.3627   34.7539   25.7943 C   0  0  0  0  0  0  0  0  0  0  0  0
   64.8530   33.4994   25.5947 O   0  0  0  0  0  0  0  0  0  0  0  0
   64.8245   35.8016   25.0533 C   0  0  0  0  0  0  0  0  0  0  0  0
   65.3216   37.0906   25.2356 C   0  0  0  0  0  0  0  0  0  0  0  0
   64.6543   38.3649   24.2832 Cl  0  0  0  0  0  0  0  0  0  0  0  0
   65.1939   32.7729   26.0783 H   0  0  0  0  0  0  0  0  0  0  0  0
   67.8639   39.1235   25.4987 N   0  0  0  0  0  0  0  0  0  0  0  0
   66.9058   38.6438   26.3929 C   0  0  0  0  0  0  0  0  0  0  0  0
   66.4597   39.2888   27.3381 O   0  0  0  0  0  0  0  0  0  0  0  0
   67.8537   39.0358   23.0163 C   0  0  0  0  0  0  0  0  0  0  0  0
   68.3461   38.4096   24.3113 C   0  0  0  0  0  0  0  0  0  0  0  0
   68.3934   40.4665   25.7345 C   0  0  0  0  0  0  0  0  0  0  0  0
   69.6363   40.4373   26.6107 C   0  0  0  0  0  0  0  0  0  0  0  0
   66.8309   33.8193   27.3550 O   0  0  0  0  0  0  0  0  0  0  0  0
   68.0954   33.3012   26.9545 C   0  0  0  0  0  0  0  0  0  0  0  0
 13 14  1  0
 14 10  1  0
 10 15  1  0
 15 16  1  0
 10 11  1  0
 11 12  2  0
 11  1  1  0
  1  2  2  0
  2  3  1  0
  3 17  1  0
 17 18  1  0
  3  4  2  0
  4  5  1  0
  4  6  1  0
  6  7  2  0
  7  8  1  0
  7  1  1  0
  5  9  1  0
M  END
> <minimizedAffinity>
-4.18736

> <CNNscore>
0.3647599518

> <CNNaffinity>
4.7579455376

> <CNN_VS>
1.7355079651

> <CNNaffinity_variance>
0.1048931256

$$$$
