


 34 36  0  0  0  0  0  0  0  0999 V2000
   29.6190   -5.3096   19.6991 C   0  0  0  0  0  0  0  0  0  0  0  0
   29.6855   -6.4753   19.3127 O   0  0  0  0  0  0  0  0  0  0  0  0
   30.2524   -4.2776   19.0298 N   0  0  0  0  0  0  0  0  0  0  0  0
   30.0895   -3.3319   19.2497 H   0  0  0  0  0  0  0  0  0  0  0  0
   27.3909   -4.1609   23.2750 C   0  0  0  0  0  0  0  0  0  0  0  0
   27.2198   -3.5366   22.0193 C   0  0  0  0  0  0  0  0  0  0  0  0
   27.9402   -3.9223   20.8784 C   0  0  0  0  0  0  0  0  0  0  0  0
   28.8746   -4.9566   20.9383 C   0  0  0  0  0  0  0  0  0  0  0  0
   29.1021   -5.5851   22.1595 C   0  0  0  0  0  0  0  0  0  0  0  0
   28.3723   -5.1825   23.2990 C   0  0  0  0  0  0  0  0  0  0  0  0
   27.4322   -3.1762   25.6698 C   0  0  0  0  0  0  0  0  0  0  0  0
   26.5626   -3.6687   24.4902 C   0  0  0  0  0  0  0  0  0  0  0  0
   25.6211   -2.5351   24.0363 C   0  0  0  0  0  0  0  0  0  0  0  0
   25.6619   -4.7817   25.0967 C   0  0  0  0  0  0  0  0  0  0  0  0
   28.7355   -5.8921   24.5096 N   0  0  0  0  0  0  0  0  0  0  0  0
   29.6707   -5.4232   25.1713 O   0  0  0  0  0  0  0  0  0  0  0  0
   28.0482   -6.8729   24.8167 O   0  0  0  0  0  0  0  0  0  0  0  0
   31.1536   -4.6721   18.0040 N   0  0  0  0  0  0  0  0  0  0  0  0
   32.1466   -3.7461   17.6937 C   0  0  0  0  0  0  0  0  0  0  0  0
   32.1080   -2.6050   18.1418 O   0  0  0  0  0  0  0  0  0  0  0  0
   33.0830   -4.2948   16.8447 N   0  0  0  0  0  0  0  0  0  0  0  0
   31.0810   -5.5398   17.5446 H   0  0  0  0  0  0  0  0  0  0  0  0
   32.9013   -5.2149   16.5453 H   0  0  0  0  0  0  0  0  0  0  0  0
   34.2745   -3.7086   16.3452 C   0  0  0  0  0  0  0  0  0  0  0  0
   34.2989   -3.0761   15.0956 C   0  0  0  0  0  0  0  0  0  0  0  0
   35.4681   -2.5016   14.6048 C   0  0  0  0  0  0  0  0  0  0  0  0
   36.6336   -2.5446   15.3596 C   0  0  0  0  0  0  0  0  0  0  0  0
   36.6503   -3.1573   16.6180 C   0  0  0  0  0  0  0  0  0  0  0  0
   37.8467   -3.1755   17.3542 C   0  0  0  0  0  0  0  0  0  0  0  0
   37.8998   -3.7730   18.6085 C   0  0  0  0  0  0  0  0  0  0  0  0
   39.5222   -3.7887   19.5764 Br  0  0  0  0  0  0  0  0  0  0  0  0
   36.7665   -4.3588   19.1495 C   0  0  0  0  0  0  0  0  0  0  0  0
   35.5697   -4.3481   18.4255 C   0  0  0  0  0  0  0  0  0  0  0  0
   35.4679   -3.7517   17.1392 C   0  0  0  0  0  0  0  0  0  0  0  0
 11 12  1  0
 12 13  1  0
 12 14  1  0
 12  5  1  0
  5  6  2  0
  6  7  1  0
  7  8  2  0
  8  1  1  0
  1  2  2  0
  1  3  1  0
  3 18  1  0
 18 19  1  0
 19 20  2  0
 19 21  1  0
 21 24  1  0
 24 25  2  0
 25 26  1  0
 26 27  2  0
 27 28  1  0
 28 29  2  0
 29 30  1  0
 30 31  1  0
 30 32  2  0
 32 33  1  0
 33 34  2  0
  8  9  1  0
  9 10  2  0
 10 15  1  0
 15 16  2  0
 15 17  1  0
 10  5  1  0
 34 24  1  0
 34 28  1  0
  3  4  1  0
 18 22  1  0
 21 23  1  0
M  CHG 1  15   1
M  CHG 1  17  -1
M  END
> <minimizedAffinity>
-6.79313

> <CNNscore>
0.6326274276

> <CNNaffinity>
6.4338717461

> <CNN_VS>
4.0702438354

> <CNNaffinity_variance>
0.3133591115

$$$$



 34 36  0  0  0  0  0  0  0  0999 V2000
   29.3991   -4.9712   19.4440 C   0  0  0  0  0  0  0  0  0  0  0  0
   29.9410   -6.0428   19.1784 O   0  0  0  0  0  0  0  0  0  0  0  0
   29.4031   -3.9078   18.5589 N   0  0  0  0  0  0  0  0  0  0  0  0
   28.8558   -3.1024   18.7042 H   0  0  0  0  0  0  0  0  0  0  0  0
   27.4014   -4.2226   23.2545 C   0  0  0  0  0  0  0  0  0  0  0  0
   27.0987   -3.5190   22.0674 C   0  0  0  0  0  0  0  0  0  0  0  0
   27.7466   -3.7763   20.8495 C   0  0  0  0  0  0  0  0  0  0  0  0
   28.7368   -4.7550   20.7590 C   0  0  0  0  0  0  0  0  0  0  0  0
   29.0932   -5.4569   21.9072 C   0  0  0  0  0  0  0  0  0  0  0  0
   28.4349   -5.1830   23.1257 C   0  0  0  0  0  0  0  0  0  0  0  0
   25.8934   -5.0712   25.1811 C   0  0  0  0  0  0  0  0  0  0  0  0
   26.6463   -3.8709   24.5626 C   0  0  0  0  0  0  0  0  0  0  0  0
   27.6479   -3.3066   25.5901 C   0  0  0  0  0  0  0  0  0  0  0  0
   25.5567   -2.7810   24.3556 C   0  0  0  0  0  0  0  0  0  0  0  0
   28.9299   -5.9569   24.2471 N   0  0  0  0  0  0  0  0  0  0  0  0
   29.8691   -5.4694   24.8894 O   0  0  0  0  0  0  0  0  0  0  0  0
   28.3401   -7.0113   24.5093 O   0  0  0  0  0  0  0  0  0  0  0  0
   30.2492   -4.0542   17.4262 N   0  0  0  0  0  0  0  0  0  0  0  0
   31.6091   -3.8799   17.6710 C   0  0  0  0  0  0  0  0  0  0  0  0
   32.0060   -3.4386   18.7443 O   0  0  0  0  0  0  0  0  0  0  0  0
   32.3569   -4.2397   16.5710 N   0  0  0  0  0  0  0  0  0  0  0  0
   29.8982   -4.2643   16.5307 H   0  0  0  0  0  0  0  0  0  0  0  0
   31.8441   -4.5122   15.7761 H   0  0  0  0  0  0  0  0  0  0  0  0
   33.7687   -4.2692   16.4331 C   0  0  0  0  0  0  0  0  0  0  0  0
   34.4462   -5.4731   16.2006 C   0  0  0  0  0  0  0  0  0  0  0  0
   35.8315   -5.5025   16.0662 C   0  0  0  0  0  0  0  0  0  0  0  0
   36.5636   -4.3253   16.1562 C   0  0  0  0  0  0  0  0  0  0  0  0
   35.9253   -3.0994   16.3771 C   0  0  0  0  0  0  0  0  0  0  0  0
   36.6993   -1.9296   16.4562 C   0  0  0  0  0  0  0  0  0  0  0  0
   36.0991   -0.6942   16.6723 C   0  0  0  0  0  0  0  0  0  0  0  0
   37.1625    0.8637   16.7797 Br  0  0  0  0  0  0  0  0  0  0  0  0
   34.7234   -0.6028   16.8111 C   0  0  0  0  0  0  0  0  0  0  0  0
   33.9423   -1.7608   16.7355 C   0  0  0  0  0  0  0  0  0  0  0  0
   34.5110   -3.0453   16.5185 C   0  0  0  0  0  0  0  0  0  0  0  0
 11 12  1  0
 12 13  1  0
 12 14  1  0
 12  5  1  0
  5  6  2  0
  6  7  1  0
  7  8  2  0
  8  1  1  0
  1  2  2  0
  1  3  1  0
  3 18  1  0
 18 19  1  0
 19 20  2  0
 19 21  1  0
 21 24  1  0
 24 25  2  0
 25 26  1  0
 26 27  2  0
 27 28  1  0
 28 29  2  0
 29 30  1  0
 30 31  1  0
 30 32  2  0
 32 33  1  0
 33 34  2  0
  8  9  1  0
  9 10  2  0
 10 15  1  0
 15 16  2  0
 15 17  1  0
 10  5  1  0
 34 24  1  0
 34 28  1  0
  3  4  1  0
 18 22  1  0
 21 23  1  0
M  CHG 1  15   1
M  CHG 1  17  -1
M  END
> <minimizedAffinity>
-6.58661

> <CNNscore>
0.5811874270

> <CNNaffinity>
6.4976825714

> <CNN_VS>
3.7763714790

> <CNNaffinity_variance>
0.3055706918

$$$$



 34 36  0  0  0  0  0  0  0  0999 V2000
   29.2613   -4.9310   19.2596 C   0  0  0  0  0  0  0  0  0  0  0  0
   29.5501   -5.9949   18.7146 O   0  0  0  0  0  0  0  0  0  0  0  0
   29.2612   -3.7306   18.5716 N   0  0  0  0  0  0  0  0  0  0  0  0
   28.8978   -2.9027   18.9613 H   0  0  0  0  0  0  0  0  0  0  0  0
   28.3809   -4.8758   23.5367 C   0  0  0  0  0  0  0  0  0  0  0  0
   29.5265   -5.4935   22.9873 C   0  0  0  0  0  0  0  0  0  0  0  0
   29.7972   -5.4969   21.6104 C   0  0  0  0  0  0  0  0  0  0  0  0
   28.9288   -4.8804   20.7092 C   0  0  0  0  0  0  0  0  0  0  0  0
   27.7699   -4.2824   21.1966 C   0  0  0  0  0  0  0  0  0  0  0  0
   27.5098   -4.2914   22.5842 C   0  0  0  0  0  0  0  0  0  0  0  0
   27.9040   -3.5351   25.7003 C   0  0  0  0  0  0  0  0  0  0  0  0
   28.1491   -4.9250   25.0692 C   0  0  0  0  0  0  0  0  0  0  0  0
   26.9503   -5.8463   25.3714 C   0  0  0  0  0  0  0  0  0  0  0  0
   29.3655   -5.5057   25.8447 C   0  0  0  0  0  0  0  0  0  0  0  0
   26.2526   -3.6694   22.9498 N   0  0  0  0  0  0  0  0  0  0  0  0
   26.2511   -2.4362   23.0564 O   0  0  0  0  0  0  0  0  0  0  0  0
   25.2700   -4.4103   23.0690 O   0  0  0  0  0  0  0  0  0  0  0  0
   29.8200   -3.7709   17.2654 N   0  0  0  0  0  0  0  0  0  0  0  0
   31.1068   -3.2505   17.1507 C   0  0  0  0  0  0  0  0  0  0  0  0
   31.6214   -2.6296   18.0749 O   0  0  0  0  0  0  0  0  0  0  0  0
   31.6365   -3.5178   15.9071 N   0  0  0  0  0  0  0  0  0  0  0  0
   29.3313   -4.1410   16.4950 H   0  0  0  0  0  0  0  0  0  0  0  0
   31.0364   -3.9782   15.2769 H   0  0  0  0  0  0  0  0  0  0  0  0
   32.9327   -3.2169   15.4151 C   0  0  0  0  0  0  0  0  0  0  0  0
   33.2311   -1.9514   14.8938 C   0  0  0  0  0  0  0  0  0  0  0  0
   34.5026   -1.6561   14.4101 C   0  0  0  0  0  0  0  0  0  0  0  0
   35.5011   -2.6214   14.4451 C   0  0  0  0  0  0  0  0  0  0  0  0
   35.2484   -3.8952   14.9675 C   0  0  0  0  0  0  0  0  0  0  0  0
   36.2853   -4.8428   14.9913 C   0  0  0  0  0  0  0  0  0  0  0  0
   36.0713   -6.1170   15.5050 C   0  0  0  0  0  0  0  0  0  0  0  0
   37.4807   -7.3750   15.5212 Br  0  0  0  0  0  0  0  0  0  0  0  0
   34.8265   -6.4673   16.0030 C   0  0  0  0  0  0  0  0  0  0  0  0
   33.7858   -5.5327   15.9834 C   0  0  0  0  0  0  0  0  0  0  0  0
   33.9565   -4.2197   15.4664 C   0  0  0  0  0  0  0  0  0  0  0  0
 11 12  1  0
 12 13  1  0
 12 14  1  0
 12  5  1  0
  5  6  2  0
  6  7  1  0
  7  8  2  0
  8  1  1  0
  1  2  2  0
  1  3  1  0
  3 18  1  0
 18 19  1  0
 19 20  2  0
 19 21  1  0
 21 24  1  0
 24 25  2  0
 25 26  1  0
 26 27  2  0
 27 28  1  0
 28 29  2  0
 29 30  1  0
 30 31  1  0
 30 32  2  0
 32 33  1  0
 33 34  2  0
  8  9  1  0
  9 10  2  0
 10 15  1  0
 15 16  2  0
 15 17  1  0
 10  5  1  0
 34 24  1  0
 34 28  1  0
  3  4  1  0
 18 22  1  0
 21 23  1  0
M  CHG 1  15   1
M  CHG 1  17  -1
M  END
> <minimizedAffinity>
-5.82267

> <CNNscore>
0.5552435517

> <CNNaffinity>
6.5258598328

> <CNN_VS>
3.6234416962

> <CNNaffinity_variance>
0.7711496353

$$$$



 34 36  0  0  0  0  0  0  0  0999 V2000
   29.6272   -4.7778   19.8308 C   0  0  0  0  0  0  0  0  0  0  0  0
   30.3453   -5.7583   19.6425 O   0  0  0  0  0  0  0  0  0  0  0  0
   29.5522   -3.7378   18.9214 N   0  0  0  0  0  0  0  0  0  0  0  0
   28.8795   -3.0229   18.9964 H   0  0  0  0  0  0  0  0  0  0  0  0
   27.2171   -4.2785   23.4382 C   0  0  0  0  0  0  0  0  0  0  0  0
   27.0308   -3.5106   22.2672 C   0  0  0  0  0  0  0  0  0  0  0  0
   27.8107   -3.6881   21.1142 C   0  0  0  0  0  0  0  0  0  0  0  0
   28.8232   -4.6472   21.0762 C   0  0  0  0  0  0  0  0  0  0  0  0
   29.0671   -5.4105   22.2147 C   0  0  0  0  0  0  0  0  0  0  0  0
   28.2764   -5.2167   23.3681 C   0  0  0  0  0  0  0  0  0  0  0  0
   25.3936   -5.2000   25.0294 C   0  0  0  0  0  0  0  0  0  0  0  0
   26.3191   -4.0135   24.6745 C   0  0  0  0  0  0  0  0  0  0  0  0
   27.2110   -3.6760   25.8860 C   0  0  0  0  0  0  0  0  0  0  0  0
   25.3600   -2.8058   24.4754 C   0  0  0  0  0  0  0  0  0  0  0  0
   28.6623   -6.0485   24.4908 N   0  0  0  0  0  0  0  0  0  0  0  0
   29.5746   -5.6237   25.2116 O   0  0  0  0  0  0  0  0  0  0  0  0
   28.0138   -7.0850   24.6744 O   0  0  0  0  0  0  0  0  0  0  0  0
   30.5101   -3.7691   17.8717 N   0  0  0  0  0  0  0  0  0  0  0  0
   30.0010   -4.0582   16.6080 C   0  0  0  0  0  0  0  0  0  0  0  0
   28.8469   -4.4486   16.4664 O   0  0  0  0  0  0  0  0  0  0  0  0
   30.9585   -3.8654   15.6361 N   0  0  0  0  0  0  0  0  0  0  0  0
   31.4671   -3.5982   18.0272 H   0  0  0  0  0  0  0  0  0  0  0  0
   31.8516   -3.6083   15.9609 H   0  0  0  0  0  0  0  0  0  0  0  0
   30.8269   -3.9886   14.2288 C   0  0  0  0  0  0  0  0  0  0  0  0
   30.3255   -2.9336   13.4556 C   0  0  0  0  0  0  0  0  0  0  0  0
   30.1954   -3.0545   12.0749 C   0  0  0  0  0  0  0  0  0  0  0  0
   30.5708   -4.2328   11.4420 C   0  0  0  0  0  0  0  0  0  0  0  0
   31.0864   -5.3076   12.1756 C   0  0  0  0  0  0  0  0  0  0  0  0
   31.4606   -6.4807   11.4991 C   0  0  0  0  0  0  0  0  0  0  0  0
   31.9787   -7.5672   12.1950 C   0  0  0  0  0  0  0  0  0  0  0  0
   32.4698   -9.1353   11.2628 Br  0  0  0  0  0  0  0  0  0  0  0  0
   32.1336   -7.5037   13.5706 C   0  0  0  0  0  0  0  0  0  0  0  0
   31.7633   -6.3415   14.2553 C   0  0  0  0  0  0  0  0  0  0  0  0
   31.2274   -5.2070   13.5874 C   0  0  0  0  0  0  0  0  0  0  0  0
 11 12  1  0
 12 13  1  0
 12 14  1  0
 12  5  1  0
  5  6  2  0
  6  7  1  0
  7  8  2  0
  8  1  1  0
  1  2  2  0
  1  3  1  0
  3 18  1  0
 18 19  1  0
 19 20  2  0
 19 21  1  0
 21 24  1  0
 24 25  2  0
 25 26  1  0
 26 27  2  0
 27 28  1  0
 28 29  2  0
 29 30  1  0
 30 31  1  0
 30 32  2  0
 32 33  1  0
 33 34  2  0
  8  9  1  0
  9 10  2  0
 10 15  1  0
 15 16  2  0
 15 17  1  0
 10  5  1  0
 34 24  1  0
 34 28  1  0
  3  4  1  0
 18 22  1  0
 21 23  1  0
M  CHG 1  15   1
M  CHG 1  17  -1
M  END
> <minimizedAffinity>
-6.86976

> <CNNscore>
0.5368532538

> <CNNaffinity>
6.2977428436

> <CNN_VS>
3.3809638023

> <CNNaffinity_variance>
0.7285289764

$$$$



 34 36  0  0  0  0  0  0  0  0999 V2000
   29.5468   -5.1913   19.9152 C   0  0  0  0  0  0  0  0  0  0  0  0
   30.1353   -6.2671   19.8214 O   0  0  0  0  0  0  0  0  0  0  0  0
   29.6389   -4.2169   18.9373 N   0  0  0  0  0  0  0  0  0  0  0  0
   29.0641   -3.4176   18.9375 H   0  0  0  0  0  0  0  0  0  0  0  0
   27.1120   -4.1304   23.3819 C   0  0  0  0  0  0  0  0  0  0  0  0
   27.0951   -3.4052   22.1696 C   0  0  0  0  0  0  0  0  0  0  0  0
   27.8800   -3.7635   21.0628 C   0  0  0  0  0  0  0  0  0  0  0  0
   28.7273   -4.8706   21.1152 C   0  0  0  0  0  0  0  0  0  0  0  0
   28.8029   -5.6021   22.2974 C   0  0  0  0  0  0  0  0  0  0  0  0
   28.0100   -5.2260   23.4033 C   0  0  0  0  0  0  0  0  0  0  0  0
   26.9421   -3.6984   25.9295 C   0  0  0  0  0  0  0  0  0  0  0  0
   26.2214   -3.6629   24.5622 C   0  0  0  0  0  0  0  0  0  0  0  0
   25.7184   -2.2325   24.2823 C   0  0  0  0  0  0  0  0  0  0  0  0
   24.9593   -4.5508   24.7540 C   0  0  0  0  0  0  0  0  0  0  0  0
   28.2154   -6.0481   24.5794 N   0  0  0  0  0  0  0  0  0  0  0  0
   29.0563   -5.6516   25.3967 O   0  0  0  0  0  0  0  0  0  0  0  0
   27.4963   -7.0463   24.7028 O   0  0  0  0  0  0  0  0  0  0  0  0
   30.6176   -4.4454   17.9323 N   0  0  0  0  0  0  0  0  0  0  0  0
   31.0395   -3.3119   17.2417 C   0  0  0  0  0  0  0  0  0  0  0  0
   30.4549   -2.2411   17.3688 O   0  0  0  0  0  0  0  0  0  0  0  0
   32.1236   -3.5987   16.4411 N   0  0  0  0  0  0  0  0  0  0  0  0
   30.9728   -5.3428   17.7379 H   0  0  0  0  0  0  0  0  0  0  0  0
   32.4087   -4.5410   16.4291 H   0  0  0  0  0  0  0  0  0  0  0  0
   32.8832   -2.7151   15.6318 C   0  0  0  0  0  0  0  0  0  0  0  0
   33.3574   -3.1143   14.3756 C   0  0  0  0  0  0  0  0  0  0  0  0
   34.1036   -2.2479   13.5816 C   0  0  0  0  0  0  0  0  0  0  0  0
   34.3836   -0.9627   14.0287 C   0  0  0  0  0  0  0  0  0  0  0  0
   33.9200   -0.5198   15.2729 C   0  0  0  0  0  0  0  0  0  0  0  0
   34.2186    0.7887   15.6880 C   0  0  0  0  0  0  0  0  0  0  0  0
   33.7725    1.2634   16.9163 C   0  0  0  0  0  0  0  0  0  0  0  0
   34.1916    3.0255   17.4538 Br  0  0  0  0  0  0  0  0  0  0  0  0
   33.0232    0.4469   17.7482 C   0  0  0  0  0  0  0  0  0  0  0  0
   32.7206   -0.8584   17.3465 C   0  0  0  0  0  0  0  0  0  0  0  0
   33.1566   -1.3880   16.1015 C   0  0  0  0  0  0  0  0  0  0  0  0
 11 12  1  0
 12 13  1  0
 12 14  1  0
 12  5  1  0
  5  6  2  0
  6  7  1  0
  7  8  2  0
  8  1  1  0
  1  2  2  0
  1  3  1  0
  3 18  1  0
 18 19  1  0
 19 20  2  0
 19 21  1  0
 21 24  1  0
 24 25  2  0
 25 26  1  0
 26 27  2  0
 27 28  1  0
 28 29  2  0
 29 30  1  0
 30 31  1  0
 30 32  2  0
 32 33  1  0
 33 34  2  0
  8  9  1  0
  9 10  2  0
 10 15  1  0
 15 16  2  0
 15 17  1  0
 10  5  1  0
 34 24  1  0
 34 28  1  0
  3  4  1  0
 18 22  1  0
 21 23  1  0
M  CHG 1  15   1
M  CHG 1  17  -1
M  END
> <minimizedAffinity>
-6.63124

> <CNNscore>
0.5025998950

> <CNNaffinity>
6.6849694252

> <CNN_VS>
3.3598649502

> <CNNaffinity_variance>
0.3533249795

$$$$



 34 36  0  0  0  0  0  0  0  0999 V2000
   30.0111   -4.8691   17.2183 C   0  0  0  0  0  0  0  0  0  0  0  0
   29.1471   -4.1683   16.6940 O   0  0  0  0  0  0  0  0  0  0  0  0
   30.1830   -4.9183   18.5903 N   0  0  0  0  0  0  0  0  0  0  0  0
   30.7730   -5.5779   19.0217 H   0  0  0  0  0  0  0  0  0  0  0  0
   32.7957   -7.3061   14.8991 C   0  0  0  0  0  0  0  0  0  0  0  0
   32.4804   -7.5621   16.2522 C   0  0  0  0  0  0  0  0  0  0  0  0
   31.5785   -6.7720   16.9813 C   0  0  0  0  0  0  0  0  0  0  0  0
   30.9451   -5.6788   16.3897 C   0  0  0  0  0  0  0  0  0  0  0  0
   31.2437   -5.3659   15.0664 C   0  0  0  0  0  0  0  0  0  0  0  0
   32.1565   -6.1681   14.3479 C   0  0  0  0  0  0  0  0  0  0  0  0
   34.5323   -9.2160   15.1048 C   0  0  0  0  0  0  0  0  0  0  0  0
   33.8109   -8.2214   14.1666 C   0  0  0  0  0  0  0  0  0  0  0  0
   33.0805   -9.0002   13.0542 C   0  0  0  0  0  0  0  0  0  0  0  0
   34.9537   -7.4236   13.4770 C   0  0  0  0  0  0  0  0  0  0  0  0
   32.4048   -5.7078   12.9960 N   0  0  0  0  0  0  0  0  0  0  0  0
   31.7353   -6.2327   12.0967 O   0  0  0  0  0  0  0  0  0  0  0  0
   33.2204   -4.7897   12.8532 O   0  0  0  0  0  0  0  0  0  0  0  0
   29.4519   -3.9542   19.3362 N   0  0  0  0  0  0  0  0  0  0  0  0
   28.6916   -4.4635   20.3861 C   0  0  0  0  0  0  0  0  0  0  0  0
   28.5224   -5.6715   20.5151 O   0  0  0  0  0  0  0  0  0  0  0  0
   28.1889   -3.4464   21.1680 N   0  0  0  0  0  0  0  0  0  0  0  0
   29.4810   -2.9930   19.1252 H   0  0  0  0  0  0  0  0  0  0  0  0
   28.3868   -2.5326   20.8597 H   0  0  0  0  0  0  0  0  0  0  0  0
   27.4238   -3.5425   22.3589 C   0  0  0  0  0  0  0  0  0  0  0  0
   26.1269   -3.0175   22.4280 C   0  0  0  0  0  0  0  0  0  0  0  0
   25.3763   -3.1108   23.5966 C   0  0  0  0  0  0  0  0  0  0  0  0
   25.9087   -3.7373   24.7164 C   0  0  0  0  0  0  0  0  0  0  0  0
   27.1965   -4.2849   24.6870 C   0  0  0  0  0  0  0  0  0  0  0  0
   27.6981   -4.9159   25.8376 C   0  0  0  0  0  0  0  0  0  0  0  0
   28.9719   -5.4730   25.8439 C   0  0  0  0  0  0  0  0  0  0  0  0
   29.6254   -6.3117   27.4056 Br  0  0  0  0  0  0  0  0  0  0  0  0
   29.7642   -5.4128   24.7087 C   0  0  0  0  0  0  0  0  0  0  0  0
   29.2762   -4.7860   23.5572 C   0  0  0  0  0  0  0  0  0  0  0  0
   27.9821   -4.2005   23.5042 C   0  0  0  0  0  0  0  0  0  0  0  0
 11 12  1  0
 12 13  1  0
 12 14  1  0
 12  5  1  0
  5  6  2  0
  6  7  1  0
  7  8  2  0
  8  1  1  0
  1  2  2  0
  1  3  1  0
  3 18  1  0
 18 19  1  0
 19 20  2  0
 19 21  1  0
 21 24  1  0
 24 25  2  0
 25 26  1  0
 26 27  2  0
 27 28  1  0
 28 29  2  0
 29 30  1  0
 30 31  1  0
 30 32  2  0
 32 33  1  0
 33 34  2  0
  8  9  1  0
  9 10  2  0
 10 15  1  0
 15 16  2  0
 15 17  1  0
 10  5  1  0
 34 24  1  0
 34 28  1  0
  3  4  1  0
 18 22  1  0
 21 23  1  0
M  CHG 1  15   1
M  CHG 1  17  -1
M  END
> <minimizedAffinity>
-6.48826

> <CNNscore>
0.4519100487

> <CNNaffinity>
6.3072485924

> <CNN_VS>
2.8503091335

> <CNNaffinity_variance>
0.0942707658

$$$$



 34 36  0  0  0  0  0  0  0  0999 V2000
   29.6020   -4.8375   19.6368 C   0  0  0  0  0  0  0  0  0  0  0  0
   30.3742   -5.7864   19.5112 O   0  0  0  0  0  0  0  0  0  0  0  0
   29.4430   -3.8849   18.6460 N   0  0  0  0  0  0  0  0  0  0  0  0
   28.7298   -3.2071   18.6797 H   0  0  0  0  0  0  0  0  0  0  0  0
   27.2534   -4.1722   23.2579 C   0  0  0  0  0  0  0  0  0  0  0  0
   27.0234   -3.4843   22.0456 C   0  0  0  0  0  0  0  0  0  0  0  0
   27.7842   -3.7146   20.8891 C   0  0  0  0  0  0  0  0  0  0  0  0
   28.8204   -4.6488   20.8889 C   0  0  0  0  0  0  0  0  0  0  0  0
   29.1071   -5.3328   22.0671 C   0  0  0  0  0  0  0  0  0  0  0  0
   28.3352   -5.0865   23.2233 C   0  0  0  0  0  0  0  0  0  0  0  0
   25.4473   -2.6316   24.2925 C   0  0  0  0  0  0  0  0  0  0  0  0
   26.3740   -3.8524   24.4946 C   0  0  0  0  0  0  0  0  0  0  0  0
   25.5251   -5.0904   24.8469 C   0  0  0  0  0  0  0  0  0  0  0  0
   27.2126   -3.5111   25.7588 C   0  0  0  0  0  0  0  0  0  0  0  0
   28.7653   -5.8362   24.3869 N   0  0  0  0  0  0  0  0  0  0  0  0
   28.1880   -6.9098   24.6028 O   0  0  0  0  0  0  0  0  0  0  0  0
   29.7106   -5.3758   25.0372 O   0  0  0  0  0  0  0  0  0  0  0  0
   30.3767   -3.9491   17.5763 N   0  0  0  0  0  0  0  0  0  0  0  0
   29.8757   -4.4479   16.3763 C   0  0  0  0  0  0  0  0  0  0  0  0
   28.7677   -4.9714   16.3237 O   0  0  0  0  0  0  0  0  0  0  0  0
   30.7864   -4.2812   15.3558 N   0  0  0  0  0  0  0  0  0  0  0  0
   31.3127   -3.6610   17.6766 H   0  0  0  0  0  0  0  0  0  0  0  0
   31.6531   -3.8931   15.6156 H   0  0  0  0  0  0  0  0  0  0  0  0
   30.6397   -4.5952   13.9800 C   0  0  0  0  0  0  0  0  0  0  0  0
   30.6389   -5.9248   13.5392 C   0  0  0  0  0  0  0  0  0  0  0  0
   30.4959   -6.2331   12.1892 C   0  0  0  0  0  0  0  0  0  0  0  0
   30.3450   -5.2151   11.2560 C   0  0  0  0  0  0  0  0  0  0  0  0
   30.3296   -3.8736   11.6549 C   0  0  0  0  0  0  0  0  0  0  0  0
   30.1690   -2.8724   10.6825 C   0  0  0  0  0  0  0  0  0  0  0  0
   30.1465   -1.5297   11.0425 C   0  0  0  0  0  0  0  0  0  0  0  0
   29.9341   -0.2021    9.7153 Br  0  0  0  0  0  0  0  0  0  0  0  0
   30.2816   -1.1626   12.3719 C   0  0  0  0  0  0  0  0  0  0  0  0
   30.4435   -2.1503   13.3491 C   0  0  0  0  0  0  0  0  0  0  0  0
   30.4750   -3.5348   13.0287 C   0  0  0  0  0  0  0  0  0  0  0  0
 11 12  1  0
 12 13  1  0
 12 14  1  0
 12  5  1  0
  5  6  2  0
  6  7  1  0
  7  8  2  0
  8  1  1  0
  1  2  2  0
  1  3  1  0
  3 18  1  0
 18 19  1  0
 19 20  2  0
 19 21  1  0
 21 24  1  0
 24 25  2  0
 25 26  1  0
 26 27  2  0
 27 28  1  0
 28 29  2  0
 29 30  1  0
 30 31  1  0
 30 32  2  0
 32 33  1  0
 33 34  2  0
  8  9  1  0
  9 10  2  0
 10 15  1  0
 15 16  2  0
 15 17  1  0
 10  5  1  0
 34 24  1  0
 34 28  1  0
  3  4  1  0
 18 22  1  0
 21 23  1  0
M  CHG 1  15   1
M  CHG 1  17  -1
M  END
> <minimizedAffinity>
-6.92922

> <CNNscore>
0.4078467786

> <CNNaffinity>
6.1157226562

> <CNN_VS>
2.4942777157

> <CNNaffinity_variance>
0.5572376251

$$$$



 34 36  0  0  0  0  0  0  0  0999 V2000
   30.9298   -3.6483   17.9302 C   0  0  0  0  0  0  0  0  0  0  0  0
   30.0700   -3.4247   17.0797 O   0  0  0  0  0  0  0  0  0  0  0  0
   30.6164   -4.1828   19.1673 N   0  0  0  0  0  0  0  0  0  0  0  0
   31.3084   -4.4935   19.7950 H   0  0  0  0  0  0  0  0  0  0  0  0
   35.0875   -2.5493   17.1706 C   0  0  0  0  0  0  0  0  0  0  0  0
   34.0630   -1.6034   17.3976 C   0  0  0  0  0  0  0  0  0  0  0  0
   32.7326   -1.9741   17.6460 C   0  0  0  0  0  0  0  0  0  0  0  0
   32.3586   -3.3179   17.6779 C   0  0  0  0  0  0  0  0  0  0  0  0
   33.3250   -4.2891   17.4311 C   0  0  0  0  0  0  0  0  0  0  0  0
   34.6582   -3.8995   17.1785 C   0  0  0  0  0  0  0  0  0  0  0  0
   37.5877   -2.6862   17.8311 C   0  0  0  0  0  0  0  0  0  0  0  0
   36.5317   -2.0572   16.8934 C   0  0  0  0  0  0  0  0  0  0  0  0
   36.8985   -2.3619   15.4271 C   0  0  0  0  0  0  0  0  0  0  0  0
   36.6929   -0.5224   17.0846 C   0  0  0  0  0  0  0  0  0  0  0  0
   35.5507   -5.0073   16.9001 N   0  0  0  0  0  0  0  0  0  0  0  0
   36.0549   -5.5759   17.8772 O   0  0  0  0  0  0  0  0  0  0  0  0
   35.6927   -5.3339   15.7161 O   0  0  0  0  0  0  0  0  0  0  0  0
   29.2301   -4.2539   19.4727 N   0  0  0  0  0  0  0  0  0  0  0  0
   28.9184   -4.2721   20.8301 C   0  0  0  0  0  0  0  0  0  0  0  0
   29.7938   -4.4165   21.6770 O   0  0  0  0  0  0  0  0  0  0  0  0
   27.5613   -4.1353   21.0250 N   0  0  0  0  0  0  0  0  0  0  0  0
   28.5381   -4.2880   18.7733 H   0  0  0  0  0  0  0  0  0  0  0  0
   27.0139   -4.0959   20.2077 H   0  0  0  0  0  0  0  0  0  0  0  0
   26.8487   -4.0438   22.2484 C   0  0  0  0  0  0  0  0  0  0  0  0
   26.3219   -2.8223   22.6873 C   0  0  0  0  0  0  0  0  0  0  0  0
   25.6235   -2.7320   23.8881 C   0  0  0  0  0  0  0  0  0  0  0  0
   25.4346   -3.8652   24.6692 C   0  0  0  0  0  0  0  0  0  0  0  0
   25.9352   -5.1075   24.2626 C   0  0  0  0  0  0  0  0  0  0  0  0
   25.7188   -6.2319   25.0766 C   0  0  0  0  0  0  0  0  0  0  0  0
   26.1995   -7.4820   24.7033 C   0  0  0  0  0  0  0  0  0  0  0  0
   25.8996   -8.9777   25.8179 Br  0  0  0  0  0  0  0  0  0  0  0  0
   26.8997   -7.6333   23.5171 C   0  0  0  0  0  0  0  0  0  0  0  0
   27.1226   -6.5209   22.6989 C   0  0  0  0  0  0  0  0  0  0  0  0
   26.6527   -5.2234   23.0399 C   0  0  0  0  0  0  0  0  0  0  0  0
 11 12  1  0
 12 13  1  0
 12 14  1  0
 12  5  1  0
  5  6  2  0
  6  7  1  0
  7  8  2  0
  8  1  1  0
  1  2  2  0
  1  3  1  0
  3 18  1  0
 18 19  1  0
 19 20  2  0
 19 21  1  0
 21 24  1  0
 24 25  2  0
 25 26  1  0
 26 27  2  0
 27 28  1  0
 28 29  2  0
 29 30  1  0
 30 31  1  0
 30 32  2  0
 32 33  1  0
 33 34  2  0
  8  9  1  0
  9 10  2  0
 10 15  1  0
 15 16  2  0
 15 17  1  0
 10  5  1  0
 34 24  1  0
 34 28  1  0
  3  4  1  0
 18 22  1  0
 21 23  1  0
M  CHG 1  15   1
M  CHG 1  17  -1
M  END
> <minimizedAffinity>
-7.27430

> <CNNscore>
0.3949593604

> <CNNaffinity>
6.1165332794

> <CNN_VS>
2.4157819748

> <CNNaffinity_variance>
0.0461686142

$$$$



 34 36  0  0  0  0  0  0  0  0999 V2000
   25.1619   -9.1890   28.0667 C   0  0  0  0  0  0  0  0  0  0  0  0
   25.9357   -8.6538   28.8587 O   0  0  0  0  0  0  0  0  0  0  0  0
   25.2646   -9.0006   26.6999 N   0  0  0  0  0  0  0  0  0  0  0  0
   24.7423   -9.5321   26.0565 H   0  0  0  0  0  0  0  0  0  0  0  0
   21.9567  -11.7307   29.5957 C   0  0  0  0  0  0  0  0  0  0  0  0
   23.0518  -11.3051   30.3802 C   0  0  0  0  0  0  0  0  0  0  0  0
   24.0706  -10.4833   29.8744 C   0  0  0  0  0  0  0  0  0  0  0  0
   24.0451  -10.0455   28.5500 C   0  0  0  0  0  0  0  0  0  0  0  0
   23.0025  -10.4609   27.7262 C   0  0  0  0  0  0  0  0  0  0  0  0
   21.9875  -11.2913   28.2491 C   0  0  0  0  0  0  0  0  0  0  0  0
   21.0199  -14.1337   29.8279 C   0  0  0  0  0  0  0  0  0  0  0  0
   20.8769  -12.6471   30.2275 C   0  0  0  0  0  0  0  0  0  0  0  0
   20.9379  -12.5185   31.7628 C   0  0  0  0  0  0  0  0  0  0  0  0
   19.4324  -12.2578   29.8035 C   0  0  0  0  0  0  0  0  0  0  0  0
   20.9867  -11.6794   27.2750 N   0  0  0  0  0  0  0  0  0  0  0  0
   21.1060  -12.8037   26.7710 O   0  0  0  0  0  0  0  0  0  0  0  0
   20.0630  -10.8843   27.0674 O   0  0  0  0  0  0  0  0  0  0  0  0
   26.1734   -7.9894   26.2855 N   0  0  0  0  0  0  0  0  0  0  0  0
   25.7484   -7.2081   25.2137 C   0  0  0  0  0  0  0  0  0  0  0  0
   24.7534   -7.5139   24.5649 O   0  0  0  0  0  0  0  0  0  0  0  0
   26.5936   -6.1373   25.0199 N   0  0  0  0  0  0  0  0  0  0  0  0
   27.0431   -7.8509   26.7256 H   0  0  0  0  0  0  0  0  0  0  0  0
   27.3800   -6.1011   25.6111 H   0  0  0  0  0  0  0  0  0  0  0  0
   26.4799   -5.0800   24.0807 C   0  0  0  0  0  0  0  0  0  0  0  0
   25.5767   -4.0286   24.2832 C   0  0  0  0  0  0  0  0  0  0  0  0
   25.4642   -2.9916   23.3614 C   0  0  0  0  0  0  0  0  0  0  0  0
   26.2590   -2.9853   22.2220 C   0  0  0  0  0  0  0  0  0  0  0  0
   27.1819   -4.0108   21.9862 C   0  0  0  0  0  0  0  0  0  0  0  0
   27.9722   -3.9665   20.8255 C   0  0  0  0  0  0  0  0  0  0  0  0
   28.9009   -4.9665   20.5600 C   0  0  0  0  0  0  0  0  0  0  0  0
   29.9481   -4.8866   18.9896 Br  0  0  0  0  0  0  0  0  0  0  0  0
   29.0589   -6.0227   21.4430 C   0  0  0  0  0  0  0  0  0  0  0  0
   28.2768   -6.0785   22.6015 C   0  0  0  0  0  0  0  0  0  0  0  0
   27.3134   -5.0811   22.9138 C   0  0  0  0  0  0  0  0  0  0  0  0
 11 12  1  0
 12 13  1  0
 12 14  1  0
 12  5  1  0
  5  6  2  0
  6  7  1  0
  7  8  2  0
  8  1  1  0
  1  2  2  0
  1  3  1  0
  3 18  1  0
 18 19  1  0
 19 20  2  0
 19 21  1  0
 21 24  1  0
 24 25  2  0
 25 26  1  0
 26 27  2  0
 27 28  1  0
 28 29  2  0
 29 30  1  0
 30 31  1  0
 30 32  2  0
 32 33  1  0
 33 34  2  0
  8  9  1  0
  9 10  2  0
 10 15  1  0
 15 16  2  0
 15 17  1  0
 10  5  1  0
 34 24  1  0
 34 28  1  0
  3  4  1  0
 18 22  1  0
 21 23  1  0
M  CHG 1  15   1
M  CHG 1  17  -1
M  END
> <minimizedAffinity>
-7.77788

> <CNNscore>
0.3890270889

> <CNNaffinity>
5.5528864861

> <CNN_VS>
2.1602232456

> <CNNaffinity_variance>
0.0214401782

$$$$
