


 22 22  0  0  0  0  0  0  0  0999 V2000
   77.7418    7.3715   29.6001 C   0  0  0  0  0  0  0  0  0  0  0  0
   79.2368    7.1116   29.3977 C   0  0  0  0  0  0  0  0  0  0  0  0
   79.4307    6.0470   28.3032 C   0  0  0  0  0  0  0  0  0  0  0  0
   80.9019    5.6916   28.0549 C   0  0  0  0  0  0  0  0  0  0  0  0
   81.8651    6.5193   28.9049 C   0  0  0  0  0  0  0  0  0  0  0  0
   81.4567    6.4661   30.3873 C   0  0  0  0  0  0  0  0  0  0  0  0
   80.0206    6.7150   30.5959 N   0  0  0  0  0  0  0  0  0  0  0  0
   79.3717    6.3622   31.7811 C   0  0  0  0  0  0  0  0  0  0  0  0
   78.5142    7.0925   32.2715 O   0  0  0  0  0  0  0  0  0  0  0  0
   82.4054    7.2827   31.3380 C   0  0  0  0  0  0  0  0  0  0  0  0
   83.9476    7.5267   30.9891 N   0  0  0  0  0  0  0  0  0  0  0  0
   84.5904    6.2198   30.5594 C   0  0  0  0  0  0  0  0  0  0  0  0
   84.6598    8.0490   32.2270 C   0  0  0  0  0  0  0  0  0  0  0  0
   83.9048    8.5886   29.8843 C   0  0  0  0  0  0  0  0  0  0  0  0
   85.0894    8.9031   28.9905 N   0  0  0  0  0  0  0  0  0  0  0  0
   85.3729    7.9150   27.8735 C   0  0  0  0  0  0  0  0  0  0  0  0
   86.3423    8.8507   29.9239 C   0  0  0  0  0  0  0  0  0  0  0  0
   85.0757   10.3323   28.4338 C   0  0  0  0  0  0  0  0  0  0  0  0
   79.8620    5.1155   32.4928 C   0  0  0  0  0  0  0  0  0  0  0  0
   80.2503    5.4162   33.9356 C   0  0  0  0  0  0  0  0  0  0  0  0
   81.9146    4.7629   34.2488 S   0  0  0  0  0  0  0  0  0  0  0  0
   81.9211    3.4192   34.0390 H   0  0  0  0  0  0  0  0  0  0  0  0
  2  1  1  0
  2  3  1  0
  3  4  1  0
  4  5  1  0
  5  6  1  0
  6 10  1  0
 10 11  1  0
 11 12  1  0
 11 13  1  0
 11 14  1  0
 14 15  1  0
 15 16  1  0
 15 17  1  0
 15 18  1  0
  6  7  1  0
  7  8  1  0
  8  9  2  0
  8 19  1  0
 19 20  1  0
 20 21  1  0
  7  2  1  0
 21 22  1  0
M  CHG 1  11   1
M  CHG 1  15   1
M  END
> <minimizedAffinity>
-4.44461

> <CNNscore>
0.6614826918

> <CNNaffinity>
4.4842753410

> <CNN_VS>
2.9662704468

> <CNNaffinity_variance>
0.3032178581

$$$$



 22 22  0  0  0  0  0  0  0  0999 V2000
   82.2709    9.6778   28.9299 C   0  0  0  0  0  0  0  0  0  0  0  0
   82.4465    8.3317   29.6374 C   0  0  0  0  0  0  0  0  0  0  0  0
   83.5751    7.5361   28.9574 C   0  0  0  0  0  0  0  0  0  0  0  0
   83.8008    6.1512   29.5765 C   0  0  0  0  0  0  0  0  0  0  0  0
   82.8974    5.8835   30.7796 C   0  0  0  0  0  0  0  0  0  0  0  0
   81.4283    6.1711   30.4242 C   0  0  0  0  0  0  0  0  0  0  0  0
   81.2454    7.4638   29.7435 N   0  0  0  0  0  0  0  0  0  0  0  0
   80.0903    7.7623   29.0176 C   0  0  0  0  0  0  0  0  0  0  0  0
   79.5938    8.8852   29.0571 O   0  0  0  0  0  0  0  0  0  0  0  0
   80.4251    5.9079   31.6053 C   0  0  0  0  0  0  0  0  0  0  0  0
   80.9289    5.6356   33.0992 N   0  0  0  0  0  0  0  0  0  0  0  0
   82.4420    5.5095   33.1165 C   0  0  0  0  0  0  0  0  0  0  0  0
   80.3149    4.3382   33.6013 C   0  0  0  0  0  0  0  0  0  0  0  0
   80.3987    6.8405   33.8848 C   0  0  0  0  0  0  0  0  0  0  0  0
   80.9519    7.2589   35.2339 N   0  0  0  0  0  0  0  0  0  0  0  0
   81.0661    6.1685   36.2838 C   0  0  0  0  0  0  0  0  0  0  0  0
   79.9223    8.2861   35.8070 C   0  0  0  0  0  0  0  0  0  0  0  0
   82.2707    8.0367   35.1418 C   0  0  0  0  0  0  0  0  0  0  0  0
   79.4140    6.6145   28.2920 C   0  0  0  0  0  0  0  0  0  0  0  0
   79.4610    6.8080   26.7810 C   0  0  0  0  0  0  0  0  0  0  0  0
   77.7657    6.8138   26.1322 S   0  0  0  0  0  0  0  0  0  0  0  0
   77.1631    5.6311   26.4280 H   0  0  0  0  0  0  0  0  0  0  0  0
  2  1  1  0
  2  3  1  0
  3  4  1  0
  4  5  1  0
  5  6  1  0
  6 10  1  0
 10 11  1  0
 11 12  1  0
 11 13  1  0
 11 14  1  0
 14 15  1  0
 15 16  1  0
 15 17  1  0
 15 18  1  0
  6  7  1  0
  7  8  1  0
  8  9  2  0
  8 19  1  0
 19 20  1  0
 20 21  1  0
  7  2  1  0
 21 22  1  0
M  CHG 1  11   1
M  CHG 1  15   1
M  END
> <minimizedAffinity>
-4.33516

> <CNNscore>
0.6576622725

> <CNNaffinity>
4.6948294640

> <CNN_VS>
3.0876121521

> <CNNaffinity_variance>
0.5819594264

$$$$



 22 22  0  0  0  0  0  0  0  0999 V2000
   79.9884    6.2239   29.6769 C   0  0  0  0  0  0  0  0  0  0  0  0
   81.1831    6.8177   30.4275 C   0  0  0  0  0  0  0  0  0  0  0  0
   82.3687    5.8382   30.3651 C   0  0  0  0  0  0  0  0  0  0  0  0
   83.6060    6.3324   31.1250 C   0  0  0  0  0  0  0  0  0  0  0  0
   83.4167    7.7236   31.7284 C   0  0  0  0  0  0  0  0  0  0  0  0
   82.1194    7.7803   32.5537 C   0  0  0  0  0  0  0  0  0  0  0  0
   80.9619    7.2125   31.8426 N   0  0  0  0  0  0  0  0  0  0  0  0
   79.7969    6.8292   32.5104 C   0  0  0  0  0  0  0  0  0  0  0  0
   78.6910    7.0336   32.0161 O   0  0  0  0  0  0  0  0  0  0  0  0
   81.8527    9.1769   33.2239 C   0  0  0  0  0  0  0  0  0  0  0  0
   82.0507    9.4142   34.7937 N   0  0  0  0  0  0  0  0  0  0  0  0
   83.0605    8.4207   35.3404 C   0  0  0  0  0  0  0  0  0  0  0  0
   80.7187    9.2097   35.4983 C   0  0  0  0  0  0  0  0  0  0  0  0
   82.5073   10.8748   34.8838 C   0  0  0  0  0  0  0  0  0  0  0  0
   82.5670   11.6455   36.1890 N   0  0  0  0  0  0  0  0  0  0  0  0
   81.2574   11.8023   36.9404 C   0  0  0  0  0  0  0  0  0  0  0  0
   83.0019   13.0953   35.7983 C   0  0  0  0  0  0  0  0  0  0  0  0
   83.6619   11.1523   37.1433 C   0  0  0  0  0  0  0  0  0  0  0  0
   79.9552    6.2746   33.9135 C   0  0  0  0  0  0  0  0  0  0  0  0
   80.3599    4.8055   33.8875 C   0  0  0  0  0  0  0  0  0  0  0  0
   82.1073    4.6647   34.3584 S   0  0  0  0  0  0  0  0  0  0  0  0
   82.8712    5.3700   33.4818 H   0  0  0  0  0  0  0  0  0  0  0  0
  2  1  1  0
  2  3  1  0
  3  4  1  0
  4  5  1  0
  5  6  1  0
  6 10  1  0
 10 11  1  0
 11 12  1  0
 11 13  1  0
 11 14  1  0
 14 15  1  0
 15 16  1  0
 15 17  1  0
 15 18  1  0
  6  7  1  0
  7  8  1  0
  8  9  2  0
  8 19  1  0
 19 20  1  0
 20 21  1  0
  7  2  1  0
 21 22  1  0
M  CHG 1  11   1
M  CHG 1  15   1
M  END
> <minimizedAffinity>
-4.22891

> <CNNscore>
0.6419727802

> <CNNaffinity>
4.4449954033

> <CNN_VS>
2.8535661697

> <CNNaffinity_variance>
0.4584116638

$$$$



 22 22  0  0  0  0  0  0  0  0999 V2000
   81.7120    8.9859   27.7583 C   0  0  0  0  0  0  0  0  0  0  0  0
   81.7618    7.8368   28.7686 C   0  0  0  0  0  0  0  0  0  0  0  0
   82.3097    6.5722   28.0832 C   0  0  0  0  0  0  0  0  0  0  0  0
   82.3618    5.3521   29.0112 C   0  0  0  0  0  0  0  0  0  0  0  0
   81.9175    5.6711   30.4381 C   0  0  0  0  0  0  0  0  0  0  0  0
   80.5550    6.3858   30.4305 C   0  0  0  0  0  0  0  0  0  0  0  0
   80.4940    7.4941   29.4631 N   0  0  0  0  0  0  0  0  0  0  0  0
   79.2810    8.0324   29.0283 C   0  0  0  0  0  0  0  0  0  0  0  0
   79.1544    9.2420   28.8555 O   0  0  0  0  0  0  0  0  0  0  0  0
   80.0148    6.7400   31.8636 C   0  0  0  0  0  0  0  0  0  0  0  0
   80.4961    5.9499   33.1688 N   0  0  0  0  0  0  0  0  0  0  0  0
   80.1177    4.4841   33.0512 C   0  0  0  0  0  0  0  0  0  0  0  0
   79.8116    6.5449   34.3895 C   0  0  0  0  0  0  0  0  0  0  0  0
   82.0083    6.1984   33.2048 C   0  0  0  0  0  0  0  0  0  0  0  0
   82.6189    7.5496   33.5252 N   0  0  0  0  0  0  0  0  0  0  0  0
   83.7642    8.0003   32.6366 C   0  0  0  0  0  0  0  0  0  0  0  0
   83.2317    7.4022   34.9558 C   0  0  0  0  0  0  0  0  0  0  0  0
   81.5847    8.6747   33.6565 C   0  0  0  0  0  0  0  0  0  0  0  0
   78.1062    7.0804   28.9070 C   0  0  0  0  0  0  0  0  0  0  0  0
   77.7853    6.7773   27.4483 C   0  0  0  0  0  0  0  0  0  0  0  0
   78.7663    5.3475   26.9114 S   0  0  0  0  0  0  0  0  0  0  0  0
   80.0899    5.6302   27.0443 H   0  0  0  0  0  0  0  0  0  0  0  0
  2  1  1  0
  2  3  1  0
  3  4  1  0
  4  5  1  0
  5  6  1  0
  6 10  1  0
 10 11  1  0
 11 12  1  0
 11 13  1  0
 11 14  1  0
 14 15  1  0
 15 16  1  0
 15 17  1  0
 15 18  1  0
  6  7  1  0
  7  8  1  0
  8  9  2  0
  8 19  1  0
 19 20  1  0
 20 21  1  0
  7  2  1  0
 21 22  1  0
M  CHG 1  11   1
M  CHG 1  15   1
M  END
> <minimizedAffinity>
-4.69213

> <CNNscore>
0.6078950763

> <CNNaffinity>
4.6141409874

> <CNN_VS>
2.8049135208

> <CNNaffinity_variance>
0.2619387209

$$$$



 22 22  0  0  0  0  0  0  0  0999 V2000
   79.9783    6.4150   29.5012 C   0  0  0  0  0  0  0  0  0  0  0  0
   81.1671    6.9196   30.3231 C   0  0  0  0  0  0  0  0  0  0  0  0
   82.3214    5.9054   30.2350 C   0  0  0  0  0  0  0  0  0  0  0  0
   83.5491    6.3086   31.0611 C   0  0  0  0  0  0  0  0  0  0  0  0
   83.3862    7.6657   31.7446 C   0  0  0  0  0  0  0  0  0  0  0  0
   82.0656    7.7163   32.5325 C   0  0  0  0  0  0  0  0  0  0  0  0
   80.9136    7.2339   31.7528 N   0  0  0  0  0  0  0  0  0  0  0  0
   79.7158    6.8507   32.3600 C   0  0  0  0  0  0  0  0  0  0  0  0
   78.6336    7.1234   31.8466 O   0  0  0  0  0  0  0  0  0  0  0  0
   81.8233    9.0774   33.2806 C   0  0  0  0  0  0  0  0  0  0  0  0
   82.0301    9.2235   34.8604 N   0  0  0  0  0  0  0  0  0  0  0  0
   80.6856    9.4166   35.5390 C   0  0  0  0  0  0  0  0  0  0  0  0
   82.9062   10.4355   35.1361 C   0  0  0  0  0  0  0  0  0  0  0  0
   82.7416    7.9239   35.2536 C   0  0  0  0  0  0  0  0  0  0  0  0
   82.6624    7.3237   36.6446 N   0  0  0  0  0  0  0  0  0  0  0  0
   81.3038    6.8041   37.0789 C   0  0  0  0  0  0  0  0  0  0  0  0
   82.9955    8.4953   37.6244 C   0  0  0  0  0  0  0  0  0  0  0  0
   83.7390    6.2662   36.9188 C   0  0  0  0  0  0  0  0  0  0  0  0
   79.8107    6.2056   33.7297 C   0  0  0  0  0  0  0  0  0  0  0  0
   80.1483    4.7232   33.6231 C   0  0  0  0  0  0  0  0  0  0  0  0
   81.8717    4.4707   34.1342 S   0  0  0  0  0  0  0  0  0  0  0  0
   82.6945    5.1913   33.3259 H   0  0  0  0  0  0  0  0  0  0  0  0
  2  1  1  0
  2  3  1  0
  3  4  1  0
  4  5  1  0
  5  6  1  0
  6 10  1  0
 10 11  1  0
 11 12  1  0
 11 13  1  0
 11 14  1  0
 14 15  1  0
 15 16  1  0
 15 17  1  0
 15 18  1  0
  6  7  1  0
  7  8  1  0
  8  9  2  0
  8 19  1  0
 19 20  1  0
 20 21  1  0
  7  2  1  0
 21 22  1  0
M  CHG 1  11   1
M  CHG 1  15   1
M  END
> <minimizedAffinity>
-4.38927

> <CNNscore>
0.5717003345

> <CNNaffinity>
4.3500809669

> <CNN_VS>
2.4869427681

> <CNNaffinity_variance>
0.4694524705

$$$$



 22 22  0  0  0  0  0  0  0  0999 V2000
   80.3667    4.3639   33.4901 C   0  0  0  0  0  0  0  0  0  0  0  0
   80.7856    5.7885   33.1180 C   0  0  0  0  0  0  0  0  0  0  0  0
   81.7505    5.7449   31.9196 C   0  0  0  0  0  0  0  0  0  0  0  0
   82.2564    7.1294   31.4959 C   0  0  0  0  0  0  0  0  0  0  0  0
   81.6422    8.2633   32.3159 C   0  0  0  0  0  0  0  0  0  0  0  0
   81.7937    7.9824   33.8210 C   0  0  0  0  0  0  0  0  0  0  0  0
   81.3934    6.6151   34.1925 N   0  0  0  0  0  0  0  0  0  0  0  0
   81.7815    6.0315   35.4003 C   0  0  0  0  0  0  0  0  0  0  0  0
   81.0050    5.3233   36.0363 O   0  0  0  0  0  0  0  0  0  0  0  0
   81.1988    9.1094   34.7412 C   0  0  0  0  0  0  0  0  0  0  0  0
   82.1338   10.1510   35.5160 N   0  0  0  0  0  0  0  0  0  0  0  0
   83.4932   10.2209   34.8430 C   0  0  0  0  0  0  0  0  0  0  0  0
   82.3122    9.6847   36.9524 C   0  0  0  0  0  0  0  0  0  0  0  0
   81.3432   11.4629   35.4530 C   0  0  0  0  0  0  0  0  0  0  0  0
   81.9428   12.8100   35.8095 N   0  0  0  0  0  0  0  0  0  0  0  0
   82.9993   12.8110   36.8995 C   0  0  0  0  0  0  0  0  0  0  0  0
   80.7574   13.6582   36.3744 C   0  0  0  0  0  0  0  0  0  0  0  0
   82.4445   13.5994   34.5939 C   0  0  0  0  0  0  0  0  0  0  0  0
   83.1440    6.4144   35.9466 C   0  0  0  0  0  0  0  0  0  0  0  0
   83.6523    5.3812   36.9451 C   0  0  0  0  0  0  0  0  0  0  0  0
   84.6366    4.1384   36.0611 S   0  0  0  0  0  0  0  0  0  0  0  0
   83.8627    3.5314   35.1218 H   0  0  0  0  0  0  0  0  0  0  0  0
  2  1  1  0
  2  3  1  0
  3  4  1  0
  4  5  1  0
  5  6  1  0
  6 10  1  0
 10 11  1  0
 11 12  1  0
 11 13  1  0
 11 14  1  0
 14 15  1  0
 15 16  1  0
 15 17  1  0
 15 18  1  0
  6  7  1  0
  7  8  1  0
  8  9  2  0
  8 19  1  0
 19 20  1  0
 20 21  1  0
  7  2  1  0
 21 22  1  0
M  CHG 1  11   1
M  CHG 1  15   1
M  END
> <minimizedAffinity>
-3.77924

> <CNNscore>
0.5669678450

> <CNNaffinity>
4.5163388252

> <CNN_VS>
2.5606188774

> <CNNaffinity_variance>
0.3654454052

$$$$



 22 22  0  0  0  0  0  0  0  0999 V2000
   78.8271    6.4381   29.4177 C   0  0  0  0  0  0  0  0  0  0  0  0
   80.2839    6.8094   29.7068 C   0  0  0  0  0  0  0  0  0  0  0  0
   81.2146    5.7244   29.1364 C   0  0  0  0  0  0  0  0  0  0  0  0
   82.6997    5.9917   29.4110 C   0  0  0  0  0  0  0  0  0  0  0  0
   82.9411    7.3139   30.1381 C   0  0  0  0  0  0  0  0  0  0  0  0
   82.0526    7.4095   31.3906 C   0  0  0  0  0  0  0  0  0  0  0  0
   80.6482    7.0553   31.1260 N   0  0  0  0  0  0  0  0  0  0  0  0
   79.7621    6.7210   32.1522 C   0  0  0  0  0  0  0  0  0  0  0  0
   78.5934    7.0982   32.1234 O   0  0  0  0  0  0  0  0  0  0  0  0
   82.2478    8.7374   32.2088 C   0  0  0  0  0  0  0  0  0  0  0  0
   83.3198    8.8538   33.3906 N   0  0  0  0  0  0  0  0  0  0  0  0
   83.8132    7.4702   33.7751 C   0  0  0  0  0  0  0  0  0  0  0  0
   82.6592    9.5007   34.5979 C   0  0  0  0  0  0  0  0  0  0  0  0
   84.4088    9.7588   32.8030 C   0  0  0  0  0  0  0  0  0  0  0  0
   85.6397   10.1860   33.5799 N   0  0  0  0  0  0  0  0  0  0  0  0
   85.8197    9.5653   34.9535 C   0  0  0  0  0  0  0  0  0  0  0  0
   85.4629   11.7185   33.8326 C   0  0  0  0  0  0  0  0  0  0  0  0
   86.9423   10.0692   32.7783 C   0  0  0  0  0  0  0  0  0  0  0  0
   80.3370    5.9909   33.3513 C   0  0  0  0  0  0  0  0  0  0  0  0
   80.1017    6.7690   34.6404 C   0  0  0  0  0  0  0  0  0  0  0  0
   81.0795    6.0171   35.9722 S   0  0  0  0  0  0  0  0  0  0  0  0
   80.6991    4.7220   36.1382 H   0  0  0  0  0  0  0  0  0  0  0  0
  2  1  1  0
  2  3  1  0
  3  4  1  0
  4  5  1  0
  5  6  1  0
  6 10  1  0
 10 11  1  0
 11 12  1  0
 11 13  1  0
 11 14  1  0
 14 15  1  0
 15 16  1  0
 15 17  1  0
 15 18  1  0
  6  7  1  0
  7  8  1  0
  8  9  2  0
  8 19  1  0
 19 20  1  0
 20 21  1  0
  7  2  1  0
 21 22  1  0
M  CHG 1  11   1
M  CHG 1  15   1
M  END
> <minimizedAffinity>
-3.72656

> <CNNscore>
0.5506194234

> <CNNaffinity>
4.5208239555

> <CNN_VS>
2.4892535210

> <CNNaffinity_variance>
0.1808085889

$$$$



 22 22  0  0  0  0  0  0  0  0999 V2000
   82.4370    9.7518   30.5362 C   0  0  0  0  0  0  0  0  0  0  0  0
   83.0437    8.6305   31.3837 C   0  0  0  0  0  0  0  0  0  0  0  0
   84.4979    8.3826   30.9445 C   0  0  0  0  0  0  0  0  0  0  0  0
   85.1802    7.2457   31.7154 C   0  0  0  0  0  0  0  0  0  0  0  0
   84.2882    6.6444   32.8008 C   0  0  0  0  0  0  0  0  0  0  0  0
   82.9161    6.2621   32.2191 C   0  0  0  0  0  0  0  0  0  0  0  0
   82.3210    7.3326   31.4020 N   0  0  0  0  0  0  0  0  0  0  0  0
   81.2856    7.0863   30.4978 C   0  0  0  0  0  0  0  0  0  0  0  0
   80.3632    7.8863   30.3630 O   0  0  0  0  0  0  0  0  0  0  0  0
   81.9368    5.6212   33.2685 C   0  0  0  0  0  0  0  0  0  0  0  0
   81.1359    6.5090   34.3314 N   0  0  0  0  0  0  0  0  0  0  0  0
   80.9570    5.7290   35.6218 C   0  0  0  0  0  0  0  0  0  0  0  0
   79.7679    6.8508   33.7620 C   0  0  0  0  0  0  0  0  0  0  0  0
   82.0036    7.7639   34.4812 C   0  0  0  0  0  0  0  0  0  0  0  0
   81.6456    8.9138   35.4035 N   0  0  0  0  0  0  0  0  0  0  0  0
   80.2436    8.9007   35.9855 C   0  0  0  0  0  0  0  0  0  0  0  0
   81.7189   10.1989   34.5165 C   0  0  0  0  0  0  0  0  0  0  0  0
   82.6726    9.1488   36.5184 C   0  0  0  0  0  0  0  0  0  0  0  0
   81.2867    5.7417   29.7954 C   0  0  0  0  0  0  0  0  0  0  0  0
   81.3037    5.9067   28.2804 C   0  0  0  0  0  0  0  0  0  0  0  0
   79.6469    5.5536   27.6281 S   0  0  0  0  0  0  0  0  0  0  0  0
   79.2948    4.2801   27.9503 H   0  0  0  0  0  0  0  0  0  0  0  0
  2  1  1  0
  2  3  1  0
  3  4  1  0
  4  5  1  0
  5  6  1  0
  6 10  1  0
 10 11  1  0
 11 12  1  0
 11 13  1  0
 11 14  1  0
 14 15  1  0
 15 16  1  0
 15 17  1  0
 15 18  1  0
  6  7  1  0
  7  8  1  0
  8  9  2  0
  8 19  1  0
 19 20  1  0
 20 21  1  0
  7  2  1  0
 21 22  1  0
M  CHG 1  11   1
M  CHG 1  15   1
M  END
> <minimizedAffinity>
-3.95216

> <CNNscore>
0.4574837089

> <CNNaffinity>
4.7208275795

> <CNN_VS>
2.1597018242

> <CNNaffinity_variance>
0.4540019333

$$$$



 22 22  0  0  0  0  0  0  0  0999 V2000
   80.3087    7.9572   35.3349 C   0  0  0  0  0  0  0  0  0  0  0  0
   80.1390    6.8742   34.2663 C   0  0  0  0  0  0  0  0  0  0  0  0
   80.5908    5.5165   34.8331 C   0  0  0  0  0  0  0  0  0  0  0  0
   80.4919    4.3709   33.8180 C   0  0  0  0  0  0  0  0  0  0  0  0
   79.9041    4.8127   32.4784 C   0  0  0  0  0  0  0  0  0  0  0  0
   80.6481    6.0496   31.9459 C   0  0  0  0  0  0  0  0  0  0  0  0
   80.8177    7.0995   32.9640 N   0  0  0  0  0  0  0  0  0  0  0  0
   81.7559    8.1243   32.8230 C   0  0  0  0  0  0  0  0  0  0  0  0
   81.4922    9.2723   33.1714 O   0  0  0  0  0  0  0  0  0  0  0  0
   80.1147    6.5647   30.5599 C   0  0  0  0  0  0  0  0  0  0  0  0
   80.9196    6.3201   29.1991 N   0  0  0  0  0  0  0  0  0  0  0  0
   80.0260    5.6175   28.1924 C   0  0  0  0  0  0  0  0  0  0  0  0
   82.1289    5.4445   29.4884 C   0  0  0  0  0  0  0  0  0  0  0  0
   81.3449    7.7296   28.7722 C   0  0  0  0  0  0  0  0  0  0  0  0
   82.2572    7.9979   27.5903 N   0  0  0  0  0  0  0  0  0  0  0  0
   83.6937    8.3647   27.9163 C   0  0  0  0  0  0  0  0  0  0  0  0
   81.6566    9.2517   26.8754 C   0  0  0  0  0  0  0  0  0  0  0  0
   82.2279    6.8909   26.5289 C   0  0  0  0  0  0  0  0  0  0  0  0
   83.0500    7.7830   32.1088 C   0  0  0  0  0  0  0  0  0  0  0  0
   84.2419    7.8521   33.0561 C   0  0  0  0  0  0  0  0  0  0  0  0
   84.3067    6.3267   34.0378 S   0  0  0  0  0  0  0  0  0  0  0  0
   83.1562    6.1977   34.7515 H   0  0  0  0  0  0  0  0  0  0  0  0
  2  1  1  0
  2  3  1  0
  3  4  1  0
  4  5  1  0
  5  6  1  0
  6 10  1  0
 10 11  1  0
 11 12  1  0
 11 13  1  0
 11 14  1  0
 14 15  1  0
 15 16  1  0
 15 17  1  0
 15 18  1  0
  6  7  1  0
  7  8  1  0
  8  9  2  0
  8 19  1  0
 19 20  1  0
 20 21  1  0
  7  2  1  0
 21 22  1  0
M  CHG 1  11   1
M  CHG 1  15   1
M  END
> <minimizedAffinity>
-4.86381

> <CNNscore>
0.4288599491

> <CNNaffinity>
4.3687806129

> <CNN_VS>
1.8735949993

> <CNNaffinity_variance>
0.2505104244

$$$$
