


 39 44  0  0  0  0  0  0  0  0999 V2000
   21.6979   -0.0795    6.2464 C   0  0  0  0  0  0  0  0  0  0  0  0
   21.7490   -1.4627    5.9790 C   0  0  0  0  0  0  0  0  0  0  0  0
   22.9179   -2.0085    6.3302 N   0  0  0  0  0  0  0  0  0  0  0  0
   23.6433   -0.9565    6.7750 N   0  0  0  0  0  0  0  0  0  0  0  0
   22.9368    0.2198    6.7639 C   0  0  0  0  0  0  0  0  0  0  0  0
   19.3396    0.5428    6.1275 C   0  0  0  0  0  0  0  0  0  0  0  0
   18.8542   -0.5842    6.1751 O   0  0  0  0  0  0  0  0  0  0  0  0
   20.6863    0.8385    6.0916 N   0  0  0  0  0  0  0  0  0  0  0  0
   20.9424    1.7776    5.9440 H   0  0  0  0  0  0  0  0  0  0  0  0
   13.0904    3.1830    5.3589 C   0  0  0  0  0  0  0  0  0  0  0  0
   14.5199    2.9303    4.9726 C   0  0  0  0  0  0  0  0  0  0  0  0
   15.5337    3.8664    5.6266 C   0  0  0  0  0  0  0  0  0  0  0  0
   16.8343    3.2033    5.9038 C   0  0  0  0  0  0  0  0  0  0  0  0
   17.9138    3.7756    6.4977 N   0  0  0  0  0  0  0  0  0  0  0  0
   18.9456    2.9241    6.6561 N   0  0  0  0  0  0  0  0  0  0  0  0
   18.5067    1.7607    6.1178 C   0  0  0  0  0  0  0  0  0  0  0  0
   17.1908    1.9076    5.6088 C   0  0  0  0  0  0  0  0  0  0  0  0
   16.3037    0.9397    4.9058 C   0  0  0  0  0  0  0  0  0  0  0  0
   14.9356    1.4886    4.5824 C   0  0  0  0  0  0  0  0  0  0  0  0
   14.7840    2.5480    3.5496 C   0  0  0  0  0  0  0  0  0  0  0  0
   15.8684    3.0699    2.8747 F   0  0  0  0  0  0  0  0  0  0  0  0
   13.7455    2.4881    2.6471 F   0  0  0  0  0  0  0  0  0  0  0  0
   17.9394    4.7174    6.7835 H   0  0  0  0  0  0  0  0  0  0  0  0
   25.0210   -1.1402    7.2876 C   0  0  0  0  0  0  0  0  0  0  0  0
   25.2996   -2.6250    7.6269 C   0  0  0  0  0  0  0  0  0  0  0  0
   24.4017   -3.3385    8.6549 C   0  0  0  0  0  0  0  0  0  0  0  0
   23.0889   -3.9244    8.1394 C   0  0  0  0  0  0  0  0  0  0  0  0
   23.2907   -4.9396    7.0215 C   0  0  0  0  0  0  0  0  0  0  0  0
   23.9151   -4.3000    5.7988 C   0  0  0  0  0  0  0  0  0  0  0  0
   25.5181   -3.6150    6.1458 S   0  0  0  0  0  0  0  0  0  0  0  0
   25.8621   -2.7451    5.0352 O   0  0  0  0  0  0  0  0  0  0  0  0
   26.3986   -4.7192    6.4848 O   0  0  0  0  0  0  0  0  0  0  0  0
   26.0487   -0.3921    6.4429 C   0  0  0  0  0  0  0  0  0  0  0  0
   27.3581   -0.2259    6.9356 C   0  0  0  0  0  0  0  0  0  0  0  0
   28.3309    0.4503    6.1908 C   0  0  0  0  0  0  0  0  0  0  0  0
   28.0001    0.9949    4.9535 C   0  0  0  0  0  0  0  0  0  0  0  0
   29.3084    1.9243    3.9551 Br  0  0  0  0  0  0  0  0  0  0  0  0
   26.7078    0.8698    4.4582 C   0  0  0  0  0  0  0  0  0  0  0  0
   25.7420    0.1770    5.1950 C   0  0  0  0  0  0  0  0  0  0  0  0
 11 10  1  0
 11 12  1  0
 12 13  1  0
 13 14  1  0
 14 15  1  0
 15 16  2  0
 16  6  1  0
  6  7  2  0
  6  8  1  0
  8  1  1  0
  1  2  1  0
  2  3  2  0
  3  4  1  0
 24  4  1  0
 24 33  1  0
 33 34  2  0
 34 35  1  0
 35 36  2  0
 36 37  1  0
 36 38  1  0
 38 39  2  0
 24 25  1  0
 25 26  1  0
 26 27  1  0
 27 28  1  0
 28 29  1  0
 29 30  1  0
 30 31  2  0
 30 32  2  0
  4  5  1  0
 16 17  1  0
 17 18  1  0
 19 18  1  0
 19 20  1  0
 20 21  1  0
 20 22  1  0
 19 11  1  0
 20 11  1  0
 17 13  2  0
  5  1  2  0
 39 33  1  0
 30 25  1  0
 14 23  1  0
  8  9  1  0
M  END
> <minimizedAffinity>
-11.88655

> <CNNscore>
0.9816260338

> <CNNaffinity>
8.6153402328

> <CNN_VS>
8.4570426941

> <CNNaffinity_variance>
0.0213655699

$$$$



 39 44  0  0  0  0  0  0  0  0999 V2000
   21.7852   -0.0828    6.0022 C   0  0  0  0  0  0  0  0  0  0  0  0
   21.7857   -1.4790    5.8074 C   0  0  0  0  0  0  0  0  0  0  0  0
   22.9677   -2.0347    6.0931 N   0  0  0  0  0  0  0  0  0  0  0  0
   23.7485   -0.9792    6.4205 N   0  0  0  0  0  0  0  0  0  0  0  0
   23.0679    0.2122    6.4019 C   0  0  0  0  0  0  0  0  0  0  0  0
   19.4338    0.5731    5.9380 C   0  0  0  0  0  0  0  0  0  0  0  0
   18.9338   -0.5478    5.9811 O   0  0  0  0  0  0  0  0  0  0  0  0
   20.7836    0.8508    5.8790 N   0  0  0  0  0  0  0  0  0  0  0  0
   21.0497    1.7881    5.7382 H   0  0  0  0  0  0  0  0  0  0  0  0
   13.1840    3.2885    5.5150 C   0  0  0  0  0  0  0  0  0  0  0  0
   14.5833    3.0099    5.0451 C   0  0  0  0  0  0  0  0  0  0  0  0
   15.6478    3.9416    5.6197 C   0  0  0  0  0  0  0  0  0  0  0  0
   16.9544    3.2647    5.8266 C   0  0  0  0  0  0  0  0  0  0  0  0
   18.0761    3.8309    6.3432 N   0  0  0  0  0  0  0  0  0  0  0  0
   19.1046    2.9676    6.4512 N   0  0  0  0  0  0  0  0  0  0  0  0
   18.6179    1.8022    5.9600 C   0  0  0  0  0  0  0  0  0  0  0  0
   17.2749    1.9597    5.5312 C   0  0  0  0  0  0  0  0  0  0  0  0
   16.3334    0.9937    4.9003 C   0  0  0  0  0  0  0  0  0  0  0  0
   14.9550    1.5567    4.6534 C   0  0  0  0  0  0  0  0  0  0  0  0
   14.7534    2.6020    3.6149 C   0  0  0  0  0  0  0  0  0  0  0  0
   15.8005    3.0982    2.8658 F   0  0  0  0  0  0  0  0  0  0  0  0
   13.6601    2.5428    2.7795 F   0  0  0  0  0  0  0  0  0  0  0  0
   18.1317    4.7765    6.6115 H   0  0  0  0  0  0  0  0  0  0  0  0
   25.1591   -1.1701    6.8305 C   0  0  0  0  0  0  0  0  0  0  0  0
   25.5704   -2.6605    6.7472 C   0  0  0  0  0  0  0  0  0  0  0  0
   26.8134   -3.0484    5.9246 C   0  0  0  0  0  0  0  0  0  0  0  0
   28.1680   -2.9344    6.6205 C   0  0  0  0  0  0  0  0  0  0  0  0
   28.2567   -3.7754    7.8878 C   0  0  0  0  0  0  0  0  0  0  0  0
   27.2642   -3.3088    8.9325 C   0  0  0  0  0  0  0  0  0  0  0  0
   25.5845   -3.4370    8.3653 S   0  0  0  0  0  0  0  0  0  0  0  0
   24.7640   -2.6592    9.2764 O   0  0  0  0  0  0  0  0  0  0  0  0
   25.2964   -4.8477    8.1750 O   0  0  0  0  0  0  0  0  0  0  0  0
   26.0831   -0.1342    6.1959 C   0  0  0  0  0  0  0  0  0  0  0  0
   26.0143    0.0938    4.8074 C   0  0  0  0  0  0  0  0  0  0  0  0
   26.8412    1.0373    4.1873 C   0  0  0  0  0  0  0  0  0  0  0  0
   27.7694    1.7468    4.9437 C   0  0  0  0  0  0  0  0  0  0  0  0
   28.8994    3.0079    4.1042 Br  0  0  0  0  0  0  0  0  0  0  0  0
   27.8770    1.5194    6.3104 C   0  0  0  0  0  0  0  0  0  0  0  0
   27.0365    0.5902    6.9316 C   0  0  0  0  0  0  0  0  0  0  0  0
 11 10  1  0
 11 12  1  0
 12 13  1  0
 13 14  1  0
 14 15  1  0
 15 16  2  0
 16  6  1  0
  6  7  2  0
  6  8  1  0
  8  1  1  0
  1  2  1  0
  2  3  2  0
  3  4  1  0
 24  4  1  0
 24 33  1  0
 33 34  2  0
 34 35  1  0
 35 36  2  0
 36 37  1  0
 36 38  1  0
 38 39  2  0
 24 25  1  0
 25 26  1  0
 26 27  1  0
 27 28  1  0
 28 29  1  0
 29 30  1  0
 30 31  2  0
 30 32  2  0
  4  5  1  0
 16 17  1  0
 17 18  1  0
 19 18  1  0
 19 20  1  0
 20 21  1  0
 20 22  1  0
 19 11  1  0
 20 11  1  0
 17 13  2  0
  5  1  2  0
 39 33  1  0
 30 25  1  0
 14 23  1  0
  8  9  1  0
M  END
> <minimizedAffinity>
-12.05937

> <CNNscore>
0.9783524275

> <CNNaffinity>
8.5604276657

> <CNN_VS>
8.3751153946

> <CNNaffinity_variance>
0.0445838273

$$$$



 39 44  0  0  0  0  0  0  0  0999 V2000
   21.8596   -0.5665    6.2246 C   0  0  0  0  0  0  0  0  0  0  0  0
   21.7191   -1.9560    6.0324 C   0  0  0  0  0  0  0  0  0  0  0  0
   22.8346   -2.6291    6.3328 N   0  0  0  0  0  0  0  0  0  0  0  0
   23.7158   -1.6582    6.6673 N   0  0  0  0  0  0  0  0  0  0  0  0
   23.1613   -0.4034    6.6386 C   0  0  0  0  0  0  0  0  0  0  0  0
   19.6622    0.3261    5.6436 C   0  0  0  0  0  0  0  0  0  0  0  0
   19.1652   -0.7015    5.1908 O   0  0  0  0  0  0  0  0  0  0  0  0
   20.9605    0.4644    6.0882 N   0  0  0  0  0  0  0  0  0  0  0  0
   21.2664    1.3696    6.3257 H   0  0  0  0  0  0  0  0  0  0  0  0
   13.5046    3.2747    5.6974 C   0  0  0  0  0  0  0  0  0  0  0  0
   14.8697    2.9805    5.1440 C   0  0  0  0  0  0  0  0  0  0  0  0
   15.9932    3.8352    5.7262 C   0  0  0  0  0  0  0  0  0  0  0  0
   17.2818    3.1020    5.8260 C   0  0  0  0  0  0  0  0  0  0  0  0
   18.4460    3.5940    6.3239 N   0  0  0  0  0  0  0  0  0  0  0  0
   19.4457    2.6910    6.3263 N   0  0  0  0  0  0  0  0  0  0  0  0
   18.8942    1.5781    5.7844 C   0  0  0  0  0  0  0  0  0  0  0  0
   17.5399    1.8094    5.4315 C   0  0  0  0  0  0  0  0  0  0  0  0
   16.5354    0.9200    4.7850 C   0  0  0  0  0  0  0  0  0  0  0  0
   15.1691    1.5448    4.6414 C   0  0  0  0  0  0  0  0  0  0  0  0
   14.9593    2.6632    3.6838 C   0  0  0  0  0  0  0  0  0  0  0  0
   15.9889    3.1721    2.9192 F   0  0  0  0  0  0  0  0  0  0  0  0
   13.8277    2.6969    2.8996 F   0  0  0  0  0  0  0  0  0  0  0  0
   18.5488    4.5173    6.6500 H   0  0  0  0  0  0  0  0  0  0  0  0
   25.0947   -1.9915    7.0939 C   0  0  0  0  0  0  0  0  0  0  0  0
   26.0844   -0.8588    6.7269 C   0  0  0  0  0  0  0  0  0  0  0  0
   27.3522   -0.6677    7.5803 C   0  0  0  0  0  0  0  0  0  0  0  0
   28.5569   -1.5411    7.2365 C   0  0  0  0  0  0  0  0  0  0  0  0
   29.0226   -1.3691    5.7961 C   0  0  0  0  0  0  0  0  0  0  0  0
   27.9564   -1.8069    4.8135 C   0  0  0  0  0  0  0  0  0  0  0  0
   26.4656   -0.8523    4.9730 S   0  0  0  0  0  0  0  0  0  0  0  0
   25.4229   -1.5624    4.2541 O   0  0  0  0  0  0  0  0  0  0  0  0
   26.7830    0.5151    4.6003 O   0  0  0  0  0  0  0  0  0  0  0  0
   25.1340   -2.5461    8.5153 C   0  0  0  0  0  0  0  0  0  0  0  0
   24.2756   -3.6065    8.8667 C   0  0  0  0  0  0  0  0  0  0  0  0
   24.2832   -4.1459   10.1579 C   0  0  0  0  0  0  0  0  0  0  0  0
   25.1304   -3.6133   11.1251 C   0  0  0  0  0  0  0  0  0  0  0  0
   25.1282   -4.3290   12.8744 Br  0  0  0  0  0  0  0  0  0  0  0  0
   25.9661   -2.5481   10.8117 C   0  0  0  0  0  0  0  0  0  0  0  0
   25.9711   -2.0230    9.5156 C   0  0  0  0  0  0  0  0  0  0  0  0
 11 10  1  0
 11 12  1  0
 12 13  1  0
 13 14  1  0
 14 15  1  0
 15 16  2  0
 16  6  1  0
  6  7  2  0
  6  8  1  0
  8  1  1  0
  1  2  1  0
  2  3  2  0
  3  4  1  0
 24  4  1  0
 24 33  1  0
 33 34  2  0
 34 35  1  0
 35 36  2  0
 36 37  1  0
 36 38  1  0
 38 39  2  0
 24 25  1  0
 25 26  1  0
 26 27  1  0
 27 28  1  0
 28 29  1  0
 29 30  1  0
 30 31  2  0
 30 32  2  0
  4  5  1  0
 16 17  1  0
 17 18  1  0
 19 18  1  0
 19 20  1  0
 20 21  1  0
 20 22  1  0
 19 11  1  0
 20 11  1  0
 17 13  2  0
  5  1  2  0
 39 33  1  0
 30 25  1  0
 14 23  1  0
  8  9  1  0
M  END
> <minimizedAffinity>
-11.80366

> <CNNscore>
0.9556154013

> <CNNaffinity>
8.4347925186

> <CNN_VS>
8.0604171753

> <CNNaffinity_variance>
0.0417882204

$$$$



 39 44  0  0  0  0  0  0  0  0999 V2000
   22.3100   -0.0653    6.5129 C   0  0  0  0  0  0  0  0  0  0  0  0
   23.6897    0.0856    6.7597 C   0  0  0  0  0  0  0  0  0  0  0  0
   24.3267   -1.0873    6.8363 N   0  0  0  0  0  0  0  0  0  0  0  0
   23.3381   -2.0001    6.6930 N   0  0  0  0  0  0  0  0  0  0  0  0
   22.1117   -1.4259    6.4716 C   0  0  0  0  0  0  0  0  0  0  0  0
   20.0951    0.6004    5.7292 C   0  0  0  0  0  0  0  0  0  0  0  0
   19.7695   -0.4556    5.1936 O   0  0  0  0  0  0  0  0  0  0  0  0
   21.3162    0.8636    6.3140 N   0  0  0  0  0  0  0  0  0  0  0  0
   21.4892    1.7860    6.6113 H   0  0  0  0  0  0  0  0  0  0  0  0
   13.6171    2.7565    5.7160 C   0  0  0  0  0  0  0  0  0  0  0  0
   15.0067    2.6133    5.1637 C   0  0  0  0  0  0  0  0  0  0  0  0
   16.0161    3.6242    5.7030 C   0  0  0  0  0  0  0  0  0  0  0  0
   17.3866    3.0623    5.8213 C   0  0  0  0  0  0  0  0  0  0  0  0
   18.4816    3.7154    6.2902 N   0  0  0  0  0  0  0  0  0  0  0  0
   19.5864    2.9451    6.3202 N   0  0  0  0  0  0  0  0  0  0  0  0
   19.1769    1.7513    5.8268 C   0  0  0  0  0  0  0  0  0  0  0  0
   17.8033    1.7973    5.4758 C   0  0  0  0  0  0  0  0  0  0  0  0
   16.9160    0.7643    4.8728 C   0  0  0  0  0  0  0  0  0  0  0  0
   15.4819    1.2073    4.7156 C   0  0  0  0  0  0  0  0  0  0  0  0
   15.1309    2.2515    3.7164 C   0  0  0  0  0  0  0  0  0  0  0  0
   16.0865    2.8541    2.9243 F   0  0  0  0  0  0  0  0  0  0  0  0
   14.0017    2.1123    2.9406 F   0  0  0  0  0  0  0  0  0  0  0  0
   18.4690    4.6565    6.5790 H   0  0  0  0  0  0  0  0  0  0  0  0
   23.6319   -3.4521    6.6980 C   0  0  0  0  0  0  0  0  0  0  0  0
   22.5276   -4.2450    7.4390 C   0  0  0  0  0  0  0  0  0  0  0  0
   22.0047   -5.5550    6.8205 C   0  0  0  0  0  0  0  0  0  0  0  0
   22.8070   -6.8234    7.1033 C   0  0  0  0  0  0  0  0  0  0  0  0
   22.9451   -7.1186    8.5917 C   0  0  0  0  0  0  0  0  0  0  0  0
   23.7169   -6.0268    9.3033 C   0  0  0  0  0  0  0  0  0  0  0  0
   22.9106   -4.4475    9.1808 S   0  0  0  0  0  0  0  0  0  0  0  0
   23.8781   -3.4403    9.5782 O   0  0  0  0  0  0  0  0  0  0  0  0
   21.6505   -4.5461    9.8962 O   0  0  0  0  0  0  0  0  0  0  0  0
   24.0736   -3.9497    5.3244 C   0  0  0  0  0  0  0  0  0  0  0  0
   23.7375   -5.2577    4.9230 C   0  0  0  0  0  0  0  0  0  0  0  0
   24.1200   -5.7509    3.6706 C   0  0  0  0  0  0  0  0  0  0  0  0
   24.8692   -4.9519    2.8119 C   0  0  0  0  0  0  0  0  0  0  0  0
   25.4021   -5.6237    1.1276 Br  0  0  0  0  0  0  0  0  0  0  0  0
   25.2383   -3.6684    3.1961 C   0  0  0  0  0  0  0  0  0  0  0  0
   24.8387   -3.1702    4.4402 C   0  0  0  0  0  0  0  0  0  0  0  0
 11 10  1  0
 11 12  1  0
 12 13  1  0
 13 14  1  0
 14 15  1  0
 15 16  2  0
 16  6  1  0
  6  7  2  0
  6  8  1  0
  8  1  1  0
  1  2  1  0
  2  3  2  0
  3  4  1  0
 24  4  1  0
 24 33  1  0
 33 34  2  0
 34 35  1  0
 35 36  2  0
 36 37  1  0
 36 38  1  0
 38 39  2  0
 24 25  1  0
 25 26  1  0
 26 27  1  0
 27 28  1  0
 28 29  1  0
 29 30  1  0
 30 31  2  0
 30 32  2  0
  4  5  1  0
 16 17  1  0
 17 18  1  0
 19 18  1  0
 19 20  1  0
 20 21  1  0
 20 22  1  0
 19 11  1  0
 20 11  1  0
 17 13  2  0
  5  1  2  0
 39 33  1  0
 30 25  1  0
 14 23  1  0
  8  9  1  0
M  END
> <minimizedAffinity>
-12.27432

> <CNNscore>
0.9421338439

> <CNNaffinity>
8.1216106415

> <CNN_VS>
7.6516442299

> <CNNaffinity_variance>
0.1930767298

$$$$



 39 44  0  0  0  0  0  0  0  0999 V2000
   21.7263   -0.3053    6.0578 C   0  0  0  0  0  0  0  0  0  0  0  0
   23.1184   -0.2773    5.8369 C   0  0  0  0  0  0  0  0  0  0  0  0
   23.6933   -1.4661    6.0464 N   0  0  0  0  0  0  0  0  0  0  0  0
   22.6703   -2.2498    6.4590 N   0  0  0  0  0  0  0  0  0  0  0  0
   21.4642   -1.5955    6.4565 C   0  0  0  0  0  0  0  0  0  0  0  0
   19.4035    0.4395    5.9450 C   0  0  0  0  0  0  0  0  0  0  0  0
   18.8601   -0.6610    5.9874 O   0  0  0  0  0  0  0  0  0  0  0  0
   20.7637    0.6648    5.9089 N   0  0  0  0  0  0  0  0  0  0  0  0
   21.0682    1.5900    5.7658 H   0  0  0  0  0  0  0  0  0  0  0  0
   13.2509    3.3763    5.5800 C   0  0  0  0  0  0  0  0  0  0  0  0
   14.6258    3.0275    5.0856 C   0  0  0  0  0  0  0  0  0  0  0  0
   15.7394    3.9375    5.5988 C   0  0  0  0  0  0  0  0  0  0  0  0
   17.0247    3.2187    5.7975 C   0  0  0  0  0  0  0  0  0  0  0  0
   18.1801    3.7594    6.2646 N   0  0  0  0  0  0  0  0  0  0  0  0
   19.1780    2.8616    6.3783 N   0  0  0  0  0  0  0  0  0  0  0  0
   18.6351    1.6990    5.9425 C   0  0  0  0  0  0  0  0  0  0  0  0
   17.2881    1.8927    5.5421 C   0  0  0  0  0  0  0  0  0  0  0  0
   16.2946    0.9416    4.9708 C   0  0  0  0  0  0  0  0  0  0  0  0
   14.9323    1.5481    4.7382 C   0  0  0  0  0  0  0  0  0  0  0  0
   14.7425    2.5627    3.6674 C   0  0  0  0  0  0  0  0  0  0  0  0
   15.7873    2.9912    2.8746 F   0  0  0  0  0  0  0  0  0  0  0  0
   13.6261    2.5158    2.8625 F   0  0  0  0  0  0  0  0  0  0  0  0
   18.2782    4.7112    6.4966 H   0  0  0  0  0  0  0  0  0  0  0  0
   22.8848   -3.6797    6.7812 C   0  0  0  0  0  0  0  0  0  0  0  0
   23.6339   -4.4060    5.6372 C   0  0  0  0  0  0  0  0  0  0  0  0
   25.1709   -4.3257    5.5805 C   0  0  0  0  0  0  0  0  0  0  0  0
   25.9489   -5.3237    6.4356 C   0  0  0  0  0  0  0  0  0  0  0  0
   25.6181   -6.7735    6.1042 C   0  0  0  0  0  0  0  0  0  0  0  0
   24.1659   -7.0905    6.3954 C   0  0  0  0  0  0  0  0  0  0  0  0
   23.0558   -6.0925    5.4305 S   0  0  0  0  0  0  0  0  0  0  0  0
   21.7370   -6.2224    6.0240 O   0  0  0  0  0  0  0  0  0  0  0  0
   23.2480   -6.4522    4.0365 O   0  0  0  0  0  0  0  0  0  0  0  0
   23.3922   -3.8735    8.2075 C   0  0  0  0  0  0  0  0  0  0  0  0
   22.7653   -4.8210    9.0406 C   0  0  0  0  0  0  0  0  0  0  0  0
   23.2023   -5.0317   10.3532 C   0  0  0  0  0  0  0  0  0  0  0  0
   24.2556   -4.2771   10.8611 C   0  0  0  0  0  0  0  0  0  0  0  0
   24.8345   -4.5480   12.6398 Br  0  0  0  0  0  0  0  0  0  0  0  0
   24.8719   -3.3158   10.0691 C   0  0  0  0  0  0  0  0  0  0  0  0
   24.4466   -3.1201    8.7513 C   0  0  0  0  0  0  0  0  0  0  0  0
 11 10  1  0
 11 12  1  0
 12 13  1  0
 13 14  1  0
 14 15  1  0
 15 16  2  0
 16  6  1  0
  6  7  2  0
  6  8  1  0
  8  1  1  0
  1  2  1  0
  2  3  2  0
  3  4  1  0
 24  4  1  0
 24 33  1  0
 33 34  2  0
 34 35  1  0
 35 36  2  0
 36 37  1  0
 36 38  1  0
 38 39  2  0
 24 25  1  0
 25 26  1  0
 26 27  1  0
 27 28  1  0
 28 29  1  0
 29 30  1  0
 30 31  2  0
 30 32  2  0
  4  5  1  0
 16 17  1  0
 17 18  1  0
 19 18  1  0
 19 20  1  0
 20 21  1  0
 20 22  1  0
 19 11  1  0
 20 11  1  0
 17 13  2  0
  5  1  2  0
 39 33  1  0
 30 25  1  0
 14 23  1  0
  8  9  1  0
M  END
> <minimizedAffinity>
-12.46375

> <CNNscore>
0.9320166111

> <CNNaffinity>
8.1885957718

> <CNN_VS>
7.6319074631

> <CNNaffinity_variance>
0.1292072386

$$$$



 39 44  0  0  0  0  0  0  0  0999 V2000
   22.3674   -0.0860    6.5982 C   0  0  0  0  0  0  0  0  0  0  0  0
   23.6048    0.0209    7.2651 C   0  0  0  0  0  0  0  0  0  0  0  0
   24.3151   -1.1104    7.2092 N   0  0  0  0  0  0  0  0  0  0  0  0
   23.5029   -1.9678    6.5488 N   0  0  0  0  0  0  0  0  0  0  0  0
   22.3301   -1.3832    6.1420 C   0  0  0  0  0  0  0  0  0  0  0  0
   20.1498    0.5577    5.8040 C   0  0  0  0  0  0  0  0  0  0  0  0
   19.8196   -0.5149    5.3053 O   0  0  0  0  0  0  0  0  0  0  0  0
   21.3743    0.8377    6.3736 N   0  0  0  0  0  0  0  0  0  0  0  0
   21.5505    1.7692    6.6393 H   0  0  0  0  0  0  0  0  0  0  0  0
   13.6768    2.7273    5.7215 C   0  0  0  0  0  0  0  0  0  0  0  0
   15.0668    2.5654    5.1753 C   0  0  0  0  0  0  0  0  0  0  0  0
   16.0778    3.5888    5.6873 C   0  0  0  0  0  0  0  0  0  0  0  0
   17.4469    3.0273    5.8232 C   0  0  0  0  0  0  0  0  0  0  0  0
   18.5428    3.6909    6.2751 N   0  0  0  0  0  0  0  0  0  0  0  0
   19.6457    2.9192    6.3281 N   0  0  0  0  0  0  0  0  0  0  0  0
   19.2341    1.7129    5.8680 C   0  0  0  0  0  0  0  0  0  0  0  0
   17.8610    1.7522    5.5140 C   0  0  0  0  0  0  0  0  0  0  0  0
   16.9722    0.7047    4.9391 C   0  0  0  0  0  0  0  0  0  0  0  0
   15.5393    1.1463    4.7676 C   0  0  0  0  0  0  0  0  0  0  0  0
   15.1920    2.1629    3.7390 C   0  0  0  0  0  0  0  0  0  0  0  0
   16.1500    2.7408    2.9315 F   0  0  0  0  0  0  0  0  0  0  0  0
   14.0635    2.0044    2.9658 F   0  0  0  0  0  0  0  0  0  0  0  0
   18.5320    4.6398    6.5372 H   0  0  0  0  0  0  0  0  0  0  0  0
   23.9332   -3.3542    6.2535 C   0  0  0  0  0  0  0  0  0  0  0  0
   25.2258   -3.3706    5.4013 C   0  0  0  0  0  0  0  0  0  0  0  0
   25.2938   -2.5057    4.1289 C   0  0  0  0  0  0  0  0  0  0  0  0
   25.6848   -1.0401    4.3073 C   0  0  0  0  0  0  0  0  0  0  0  0
   27.0432   -0.8655    4.9748 C   0  0  0  0  0  0  0  0  0  0  0  0
   27.0436   -1.4223    6.3833 C   0  0  0  0  0  0  0  0  0  0  0  0
   26.6924   -3.1644    6.4153 S   0  0  0  0  0  0  0  0  0  0  0  0
   26.3771   -3.5129    7.7892 O   0  0  0  0  0  0  0  0  0  0  0  0
   27.7872   -3.8410    5.7422 O   0  0  0  0  0  0  0  0  0  0  0  0
   23.8789   -4.2446    7.4919 C   0  0  0  0  0  0  0  0  0  0  0  0
   23.5914   -3.6681    8.7448 C   0  0  0  0  0  0  0  0  0  0  0  0
   23.5286   -4.4500    9.9037 C   0  0  0  0  0  0  0  0  0  0  0  0
   23.7805   -5.8168    9.8304 C   0  0  0  0  0  0  0  0  0  0  0  0
   23.7141   -6.8705   11.3980 Br  0  0  0  0  0  0  0  0  0  0  0  0
   24.0949   -6.4048    8.6112 C   0  0  0  0  0  0  0  0  0  0  0  0
   24.1381   -5.6253    7.4509 C   0  0  0  0  0  0  0  0  0  0  0  0
 11 10  1  0
 11 12  1  0
 12 13  1  0
 13 14  1  0
 14 15  1  0
 15 16  2  0
 16  6  1  0
  6  7  2  0
  6  8  1  0
  8  1  1  0
  1  2  1  0
  2  3  2  0
  3  4  1  0
 24  4  1  0
 24 33  1  0
 33 34  2  0
 34 35  1  0
 35 36  2  0
 36 37  1  0
 36 38  1  0
 38 39  2  0
 24 25  1  0
 25 26  1  0
 26 27  1  0
 27 28  1  0
 28 29  1  0
 29 30  1  0
 30 31  2  0
 30 32  2  0
  4  5  1  0
 16 17  1  0
 17 18  1  0
 19 18  1  0
 19 20  1  0
 20 21  1  0
 20 22  1  0
 19 11  1  0
 20 11  1  0
 17 13  2  0
  5  1  2  0
 39 33  1  0
 30 25  1  0
 14 23  1  0
  8  9  1  0
M  END
> <minimizedAffinity>
-11.42380

> <CNNscore>
0.8996944427

> <CNNaffinity>
8.1468076706

> <CNN_VS>
7.3296375275

> <CNNaffinity_variance>
0.1415737718

$$$$



 39 44  0  0  0  0  0  0  0  0999 V2000
   22.0159   -0.0523    6.1131 C   0  0  0  0  0  0  0  0  0  0  0  0
   23.3310   -0.0690    5.6055 C   0  0  0  0  0  0  0  0  0  0  0  0
   23.9819   -1.1967    5.9091 N   0  0  0  0  0  0  0  0  0  0  0  0
   23.0962   -1.8857    6.6653 N   0  0  0  0  0  0  0  0  0  0  0  0
   21.8909   -1.2422    6.7920 C   0  0  0  0  0  0  0  0  0  0  0  0
   19.6886    0.5718    5.7169 C   0  0  0  0  0  0  0  0  0  0  0  0
   19.2528   -0.5382    5.4233 O   0  0  0  0  0  0  0  0  0  0  0  0
   21.0067    0.8729    5.9895 N   0  0  0  0  0  0  0  0  0  0  0  0
   21.2425    1.8218    6.1043 H   0  0  0  0  0  0  0  0  0  0  0  0
   13.3160    3.0143    5.5230 C   0  0  0  0  0  0  0  0  0  0  0  0
   14.7226    2.8358    5.0269 C   0  0  0  0  0  0  0  0  0  0  0  0
   15.7477    3.7731    5.6611 C   0  0  0  0  0  0  0  0  0  0  0  0
   17.0860    3.1453    5.8120 C   0  0  0  0  0  0  0  0  0  0  0  0
   18.1846    3.7251    6.3618 N   0  0  0  0  0  0  0  0  0  0  0  0
   19.2530    2.9055    6.4022 N   0  0  0  0  0  0  0  0  0  0  0  0
   18.8166    1.7566    5.8314 C   0  0  0  0  0  0  0  0  0  0  0  0
   17.4642    1.8811    5.4221 C   0  0  0  0  0  0  0  0  0  0  0  0
   16.5630    0.9194    4.7286 C   0  0  0  0  0  0  0  0  0  0  0  0
   15.1580    1.4334    4.5300 C   0  0  0  0  0  0  0  0  0  0  0  0
   14.8990    2.5395    3.5702 C   0  0  0  0  0  0  0  0  0  0  0  0
   15.9154    3.1364    2.8530 F   0  0  0  0  0  0  0  0  0  0  0  0
   13.8025    2.4888    2.7386 F   0  0  0  0  0  0  0  0  0  0  0  0
   18.1986    4.6507    6.6969 H   0  0  0  0  0  0  0  0  0  0  0  0
   23.4270   -3.2280    7.1974 C   0  0  0  0  0  0  0  0  0  0  0  0
   22.6103   -4.3318    6.4817 C   0  0  0  0  0  0  0  0  0  0  0  0
   23.3372   -5.3046    5.5345 C   0  0  0  0  0  0  0  0  0  0  0  0
   24.0135   -6.5166    6.1717 C   0  0  0  0  0  0  0  0  0  0  0  0
   23.0464   -7.3875    6.9638 C   0  0  0  0  0  0  0  0  0  0  0  0
   22.4568   -6.6337    8.1377 C   0  0  0  0  0  0  0  0  0  0  0  0
   21.5334   -5.2054    7.6213 S   0  0  0  0  0  0  0  0  0  0  0  0
   21.3177   -4.3853    8.7999 O   0  0  0  0  0  0  0  0  0  0  0  0
   20.3882   -5.6788    6.8637 O   0  0  0  0  0  0  0  0  0  0  0  0
   24.9329   -3.4295    7.3418 C   0  0  0  0  0  0  0  0  0  0  0  0
   25.7689   -3.2084    6.2295 C   0  0  0  0  0  0  0  0  0  0  0  0
   27.1549   -3.3784    6.3211 C   0  0  0  0  0  0  0  0  0  0  0  0
   27.7224   -3.7996    7.5201 C   0  0  0  0  0  0  0  0  0  0  0  0
   29.5923   -4.0472    7.6395 Br  0  0  0  0  0  0  0  0  0  0  0  0
   26.9166   -4.0524    8.6236 C   0  0  0  0  0  0  0  0  0  0  0  0
   25.5337   -3.8633    8.5359 C   0  0  0  0  0  0  0  0  0  0  0  0
 11 10  1  0
 11 12  1  0
 12 13  1  0
 13 14  1  0
 14 15  1  0
 15 16  2  0
 16  6  1  0
  6  7  2  0
  6  8  1  0
  8  1  1  0
  1  2  1  0
  2  3  2  0
  3  4  1  0
 24  4  1  0
 24 33  1  0
 33 34  2  0
 34 35  1  0
 35 36  2  0
 36 37  1  0
 36 38  1  0
 38 39  2  0
 24 25  1  0
 25 26  1  0
 26 27  1  0
 27 28  1  0
 28 29  1  0
 29 30  1  0
 30 31  2  0
 30 32  2  0
  4  5  1  0
 16 17  1  0
 17 18  1  0
 19 18  1  0
 19 20  1  0
 20 21  1  0
 20 22  1  0
 19 11  1  0
 20 11  1  0
 17 13  2  0
  5  1  2  0
 39 33  1  0
 30 25  1  0
 14 23  1  0
  8  9  1  0
M  END
> <minimizedAffinity>
-11.52325

> <CNNscore>
0.8972070813

> <CNNaffinity>
8.1101226807

> <CNN_VS>
7.2764596939

> <CNNaffinity_variance>
0.1263022274

$$$$



 39 44  0  0  0  0  0  0  0  0999 V2000
   21.7987   -0.3708    6.2663 C   0  0  0  0  0  0  0  0  0  0  0  0
   21.7281   -1.7598    6.0359 C   0  0  0  0  0  0  0  0  0  0  0  0
   22.8524   -2.3937    6.3845 N   0  0  0  0  0  0  0  0  0  0  0  0
   23.6717   -1.3960    6.7898 N   0  0  0  0  0  0  0  0  0  0  0  0
   23.0671   -0.1646    6.7571 C   0  0  0  0  0  0  0  0  0  0  0  0
   19.5309    0.4189    5.8233 C   0  0  0  0  0  0  0  0  0  0  0  0
   19.0125   -0.6629    5.5602 O   0  0  0  0  0  0  0  0  0  0  0  0
   20.8659    0.6255    6.1015 N   0  0  0  0  0  0  0  0  0  0  0  0
   21.1740    1.5565    6.1887 H   0  0  0  0  0  0  0  0  0  0  0  0
   13.3563    3.3251    5.6188 C   0  0  0  0  0  0  0  0  0  0  0  0
   14.7337    3.0143    5.1063 C   0  0  0  0  0  0  0  0  0  0  0  0
   15.8406    3.9031    5.6689 C   0  0  0  0  0  0  0  0  0  0  0  0
   17.1313    3.1842    5.8281 C   0  0  0  0  0  0  0  0  0  0  0  0
   18.2826    3.7071    6.3245 N   0  0  0  0  0  0  0  0  0  0  0  0
   19.2873    2.8119    6.3889 N   0  0  0  0  0  0  0  0  0  0  0  0
   18.7530    1.6709    5.8899 C   0  0  0  0  0  0  0  0  0  0  0  0
   17.4045    1.8762    5.5004 C   0  0  0  0  0  0  0  0  0  0  0  0
   16.4181    0.9505    4.8776 C   0  0  0  0  0  0  0  0  0  0  0  0
   15.0512    1.5585    4.6782 C   0  0  0  0  0  0  0  0  0  0  0  0
   14.8536    2.6290    3.6648 C   0  0  0  0  0  0  0  0  0  0  0  0
   15.8950    3.1082    2.8969 F   0  0  0  0  0  0  0  0  0  0  0  0
   13.7374    2.6180    2.8583 F   0  0  0  0  0  0  0  0  0  0  0  0
   18.3737    4.6453    6.6084 H   0  0  0  0  0  0  0  0  0  0  0  0
   25.0374   -1.6828    7.2868 C   0  0  0  0  0  0  0  0  0  0  0  0
   25.0196   -2.0626    8.7877 C   0  0  0  0  0  0  0  0  0  0  0  0
   24.2687   -3.3329    9.2289 C   0  0  0  0  0  0  0  0  0  0  0  0
   25.0237   -4.6562    9.1223 C   0  0  0  0  0  0  0  0  0  0  0  0
   26.3191   -4.6665    9.9241 C   0  0  0  0  0  0  0  0  0  0  0  0
   27.3011   -3.6379    9.4028 C   0  0  0  0  0  0  0  0  0  0  0  0
   26.6598   -1.9837    9.5122 S   0  0  0  0  0  0  0  0  0  0  0  0
   27.5069   -1.1402    8.6880 O   0  0  0  0  0  0  0  0  0  0  0  0
   26.5000   -1.6718   10.9217 O   0  0  0  0  0  0  0  0  0  0  0  0
   25.8167   -2.5798    6.3289 C   0  0  0  0  0  0  0  0  0  0  0  0
   26.8782   -2.0335    5.5808 C   0  0  0  0  0  0  0  0  0  0  0  0
   27.6199   -2.8226    4.6945 C   0  0  0  0  0  0  0  0  0  0  0  0
   27.2921   -4.1643    4.5227 C   0  0  0  0  0  0  0  0  0  0  0  0
   28.2815   -5.2264    3.3122 Br  0  0  0  0  0  0  0  0  0  0  0  0
   26.2310   -4.7200    5.2272 C   0  0  0  0  0  0  0  0  0  0  0  0
   25.5032   -3.9347    6.1269 C   0  0  0  0  0  0  0  0  0  0  0  0
 11 10  1  0
 11 12  1  0
 12 13  1  0
 13 14  1  0
 14 15  1  0
 15 16  2  0
 16  6  1  0
  6  7  2  0
  6  8  1  0
  8  1  1  0
  1  2  1  0
  2  3  2  0
  3  4  1  0
 24  4  1  0
 24 33  1  0
 33 34  2  0
 34 35  1  0
 35 36  2  0
 36 37  1  0
 36 38  1  0
 38 39  2  0
 24 25  1  0
 25 26  1  0
 26 27  1  0
 27 28  1  0
 28 29  1  0
 29 30  1  0
 30 31  2  0
 30 32  2  0
  4  5  1  0
 16 17  1  0
 17 18  1  0
 19 18  1  0
 19 20  1  0
 20 21  1  0
 20 22  1  0
 19 11  1  0
 20 11  1  0
 17 13  2  0
  5  1  2  0
 39 33  1  0
 30 25  1  0
 14 23  1  0
  8  9  1  0
M  END
> <minimizedAffinity>
-11.46706

> <CNNscore>
0.8879926801

> <CNNaffinity>
8.1475973129

> <CNN_VS>
7.2350068092

> <CNNaffinity_variance>
0.0582627952

$$$$



 39 44  0  0  0  0  0  0  0  0999 V2000
   21.6575   -0.5715    5.9383 C   0  0  0  0  0  0  0  0  0  0  0  0
   21.5174   -1.9287    6.2930 C   0  0  0  0  0  0  0  0  0  0  0  0
   22.6900   -2.5697    6.3356 N   0  0  0  0  0  0  0  0  0  0  0  0
   23.5843   -1.6300    5.9507 N   0  0  0  0  0  0  0  0  0  0  0  0
   23.0064   -0.4060    5.7255 C   0  0  0  0  0  0  0  0  0  0  0  0
   19.3654    0.2705    5.9155 C   0  0  0  0  0  0  0  0  0  0  0  0
   18.7782   -0.8067    5.9701 O   0  0  0  0  0  0  0  0  0  0  0  0
   20.7317    0.4392    5.8314 N   0  0  0  0  0  0  0  0  0  0  0  0
   21.0695    1.3520    5.6836 H   0  0  0  0  0  0  0  0  0  0  0  0
   13.3439    3.4754    5.6272 C   0  0  0  0  0  0  0  0  0  0  0  0
   14.7045    3.0837    5.1253 C   0  0  0  0  0  0  0  0  0  0  0  0
   15.8539    3.9297    5.6682 C   0  0  0  0  0  0  0  0  0  0  0  0
   17.1069    3.1514    5.8476 C   0  0  0  0  0  0  0  0  0  0  0  0
   18.2826    3.6281    6.3334 N   0  0  0  0  0  0  0  0  0  0  0  0
   19.2412    2.6858    6.4218 N   0  0  0  0  0  0  0  0  0  0  0  0
   18.6510    1.5610    5.9497 C   0  0  0  0  0  0  0  0  0  0  0  0
   17.3148    1.8237    5.5526 C   0  0  0  0  0  0  0  0  0  0  0  0
   16.2838    0.9334    4.9506 C   0  0  0  0  0  0  0  0  0  0  0  0
   14.9492    1.6038    4.7337 C   0  0  0  0  0  0  0  0  0  0  0  0
   14.8062    2.6576    3.6939 C   0  0  0  0  0  0  0  0  0  0  0  0
   15.8708    3.0652    2.9167 F   0  0  0  0  0  0  0  0  0  0  0  0
   13.6915    2.6825    2.8856 F   0  0  0  0  0  0  0  0  0  0  0  0
   18.4201    4.5674    6.5945 H   0  0  0  0  0  0  0  0  0  0  0  0
   25.0324   -1.9349    5.8841 C   0  0  0  0  0  0  0  0  0  0  0  0
   25.8404   -1.0320    6.8482 C   0  0  0  0  0  0  0  0  0  0  0  0
   26.6241   -1.6837    8.0028 C   0  0  0  0  0  0  0  0  0  0  0  0
   28.0170   -2.2197    7.6790 C   0  0  0  0  0  0  0  0  0  0  0  0
   28.9500   -1.1506    7.1243 C   0  0  0  0  0  0  0  0  0  0  0  0
   28.4466   -0.6079    5.8029 C   0  0  0  0  0  0  0  0  0  0  0  0
   26.8489    0.1557    5.9573 S   0  0  0  0  0  0  0  0  0  0  0  0
   26.3209    0.3200    4.6147 O   0  0  0  0  0  0  0  0  0  0  0  0
   27.0049    1.3218    6.8089 O   0  0  0  0  0  0  0  0  0  0  0  0
   25.3013   -3.4370    5.9132 C   0  0  0  0  0  0  0  0  0  0  0  0
   24.8996   -4.1888    7.0348 C   0  0  0  0  0  0  0  0  0  0  0  0
   25.1241   -5.5685    7.0992 C   0  0  0  0  0  0  0  0  0  0  0  0
   25.7796   -6.2121    6.0536 C   0  0  0  0  0  0  0  0  0  0  0  0
   26.0998   -8.0724    6.1478 Br  0  0  0  0  0  0  0  0  0  0  0  0
   26.2117   -5.4881    4.9490 C   0  0  0  0  0  0  0  0  0  0  0  0
   25.9692   -4.1127    4.8777 C   0  0  0  0  0  0  0  0  0  0  0  0
 11 10  1  0
 11 12  1  0
 12 13  1  0
 13 14  1  0
 14 15  1  0
 15 16  2  0
 16  6  1  0
  6  7  2  0
  6  8  1  0
  8  1  1  0
  1  2  1  0
  2  3  2  0
  3  4  1  0
 24  4  1  0
 24 33  1  0
 33 34  2  0
 34 35  1  0
 35 36  2  0
 36 37  1  0
 36 38  1  0
 38 39  2  0
 24 25  1  0
 25 26  1  0
 26 27  1  0
 27 28  1  0
 28 29  1  0
 29 30  1  0
 30 31  2  0
 30 32  2  0
  4  5  1  0
 16 17  1  0
 17 18  1  0
 19 18  1  0
 19 20  1  0
 20 21  1  0
 20 22  1  0
 19 11  1  0
 20 11  1  0
 17 13  2  0
  5  1  2  0
 39 33  1  0
 30 25  1  0
 14 23  1  0
  8  9  1  0
M  END
> <minimizedAffinity>
-10.99361

> <CNNscore>
0.8744079471

> <CNNaffinity>
8.2287960052

> <CNN_VS>
7.1953244209

> <CNNaffinity_variance>
0.0202187318

$$$$
