


 33 35  0  0  0  0  0  0  0  0999 V2000
    1.1531   28.4037    8.1095 C   0  0  0  0  0  0  0  0  0  0  0  0
    1.3904   27.2726    8.8597 C   0  0  0  0  0  0  0  0  0  0  0  0
    2.6185   26.7629    9.0795 N   0  0  0  0  0  0  0  0  0  0  0  0
    3.6452   27.3979    8.5017 C   0  0  0  0  0  0  0  0  0  0  0  0
    3.5141   28.5026    7.7609 N   0  0  0  0  0  0  0  0  0  0  0  0
    2.2786   28.9937    7.5529 C   0  0  0  0  0  0  0  0  0  0  0  0
    2.2139   30.1824    6.8034 N   0  0  0  0  0  0  0  0  0  0  0  0
    3.0354   30.5706    6.4242 H   0  0  0  0  0  0  0  0  0  0  0  0
    1.3472   30.6262    6.6580 H   0  0  0  0  0  0  0  0  0  0  0  0
   -0.2115   28.9264    7.8812 C   0  0  0  0  0  0  0  0  0  0  0  0
   -0.7359   28.8712    6.7722 O   0  0  0  0  0  0  0  0  0  0  0  0
   -1.7459   28.7678    9.8402 C   0  0  0  0  0  0  0  0  0  0  0  0
   -2.4721   29.3764   10.8681 C   0  0  0  0  0  0  0  0  0  0  0  0
   -2.4513   30.7664   11.0028 C   0  0  0  0  0  0  0  0  0  0  0  0
   -1.6919   31.5333   10.1221 C   0  0  0  0  0  0  0  0  0  0  0  0
   -1.6694   32.8648   10.2659 F   0  0  0  0  0  0  0  0  0  0  0  0
   -0.9528   30.9302    9.1112 C   0  0  0  0  0  0  0  0  0  0  0  0
   -0.2151   31.6843    8.2831 F   0  0  0  0  0  0  0  0  0  0  0  0
   -0.9727   29.5460    8.9736 C   0  0  0  0  0  0  0  0  0  0  0  0
   -1.7032   26.8185   11.0643 C   0  0  0  0  0  0  0  0  0  0  0  0
   -1.7054   27.4028    9.7590 O   0  0  0  0  0  0  0  0  0  0  0  0
    4.9381   26.9396    8.6634 N   0  0  0  0  0  0  0  0  0  0  0  0
    5.3435   26.8771    9.5584 H   0  0  0  0  0  0  0  0  0  0  0  0
    5.6865   26.5510    7.4753 C   0  0  0  0  0  0  0  0  0  0  0  0
    6.8824   25.6971    7.9198 C   0  0  0  0  0  0  0  0  0  0  0  0
    7.3835   24.8325    6.7729 C   0  0  0  0  0  0  0  0  0  0  0  0
    6.3312   23.8794    6.3631 N   0  0  0  0  0  0  0  0  0  0  0  0
    4.9284   24.3053    6.5609 C   0  0  0  0  0  0  0  0  0  0  0  0
    4.8005   25.8183    6.4543 C   0  0  0  0  0  0  0  0  0  0  0  0
    6.6869   22.7832    5.1297 S   0  0  0  0  0  0  0  0  0  0  0  0
    5.5665   21.4438    5.4847 C   0  0  0  0  0  0  0  0  0  0  0  0
    6.2821   23.3740    3.8725 O   0  0  0  0  0  0  0  0  0  0  0  0
    8.0340   22.2975    5.3359 O   0  0  0  0  0  0  0  0  0  0  0  0
 20 21  1  0
 21 12  1  0
 12 13  2  0
 13 14  1  0
 14 15  2  0
 15 16  1  0
 15 17  1  0
 17 18  1  0
 17 19  2  0
 19 10  1  0
 10 11  2  0
 10  1  1  0
  1  2  2  0
  2  3  1  0
  3  4  2  0
  4 22  1  0
 22 24  1  0
 24 25  1  0
 25 26  1  0
 26 27  1  0
 27 30  1  0
 30 31  1  0
 30 32  2  0
 30 33  2  0
 27 28  1  0
 28 29  1  0
  4  5  1  0
  5  6  2  0
  6  7  1  0
 19 12  1  0
  6  1  1  0
 29 24  1  0
 22 23  1  0
  7  8  1  0
  7  9  1  0
M  END
> <minimizedAffinity>
-8.33552

> <CNNscore>
0.3520442545

> <CNNaffinity>
6.4419436455

> <CNN_VS>
2.2678492069

> <CNNaffinity_variance>
0.1887151748

$$$$



 33 35  0  0  0  0  0  0  0  0999 V2000
    0.7529   27.8683    8.6555 C   0  0  0  0  0  0  0  0  0  0  0  0
    0.9210   28.2457    7.3411 C   0  0  0  0  0  0  0  0  0  0  0  0
    2.1239   28.3940    6.7517 N   0  0  0  0  0  0  0  0  0  0  0  0
    3.1996   28.1812    7.5190 C   0  0  0  0  0  0  0  0  0  0  0  0
    3.1364   27.8091    8.8012 N   0  0  0  0  0  0  0  0  0  0  0  0
    1.9251   27.6684    9.3702 C   0  0  0  0  0  0  0  0  0  0  0  0
    1.9275   27.2313   10.7074 N   0  0  0  0  0  0  0  0  0  0  0  0
    2.7806   27.1010   11.1811 H   0  0  0  0  0  0  0  0  0  0  0  0
    1.0761   27.0557   11.1694 H   0  0  0  0  0  0  0  0  0  0  0  0
   -0.5847   27.7271    9.2704 C   0  0  0  0  0  0  0  0  0  0  0  0
   -1.1366   26.6327    9.3472 O   0  0  0  0  0  0  0  0  0  0  0  0
   -2.4601   28.7476   10.5582 C   0  0  0  0  0  0  0  0  0  0  0  0
   -3.1349   29.8747   11.0363 C   0  0  0  0  0  0  0  0  0  0  0  0
   -2.6682   31.1510   10.7134 C   0  0  0  0  0  0  0  0  0  0  0  0
   -1.5231   31.2894    9.9323 C   0  0  0  0  0  0  0  0  0  0  0  0
   -1.0770   32.5173    9.6370 F   0  0  0  0  0  0  0  0  0  0  0  0
   -0.8383   30.1709    9.4719 C   0  0  0  0  0  0  0  0  0  0  0  0
    0.2714   30.3247    8.7346 F   0  0  0  0  0  0  0  0  0  0  0  0
   -1.3015   28.8984    9.7906 C   0  0  0  0  0  0  0  0  0  0  0  0
   -4.2727   27.5006   11.2362 C   0  0  0  0  0  0  0  0  0  0  0  0
   -2.8734   27.5008   10.9406 O   0  0  0  0  0  0  0  0  0  0  0  0
    4.4727   28.3211    7.0018 N   0  0  0  0  0  0  0  0  0  0  0  0
    4.9666   29.1672    7.0979 H   0  0  0  0  0  0  0  0  0  0  0  0
    5.0658   27.1840    6.3104 C   0  0  0  0  0  0  0  0  0  0  0  0
    4.3297   25.9133    6.7581 C   0  0  0  0  0  0  0  0  0  0  0  0
    4.5008   24.8018    5.7338 C   0  0  0  0  0  0  0  0  0  0  0  0
    3.8852   25.1996    4.4507 N   0  0  0  0  0  0  0  0  0  0  0  0
    3.8545   26.6462    4.1430 C   0  0  0  0  0  0  0  0  0  0  0  0
    5.0350   27.3624    4.7835 C   0  0  0  0  0  0  0  0  0  0  0  0
    3.9158   24.0929    3.1765 S   0  0  0  0  0  0  0  0  0  0  0  0
    3.9304   22.5322    4.0364 C   0  0  0  0  0  0  0  0  0  0  0  0
    2.6598   24.1915    2.4651 O   0  0  0  0  0  0  0  0  0  0  0  0
    5.1831   24.2312    2.4925 O   0  0  0  0  0  0  0  0  0  0  0  0
 20 21  1  0
 21 12  1  0
 12 13  2  0
 13 14  1  0
 14 15  2  0
 15 16  1  0
 15 17  1  0
 17 18  1  0
 17 19  2  0
 19 10  1  0
 10 11  2  0
 10  1  1  0
  1  2  2  0
  2  3  1  0
  3  4  2  0
  4 22  1  0
 22 24  1  0
 24 25  1  0
 25 26  1  0
 26 27  1  0
 27 30  1  0
 30 31  1  0
 30 32  2  0
 30 33  2  0
 27 28  1  0
 28 29  1  0
  4  5  1  0
  5  6  2  0
  6  7  1  0
 19 12  1  0
  6  1  1  0
 29 24  1  0
 22 23  1  0
  7  8  1  0
  7  9  1  0
M  END
> <minimizedAffinity>
-8.80101

> <CNNscore>
0.3217088282

> <CNNaffinity>
6.3434443474

> <CNN_VS>
2.0407421589

> <CNNaffinity_variance>
0.4916161597

$$$$



 33 35  0  0  0  0  0  0  0  0999 V2000
    0.6799   28.6814    9.6704 C   0  0  0  0  0  0  0  0  0  0  0  0
    0.3725   29.2813    8.4688 C   0  0  0  0  0  0  0  0  0  0  0  0
    1.0183   29.0221    7.3146 N   0  0  0  0  0  0  0  0  0  0  0  0
    2.0291   28.1469    7.3747 C   0  0  0  0  0  0  0  0  0  0  0  0
    2.3979   27.5128    8.4920 N   0  0  0  0  0  0  0  0  0  0  0  0
    1.7404   27.7877    9.6335 C   0  0  0  0  0  0  0  0  0  0  0  0
    2.1474   27.0538   10.7626 N   0  0  0  0  0  0  0  0  0  0  0  0
    2.9052   26.4288   10.6965 H   0  0  0  0  0  0  0  0  0  0  0  0
    1.6744   27.1652   11.6188 H   0  0  0  0  0  0  0  0  0  0  0  0
   -0.0451   29.0007   10.9193 C   0  0  0  0  0  0  0  0  0  0  0  0
    0.5380   29.0447   11.9992 O   0  0  0  0  0  0  0  0  0  0  0  0
   -1.9887   30.5619   10.8758 C   0  0  0  0  0  0  0  0  0  0  0  0
   -3.3686   30.7856   10.8740 C   0  0  0  0  0  0  0  0  0  0  0  0
   -4.2469   29.7015   10.9394 C   0  0  0  0  0  0  0  0  0  0  0  0
   -3.7396   28.4050   10.9876 C   0  0  0  0  0  0  0  0  0  0  0  0
   -4.5897   27.3712   11.0392 F   0  0  0  0  0  0  0  0  0  0  0  0
   -2.3685   28.1780   10.9696 C   0  0  0  0  0  0  0  0  0  0  0  0
   -1.8996   26.9218   11.0005 F   0  0  0  0  0  0  0  0  0  0  0  0
   -1.4912   29.2558   10.9059 C   0  0  0  0  0  0  0  0  0  0  0  0
   -1.3198   32.2528    9.4638 C   0  0  0  0  0  0  0  0  0  0  0  0
   -1.1333   31.6199   10.7327 O   0  0  0  0  0  0  0  0  0  0  0  0
    2.7543   27.8292    6.2429 N   0  0  0  0  0  0  0  0  0  0  0  0
    2.3381   27.8604    5.3513 H   0  0  0  0  0  0  0  0  0  0  0  0
    4.1510   27.4468    6.4027 C   0  0  0  0  0  0  0  0  0  0  0  0
    4.1959   26.0229    6.9752 C   0  0  0  0  0  0  0  0  0  0  0  0
    5.5341   25.3639    6.6772 C   0  0  0  0  0  0  0  0  0  0  0  0
    5.7124   25.2227    5.2171 N   0  0  0  0  0  0  0  0  0  0  0  0
    5.0476   26.2295    4.3611 C   0  0  0  0  0  0  0  0  0  0  0  0
    4.9317   27.5643    5.0833 C   0  0  0  0  0  0  0  0  0  0  0  0
    7.1152   24.4700    4.6558 S   0  0  0  0  0  0  0  0  0  0  0  0
    7.0263   22.8754    5.4461 C   0  0  0  0  0  0  0  0  0  0  0  0
    6.9751   24.2633    3.2307 O   0  0  0  0  0  0  0  0  0  0  0  0
    8.2530   25.1729    5.2079 O   0  0  0  0  0  0  0  0  0  0  0  0
 20 21  1  0
 21 12  1  0
 12 13  2  0
 13 14  1  0
 14 15  2  0
 15 16  1  0
 15 17  1  0
 17 18  1  0
 17 19  2  0
 19 10  1  0
 10 11  2  0
 10  1  1  0
  1  2  2  0
  2  3  1  0
  3  4  2  0
  4 22  1  0
 22 24  1  0
 24 25  1  0
 25 26  1  0
 26 27  1  0
 27 30  1  0
 30 31  1  0
 30 32  2  0
 30 33  2  0
 27 28  1  0
 28 29  1  0
  4  5  1  0
  5  6  2  0
  6  7  1  0
 19 12  1  0
  6  1  1  0
 29 24  1  0
 22 23  1  0
  7  8  1  0
  7  9  1  0
M  END
> <minimizedAffinity>
-8.38757

> <CNNscore>
0.2510639131

> <CNNaffinity>
6.4725785255

> <CNN_VS>
1.6250308752

> <CNNaffinity_variance>
0.1785374135

$$$$



 33 35  0  0  0  0  0  0  0  0999 V2000
    0.5303   28.6299   10.3156 C   0  0  0  0  0  0  0  0  0  0  0  0
    0.3739   29.4749    9.2386 C   0  0  0  0  0  0  0  0  0  0  0  0
    1.1750   29.4642    8.1548 N   0  0  0  0  0  0  0  0  0  0  0  0
    2.1881   28.5898    8.1647 C   0  0  0  0  0  0  0  0  0  0  0  0
    2.4175   27.7290    9.1612 N   0  0  0  0  0  0  0  0  0  0  0  0
    1.6062   27.7578   10.2344 C   0  0  0  0  0  0  0  0  0  0  0  0
    1.8741   26.7968   11.2262 N   0  0  0  0  0  0  0  0  0  0  0  0
    2.6479   26.1954   11.1327 H   0  0  0  0  0  0  0  0  0  0  0  0
    1.2877   26.7256   12.0138 H   0  0  0  0  0  0  0  0  0  0  0  0
   -0.3633   28.6796   11.4930 C   0  0  0  0  0  0  0  0  0  0  0  0
    0.0580   29.0139   12.5970 O   0  0  0  0  0  0  0  0  0  0  0  0
   -2.1864   26.9787   11.5027 C   0  0  0  0  0  0  0  0  0  0  0  0
   -3.5384   26.6449   11.3807 C   0  0  0  0  0  0  0  0  0  0  0  0
   -4.4757   27.6411   11.0983 C   0  0  0  0  0  0  0  0  0  0  0  0
   -4.0570   28.9624   10.9586 C   0  0  0  0  0  0  0  0  0  0  0  0
   -4.9646   29.9125   10.6986 F   0  0  0  0  0  0  0  0  0  0  0  0
   -2.7162   29.3008   11.0989 C   0  0  0  0  0  0  0  0  0  0  0  0
   -2.3348   30.5808   10.9767 F   0  0  0  0  0  0  0  0  0  0  0  0
   -1.7801   28.3105   11.3787 C   0  0  0  0  0  0  0  0  0  0  0  0
   -1.1729   25.0236   10.8313 C   0  0  0  0  0  0  0  0  0  0  0  0
   -1.2825   26.0146   11.8565 O   0  0  0  0  0  0  0  0  0  0  0  0
    3.0661   28.5166    7.1010 N   0  0  0  0  0  0  0  0  0  0  0  0
    3.4903   29.3283    6.7396 H   0  0  0  0  0  0  0  0  0  0  0  0
    3.3484   27.2074    6.5275 C   0  0  0  0  0  0  0  0  0  0  0  0
    3.9912   27.4161    5.1490 C   0  0  0  0  0  0  0  0  0  0  0  0
    4.7824   26.1859    4.7312 C   0  0  0  0  0  0  0  0  0  0  0  0
    5.8990   25.9610    5.6726 N   0  0  0  0  0  0  0  0  0  0  0  0
    5.7014   26.4156    7.0663 C   0  0  0  0  0  0  0  0  0  0  0  0
    4.2307   26.3543    7.4538 C   0  0  0  0  0  0  0  0  0  0  0  0
    6.9435   24.6690    5.3741 S   0  0  0  0  0  0  0  0  0  0  0  0
    5.9508   23.6180    4.3323 C   0  0  0  0  0  0  0  0  0  0  0  0
    8.0488   25.1588    4.5793 O   0  0  0  0  0  0  0  0  0  0  0  0
    7.1628   23.9717    6.6227 O   0  0  0  0  0  0  0  0  0  0  0  0
 20 21  1  0
 21 12  1  0
 12 13  2  0
 13 14  1  0
 14 15  2  0
 15 16  1  0
 15 17  1  0
 17 18  1  0
 17 19  2  0
 19 10  1  0
 10 11  2  0
 10  1  1  0
  1  2  2  0
  2  3  1  0
  3  4  2  0
  4 22  1  0
 22 24  1  0
 24 25  1  0
 25 26  1  0
 26 27  1  0
 27 30  1  0
 30 31  1  0
 30 32  2  0
 30 33  2  0
 27 28  1  0
 28 29  1  0
  4  5  1  0
  5  6  2  0
  6  7  1  0
 19 12  1  0
  6  1  1  0
 29 24  1  0
 22 23  1  0
  7  8  1  0
  7  9  1  0
M  END
> <minimizedAffinity>
-8.07151

> <CNNscore>
0.2298161387

> <CNNaffinity>
6.5937056541

> <CNN_VS>
1.5153399706

> <CNNaffinity_variance>
0.0601718128

$$$$



 33 35  0  0  0  0  0  0  0  0999 V2000
   -1.8852   29.4497   10.3464 C   0  0  0  0  0  0  0  0  0  0  0  0
   -3.0024   29.2698    9.5604 C   0  0  0  0  0  0  0  0  0  0  0  0
   -4.0545   28.5064    9.9165 N   0  0  0  0  0  0  0  0  0  0  0  0
   -3.9698   27.8784   11.0953 C   0  0  0  0  0  0  0  0  0  0  0  0
   -2.9297   27.9945   11.9266 N   0  0  0  0  0  0  0  0  0  0  0  0
   -1.8892   28.7605   11.5504 C   0  0  0  0  0  0  0  0  0  0  0  0
   -0.8479   28.8770   12.4892 N   0  0  0  0  0  0  0  0  0  0  0  0
   -0.8871   28.3713   13.3330 H   0  0  0  0  0  0  0  0  0  0  0  0
   -0.0801   29.4642   12.3024 H   0  0  0  0  0  0  0  0  0  0  0  0
   -0.7446   30.2870    9.9156 C   0  0  0  0  0  0  0  0  0  0  0  0
   -0.5410   31.3898   10.4161 O   0  0  0  0  0  0  0  0  0  0  0  0
    0.8469   28.6134    8.9760 C   0  0  0  0  0  0  0  0  0  0  0  0
    1.7198   28.1995    7.9656 C   0  0  0  0  0  0  0  0  0  0  0  0
    1.9389   29.0225    6.8585 C   0  0  0  0  0  0  0  0  0  0  0  0
    1.2712   30.2413    6.7623 C   0  0  0  0  0  0  0  0  0  0  0  0
    1.4794   31.0188    5.6917 F   0  0  0  0  0  0  0  0  0  0  0  0
    0.3873   30.6469    7.7554 C   0  0  0  0  0  0  0  0  0  0  0  0
   -0.2583   31.8164    7.6370 F   0  0  0  0  0  0  0  0  0  0  0  0
    0.1681   29.8300    8.8599 C   0  0  0  0  0  0  0  0  0  0  0  0
    1.7163   26.9695   10.3332 C   0  0  0  0  0  0  0  0  0  0  0  0
    0.5745   27.7714   10.0193 O   0  0  0  0  0  0  0  0  0  0  0  0
   -4.9964   27.0663   11.5362 N   0  0  0  0  0  0  0  0  0  0  0  0
   -5.9237   27.3957   11.5659 H   0  0  0  0  0  0  0  0  0  0  0  0
   -4.6716   25.7095   11.9563 C   0  0  0  0  0  0  0  0  0  0  0  0
   -3.4081   25.7665   12.8265 C   0  0  0  0  0  0  0  0  0  0  0  0
   -3.3109   24.5371   13.7172 C   0  0  0  0  0  0  0  0  0  0  0  0
   -4.4518   24.5032   14.6557 N   0  0  0  0  0  0  0  0  0  0  0  0
   -5.7122   25.1294   14.2001 C   0  0  0  0  0  0  0  0  0  0  0  0
   -5.8469   25.0391   12.6867 C   0  0  0  0  0  0  0  0  0  0  0  0
   -4.5231   23.2429   15.7764 S   0  0  0  0  0  0  0  0  0  0  0  0
   -3.4854   22.0086   15.0181 C   0  0  0  0  0  0  0  0  0  0  0  0
   -3.8691   23.6826   16.9897 O   0  0  0  0  0  0  0  0  0  0  0  0
   -5.8767   22.7321   15.7914 O   0  0  0  0  0  0  0  0  0  0  0  0
 20 21  1  0
 21 12  1  0
 12 13  2  0
 13 14  1  0
 14 15  2  0
 15 16  1  0
 15 17  1  0
 17 18  1  0
 17 19  2  0
 19 10  1  0
 10 11  2  0
 10  1  1  0
  1  2  2  0
  2  3  1  0
  3  4  2  0
  4 22  1  0
 22 24  1  0
 24 25  1  0
 25 26  1  0
 26 27  1  0
 27 30  1  0
 30 31  1  0
 30 32  2  0
 30 33  2  0
 27 28  1  0
 28 29  1  0
  4  5  1  0
  5  6  2  0
  6  7  1  0
 19 12  1  0
  6  1  1  0
 29 24  1  0
 22 23  1  0
  7  8  1  0
  7  9  1  0
M  END
> <minimizedAffinity>
-8.68083

> <CNNscore>
0.2025885731

> <CNNaffinity>
5.9828753471

> <CNN_VS>
1.2120621204

> <CNNaffinity_variance>
0.6619895101

$$$$



 33 35  0  0  0  0  0  0  0  0999 V2000
    4.2685   26.1574    7.7883 C   0  0  0  0  0  0  0  0  0  0  0  0
    3.5230   25.2188    8.4677 C   0  0  0  0  0  0  0  0  0  0  0  0
    2.7347   25.5077    9.5220 N   0  0  0  0  0  0  0  0  0  0  0  0
    2.7151   26.7834    9.9262 C   0  0  0  0  0  0  0  0  0  0  0  0
    3.4005   27.7631    9.3290 N   0  0  0  0  0  0  0  0  0  0  0  0
    4.1825   27.4522    8.2790 C   0  0  0  0  0  0  0  0  0  0  0  0
    4.8408   28.5351    7.6681 N   0  0  0  0  0  0  0  0  0  0  0  0
    4.7554   29.4399    8.0465 H   0  0  0  0  0  0  0  0  0  0  0  0
    5.3869   28.3880    6.8622 H   0  0  0  0  0  0  0  0  0  0  0  0
    5.1314   25.7994    6.6417 C   0  0  0  0  0  0  0  0  0  0  0  0
    6.3506   25.9357    6.6969 O   0  0  0  0  0  0  0  0  0  0  0  0
    4.4762   23.9132    5.1485 C   0  0  0  0  0  0  0  0  0  0  0  0
    3.9296   23.4446    3.9501 C   0  0  0  0  0  0  0  0  0  0  0  0
    3.4929   24.3545    2.9846 C   0  0  0  0  0  0  0  0  0  0  0  0
    3.5892   25.7220    3.2322 C   0  0  0  0  0  0  0  0  0  0  0  0
    3.1578   26.5869    2.3049 F   0  0  0  0  0  0  0  0  0  0  0  0
    4.1137   26.1913    4.4308 C   0  0  0  0  0  0  0  0  0  0  0  0
    4.1834   27.5113    4.6572 F   0  0  0  0  0  0  0  0  0  0  0  0
    4.5509   25.2874    5.3938 C   0  0  0  0  0  0  0  0  0  0  0  0
    4.3483   21.7115    5.8093 C   0  0  0  0  0  0  0  0  0  0  0  0
    4.8301   23.0210    6.1232 O   0  0  0  0  0  0  0  0  0  0  0  0
    1.9442   27.1686   11.0056 N   0  0  0  0  0  0  0  0  0  0  0  0
    2.3403   27.2592   11.9024 H   0  0  0  0  0  0  0  0  0  0  0  0
    0.5297   27.4376   10.7828 C   0  0  0  0  0  0  0  0  0  0  0  0
   -0.0302   28.1280   12.0346 C   0  0  0  0  0  0  0  0  0  0  0  0
   -1.2965   28.9025   11.7024 C   0  0  0  0  0  0  0  0  0  0  0  0
   -0.9892   29.9835   10.7430 N   0  0  0  0  0  0  0  0  0  0  0  0
    0.1387   29.7533    9.8139 C   0  0  0  0  0  0  0  0  0  0  0  0
    0.2982   28.2701    9.5111 C   0  0  0  0  0  0  0  0  0  0  0  0
   -2.2451   31.0060   10.2670 S   0  0  0  0  0  0  0  0  0  0  0  0
   -2.9533   30.1157    8.8955 C   0  0  0  0  0  0  0  0  0  0  0  0
   -3.2284   31.0343   11.3280 O   0  0  0  0  0  0  0  0  0  0  0  0
   -1.6604   32.2232    9.7477 O   0  0  0  0  0  0  0  0  0  0  0  0
 20 21  1  0
 21 12  1  0
 12 13  2  0
 13 14  1  0
 14 15  2  0
 15 16  1  0
 15 17  1  0
 17 18  1  0
 17 19  2  0
 19 10  1  0
 10 11  2  0
 10  1  1  0
  1  2  2  0
  2  3  1  0
  3  4  2  0
  4 22  1  0
 22 24  1  0
 24 25  1  0
 25 26  1  0
 26 27  1  0
 27 30  1  0
 30 31  1  0
 30 32  2  0
 30 33  2  0
 27 28  1  0
 28 29  1  0
  4  5  1  0
  5  6  2  0
  6  7  1  0
 19 12  1  0
  6  1  1  0
 29 24  1  0
 22 23  1  0
  7  8  1  0
  7  9  1  0
M  END
> <minimizedAffinity>
-8.12285

> <CNNscore>
0.1951003075

> <CNNaffinity>
5.4515509605

> <CNN_VS>
1.0635992289

> <CNNaffinity_variance>
1.3747081757

$$$$



 33 35  0  0  0  0  0  0  0  0999 V2000
    1.1442   27.7870    8.9755 C   0  0  0  0  0  0  0  0  0  0  0  0
    1.8482   27.9601    7.8039 C   0  0  0  0  0  0  0  0  0  0  0  0
    3.1487   27.6384    7.6563 N   0  0  0  0  0  0  0  0  0  0  0  0
    3.7730   27.1492    8.7342 C   0  0  0  0  0  0  0  0  0  0  0  0
    3.1735   26.9428    9.9108 N   0  0  0  0  0  0  0  0  0  0  0  0
    1.8749   27.2725   10.0366 C   0  0  0  0  0  0  0  0  0  0  0  0
    1.2927   26.9882   11.2853 N   0  0  0  0  0  0  0  0  0  0  0  0
    1.8447   26.6236   12.0143 H   0  0  0  0  0  0  0  0  0  0  0  0
    0.3331   27.1540   11.4302 H   0  0  0  0  0  0  0  0  0  0  0  0
   -0.2805   28.1631    9.1020 C   0  0  0  0  0  0  0  0  0  0  0  0
   -1.1679   27.3152    9.0592 O   0  0  0  0  0  0  0  0  0  0  0  0
   -0.2642   30.5392    8.3465 C   0  0  0  0  0  0  0  0  0  0  0  0
   -0.6427   31.8734    8.5222 C   0  0  0  0  0  0  0  0  0  0  0  0
   -1.4028   32.2376    9.6359 C   0  0  0  0  0  0  0  0  0  0  0  0
   -1.7927   31.2642   10.5530 C   0  0  0  0  0  0  0  0  0  0  0  0
   -2.5307   31.6212   11.6122 F   0  0  0  0  0  0  0  0  0  0  0  0
   -1.4350   29.9335   10.3710 C   0  0  0  0  0  0  0  0  0  0  0  0
   -1.8335   29.0083   11.2564 F   0  0  0  0  0  0  0  0  0  0  0  0
   -0.6767   29.5679    9.2634 C   0  0  0  0  0  0  0  0  0  0  0  0
    1.2376   31.2446    6.7505 C   0  0  0  0  0  0  0  0  0  0  0  0
    0.4126   30.1729    7.2154 O   0  0  0  0  0  0  0  0  0  0  0  0
    5.1090   26.8028    8.6780 N   0  0  0  0  0  0  0  0  0  0  0  0
    5.7865   27.3230    9.1675 H   0  0  0  0  0  0  0  0  0  0  0  0
    5.4895   25.6477    7.8757 C   0  0  0  0  0  0  0  0  0  0  0  0
    4.2368   24.7909    7.6441 C   0  0  0  0  0  0  0  0  0  0  0  0
    4.4102   23.9015    6.4223 C   0  0  0  0  0  0  0  0  0  0  0  0
    4.5654   24.7336    5.2110 N   0  0  0  0  0  0  0  0  0  0  0  0
    5.1794   26.0676    5.3895 C   0  0  0  0  0  0  0  0  0  0  0  0
    6.1584   26.0629    6.5549 C   0  0  0  0  0  0  0  0  0  0  0  0
    4.7259   23.9517    3.7237 S   0  0  0  0  0  0  0  0  0  0  0  0
    6.3601   24.4475    3.2146 C   0  0  0  0  0  0  0  0  0  0  0  0
    4.7544   22.5257    3.9662 O   0  0  0  0  0  0  0  0  0  0  0  0
    3.7792   24.5416    2.8022 O   0  0  0  0  0  0  0  0  0  0  0  0
 20 21  1  0
 21 12  1  0
 12 13  2  0
 13 14  1  0
 14 15  2  0
 15 16  1  0
 15 17  1  0
 17 18  1  0
 17 19  2  0
 19 10  1  0
 10 11  2  0
 10  1  1  0
  1  2  2  0
  2  3  1  0
  3  4  2  0
  4 22  1  0
 22 24  1  0
 24 25  1  0
 25 26  1  0
 26 27  1  0
 27 30  1  0
 30 31  1  0
 30 32  2  0
 30 33  2  0
 27 28  1  0
 28 29  1  0
  4  5  1  0
  5  6  2  0
  6  7  1  0
 19 12  1  0
  6  1  1  0
 29 24  1  0
 22 23  1  0
  7  8  1  0
  7  9  1  0
M  END
> <minimizedAffinity>
-8.31469

> <CNNscore>
0.1905470341

> <CNNaffinity>
5.4793982506

> <CNN_VS>
1.0440831184

> <CNNaffinity_variance>
1.1490494013

$$$$



 33 35  0  0  0  0  0  0  0  0999 V2000
    1.1732   27.7736    8.8722 C   0  0  0  0  0  0  0  0  0  0  0  0
    1.8502   27.9940    7.6927 C   0  0  0  0  0  0  0  0  0  0  0  0
    3.1519   27.6967    7.5086 N   0  0  0  0  0  0  0  0  0  0  0  0
    3.8054   27.1832    8.5576 C   0  0  0  0  0  0  0  0  0  0  0  0
    3.2334   26.9309    9.7390 N   0  0  0  0  0  0  0  0  0  0  0  0
    1.9331   27.2369    9.9014 C   0  0  0  0  0  0  0  0  0  0  0  0
    1.3809   26.9048   11.1520 N   0  0  0  0  0  0  0  0  0  0  0  0
    1.9532   26.5258   11.8577 H   0  0  0  0  0  0  0  0  0  0  0  0
    0.4223   27.0515   11.3215 H   0  0  0  0  0  0  0  0  0  0  0  0
   -0.2539   28.1240    9.0395 C   0  0  0  0  0  0  0  0  0  0  0  0
   -1.1284   27.2626    9.0033 O   0  0  0  0  0  0  0  0  0  0  0  0
   -0.2688   30.5176    8.3414 C   0  0  0  0  0  0  0  0  0  0  0  0
   -0.6647   31.8421    8.5491 C   0  0  0  0  0  0  0  0  0  0  0  0
   -1.4294   32.1695    9.6711 C   0  0  0  0  0  0  0  0  0  0  0  0
   -1.8064   31.1692   10.5644 C   0  0  0  0  0  0  0  0  0  0  0  0
   -2.5489   31.4909   11.6318 F   0  0  0  0  0  0  0  0  0  0  0  0
   -1.4313   29.8481   10.3505 C   0  0  0  0  0  0  0  0  0  0  0  0
   -1.8175   28.8967   11.2133 F   0  0  0  0  0  0  0  0  0  0  0  0
   -0.6685   29.5192    9.2346 C   0  0  0  0  0  0  0  0  0  0  0  0
    1.2251   31.2801    6.7644 C   0  0  0  0  0  0  0  0  0  0  0  0
    0.4125   30.1876    7.2019 O   0  0  0  0  0  0  0  0  0  0  0  0
    5.1447   26.8589    8.4634 N   0  0  0  0  0  0  0  0  0  0  0  0
    5.8392   27.5511    8.5512 H   0  0  0  0  0  0  0  0  0  0  0  0
    5.5030   25.4660    8.2307 C   0  0  0  0  0  0  0  0  0  0  0  0
    4.6124   24.9235    7.1039 C   0  0  0  0  0  0  0  0  0  0  0  0
    5.2520   23.7088    6.4485 C   0  0  0  0  0  0  0  0  0  0  0  0
    6.5283   24.0936    5.8109 N   0  0  0  0  0  0  0  0  0  0  0  0
    7.2659   25.2232    6.4177 C   0  0  0  0  0  0  0  0  0  0  0  0
    6.9989   25.3045    7.9140 C   0  0  0  0  0  0  0  0  0  0  0  0
    7.3919   22.9058    4.9785 S   0  0  0  0  0  0  0  0  0  0  0  0
    6.0910   21.8367    4.3954 C   0  0  0  0  0  0  0  0  0  0  0  0
    8.0054   23.5230    3.8227 O   0  0  0  0  0  0  0  0  0  0  0  0
    8.1749   22.1626    5.9416 O   0  0  0  0  0  0  0  0  0  0  0  0
 20 21  1  0
 21 12  1  0
 12 13  2  0
 13 14  1  0
 14 15  2  0
 15 16  1  0
 15 17  1  0
 17 18  1  0
 17 19  2  0
 19 10  1  0
 10 11  2  0
 10  1  1  0
  1  2  2  0
  2  3  1  0
  3  4  2  0
  4 22  1  0
 22 24  1  0
 24 25  1  0
 25 26  1  0
 26 27  1  0
 27 30  1  0
 30 31  1  0
 30 32  2  0
 30 33  2  0
 27 28  1  0
 28 29  1  0
  4  5  1  0
  5  6  2  0
  6  7  1  0
 19 12  1  0
  6  1  1  0
 29 24  1  0
 22 23  1  0
  7  8  1  0
  7  9  1  0
M  END
> <minimizedAffinity>
-8.25757

> <CNNscore>
0.1899504215

> <CNNaffinity>
5.4662604332

> <CNN_VS>
1.0383185148

> <CNNaffinity_variance>
1.1472898722

$$$$



 33 35  0  0  0  0  0  0  0  0999 V2000
    1.5922   28.0973    8.3344 C   0  0  0  0  0  0  0  0  0  0  0  0
    2.0302   27.2741    9.3486 C   0  0  0  0  0  0  0  0  0  0  0  0
    3.2841   26.7866    9.4299 N   0  0  0  0  0  0  0  0  0  0  0  0
    4.1227   27.1168    8.4405 C   0  0  0  0  0  0  0  0  0  0  0  0
    3.7904   27.9113    7.4183 N   0  0  0  0  0  0  0  0  0  0  0  0
    2.5327   28.3856    7.3560 C   0  0  0  0  0  0  0  0  0  0  0  0
    2.2609   29.2515    6.2811 N   0  0  0  0  0  0  0  0  0  0  0  0
    2.9549   29.4313    5.6062 H   0  0  0  0  0  0  0  0  0  0  0  0
    1.3768   29.6776    6.2036 H   0  0  0  0  0  0  0  0  0  0  0  0
    0.2039   28.6034    8.2736 C   0  0  0  0  0  0  0  0  0  0  0  0
   -0.2307   29.1471    7.2619 O   0  0  0  0  0  0  0  0  0  0  0  0
   -0.9420   29.5868   10.2577 C   0  0  0  0  0  0  0  0  0  0  0  0
   -1.7887   29.4545   11.3622 C   0  0  0  0  0  0  0  0  0  0  0  0
   -2.3529   28.2116   11.6583 C   0  0  0  0  0  0  0  0  0  0  0  0
   -2.0812   27.1181   10.8391 C   0  0  0  0  0  0  0  0  0  0  0  0
   -2.6355   25.9327   11.1247 F   0  0  0  0  0  0  0  0  0  0  0  0
   -1.2557   27.2506    9.7287 C   0  0  0  0  0  0  0  0  0  0  0  0
   -1.0188   26.1899    8.9430 F   0  0  0  0  0  0  0  0  0  0  0  0
   -0.6910   28.4870    9.4321 C   0  0  0  0  0  0  0  0  0  0  0  0
   -1.5115   31.7818    9.8601 C   0  0  0  0  0  0  0  0  0  0  0  0
   -0.4542   30.8210    9.9254 O   0  0  0  0  0  0  0  0  0  0  0  0
    5.4239   26.6535    8.4357 N   0  0  0  0  0  0  0  0  0  0  0  0
    6.1300   27.1260    8.9332 H   0  0  0  0  0  0  0  0  0  0  0  0
    5.7246   25.4476    7.6755 C   0  0  0  0  0  0  0  0  0  0  0  0
    4.4068   24.7044    7.4141 C   0  0  0  0  0  0  0  0  0  0  0  0
    4.5418   23.7710    6.2205 C   0  0  0  0  0  0  0  0  0  0  0  0
    4.8189   24.5531    4.9978 N   0  0  0  0  0  0  0  0  0  0  0  0
    5.5477   25.8289    5.1700 C   0  0  0  0  0  0  0  0  0  0  0  0
    6.4779   25.7643    6.3731 C   0  0  0  0  0  0  0  0  0  0  0  0
    4.9610   23.7210    3.5361 S   0  0  0  0  0  0  0  0  0  0  0  0
    3.4126   22.8431    3.4530 C   0  0  0  0  0  0  0  0  0  0  0  0
    4.9736   24.6932    2.4646 O   0  0  0  0  0  0  0  0  0  0  0  0
    6.0161   22.7413    3.6783 O   0  0  0  0  0  0  0  0  0  0  0  0
 20 21  1  0
 21 12  1  0
 12 13  2  0
 13 14  1  0
 14 15  2  0
 15 16  1  0
 15 17  1  0
 17 18  1  0
 17 19  2  0
 19 10  1  0
 10 11  2  0
 10  1  1  0
  1  2  2  0
  2  3  1  0
  3  4  2  0
  4 22  1  0
 22 24  1  0
 24 25  1  0
 25 26  1  0
 26 27  1  0
 27 30  1  0
 30 31  1  0
 30 32  2  0
 30 33  2  0
 27 28  1  0
 28 29  1  0
  4  5  1  0
  5  6  2  0
  6  7  1  0
 19 12  1  0
  6  1  1  0
 29 24  1  0
 22 23  1  0
  7  8  1  0
  7  9  1  0
M  END
> <minimizedAffinity>
-8.07036

> <CNNscore>
0.1607409567

> <CNNaffinity>
6.2246813774

> <CNN_VS>
1.0005612373

> <CNNaffinity_variance>
0.1058278680

$$$$
