


 27 29  0  0  0  0  0  0  0  0999 V2000
  -53.5567  -47.3539   32.6700 C   0  0  0  0  0  0  0  0  0  0  0  0
  -54.1098  -48.5624   33.0507 C   0  0  0  0  0  0  0  0  0  0  0  0
  -55.4150  -48.5542   33.5011 C   0  0  0  0  0  0  0  0  0  0  0  0
  -56.1521  -47.4292   33.5415 N   0  0  0  0  0  0  0  0  0  0  0  0
  -55.5438  -46.3090   33.1600 C   0  0  0  0  0  0  0  0  0  0  0  0
  -56.2852  -45.1452   33.1833 N   0  0  0  0  0  0  0  0  0  0  0  0
  -54.2907  -46.2295   32.7101 N   0  0  0  0  0  0  0  0  0  0  0  0
  -57.2145  -45.1599   33.5080 H   0  0  0  0  0  0  0  0  0  0  0  0
  -55.8847  -44.3003   32.8752 H   0  0  0  0  0  0  0  0  0  0  0  0
  -51.4363  -47.0664   28.2119 C   0  0  0  0  0  0  0  0  0  0  0  0
  -50.8743  -47.5097   29.5629 C   0  0  0  0  0  0  0  0  0  0  0  0
  -50.7002  -46.3198   30.5240 C   0  0  0  0  0  0  0  0  0  0  0  0
  -51.9312  -46.1104   31.4054 C   0  0  0  0  0  0  0  0  0  0  0  0
  -52.2216  -47.3108   32.2151 N   0  0  0  0  0  0  0  0  0  0  0  0
  -51.6915  -48.5848   31.6984 C   0  0  0  0  0  0  0  0  0  0  0  0
  -51.7551  -48.6148   30.1741 C   0  0  0  0  0  0  0  0  0  0  0  0
  -56.1134  -49.7799   33.9156 C   0  0  0  0  0  0  0  0  0  0  0  0
  -55.6663  -50.4527   35.0700 C   0  0  0  0  0  0  0  0  0  0  0  0
  -56.2905  -51.6168   35.5287 C   0  0  0  0  0  0  0  0  0  0  0  0
  -57.3882  -52.1485   34.8436 C   0  0  0  0  0  0  0  0  0  0  0  0
  -57.8317  -51.5030   33.6801 C   0  0  0  0  0  0  0  0  0  0  0  0
  -57.2036  -50.3356   33.2210 C   0  0  0  0  0  0  0  0  0  0  0  0
  -57.8747  -49.5896   31.6018 Br  0  0  0  0  0  0  0  0  0  0  0  0
  -58.0545  -53.4175   35.3154 C   0  0  0  0  0  0  0  0  0  0  0  0
  -58.5969  -54.1470   34.3012 F   0  0  0  0  0  0  0  0  0  0  0  0
  -57.1970  -54.2577   35.9589 F   0  0  0  0  0  0  0  0  0  0  0  0
  -59.0691  -53.1754   36.1889 F   0  0  0  0  0  0  0  0  0  0  0  0
 10 11  1  0
 11 12  1  0
 12 13  1  0
 13 14  1  0
 14  1  1  0
  1  2  2  0
  2  3  1  0
  3 17  1  0
 17 18  2  0
 18 19  1  0
 19 20  2  0
 20 24  1  0
 24 25  1  0
 24 26  1  0
 24 27  1  0
 20 21  1  0
 21 22  2  0
 22 23  1  0
  3  4  2  0
  4  5  1  0
  5  6  1  0
  5  7  2  0
 14 15  1  0
 15 16  1  0
 16 11  1  0
  7  1  1  0
 22 17  1  0
  6  8  1  0
  6  9  1  0
M  END
> <minimizedAffinity>
-6.38586

> <CNNscore>
0.4064442515

> <CNNaffinity>
6.8824329376

> <CNN_VS>
2.7973253727

> <CNNaffinity_variance>
0.2655967772

$$$$



 27 29  0  0  0  0  0  0  0  0999 V2000
  -46.4818  -47.0049   29.6292 C   0  0  0  0  0  0  0  0  0  0  0  0
  -45.3174  -46.9884   28.8841 C   0  0  0  0  0  0  0  0  0  0  0  0
  -44.3032  -46.1499   29.3020 C   0  0  0  0  0  0  0  0  0  0  0  0
  -44.4083  -45.3955   30.4113 N   0  0  0  0  0  0  0  0  0  0  0  0
  -45.5624  -45.4683   31.0694 C   0  0  0  0  0  0  0  0  0  0  0  0
  -45.6874  -44.7109   32.2163 N   0  0  0  0  0  0  0  0  0  0  0  0
  -46.5890  -46.2521   30.7367 N   0  0  0  0  0  0  0  0  0  0  0  0
  -44.9528  -44.1190   32.4978 H   0  0  0  0  0  0  0  0  0  0  0  0
  -46.5111  -44.7626   32.7530 H   0  0  0  0  0  0  0  0  0  0  0  0
  -51.4078  -46.5925   29.7611 C   0  0  0  0  0  0  0  0  0  0  0  0
  -50.5079  -47.8197   29.6142 C   0  0  0  0  0  0  0  0  0  0  0  0
  -49.8228  -47.8603   28.2362 C   0  0  0  0  0  0  0  0  0  0  0  0
  -48.4506  -47.1876   28.2587 C   0  0  0  0  0  0  0  0  0  0  0  0
  -47.5510  -47.8366   29.2335 N   0  0  0  0  0  0  0  0  0  0  0  0
  -48.2055  -48.5812   30.3235 C   0  0  0  0  0  0  0  0  0  0  0  0
  -49.4850  -47.8759   30.7636 C   0  0  0  0  0  0  0  0  0  0  0  0
  -43.0143  -46.0612   28.6000 C   0  0  0  0  0  0  0  0  0  0  0  0
  -42.1569  -44.9838   28.8987 C   0  0  0  0  0  0  0  0  0  0  0  0
  -40.9117  -44.8433   28.2781 C   0  0  0  0  0  0  0  0  0  0  0  0
  -40.4817  -45.7812   27.3334 C   0  0  0  0  0  0  0  0  0  0  0  0
  -41.3330  -46.8475   27.0086 C   0  0  0  0  0  0  0  0  0  0  0  0
  -42.5823  -46.9863   27.6317 C   0  0  0  0  0  0  0  0  0  0  0  0
  -43.6588  -48.4507   27.0613 Br  0  0  0  0  0  0  0  0  0  0  0  0
  -39.1506  -45.6267   26.6397 C   0  0  0  0  0  0  0  0  0  0  0  0
  -39.2653  -45.4451   25.2947 F   0  0  0  0  0  0  0  0  0  0  0  0
  -38.4356  -44.5617   27.0979 F   0  0  0  0  0  0  0  0  0  0  0  0
  -38.3511  -46.7150   26.8054 F   0  0  0  0  0  0  0  0  0  0  0  0
 10 11  1  0
 11 12  1  0
 12 13  1  0
 13 14  1  0
 14  1  1  0
  1  2  2  0
  2  3  1  0
  3 17  1  0
 17 18  2  0
 18 19  1  0
 19 20  2  0
 20 24  1  0
 24 25  1  0
 24 26  1  0
 24 27  1  0
 20 21  1  0
 21 22  2  0
 22 23  1  0
  3  4  2  0
  4  5  1  0
  5  6  1  0
  5  7  2  0
 14 15  1  0
 15 16  1  0
 16 11  1  0
  7  1  1  0
 22 17  1  0
  6  8  1  0
  6  9  1  0
M  END
> <minimizedAffinity>
-9.72485

> <CNNscore>
0.3689287305

> <CNNaffinity>
7.2276663780

> <CNN_VS>
2.6664938927

> <CNNaffinity_variance>
0.0156043880

$$$$



 27 29  0  0  0  0  0  0  0  0999 V2000
  -47.4136  -47.4228   29.5104 C   0  0  0  0  0  0  0  0  0  0  0  0
  -46.3516  -47.6418   28.6528 C   0  0  0  0  0  0  0  0  0  0  0  0
  -45.1371  -47.0730   28.9812 C   0  0  0  0  0  0  0  0  0  0  0  0
  -44.9615  -46.3590   30.1082 N   0  0  0  0  0  0  0  0  0  0  0  0
  -46.0346  -46.1937   30.8773 C   0  0  0  0  0  0  0  0  0  0  0  0
  -45.8740  -45.4737   32.0437 N   0  0  0  0  0  0  0  0  0  0  0  0
  -47.2406  -46.7097   30.6358 N   0  0  0  0  0  0  0  0  0  0  0  0
  -44.9999  -45.0759   32.2602 H   0  0  0  0  0  0  0  0  0  0  0  0
  -46.6336  -45.3580   32.6593 H   0  0  0  0  0  0  0  0  0  0  0  0
  -52.0671  -46.2237   30.6765 C   0  0  0  0  0  0  0  0  0  0  0  0
  -51.4672  -47.5339   30.1656 C   0  0  0  0  0  0  0  0  0  0  0  0
  -51.0415  -47.4267   28.6901 C   0  0  0  0  0  0  0  0  0  0  0  0
  -49.5782  -47.0099   28.5449 C   0  0  0  0  0  0  0  0  0  0  0  0
  -48.6776  -47.9733   29.2096 N   0  0  0  0  0  0  0  0  0  0  0  0
  -49.2782  -48.7907   30.2783 C   0  0  0  0  0  0  0  0  0  0  0  0
  -50.3005  -47.9775   31.0670 C   0  0  0  0  0  0  0  0  0  0  0  0
  -43.9340  -47.2518   28.1552 C   0  0  0  0  0  0  0  0  0  0  0  0
  -43.9212  -48.2856   27.1979 C   0  0  0  0  0  0  0  0  0  0  0  0
  -42.8158  -48.5055   26.3703 C   0  0  0  0  0  0  0  0  0  0  0  0
  -41.6811  -47.6940   26.4742 C   0  0  0  0  0  0  0  0  0  0  0  0
  -41.6693  -46.6745   27.4374 C   0  0  0  0  0  0  0  0  0  0  0  0
  -42.7790  -46.4559   28.2674 C   0  0  0  0  0  0  0  0  0  0  0  0
  -42.6106  -45.0716   29.5649 Br  0  0  0  0  0  0  0  0  0  0  0  0
  -40.4731  -47.9372   25.6032 C   0  0  0  0  0  0  0  0  0  0  0  0
  -40.2222  -46.9159   24.7377 F   0  0  0  0  0  0  0  0  0  0  0  0
  -39.3279  -48.1043   26.3214 F   0  0  0  0  0  0  0  0  0  0  0  0
  -40.6031  -49.0549   24.8384 F   0  0  0  0  0  0  0  0  0  0  0  0
 10 11  1  0
 11 12  1  0
 12 13  1  0
 13 14  1  0
 14  1  1  0
  1  2  2  0
  2  3  1  0
  3 17  1  0
 17 18  2  0
 18 19  1  0
 19 20  2  0
 20 24  1  0
 24 25  1  0
 24 26  1  0
 24 27  1  0
 20 21  1  0
 21 22  2  0
 22 23  1  0
  3  4  2  0
  4  5  1  0
  5  6  1  0
  5  7  2  0
 14 15  1  0
 15 16  1  0
 16 11  1  0
  7  1  1  0
 22 17  1  0
  6  8  1  0
  6  9  1  0
M  END
> <minimizedAffinity>
-8.73978

> <CNNscore>
0.2398359925

> <CNNaffinity>
7.0165286064

> <CNN_VS>
1.6828161478

> <CNNaffinity_variance>
0.0344402827

$$$$



 27 29  0  0  0  0  0  0  0  0999 V2000
  -43.2696  -47.7773   27.4144 C   0  0  0  0  0  0  0  0  0  0  0  0
  -44.5877  -47.9624   27.7881 C   0  0  0  0  0  0  0  0  0  0  0  0
  -45.1456  -47.0339   28.6443 C   0  0  0  0  0  0  0  0  0  0  0  0
  -44.4618  -45.9609   29.0821 N   0  0  0  0  0  0  0  0  0  0  0  0
  -43.1985  -45.8586   28.6771 C   0  0  0  0  0  0  0  0  0  0  0  0
  -42.4822  -44.7595   29.1056 N   0  0  0  0  0  0  0  0  0  0  0  0
  -42.5849  -46.7069   27.8508 N   0  0  0  0  0  0  0  0  0  0  0  0
  -42.8978  -44.1086   29.7161 H   0  0  0  0  0  0  0  0  0  0  0  0
  -41.5556  -44.6264   28.8006 H   0  0  0  0  0  0  0  0  0  0  0  0
  -43.2028  -52.7141   27.1381 C   0  0  0  0  0  0  0  0  0  0  0  0
  -42.2662  -51.6636   26.5409 C   0  0  0  0  0  0  0  0  0  0  0  0
  -42.9412  -50.8850   25.3972 C   0  0  0  0  0  0  0  0  0  0  0  0
  -43.6204  -49.6096   25.8954 C   0  0  0  0  0  0  0  0  0  0  0  0
  -42.6525  -48.7074   26.5511 N   0  0  0  0  0  0  0  0  0  0  0  0
  -41.4307  -49.3404   27.0780 C   0  0  0  0  0  0  0  0  0  0  0  0
  -41.7423  -50.7236   27.6420 C   0  0  0  0  0  0  0  0  0  0  0  0
  -46.5425  -47.1175   29.0956 C   0  0  0  0  0  0  0  0  0  0  0  0
  -47.5505  -47.3242   28.1331 C   0  0  0  0  0  0  0  0  0  0  0  0
  -48.8980  -47.4256   28.4923 C   0  0  0  0  0  0  0  0  0  0  0  0
  -49.2830  -47.3228   29.8333 C   0  0  0  0  0  0  0  0  0  0  0  0
  -48.2939  -47.0948   30.8012 C   0  0  0  0  0  0  0  0  0  0  0  0
  -46.9425  -46.9926   30.4389 C   0  0  0  0  0  0  0  0  0  0  0  0
  -45.7099  -46.6326   31.8459 Br  0  0  0  0  0  0  0  0  0  0  0  0
  -50.7365  -47.4063   30.2299 C   0  0  0  0  0  0  0  0  0  0  0  0
  -51.1976  -46.2678   30.8183 F   0  0  0  0  0  0  0  0  0  0  0  0
  -51.5616  -47.6368   29.1710 F   0  0  0  0  0  0  0  0  0  0  0  0
  -50.9741  -48.4106   31.1165 F   0  0  0  0  0  0  0  0  0  0  0  0
 10 11  1  0
 11 12  1  0
 12 13  1  0
 13 14  1  0
 14  1  1  0
  1  2  2  0
  2  3  1  0
  3 17  1  0
 17 18  2  0
 18 19  1  0
 19 20  2  0
 20 24  1  0
 24 25  1  0
 24 26  1  0
 24 27  1  0
 20 21  1  0
 21 22  2  0
 22 23  1  0
  3  4  2  0
  4  5  1  0
  5  6  1  0
  5  7  2  0
 14 15  1  0
 15 16  1  0
 16 11  1  0
  7  1  1  0
 22 17  1  0
  6  8  1  0
  6  9  1  0
M  END
> <minimizedAffinity>
-10.98127

> <CNNscore>
0.2314016372

> <CNNaffinity>
5.7809147835

> <CNN_VS>
1.3377131224

> <CNNaffinity_variance>
0.6293980479

$$$$



 27 29  0  0  0  0  0  0  0  0999 V2000
  -46.9763  -47.5823   29.8798 C   0  0  0  0  0  0  0  0  0  0  0  0
  -45.7775  -48.0676   29.3913 C   0  0  0  0  0  0  0  0  0  0  0  0
  -44.6151  -47.4872   29.8587 C   0  0  0  0  0  0  0  0  0  0  0  0
  -44.6237  -46.5093   30.7830 N   0  0  0  0  0  0  0  0  0  0  0  0
  -45.8190  -46.0986   31.1989 C   0  0  0  0  0  0  0  0  0  0  0  0
  -45.8504  -45.1039   32.1550 N   0  0  0  0  0  0  0  0  0  0  0  0
  -46.9871  -46.6056   30.8022 N   0  0  0  0  0  0  0  0  0  0  0  0
  -45.0106  -44.7025   32.4756 H   0  0  0  0  0  0  0  0  0  0  0  0
  -46.7127  -44.7956   32.5165 H   0  0  0  0  0  0  0  0  0  0  0  0
  -51.7288  -46.2708   30.2632 C   0  0  0  0  0  0  0  0  0  0  0  0
  -51.0837  -47.6138   29.9202 C   0  0  0  0  0  0  0  0  0  0  0  0
  -50.4392  -47.5942   28.5223 C   0  0  0  0  0  0  0  0  0  0  0  0
  -48.9631  -47.2016   28.5776 C   0  0  0  0  0  0  0  0  0  0  0  0
  -48.1910  -48.1355   29.4217 N   0  0  0  0  0  0  0  0  0  0  0  0
  -48.9606  -48.8852   30.4300 C   0  0  0  0  0  0  0  0  0  0  0  0
  -50.0742  -48.0183   31.0101 C   0  0  0  0  0  0  0  0  0  0  0  0
  -43.2825  -47.9318   29.4247 C   0  0  0  0  0  0  0  0  0  0  0  0
  -43.0066  -49.3133   29.4038 C   0  0  0  0  0  0  0  0  0  0  0  0
  -41.7652  -49.8073   28.9912 C   0  0  0  0  0  0  0  0  0  0  0  0
  -40.7542  -48.9305   28.5839 C   0  0  0  0  0  0  0  0  0  0  0  0
  -41.0055  -47.5511   28.6199 C   0  0  0  0  0  0  0  0  0  0  0  0
  -42.2513  -47.0573   29.0350 C   0  0  0  0  0  0  0  0  0  0  0  0
  -42.4414  -45.1625   29.0839 Br  0  0  0  0  0  0  0  0  0  0  0  0
  -39.4028  -49.4508   28.1597 C   0  0  0  0  0  0  0  0  0  0  0  0
  -38.6392  -49.8738   29.2052 F   0  0  0  0  0  0  0  0  0  0  0  0
  -39.4872  -50.5115   27.3094 F   0  0  0  0  0  0  0  0  0  0  0  0
  -38.6652  -48.5084   27.5124 F   0  0  0  0  0  0  0  0  0  0  0  0
 10 11  1  0
 11 12  1  0
 12 13  1  0
 13 14  1  0
 14  1  1  0
  1  2  2  0
  2  3  1  0
  3 17  1  0
 17 18  2  0
 18 19  1  0
 19 20  2  0
 20 24  1  0
 24 25  1  0
 24 26  1  0
 24 27  1  0
 20 21  1  0
 21 22  2  0
 22 23  1  0
  3  4  2  0
  4  5  1  0
  5  6  1  0
  5  7  2  0
 14 15  1  0
 15 16  1  0
 16 11  1  0
  7  1  1  0
 22 17  1  0
  6  8  1  0
  6  9  1  0
M  END
> <minimizedAffinity>
-8.45098

> <CNNscore>
0.2008465976

> <CNNaffinity>
6.6153645515

> <CNN_VS>
1.3286734819

> <CNNaffinity_variance>
0.0313256793

$$$$



 27 29  0  0  0  0  0  0  0  0999 V2000
  -43.1261  -47.9687   27.7476 C   0  0  0  0  0  0  0  0  0  0  0  0
  -44.4568  -48.1244   28.0886 C   0  0  0  0  0  0  0  0  0  0  0  0
  -45.0699  -47.0858   28.7609 C   0  0  0  0  0  0  0  0  0  0  0  0
  -44.4258  -45.9406   29.0511 N   0  0  0  0  0  0  0  0  0  0  0  0
  -43.1469  -45.8730   28.6901 C   0  0  0  0  0  0  0  0  0  0  0  0
  -42.4704  -44.7028   28.9685 N   0  0  0  0  0  0  0  0  0  0  0  0
  -42.4810  -46.8264   28.0370 N   0  0  0  0  0  0  0  0  0  0  0  0
  -42.9251  -43.9737   29.4489 H   0  0  0  0  0  0  0  0  0  0  0  0
  -41.5330  -44.5972   28.6866 H   0  0  0  0  0  0  0  0  0  0  0  0
  -38.4030  -48.8256   26.5594 C   0  0  0  0  0  0  0  0  0  0  0  0
  -39.6997  -49.4145   26.0032 C   0  0  0  0  0  0  0  0  0  0  0  0
  -40.3736  -50.3603   27.0136 C   0  0  0  0  0  0  0  0  0  0  0  0
  -41.3931  -49.6315   27.8886 C   0  0  0  0  0  0  0  0  0  0  0  0
  -42.4535  -49.0086   27.0711 N   0  0  0  0  0  0  0  0  0  0  0  0
  -42.1071  -48.7249   25.6673 C   0  0  0  0  0  0  0  0  0  0  0  0
  -40.6491  -48.2901   25.5507 C   0  0  0  0  0  0  0  0  0  0  0  0
  -46.4846  -47.1309   29.1588 C   0  0  0  0  0  0  0  0  0  0  0  0
  -47.4591  -47.3337   28.1615 C   0  0  0  0  0  0  0  0  0  0  0  0
  -48.8215  -47.3993   28.4696 C   0  0  0  0  0  0  0  0  0  0  0  0
  -49.2555  -47.2633   29.7926 C   0  0  0  0  0  0  0  0  0  0  0  0
  -48.2997  -47.0387   30.7941 C   0  0  0  0  0  0  0  0  0  0  0  0
  -46.9333  -46.9723   30.4830 C   0  0  0  0  0  0  0  0  0  0  0  0
  -45.7483  -46.6127   31.9303 Br  0  0  0  0  0  0  0  0  0  0  0  0
  -50.7247  -47.3081   30.1337 C   0  0  0  0  0  0  0  0  0  0  0  0
  -51.0389  -48.2921   31.0213 F   0  0  0  0  0  0  0  0  0  0  0  0
  -51.1742  -46.1492   30.6906 F   0  0  0  0  0  0  0  0  0  0  0  0
  -51.5036  -47.5258   29.0396 F   0  0  0  0  0  0  0  0  0  0  0  0
 10 11  1  0
 11 12  1  0
 12 13  1  0
 13 14  1  0
 14  1  1  0
  1  2  2  0
  2  3  1  0
  3 17  1  0
 17 18  2  0
 18 19  1  0
 19 20  2  0
 20 24  1  0
 24 25  1  0
 24 26  1  0
 24 27  1  0
 20 21  1  0
 21 22  2  0
 22 23  1  0
  3  4  2  0
  4  5  1  0
  5  6  1  0
  5  7  2  0
 14 15  1  0
 15 16  1  0
 16 11  1  0
  7  1  1  0
 22 17  1  0
  6  8  1  0
  6  9  1  0
M  END
> <minimizedAffinity>
-10.59612

> <CNNscore>
0.1998840272

> <CNNaffinity>
5.6908359528

> <CNN_VS>
1.1375072002

> <CNNaffinity_variance>
0.5686441660

$$$$



 27 29  0  0  0  0  0  0  0  0999 V2000
  -42.9163  -47.0064   28.2138 C   0  0  0  0  0  0  0  0  0  0  0  0
  -44.1336  -46.7878   28.8316 C   0  0  0  0  0  0  0  0  0  0  0  0
  -45.2294  -47.4724   28.3448 C   0  0  0  0  0  0  0  0  0  0  0  0
  -45.1325  -48.3525   27.3315 N   0  0  0  0  0  0  0  0  0  0  0  0
  -43.9258  -48.5026   26.7914 C   0  0  0  0  0  0  0  0  0  0  0  0
  -43.8019  -49.4087   25.7578 N   0  0  0  0  0  0  0  0  0  0  0  0
  -42.8175  -47.8842   27.2016 N   0  0  0  0  0  0  0  0  0  0  0  0
  -44.5953  -49.8869   25.4247 H   0  0  0  0  0  0  0  0  0  0  0  0
  -42.9201  -49.5767   25.3536 H   0  0  0  0  0  0  0  0  0  0  0  0
  -38.7750  -45.3901   26.0481 C   0  0  0  0  0  0  0  0  0  0  0  0
  -39.1030  -45.6465   27.5192 C   0  0  0  0  0  0  0  0  0  0  0  0
  -40.0849  -44.5984   28.0735 C   0  0  0  0  0  0  0  0  0  0  0  0
  -41.5389  -45.0522   27.9463 C   0  0  0  0  0  0  0  0  0  0  0  0
  -41.7705  -46.3194   28.6682 N   0  0  0  0  0  0  0  0  0  0  0  0
  -40.5827  -47.1605   28.8983 C   0  0  0  0  0  0  0  0  0  0  0  0
  -39.6292  -47.0808   27.7097 C   0  0  0  0  0  0  0  0  0  0  0  0
  -46.5700  -47.3338   28.9325 C   0  0  0  0  0  0  0  0  0  0  0  0
  -47.6924  -47.4930   28.0958 C   0  0  0  0  0  0  0  0  0  0  0  0
  -48.9964  -47.3866   28.5894 C   0  0  0  0  0  0  0  0  0  0  0  0
  -49.2210  -47.1159   29.9434 C   0  0  0  0  0  0  0  0  0  0  0  0
  -48.1141  -46.9328   30.7852 C   0  0  0  0  0  0  0  0  0  0  0  0
  -46.8066  -47.0391   30.2879 C   0  0  0  0  0  0  0  0  0  0  0  0
  -45.3967  -46.7181   31.5280 Br  0  0  0  0  0  0  0  0  0  0  0  0
  -50.6233  -46.9748   30.4823 C   0  0  0  0  0  0  0  0  0  0  0  0
  -51.1240  -48.1378   30.9841 F   0  0  0  0  0  0  0  0  0  0  0  0
  -50.7129  -46.0661   31.4930 F   0  0  0  0  0  0  0  0  0  0  0  0
  -51.5049  -46.5657   29.5303 F   0  0  0  0  0  0  0  0  0  0  0  0
 10 11  1  0
 11 12  1  0
 12 13  1  0
 13 14  1  0
 14  1  1  0
  1  2  2  0
  2  3  1  0
  3 17  1  0
 17 18  2  0
 18 19  1  0
 19 20  2  0
 20 24  1  0
 24 25  1  0
 24 26  1  0
 24 27  1  0
 20 21  1  0
 21 22  2  0
 22 23  1  0
  3  4  2  0
  4  5  1  0
  5  6  1  0
  5  7  2  0
 14 15  1  0
 15 16  1  0
 16 11  1  0
  7  1  1  0
 22 17  1  0
  6  8  1  0
  6  9  1  0
M  END
> <minimizedAffinity>
-10.23734

> <CNNscore>
0.1969759315

> <CNNaffinity>
6.1273713112

> <CNN_VS>
1.2069447041

> <CNNaffinity_variance>
0.2488494515

$$$$



 27 29  0  0  0  0  0  0  0  0999 V2000
  -51.9983  -47.0096   31.2531 C   0  0  0  0  0  0  0  0  0  0  0  0
  -50.7383  -46.5216   30.9608 C   0  0  0  0  0  0  0  0  0  0  0  0
  -49.7431  -47.4407   30.6935 C   0  0  0  0  0  0  0  0  0  0  0  0
  -49.9772  -48.7657   30.6761 N   0  0  0  0  0  0  0  0  0  0  0  0
  -51.2160  -49.1518   30.9703 C   0  0  0  0  0  0  0  0  0  0  0  0
  -51.4805  -50.5061   30.9475 N   0  0  0  0  0  0  0  0  0  0  0  0
  -52.2339  -48.3322   31.2368 N   0  0  0  0  0  0  0  0  0  0  0  0
  -50.7573  -51.1457   30.7548 H   0  0  0  0  0  0  0  0  0  0  0  0
  -52.3924  -50.8326   31.1239 H   0  0  0  0  0  0  0  0  0  0  0  0
  -55.4321  -46.7413   34.8013 C   0  0  0  0  0  0  0  0  0  0  0  0
  -55.3585  -46.0796   33.4250 C   0  0  0  0  0  0  0  0  0  0  0  0
  -54.2798  -44.9823   33.3790 C   0  0  0  0  0  0  0  0  0  0  0  0
  -52.9338  -45.5223   32.8963 C   0  0  0  0  0  0  0  0  0  0  0  0
  -53.0443  -46.1087   31.5456 N   0  0  0  0  0  0  0  0  0  0  0  0
  -54.3893  -46.5534   31.1403 C   0  0  0  0  0  0  0  0  0  0  0  0
  -55.1427  -47.1405   32.3302 C   0  0  0  0  0  0  0  0  0  0  0  0
  -48.3703  -47.0392   30.3531 C   0  0  0  0  0  0  0  0  0  0  0  0
  -47.5110  -46.6288   31.3915 C   0  0  0  0  0  0  0  0  0  0  0  0
  -46.1898  -46.2451   31.1419 C   0  0  0  0  0  0  0  0  0  0  0  0
  -45.6825  -46.2596   29.8382 C   0  0  0  0  0  0  0  0  0  0  0  0
  -46.5318  -46.6445   28.7905 C   0  0  0  0  0  0  0  0  0  0  0  0
  -47.8574  -47.0283   29.0428 C   0  0  0  0  0  0  0  0  0  0  0  0
  -48.9155  -47.4793   27.5244 Br  0  0  0  0  0  0  0  0  0  0  0  0
  -44.2659  -45.8246   29.5539 C   0  0  0  0  0  0  0  0  0  0  0  0
  -43.3871  -46.1911   30.5278 F   0  0  0  0  0  0  0  0  0  0  0  0
  -43.7745  -46.3464   28.3957 F   0  0  0  0  0  0  0  0  0  0  0  0
  -44.1533  -44.4739   29.4347 F   0  0  0  0  0  0  0  0  0  0  0  0
 10 11  1  0
 11 12  1  0
 12 13  1  0
 13 14  1  0
 14  1  1  0
  1  2  2  0
  2  3  1  0
  3 17  1  0
 17 18  2  0
 18 19  1  0
 19 20  2  0
 20 24  1  0
 24 25  1  0
 24 26  1  0
 24 27  1  0
 20 21  1  0
 21 22  2  0
 22 23  1  0
  3  4  2  0
  4  5  1  0
  5  6  1  0
  5  7  2  0
 14 15  1  0
 15 16  1  0
 16 11  1  0
  7  1  1  0
 22 17  1  0
  6  8  1  0
  6  9  1  0
M  END
> <minimizedAffinity>
-7.09681

> <CNNscore>
0.1867914349

> <CNNaffinity>
6.3982849121

> <CNN_VS>
1.1951447725

> <CNNaffinity_variance>
0.3887561858

$$$$



 27 29  0  0  0  0  0  0  0  0999 V2000
  -56.6029  -48.9607   33.2200 C   0  0  0  0  0  0  0  0  0  0  0  0
  -56.4965  -49.9430   34.1870 C   0  0  0  0  0  0  0  0  0  0  0  0
  -57.1411  -51.1416   33.9541 C   0  0  0  0  0  0  0  0  0  0  0  0
  -57.8225  -51.3801   32.8186 N   0  0  0  0  0  0  0  0  0  0  0  0
  -57.8780  -50.3816   31.9409 C   0  0  0  0  0  0  0  0  0  0  0  0
  -58.5627  -50.6087   30.7644 N   0  0  0  0  0  0  0  0  0  0  0  0
  -57.2832  -49.1966   32.0858 N   0  0  0  0  0  0  0  0  0  0  0  0
  -59.0159  -51.4702   30.6170 H   0  0  0  0  0  0  0  0  0  0  0  0
  -58.5979  -49.9093   30.0724 H   0  0  0  0  0  0  0  0  0  0  0  0
  -52.5331  -46.8213   31.4000 C   0  0  0  0  0  0  0  0  0  0  0  0
  -53.3529  -46.5134   32.6533 C   0  0  0  0  0  0  0  0  0  0  0  0
  -54.7158  -45.8899   32.3017 C   0  0  0  0  0  0  0  0  0  0  0  0
  -55.8119  -46.9467   32.1684 C   0  0  0  0  0  0  0  0  0  0  0  0
  -55.9718  -47.7145   33.4197 N   0  0  0  0  0  0  0  0  0  0  0  0
  -54.8053  -47.7371   34.3196 C   0  0  0  0  0  0  0  0  0  0  0  0
  -53.5081  -47.7782   33.5173 C   0  0  0  0  0  0  0  0  0  0  0  0
  -57.0840  -52.2643   34.9018 C   0  0  0  0  0  0  0  0  0  0  0  0
  -58.0467  -53.2874   34.7935 C   0  0  0  0  0  0  0  0  0  0  0  0
  -58.0452  -54.3902   35.6531 C   0  0  0  0  0  0  0  0  0  0  0  0
  -57.0753  -54.5059   36.6546 C   0  0  0  0  0  0  0  0  0  0  0  0
  -56.1233  -53.4849   36.7898 C   0  0  0  0  0  0  0  0  0  0  0  0
  -56.1269  -52.3787   35.9269 C   0  0  0  0  0  0  0  0  0  0  0  0
  -54.8099  -51.0417   36.2531 Br  0  0  0  0  0  0  0  0  0  0  0  0
  -57.0785  -55.6792   37.6033 C   0  0  0  0  0  0  0  0  0  0  0  0
  -56.0147  -55.6833   38.4540 F   0  0  0  0  0  0  0  0  0  0  0  0
  -58.1863  -55.7166   38.3950 F   0  0  0  0  0  0  0  0  0  0  0  0
  -57.0428  -56.8726   36.9508 F   0  0  0  0  0  0  0  0  0  0  0  0
 10 11  1  0
 11 12  1  0
 12 13  1  0
 13 14  1  0
 14  1  1  0
  1  2  2  0
  2  3  1  0
  3 17  1  0
 17 18  2  0
 18 19  1  0
 19 20  2  0
 20 24  1  0
 24 25  1  0
 24 26  1  0
 24 27  1  0
 20 21  1  0
 21 22  2  0
 22 23  1  0
  3  4  2  0
  4  5  1  0
  5  6  1  0
  5  7  2  0
 14 15  1  0
 15 16  1  0
 16 11  1  0
  7  1  1  0
 22 17  1  0
  6  8  1  0
  6  9  1  0
M  END
> <minimizedAffinity>
-6.88618

> <CNNscore>
0.1590995789

> <CNNaffinity>
5.4537520409

> <CNN_VS>
0.8676896691

> <CNNaffinity_variance>
0.4206112921

$$$$
