


 28 31  0  0  0  0  0  0  0  0999 V2000
    8.8170   57.5385   -0.6452 C   0  0  0  0  0  0  0  0  0  0  0  0
    8.7962   58.7721   -1.1349 N   0  0  0  0  0  0  0  0  0  0  0  0
    7.6162   59.3207   -0.7204 C   0  0  0  0  0  0  0  0  0  0  0  0
    7.0635   60.6000   -0.9125 C   0  0  0  0  0  0  0  0  0  0  0  0
    5.8663   60.9786   -0.3684 N   0  0  0  0  0  0  0  0  0  0  0  0
    5.2701   60.0429    0.3888 C   0  0  0  0  0  0  0  0  0  0  0  0
    4.0985   60.1662    1.0800 N   0  0  0  0  0  0  0  0  0  0  0  0
    3.8626   59.0025    1.7621 C   0  0  0  0  0  0  0  0  0  0  0  0
    2.8115   58.7828    2.5631 F   0  0  0  0  0  0  0  0  0  0  0  0
    4.8737   58.0975    1.5129 C   0  0  0  0  0  0  0  0  0  0  0  0
    5.7451   58.7686    0.6206 C   0  0  0  0  0  0  0  0  0  0  0  0
    6.9198   58.3963    0.0338 C   0  0  0  0  0  0  0  0  0  0  0  0
    7.6253   57.2378    0.0141 N   0  0  0  0  0  0  0  0  0  0  0  0
    3.5185   60.9617    1.0868 H   0  0  0  0  0  0  0  0  0  0  0  0
    7.2065   55.9423    0.5395 C   0  0  0  0  0  0  0  0  0  0  0  0
    6.7864   55.9301    2.0185 C   0  0  0  0  0  0  0  0  0  0  0  0
    6.4946   54.5056    2.4977 C   0  0  0  0  0  0  0  0  0  0  0  0
    5.4353   53.8165    1.6211 C   0  0  0  0  0  0  0  0  0  0  0  0
    5.8601   53.8418    0.1409 C   0  0  0  0  0  0  0  0  0  0  0  0
    6.1688   55.2544   -0.3541 C   0  0  0  0  0  0  0  0  0  0  0  0
    5.1683   52.3574    2.0539 C   0  0  0  0  0  0  0  0  0  0  0  0
    5.0970   51.3313    0.9186 C   0  0  0  0  0  0  0  0  0  0  0  0
    3.7142   51.0038    0.5490 C   0  0  0  0  0  0  0  0  0  0  0  0
    2.6199   50.7569    0.2536 N   0  0  0  0  0  0  0  0  0  0  0  0
   10.9709   57.1467   -1.8556 C   0  0  0  0  0  0  0  0  0  0  0  0
   10.0229   56.6555   -0.7715 C   0  0  0  0  0  0  0  0  0  0  0  0
   10.7033   56.7294    0.4842 O   0  0  0  0  0  0  0  0  0  0  0  0
   10.9530   57.6495    0.6630 H   0  0  0  0  0  0  0  0  0  0  0  0
 26 25  1  0
 26 27  1  0
 26  1  1  0
  1  2  2  0
  2  3  1  0
  3  4  2  0
  4  5  1  0
  5  6  2  0
  6  7  1  0
  7  8  1  0
  8  9  1  0
  8 10  2  0
 10 11  1  0
 11 12  2  0
 12 13  1  0
 15 13  1  0
 15 16  1  0
 16 17  1  0
 17 18  1  0
 18 21  1  0
 21 22  1  0
 22 23  1  0
 23 24  3  0
 18 19  1  0
 19 20  1  0
 13  1  1  0
 20 15  1  0
 12  3  1  0
 11  6  1  0
 27 28  1  0
  7 14  1  0
M  END
> <minimizedAffinity>
-9.27305

> <CNNscore>
0.9883720875

> <CNNaffinity>
8.3776512146

> <CNN_VS>
8.2802362442

> <CNNaffinity_variance>
0.1395083070

$$$$



 28 31  0  0  0  0  0  0  0  0999 V2000
    8.9120   56.6447   -0.1277 C   0  0  0  0  0  0  0  0  0  0  0  0
    9.2459   57.7641   -0.7581 N   0  0  0  0  0  0  0  0  0  0  0  0
    8.1800   58.6063   -0.6177 C   0  0  0  0  0  0  0  0  0  0  0  0
    7.9713   59.9278   -1.0522 C   0  0  0  0  0  0  0  0  0  0  0  0
    6.8315   60.6296   -0.7677 N   0  0  0  0  0  0  0  0  0  0  0  0
    5.9357   59.9689   -0.0156 C   0  0  0  0  0  0  0  0  0  0  0  0
    4.7410   60.4416    0.4478 N   0  0  0  0  0  0  0  0  0  0  0  0
    4.1496   59.4735    1.2146 C   0  0  0  0  0  0  0  0  0  0  0  0
    2.9760   59.6065    1.8469 F   0  0  0  0  0  0  0  0  0  0  0  0
    4.9474   58.3484    1.2501 C   0  0  0  0  0  0  0  0  0  0  0  0
    6.0652   58.6747    0.4440 C   0  0  0  0  0  0  0  0  0  0  0  0
    7.1908   57.9772    0.1132 C   0  0  0  0  0  0  0  0  0  0  0  0
    7.6038   56.7073    0.3519 N   0  0  0  0  0  0  0  0  0  0  0  0
    4.3663   61.3327    0.2611 H   0  0  0  0  0  0  0  0  0  0  0  0
    6.8273   55.6262    0.9503 C   0  0  0  0  0  0  0  0  0  0  0  0
    6.4973   54.4502    0.0163 C   0  0  0  0  0  0  0  0  0  0  0  0
    5.5736   53.4414    0.7043 C   0  0  0  0  0  0  0  0  0  0  0  0
    6.1683   52.9382    2.0304 C   0  0  0  0  0  0  0  0  0  0  0  0
    6.5042   54.1231    2.9553 C   0  0  0  0  0  0  0  0  0  0  0  0
    7.4156   55.1491    2.2825 C   0  0  0  0  0  0  0  0  0  0  0  0
    5.2249   51.9622    2.7685 C   0  0  0  0  0  0  0  0  0  0  0  0
    4.1937   51.2454    1.8911 C   0  0  0  0  0  0  0  0  0  0  0  0
    3.2563   50.4362    2.6801 C   0  0  0  0  0  0  0  0  0  0  0  0
    2.5220   49.7868    3.3004 N   0  0  0  0  0  0  0  0  0  0  0  0
    9.2496   54.1683   -0.2369 C   0  0  0  0  0  0  0  0  0  0  0  0
    9.8855   55.5188    0.0583 C   0  0  0  0  0  0  0  0  0  0  0  0
   10.9322   55.7372   -0.8915 O   0  0  0  0  0  0  0  0  0  0  0  0
   10.5602   55.7417   -1.7873 H   0  0  0  0  0  0  0  0  0  0  0  0
 26 25  1  0
 26 27  1  0
 26  1  1  0
  1  2  2  0
  2  3  1  0
  3  4  2  0
  4  5  1  0
  5  6  2  0
  6  7  1  0
  7  8  1  0
  8  9  1  0
  8 10  2  0
 10 11  1  0
 11 12  2  0
 12 13  1  0
 15 13  1  0
 15 16  1  0
 16 17  1  0
 17 18  1  0
 18 21  1  0
 21 22  1  0
 22 23  1  0
 23 24  3  0
 18 19  1  0
 19 20  1  0
 13  1  1  0
 20 15  1  0
 12  3  1  0
 11  6  1  0
 27 28  1  0
  7 14  1  0
M  END
> <minimizedAffinity>
-9.02383

> <CNNscore>
0.9828208685

> <CNNaffinity>
8.0196676254

> <CNN_VS>
7.8818964958

> <CNNaffinity_variance>
0.0213198420

$$$$



 28 31  0  0  0  0  0  0  0  0999 V2000
    5.3842   56.5586    1.4717 C   0  0  0  0  0  0  0  0  0  0  0  0
    4.6794   57.6798    1.5623 N   0  0  0  0  0  0  0  0  0  0  0  0
    5.3949   58.6284    0.8889 C   0  0  0  0  0  0  0  0  0  0  0  0
    5.1334   59.9865    0.6316 C   0  0  0  0  0  0  0  0  0  0  0  0
    5.9682   60.7728   -0.1150 N   0  0  0  0  0  0  0  0  0  0  0  0
    7.0457   60.1407   -0.6091 C   0  0  0  0  0  0  0  0  0  0  0  0
    8.0128   60.6693   -1.4159 N   0  0  0  0  0  0  0  0  0  0  0  0
    8.9095   59.6849   -1.7349 C   0  0  0  0  0  0  0  0  0  0  0  0
    9.9751   59.8468   -2.5306 F   0  0  0  0  0  0  0  0  0  0  0  0
    8.5450   58.5011   -1.1273 C   0  0  0  0  0  0  0  0  0  0  0  0
    7.3725   58.8171   -0.3985 C   0  0  0  0  0  0  0  0  0  0  0  0
    6.5490   58.0611    0.3845 C   0  0  0  0  0  0  0  0  0  0  0  0
    6.5982   56.7776    0.8211 N   0  0  0  0  0  0  0  0  0  0  0  0
    8.0578   61.6051   -1.7185 H   0  0  0  0  0  0  0  0  0  0  0  0
    7.7053   55.8384    0.6726 C   0  0  0  0  0  0  0  0  0  0  0  0
    8.7612   55.8749    1.7897 C   0  0  0  0  0  0  0  0  0  0  0  0
    9.9373   54.9489    1.4681 C   0  0  0  0  0  0  0  0  0  0  0  0
    9.4702   53.5079    1.2019 C   0  0  0  0  0  0  0  0  0  0  0  0
    8.4064   53.4824    0.0883 C   0  0  0  0  0  0  0  0  0  0  0  0
    7.2289   54.4107    0.3842 C   0  0  0  0  0  0  0  0  0  0  0  0
   10.6368   52.5698    0.8191 C   0  0  0  0  0  0  0  0  0  0  0  0
   12.0105   52.9589    1.3744 C   0  0  0  0  0  0  0  0  0  0  0  0
   13.0206   51.9187    1.1429 C   0  0  0  0  0  0  0  0  0  0  0  0
   13.8163   51.0922    0.9711 N   0  0  0  0  0  0  0  0  0  0  0  0
    5.5821   54.7932    3.2330 C   0  0  0  0  0  0  0  0  0  0  0  0
    4.8568   55.2477    1.9750 C   0  0  0  0  0  0  0  0  0  0  0  0
    3.4840   55.4725    2.3072 O   0  0  0  0  0  0  0  0  0  0  0  0
    3.4244   56.1640    2.9848 H   0  0  0  0  0  0  0  0  0  0  0  0
 26 25  1  0
 26 27  1  0
 26  1  1  0
  1  2  2  0
  2  3  1  0
  3  4  2  0
  4  5  1  0
  5  6  2  0
  6  7  1  0
  7  8  1  0
  8  9  1  0
  8 10  2  0
 10 11  1  0
 11 12  2  0
 12 13  1  0
 15 13  1  0
 15 16  1  0
 16 17  1  0
 17 18  1  0
 18 21  1  0
 21 22  1  0
 22 23  1  0
 23 24  3  0
 18 19  1  0
 19 20  1  0
 13  1  1  0
 20 15  1  0
 12  3  1  0
 11  6  1  0
 27 28  1  0
  7 14  1  0
M  END
> <minimizedAffinity>
-8.30325

> <CNNscore>
0.8956294656

> <CNNaffinity>
7.5190215111

> <CNN_VS>
6.7342572212

> <CNNaffinity_variance>
0.0126655474

$$$$



 28 31  0  0  0  0  0  0  0  0999 V2000
    9.6900   55.4664    0.6280 C   0  0  0  0  0  0  0  0  0  0  0  0
   10.1723   56.5783    0.0867 N   0  0  0  0  0  0  0  0  0  0  0  0
    9.0978   57.3992   -0.1052 C   0  0  0  0  0  0  0  0  0  0  0  0
    9.0014   58.7054   -0.6185 C   0  0  0  0  0  0  0  0  0  0  0  0
    7.8172   59.3875   -0.6893 N   0  0  0  0  0  0  0  0  0  0  0  0
    6.7546   58.7242   -0.2037 C   0  0  0  0  0  0  0  0  0  0  0  0
    5.4704   59.1803   -0.1121 N   0  0  0  0  0  0  0  0  0  0  0  0
    4.7002   58.2169    0.4826 C   0  0  0  0  0  0  0  0  0  0  0  0
    3.3934   58.3379    0.7518 F   0  0  0  0  0  0  0  0  0  0  0  0
    5.4719   57.1113    0.7750 C   0  0  0  0  0  0  0  0  0  0  0  0
    6.7677   57.4442    0.3103 C   0  0  0  0  0  0  0  0  0  0  0  0
    7.9513   56.7649    0.3325 C   0  0  0  0  0  0  0  0  0  0  0  0
    8.2987   55.5104    0.7146 N   0  0  0  0  0  0  0  0  0  0  0  0
    5.1508   60.0581   -0.4227 H   0  0  0  0  0  0  0  0  0  0  0  0
    7.4006   54.4261    1.0986 C   0  0  0  0  0  0  0  0  0  0  0  0
    6.6757   54.6088    2.4422 C   0  0  0  0  0  0  0  0  0  0  0  0
    5.8665   53.3613    2.8069 C   0  0  0  0  0  0  0  0  0  0  0  0
    4.8735   52.9824    1.6952 C   0  0  0  0  0  0  0  0  0  0  0  0
    5.6071   52.8107    0.3518 C   0  0  0  0  0  0  0  0  0  0  0  0
    6.4318   54.0411   -0.0247 C   0  0  0  0  0  0  0  0  0  0  0  0
    4.0873   51.6924    2.0195 C   0  0  0  0  0  0  0  0  0  0  0  0
    3.4822   50.9639    0.8154 C   0  0  0  0  0  0  0  0  0  0  0  0
    2.8190   49.7108    1.1973 C   0  0  0  0  0  0  0  0  0  0  0  0
    2.3028   48.7196    1.5086 N   0  0  0  0  0  0  0  0  0  0  0  0
    9.8253   53.0669    1.3224 C   0  0  0  0  0  0  0  0  0  0  0  0
   10.5874   54.3674    1.1145 C   0  0  0  0  0  0  0  0  0  0  0  0
   11.5553   54.1582    0.0827 O   0  0  0  0  0  0  0  0  0  0  0  0
   11.1034   53.9110   -0.7392 H   0  0  0  0  0  0  0  0  0  0  0  0
 26 25  1  0
 26 27  1  0
 26  1  1  0
  1  2  2  0
  2  3  1  0
  3  4  2  0
  4  5  1  0
  5  6  2  0
  6  7  1  0
  7  8  1  0
  8  9  1  0
  8 10  2  0
 10 11  1  0
 11 12  2  0
 12 13  1  0
 15 13  1  0
 15 16  1  0
 16 17  1  0
 17 18  1  0
 18 21  1  0
 21 22  1  0
 22 23  1  0
 23 24  3  0
 18 19  1  0
 19 20  1  0
 13  1  1  0
 20 15  1  0
 12  3  1  0
 11  6  1  0
 27 28  1  0
  7 14  1  0
M  END
> <minimizedAffinity>
-9.25575

> <CNNscore>
0.8720422387

> <CNNaffinity>
7.3356590271

> <CNN_VS>
6.3970046043

> <CNNaffinity_variance>
0.0412462316

$$$$



 28 31  0  0  0  0  0  0  0  0999 V2000
    5.1672   58.0061    0.7235 C   0  0  0  0  0  0  0  0  0  0  0  0
    5.3743   59.2388    0.2768 N   0  0  0  0  0  0  0  0  0  0  0  0
    6.6292   59.2370   -0.2619 C   0  0  0  0  0  0  0  0  0  0  0  0
    7.3718   60.2465   -0.9010 C   0  0  0  0  0  0  0  0  0  0  0  0
    8.6188   60.0312   -1.4220 N   0  0  0  0  0  0  0  0  0  0  0  0
    9.0701   58.7716   -1.3020 C   0  0  0  0  0  0  0  0  0  0  0  0
   10.2536   58.2729   -1.7670 N   0  0  0  0  0  0  0  0  0  0  0  0
   10.3129   56.9352   -1.4808 C   0  0  0  0  0  0  0  0  0  0  0  0
   11.3252   56.1237   -1.8147 F   0  0  0  0  0  0  0  0  0  0  0  0
    9.1711   56.5459   -0.8113 C   0  0  0  0  0  0  0  0  0  0  0  0
    8.4055   57.7309   -0.6871 C   0  0  0  0  0  0  0  0  0  0  0  0
    7.1813   57.9770   -0.1359 C   0  0  0  0  0  0  0  0  0  0  0  0
    6.3044   57.2145    0.5640 N   0  0  0  0  0  0  0  0  0  0  0  0
   10.9501   58.7906   -2.2319 H   0  0  0  0  0  0  0  0  0  0  0  0
    6.5223   55.8646    1.0739 C   0  0  0  0  0  0  0  0  0  0  0  0
    6.2238   55.6634    2.5688 C   0  0  0  0  0  0  0  0  0  0  0  0
    6.6099   54.2535    3.0239 C   0  0  0  0  0  0  0  0  0  0  0  0
    5.9178   53.1728    2.1762 C   0  0  0  0  0  0  0  0  0  0  0  0
    6.2148   53.3879    0.6803 C   0  0  0  0  0  0  0  0  0  0  0  0
    5.8482   54.7946    0.2084 C   0  0  0  0  0  0  0  0  0  0  0  0
    6.3391   51.7429    2.5830 C   0  0  0  0  0  0  0  0  0  0  0  0
    5.3118   50.9569    3.4038 C   0  0  0  0  0  0  0  0  0  0  0  0
    4.5288   50.0300    2.5770 C   0  0  0  0  0  0  0  0  0  0  0  0
    3.9177   49.2884    1.9271 N   0  0  0  0  0  0  0  0  0  0  0  0
    3.8652   56.1255    1.7366 C   0  0  0  0  0  0  0  0  0  0  0  0
    3.8376   57.5721    1.2655 C   0  0  0  0  0  0  0  0  0  0  0  0
    3.5783   58.4061    2.3980 O   0  0  0  0  0  0  0  0  0  0  0  0
    4.2845   58.2907    3.0529 H   0  0  0  0  0  0  0  0  0  0  0  0
 26 25  1  0
 26 27  1  0
 26  1  1  0
  1  2  2  0
  2  3  1  0
  3  4  2  0
  4  5  1  0
  5  6  2  0
  6  7  1  0
  7  8  1  0
  8  9  1  0
  8 10  2  0
 10 11  1  0
 11 12  2  0
 12 13  1  0
 15 13  1  0
 15 16  1  0
 16 17  1  0
 17 18  1  0
 18 21  1  0
 21 22  1  0
 22 23  1  0
 23 24  3  0
 18 19  1  0
 19 20  1  0
 13  1  1  0
 20 15  1  0
 12  3  1  0
 11  6  1  0
 27 28  1  0
  7 14  1  0
M  END
> <minimizedAffinity>
-8.60441

> <CNNscore>
0.6650810838

> <CNNaffinity>
7.4496321678

> <CNN_VS>
4.9546093941

> <CNNaffinity_variance>
0.2655983865

$$$$



 28 31  0  0  0  0  0  0  0  0999 V2000
    5.3840   55.3119    1.7063 C   0  0  0  0  0  0  0  0  0  0  0  0
    4.4206   56.1965    1.9332 N   0  0  0  0  0  0  0  0  0  0  0  0
    4.8407   57.3637    1.3621 C   0  0  0  0  0  0  0  0  0  0  0  0
    4.2302   58.6273    1.2643 C   0  0  0  0  0  0  0  0  0  0  0  0
    4.8039   59.6774    0.6003 N   0  0  0  0  0  0  0  0  0  0  0  0
    5.9850   59.4016    0.0229 C   0  0  0  0  0  0  0  0  0  0  0  0
    6.7497   60.2449   -0.7319 N   0  0  0  0  0  0  0  0  0  0  0  0
    7.8538   59.5656   -1.1729 C   0  0  0  0  0  0  0  0  0  0  0  0
    8.8078   60.0811   -1.9597 F   0  0  0  0  0  0  0  0  0  0  0  0
    7.8301   58.2702   -0.6986 C   0  0  0  0  0  0  0  0  0  0  0  0
    6.6478   58.1930    0.0773 C   0  0  0  0  0  0  0  0  0  0  0  0
    6.0789   57.1711    0.7808 C   0  0  0  0  0  0  0  0  0  0  0  0
    6.4729   55.9052    1.0682 N   0  0  0  0  0  0  0  0  0  0  0  0
    6.5412   61.1871   -0.9269 H   0  0  0  0  0  0  0  0  0  0  0  0
    7.7759   55.3055    0.7988 C   0  0  0  0  0  0  0  0  0  0  0  0
    8.8438   55.5232    1.8834 C   0  0  0  0  0  0  0  0  0  0  0  0
   10.2008   54.9690    1.4411 C   0  0  0  0  0  0  0  0  0  0  0  0
   10.1090   53.4838    1.0521 C   0  0  0  0  0  0  0  0  0  0  0  0
    9.0308   53.2743   -0.0276 C   0  0  0  0  0  0  0  0  0  0  0  0
    7.6705   53.8325    0.3893 C   0  0  0  0  0  0  0  0  0  0  0  0
   11.4567   52.9206    0.5481 C   0  0  0  0  0  0  0  0  0  0  0  0
   12.5688   52.8230    1.5973 C   0  0  0  0  0  0  0  0  0  0  0  0
   13.4211   51.6440    1.3983 C   0  0  0  0  0  0  0  0  0  0  0  0
   14.0975   50.7168    1.2299 N   0  0  0  0  0  0  0  0  0  0  0  0
    5.3555   52.9637    0.8441 C   0  0  0  0  0  0  0  0  0  0  0  0
    5.2309   53.8634    2.0648 C   0  0  0  0  0  0  0  0  0  0  0  0
    6.3067   53.5586    2.9564 O   0  0  0  0  0  0  0  0  0  0  0  0
    7.1524   53.7279    2.5125 H   0  0  0  0  0  0  0  0  0  0  0  0
 26 25  1  0
 26 27  1  0
 26  1  1  0
  1  2  2  0
  2  3  1  0
  3  4  2  0
  4  5  1  0
  5  6  2  0
  6  7  1  0
  7  8  1  0
  8  9  1  0
  8 10  2  0
 10 11  1  0
 11 12  2  0
 12 13  1  0
 15 13  1  0
 15 16  1  0
 16 17  1  0
 17 18  1  0
 18 21  1  0
 21 22  1  0
 22 23  1  0
 23 24  3  0
 18 19  1  0
 19 20  1  0
 13  1  1  0
 20 15  1  0
 12  3  1  0
 11  6  1  0
 27 28  1  0
  7 14  1  0
M  END
> <minimizedAffinity>
-8.08249

> <CNNscore>
0.6507050991

> <CNNaffinity>
7.0128479004

> <CNN_VS>
4.5632958412

> <CNNaffinity_variance>
0.0038886566

$$$$



 28 31  0  0  0  0  0  0  0  0999 V2000
    5.0012   58.2695    0.7278 C   0  0  0  0  0  0  0  0  0  0  0  0
    5.2926   59.4906    0.2965 N   0  0  0  0  0  0  0  0  0  0  0  0
    6.5528   59.4140   -0.2243 C   0  0  0  0  0  0  0  0  0  0  0  0
    7.3673   60.3801   -0.8426 C   0  0  0  0  0  0  0  0  0  0  0  0
    8.6056   60.0908   -1.3479 N   0  0  0  0  0  0  0  0  0  0  0  0
    8.9745   58.8041   -1.2340 C   0  0  0  0  0  0  0  0  0  0  0  0
   10.1307   58.2354   -1.6871 N   0  0  0  0  0  0  0  0  0  0  0  0
   10.1009   56.8941   -1.4135 C   0  0  0  0  0  0  0  0  0  0  0  0
   11.0646   56.0230   -1.7411 F   0  0  0  0  0  0  0  0  0  0  0  0
    8.9269   56.5720   -0.7643 C   0  0  0  0  0  0  0  0  0  0  0  0
    8.2362   57.8021   -0.6391 C   0  0  0  0  0  0  0  0  0  0  0  0
    7.0220   58.1204   -0.1031 C   0  0  0  0  0  0  0  0  0  0  0  0
    6.0882   57.4088    0.5766 N   0  0  0  0  0  0  0  0  0  0  0  0
   10.8655   58.7120   -2.1369 H   0  0  0  0  0  0  0  0  0  0  0  0
    6.2125   56.0432    1.0761 C   0  0  0  0  0  0  0  0  0  0  0  0
    6.3699   54.9551    0.0012 C   0  0  0  0  0  0  0  0  0  0  0  0
    6.3590   53.5570    0.6253 C   0  0  0  0  0  0  0  0  0  0  0  0
    7.4354   53.4120    1.7143 C   0  0  0  0  0  0  0  0  0  0  0  0
    7.2755   54.5113    2.7811 C   0  0  0  0  0  0  0  0  0  0  0  0
    7.2709   55.9152    2.1769 C   0  0  0  0  0  0  0  0  0  0  0  0
    7.4029   52.0259    2.3964 C   0  0  0  0  0  0  0  0  0  0  0  0
    8.6872   51.1990    2.2799 C   0  0  0  0  0  0  0  0  0  0  0  0
    8.9054   50.6966    0.9176 C   0  0  0  0  0  0  0  0  0  0  0  0
    9.0752   50.3109   -0.1632 N   0  0  0  0  0  0  0  0  0  0  0  0
    3.5383   56.4416    1.6091 C   0  0  0  0  0  0  0  0  0  0  0  0
    3.6389   57.9159    1.2464 C   0  0  0  0  0  0  0  0  0  0  0  0
    3.4559   58.6831    2.4394 O   0  0  0  0  0  0  0  0  0  0  0  0
    4.1497   58.4573    3.0786 H   0  0  0  0  0  0  0  0  0  0  0  0
 26 25  1  0
 26 27  1  0
 26  1  1  0
  1  2  2  0
  2  3  1  0
  3  4  2  0
  4  5  1  0
  5  6  2  0
  6  7  1  0
  7  8  1  0
  8  9  1  0
  8 10  2  0
 10 11  1  0
 11 12  2  0
 12 13  1  0
 15 13  1  0
 15 16  1  0
 16 17  1  0
 17 18  1  0
 18 21  1  0
 21 22  1  0
 22 23  1  0
 23 24  3  0
 18 19  1  0
 19 20  1  0
 13  1  1  0
 20 15  1  0
 12  3  1  0
 11  6  1  0
 27 28  1  0
  7 14  1  0
M  END
> <minimizedAffinity>
-8.32536

> <CNNscore>
0.4613525271

> <CNNaffinity>
7.0582923889

> <CNN_VS>
3.2563610077

> <CNNaffinity_variance>
0.1262626499

$$$$



 28 31  0  0  0  0  0  0  0  0999 V2000
    8.8192   56.8625    0.1815 C   0  0  0  0  0  0  0  0  0  0  0  0
    8.4868   58.0643   -0.2737 N   0  0  0  0  0  0  0  0  0  0  0  0
    7.1481   58.1977   -0.0386 C   0  0  0  0  0  0  0  0  0  0  0  0
    6.2590   59.2600   -0.2836 C   0  0  0  0  0  0  0  0  0  0  0  0
    4.9383   59.2171    0.0721 N   0  0  0  0  0  0  0  0  0  0  0  0
    4.5599   58.0917    0.7005 C   0  0  0  0  0  0  0  0  0  0  0  0
    3.3215   57.8032    1.1991 N   0  0  0  0  0  0  0  0  0  0  0  0
    3.3633   56.5759    1.8048 C   0  0  0  0  0  0  0  0  0  0  0  0
    2.3288   55.9898    2.4222 F   0  0  0  0  0  0  0  0  0  0  0  0
    4.6303   56.0406    1.6970 C   0  0  0  0  0  0  0  0  0  0  0  0
    5.3688   57.0078    0.9724 C   0  0  0  0  0  0  0  0  0  0  0  0
    6.6725   57.0530    0.5710 C   0  0  0  0  0  0  0  0  0  0  0  0
    7.6982   56.1673    0.6344 N   0  0  0  0  0  0  0  0  0  0  0  0
    2.5284   58.3829    1.1336 H   0  0  0  0  0  0  0  0  0  0  0  0
    7.6316   54.7709    1.0531 C   0  0  0  0  0  0  0  0  0  0  0  0
    7.4138   54.5385    2.5574 C   0  0  0  0  0  0  0  0  0  0  0  0
    7.4917   53.0489    2.9027 C   0  0  0  0  0  0  0  0  0  0  0  0
    6.4993   52.2196    2.0704 C   0  0  0  0  0  0  0  0  0  0  0  0
    6.7188   52.4658    0.5660 C   0  0  0  0  0  0  0  0  0  0  0  0
    6.6577   53.9490    0.2019 C   0  0  0  0  0  0  0  0  0  0  0  0
    6.6027   50.7060    2.3635 C   0  0  0  0  0  0  0  0  0  0  0  0
    7.9249   50.2385    2.9800 C   0  0  0  0  0  0  0  0  0  0  0  0
    8.8555   49.7142    1.9725 C   0  0  0  0  0  0  0  0  0  0  0  0
    9.5931   49.2904    1.1838 N   0  0  0  0  0  0  0  0  0  0  0  0
   10.4099   55.0216   -0.4008 C   0  0  0  0  0  0  0  0  0  0  0  0
   10.2447   56.3980    0.2264 C   0  0  0  0  0  0  0  0  0  0  0  0
   10.9934   57.3362   -0.5512 O   0  0  0  0  0  0  0  0  0  0  0  0
   10.6518   57.3493   -1.4589 H   0  0  0  0  0  0  0  0  0  0  0  0
 26 25  1  0
 26 27  1  0
 26  1  1  0
  1  2  2  0
  2  3  1  0
  3  4  2  0
  4  5  1  0
  5  6  2  0
  6  7  1  0
  7  8  1  0
  8  9  1  0
  8 10  2  0
 10 11  1  0
 11 12  2  0
 12 13  1  0
 15 13  1  0
 15 16  1  0
 16 17  1  0
 17 18  1  0
 18 21  1  0
 21 22  1  0
 22 23  1  0
 23 24  3  0
 18 19  1  0
 19 20  1  0
 13  1  1  0
 20 15  1  0
 12  3  1  0
 11  6  1  0
 27 28  1  0
  7 14  1  0
M  END
> <minimizedAffinity>
-7.08875

> <CNNscore>
0.3688496649

> <CNNaffinity>
6.8640017509

> <CNN_VS>
2.5317847729

> <CNNaffinity_variance>
0.0424715094

$$$$



 28 31  0  0  0  0  0  0  0  0999 V2000
    9.3662   54.6875    0.8000 C   0  0  0  0  0  0  0  0  0  0  0  0
    8.6289   53.9912    1.6565 N   0  0  0  0  0  0  0  0  0  0  0  0
    7.5236   54.7534    1.9065 C   0  0  0  0  0  0  0  0  0  0  0  0
    6.3925   54.5216    2.7102 C   0  0  0  0  0  0  0  0  0  0  0  0
    5.3512   55.4053    2.7956 N   0  0  0  0  0  0  0  0  0  0  0  0
    5.4778   56.5015    2.0294 C   0  0  0  0  0  0  0  0  0  0  0  0
    4.5758   57.5177    1.8901 N   0  0  0  0  0  0  0  0  0  0  0  0
    5.0626   58.4198    0.9823 C   0  0  0  0  0  0  0  0  0  0  0  0
    4.4250   59.5297    0.5867 F   0  0  0  0  0  0  0  0  0  0  0  0
    6.2984   58.0091    0.5266 C   0  0  0  0  0  0  0  0  0  0  0  0
    6.5544   56.8015    1.2208 C   0  0  0  0  0  0  0  0  0  0  0  0
    7.6020   55.9275    1.1828 C   0  0  0  0  0  0  0  0  0  0  0  0
    8.8019   55.9382    0.5499 N   0  0  0  0  0  0  0  0  0  0  0  0
    3.7163   57.5897    2.3647 H   0  0  0  0  0  0  0  0  0  0  0  0
    9.3915   57.0414   -0.2018 C   0  0  0  0  0  0  0  0  0  0  0  0
   10.6097   56.6789   -1.0671 C   0  0  0  0  0  0  0  0  0  0  0  0
   11.2253   57.9275   -1.7044 C   0  0  0  0  0  0  0  0  0  0  0  0
   10.1894   58.7192   -2.5201 C   0  0  0  0  0  0  0  0  0  0  0  0
    8.9692   59.0697   -1.6480 C   0  0  0  0  0  0  0  0  0  0  0  0
    8.3471   57.8374   -0.9917 C   0  0  0  0  0  0  0  0  0  0  0  0
   10.7774   60.0139   -3.1245 C   0  0  0  0  0  0  0  0  0  0  0  0
   12.3066   60.0807   -3.1894 C   0  0  0  0  0  0  0  0  0  0  0  0
   12.8149   59.9068   -4.5559 C   0  0  0  0  0  0  0  0  0  0  0  0
   13.2135   59.7574   -5.6350 N   0  0  0  0  0  0  0  0  0  0  0  0
   11.5089   53.4633    1.2100 C   0  0  0  0  0  0  0  0  0  0  0  0
   10.6056   54.1185    0.1756 C   0  0  0  0  0  0  0  0  0  0  0  0
   10.1642   53.1088   -0.7360 O   0  0  0  0  0  0  0  0  0  0  0  0
    9.6664   52.4315   -0.2519 H   0  0  0  0  0  0  0  0  0  0  0  0
 26 25  1  0
 26 27  1  0
 26  1  1  0
  1  2  2  0
  2  3  1  0
  3  4  2  0
  4  5  1  0
  5  6  2  0
  6  7  1  0
  7  8  1  0
  8  9  1  0
  8 10  2  0
 10 11  1  0
 11 12  2  0
 12 13  1  0
 15 13  1  0
 15 16  1  0
 16 17  1  0
 17 18  1  0
 18 21  1  0
 21 22  1  0
 22 23  1  0
 23 24  3  0
 18 19  1  0
 19 20  1  0
 13  1  1  0
 20 15  1  0
 12  3  1  0
 11  6  1  0
 27 28  1  0
  7 14  1  0
M  END
> <minimizedAffinity>
-8.54671

> <CNNscore>
0.2811292112

> <CNNaffinity>
5.2426543236

> <CNN_VS>
1.4738632441

> <CNNaffinity_variance>
1.4254773855

$$$$
