


 17 17  0  0  0  0  0  0  0  0999 V2000
   53.6214    8.5213   31.7245 C   0  0  0  0  0  0  0  0  0  0  0  0
   53.0291    7.2888   32.1963 O   0  0  0  0  0  0  0  0  0  0  0  0
   54.1901    9.1545   32.9690 C   0  0  0  0  0  0  0  0  0  0  0  0
   53.8091   10.3496   33.4466 C   0  0  0  0  0  0  0  0  0  0  0  0
   52.8127   11.2375   32.7713 C   0  0  0  0  0  0  0  0  0  0  0  0
   53.3580   12.5522   32.7824 O   0  0  0  0  0  0  0  0  0  0  0  0
   52.5577   10.8320   31.3067 C   0  0  0  0  0  0  0  0  0  0  0  0
   51.3793   11.4666   30.8049 O   0  0  0  0  0  0  0  0  0  0  0  0
   52.4500    9.3201   31.1150 C   0  0  0  0  0  0  0  0  0  0  0  0
   53.7158    6.7323   32.5958 H   0  0  0  0  0  0  0  0  0  0  0  0
   54.1996   12.5573   32.3001 H   0  0  0  0  0  0  0  0  0  0  0  0
   50.6088   11.1639   31.3105 H   0  0  0  0  0  0  0  0  0  0  0  0
   54.7136    8.0196   30.7099 C   0  0  0  0  0  0  0  0  0  0  0  0
   56.5531    6.4539   29.9118 C   0  0  0  0  0  0  0  0  0  0  0  0
   55.2928    6.5887   30.7558 N   0  0  0  0  0  0  0  0  0  0  0  0
   54.2351    5.6655   30.1145 C   0  0  0  0  0  0  0  0  0  0  0  0
   55.5330    6.0750   32.1668 C   0  0  0  0  0  0  0  0  0  0  0  0
 14 15  1  0
 15 16  1  0
 15 17  1  0
 15 13  1  0
 13  1  1  0
  1  2  1  0
  1  3  1  0
  3  4  2  0
  4  5  1  0
  5  6  1  0
  5  7  1  0
  7  8  1  0
  7  9  1  0
  9  1  1  0
  2 10  1  0
  6 11  1  0
  8 12  1  0
M  CHG 1  15   1
M  END
> <minimizedAffinity>
-5.02822

> <CNNscore>
0.6046870351

> <CNNaffinity>
2.9865624905

> <CNN_VS>
1.8059356213

> <CNNaffinity_variance>
0.6344408989

$$$$



 17 17  0  0  0  0  0  0  0  0999 V2000
   53.0110   13.8649   33.8770 C   0  0  0  0  0  0  0  0  0  0  0  0
   52.0419   12.9288   34.4034 O   0  0  0  0  0  0  0  0  0  0  0  0
   54.0317   13.9943   34.9792 C   0  0  0  0  0  0  0  0  0  0  0  0
   54.3171   15.1447   35.6089 C   0  0  0  0  0  0  0  0  0  0  0  0
   53.7025   16.4621   35.2568 C   0  0  0  0  0  0  0  0  0  0  0  0
   54.7611   17.4126   35.2140 O   0  0  0  0  0  0  0  0  0  0  0  0
   53.0139   16.4427   33.8784 C   0  0  0  0  0  0  0  0  0  0  0  0
   52.1622   17.5801   33.7233 O   0  0  0  0  0  0  0  0  0  0  0  0
   52.2167   15.1640   33.6262 C   0  0  0  0  0  0  0  0  0  0  0  0
   52.4770   12.0813   34.5857 H   0  0  0  0  0  0  0  0  0  0  0  0
   55.4065   17.1477   34.5401 H   0  0  0  0  0  0  0  0  0  0  0  0
   51.4527   17.5452   34.3838 H   0  0  0  0  0  0  0  0  0  0  0  0
   53.5488   13.1290   32.5950 C   0  0  0  0  0  0  0  0  0  0  0  0
   54.4270   11.0604   33.7874 C   0  0  0  0  0  0  0  0  0  0  0  0
   53.7423   11.5979   32.5379 N   0  0  0  0  0  0  0  0  0  0  0  0
   54.6994   11.3193   31.3595 C   0  0  0  0  0  0  0  0  0  0  0  0
   52.4584   10.8329   32.2569 C   0  0  0  0  0  0  0  0  0  0  0  0
 14 15  1  0
 15 16  1  0
 15 17  1  0
 15 13  1  0
 13  1  1  0
  1  2  1  0
  1  3  1  0
  3  4  2  0
  4  5  1  0
  5  6  1  0
  5  7  1  0
  7  8  1  0
  7  9  1  0
  9  1  1  0
  2 10  1  0
  6 11  1  0
  8 12  1  0
M  CHG 1  15   1
M  END
> <minimizedAffinity>
-4.08385

> <CNNscore>
0.5974224210

> <CNNaffinity>
2.8402640820

> <CNN_VS>
1.6968374252

> <CNNaffinity_variance>
0.6949133277

$$$$



 17 17  0  0  0  0  0  0  0  0999 V2000
   54.6019    8.4584   31.5798 C   0  0  0  0  0  0  0  0  0  0  0  0
   55.9969    8.6471   31.9130 O   0  0  0  0  0  0  0  0  0  0  0  0
   54.4339    9.1953   30.2753 C   0  0  0  0  0  0  0  0  0  0  0  0
   53.6026   10.2344   30.0998 C   0  0  0  0  0  0  0  0  0  0  0  0
   52.6883   10.7584   31.1612 C   0  0  0  0  0  0  0  0  0  0  0  0
   51.4180   10.9563   30.5503 O   0  0  0  0  0  0  0  0  0  0  0  0
   52.5138    9.7703   32.3307 C   0  0  0  0  0  0  0  0  0  0  0  0
   51.9262   10.4219   33.4590 O   0  0  0  0  0  0  0  0  0  0  0  0
   53.8220    9.0995   32.7469 C   0  0  0  0  0  0  0  0  0  0  0  0
   56.5507    8.2639   31.2149 H   0  0  0  0  0  0  0  0  0  0  0  0
   51.0897   10.1110   30.2059 H   0  0  0  0  0  0  0  0  0  0  0  0
   52.5217   11.1187   33.7764 H   0  0  0  0  0  0  0  0  0  0  0  0
   54.4812    6.8956   31.4479 C   0  0  0  0  0  0  0  0  0  0  0  0
   56.8584    6.0046   31.6129 C   0  0  0  0  0  0  0  0  0  0  0  0
   55.5786    6.0321   30.7882 N   0  0  0  0  0  0  0  0  0  0  0  0
   55.9332    6.7177   29.4516 C   0  0  0  0  0  0  0  0  0  0  0  0
   55.1230    4.6200   30.4552 C   0  0  0  0  0  0  0  0  0  0  0  0
 14 15  1  0
 15 16  1  0
 15 17  1  0
 15 13  1  0
 13  1  1  0
  1  2  1  0
  1  3  1  0
  3  4  2  0
  4  5  1  0
  5  6  1  0
  5  7  1  0
  7  8  1  0
  7  9  1  0
  9  1  1  0
  2 10  1  0
  6 11  1  0
  8 12  1  0
M  CHG 1  15   1
M  END
> <minimizedAffinity>
-3.93359

> <CNNscore>
0.5547652245

> <CNNaffinity>
3.0103111267

> <CNN_VS>
1.6700159311

> <CNNaffinity_variance>
0.5931327939

$$$$



 17 17  0  0  0  0  0  0  0  0999 V2000
   53.5323   10.6881   32.8193 C   0  0  0  0  0  0  0  0  0  0  0  0
   53.1303    9.9535   33.9988 O   0  0  0  0  0  0  0  0  0  0  0  0
   53.8442   12.0695   33.3366 C   0  0  0  0  0  0  0  0  0  0  0  0
   53.2037   13.1820   32.9447 C   0  0  0  0  0  0  0  0  0  0  0  0
   52.1365   13.2037   31.8969 C   0  0  0  0  0  0  0  0  0  0  0  0
   52.4278   14.2979   31.0344 O   0  0  0  0  0  0  0  0  0  0  0  0
   52.1123   11.9152   31.0521 C   0  0  0  0  0  0  0  0  0  0  0  0
   50.8957   11.8223   30.3076 O   0  0  0  0  0  0  0  0  0  0  0  0
   52.3036   10.6496   31.8864 C   0  0  0  0  0  0  0  0  0  0  0  0
   53.8624    9.9375   34.6349 H   0  0  0  0  0  0  0  0  0  0  0  0
   53.2993   14.1671   30.6293 H   0  0  0  0  0  0  0  0  0  0  0  0
   50.1458   11.7619   30.9198 H   0  0  0  0  0  0  0  0  0  0  0  0
   54.7965    9.8933   32.3252 C   0  0  0  0  0  0  0  0  0  0  0  0
   53.3289    7.8799   31.8108 C   0  0  0  0  0  0  0  0  0  0  0  0
   54.7530    8.3833   32.0039 N   0  0  0  0  0  0  0  0  0  0  0  0
   55.3115    7.6537   33.2441 C   0  0  0  0  0  0  0  0  0  0  0  0
   55.6279    7.9872   30.8249 C   0  0  0  0  0  0  0  0  0  0  0  0
 14 15  1  0
 15 16  1  0
 15 17  1  0
 15 13  1  0
 13  1  1  0
  1  2  1  0
  1  3  1  0
  3  4  2  0
  4  5  1  0
  5  6  1  0
  5  7  1  0
  7  8  1  0
  7  9  1  0
  9  1  1  0
  2 10  1  0
  6 11  1  0
  8 12  1  0
M  CHG 1  15   1
M  END
> <minimizedAffinity>
-4.52712

> <CNNscore>
0.5392265320

> <CNNaffinity>
3.0254805088

> <CNN_VS>
1.6314194202

> <CNNaffinity_variance>
0.5419677496

$$$$



 17 17  0  0  0  0  0  0  0  0999 V2000
   53.6798    9.4517   32.3798 C   0  0  0  0  0  0  0  0  0  0  0  0
   53.6117    9.5998   33.8171 O   0  0  0  0  0  0  0  0  0  0  0  0
   54.8764   10.2784   31.9825 C   0  0  0  0  0  0  0  0  0  0  0  0
   54.8195   11.3374   31.1597 C   0  0  0  0  0  0  0  0  0  0  0  0
   53.5693   11.7985   30.4805 C   0  0  0  0  0  0  0  0  0  0  0  0
   53.9083   12.0536   29.1218 O   0  0  0  0  0  0  0  0  0  0  0  0
   52.4548   10.7347   30.5093 C   0  0  0  0  0  0  0  0  0  0  0  0
   51.1941   11.3145   30.1666 O   0  0  0  0  0  0  0  0  0  0  0  0
   52.3445   10.0208   31.8556 C   0  0  0  0  0  0  0  0  0  0  0  0
   54.4273    9.2586   34.2163 H   0  0  0  0  0  0  0  0  0  0  0  0
   54.2367   11.2381   28.7120 H   0  0  0  0  0  0  0  0  0  0  0  0
   50.9536   11.9804   30.8296 H   0  0  0  0  0  0  0  0  0  0  0  0
   53.8871    7.9033   32.1963 C   0  0  0  0  0  0  0  0  0  0  0  0
   56.3980    8.0665   32.5716 C   0  0  0  0  0  0  0  0  0  0  0  0
   55.1659    7.1766   32.6668 N   0  0  0  0  0  0  0  0  0  0  0  0
   55.3932    6.0070   31.6856 C   0  0  0  0  0  0  0  0  0  0  0  0
   55.0452    6.5722   34.0570 C   0  0  0  0  0  0  0  0  0  0  0  0
 14 15  1  0
 15 16  1  0
 15 17  1  0
 15 13  1  0
 13  1  1  0
  1  2  1  0
  1  3  1  0
  3  4  2  0
  4  5  1  0
  5  6  1  0
  5  7  1  0
  7  8  1  0
  7  9  1  0
  9  1  1  0
  2 10  1  0
  6 11  1  0
  8 12  1  0
M  CHG 1  15   1
M  END
> <minimizedAffinity>
-4.57810

> <CNNscore>
0.5341798663

> <CNNaffinity>
2.7499568462

> <CNN_VS>
1.4689716101

> <CNNaffinity_variance>
0.8964694142

$$$$



 17 17  0  0  0  0  0  0  0  0999 V2000
   48.4047    4.3714   20.5842 C   0  0  0  0  0  0  0  0  0  0  0  0
   48.4352    3.4484   19.4708 O   0  0  0  0  0  0  0  0  0  0  0  0
   47.1735    3.9722   21.3575 C   0  0  0  0  0  0  0  0  0  0  0  0
   46.1259    4.7826   21.5748 C   0  0  0  0  0  0  0  0  0  0  0  0
   46.0697    6.2094   21.1294 C   0  0  0  0  0  0  0  0  0  0  0  0
   45.5765    6.9657   22.2297 O   0  0  0  0  0  0  0  0  0  0  0  0
   47.4555    6.7628   20.7447 C   0  0  0  0  0  0  0  0  0  0  0  0
   47.3264    7.9854   20.0157 O   0  0  0  0  0  0  0  0  0  0  0  0
   48.2937    5.7699   19.9410 C   0  0  0  0  0  0  0  0  0  0  0  0
   48.5049    2.5406   19.8053 H   0  0  0  0  0  0  0  0  0  0  0  0
   46.1781    6.8686   22.9844 H   0  0  0  0  0  0  0  0  0  0  0  0
   46.8584    7.8175   19.1829 H   0  0  0  0  0  0  0  0  0  0  0  0
   49.7536    4.0633   21.3322 C   0  0  0  0  0  0  0  0  0  0  0  0
   52.2752    3.8240   21.5705 C   0  0  0  0  0  0  0  0  0  0  0  0
   51.1347    4.3135   20.6880 N   0  0  0  0  0  0  0  0  0  0  0  0
   51.2954    5.8443   20.5732 C   0  0  0  0  0  0  0  0  0  0  0  0
   51.2614    3.7475   19.2823 C   0  0  0  0  0  0  0  0  0  0  0  0
 14 15  1  0
 15 16  1  0
 15 17  1  0
 15 13  1  0
 13  1  1  0
  1  2  1  0
  1  3  1  0
  3  4  2  0
  4  5  1  0
  5  6  1  0
  5  7  1  0
  7  8  1  0
  7  9  1  0
  9  1  1  0
  2 10  1  0
  6 11  1  0
  8 12  1  0
M  CHG 1  15   1
M  END
> <minimizedAffinity>
-5.75294

> <CNNscore>
0.5270290375

> <CNNaffinity>
3.4507770538

> <CNN_VS>
1.8186596632

> <CNNaffinity_variance>
0.6219855547

$$$$



 17 17  0  0  0  0  0  0  0  0999 V2000
   53.8360   10.6442   31.1772 C   0  0  0  0  0  0  0  0  0  0  0  0
   55.2000   10.7152   30.7009 O   0  0  0  0  0  0  0  0  0  0  0  0
   53.0386   10.2757   29.9518 C   0  0  0  0  0  0  0  0  0  0  0  0
   52.0670   11.0397   29.4286 C   0  0  0  0  0  0  0  0  0  0  0  0
   51.6065   12.3296   30.0297 C   0  0  0  0  0  0  0  0  0  0  0  0
   50.1834   12.3043   30.0197 O   0  0  0  0  0  0  0  0  0  0  0  0
   52.0769   12.5030   31.4869 C   0  0  0  0  0  0  0  0  0  0  0  0
   51.9190   13.8589   31.9105 O   0  0  0  0  0  0  0  0  0  0  0  0
   53.5228   12.0601   31.7051 C   0  0  0  0  0  0  0  0  0  0  0  0
   55.4658    9.8503   30.3512 H   0  0  0  0  0  0  0  0  0  0  0  0
   49.8697   11.5527   30.5465 H   0  0  0  0  0  0  0  0  0  0  0  0
   52.4836   14.4341   31.3707 H   0  0  0  0  0  0  0  0  0  0  0  0
   53.9015    9.5051   32.2599 C   0  0  0  0  0  0  0  0  0  0  0  0
   55.5223    8.1194   30.8726 C   0  0  0  0  0  0  0  0  0  0  0  0
   54.4425    8.0931   31.9460 N   0  0  0  0  0  0  0  0  0  0  0  0
   53.2617    7.2900   31.3603 C   0  0  0  0  0  0  0  0  0  0  0  0
   54.9249    7.3396   33.1757 C   0  0  0  0  0  0  0  0  0  0  0  0
 14 15  1  0
 15 16  1  0
 15 17  1  0
 15 13  1  0
 13  1  1  0
  1  2  1  0
  1  3  1  0
  3  4  2  0
  4  5  1  0
  5  6  1  0
  5  7  1  0
  7  8  1  0
  7  9  1  0
  9  1  1  0
  2 10  1  0
  6 11  1  0
  8 12  1  0
M  CHG 1  15   1
M  END
> <minimizedAffinity>
-4.74339

> <CNNscore>
0.4992610812

> <CNNaffinity>
2.6758975983

> <CNN_VS>
1.3359714746

> <CNNaffinity_variance>
0.9652002454

$$$$



 17 17  0  0  0  0  0  0  0  0999 V2000
   53.2400    9.8395   32.4301 C   0  0  0  0  0  0  0  0  0  0  0  0
   51.9861   10.2070   33.0507 O   0  0  0  0  0  0  0  0  0  0  0  0
   52.9038    8.6102   31.6246 C   0  0  0  0  0  0  0  0  0  0  0  0
   53.4630    7.4059   31.8208 C   0  0  0  0  0  0  0  0  0  0  0  0
   54.5387    7.1406   32.8255 C   0  0  0  0  0  0  0  0  0  0  0  0
   55.5308    6.3579   32.1703 O   0  0  0  0  0  0  0  0  0  0  0  0
   55.2024    8.4344   33.3356 C   0  0  0  0  0  0  0  0  0  0  0  0
   55.9673    8.1783   34.5156 O   0  0  0  0  0  0  0  0  0  0  0  0
   54.1992    9.5548   33.6051 C   0  0  0  0  0  0  0  0  0  0  0  0
   51.3299   10.4015   32.3634 H   0  0  0  0  0  0  0  0  0  0  0  0
   55.8857    6.8522   31.4149 H   0  0  0  0  0  0  0  0  0  0  0  0
   55.3776    7.8759   35.2239 H   0  0  0  0  0  0  0  0  0  0  0  0
   53.5806   11.1008   31.5541 C   0  0  0  0  0  0  0  0  0  0  0  0
   54.5003   13.4642   31.3530 C   0  0  0  0  0  0  0  0  0  0  0  0
   53.5764   12.5345   32.1281 N   0  0  0  0  0  0  0  0  0  0  0  0
   54.1510   12.4374   33.5574 C   0  0  0  0  0  0  0  0  0  0  0  0
   52.1854   13.1369   32.2492 C   0  0  0  0  0  0  0  0  0  0  0  0
 14 15  1  0
 15 16  1  0
 15 17  1  0
 15 13  1  0
 13  1  1  0
  1  2  1  0
  1  3  1  0
  3  4  2  0
  4  5  1  0
  5  6  1  0
  5  7  1  0
  7  8  1  0
  7  9  1  0
  9  1  1  0
  2 10  1  0
  6 11  1  0
  8 12  1  0
M  CHG 1  15   1
M  END
> <minimizedAffinity>
-4.49805

> <CNNscore>
0.4892995954

> <CNNaffinity>
2.7442023754

> <CNN_VS>
1.3427370787

> <CNNaffinity_variance>
0.9524870515

$$$$



 17 17  0  0  0  0  0  0  0  0999 V2000
   52.9737   10.5915   32.4378 C   0  0  0  0  0  0  0  0  0  0  0  0
   51.7802    9.9706   32.9692 O   0  0  0  0  0  0  0  0  0  0  0  0
   52.8916   12.0171   32.9215 C   0  0  0  0  0  0  0  0  0  0  0  0
   52.8313   13.0846   32.1100 C   0  0  0  0  0  0  0  0  0  0  0  0
   52.8993   13.0021   30.6182 C   0  0  0  0  0  0  0  0  0  0  0  0
   53.8082   14.0106   30.1905 O   0  0  0  0  0  0  0  0  0  0  0  0
   53.4227   11.6390   30.1255 C   0  0  0  0  0  0  0  0  0  0  0  0
   53.1583   11.4705   28.7310 O   0  0  0  0  0  0  0  0  0  0  0  0
   52.8448   10.4592   30.9056 C   0  0  0  0  0  0  0  0  0  0  0  0
   51.7949   10.0183   33.9379 H   0  0  0  0  0  0  0  0  0  0  0  0
   54.6810   13.8456   30.5802 H   0  0  0  0  0  0  0  0  0  0  0  0
   52.1998   11.4654   28.5820 H   0  0  0  0  0  0  0  0  0  0  0  0
   54.1291    9.7587   33.1054 C   0  0  0  0  0  0  0  0  0  0  0  0
   55.1392    7.5051   33.7163 C   0  0  0  0  0  0  0  0  0  0  0  0
   54.5334    8.3541   32.6067 N   0  0  0  0  0  0  0  0  0  0  0  0
   55.6462    8.5634   31.5578 C   0  0  0  0  0  0  0  0  0  0  0  0
   53.4050    7.6070   31.9132 C   0  0  0  0  0  0  0  0  0  0  0  0
 14 15  1  0
 15 16  1  0
 15 17  1  0
 15 13  1  0
 13  1  1  0
  1  2  1  0
  1  3  1  0
  3  4  2  0
  4  5  1  0
  5  6  1  0
  5  7  1  0
  7  8  1  0
  7  9  1  0
  9  1  1  0
  2 10  1  0
  6 11  1  0
  8 12  1  0
M  CHG 1  15   1
M  END
> <minimizedAffinity>
-4.51769

> <CNNscore>
0.4791516960

> <CNNaffinity>
2.7914364338

> <CNN_VS>
1.3375215530

> <CNNaffinity_variance>
0.9025168419

$$$$
