


 26 26  0  0  0  0  0  0  0  0999 V2000
   -1.0099   35.1907   99.3396 C   0  0  0  0  0  0  0  0  0  0  0  0
   -0.7671   34.3230   98.2488 C   0  0  0  0  0  0  0  0  0  0  0  0
   -1.7926   33.9192   97.3918 C   0  0  0  0  0  0  0  0  0  0  0  0
   -1.3935   32.8305   96.1173 Cl  0  0  0  0  0  0  0  0  0  0  0  0
   -3.0723   34.3965   97.6311 C   0  0  0  0  0  0  0  0  0  0  0  0
   -3.3514   35.2444   98.7165 C   0  0  0  0  0  0  0  0  0  0  0  0
   -2.3297   35.6448   99.5971 C   0  0  0  0  0  0  0  0  0  0  0  0
   -4.1651   34.0655   96.7433 N   0  0  0  0  0  0  0  0  0  0  0  0
   -4.2654   34.7278   95.7038 O   0  0  0  0  0  0  0  0  0  0  0  0
   -4.9613   33.2016   97.1372 O   0  0  0  0  0  0  0  0  0  0  0  0
    0.1836   35.5824  100.1982 C   0  0  0  0  0  0  0  0  0  0  0  0
    0.0334   35.2697  101.7163 C   0  0  0  0  0  0  0  0  0  0  0  0
    0.4595   36.4301  102.5215 N   0  0  0  0  0  0  0  0  0  0  0  0
    1.4327   36.6512  102.3108 H   0  0  0  0  0  0  0  0  0  0  0  0
    0.3683   36.2079  103.5128 H   0  0  0  0  0  0  0  0  0  0  0  0
    0.8940   34.0012  102.0216 C   0  0  0  0  0  0  0  0  0  0  0  0
    3.2920   34.5552  101.7252 C   0  0  0  0  0  0  0  0  0  0  0  0
    2.2263   34.2309  102.7786 N   0  0  0  0  0  0  0  0  0  0  0  0
    2.6567   32.9681  103.5156 C   0  0  0  0  0  0  0  0  0  0  0  0
    2.1635   35.3985  103.7501 C   0  0  0  0  0  0  0  0  0  0  0  0
   -2.6285   36.5634  100.7732 C   0  0  0  0  0  0  0  0  0  0  0  0
   -2.2705   38.0446  100.6208 C   0  0  0  0  0  0  0  0  0  0  0  0
   -1.7650   38.6823  101.8881 C   0  0  0  0  0  0  0  0  0  0  0  0
   -2.0917   38.3538  103.0165 O   0  0  0  0  0  0  0  0  0  0  0  0
   -0.8873   39.6890  101.7184 O   0  0  0  0  0  0  0  0  0  0  0  0
   -0.6316   39.9470  100.8546 H   0  0  0  0  0  0  0  0  0  0  0  0
 17 18  1  0
 18 19  1  0
 18 20  1  0
 18 16  1  0
 16 12  1  0
 12 13  1  0
 12 11  1  0
 11  1  1  0
  1  2  2  0
  2  3  1  0
  3  4  1  0
  3  5  2  0
  5  8  1  0
  8  9  2  0
  8 10  1  0
  5  6  1  0
  6  7  2  0
  7 21  1  0
 21 22  1  0
 22 23  1  0
 23 24  2  0
 23 25  1  0
  7  1  1  0
 13 14  1  0
 13 15  1  0
 25 26  1  0
M  CHG 1   8   1
M  CHG 1  10  -1
M  CHG 1  18   1
M  END
> <minimizedAffinity>
-6.44294

> <CNNscore>
0.6858997345

> <CNNaffinity>
6.4290804863

> <CNN_VS>
4.4097046852

> <CNNaffinity_variance>
0.3608881235

$$$$



 26 26  0  0  0  0  0  0  0  0999 V2000
   -2.9086   35.6062  100.0004 C   0  0  0  0  0  0  0  0  0  0  0  0
   -3.8360   35.7133   98.9374 C   0  0  0  0  0  0  0  0  0  0  0  0
   -5.2129   35.6381   99.1563 C   0  0  0  0  0  0  0  0  0  0  0  0
   -6.2519   35.7428   97.7857 Cl  0  0  0  0  0  0  0  0  0  0  0  0
   -5.6606   35.4587  100.4563 C   0  0  0  0  0  0  0  0  0  0  0  0
   -4.7661   35.3296  101.5325 C   0  0  0  0  0  0  0  0  0  0  0  0
   -3.3760   35.3868  101.3224 C   0  0  0  0  0  0  0  0  0  0  0  0
   -7.0753   35.4354  100.7567 N   0  0  0  0  0  0  0  0  0  0  0  0
   -7.7539   34.5642  100.2003 O   0  0  0  0  0  0  0  0  0  0  0  0
   -7.5063   36.3431  101.4817 O   0  0  0  0  0  0  0  0  0  0  0  0
   -1.4320   35.7218   99.6520 C   0  0  0  0  0  0  0  0  0  0  0  0
   -0.5077   36.1407  100.8331 C   0  0  0  0  0  0  0  0  0  0  0  0
   -0.2393   37.5905  100.7825 N   0  0  0  0  0  0  0  0  0  0  0  0
    0.2091   37.8225   99.8962 H   0  0  0  0  0  0  0  0  0  0  0  0
    0.3766   37.8494  101.5532 H   0  0  0  0  0  0  0  0  0  0  0  0
    0.8058   35.3009  100.7219 C   0  0  0  0  0  0  0  0  0  0  0  0
    2.9979   34.7874  101.7593 C   0  0  0  0  0  0  0  0  0  0  0  0
    1.4985   34.9147  102.0530 N   0  0  0  0  0  0  0  0  0  0  0  0
    0.9972   33.5654  102.5544 C   0  0  0  0  0  0  0  0  0  0  0  0
    1.3257   35.9646  103.1388 C   0  0  0  0  0  0  0  0  0  0  0  0
   -2.4046   35.2479  102.4858 C   0  0  0  0  0  0  0  0  0  0  0  0
   -2.4207   33.9298  103.2654 C   0  0  0  0  0  0  0  0  0  0  0  0
   -2.8370   34.0790  104.7050 C   0  0  0  0  0  0  0  0  0  0  0  0
   -3.9897   34.1538  105.0971 O   0  0  0  0  0  0  0  0  0  0  0  0
   -1.8289   34.1306  105.5960 O   0  0  0  0  0  0  0  0  0  0  0  0
   -0.9409   34.0738  105.3024 H   0  0  0  0  0  0  0  0  0  0  0  0
 17 18  1  0
 18 19  1  0
 18 20  1  0
 18 16  1  0
 16 12  1  0
 12 13  1  0
 12 11  1  0
 11  1  1  0
  1  2  2  0
  2  3  1  0
  3  4  1  0
  3  5  2  0
  5  8  1  0
  8  9  2  0
  8 10  1  0
  5  6  1  0
  6  7  2  0
  7 21  1  0
 21 22  1  0
 22 23  1  0
 23 24  2  0
 23 25  1  0
  7  1  1  0
 13 14  1  0
 13 15  1  0
 25 26  1  0
M  CHG 1   8   1
M  CHG 1  10  -1
M  CHG 1  18   1
M  END
> <minimizedAffinity>
-8.26299

> <CNNscore>
0.2801302671

> <CNNaffinity>
5.1833357811

> <CNN_VS>
1.4520092010

> <CNNaffinity_variance>
0.5505897403

$$$$



 26 26  0  0  0  0  0  0  0  0999 V2000
   -2.6902   35.8020   99.8855 C   0  0  0  0  0  0  0  0  0  0  0  0
   -3.6769   35.9385   98.8807 C   0  0  0  0  0  0  0  0  0  0  0  0
   -5.0335   35.7585   99.1572 C   0  0  0  0  0  0  0  0  0  0  0  0
   -6.1474   35.9113   97.8515 Cl  0  0  0  0  0  0  0  0  0  0  0  0
   -5.4010   35.4434  100.4565 C   0  0  0  0  0  0  0  0  0  0  0  0
   -4.4451   35.2818  101.4740 C   0  0  0  0  0  0  0  0  0  0  0  0
   -3.0738   35.4440  101.2042 C   0  0  0  0  0  0  0  0  0  0  0  0
   -6.7941   35.3058  100.8204 N   0  0  0  0  0  0  0  0  0  0  0  0
   -7.4211   34.3743  100.3024 O   0  0  0  0  0  0  0  0  0  0  0  0
   -7.2673   36.1831  101.5565 O   0  0  0  0  0  0  0  0  0  0  0  0
   -1.2433   36.0393   99.4788 C   0  0  0  0  0  0  0  0  0  0  0  0
   -0.5701   34.8571   98.7209 C   0  0  0  0  0  0  0  0  0  0  0  0
    0.8620   34.7783   99.0663 N   0  0  0  0  0  0  0  0  0  0  0  0
    1.3211   35.6537   98.8147 H   0  0  0  0  0  0  0  0  0  0  0  0
    1.2933   34.0088   98.5542 H   0  0  0  0  0  0  0  0  0  0  0  0
   -0.7884   35.0949   97.1916 C   0  0  0  0  0  0  0  0  0  0  0  0
   -1.6555   34.3792   94.9823 C   0  0  0  0  0  0  0  0  0  0  0  0
   -1.1857   33.8589   96.3458 N   0  0  0  0  0  0  0  0  0  0  0  0
   -2.3443   33.1085   96.9920 C   0  0  0  0  0  0  0  0  0  0  0  0
   -0.0254   32.9067   96.1047 C   0  0  0  0  0  0  0  0  0  0  0  0
   -2.0360   35.2702  102.3039 C   0  0  0  0  0  0  0  0  0  0  0  0
   -2.1828   34.0575  103.2276 C   0  0  0  0  0  0  0  0  0  0  0  0
   -2.7870   34.3829  104.5682 C   0  0  0  0  0  0  0  0  0  0  0  0
   -2.7346   35.4722  105.1147 O   0  0  0  0  0  0  0  0  0  0  0  0
   -3.4247   33.3654  105.1772 O   0  0  0  0  0  0  0  0  0  0  0  0
   -3.4692   32.5258  104.7636 H   0  0  0  0  0  0  0  0  0  0  0  0
 17 18  1  0
 18 19  1  0
 18 20  1  0
 18 16  1  0
 16 12  1  0
 12 13  1  0
 12 11  1  0
 11  1  1  0
  1  2  2  0
  2  3  1  0
  3  4  1  0
  3  5  2  0
  5  8  1  0
  8  9  2  0
  8 10  1  0
  5  6  1  0
  6  7  2  0
  7 21  1  0
 21 22  1  0
 22 23  1  0
 23 24  2  0
 23 25  1  0
  7  1  1  0
 13 14  1  0
 13 15  1  0
 25 26  1  0
M  CHG 1   8   1
M  CHG 1  10  -1
M  CHG 1  18   1
M  END
> <minimizedAffinity>
-8.00589

> <CNNscore>
0.2701835632

> <CNNaffinity>
4.8109240532

> <CNN_VS>
1.2998325825

> <CNNaffinity_variance>
0.6349572539

$$$$



 26 26  0  0  0  0  0  0  0  0999 V2000
   -2.8577   35.5547   99.3792 C   0  0  0  0  0  0  0  0  0  0  0  0
   -3.8880   35.2329   98.4646 C   0  0  0  0  0  0  0  0  0  0  0  0
   -5.2163   35.1013   98.8742 C   0  0  0  0  0  0  0  0  0  0  0  0
   -6.3856   34.6698   97.6845 Cl  0  0  0  0  0  0  0  0  0  0  0  0
   -5.5111   35.3000  100.2144 C   0  0  0  0  0  0  0  0  0  0  0  0
   -4.5091   35.6020  101.1524 C   0  0  0  0  0  0  0  0  0  0  0  0
   -3.1647   35.7207  100.7548 C   0  0  0  0  0  0  0  0  0  0  0  0
   -6.8757   35.2396  100.6902 N   0  0  0  0  0  0  0  0  0  0  0  0
   -7.2224   36.0947  101.5134 O   0  0  0  0  0  0  0  0  0  0  0  0
   -7.5612   34.2849  100.2979 O   0  0  0  0  0  0  0  0  0  0  0  0
   -1.4487   35.6930   98.8219 C   0  0  0  0  0  0  0  0  0  0  0  0
   -0.9321   34.4593   98.0244 C   0  0  0  0  0  0  0  0  0  0  0  0
    0.5043   34.2470   98.2855 N   0  0  0  0  0  0  0  0  0  0  0  0
    1.0266   35.0783   98.0088 H   0  0  0  0  0  0  0  0  0  0  0  0
    0.8326   33.4446   97.7481 H   0  0  0  0  0  0  0  0  0  0  0  0
   -1.2158   34.7264   96.5108 C   0  0  0  0  0  0  0  0  0  0  0  0
   -0.5386   32.9644   94.9039 C   0  0  0  0  0  0  0  0  0  0  0  0
   -1.7358   33.5270   95.6789 N   0  0  0  0  0  0  0  0  0  0  0  0
   -2.7838   33.9803   94.6692 C   0  0  0  0  0  0  0  0  0  0  0  0
   -2.2994   32.4076   96.5393 C   0  0  0  0  0  0  0  0  0  0  0  0
   -2.0772   36.0482  101.7681 C   0  0  0  0  0  0  0  0  0  0  0  0
   -1.6249   37.5076  101.8712 C   0  0  0  0  0  0  0  0  0  0  0  0
   -1.0560   37.8751  103.2164 C   0  0  0  0  0  0  0  0  0  0  0  0
    0.1194   38.1139  103.4387 O   0  0  0  0  0  0  0  0  0  0  0  0
   -1.9466   37.9329  104.2245 O   0  0  0  0  0  0  0  0  0  0  0  0
   -2.8512   37.7508  104.0615 H   0  0  0  0  0  0  0  0  0  0  0  0
 17 18  1  0
 18 19  1  0
 18 20  1  0
 18 16  1  0
 16 12  1  0
 12 13  1  0
 12 11  1  0
 11  1  1  0
  1  2  2  0
  2  3  1  0
  3  4  1  0
  3  5  2  0
  5  8  1  0
  8  9  2  0
  8 10  1  0
  5  6  1  0
  6  7  2  0
  7 21  1  0
 21 22  1  0
 22 23  1  0
 23 24  2  0
 23 25  1  0
  7  1  1  0
 13 14  1  0
 13 15  1  0
 25 26  1  0
M  CHG 1   8   1
M  CHG 1  10  -1
M  CHG 1  18   1
M  END
> <minimizedAffinity>
-7.43655

> <CNNscore>
0.2451275140

> <CNNaffinity>
4.7546801567

> <CNN_VS>
1.1655029058

> <CNNaffinity_variance>
0.5988461375

$$$$



 26 26  0  0  0  0  0  0  0  0999 V2000
   -3.7652   34.7496   97.4272 C   0  0  0  0  0  0  0  0  0  0  0  0
   -2.5355   35.2102   97.9538 C   0  0  0  0  0  0  0  0  0  0  0  0
   -2.4111   35.6030   99.2878 C   0  0  0  0  0  0  0  0  0  0  0  0
   -0.8770   36.1835   99.8154 Cl  0  0  0  0  0  0  0  0  0  0  0  0
   -3.5322   35.5271  100.1001 C   0  0  0  0  0  0  0  0  0  0  0  0
   -4.7733   35.0923   99.6044 C   0  0  0  0  0  0  0  0  0  0  0  0
   -4.9153   34.7098   98.2579 C   0  0  0  0  0  0  0  0  0  0  0  0
   -3.4534   35.8599  101.5055 N   0  0  0  0  0  0  0  0  0  0  0  0
   -3.8646   35.0133  102.3076 O   0  0  0  0  0  0  0  0  0  0  0  0
   -3.0582   37.0000  101.7872 O   0  0  0  0  0  0  0  0  0  0  0  0
   -3.7838   34.3283   95.9653 C   0  0  0  0  0  0  0  0  0  0  0  0
   -2.3828   34.2144   95.2952 C   0  0  0  0  0  0  0  0  0  0  0  0
   -2.2230   35.2579   94.2645 N   0  0  0  0  0  0  0  0  0  0  0  0
   -2.9514   35.1525   93.5583 H   0  0  0  0  0  0  0  0  0  0  0  0
   -1.3073   35.1644   93.8252 H   0  0  0  0  0  0  0  0  0  0  0  0
   -2.2663   32.7772   94.6920 C   0  0  0  0  0  0  0  0  0  0  0  0
   -0.9268   32.0849   96.6597 C   0  0  0  0  0  0  0  0  0  0  0  0
   -1.0465   31.9327   95.1388 N   0  0  0  0  0  0  0  0  0  0  0  0
    0.2377   32.4572   94.5071 C   0  0  0  0  0  0  0  0  0  0  0  0
   -1.2047   30.4523   94.8315 C   0  0  0  0  0  0  0  0  0  0  0  0
   -6.2578   34.2379   97.7180 C   0  0  0  0  0  0  0  0  0  0  0  0
   -7.3770   35.2769   97.6030 C   0  0  0  0  0  0  0  0  0  0  0  0
   -8.7544   34.7172   97.8431 C   0  0  0  0  0  0  0  0  0  0  0  0
   -9.0346   33.8839   98.6887 O   0  0  0  0  0  0  0  0  0  0  0  0
   -9.7223   35.1993   97.0409 O   0  0  0  0  0  0  0  0  0  0  0  0
   -9.5147   35.8396   96.3890 H   0  0  0  0  0  0  0  0  0  0  0  0
 17 18  1  0
 18 19  1  0
 18 20  1  0
 18 16  1  0
 16 12  1  0
 12 13  1  0
 12 11  1  0
 11  1  1  0
  1  2  2  0
  2  3  1  0
  3  4  1  0
  3  5  2  0
  5  8  1  0
  8  9  2  0
  8 10  1  0
  5  6  1  0
  6  7  2  0
  7 21  1  0
 21 22  1  0
 22 23  1  0
 23 24  2  0
 23 25  1  0
  7  1  1  0
 13 14  1  0
 13 15  1  0
 25 26  1  0
M  CHG 1   8   1
M  CHG 1  10  -1
M  CHG 1  18   1
M  END
> <minimizedAffinity>
-6.97982

> <CNNscore>
0.1802349687

> <CNNaffinity>
4.4135632515

> <CNN_VS>
0.7954784632

> <CNNaffinity_variance>
0.7615809441

$$$$



 26 26  0  0  0  0  0  0  0  0999 V2000
   -4.4681   34.7063   97.3237 C   0  0  0  0  0  0  0  0  0  0  0  0
   -5.8507   34.5165   97.5560 C   0  0  0  0  0  0  0  0  0  0  0  0
   -6.4265   34.7754   98.8013 C   0  0  0  0  0  0  0  0  0  0  0  0
   -8.1130   34.4742   98.9857 Cl  0  0  0  0  0  0  0  0  0  0  0  0
   -5.6052   35.2340   99.8200 C   0  0  0  0  0  0  0  0  0  0  0  0
   -4.2248   35.4153   99.6285 C   0  0  0  0  0  0  0  0  0  0  0  0
   -3.6300   35.1417   98.3831 C   0  0  0  0  0  0  0  0  0  0  0  0
   -6.1514   35.5797  101.1139 N   0  0  0  0  0  0  0  0  0  0  0  0
   -7.1743   36.2745  101.1249 O   0  0  0  0  0  0  0  0  0  0  0  0
   -5.5022   35.2220  102.1068 O   0  0  0  0  0  0  0  0  0  0  0  0
   -3.9493   34.4124   95.9238 C   0  0  0  0  0  0  0  0  0  0  0  0
   -3.8637   35.6484   94.9805 C   0  0  0  0  0  0  0  0  0  0  0  0
   -4.3883   36.8477   95.6608 N   0  0  0  0  0  0  0  0  0  0  0  0
   -5.3589   36.6882   95.9310 H   0  0  0  0  0  0  0  0  0  0  0  0
   -4.3383   37.6465   95.0285 H   0  0  0  0  0  0  0  0  0  0  0  0
   -4.6754   35.3098   93.6883 C   0  0  0  0  0  0  0  0  0  0  0  0
   -4.4503   34.0918   91.5410 C   0  0  0  0  0  0  0  0  0  0  0  0
   -3.8775   35.2536   92.3612 N   0  0  0  0  0  0  0  0  0  0  0  0
   -2.4041   34.9668   92.6252 C   0  0  0  0  0  0  0  0  0  0  0  0
   -4.0155   36.5200   91.5315 C   0  0  0  0  0  0  0  0  0  0  0  0
   -2.1354   35.3375   98.1722 C   0  0  0  0  0  0  0  0  0  0  0  0
   -1.2426   35.3494   99.4163 C   0  0  0  0  0  0  0  0  0  0  0  0
    0.2299   35.4213   99.1084 C   0  0  0  0  0  0  0  0  0  0  0  0
    1.1137   34.9336   99.7932 O   0  0  0  0  0  0  0  0  0  0  0  0
    0.5532   36.0842   97.9820 O   0  0  0  0  0  0  0  0  0  0  0  0
   -0.1202   36.4616   97.4508 H   0  0  0  0  0  0  0  0  0  0  0  0
 17 18  1  0
 18 19  1  0
 18 20  1  0
 18 16  1  0
 16 12  1  0
 12 13  1  0
 12 11  1  0
 11  1  1  0
  1  2  2  0
  2  3  1  0
  3  4  1  0
  3  5  2  0
  5  8  1  0
  8  9  2  0
  8 10  1  0
  5  6  1  0
  6  7  2  0
  7 21  1  0
 21 22  1  0
 22 23  1  0
 23 24  2  0
 23 25  1  0
  7  1  1  0
 13 14  1  0
 13 15  1  0
 25 26  1  0
M  CHG 1   8   1
M  CHG 1  10  -1
M  CHG 1  18   1
M  END
> <minimizedAffinity>
-6.89880

> <CNNscore>
0.1648708284

> <CNNaffinity>
3.9953687191

> <CNN_VS>
0.6587197781

> <CNNaffinity_variance>
1.1226481199

$$$$



 26 26  0  0  0  0  0  0  0  0999 V2000
   -2.3246   35.1603   98.6960 C   0  0  0  0  0  0  0  0  0  0  0  0
   -1.0854   35.7041   99.1087 C   0  0  0  0  0  0  0  0  0  0  0  0
   -0.9767   36.4899  100.2577 C   0  0  0  0  0  0  0  0  0  0  0  0
    0.5734   37.1333  100.6480 Cl  0  0  0  0  0  0  0  0  0  0  0  0
   -2.1234   36.7264  101.0004 C   0  0  0  0  0  0  0  0  0  0  0  0
   -3.3733   36.2172  100.6084 C   0  0  0  0  0  0  0  0  0  0  0  0
   -3.4986   35.4381   99.4435 C   0  0  0  0  0  0  0  0  0  0  0  0
   -2.0657   37.4799  102.2337 N   0  0  0  0  0  0  0  0  0  0  0  0
   -1.8288   36.8464  103.2689 O   0  0  0  0  0  0  0  0  0  0  0  0
   -2.3419   38.6858  102.1637 O   0  0  0  0  0  0  0  0  0  0  0  0
   -2.3258   34.3022   97.4395 C   0  0  0  0  0  0  0  0  0  0  0  0
   -1.3998   34.8097   96.2949 C   0  0  0  0  0  0  0  0  0  0  0  0
   -2.0606   35.8962   95.5470 N   0  0  0  0  0  0  0  0  0  0  0  0
   -2.9373   35.5538   95.1536 H   0  0  0  0  0  0  0  0  0  0  0  0
   -1.4496   36.2106   94.7933 H   0  0  0  0  0  0  0  0  0  0  0  0
   -1.0729   33.5866   95.3784 C   0  0  0  0  0  0  0  0  0  0  0  0
    0.1252   31.5621   96.1602 C   0  0  0  0  0  0  0  0  0  0  0  0
    0.3304   32.9504   95.5427 N   0  0  0  0  0  0  0  0  0  0  0  0
    1.1904   33.7713   96.4964 C   0  0  0  0  0  0  0  0  0  0  0  0
    1.0578   32.7675   94.2205 C   0  0  0  0  0  0  0  0  0  0  0  0
   -4.8506   34.8847   99.0165 C   0  0  0  0  0  0  0  0  0  0  0  0
   -6.0821   35.7607   99.2643 C   0  0  0  0  0  0  0  0  0  0  0  0
   -6.8497   35.3944  100.5072 C   0  0  0  0  0  0  0  0  0  0  0  0
   -6.6532   35.8634  101.6160 O   0  0  0  0  0  0  0  0  0  0  0  0
   -7.8182   34.4744  100.3384 O   0  0  0  0  0  0  0  0  0  0  0  0
   -7.9750   34.1096   99.4897 H   0  0  0  0  0  0  0  0  0  0  0  0
 17 18  1  0
 18 19  1  0
 18 20  1  0
 18 16  1  0
 16 12  1  0
 12 13  1  0
 12 11  1  0
 11  1  1  0
  1  2  2  0
  2  3  1  0
  3  4  1  0
  3  5  2  0
  5  8  1  0
  8  9  2  0
  8 10  1  0
  5  6  1  0
  6  7  2  0
  7 21  1  0
 21 22  1  0
 22 23  1  0
 23 24  2  0
 23 25  1  0
  7  1  1  0
 13 14  1  0
 13 15  1  0
 25 26  1  0
M  CHG 1   8   1
M  CHG 1  10  -1
M  CHG 1  18   1
M  END
> <minimizedAffinity>
-7.22689

> <CNNscore>
0.1635791808

> <CNNaffinity>
4.6511063576

> <CNN_VS>
0.7608241439

> <CNNaffinity_variance>
0.4615835249

$$$$



 26 26  0  0  0  0  0  0  0  0999 V2000
   -4.5121   35.1851   98.5069 C   0  0  0  0  0  0  0  0  0  0  0  0
   -3.1455   35.5472   98.4514 C   0  0  0  0  0  0  0  0  0  0  0  0
   -2.4181   35.8409   99.6064 C   0  0  0  0  0  0  0  0  0  0  0  0
   -0.7698   36.3074   99.4217 Cl  0  0  0  0  0  0  0  0  0  0  0  0
   -3.0698   35.7646  100.8279 C   0  0  0  0  0  0  0  0  0  0  0  0
   -4.4310   35.4265  100.9171 C   0  0  0  0  0  0  0  0  0  0  0  0
   -5.1789   35.1449   99.7591 C   0  0  0  0  0  0  0  0  0  0  0  0
   -2.3562   35.9957  102.0647 N   0  0  0  0  0  0  0  0  0  0  0  0
   -1.7853   35.0244  102.5743 O   0  0  0  0  0  0  0  0  0  0  0  0
   -2.4457   37.1295  102.5565 O   0  0  0  0  0  0  0  0  0  0  0  0
   -5.2032   34.8666   97.1894 C   0  0  0  0  0  0  0  0  0  0  0  0
   -5.4346   36.0905   96.2547 C   0  0  0  0  0  0  0  0  0  0  0  0
   -6.4512   36.9899   96.8328 N   0  0  0  0  0  0  0  0  0  0  0  0
   -7.3263   36.4802   96.9546 H   0  0  0  0  0  0  0  0  0  0  0  0
   -6.6023   37.7799   96.2056 H   0  0  0  0  0  0  0  0  0  0  0  0
   -5.8708   35.5392   94.8587 C   0  0  0  0  0  0  0  0  0  0  0  0
   -4.1778   35.3737   93.0555 C   0  0  0  0  0  0  0  0  0  0  0  0
   -5.2949   36.2623   93.6151 N   0  0  0  0  0  0  0  0  0  0  0  0
   -4.6848   37.6045   94.0015 C   0  0  0  0  0  0  0  0  0  0  0  0
   -6.3246   36.4618   92.5146 C   0  0  0  0  0  0  0  0  0  0  0  0
   -6.6531   34.7780   99.8523 C   0  0  0  0  0  0  0  0  0  0  0  0
   -7.6592   35.9252   99.9826 C   0  0  0  0  0  0  0  0  0  0  0  0
   -7.7926   36.4618  101.3835 C   0  0  0  0  0  0  0  0  0  0  0  0
   -8.5299   37.3745  101.7170 O   0  0  0  0  0  0  0  0  0  0  0  0
   -7.0209   35.8608  102.3086 O   0  0  0  0  0  0  0  0  0  0  0  0
   -6.4520   35.1590  102.0600 H   0  0  0  0  0  0  0  0  0  0  0  0
 17 18  1  0
 18 19  1  0
 18 20  1  0
 18 16  1  0
 16 12  1  0
 12 13  1  0
 12 11  1  0
 11  1  1  0
  1  2  2  0
  2  3  1  0
  3  4  1  0
  3  5  2  0
  5  8  1  0
  8  9  2  0
  8 10  1  0
  5  6  1  0
  6  7  2  0
  7 21  1  0
 21 22  1  0
 22 23  1  0
 23 24  2  0
 23 25  1  0
  7  1  1  0
 13 14  1  0
 13 15  1  0
 25 26  1  0
M  CHG 1   8   1
M  CHG 1  10  -1
M  CHG 1  18   1
M  END
> <minimizedAffinity>
-5.95982

> <CNNscore>
0.1510458738

> <CNNaffinity>
4.2882709503

> <CNN_VS>
0.6477256417

> <CNNaffinity_variance>
0.9591566920

$$$$



 26 26  0  0  0  0  0  0  0  0999 V2000
   -2.7720   34.9464   96.9993 C   0  0  0  0  0  0  0  0  0  0  0  0
   -1.4011   34.7371   96.7195 C   0  0  0  0  0  0  0  0  0  0  0  0
   -0.4227   34.8762   97.7058 C   0  0  0  0  0  0  0  0  0  0  0  0
    1.2208   34.6349   97.2479 Cl  0  0  0  0  0  0  0  0  0  0  0  0
   -0.8276   35.2238   98.9856 C   0  0  0  0  0  0  0  0  0  0  0  0
   -2.1789   35.4575   99.2930 C   0  0  0  0  0  0  0  0  0  0  0  0
   -3.1721   35.3370   98.3038 C   0  0  0  0  0  0  0  0  0  0  0  0
    0.1300   35.3222  100.0652 N   0  0  0  0  0  0  0  0  0  0  0  0
    0.2881   34.3183  100.7697 O   0  0  0  0  0  0  0  0  0  0  0  0
    0.6521   36.4310  100.2480 O   0  0  0  0  0  0  0  0  0  0  0  0
   -3.7553   34.7489   95.8552 C   0  0  0  0  0  0  0  0  0  0  0  0
   -3.6622   35.8075   94.7169 C   0  0  0  0  0  0  0  0  0  0  0  0
   -4.0681   37.1342   95.2185 N   0  0  0  0  0  0  0  0  0  0  0  0
   -5.0256   37.0876   95.5669 H   0  0  0  0  0  0  0  0  0  0  0  0
   -4.0147   37.8150   94.4609 H   0  0  0  0  0  0  0  0  0  0  0  0
   -4.5785   35.3214   93.5477 C   0  0  0  0  0  0  0  0  0  0  0  0
   -2.4877   35.1569   92.2260 C   0  0  0  0  0  0  0  0  0  0  0  0
   -3.9933   35.4253   92.1167 N   0  0  0  0  0  0  0  0  0  0  0  0
   -4.1853   36.8280   91.5521 C   0  0  0  0  0  0  0  0  0  0  0  0
   -4.5794   34.3998   91.1597 C   0  0  0  0  0  0  0  0  0  0  0  0
   -4.6365   35.5889   98.6335 C   0  0  0  0  0  0  0  0  0  0  0  0
   -5.5656   34.3730   98.6944 C   0  0  0  0  0  0  0  0  0  0  0  0
   -7.0171   34.7250   98.8881 C   0  0  0  0  0  0  0  0  0  0  0  0
   -7.8774   33.9570   99.2854 O   0  0  0  0  0  0  0  0  0  0  0  0
   -7.3491   35.9948   98.5876 O   0  0  0  0  0  0  0  0  0  0  0  0
   -6.6937   36.5905   98.2818 H   0  0  0  0  0  0  0  0  0  0  0  0
 17 18  1  0
 18 19  1  0
 18 20  1  0
 18 16  1  0
 16 12  1  0
 12 13  1  0
 12 11  1  0
 11  1  1  0
  1  2  2  0
  2  3  1  0
  3  4  1  0
  3  5  2  0
  5  8  1  0
  8  9  2  0
  8 10  1  0
  5  6  1  0
  6  7  2  0
  7 21  1  0
 21 22  1  0
 22 23  1  0
 23 24  2  0
 23 25  1  0
  7  1  1  0
 13 14  1  0
 13 15  1  0
 25 26  1  0
M  CHG 1   8   1
M  CHG 1  10  -1
M  CHG 1  18   1
M  END
> <minimizedAffinity>
-6.55998

> <CNNscore>
0.1446839571

> <CNNaffinity>
3.7538058758

> <CNN_VS>
0.5431154966

> <CNNaffinity_variance>
1.2966324091

$$$$
