


 42 42  0  0  0  0  0  0  0  0999 V2000
   36.7719   41.8367   -2.8388 C   0  0  0  0  0  0  0  0  0  0  0  0
   37.6748   39.5540   -3.3180 N   0  0  0  0  0  0  0  0  0  0  0  0
   37.9610   40.9023   -3.1963 C   0  0  0  0  0  0  0  0  0  0  0  0
   39.0810   41.3575   -3.4253 O   0  0  0  0  0  0  0  0  0  0  0  0
   36.7490   39.2466   -3.1855 H   0  0  0  0  0  0  0  0  0  0  0  0
   38.7181   38.5676   -3.6404 C   0  0  0  0  0  0  0  0  0  0  0  0
   40.0761   38.9571   -2.9909 C   0  0  0  0  0  0  0  0  0  0  0  0
   41.3386   38.0488   -3.2499 C   0  0  0  0  0  0  0  0  0  0  0  0
   41.0885   36.6160   -2.7734 C   0  0  0  0  0  0  0  0  0  0  0  0
   41.5001   38.0127   -4.7910 C   0  0  0  0  0  0  0  0  0  0  0  0
   42.5916   38.7124   -2.5820 C   0  0  0  0  0  0  0  0  0  0  0  0
   44.0692   38.4011   -2.9908 C   0  0  0  0  0  0  0  0  0  0  0  0
   44.6920   39.4487   -3.9210 C   0  0  0  0  0  0  0  0  0  0  0  0
   44.9011   38.3872   -1.6803 C   0  0  0  0  0  0  0  0  0  0  0  0
   44.2202   37.0060   -3.6268 C   0  0  0  0  0  0  0  0  0  0  0  0
   38.7661   38.3497   -5.1743 C   0  0  0  0  0  0  0  0  0  0  0  0
   38.9637   36.6697   -7.0283 C   0  0  0  0  0  0  0  0  0  0  0  0
   38.1930   37.0384   -5.7550 C   0  0  0  0  0  0  0  0  0  0  0  0
   38.2344   35.8609   -4.7816 C   0  0  0  0  0  0  0  0  0  0  0  0
   35.7501   41.9160   -3.9157 N   0  0  0  0  0  0  0  0  0  0  0  0
   35.1522   42.7076   -3.6784 H   0  0  0  0  0  0  0  0  0  0  0  0
   36.1350   42.0988   -5.4943 P   0  0  0  0  0  0  0  0  0  0  0  0
   37.2661   43.0488   -5.7389 O   0  0  0  0  0  0  0  0  0  0  0  0
   36.4689   40.6371   -6.0652 O   0  0  0  0  0  0  0  0  0  0  0  0
   37.2708   40.2982   -5.6374 H   0  0  0  0  0  0  0  0  0  0  0  0
   34.6250   42.5968   -6.3794 C   0  0  0  0  0  0  0  0  0  0  0  0
   34.7919   42.5476   -7.8202 N   0  0  0  0  0  0  0  0  0  0  0  0
   33.7821   42.9490   -8.6433 C   0  0  0  0  0  0  0  0  0  0  0  0
   32.6780   43.2917   -8.2412 O   0  0  0  0  0  0  0  0  0  0  0  0
   35.6381   42.2231   -8.2047 H   0  0  0  0  0  0  0  0  0  0  0  0
   34.2151   42.9470   -9.9222 O   0  0  0  0  0  0  0  0  0  0  0  0
   33.2932   42.4118  -10.8795 C   0  0  0  0  0  0  0  0  0  0  0  0
   33.2340   43.2731  -12.1153 C   0  0  0  0  0  0  0  0  0  0  0  0
   32.8588   42.7216  -13.3485 C   0  0  0  0  0  0  0  0  0  0  0  0
   32.8009   43.5184  -14.4928 C   0  0  0  0  0  0  0  0  0  0  0  0
   33.1201   44.8735  -14.4173 C   0  0  0  0  0  0  0  0  0  0  0  0
   33.5000   45.4317  -13.1975 C   0  0  0  0  0  0  0  0  0  0  0  0
   33.5571   44.6363  -12.0518 C   0  0  0  0  0  0  0  0  0  0  0  0
   36.1727   41.5303   -1.4573 C   0  0  0  0  0  0  0  0  0  0  0  0
   36.3596   42.6068   -0.3651 C   0  0  0  0  0  0  0  0  0  0  0  0
   37.0889   42.0796    0.8715 C   0  0  0  0  0  0  0  0  0  0  0  0
   37.1387   43.7914   -0.9486 C   0  0  0  0  0  0  0  0  0  0  0  0
 17 18  1  0
 18 19  1  0
 18 16  1  0
  6 16  1  0
  6  7  1  0
  7  8  1  0
  8  9  1  0
  8 10  1  0
  8 11  1  0
 11 12  1  0
 12 13  1  0
 12 14  1  0
 12 15  1  0
  6  2  1  0
  2  3  1  0
  3  4  2  0
  3  1  1  0
  1 39  1  0
 39 40  1  0
 40 41  1  0
 40 42  1  0
  1 20  1  0
 20 22  1  0
 22 23  2  0
 22 24  1  0
 22 26  1  0
 26 27  1  0
 27 28  1  0
 28 29  2  0
 28 31  1  0
 31 32  1  0
 32 33  1  0
 33 34  2  0
 34 35  1  0
 35 36  2  0
 36 37  1  0
 37 38  2  0
 38 33  1  0
  2  5  1  0
 20 21  1  0
 24 25  1  0
 27 30  1  0
M  END
> <minimizedAffinity>
-8.87360

> <CNNscore>
0.7547041178

> <CNNaffinity>
7.6483063698

> <CNN_VS>
5.7722082138

> <CNNaffinity_variance>
0.2646501362

$$$$



 42 42  0  0  0  0  0  0  0  0999 V2000
   37.2968   41.5169   -4.0296 C   0  0  0  0  0  0  0  0  0  0  0  0
   38.0855   39.1553   -4.2664 N   0  0  0  0  0  0  0  0  0  0  0  0
   38.3790   40.4252   -3.8019 C   0  0  0  0  0  0  0  0  0  0  0  0
   39.4657   40.7027   -3.2958 O   0  0  0  0  0  0  0  0  0  0  0  0
   37.2264   38.9976   -4.7206 H   0  0  0  0  0  0  0  0  0  0  0  0
   39.0238   38.0342   -4.0992 C   0  0  0  0  0  0  0  0  0  0  0  0
   39.5923   37.9915   -2.6525 C   0  0  0  0  0  0  0  0  0  0  0  0
   38.7422   37.3075   -1.5143 C   0  0  0  0  0  0  0  0  0  0  0  0
   37.6544   38.2538   -1.0006 C   0  0  0  0  0  0  0  0  0  0  0  0
   38.0396   36.1086   -2.2009 C   0  0  0  0  0  0  0  0  0  0  0  0
   39.7079   36.8055   -0.3864 C   0  0  0  0  0  0  0  0  0  0  0  0
   39.9342   35.2980   -0.0350 C   0  0  0  0  0  0  0  0  0  0  0  0
   40.5844   34.4866   -1.1617 C   0  0  0  0  0  0  0  0  0  0  0  0
   40.8983   35.2636    1.1812 C   0  0  0  0  0  0  0  0  0  0  0  0
   38.6356   34.5978    0.4085 C   0  0  0  0  0  0  0  0  0  0  0  0
   40.0931   38.0845   -5.2202 C   0  0  0  0  0  0  0  0  0  0  0  0
   41.8614   36.8332   -6.4876 C   0  0  0  0  0  0  0  0  0  0  0  0
   40.4070   36.7911   -6.0038 C   0  0  0  0  0  0  0  0  0  0  0  0
   40.1794   35.5109   -5.2008 C   0  0  0  0  0  0  0  0  0  0  0  0
   36.4014   41.2180   -5.1781 N   0  0  0  0  0  0  0  0  0  0  0  0
   35.6425   40.6494   -4.8026 H   0  0  0  0  0  0  0  0  0  0  0  0
   35.6895   42.3837   -6.0768 P   0  0  0  0  0  0  0  0  0  0  0  0
   35.0648   43.4787   -5.2690 O   0  0  0  0  0  0  0  0  0  0  0  0
   36.8121   42.9595   -7.0679 O   0  0  0  0  0  0  0  0  0  0  0  0
   37.4992   43.4093   -6.5517 H   0  0  0  0  0  0  0  0  0  0  0  0
   34.4844   41.5778   -7.1767 C   0  0  0  0  0  0  0  0  0  0  0  0
   34.3121   42.2989   -8.4243 N   0  0  0  0  0  0  0  0  0  0  0  0
   33.8301   41.6589   -9.5273 C   0  0  0  0  0  0  0  0  0  0  0  0
   33.5921   40.4588   -9.5625 O   0  0  0  0  0  0  0  0  0  0  0  0
   34.5444   43.2543   -8.4743 H   0  0  0  0  0  0  0  0  0  0  0  0
   33.6255   42.5559  -10.5155 O   0  0  0  0  0  0  0  0  0  0  0  0
   33.0006   42.0350  -11.6950 C   0  0  0  0  0  0  0  0  0  0  0  0
   33.0406   43.0396  -12.8182 C   0  0  0  0  0  0  0  0  0  0  0  0
   33.4800   44.3503  -12.5840 C   0  0  0  0  0  0  0  0  0  0  0  0
   33.5202   45.2806  -13.6235 C   0  0  0  0  0  0  0  0  0  0  0  0
   33.1189   44.9119  -14.9068 C   0  0  0  0  0  0  0  0  0  0  0  0
   32.6748   43.6129  -15.1504 C   0  0  0  0  0  0  0  0  0  0  0  0
   32.6353   42.6809  -14.1119 C   0  0  0  0  0  0  0  0  0  0  0  0
   36.5339   41.8717   -2.7437 C   0  0  0  0  0  0  0  0  0  0  0  0
   37.3250   42.6278   -1.6532 C   0  0  0  0  0  0  0  0  0  0  0  0
   37.1343   44.1436   -1.7228 C   0  0  0  0  0  0  0  0  0  0  0  0
   36.8924   42.1236   -0.2714 C   0  0  0  0  0  0  0  0  0  0  0  0
 17 18  1  0
 18 19  1  0
 18 16  1  0
  6 16  1  0
  6  7  1  0
  7  8  1  0
  8  9  1  0
  8 10  1  0
  8 11  1  0
 11 12  1  0
 12 13  1  0
 12 14  1  0
 12 15  1  0
  6  2  1  0
  2  3  1  0
  3  4  2  0
  3  1  1  0
  1 39  1  0
 39 40  1  0
 40 41  1  0
 40 42  1  0
  1 20  1  0
 20 22  1  0
 22 23  2  0
 22 24  1  0
 22 26  1  0
 26 27  1  0
 27 28  1  0
 28 29  2  0
 28 31  1  0
 31 32  1  0
 32 33  1  0
 33 34  2  0
 34 35  1  0
 35 36  2  0
 36 37  1  0
 37 38  2  0
 38 33  1  0
  2  5  1  0
 20 21  1  0
 24 25  1  0
 27 30  1  0
M  END
> <minimizedAffinity>
-8.30044

> <CNNscore>
0.7275854349

> <CNNaffinity>
7.7730274200

> <CNN_VS>
5.6555414200

> <CNNaffinity_variance>
0.0357714146

$$$$



 42 42  0  0  0  0  0  0  0  0999 V2000
   36.6498   41.9352   -2.8589 C   0  0  0  0  0  0  0  0  0  0  0  0
   37.7926   39.8295   -3.5772 N   0  0  0  0  0  0  0  0  0  0  0  0
   37.9506   41.1342   -3.1440 C   0  0  0  0  0  0  0  0  0  0  0  0
   39.0571   41.6646   -3.0526 O   0  0  0  0  0  0  0  0  0  0  0  0
   36.8836   39.4700   -3.6940 H   0  0  0  0  0  0  0  0  0  0  0  0
   38.9477   38.9655   -3.8678 C   0  0  0  0  0  0  0  0  0  0  0  0
   38.5363   37.7653   -4.7668 C   0  0  0  0  0  0  0  0  0  0  0  0
   39.6621   36.8884   -5.4376 C   0  0  0  0  0  0  0  0  0  0  0  0
   39.6410   35.4594   -4.8900 C   0  0  0  0  0  0  0  0  0  0  0  0
   39.2825   36.8246   -6.9390 C   0  0  0  0  0  0  0  0  0  0  0  0
   41.0451   37.6017   -5.2507 C   0  0  0  0  0  0  0  0  0  0  0  0
   42.4213   36.8577   -5.2559 C   0  0  0  0  0  0  0  0  0  0  0  0
   42.5194   35.7223   -4.2304 C   0  0  0  0  0  0  0  0  0  0  0  0
   42.5827   36.2284   -6.6658 C   0  0  0  0  0  0  0  0  0  0  0  0
   43.6088   37.8196   -5.0610 C   0  0  0  0  0  0  0  0  0  0  0  0
   39.6490   38.5778   -2.5409 C   0  0  0  0  0  0  0  0  0  0  0  0
   40.5146   36.6030   -1.2565 C   0  0  0  0  0  0  0  0  0  0  0  0
   39.2604   37.2481   -1.8581 C   0  0  0  0  0  0  0  0  0  0  0  0
   38.1991   37.3994   -0.7688 C   0  0  0  0  0  0  0  0  0  0  0  0
   35.6695   41.8692   -3.9745 N   0  0  0  0  0  0  0  0  0  0  0  0
   34.9524   42.5621   -3.7602 H   0  0  0  0  0  0  0  0  0  0  0  0
   36.0832   42.1166   -5.5369 P   0  0  0  0  0  0  0  0  0  0  0  0
   37.2037   43.0922   -5.7227 O   0  0  0  0  0  0  0  0  0  0  0  0
   36.4517   40.6825   -6.1546 O   0  0  0  0  0  0  0  0  0  0  0  0
   37.2501   40.3401   -5.7231 H   0  0  0  0  0  0  0  0  0  0  0  0
   34.5836   42.6245   -6.4341 C   0  0  0  0  0  0  0  0  0  0  0  0
   34.7594   42.5671   -7.8735 N   0  0  0  0  0  0  0  0  0  0  0  0
   33.7538   42.9618   -8.7051 C   0  0  0  0  0  0  0  0  0  0  0  0
   32.6467   43.3048   -8.3117 O   0  0  0  0  0  0  0  0  0  0  0  0
   35.6085   42.2419   -8.2510 H   0  0  0  0  0  0  0  0  0  0  0  0
   34.1947   42.9531   -9.9813 O   0  0  0  0  0  0  0  0  0  0  0  0
   33.2823   42.4040  -10.9400 C   0  0  0  0  0  0  0  0  0  0  0  0
   33.2240   43.2559  -12.1824 C   0  0  0  0  0  0  0  0  0  0  0  0
   33.5564   44.6169  -12.1269 C   0  0  0  0  0  0  0  0  0  0  0  0
   33.5055   45.4061  -13.2768 C   0  0  0  0  0  0  0  0  0  0  0  0
   33.1193   44.8444  -14.4931 C   0  0  0  0  0  0  0  0  0  0  0  0
   32.7812   43.4934  -14.5591 C   0  0  0  0  0  0  0  0  0  0  0  0
   32.8329   42.7024  -13.4101 C   0  0  0  0  0  0  0  0  0  0  0  0
   36.0346   41.5981   -1.4917 C   0  0  0  0  0  0  0  0  0  0  0  0
   36.2168   42.6455   -0.3709 C   0  0  0  0  0  0  0  0  0  0  0  0
   37.0493   42.1240    0.8013 C   0  0  0  0  0  0  0  0  0  0  0  0
   36.8840   43.8982   -0.9510 C   0  0  0  0  0  0  0  0  0  0  0  0
 17 18  1  0
 18 19  1  0
 18 16  1  0
  6 16  1  0
  6  7  1  0
  7  8  1  0
  8  9  1  0
  8 10  1  0
  8 11  1  0
 11 12  1  0
 12 13  1  0
 12 14  1  0
 12 15  1  0
  6  2  1  0
  2  3  1  0
  3  4  2  0
  3  1  1  0
  1 39  1  0
 39 40  1  0
 40 41  1  0
 40 42  1  0
  1 20  1  0
 20 22  1  0
 22 23  2  0
 22 24  1  0
 22 26  1  0
 26 27  1  0
 27 28  1  0
 28 29  2  0
 28 31  1  0
 31 32  1  0
 32 33  1  0
 33 34  2  0
 34 35  1  0
 35 36  2  0
 36 37  1  0
 37 38  2  0
 38 33  1  0
  2  5  1  0
 20 21  1  0
 24 25  1  0
 27 30  1  0
M  END
> <minimizedAffinity>
-8.70344

> <CNNscore>
0.7213010192

> <CNNaffinity>
7.6377048492

> <CNN_VS>
5.5090842247

> <CNNaffinity_variance>
0.3266300857

$$$$



 42 42  0  0  0  0  0  0  0  0999 V2000
   36.6900   41.8946   -2.7269 C   0  0  0  0  0  0  0  0  0  0  0  0
   37.5732   39.5942   -2.2983 N   0  0  0  0  0  0  0  0  0  0  0  0
   37.8245   40.8394   -2.8470 C   0  0  0  0  0  0  0  0  0  0  0  0
   38.8614   41.0874   -3.4613 O   0  0  0  0  0  0  0  0  0  0  0  0
   36.7026   39.4256   -1.8708 H   0  0  0  0  0  0  0  0  0  0  0  0
   38.5734   38.5156   -2.3369 C   0  0  0  0  0  0  0  0  0  0  0  0
   38.4401   37.5845   -1.0987 C   0  0  0  0  0  0  0  0  0  0  0  0
   39.0971   36.1518   -1.1422 C   0  0  0  0  0  0  0  0  0  0  0  0
   38.3433   35.1768   -0.2346 C   0  0  0  0  0  0  0  0  0  0  0  0
   38.9181   35.6704   -2.6046 C   0  0  0  0  0  0  0  0  0  0  0  0
   40.6187   36.2761   -0.7874 C   0  0  0  0  0  0  0  0  0  0  0  0
   41.4935   35.0920   -0.2582 C   0  0  0  0  0  0  0  0  0  0  0  0
   42.9934   35.2557   -0.5301 C   0  0  0  0  0  0  0  0  0  0  0  0
   41.3003   35.0484    1.2815 C   0  0  0  0  0  0  0  0  0  0  0  0
   41.0263   33.7286   -0.8026 C   0  0  0  0  0  0  0  0  0  0  0  0
   39.9827   39.1257   -2.5471 C   0  0  0  0  0  0  0  0  0  0  0  0
   40.6169   38.2482   -4.8113 C   0  0  0  0  0  0  0  0  0  0  0  0
   41.0321   38.3129   -3.3367 C   0  0  0  0  0  0  0  0  0  0  0  0
   42.4509   38.8720   -3.2362 C   0  0  0  0  0  0  0  0  0  0  0  0
   35.7113   41.8263   -3.8438 N   0  0  0  0  0  0  0  0  0  0  0  0
   34.9971   42.5240   -3.6351 H   0  0  0  0  0  0  0  0  0  0  0  0
   36.1288   42.0620   -5.4070 P   0  0  0  0  0  0  0  0  0  0  0  0
   37.2516   43.0341   -5.5972 O   0  0  0  0  0  0  0  0  0  0  0  0
   36.4959   40.6229   -6.0138 O   0  0  0  0  0  0  0  0  0  0  0  0
   37.2927   40.2820   -5.5782 H   0  0  0  0  0  0  0  0  0  0  0  0
   34.6321   42.5663   -6.3109 C   0  0  0  0  0  0  0  0  0  0  0  0
   34.8235   42.5368   -7.7492 N   0  0  0  0  0  0  0  0  0  0  0  0
   33.8248   42.9418   -8.5841 C   0  0  0  0  0  0  0  0  0  0  0  0
   32.7118   43.2718   -8.1963 O   0  0  0  0  0  0  0  0  0  0  0  0
   35.6783   42.2230   -8.1236 H   0  0  0  0  0  0  0  0  0  0  0  0
   34.2793   42.9593   -9.8554 O   0  0  0  0  0  0  0  0  0  0  0  0
   33.3978   42.3851  -10.8282 C   0  0  0  0  0  0  0  0  0  0  0  0
   33.2997   43.2584  -12.0530 C   0  0  0  0  0  0  0  0  0  0  0  0
   32.8554   42.7260  -13.2716 C   0  0  0  0  0  0  0  0  0  0  0  0
   32.7614   43.5340  -14.4056 C   0  0  0  0  0  0  0  0  0  0  0  0
   33.1131   44.8812  -14.3345 C   0  0  0  0  0  0  0  0  0  0  0  0
   33.5615   45.4204  -13.1294 C   0  0  0  0  0  0  0  0  0  0  0  0
   33.6548   44.6138  -11.9940 C   0  0  0  0  0  0  0  0  0  0  0  0
   36.0272   41.8963   -1.3405 C   0  0  0  0  0  0  0  0  0  0  0  0
   36.5678   42.9161   -0.3136 C   0  0  0  0  0  0  0  0  0  0  0  0
   37.1721   42.2510    0.9239 C   0  0  0  0  0  0  0  0  0  0  0  0
   37.6264   43.7990   -0.9848 C   0  0  0  0  0  0  0  0  0  0  0  0
 17 18  1  0
 18 19  1  0
 18 16  1  0
  6 16  1  0
  6  7  1  0
  7  8  1  0
  8  9  1  0
  8 10  1  0
  8 11  1  0
 11 12  1  0
 12 13  1  0
 12 14  1  0
 12 15  1  0
  6  2  1  0
  2  3  1  0
  3  4  2  0
  3  1  1  0
  1 39  1  0
 39 40  1  0
 40 41  1  0
 40 42  1  0
  1 20  1  0
 20 22  1  0
 22 23  2  0
 22 24  1  0
 22 26  1  0
 26 27  1  0
 27 28  1  0
 28 29  2  0
 28 31  1  0
 31 32  1  0
 32 33  1  0
 33 34  2  0
 34 35  1  0
 35 36  2  0
 36 37  1  0
 37 38  2  0
 38 33  1  0
  2  5  1  0
 20 21  1  0
 24 25  1  0
 27 30  1  0
M  END
> <minimizedAffinity>
-8.82988

> <CNNscore>
0.7047068477

> <CNNaffinity>
7.6575150490

> <CNN_VS>
5.3963031769

> <CNNaffinity_variance>
0.3533600867

$$$$



 42 42  0  0  0  0  0  0  0  0999 V2000
   37.2918   41.5981   -4.0069 C   0  0  0  0  0  0  0  0  0  0  0  0
   37.9924   39.1983   -3.9351 N   0  0  0  0  0  0  0  0  0  0  0  0
   38.3340   40.5060   -3.6387 C   0  0  0  0  0  0  0  0  0  0  0  0
   39.4321   40.8063   -3.1716 O   0  0  0  0  0  0  0  0  0  0  0  0
   37.1264   39.0150   -4.3660 H   0  0  0  0  0  0  0  0  0  0  0  0
   38.8896   38.0744   -3.6233 C   0  0  0  0  0  0  0  0  0  0  0  0
   39.6731   37.6170   -4.8861 C   0  0  0  0  0  0  0  0  0  0  0  0
   40.9729   36.7424   -4.7072 C   0  0  0  0  0  0  0  0  0  0  0  0
   41.5478   36.8994   -3.2975 C   0  0  0  0  0  0  0  0  0  0  0  0
   40.4966   35.2757   -4.8625 C   0  0  0  0  0  0  0  0  0  0  0  0
   41.9958   37.1101   -5.8365 C   0  0  0  0  0  0  0  0  0  0  0  0
   43.2675   36.2641   -6.1746 C   0  0  0  0  0  0  0  0  0  0  0  0
   43.0181   35.1437   -7.1910 C   0  0  0  0  0  0  0  0  0  0  0  0
   44.2993   37.2406   -6.8002 C   0  0  0  0  0  0  0  0  0  0  0  0
   43.9272   35.6682   -4.9162 C   0  0  0  0  0  0  0  0  0  0  0  0
   38.0873   36.9556   -2.9112 C   0  0  0  0  0  0  0  0  0  0  0  0
   38.7886   35.3830   -1.0852 C   0  0  0  0  0  0  0  0  0  0  0  0
   38.2468   36.7859   -1.3844 C   0  0  0  0  0  0  0  0  0  0  0  0
   39.1597   37.8276   -0.7384 C   0  0  0  0  0  0  0  0  0  0  0  0
   36.4230   41.2116   -5.1496 N   0  0  0  0  0  0  0  0  0  0  0  0
   35.6803   40.6341   -4.7555 H   0  0  0  0  0  0  0  0  0  0  0  0
   35.6809   42.3058   -6.1118 P   0  0  0  0  0  0  0  0  0  0  0  0
   35.0214   43.4239   -5.3658 O   0  0  0  0  0  0  0  0  0  0  0  0
   36.7903   42.8598   -7.1298 O   0  0  0  0  0  0  0  0  0  0  0  0
   37.4618   43.3568   -6.6370 H   0  0  0  0  0  0  0  0  0  0  0  0
   34.5043   41.4066   -7.1694 C   0  0  0  0  0  0  0  0  0  0  0  0
   34.4551   41.9446   -8.5163 N   0  0  0  0  0  0  0  0  0  0  0  0
   33.5731   42.9360   -8.8289 C   0  0  0  0  0  0  0  0  0  0  0  0
   32.7390   43.3704   -8.0454 O   0  0  0  0  0  0  0  0  0  0  0  0
   35.0614   41.5922   -9.2073 H   0  0  0  0  0  0  0  0  0  0  0  0
   33.8067   43.3672  -10.0869 O   0  0  0  0  0  0  0  0  0  0  0  0
   33.2733   42.5382  -11.1267 C   0  0  0  0  0  0  0  0  0  0  0  0
   33.1997   43.2873  -12.4329 C   0  0  0  0  0  0  0  0  0  0  0  0
   33.6362   44.6172  -12.5148 C   0  0  0  0  0  0  0  0  0  0  0  0
   33.5713   45.3110  -13.7241 C   0  0  0  0  0  0  0  0  0  0  0  0
   33.0669   44.6842  -14.8628 C   0  0  0  0  0  0  0  0  0  0  0  0
   32.6248   43.3638  -14.7919 C   0  0  0  0  0  0  0  0  0  0  0  0
   32.6903   42.6682  -13.5834 C   0  0  0  0  0  0  0  0  0  0  0  0
   36.5014   42.0976   -2.7874 C   0  0  0  0  0  0  0  0  0  0  0  0
   37.3198   42.7385   -1.6445 C   0  0  0  0  0  0  0  0  0  0  0  0
   37.1452   44.2558   -1.5660 C   0  0  0  0  0  0  0  0  0  0  0  0
   36.9053   42.1091   -0.3092 C   0  0  0  0  0  0  0  0  0  0  0  0
 17 18  1  0
 18 19  1  0
 18 16  1  0
  6 16  1  0
  6  7  1  0
  7  8  1  0
  8  9  1  0
  8 10  1  0
  8 11  1  0
 11 12  1  0
 12 13  1  0
 12 14  1  0
 12 15  1  0
  6  2  1  0
  2  3  1  0
  3  4  2  0
  3  1  1  0
  1 39  1  0
 39 40  1  0
 40 41  1  0
 40 42  1  0
  1 20  1  0
 20 22  1  0
 22 23  2  0
 22 24  1  0
 22 26  1  0
 26 27  1  0
 27 28  1  0
 28 29  2  0
 28 31  1  0
 31 32  1  0
 32 33  1  0
 33 34  2  0
 34 35  1  0
 35 36  2  0
 36 37  1  0
 37 38  2  0
 38 33  1  0
  2  5  1  0
 20 21  1  0
 24 25  1  0
 27 30  1  0
M  END
> <minimizedAffinity>
-8.31292

> <CNNscore>
0.7021374106

> <CNNaffinity>
7.6610074043

> <CNN_VS>
5.3790798187

> <CNNaffinity_variance>
0.2049893141

$$$$



 42 42  0  0  0  0  0  0  0  0999 V2000
   37.3446   41.8807   -4.1625 C   0  0  0  0  0  0  0  0  0  0  0  0
   38.1744   39.5251   -4.0284 N   0  0  0  0  0  0  0  0  0  0  0  0
   38.3816   40.8411   -3.6541 C   0  0  0  0  0  0  0  0  0  0  0  0
   39.3703   41.1912   -3.0107 O   0  0  0  0  0  0  0  0  0  0  0  0
   37.4012   39.3044   -4.5964 H   0  0  0  0  0  0  0  0  0  0  0  0
   39.0795   38.4471   -3.5996 C   0  0  0  0  0  0  0  0  0  0  0  0
   39.9949   37.9868   -4.7692 C   0  0  0  0  0  0  0  0  0  0  0  0
   41.4279   37.4158   -4.4426 C   0  0  0  0  0  0  0  0  0  0  0  0
   42.1323   38.2757   -3.3905 C   0  0  0  0  0  0  0  0  0  0  0  0
   41.1733   36.0201   -3.8186 C   0  0  0  0  0  0  0  0  0  0  0  0
   42.2407   37.2812   -5.7759 C   0  0  0  0  0  0  0  0  0  0  0  0
   43.7185   36.7736   -5.8526 C   0  0  0  0  0  0  0  0  0  0  0  0
   44.0958   35.7850   -4.7432 C   0  0  0  0  0  0  0  0  0  0  0  0
   43.8656   36.0321   -7.2084 C   0  0  0  0  0  0  0  0  0  0  0  0
   44.7359   37.9304   -5.8671 C   0  0  0  0  0  0  0  0  0  0  0  0
   38.2559   37.3170   -2.9308 C   0  0  0  0  0  0  0  0  0  0  0  0
   39.4514   37.2726   -0.7245 C   0  0  0  0  0  0  0  0  0  0  0  0
   38.0751   37.3397   -1.3972 C   0  0  0  0  0  0  0  0  0  0  0  0
   37.3207   38.5646   -0.8814 C   0  0  0  0  0  0  0  0  0  0  0  0
   36.4314   41.3325   -5.1995 N   0  0  0  0  0  0  0  0  0  0  0  0
   35.7269   40.7926   -4.6970 H   0  0  0  0  0  0  0  0  0  0  0  0
   35.6100   42.2783   -6.2503 P   0  0  0  0  0  0  0  0  0  0  0  0
   34.9097   43.4355   -5.6083 O   0  0  0  0  0  0  0  0  0  0  0  0
   36.6642   42.7751   -7.3530 O   0  0  0  0  0  0  0  0  0  0  0  0
   37.3198   43.3553   -6.9353 H   0  0  0  0  0  0  0  0  0  0  0  0
   34.4583   41.2129   -7.1723 C   0  0  0  0  0  0  0  0  0  0  0  0
   35.1315   40.4311   -8.1929 N   0  0  0  0  0  0  0  0  0  0  0  0
   35.6267   39.1957   -7.8977 C   0  0  0  0  0  0  0  0  0  0  0  0
   35.6080   38.7110   -6.7739 O   0  0  0  0  0  0  0  0  0  0  0  0
   35.2311   40.7945   -9.1025 H   0  0  0  0  0  0  0  0  0  0  0  0
   36.0776   38.6090   -9.0270 O   0  0  0  0  0  0  0  0  0  0  0  0
   35.1474   38.5835  -10.1166 C   0  0  0  0  0  0  0  0  0  0  0  0
   35.3131   37.3326  -10.9414 C   0  0  0  0  0  0  0  0  0  0  0  0
   36.2864   36.3819  -10.6027 C   0  0  0  0  0  0  0  0  0  0  0  0
   36.4391   35.2221  -11.3638 C   0  0  0  0  0  0  0  0  0  0  0  0
   35.6231   35.0017  -12.4726 C   0  0  0  0  0  0  0  0  0  0  0  0
   34.6555   35.9428  -12.8222 C   0  0  0  0  0  0  0  0  0  0  0  0
   34.5008   37.1027  -12.0612 C   0  0  0  0  0  0  0  0  0  0  0  0
   36.6041   42.5875   -3.0164 C   0  0  0  0  0  0  0  0  0  0  0  0
   37.4239   42.8905   -1.7425 C   0  0  0  0  0  0  0  0  0  0  0  0
   37.6669   44.3859   -1.5329 C   0  0  0  0  0  0  0  0  0  0  0  0
   36.6943   42.3177   -0.5217 C   0  0  0  0  0  0  0  0  0  0  0  0
 17 18  1  0
 18 19  1  0
 18 16  1  0
  6 16  1  0
  6  7  1  0
  7  8  1  0
  8  9  1  0
  8 10  1  0
  8 11  1  0
 11 12  1  0
 12 13  1  0
 12 14  1  0
 12 15  1  0
  6  2  1  0
  2  3  1  0
  3  4  2  0
  3  1  1  0
  1 39  1  0
 39 40  1  0
 40 41  1  0
 40 42  1  0
  1 20  1  0
 20 22  1  0
 22 23  2  0
 22 24  1  0
 22 26  1  0
 26 27  1  0
 27 28  1  0
 28 29  2  0
 28 31  1  0
 31 32  1  0
 32 33  1  0
 33 34  2  0
 34 35  1  0
 35 36  2  0
 36 37  1  0
 37 38  2  0
 38 33  1  0
  2  5  1  0
 20 21  1  0
 24 25  1  0
 27 30  1  0
M  END
> <minimizedAffinity>
-7.17180

> <CNNscore>
0.6558377147

> <CNNaffinity>
7.6551780701

> <CNN_VS>
5.0205545425

> <CNNaffinity_variance>
0.1178416610

$$$$



 42 42  0  0  0  0  0  0  0  0999 V2000
   37.4713   41.3477   -3.9157 C   0  0  0  0  0  0  0  0  0  0  0  0
   37.9442   38.8956   -3.7771 N   0  0  0  0  0  0  0  0  0  0  0  0
   38.4424   40.1750   -3.6050 C   0  0  0  0  0  0  0  0  0  0  0  0
   39.6131   40.3851   -3.2899 O   0  0  0  0  0  0  0  0  0  0  0  0
   37.0183   38.7799   -4.0910 H   0  0  0  0  0  0  0  0  0  0  0  0
   38.7621   37.7034   -3.5033 C   0  0  0  0  0  0  0  0  0  0  0  0
   38.7671   36.7367   -4.7212 C   0  0  0  0  0  0  0  0  0  0  0  0
   40.0929   36.5626   -5.5568 C   0  0  0  0  0  0  0  0  0  0  0  0
   41.1069   37.6544   -5.2070 C   0  0  0  0  0  0  0  0  0  0  0  0
   40.6834   35.2050   -5.0980 C   0  0  0  0  0  0  0  0  0  0  0  0
   39.7340   36.5180   -7.0818 C   0  0  0  0  0  0  0  0  0  0  0  0
   38.4634   35.8132   -7.6616 C   0  0  0  0  0  0  0  0  0  0  0  0
   37.9387   34.6632   -6.7941 C   0  0  0  0  0  0  0  0  0  0  0  0
   37.3485   36.8911   -7.7318 C   0  0  0  0  0  0  0  0  0  0  0  0
   38.6796   35.3044   -9.0996 C   0  0  0  0  0  0  0  0  0  0  0  0
   38.3122   37.0652   -2.1643 C   0  0  0  0  0  0  0  0  0  0  0  0
   40.5670   36.3952   -1.2891 C   0  0  0  0  0  0  0  0  0  0  0  0
   39.1446   35.9025   -1.5808 C   0  0  0  0  0  0  0  0  0  0  0  0
   38.5513   35.2937   -0.3107 C   0  0  0  0  0  0  0  0  0  0  0  0
   36.6468   41.1141   -5.1305 N   0  0  0  0  0  0  0  0  0  0  0  0
   35.9406   40.4283   -4.8636 H   0  0  0  0  0  0  0  0  0  0  0  0
   35.8441   42.3107   -5.9034 P   0  0  0  0  0  0  0  0  0  0  0  0
   35.3395   43.3897   -4.9963 O   0  0  0  0  0  0  0  0  0  0  0  0
   36.8423   42.9017   -7.0117 O   0  0  0  0  0  0  0  0  0  0  0  0
   37.5942   43.3305   -6.5740 H   0  0  0  0  0  0  0  0  0  0  0  0
   34.5009   41.5468   -6.8645 C   0  0  0  0  0  0  0  0  0  0  0  0
   34.6052   41.8397   -8.2821 N   0  0  0  0  0  0  0  0  0  0  0  0
   33.7171   42.6863   -8.8763 C   0  0  0  0  0  0  0  0  0  0  0  0
   32.7592   43.1782   -8.2945 O   0  0  0  0  0  0  0  0  0  0  0  0
   35.3204   41.4253   -8.8169 H   0  0  0  0  0  0  0  0  0  0  0  0
   34.0951   42.9130  -10.1525 O   0  0  0  0  0  0  0  0  0  0  0  0
   33.2015   42.4110  -11.1537 C   0  0  0  0  0  0  0  0  0  0  0  0
   33.1947   43.3017  -12.3699 C   0  0  0  0  0  0  0  0  0  0  0  0
   33.5642   44.6502  -12.2651 C   0  0  0  0  0  0  0  0  0  0  0  0
   33.5611   45.4753  -13.3907 C   0  0  0  0  0  0  0  0  0  0  0  0
   33.1860   44.9624  -14.6317 C   0  0  0  0  0  0  0  0  0  0  0  0
   32.8112   43.6244  -14.7469 C   0  0  0  0  0  0  0  0  0  0  0  0
   32.8151   42.7976  -13.6222 C   0  0  0  0  0  0  0  0  0  0  0  0
   36.6416   41.7691   -2.6928 C   0  0  0  0  0  0  0  0  0  0  0  0
   37.3763   42.5775   -1.6003 C   0  0  0  0  0  0  0  0  0  0  0  0
   37.3743   44.0826   -1.8713 C   0  0  0  0  0  0  0  0  0  0  0  0
   36.7217   42.3044   -0.2410 C   0  0  0  0  0  0  0  0  0  0  0  0
 17 18  1  0
 18 19  1  0
 18 16  1  0
  6 16  1  0
  6  7  1  0
  7  8  1  0
  8  9  1  0
  8 10  1  0
  8 11  1  0
 11 12  1  0
 12 13  1  0
 12 14  1  0
 12 15  1  0
  6  2  1  0
  2  3  1  0
  3  4  2  0
  3  1  1  0
  1 39  1  0
 39 40  1  0
 40 41  1  0
 40 42  1  0
  1 20  1  0
 20 22  1  0
 22 23  2  0
 22 24  1  0
 22 26  1  0
 26 27  1  0
 27 28  1  0
 28 29  2  0
 28 31  1  0
 31 32  1  0
 32 33  1  0
 33 34  2  0
 34 35  1  0
 35 36  2  0
 36 37  1  0
 37 38  2  0
 38 33  1  0
  2  5  1  0
 20 21  1  0
 24 25  1  0
 27 30  1  0
M  END
> <minimizedAffinity>
-8.07344

> <CNNscore>
0.6537187696

> <CNNaffinity>
7.7232089043

> <CNN_VS>
5.0488066673

> <CNNaffinity_variance>
0.1764794141

$$$$



 42 42  0  0  0  0  0  0  0  0999 V2000
   37.2864   41.4605   -4.1400 C   0  0  0  0  0  0  0  0  0  0  0  0
   37.9213   39.0461   -4.2915 N   0  0  0  0  0  0  0  0  0  0  0  0
   38.3134   40.3171   -3.9104 C   0  0  0  0  0  0  0  0  0  0  0  0
   39.4404   40.5522   -3.4758 O   0  0  0  0  0  0  0  0  0  0  0  0
   37.0311   38.9190   -4.6923 H   0  0  0  0  0  0  0  0  0  0  0  0
   38.7999   37.8792   -4.1134 C   0  0  0  0  0  0  0  0  0  0  0  0
   39.4408   37.8726   -2.6967 C   0  0  0  0  0  0  0  0  0  0  0  0
   39.7416   36.4917   -1.9975 C   0  0  0  0  0  0  0  0  0  0  0  0
   39.8326   36.6563   -0.4786 C   0  0  0  0  0  0  0  0  0  0  0  0
   38.5062   35.6072   -2.3036 C   0  0  0  0  0  0  0  0  0  0  0  0
   41.0332   35.8688   -2.6303 C   0  0  0  0  0  0  0  0  0  0  0  0
   42.4620   36.4911   -2.4939 C   0  0  0  0  0  0  0  0  0  0  0  0
   43.1731   36.1368   -1.1826 C   0  0  0  0  0  0  0  0  0  0  0  0
   43.3127   35.9135   -3.6569 C   0  0  0  0  0  0  0  0  0  0  0  0
   42.4541   38.0218   -2.6678 C   0  0  0  0  0  0  0  0  0  0  0  0
   39.8094   37.8092   -5.2876 C   0  0  0  0  0  0  0  0  0  0  0  0
   40.9244   35.9306   -6.5231 C   0  0  0  0  0  0  0  0  0  0  0  0
   39.6189   36.7192   -6.3649 C   0  0  0  0  0  0  0  0  0  0  0  0
   38.4764   35.7487   -6.0676 C   0  0  0  0  0  0  0  0  0  0  0  0
   36.3774   41.2043   -5.2880 N   0  0  0  0  0  0  0  0  0  0  0  0
   35.6446   40.5889   -4.9348 H   0  0  0  0  0  0  0  0  0  0  0  0
   35.6107   42.3995   -6.0985 P   0  0  0  0  0  0  0  0  0  0  0  0
   35.3924   43.6405   -5.2898 O   0  0  0  0  0  0  0  0  0  0  0  0
   36.4810   42.7058   -7.4111 O   0  0  0  0  0  0  0  0  0  0  0  0
   37.3396   43.0744   -7.1509 H   0  0  0  0  0  0  0  0  0  0  0  0
   34.0481   41.7216   -6.7391 C   0  0  0  0  0  0  0  0  0  0  0  0
   34.0172   41.6903   -8.1897 N   0  0  0  0  0  0  0  0  0  0  0  0
   33.2904   42.6129   -8.8819 C   0  0  0  0  0  0  0  0  0  0  0  0
   32.5775   43.4516   -8.3467 O   0  0  0  0  0  0  0  0  0  0  0  0
   34.5233   40.9999   -8.6759 H   0  0  0  0  0  0  0  0  0  0  0  0
   33.5257   42.4724  -10.2040 O   0  0  0  0  0  0  0  0  0  0  0  0
   33.2906   41.1610  -10.7313 C   0  0  0  0  0  0  0  0  0  0  0  0
   31.8584   41.0039  -11.1746 C   0  0  0  0  0  0  0  0  0  0  0  0
   31.3834   41.6918  -12.3003 C   0  0  0  0  0  0  0  0  0  0  0  0
   30.0585   41.5451  -12.7135 C   0  0  0  0  0  0  0  0  0  0  0  0
   29.1939   40.7121  -12.0047 C   0  0  0  0  0  0  0  0  0  0  0  0
   29.6535   40.0273  -10.8805 C   0  0  0  0  0  0  0  0  0  0  0  0
   30.9788   40.1721  -10.4667 C   0  0  0  0  0  0  0  0  0  0  0  0
   36.5420   41.8546   -2.8547 C   0  0  0  0  0  0  0  0  0  0  0  0
   37.3723   42.5615   -1.7603 C   0  0  0  0  0  0  0  0  0  0  0  0
   37.3607   44.0848   -1.8954 C   0  0  0  0  0  0  0  0  0  0  0  0
   36.8312   42.1691   -0.3804 C   0  0  0  0  0  0  0  0  0  0  0  0
 17 18  1  0
 18 19  1  0
 18 16  1  0
  6 16  1  0
  6  7  1  0
  7  8  1  0
  8  9  1  0
  8 10  1  0
  8 11  1  0
 11 12  1  0
 12 13  1  0
 12 14  1  0
 12 15  1  0
  6  2  1  0
  2  3  1  0
  3  4  2  0
  3  1  1  0
  1 39  1  0
 39 40  1  0
 40 41  1  0
 40 42  1  0
  1 20  1  0
 20 22  1  0
 22 23  2  0
 22 24  1  0
 22 26  1  0
 26 27  1  0
 27 28  1  0
 28 29  2  0
 28 31  1  0
 31 32  1  0
 32 33  1  0
 33 34  2  0
 34 35  1  0
 35 36  2  0
 36 37  1  0
 37 38  2  0
 38 33  1  0
  2  5  1  0
 20 21  1  0
 24 25  1  0
 27 30  1  0
M  END
> <minimizedAffinity>
-7.18937

> <CNNscore>
0.6526526213

> <CNNaffinity>
7.5803599358

> <CNN_VS>
4.9473419189

> <CNNaffinity_variance>
0.0192903820

$$$$



 42 42  0  0  0  0  0  0  0  0999 V2000
   36.8638   41.9114   -2.9070 C   0  0  0  0  0  0  0  0  0  0  0  0
   37.5142   39.5393   -2.4533 N   0  0  0  0  0  0  0  0  0  0  0  0
   37.8901   40.7492   -3.0098 C   0  0  0  0  0  0  0  0  0  0  0  0
   38.9506   40.8891   -3.6180 O   0  0  0  0  0  0  0  0  0  0  0  0
   36.6282   39.4605   -2.0313 H   0  0  0  0  0  0  0  0  0  0  0  0
   38.4040   38.3676   -2.4757 C   0  0  0  0  0  0  0  0  0  0  0  0
   38.3260   37.6319   -3.8433 C   0  0  0  0  0  0  0  0  0  0  0  0
   39.6558   37.1088   -4.5098 C   0  0  0  0  0  0  0  0  0  0  0  0
   39.6973   37.4625   -5.9983 C   0  0  0  0  0  0  0  0  0  0  0  0
   40.7941   37.8910   -3.8065 C   0  0  0  0  0  0  0  0  0  0  0  0
   39.7948   35.5719   -4.2355 C   0  0  0  0  0  0  0  0  0  0  0  0
   38.8771   34.4813   -4.8803 C   0  0  0  0  0  0  0  0  0  0  0  0
   39.6462   33.3332   -5.5442 C   0  0  0  0  0  0  0  0  0  0  0  0
   38.0317   33.8727   -3.7294 C   0  0  0  0  0  0  0  0  0  0  0  0
   37.8820   35.0770   -5.8945 C   0  0  0  0  0  0  0  0  0  0  0  0
   38.1183   37.4787   -1.2383 C   0  0  0  0  0  0  0  0  0  0  0  0
   40.2732   36.6445   -0.2589 C   0  0  0  0  0  0  0  0  0  0  0  0
   38.9976   36.2312   -1.0028 C   0  0  0  0  0  0  0  0  0  0  0  0
   38.2970   35.1189   -0.2233 C   0  0  0  0  0  0  0  0  0  0  0  0
   35.7921   41.8339   -3.9344 N   0  0  0  0  0  0  0  0  0  0  0  0
   35.0945   42.5279   -3.6661 H   0  0  0  0  0  0  0  0  0  0  0  0
   36.0707   42.0674   -5.5286 P   0  0  0  0  0  0  0  0  0  0  0  0
   37.1803   43.0300   -5.8179 O   0  0  0  0  0  0  0  0  0  0  0  0
   36.3699   40.6257   -6.1658 O   0  0  0  0  0  0  0  0  0  0  0  0
   37.1994   40.2776   -5.8029 H   0  0  0  0  0  0  0  0  0  0  0  0
   34.5038   42.5853   -6.2954 C   0  0  0  0  0  0  0  0  0  0  0  0
   34.4258   42.2064   -7.6942 N   0  0  0  0  0  0  0  0  0  0  0  0
   33.4891   42.7709   -8.5081 C   0  0  0  0  0  0  0  0  0  0  0  0
   32.6306   43.5487   -8.1129 O   0  0  0  0  0  0  0  0  0  0  0  0
   35.0520   41.5389   -8.0568 H   0  0  0  0  0  0  0  0  0  0  0  0
   33.6994   42.3730   -9.7811 O   0  0  0  0  0  0  0  0  0  0  0  0
   33.3909   41.0003  -10.0520 C   0  0  0  0  0  0  0  0  0  0  0  0
   32.0447   40.8685  -10.7175 C   0  0  0  0  0  0  0  0  0  0  0  0
   31.0641   40.0249  -10.1764 C   0  0  0  0  0  0  0  0  0  0  0  0
   29.8164   39.9040  -10.7899 C   0  0  0  0  0  0  0  0  0  0  0  0
   29.5368   40.6222  -11.9517 C   0  0  0  0  0  0  0  0  0  0  0  0
   30.5061   41.4599  -12.5020 C   0  0  0  0  0  0  0  0  0  0  0  0
   31.7540   41.5828  -11.8887 C   0  0  0  0  0  0  0  0  0  0  0  0
   36.3228   42.0991   -1.4810 C   0  0  0  0  0  0  0  0  0  0  0  0
   37.3226   42.6124   -0.4210 C   0  0  0  0  0  0  0  0  0  0  0  0
   37.5313   44.1262   -0.4837 C   0  0  0  0  0  0  0  0  0  0  0  0
   36.8238   42.2252    0.9762 C   0  0  0  0  0  0  0  0  0  0  0  0
 17 18  1  0
 18 19  1  0
 18 16  1  0
  6 16  1  0
  6  7  1  0
  7  8  1  0
  8  9  1  0
  8 10  1  0
  8 11  1  0
 11 12  1  0
 12 13  1  0
 12 14  1  0
 12 15  1  0
  6  2  1  0
  2  3  1  0
  3  4  2  0
  3  1  1  0
  1 39  1  0
 39 40  1  0
 40 41  1  0
 40 42  1  0
  1 20  1  0
 20 22  1  0
 22 23  2  0
 22 24  1  0
 22 26  1  0
 26 27  1  0
 27 28  1  0
 28 29  2  0
 28 31  1  0
 31 32  1  0
 32 33  1  0
 33 34  2  0
 34 35  1  0
 35 36  2  0
 36 37  1  0
 37 38  2  0
 38 33  1  0
  2  5  1  0
 20 21  1  0
 24 25  1  0
 27 30  1  0
M  END
> <minimizedAffinity>
-7.08702

> <CNNscore>
0.5755426884

> <CNNaffinity>
7.4201178551

> <CNN_VS>
4.2705945969

> <CNNaffinity_variance>
0.2414653748

$$$$
