


 29 30  0  0  0  0  0  0  0  0999 V2000
    8.2057   33.5821   73.9011 C   0  0  0  0  0  0  0  0  0  0  0  0
    7.1879   33.3295   72.9828 C   0  0  0  0  0  0  0  0  0  0  0  0
    7.7469   32.4013   71.6412 S   0  0  0  0  0  0  0  0  0  0  0  0
    9.3351   32.3512   72.2363 C   0  0  0  0  0  0  0  0  0  0  0  0
    9.4294   33.0040   73.4375 C   0  0  0  0  0  0  0  0  0  0  0  0
   10.5741   33.0216   74.1416 F   0  0  0  0  0  0  0  0  0  0  0  0
    5.8025   33.7412   72.9439 C   0  0  0  0  0  0  0  0  0  0  0  0
    5.2614   34.6632   73.5454 O   0  0  0  0  0  0  0  0  0  0  0  0
    5.0368   32.9131   72.2041 O   0  0  0  0  0  0  0  0  0  0  0  0
    5.4309   32.2028   71.7371 H   0  0  0  0  0  0  0  0  0  0  0  0
    8.0463   34.2680   75.1338 N   0  0  0  0  0  0  0  0  0  0  0  0
    8.4145   35.6236   75.1946 C   0  0  0  0  0  0  0  0  0  0  0  0
    8.7165   36.2676   74.1762 O   0  0  0  0  0  0  0  0  0  0  0  0
    8.4241   36.3804   76.5331 C   0  0  0  0  0  0  0  0  0  0  0  0
    7.1532   36.2041   77.3679 C   0  0  0  0  0  0  0  0  0  0  0  0
    7.1583   37.1404   78.5773 C   0  0  0  0  0  0  0  0  0  0  0  0
    8.4227   36.9512   79.4296 C   0  0  0  0  0  0  0  0  0  0  0  0
    8.4271   37.9230   80.6087 C   0  0  0  0  0  0  0  0  0  0  0  0
    9.6930   37.1239   78.5809 C   0  0  0  0  0  0  0  0  0  0  0  0
    9.6902   36.1882   77.3694 C   0  0  0  0  0  0  0  0  0  0  0  0
    6.4125   32.8733   76.2791 C   0  0  0  0  0  0  0  0  0  0  0  0
    7.7022   33.5516   76.3122 N   0  0  0  0  0  0  0  0  0  0  0  0
    8.7651   32.6724   76.7943 C   0  0  0  0  0  0  0  0  0  0  0  0
   10.4069   31.6940   71.5655 C   0  0  0  0  0  0  0  0  0  0  0  0
   11.3109   31.1471   70.9956 C   0  0  0  0  0  0  0  0  0  0  0  0
   12.4220   30.4917   70.2745 C   0  0  0  0  0  0  0  0  0  0  0  0
   12.3713   30.8812   68.7937 C   0  0  0  0  0  0  0  0  0  0  0  0
   12.2892   28.9687   70.4115 C   0  0  0  0  0  0  0  0  0  0  0  0
   13.7549   30.9482   70.8829 C   0  0  0  0  0  0  0  0  0  0  0  0
 21 22  1  0
 22 23  1  0
 22 11  1  0
 11  1  1  0
  1  2  2  0
  2  7  1  0
  7  8  2  0
  7  9  1  0
  2  3  1  0
  3  4  1  0
  4 24  1  0
 24 25  3  0
 25 26  1  0
 26 27  1  0
 26 28  1  0
 26 29  1  0
  4  5  2  0
  5  6  1  0
 11 12  1  0
 12 13  2  0
 14 12  1  0
 14 15  1  0
 15 16  1  0
 16 17  1  0
 17 18  1  0
 17 19  1  0
 19 20  1  0
  5  1  1  0
 20 14  1  0
  9 10  1  0
M  END
> <minimizedAffinity>
-5.40552

> <CNNscore>
0.5674046874

> <CNNaffinity>
6.2855000496

> <CNN_VS>
3.5664222240

> <CNNaffinity_variance>
0.0551592000

$$$$



 29 30  0  0  0  0  0  0  0  0999 V2000
    8.1713   34.0157   73.8504 C   0  0  0  0  0  0  0  0  0  0  0  0
    7.0804   33.4618   73.1825 C   0  0  0  0  0  0  0  0  0  0  0  0
    7.5717   32.3647   71.9460 S   0  0  0  0  0  0  0  0  0  0  0  0
    9.2188   32.6319   72.2534 C   0  0  0  0  0  0  0  0  0  0  0  0
    9.3875   33.5152   73.2874 C   0  0  0  0  0  0  0  0  0  0  0  0
   10.6072   33.8143   73.7664 F   0  0  0  0  0  0  0  0  0  0  0  0
    5.6575   33.6812   73.3156 C   0  0  0  0  0  0  0  0  0  0  0  0
    5.0425   34.1571   74.2644 O   0  0  0  0  0  0  0  0  0  0  0  0
    4.9588   33.1988   72.2676 O   0  0  0  0  0  0  0  0  0  0  0  0
    5.4099   32.8312   71.5332 H   0  0  0  0  0  0  0  0  0  0  0  0
    8.0918   34.9057   74.9536 N   0  0  0  0  0  0  0  0  0  0  0  0
    8.1692   34.3680   76.2504 C   0  0  0  0  0  0  0  0  0  0  0  0
    8.4632   33.1777   76.4505 O   0  0  0  0  0  0  0  0  0  0  0  0
    7.9256   35.2489   77.4869 C   0  0  0  0  0  0  0  0  0  0  0  0
    6.5582   35.0496   78.1454 C   0  0  0  0  0  0  0  0  0  0  0  0
    6.3175   36.0957   79.2349 C   0  0  0  0  0  0  0  0  0  0  0  0
    7.4487   36.0952   80.2747 C   0  0  0  0  0  0  0  0  0  0  0  0
    7.2094   37.1736   81.3304 C   0  0  0  0  0  0  0  0  0  0  0  0
    8.8178   36.2896   79.6029 C   0  0  0  0  0  0  0  0  0  0  0  0
    9.0611   35.2441   78.5116 C   0  0  0  0  0  0  0  0  0  0  0  0
    8.6822   37.2378   75.3256 C   0  0  0  0  0  0  0  0  0  0  0  0
    7.7560   36.2715   74.7487 N   0  0  0  0  0  0  0  0  0  0  0  0
    7.4319   36.5929   73.3606 C   0  0  0  0  0  0  0  0  0  0  0  0
   10.2682   31.9947   71.5302 C   0  0  0  0  0  0  0  0  0  0  0  0
   11.1553   31.4547   70.9279 C   0  0  0  0  0  0  0  0  0  0  0  0
   12.2600   30.7859   70.2094 C   0  0  0  0  0  0  0  0  0  0  0  0
   12.1732   29.2726   70.4322 C   0  0  0  0  0  0  0  0  0  0  0  0
   13.6021   31.3086   70.7399 C   0  0  0  0  0  0  0  0  0  0  0  0
   12.1446   31.0944   68.7105 C   0  0  0  0  0  0  0  0  0  0  0  0
 21 22  1  0
 22 23  1  0
 22 11  1  0
 11  1  1  0
  1  2  2  0
  2  7  1  0
  7  8  2  0
  7  9  1  0
  2  3  1  0
  3  4  1  0
  4 24  1  0
 24 25  3  0
 25 26  1  0
 26 27  1  0
 26 28  1  0
 26 29  1  0
  4  5  2  0
  5  6  1  0
 11 12  1  0
 12 13  2  0
 14 12  1  0
 14 15  1  0
 15 16  1  0
 16 17  1  0
 17 18  1  0
 17 19  1  0
 19 20  1  0
  5  1  1  0
 20 14  1  0
  9 10  1  0
M  END
> <minimizedAffinity>
-5.71382

> <CNNscore>
0.5439165831

> <CNNaffinity>
6.5473809242

> <CNN_VS>
3.5612289906

> <CNNaffinity_variance>
0.1072390452

$$$$



 29 30  0  0  0  0  0  0  0  0999 V2000
    6.0373   33.9581   76.7518 C   0  0  0  0  0  0  0  0  0  0  0  0
    4.7165   33.5513   76.9325 C   0  0  0  0  0  0  0  0  0  0  0  0
    4.6157   32.0311   77.7406 S   0  0  0  0  0  0  0  0  0  0  0  0
    6.3031   31.8778   77.8305 C   0  0  0  0  0  0  0  0  0  0  0  0
    6.9246   32.9684   77.2808 C   0  0  0  0  0  0  0  0  0  0  0  0
    8.2607   33.1095   77.3154 F   0  0  0  0  0  0  0  0  0  0  0  0
    3.4621   34.1459   76.5280 C   0  0  0  0  0  0  0  0  0  0  0  0
    2.7620   34.9454   77.1406 O   0  0  0  0  0  0  0  0  0  0  0  0
    3.0086   33.6521   75.3576 O   0  0  0  0  0  0  0  0  0  0  0  0
    3.5284   33.0402   74.8744 H   0  0  0  0  0  0  0  0  0  0  0  0
    6.4444   35.1891   76.1734 N   0  0  0  0  0  0  0  0  0  0  0  0
    7.0130   35.1655   74.8877 C   0  0  0  0  0  0  0  0  0  0  0  0
    7.0190   34.1363   74.1919 O   0  0  0  0  0  0  0  0  0  0  0  0
    7.6247   36.4342   74.2709 C   0  0  0  0  0  0  0  0  0  0  0  0
    9.0731   36.2741   73.8024 C   0  0  0  0  0  0  0  0  0  0  0  0
    9.6678   37.6219   73.3913 C   0  0  0  0  0  0  0  0  0  0  0  0
    8.8049   38.3158   72.3261 C   0  0  0  0  0  0  0  0  0  0  0  0
    9.3942   39.6771   71.9595 C   0  0  0  0  0  0  0  0  0  0  0  0
    7.3512   38.4661   72.8035 C   0  0  0  0  0  0  0  0  0  0  0  0
    6.7537   37.1185   73.2161 C   0  0  0  0  0  0  0  0  0  0  0  0
    5.3040   37.2612   76.7494 C   0  0  0  0  0  0  0  0  0  0  0  0
    6.4467   36.3790   76.9507 N   0  0  0  0  0  0  0  0  0  0  0  0
    6.7127   36.1512   78.3694 C   0  0  0  0  0  0  0  0  0  0  0  0
    6.9618   30.7611   78.4218 C   0  0  0  0  0  0  0  0  0  0  0  0
    7.5241   29.8234   78.9176 C   0  0  0  0  0  0  0  0  0  0  0  0
    8.2382   28.6754   79.5143 C   0  0  0  0  0  0  0  0  0  0  0  0
    7.9983   27.4247   78.6625 C   0  0  0  0  0  0  0  0  0  0  0  0
    7.7174   28.4366   80.9382 C   0  0  0  0  0  0  0  0  0  0  0  0
    9.7402   28.9870   79.5620 C   0  0  0  0  0  0  0  0  0  0  0  0
 21 22  1  0
 22 23  1  0
 22 11  1  0
 11  1  1  0
  1  2  2  0
  2  7  1  0
  7  8  2  0
  7  9  1  0
  2  3  1  0
  3  4  1  0
  4 24  1  0
 24 25  3  0
 25 26  1  0
 26 27  1  0
 26 28  1  0
 26 29  1  0
  4  5  2  0
  5  6  1  0
 11 12  1  0
 12 13  2  0
 14 12  1  0
 14 15  1  0
 15 16  1  0
 16 17  1  0
 17 18  1  0
 17 19  1  0
 19 20  1  0
  5  1  1  0
 20 14  1  0
  9 10  1  0
M  END
> <minimizedAffinity>
-5.48730

> <CNNscore>
0.5075263381

> <CNNaffinity>
5.6367106438

> <CNN_VS>
2.8607790470

> <CNNaffinity_variance>
0.0065122820

$$$$



 29 30  0  0  0  0  0  0  0  0999 V2000
    5.5582   34.3487   76.4351 C   0  0  0  0  0  0  0  0  0  0  0  0
    4.4257   34.4293   77.2436 C   0  0  0  0  0  0  0  0  0  0  0  0
    3.7700   32.8724   77.5905 S   0  0  0  0  0  0  0  0  0  0  0  0
    4.9454   32.0820   76.6565 C   0  0  0  0  0  0  0  0  0  0  0  0
    5.8275   32.9805   76.1156 C   0  0  0  0  0  0  0  0  0  0  0  0
    6.8966   32.5787   75.4069 F   0  0  0  0  0  0  0  0  0  0  0  0
    3.7057   35.5617   77.7819 C   0  0  0  0  0  0  0  0  0  0  0  0
    2.5810   35.9590   77.4960 O   0  0  0  0  0  0  0  0  0  0  0  0
    4.4511   36.2893   78.6389 O   0  0  0  0  0  0  0  0  0  0  0  0
    5.3128   36.0029   78.8701 H   0  0  0  0  0  0  0  0  0  0  0  0
    6.3544   35.4509   76.0268 N   0  0  0  0  0  0  0  0  0  0  0  0
    6.4615   35.7224   74.6514 C   0  0  0  0  0  0  0  0  0  0  0  0
    5.7611   35.1348   73.8103 O   0  0  0  0  0  0  0  0  0  0  0  0
    7.4343   36.7934   74.1309 C   0  0  0  0  0  0  0  0  0  0  0  0
    8.7947   36.2494   73.6873 C   0  0  0  0  0  0  0  0  0  0  0  0
    9.7654   37.3898   73.3766 C   0  0  0  0  0  0  0  0  0  0  0  0
    9.1804   38.3589   72.3377 C   0  0  0  0  0  0  0  0  0  0  0  0
   10.1481   39.5113   72.0721 C   0  0  0  0  0  0  0  0  0  0  0  0
    7.8119   38.8945   72.7895 C   0  0  0  0  0  0  0  0  0  0  0  0
    6.8385   37.7550   73.1015 C   0  0  0  0  0  0  0  0  0  0  0  0
    8.5269   35.6378   77.1091 C   0  0  0  0  0  0  0  0  0  0  0  0
    7.1646   36.1374   76.9715 N   0  0  0  0  0  0  0  0  0  0  0  0
    7.1324   37.5909   76.8238 C   0  0  0  0  0  0  0  0  0  0  0  0
    4.9976   30.6680   76.4883 C   0  0  0  0  0  0  0  0  0  0  0  0
    5.0331   29.4764   76.3463 C   0  0  0  0  0  0  0  0  0  0  0  0
    5.0512   28.0084   76.1773 C   0  0  0  0  0  0  0  0  0  0  0  0
    3.8437   27.3959   76.8943 C   0  0  0  0  0  0  0  0  0  0  0  0
    6.3468   27.4433   76.7754 C   0  0  0  0  0  0  0  0  0  0  0  0
    4.9872   27.6736   74.6809 C   0  0  0  0  0  0  0  0  0  0  0  0
 21 22  1  0
 22 23  1  0
 22 11  1  0
 11  1  1  0
  1  2  2  0
  2  7  1  0
  7  8  2  0
  7  9  1  0
  2  3  1  0
  3  4  1  0
  4 24  1  0
 24 25  3  0
 25 26  1  0
 26 27  1  0
 26 28  1  0
 26 29  1  0
  4  5  2  0
  5  6  1  0
 11 12  1  0
 12 13  2  0
 14 12  1  0
 14 15  1  0
 15 16  1  0
 16 17  1  0
 17 18  1  0
 17 19  1  0
 19 20  1  0
  5  1  1  0
 20 14  1  0
  9 10  1  0
M  END
> <minimizedAffinity>
-5.43344

> <CNNscore>
0.4613571763

> <CNNaffinity>
5.3652787209

> <CNN_VS>
2.4753098488

> <CNNaffinity_variance>
0.0559489578

$$$$



 29 30  0  0  0  0  0  0  0  0999 V2000
    4.9024   31.7170   74.3927 C   0  0  0  0  0  0  0  0  0  0  0  0
    3.7202   31.7067   75.1311 C   0  0  0  0  0  0  0  0  0  0  0  0
    2.8237   30.2532   74.8912 S   0  0  0  0  0  0  0  0  0  0  0  0
    3.9612   29.6397   73.7918 C   0  0  0  0  0  0  0  0  0  0  0  0
    5.0076   30.5100   73.6320 C   0  0  0  0  0  0  0  0  0  0  0  0
    6.0728   30.1992   72.8736 F   0  0  0  0  0  0  0  0  0  0  0  0
    3.1173   32.6955   75.9968 C   0  0  0  0  0  0  0  0  0  0  0  0
    2.4348   33.6672   75.6889 O   0  0  0  0  0  0  0  0  0  0  0  0
    3.4578   32.5274   77.2910 O   0  0  0  0  0  0  0  0  0  0  0  0
    3.9786   31.7916   77.5466 H   0  0  0  0  0  0  0  0  0  0  0  0
    5.8799   32.7461   74.4240 N   0  0  0  0  0  0  0  0  0  0  0  0
    6.1085   33.4839   73.2492 C   0  0  0  0  0  0  0  0  0  0  0  0
    5.3780   33.3706   72.2508 O   0  0  0  0  0  0  0  0  0  0  0  0
    7.2621   34.4970   73.1644 C   0  0  0  0  0  0  0  0  0  0  0  0
    7.0137   35.8027   73.9237 C   0  0  0  0  0  0  0  0  0  0  0  0
    8.1102   36.8265   73.6256 C   0  0  0  0  0  0  0  0  0  0  0  0
    9.5062   36.2584   73.9241 C   0  0  0  0  0  0  0  0  0  0  0  0
   10.5880   37.2817   73.5816 C   0  0  0  0  0  0  0  0  0  0  0  0
    9.7434   34.9443   73.1620 C   0  0  0  0  0  0  0  0  0  0  0  0
    8.6470   33.9179   73.4582 C   0  0  0  0  0  0  0  0  0  0  0  0
    8.1066   32.4618   75.3659 C   0  0  0  0  0  0  0  0  0  0  0  0
    6.7275   32.8940   75.5553 N   0  0  0  0  0  0  0  0  0  0  0  0
    6.6537   34.2160   76.1735 C   0  0  0  0  0  0  0  0  0  0  0  0
    3.8314   28.3751   73.1480 C   0  0  0  0  0  0  0  0  0  0  0  0
    3.7298   27.3104   72.6027 C   0  0  0  0  0  0  0  0  0  0  0  0
    3.6261   26.0055   71.9168 C   0  0  0  0  0  0  0  0  0  0  0  0
    4.0451   24.8879   72.8773 C   0  0  0  0  0  0  0  0  0  0  0  0
    4.5468   26.0015   70.6888 C   0  0  0  0  0  0  0  0  0  0  0  0
    2.1741   25.7856   71.4712 C   0  0  0  0  0  0  0  0  0  0  0  0
 21 22  1  0
 22 23  1  0
 22 11  1  0
 11  1  1  0
  1  2  2  0
  2  7  1  0
  7  8  2  0
  7  9  1  0
  2  3  1  0
  3  4  1  0
  4 24  1  0
 24 25  3  0
 25 26  1  0
 26 27  1  0
 26 28  1  0
 26 29  1  0
  4  5  2  0
  5  6  1  0
 11 12  1  0
 12 13  2  0
 14 12  1  0
 14 15  1  0
 15 16  1  0
 16 17  1  0
 17 18  1  0
 17 19  1  0
 19 20  1  0
  5  1  1  0
 20 14  1  0
  9 10  1  0
M  END
> <minimizedAffinity>
-5.64487

> <CNNscore>
0.3819008470

> <CNNaffinity>
4.9090805054

> <CNN_VS>
1.8747819662

> <CNNaffinity_variance>
0.4468164742

$$$$



 29 30  0  0  0  0  0  0  0  0999 V2000
    6.4083   34.1747   76.5201 C   0  0  0  0  0  0  0  0  0  0  0  0
    5.2117   33.4684   76.4113 C   0  0  0  0  0  0  0  0  0  0  0  0
    5.0605   32.2648   77.6371 S   0  0  0  0  0  0  0  0  0  0  0  0
    6.5771   32.6371   78.3004 C   0  0  0  0  0  0  0  0  0  0  0  0
    7.1705   33.6678   77.6196 C   0  0  0  0  0  0  0  0  0  0  0  0
    8.3415   34.1934   78.0181 F   0  0  0  0  0  0  0  0  0  0  0  0
    4.1354   33.5404   75.4484 C   0  0  0  0  0  0  0  0  0  0  0  0
    2.9481   33.7779   75.6448 O   0  0  0  0  0  0  0  0  0  0  0  0
    4.5315   33.2064   74.2031 O   0  0  0  0  0  0  0  0  0  0  0  0
    5.4341   33.0213   74.0323 H   0  0  0  0  0  0  0  0  0  0  0  0
    6.7953   35.2643   75.6963 N   0  0  0  0  0  0  0  0  0  0  0  0
    7.4884   34.9857   74.5051 C   0  0  0  0  0  0  0  0  0  0  0  0
    7.6253   33.8259   74.0818 O   0  0  0  0  0  0  0  0  0  0  0  0
    8.0801   36.1196   73.6517 C   0  0  0  0  0  0  0  0  0  0  0  0
    7.0999   37.2531   73.3394 C   0  0  0  0  0  0  0  0  0  0  0  0
    7.6990   38.2320   72.3284 C   0  0  0  0  0  0  0  0  0  0  0  0
    9.0542   38.7754   72.8070 C   0  0  0  0  0  0  0  0  0  0  0  0
    9.6536   39.7191   71.7654 C   0  0  0  0  0  0  0  0  0  0  0  0
   10.0290   37.6296   73.1240 C   0  0  0  0  0  0  0  0  0  0  0  0
    9.4316   36.6480   74.1353 C   0  0  0  0  0  0  0  0  0  0  0  0
    5.3062   36.9705   76.5893 C   0  0  0  0  0  0  0  0  0  0  0  0
    6.6490   36.5997   76.1603 N   0  0  0  0  0  0  0  0  0  0  0  0
    7.6592   36.9933   77.1400 C   0  0  0  0  0  0  0  0  0  0  0  0
    7.1297   31.9645   79.4286 C   0  0  0  0  0  0  0  0  0  0  0  0
    7.6024   31.4017   80.3778 C   0  0  0  0  0  0  0  0  0  0  0  0
    8.2086   30.7158   81.5380 C   0  0  0  0  0  0  0  0  0  0  0  0
    7.2938   29.5738   81.9925 C   0  0  0  0  0  0  0  0  0  0  0  0
    8.3888   31.7193   82.6853 C   0  0  0  0  0  0  0  0  0  0  0  0
    9.5758   30.1506   81.1301 C   0  0  0  0  0  0  0  0  0  0  0  0
 21 22  1  0
 22 23  1  0
 22 11  1  0
 11  1  1  0
  1  2  2  0
  2  7  1  0
  7  8  2  0
  7  9  1  0
  2  3  1  0
  3  4  1  0
  4 24  1  0
 24 25  3  0
 25 26  1  0
 26 27  1  0
 26 28  1  0
 26 29  1  0
  4  5  2  0
  5  6  1  0
 11 12  1  0
 12 13  2  0
 14 12  1  0
 14 15  1  0
 15 16  1  0
 16 17  1  0
 17 18  1  0
 17 19  1  0
 19 20  1  0
  5  1  1  0
 20 14  1  0
  9 10  1  0
M  END
> <minimizedAffinity>
-5.86446

> <CNNscore>
0.3769448698

> <CNNaffinity>
5.3942427635

> <CNN_VS>
2.0333321095

> <CNNaffinity_variance>
0.0770063922

$$$$



 29 30  0  0  0  0  0  0  0  0999 V2000
    5.9868   31.2049   73.9594 C   0  0  0  0  0  0  0  0  0  0  0  0
    5.0967   32.0819   74.5771 C   0  0  0  0  0  0  0  0  0  0  0  0
    3.5577   31.3525   74.8480 S   0  0  0  0  0  0  0  0  0  0  0  0
    4.0347   29.8921   74.1280 C   0  0  0  0  0  0  0  0  0  0  0  0
    5.3399   29.9525   73.7148 C   0  0  0  0  0  0  0  0  0  0  0  0
    5.9636   28.8827   73.1923 F   0  0  0  0  0  0  0  0  0  0  0  0
    5.2274   33.4668   74.9714 C   0  0  0  0  0  0  0  0  0  0  0  0
    5.2793   33.9382   76.1027 O   0  0  0  0  0  0  0  0  0  0  0  0
    5.1927   34.3102   73.9195 O   0  0  0  0  0  0  0  0  0  0  0  0
    5.1530   33.9701   73.0473 H   0  0  0  0  0  0  0  0  0  0  0  0
    7.3446   31.4909   73.6594 N   0  0  0  0  0  0  0  0  0  0  0  0
    7.6437   32.0742   72.4155 C   0  0  0  0  0  0  0  0  0  0  0  0
    6.7535   32.4875   71.6539 O   0  0  0  0  0  0  0  0  0  0  0  0
    9.1004   32.2580   71.9589 C   0  0  0  0  0  0  0  0  0  0  0  0
    9.9620   33.0883   72.9135 C   0  0  0  0  0  0  0  0  0  0  0  0
   11.3275   33.3918   72.2950 C   0  0  0  0  0  0  0  0  0  0  0  0
   12.0470   32.1053   71.8616 C   0  0  0  0  0  0  0  0  0  0  0  0
   13.3898   32.4333   71.2102 C   0  0  0  0  0  0  0  0  0  0  0  0
   11.1712   31.2758   70.9084 C   0  0  0  0  0  0  0  0  0  0  0  0
    9.8036   30.9709   71.5249 C   0  0  0  0  0  0  0  0  0  0  0  0
    8.3547   31.5573   75.8733 C   0  0  0  0  0  0  0  0  0  0  0  0
    8.3799   31.0271   74.5158 N   0  0  0  0  0  0  0  0  0  0  0  0
    8.5435   29.5751   74.5036 C   0  0  0  0  0  0  0  0  0  0  0  0
    3.1779   28.7608   73.9994 C   0  0  0  0  0  0  0  0  0  0  0  0
    2.4589   27.8048   73.8983 C   0  0  0  0  0  0  0  0  0  0  0  0
    1.5879   26.6156   73.7926 C   0  0  0  0  0  0  0  0  0  0  0  0
    2.3107   25.3983   74.3783 C   0  0  0  0  0  0  0  0  0  0  0  0
    1.2567   26.3571   72.3163 C   0  0  0  0  0  0  0  0  0  0  0  0
    0.2914   26.8709   74.5731 C   0  0  0  0  0  0  0  0  0  0  0  0
 21 22  1  0
 22 23  1  0
 22 11  1  0
 11  1  1  0
  1  2  2  0
  2  7  1  0
  7  8  2  0
  7  9  1  0
  2  3  1  0
  3  4  1  0
  4 24  1  0
 24 25  3  0
 25 26  1  0
 26 27  1  0
 26 28  1  0
 26 29  1  0
  4  5  2  0
  5  6  1  0
 11 12  1  0
 12 13  2  0
 14 12  1  0
 14 15  1  0
 15 16  1  0
 16 17  1  0
 17 18  1  0
 17 19  1  0
 19 20  1  0
  5  1  1  0
 20 14  1  0
  9 10  1  0
M  END
> <minimizedAffinity>
-4.68048

> <CNNscore>
0.3691156209

> <CNNaffinity>
5.0549321175

> <CNN_VS>
1.8658543825

> <CNNaffinity_variance>
0.1250870973

$$$$



 29 30  0  0  0  0  0  0  0  0999 V2000
    8.2389   33.4402   73.5775 C   0  0  0  0  0  0  0  0  0  0  0  0
    7.4918   32.3540   73.1246 C   0  0  0  0  0  0  0  0  0  0  0  0
    8.4553   31.2380   72.2301 S   0  0  0  0  0  0  0  0  0  0  0  0
    9.8523   32.1856   72.4005 C   0  0  0  0  0  0  0  0  0  0  0  0
    9.5949   33.3099   73.1405 C   0  0  0  0  0  0  0  0  0  0  0  0
   10.5714   34.1689   73.4795 F   0  0  0  0  0  0  0  0  0  0  0  0
    6.0845   32.0409   73.2342 C   0  0  0  0  0  0  0  0  0  0  0  0
    5.5375   31.2250   73.9689 O   0  0  0  0  0  0  0  0  0  0  0  0
    5.3357   32.6971   72.3242 O   0  0  0  0  0  0  0  0  0  0  0  0
    5.7346   33.3242   71.7537 H   0  0  0  0  0  0  0  0  0  0  0  0
    7.7441   34.4943   74.3896 N   0  0  0  0  0  0  0  0  0  0  0  0
    7.0168   35.5266   73.7714 C   0  0  0  0  0  0  0  0  0  0  0  0
    6.6630   35.4588   72.5825 O   0  0  0  0  0  0  0  0  0  0  0  0
    6.5953   36.7778   74.5596 C   0  0  0  0  0  0  0  0  0  0  0  0
    6.3085   38.0051   73.6909 C   0  0  0  0  0  0  0  0  0  0  0  0
    6.0947   39.2492   74.5545 C   0  0  0  0  0  0  0  0  0  0  0  0
    4.9885   39.0265   75.5974 C   0  0  0  0  0  0  0  0  0  0  0  0
    4.8191   40.2658   76.4749 C   0  0  0  0  0  0  0  0  0  0  0  0
    5.2826   37.7884   76.4601 C   0  0  0  0  0  0  0  0  0  0  0  0
    5.4975   36.5418   75.5981 C   0  0  0  0  0  0  0  0  0  0  0  0
    8.2211   33.3283   76.4727 C   0  0  0  0  0  0  0  0  0  0  0  0
    8.1362   34.5925   75.7523 N   0  0  0  0  0  0  0  0  0  0  0  0
    9.3244   35.4169   75.9617 C   0  0  0  0  0  0  0  0  0  0  0  0
   11.1182   31.8277   71.8529 C   0  0  0  0  0  0  0  0  0  0  0  0
   12.1809   31.5238   71.3844 C   0  0  0  0  0  0  0  0  0  0  0  0
   13.4767   31.1363   70.7887 C   0  0  0  0  0  0  0  0  0  0  0  0
   14.5874   32.0255   71.3570 C   0  0  0  0  0  0  0  0  0  0  0  0
   13.4079   31.3082   69.2651 C   0  0  0  0  0  0  0  0  0  0  0  0
   13.7669   29.6679   71.1277 C   0  0  0  0  0  0  0  0  0  0  0  0
 21 22  1  0
 22 23  1  0
 22 11  1  0
 11  1  1  0
  1  2  2  0
  2  7  1  0
  7  8  2  0
  7  9  1  0
  2  3  1  0
  3  4  1  0
  4 24  1  0
 24 25  3  0
 25 26  1  0
 26 27  1  0
 26 28  1  0
 26 29  1  0
  4  5  2  0
  5  6  1  0
 11 12  1  0
 12 13  2  0
 14 12  1  0
 14 15  1  0
 15 16  1  0
 16 17  1  0
 17 18  1  0
 17 19  1  0
 19 20  1  0
  5  1  1  0
 20 14  1  0
  9 10  1  0
M  END
> <minimizedAffinity>
-5.89914

> <CNNscore>
0.3424922824

> <CNNaffinity>
6.0240707397

> <CNN_VS>
2.0631978512

> <CNNaffinity_variance>
0.0104303956

$$$$



 29 30  0  0  0  0  0  0  0  0999 V2000
    5.7047   30.8239   74.3601 C   0  0  0  0  0  0  0  0  0  0  0  0
    4.5147   30.2991   74.8613 C   0  0  0  0  0  0  0  0  0  0  0  0
    4.2656   28.6696   74.3543 S   0  0  0  0  0  0  0  0  0  0  0  0
    5.6989   28.6496   73.4465 C   0  0  0  0  0  0  0  0  0  0  0  0
    6.3604   29.8454   73.5482 C   0  0  0  0  0  0  0  0  0  0  0  0
    7.5649   30.0344   72.9827 F   0  0  0  0  0  0  0  0  0  0  0  0
    3.4675   30.8862   75.6670 C   0  0  0  0  0  0  0  0  0  0  0  0
    2.8329   31.9162   75.4641 O   0  0  0  0  0  0  0  0  0  0  0  0
    3.2681   30.2199   76.8227 O   0  0  0  0  0  0  0  0  0  0  0  0
    3.7430   29.4311   76.9966 H   0  0  0  0  0  0  0  0  0  0  0  0
    6.2160   32.1168   74.6475 N   0  0  0  0  0  0  0  0  0  0  0  0
    6.0643   33.1240   73.6781 C   0  0  0  0  0  0  0  0  0  0  0  0
    5.3649   32.9591   72.6648 O   0  0  0  0  0  0  0  0  0  0  0  0
    6.7360   34.4960   73.8526 C   0  0  0  0  0  0  0  0  0  0  0  0
    8.2168   34.5284   73.4662 C   0  0  0  0  0  0  0  0  0  0  0  0
    8.8552   35.8625   73.8559 C   0  0  0  0  0  0  0  0  0  0  0  0
    8.0896   37.0500   73.2521 C   0  0  0  0  0  0  0  0  0  0  0  0
    8.7191   38.3728   73.6863 C   0  0  0  0  0  0  0  0  0  0  0  0
    6.6027   37.0048   73.6406 C   0  0  0  0  0  0  0  0  0  0  0  0
    5.9614   35.6703   73.2522 C   0  0  0  0  0  0  0  0  0  0  0  0
    6.2918   32.6610   77.0190 C   0  0  0  0  0  0  0  0  0  0  0  0
    7.0195   32.3287   75.8006 N   0  0  0  0  0  0  0  0  0  0  0  0
    8.0061   31.2752   76.0284 C   0  0  0  0  0  0  0  0  0  0  0  0
    6.1431   27.5193   72.7011 C   0  0  0  0  0  0  0  0  0  0  0  0
    6.5225   26.5720   72.0688 C   0  0  0  0  0  0  0  0  0  0  0  0
    7.0003   25.4222   71.2727 C   0  0  0  0  0  0  0  0  0  0  0  0
    6.4661   24.1214   71.8809 C   0  0  0  0  0  0  0  0  0  0  0  0
    8.5350   25.4017   71.2788 C   0  0  0  0  0  0  0  0  0  0  0  0
    6.4939   25.5638   69.8309 C   0  0  0  0  0  0  0  0  0  0  0  0
 21 22  1  0
 22 23  1  0
 22 11  1  0
 11  1  1  0
  1  2  2  0
  2  7  1  0
  7  8  2  0
  7  9  1  0
  2  3  1  0
  3  4  1  0
  4 24  1  0
 24 25  3  0
 25 26  1  0
 26 27  1  0
 26 28  1  0
 26 29  1  0
  4  5  2  0
  5  6  1  0
 11 12  1  0
 12 13  2  0
 14 12  1  0
 14 15  1  0
 15 16  1  0
 16 17  1  0
 17 18  1  0
 17 19  1  0
 19 20  1  0
  5  1  1  0
 20 14  1  0
  9 10  1  0
M  END
> <minimizedAffinity>
-5.10423

> <CNNscore>
0.3191799521

> <CNNaffinity>
5.0609316826

> <CNN_VS>
1.6153479815

> <CNNaffinity_variance>
0.2781207263

$$$$
