


 24 24  0  0  0  0  0  0  0  0999 V2000
   -1.1419   -3.8564   -5.7544 N   0  0  0  0  0  0  0  0  0  0  0  0
   -2.0333   -3.4734   -6.0693 H   0  0  0  0  0  0  0  0  0  0  0  0
   -0.8778   -5.2444   -6.6489 S   0  0  0  0  0  0  0  0  0  0  0  0
   -0.2191   -4.8223   -7.8655 O   0  0  0  0  0  0  0  0  0  0  0  0
   -0.3032   -6.2471   -5.7812 O   0  0  0  0  0  0  0  0  0  0  0  0
   -5.1481   -6.4593   -7.7223 C   0  0  0  0  0  0  0  0  0  0  0  0
   -4.8166   -6.1463   -6.4017 C   0  0  0  0  0  0  0  0  0  0  0  0
   -3.5081   -5.7762   -6.0745 C   0  0  0  0  0  0  0  0  0  0  0  0
   -2.5313   -5.7275   -7.0725 C   0  0  0  0  0  0  0  0  0  0  0  0
   -2.8538   -6.0258   -8.3968 C   0  0  0  0  0  0  0  0  0  0  0  0
   -4.1622   -6.3957   -8.7135 C   0  0  0  0  0  0  0  0  0  0  0  0
   -6.6025   -6.7767   -9.5768 C   0  0  0  0  0  0  0  0  0  0  0  0
   -6.3833   -6.8358   -8.1730 O   0  0  0  0  0  0  0  0  0  0  0  0
   -1.2020   -3.9029   -4.2857 C   0  0  0  0  0  0  0  0  0  0  0  0
   -2.2999   -2.9212   -3.8672 C   0  0  0  0  0  0  0  0  0  0  0  0
    0.1793   -3.5094   -3.7184 C   0  0  0  0  0  0  0  0  0  0  0  0
    0.3805   -2.0262   -3.2290 C   0  0  0  0  0  0  0  0  0  0  0  0
   -0.2066   -1.0395   -4.2415 C   0  0  0  0  0  0  0  0  0  0  0  0
   -0.3527   -1.8533   -1.8817 C   0  0  0  0  0  0  0  0  0  0  0  0
    1.9310   -1.8515   -3.0363 C   0  0  0  0  0  0  0  0  0  0  0  0
    2.5876   -0.7991   -2.0862 C   0  0  0  0  0  0  0  0  0  0  0  0
    1.9164    0.5827   -2.2037 C   0  0  0  0  0  0  0  0  0  0  0  0
    2.6291   -1.2244   -0.6150 C   0  0  0  0  0  0  0  0  0  0  0  0
    4.0538   -0.6228   -2.5588 C   0  0  0  0  0  0  0  0  0  0  0  0
 12 13  1  0
 13  6  1  0
  6  7  2  0
  7  8  1  0
  8  9  2  0
  9  3  1  0
  3  4  2  0
  3  5  2  0
  3  1  1  0
  1 14  1  0
 14 15  1  0
 14 16  1  0
 16 17  1  0
 17 18  1  0
 17 19  1  0
 17 20  1  0
 20 21  1  0
 21 22  1  0
 21 23  1  0
 21 24  1  0
  9 10  1  0
 10 11  2  0
 11  6  1  0
  1  2  1  0
M  END
> <minimizedAffinity>
-8.09089

> <CNNscore>
0.9106097817

> <CNNaffinity>
6.4959716797

> <CNN_VS>
5.9152951241

> <CNNaffinity_variance>
0.0419366360

$$$$



 24 24  0  0  0  0  0  0  0  0999 V2000
   -0.4597   -3.6110   -5.1870 N   0  0  0  0  0  0  0  0  0  0  0  0
   -0.9315   -3.4010   -6.0666 H   0  0  0  0  0  0  0  0  0  0  0  0
   -0.8306   -5.1986   -4.8152 S   0  0  0  0  0  0  0  0  0  0  0  0
    0.3625   -5.9681   -5.0917 O   0  0  0  0  0  0  0  0  0  0  0  0
   -1.4723   -5.2289   -3.5207 O   0  0  0  0  0  0  0  0  0  0  0  0
   -3.9358   -6.1977   -8.0125 C   0  0  0  0  0  0  0  0  0  0  0  0
   -4.3136   -6.1004   -6.6710 C   0  0  0  0  0  0  0  0  0  0  0  0
   -3.3612   -5.7960   -5.6931 C   0  0  0  0  0  0  0  0  0  0  0  0
   -2.0281   -5.5967   -6.0618 C   0  0  0  0  0  0  0  0  0  0  0  0
   -1.6418   -5.6791   -7.4000 C   0  0  0  0  0  0  0  0  0  0  0  0
   -2.5993   -5.9849   -8.3689 C   0  0  0  0  0  0  0  0  0  0  0  0
   -6.0986   -6.8636   -8.7436 C   0  0  0  0  0  0  0  0  0  0  0  0
   -4.7639   -6.4894   -9.0612 O   0  0  0  0  0  0  0  0  0  0  0  0
   -0.7954   -2.5189   -4.2610 C   0  0  0  0  0  0  0  0  0  0  0  0
   -1.7296   -1.5768   -5.0252 C   0  0  0  0  0  0  0  0  0  0  0  0
    0.5094   -1.8181   -3.8240 C   0  0  0  0  0  0  0  0  0  0  0  0
    0.7081   -1.5187   -2.2908 C   0  0  0  0  0  0  0  0  0  0  0  0
    0.0799   -2.6247   -1.4391 C   0  0  0  0  0  0  0  0  0  0  0  0
    2.2225   -1.4625   -1.9970 C   0  0  0  0  0  0  0  0  0  0  0  0
    0.0492   -0.1124   -2.0460 C   0  0  0  0  0  0  0  0  0  0  0  0
    0.0965    0.6583   -0.6877 C   0  0  0  0  0  0  0  0  0  0  0  0
   -1.2644    1.2876   -0.3335 C   0  0  0  0  0  0  0  0  0  0  0  0
    0.5936   -0.1833    0.4920 C   0  0  0  0  0  0  0  0  0  0  0  0
    1.0939    1.8309   -0.8729 C   0  0  0  0  0  0  0  0  0  0  0  0
 12 13  1  0
 13  6  1  0
  6  7  2  0
  7  8  1  0
  8  9  2  0
  9  3  1  0
  3  4  2  0
  3  5  2  0
  3  1  1  0
  1 14  1  0
 14 15  1  0
 14 16  1  0
 16 17  1  0
 17 18  1  0
 17 19  1  0
 17 20  1  0
 20 21  1  0
 21 22  1  0
 21 23  1  0
 21 24  1  0
  9 10  1  0
 10 11  2  0
 11  6  1  0
  1  2  1  0
M  END
> <minimizedAffinity>
-6.62947

> <CNNscore>
0.8838759065

> <CNNaffinity>
6.0051250458

> <CNN_VS>
5.3077855110

> <CNNaffinity_variance>
0.1116885543

$$$$



 24 24  0  0  0  0  0  0  0  0999 V2000
   -1.8382   -4.0401   -5.6866 N   0  0  0  0  0  0  0  0  0  0  0  0
   -2.6378   -4.3728   -5.1478 H   0  0  0  0  0  0  0  0  0  0  0  0
   -1.3558   -5.3132   -6.6576 S   0  0  0  0  0  0  0  0  0  0  0  0
   -0.5272   -4.7393   -7.6950 O   0  0  0  0  0  0  0  0  0  0  0  0
   -0.8811   -6.3829   -5.8096 O   0  0  0  0  0  0  0  0  0  0  0  0
   -5.2833   -6.6081   -8.5970 C   0  0  0  0  0  0  0  0  0  0  0  0
   -4.1453   -6.4038   -9.3812 C   0  0  0  0  0  0  0  0  0  0  0  0
   -2.9439   -6.0056   -8.7859 C   0  0  0  0  0  0  0  0  0  0  0  0
   -2.8877   -5.8058   -7.4040 C   0  0  0  0  0  0  0  0  0  0  0  0
   -4.0147   -6.0190   -6.6095 C   0  0  0  0  0  0  0  0  0  0  0  0
   -5.2098   -6.4148   -7.2129 C   0  0  0  0  0  0  0  0  0  0  0  0
   -6.5712   -7.5544  -10.3580 C   0  0  0  0  0  0  0  0  0  0  0  0
   -6.5139   -6.9941   -9.0522 O   0  0  0  0  0  0  0  0  0  0  0  0
   -0.9098   -3.4292   -4.7235 C   0  0  0  0  0  0  0  0  0  0  0  0
   -0.2148   -4.5860   -4.0004 C   0  0  0  0  0  0  0  0  0  0  0  0
   -1.7145   -2.5354   -3.7548 C   0  0  0  0  0  0  0  0  0  0  0  0
   -0.9502   -1.3737   -3.0157 C   0  0  0  0  0  0  0  0  0  0  0  0
   -0.7026   -1.7378   -1.5496 C   0  0  0  0  0  0  0  0  0  0  0  0
    0.4105   -1.1635   -3.7138 C   0  0  0  0  0  0  0  0  0  0  0  0
   -1.8552   -0.0992   -3.1828 C   0  0  0  0  0  0  0  0  0  0  0  0
   -1.3265    1.3701   -3.1287 C   0  0  0  0  0  0  0  0  0  0  0  0
   -2.4629    2.3844   -2.8977 C   0  0  0  0  0  0  0  0  0  0  0  0
   -0.2187    1.5987   -2.0954 C   0  0  0  0  0  0  0  0  0  0  0  0
   -0.7289    1.6823   -4.5250 C   0  0  0  0  0  0  0  0  0  0  0  0
 12 13  1  0
 13  6  1  0
  6  7  2  0
  7  8  1  0
  8  9  2  0
  9  3  1  0
  3  4  2  0
  3  5  2  0
  3  1  1  0
  1 14  1  0
 14 15  1  0
 14 16  1  0
 16 17  1  0
 17 18  1  0
 17 19  1  0
 17 20  1  0
 20 21  1  0
 21 22  1  0
 21 23  1  0
 21 24  1  0
  9 10  1  0
 10 11  2  0
 11  6  1  0
  1  2  1  0
M  END
> <minimizedAffinity>
-7.75885

> <CNNscore>
0.8403054476

> <CNNaffinity>
5.7765679359

> <CNN_VS>
4.8540816307

> <CNNaffinity_variance>
0.4572255909

$$$$



 24 24  0  0  0  0  0  0  0  0999 V2000
   -1.9114   -3.9547   -5.7638 N   0  0  0  0  0  0  0  0  0  0  0  0
   -2.7149   -4.2858   -5.2298 H   0  0  0  0  0  0  0  0  0  0  0  0
   -1.4021   -5.2407   -6.7036 S   0  0  0  0  0  0  0  0  0  0  0  0
   -0.5713   -4.6768   -7.7446 O   0  0  0  0  0  0  0  0  0  0  0  0
   -0.9213   -6.2860   -5.8291 O   0  0  0  0  0  0  0  0  0  0  0  0
   -5.2923   -6.6294   -8.6532 C   0  0  0  0  0  0  0  0  0  0  0  0
   -4.1485   -6.4294   -9.4300 C   0  0  0  0  0  0  0  0  0  0  0  0
   -2.9585   -6.0025   -8.8316 C   0  0  0  0  0  0  0  0  0  0  0  0
   -2.9198   -5.7696   -7.4543 C   0  0  0  0  0  0  0  0  0  0  0  0
   -4.0526   -5.9782   -6.6669 C   0  0  0  0  0  0  0  0  0  0  0  0
   -5.2362   -6.4028   -7.2733 C   0  0  0  0  0  0  0  0  0  0  0  0
   -6.5374   -7.7123  -10.3657 C   0  0  0  0  0  0  0  0  0  0  0  0
   -6.5132   -7.0412   -9.1121 O   0  0  0  0  0  0  0  0  0  0  0  0
   -1.0030   -3.3157   -4.7998 C   0  0  0  0  0  0  0  0  0  0  0  0
   -0.7315   -4.3545   -3.7084 C   0  0  0  0  0  0  0  0  0  0  0  0
   -1.6829   -2.0468   -4.2409 C   0  0  0  0  0  0  0  0  0  0  0  0
   -0.7589   -0.8937   -3.6965 C   0  0  0  0  0  0  0  0  0  0  0  0
   -0.7069    0.2704   -4.6894 C   0  0  0  0  0  0  0  0  0  0  0  0
   -1.3473   -0.3856   -2.3630 C   0  0  0  0  0  0  0  0  0  0  0  0
    0.6472   -1.5555   -3.4590 C   0  0  0  0  0  0  0  0  0  0  0  0
    1.6793   -1.0718   -2.3904 C   0  0  0  0  0  0  0  0  0  0  0  0
    1.3515   -1.6122   -0.9853 C   0  0  0  0  0  0  0  0  0  0  0  0
    3.1362   -1.3959   -2.7362 C   0  0  0  0  0  0  0  0  0  0  0  0
    1.5539    0.4717   -2.3135 C   0  0  0  0  0  0  0  0  0  0  0  0
 12 13  1  0
 13  6  1  0
  6  7  2  0
  7  8  1  0
  8  9  2  0
  9  3  1  0
  3  4  2  0
  3  5  2  0
  3  1  1  0
  1 14  1  0
 14 15  1  0
 14 16  1  0
 16 17  1  0
 17 18  1  0
 17 19  1  0
 17 20  1  0
 20 21  1  0
 21 22  1  0
 21 23  1  0
 21 24  1  0
  9 10  1  0
 10 11  2  0
 11  6  1  0
  1  2  1  0
M  END
> <minimizedAffinity>
-7.89383

> <CNNscore>
0.7573096752

> <CNNaffinity>
5.9476456642

> <CNN_VS>
4.5042095184

> <CNNaffinity_variance>
0.2968960702

$$$$



 24 24  0  0  0  0  0  0  0  0999 V2000
   -1.8516   -4.3161   -5.1417 N   0  0  0  0  0  0  0  0  0  0  0  0
   -2.3962   -4.8459   -4.4613 H   0  0  0  0  0  0  0  0  0  0  0  0
   -1.3409   -5.4105   -6.2984 S   0  0  0  0  0  0  0  0  0  0  0  0
   -0.5770   -4.6516   -7.2641 O   0  0  0  0  0  0  0  0  0  0  0  0
   -0.7862   -6.5633   -5.6261 O   0  0  0  0  0  0  0  0  0  0  0  0
   -5.2984   -6.5716   -8.2616 C   0  0  0  0  0  0  0  0  0  0  0  0
   -5.2415   -6.3192   -6.8886 C   0  0  0  0  0  0  0  0  0  0  0  0
   -4.0285   -5.9655   -6.2888 C   0  0  0  0  0  0  0  0  0  0  0  0
   -2.8715   -5.8724   -7.0669 C   0  0  0  0  0  0  0  0  0  0  0  0
   -2.9191   -6.1099   -8.4410 C   0  0  0  0  0  0  0  0  0  0  0  0
   -4.1340   -6.4639   -9.0305 C   0  0  0  0  0  0  0  0  0  0  0  0
   -6.2226   -7.3250  -10.3191 C   0  0  0  0  0  0  0  0  0  0  0  0
   -6.4147   -6.9261   -8.9677 O   0  0  0  0  0  0  0  0  0  0  0  0
   -0.8826   -3.5200   -4.3735 C   0  0  0  0  0  0  0  0  0  0  0  0
   -0.5526   -4.3341   -3.1196 C   0  0  0  0  0  0  0  0  0  0  0  0
   -1.5194   -2.1553   -4.0318 C   0  0  0  0  0  0  0  0  0  0  0  0
   -0.5650   -0.9905   -3.5712 C   0  0  0  0  0  0  0  0  0  0  0  0
    0.8939   -1.4543   -3.5764 C   0  0  0  0  0  0  0  0  0  0  0  0
   -0.7179    0.1853   -4.5596 C   0  0  0  0  0  0  0  0  0  0  0  0
   -1.0669   -0.5737   -2.1408 C   0  0  0  0  0  0  0  0  0  0  0  0
   -0.2570    0.3221   -1.1493 C   0  0  0  0  0  0  0  0  0  0  0  0
    0.7442    1.2351   -1.8825 C   0  0  0  0  0  0  0  0  0  0  0  0
   -1.1287    1.1658   -0.2137 C   0  0  0  0  0  0  0  0  0  0  0  0
    0.5809   -0.6356   -0.2634 C   0  0  0  0  0  0  0  0  0  0  0  0
 12 13  1  0
 13  6  1  0
  6  7  2  0
  7  8  1  0
  8  9  2  0
  9  3  1  0
  3  4  2  0
  3  5  2  0
  3  1  1  0
  1 14  1  0
 14 15  1  0
 14 16  1  0
 16 17  1  0
 17 18  1  0
 17 19  1  0
 17 20  1  0
 20 21  1  0
 21 22  1  0
 21 23  1  0
 21 24  1  0
  9 10  1  0
 10 11  2  0
 11  6  1  0
  1  2  1  0
M  END
> <minimizedAffinity>
-6.91934

> <CNNscore>
0.7090646029

> <CNNaffinity>
5.8654265404

> <CNN_VS>
4.1589665413

> <CNNaffinity_variance>
0.2655946910

$$$$



 24 24  0  0  0  0  0  0  0  0999 V2000
   -0.1271   -3.3287   -4.6401 N   0  0  0  0  0  0  0  0  0  0  0  0
   -0.3523   -3.1837   -5.6243 H   0  0  0  0  0  0  0  0  0  0  0  0
   -0.8419   -4.7739   -4.1963 S   0  0  0  0  0  0  0  0  0  0  0  0
    0.2356   -5.7253   -4.0351 O   0  0  0  0  0  0  0  0  0  0  0  0
   -1.7894   -4.5110   -3.1372 O   0  0  0  0  0  0  0  0  0  0  0  0
   -3.1019   -5.9242   -7.9953 C   0  0  0  0  0  0  0  0  0  0  0  0
   -1.7367   -5.6328   -8.0499 C   0  0  0  0  0  0  0  0  0  0  0  0
   -1.0465   -5.2791   -6.8859 C   0  0  0  0  0  0  0  0  0  0  0  0
   -1.7294   -5.2111   -5.6686 C   0  0  0  0  0  0  0  0  0  0  0  0
   -3.0901   -5.5122   -5.6002 C   0  0  0  0  0  0  0  0  0  0  0  0
   -3.7708   -5.8627   -6.7675 C   0  0  0  0  0  0  0  0  0  0  0  0
   -5.2359   -6.6380   -8.7647 C   0  0  0  0  0  0  0  0  0  0  0  0
   -3.8906   -6.2795   -9.0547 O   0  0  0  0  0  0  0  0  0  0  0  0
   -0.4596   -2.0757   -3.9458 C   0  0  0  0  0  0  0  0  0  0  0  0
   -1.3125   -1.2565   -4.9182 C   0  0  0  0  0  0  0  0  0  0  0  0
    0.8518   -1.3525   -3.5687 C   0  0  0  0  0  0  0  0  0  0  0  0
    1.2151   -1.2327   -2.0412 C   0  0  0  0  0  0  0  0  0  0  0  0
    0.8531    0.1558   -1.5076 C   0  0  0  0  0  0  0  0  0  0  0  0
    0.4064   -2.2923   -1.2627 C   0  0  0  0  0  0  0  0  0  0  0  0
    2.7542   -1.5393   -1.9476 C   0  0  0  0  0  0  0  0  0  0  0  0
    3.6001   -1.4114   -0.6402 C   0  0  0  0  0  0  0  0  0  0  0  0
    4.9860   -2.0692   -0.7828 C   0  0  0  0  0  0  0  0  0  0  0  0
    3.7655    0.0272   -0.1403 C   0  0  0  0  0  0  0  0  0  0  0  0
    2.8448   -2.2002    0.4605 C   0  0  0  0  0  0  0  0  0  0  0  0
 12 13  1  0
 13  6  1  0
  6  7  2  0
  7  8  1  0
  8  9  2  0
  9  3  1  0
  3  4  2  0
  3  5  2  0
  3  1  1  0
  1 14  1  0
 14 15  1  0
 14 16  1  0
 16 17  1  0
 17 18  1  0
 17 19  1  0
 17 20  1  0
 20 21  1  0
 21 22  1  0
 21 23  1  0
 21 24  1  0
  9 10  1  0
 10 11  2  0
 11  6  1  0
  1  2  1  0
M  END
> <minimizedAffinity>
-6.51587

> <CNNscore>
0.6976154447

> <CNNaffinity>
5.7581582069

> <CNN_VS>
4.0169801712

> <CNNaffinity_variance>
0.1353617460

$$$$



 24 24  0  0  0  0  0  0  0  0999 V2000
   -1.8076   -4.2319   -6.0314 N   0  0  0  0  0  0  0  0  0  0  0  0
   -2.7192   -4.3805   -5.5986 H   0  0  0  0  0  0  0  0  0  0  0  0
   -1.4756   -5.6059   -6.9250 S   0  0  0  0  0  0  0  0  0  0  0  0
   -0.6331   -5.1816   -8.0214 O   0  0  0  0  0  0  0  0  0  0  0  0
   -1.0724   -6.6566   -6.0182 O   0  0  0  0  0  0  0  0  0  0  0  0
   -5.5954   -6.5983   -8.6294 C   0  0  0  0  0  0  0  0  0  0  0  0
   -5.4271   -6.4221   -7.2538 C   0  0  0  0  0  0  0  0  0  0  0  0
   -4.1645   -6.1199   -6.7334 C   0  0  0  0  0  0  0  0  0  0  0  0
   -3.0700   -6.0020   -7.5941 C   0  0  0  0  0  0  0  0  0  0  0  0
   -3.2288   -6.1636   -8.9708 C   0  0  0  0  0  0  0  0  0  0  0  0
   -4.4925   -6.4665   -9.4808 C   0  0  0  0  0  0  0  0  0  0  0  0
   -6.8412   -8.1507   -9.9309 C   0  0  0  0  0  0  0  0  0  0  0  0
   -6.7700   -6.8970   -9.2634 O   0  0  0  0  0  0  0  0  0  0  0  0
   -0.9028   -3.7894   -4.9599 C   0  0  0  0  0  0  0  0  0  0  0  0
    0.1639   -4.8785   -4.8183 C   0  0  0  0  0  0  0  0  0  0  0  0
   -1.7207   -3.6024   -3.6634 C   0  0  0  0  0  0  0  0  0  0  0  0
   -0.9386   -3.2571   -2.3410 C   0  0  0  0  0  0  0  0  0  0  0  0
   -1.7159   -2.2372   -1.5049 C   0  0  0  0  0  0  0  0  0  0  0  0
   -0.7736   -4.5533   -1.5192 C   0  0  0  0  0  0  0  0  0  0  0  0
    0.4638   -2.7208   -2.8073 C   0  0  0  0  0  0  0  0  0  0  0  0
    1.2180   -1.5277   -2.1373 C   0  0  0  0  0  0  0  0  0  0  0  0
    0.5791   -0.1706   -2.4887 C   0  0  0  0  0  0  0  0  0  0  0  0
    1.3561   -1.6499   -0.6164 C   0  0  0  0  0  0  0  0  0  0  0  0
    2.6497   -1.5125   -2.7325 C   0  0  0  0  0  0  0  0  0  0  0  0
 12 13  1  0
 13  6  1  0
  6  7  2  0
  7  8  1  0
  8  9  2  0
  9  3  1  0
  3  4  2  0
  3  5  2  0
  3  1  1  0
  1 14  1  0
 14 15  1  0
 14 16  1  0
 16 17  1  0
 17 18  1  0
 17 19  1  0
 17 20  1  0
 20 21  1  0
 21 22  1  0
 21 23  1  0
 21 24  1  0
  9 10  1  0
 10 11  2  0
 11  6  1  0
  1  2  1  0
M  END
> <minimizedAffinity>
-7.52512

> <CNNscore>
0.6957181692

> <CNNaffinity>
6.0409111977

> <CNN_VS>
4.2027716637

> <CNNaffinity_variance>
0.0439869016

$$$$



 24 24  0  0  0  0  0  0  0  0999 V2000
   -1.7985   -5.2065   -4.2164 N   0  0  0  0  0  0  0  0  0  0  0  0
   -1.5591   -6.1923   -4.1105 H   0  0  0  0  0  0  0  0  0  0  0  0
   -1.4245   -4.7929   -5.7930 S   0  0  0  0  0  0  0  0  0  0  0  0
   -1.5104   -3.3508   -5.8641 O   0  0  0  0  0  0  0  0  0  0  0  0
   -0.2280   -5.5038   -6.1824 O   0  0  0  0  0  0  0  0  0  0  0  0
   -4.9611   -6.5312   -8.1025 C   0  0  0  0  0  0  0  0  0  0  0  0
   -3.7745   -6.2129   -8.7678 C   0  0  0  0  0  0  0  0  0  0  0  0
   -2.6932   -5.6791   -8.0593 C   0  0  0  0  0  0  0  0  0  0  0  0
   -2.8064   -5.4584   -6.6841 C   0  0  0  0  0  0  0  0  0  0  0  0
   -3.9822   -5.7842   -6.0072 C   0  0  0  0  0  0  0  0  0  0  0  0
   -5.0567   -6.3151   -6.7231 C   0  0  0  0  0  0  0  0  0  0  0  0
   -6.1308   -7.0911  -10.0960 C   0  0  0  0  0  0  0  0  0  0  0  0
   -6.0876   -7.0545   -8.6750 O   0  0  0  0  0  0  0  0  0  0  0  0
   -1.1813   -4.5018   -3.0828 C   0  0  0  0  0  0  0  0  0  0  0  0
    0.1965   -4.0368   -3.5618 C   0  0  0  0  0  0  0  0  0  0  0  0
   -1.0854   -5.4729   -1.8858 C   0  0  0  0  0  0  0  0  0  0  0  0
   -1.5270   -4.9442   -0.4697 C   0  0  0  0  0  0  0  0  0  0  0  0
   -0.3047   -4.6849    0.4148 C   0  0  0  0  0  0  0  0  0  0  0  0
   -2.2939   -3.6183   -0.6614 C   0  0  0  0  0  0  0  0  0  0  0  0
   -2.4796   -6.0493    0.1157 C   0  0  0  0  0  0  0  0  0  0  0  0
   -3.1367   -5.9860    1.5319 C   0  0  0  0  0  0  0  0  0  0  0  0
   -3.5882   -4.5585    1.8954 C   0  0  0  0  0  0  0  0  0  0  0  0
   -4.3064   -6.9568    1.7228 C   0  0  0  0  0  0  0  0  0  0  0  0
   -2.0378   -6.3783    2.5530 C   0  0  0  0  0  0  0  0  0  0  0  0
 12 13  1  0
 13  6  1  0
  6  7  2  0
  7  8  1  0
  8  9  2  0
  9  3  1  0
  3  4  2  0
  3  5  2  0
  3  1  1  0
  1 14  1  0
 14 15  1  0
 14 16  1  0
 16 17  1  0
 17 18  1  0
 17 19  1  0
 17 20  1  0
 20 21  1  0
 21 22  1  0
 21 23  1  0
 21 24  1  0
  9 10  1  0
 10 11  2  0
 11  6  1  0
  1  2  1  0
M  END
> <minimizedAffinity>
-6.49957

> <CNNscore>
0.6850818396

> <CNNaffinity>
5.9745407104

> <CNN_VS>
4.0930495262

> <CNNaffinity_variance>
0.1610758007

$$$$



 24 24  0  0  0  0  0  0  0  0999 V2000
   -1.6830   -5.5790   -4.0884 N   0  0  0  0  0  0  0  0  0  0  0  0
   -2.4827   -6.1806   -4.2858 H   0  0  0  0  0  0  0  0  0  0  0  0
   -1.1193   -5.0366   -5.5664 S   0  0  0  0  0  0  0  0  0  0  0  0
   -1.1858   -3.5924   -5.5193 O   0  0  0  0  0  0  0  0  0  0  0  0
    0.1101   -5.7320   -5.8720 O   0  0  0  0  0  0  0  0  0  0  0  0
   -4.4093   -6.4531   -8.4007 C   0  0  0  0  0  0  0  0  0  0  0  0
   -4.7076   -6.1584   -7.0680 C   0  0  0  0  0  0  0  0  0  0  0  0
   -3.6986   -5.7264   -6.2011 C   0  0  0  0  0  0  0  0  0  0  0  0
   -2.3889   -5.5975   -6.6711 C   0  0  0  0  0  0  0  0  0  0  0  0
   -2.0819   -5.8769   -8.0031 C   0  0  0  0  0  0  0  0  0  0  0  0
   -3.0954   -6.3090   -8.8605 C   0  0  0  0  0  0  0  0  0  0  0  0
   -6.6537   -7.0251   -8.9401 C   0  0  0  0  0  0  0  0  0  0  0  0
   -5.2982   -6.8841   -9.3466 O   0  0  0  0  0  0  0  0  0  0  0  0
   -0.8092   -6.3309   -3.1753 C   0  0  0  0  0  0  0  0  0  0  0  0
   -1.4021   -7.7387   -3.0717 C   0  0  0  0  0  0  0  0  0  0  0  0
   -0.7776   -5.6097   -1.8101 C   0  0  0  0  0  0  0  0  0  0  0  0
   -0.6014   -6.4885   -0.5154 C   0  0  0  0  0  0  0  0  0  0  0  0
   -0.0406   -5.6484    0.6349 C   0  0  0  0  0  0  0  0  0  0  0  0
   -1.9852   -7.0354   -0.1048 C   0  0  0  0  0  0  0  0  0  0  0  0
    0.3529   -7.6667   -0.9311 C   0  0  0  0  0  0  0  0  0  0  0  0
    1.0048   -8.6692    0.0746 C   0  0  0  0  0  0  0  0  0  0  0  0
    2.5110   -8.4033    0.2600 C   0  0  0  0  0  0  0  0  0  0  0  0
    0.3208   -8.7146    1.4447 C   0  0  0  0  0  0  0  0  0  0  0  0
    0.8767  -10.0808   -0.5540 C   0  0  0  0  0  0  0  0  0  0  0  0
 12 13  1  0
 13  6  1  0
  6  7  2  0
  7  8  1  0
  8  9  2  0
  9  3  1  0
  3  4  2  0
  3  5  2  0
  3  1  1  0
  1 14  1  0
 14 15  1  0
 14 16  1  0
 16 17  1  0
 17 18  1  0
 17 19  1  0
 17 20  1  0
 20 21  1  0
 21 22  1  0
 21 23  1  0
 21 24  1  0
  9 10  1  0
 10 11  2  0
 11  6  1  0
  1  2  1  0
M  END
> <minimizedAffinity>
-6.54145

> <CNNscore>
0.6221333146

> <CNNaffinity>
5.4959559441

> <CNN_VS>
3.4192173481

> <CNNaffinity_variance>
0.0415103547

$$$$
