


 26 29  0  0  0  0  0  0  0  0999 V2000
    4.9485   12.0678   41.0052 C   0  0  0  0  0  0  0  0  0  0  0  0
    5.0796   11.9040   42.3803 C   0  0  0  0  0  0  0  0  0  0  0  0
    4.5464   12.8395   43.3033 C   0  0  0  0  0  0  0  0  0  0  0  0
    4.6882   12.6599   44.7255 C   0  0  0  0  0  0  0  0  0  0  0  0
    4.1077   13.6573   45.5525 C   0  0  0  0  0  0  0  0  0  0  0  0
    3.9494   13.9947   46.9400 C   0  0  0  0  0  0  0  0  0  0  0  0
    4.4016   13.2941   48.1681 C   0  0  0  0  0  0  0  0  0  0  0  0
    3.2574   15.1342   47.1128 N   0  0  0  0  0  0  0  0  0  0  0  0
    2.9847   15.5320   45.8639 N   0  0  0  0  0  0  0  0  0  0  0  0
    3.4640   14.6990   44.9027 C   0  0  0  0  0  0  0  0  0  0  0  0
    3.3126   14.9010   43.5887 N   0  0  0  0  0  0  0  0  0  0  0  0
    3.8549   13.9707   42.8003 C   0  0  0  0  0  0  0  0  0  0  0  0
    3.7255   14.1345   41.4183 C   0  0  0  0  0  0  0  0  0  0  0  0
    2.9973   15.3274   40.8587 C   0  0  0  0  0  0  0  0  0  0  0  0
    4.2698   13.1893   40.5420 C   0  0  0  0  0  0  0  0  0  0  0  0
    4.1316   13.3687   39.2176 F   0  0  0  0  0  0  0  0  0  0  0  0
    2.4822   16.3537   45.6600 H   0  0  0  0  0  0  0  0  0  0  0  0
    5.4037   11.5181   45.1591 N   0  0  0  0  0  0  0  0  0  0  0  0
    6.8634   11.6685   45.2614 C   0  0  0  0  0  0  0  0  0  0  0  0
    7.4722   10.4293   45.9576 C   0  0  0  0  0  0  0  0  0  0  0  0
    7.1024    9.1573   45.3047 N   0  0  0  0  0  0  0  0  0  0  0  0
    5.6310    9.0533   45.2365 C   0  0  0  0  0  0  0  0  0  0  0  0
    4.9561   10.2575   44.5384 C   0  0  0  0  0  0  0  0  0  0  0  0
    7.4745    8.3763   45.8450 H   0  0  0  0  0  0  0  0  0  0  0  0
    6.1707   10.0895   40.4905 C   0  0  0  0  0  0  0  0  0  0  0  0
    5.4305   11.2193   40.0476 O   0  0  0  0  0  0  0  0  0  0  0  0
 25 26  1  0
 26  1  1  0
  1  2  2  0
  2  3  1  0
  3  4  2  0
  4 18  1  0
 18 19  1  0
 19 20  1  0
 20 21  1  0
 21 22  1  0
 22 23  1  0
  4  5  1  0
  5  6  1  0
  6  7  1  0
  6  8  2  0
  8  9  1  0
  9 10  1  0
 10 11  1  0
 11 12  2  0
 12 13  1  0
 13 14  1  0
 13 15  2  0
 15 16  1  0
 15  1  1  0
 12  3  1  0
 23 18  1  0
 10  5  2  0
 21 24  1  0
  9 17  1  0
M  END
> <minimizedAffinity>
-8.26779

> <CNNscore>
0.9735353589

> <CNNaffinity>
7.8082904816

> <CNN_VS>
7.6016469002

> <CNNaffinity_variance>
0.3892519176

$$$$



 26 29  0  0  0  0  0  0  0  0999 V2000
    5.0383   12.4575   47.1135 C   0  0  0  0  0  0  0  0  0  0  0  0
    5.3076   12.1037   45.7955 C   0  0  0  0  0  0  0  0  0  0  0  0
    4.7728   12.8263   44.6986 C   0  0  0  0  0  0  0  0  0  0  0  0
    5.0582   12.4508   43.3375 C   0  0  0  0  0  0  0  0  0  0  0  0
    4.4732   13.2520   42.3218 C   0  0  0  0  0  0  0  0  0  0  0  0
    4.3976   13.3491   40.8904 C   0  0  0  0  0  0  0  0  0  0  0  0
    5.0154   12.5188   39.8261 C   0  0  0  0  0  0  0  0  0  0  0  0
    3.6448   14.3876   40.4880 N   0  0  0  0  0  0  0  0  0  0  0  0
    3.2320   14.9429   41.6341 N   0  0  0  0  0  0  0  0  0  0  0  0
    3.6892   14.3127   42.7483 C   0  0  0  0  0  0  0  0  0  0  0  0
    3.4005   14.6918   43.9986 N   0  0  0  0  0  0  0  0  0  0  0  0
    3.9437   13.9459   44.9628 C   0  0  0  0  0  0  0  0  0  0  0  0
    3.6729   14.2990   46.2877 C   0  0  0  0  0  0  0  0  0  0  0  0
    2.7945   15.4824   46.5951 C   0  0  0  0  0  0  0  0  0  0  0  0
    4.2181   13.5568   47.3410 C   0  0  0  0  0  0  0  0  0  0  0  0
    3.9436   13.9166   48.6061 F   0  0  0  0  0  0  0  0  0  0  0  0
    2.6498   15.7361   41.6670 H   0  0  0  0  0  0  0  0  0  0  0  0
    5.8792   11.3139   43.1449 N   0  0  0  0  0  0  0  0  0  0  0  0
    5.1986   10.0102   43.1785 C   0  0  0  0  0  0  0  0  0  0  0  0
    6.1729    8.8967   42.7296 C   0  0  0  0  0  0  0  0  0  0  0  0
    7.4268    8.8743   43.5096 N   0  0  0  0  0  0  0  0  0  0  0  0
    8.0721   10.2003   43.4348 C   0  0  0  0  0  0  0  0  0  0  0  0
    7.1548   11.3623   43.8834 C   0  0  0  0  0  0  0  0  0  0  0  0
    8.0544    8.1678   43.1255 H   0  0  0  0  0  0  0  0  0  0  0  0
    6.2642   10.6311   48.0268 C   0  0  0  0  0  0  0  0  0  0  0  0
    5.5092   11.8187   48.2269 O   0  0  0  0  0  0  0  0  0  0  0  0
 25 26  1  0
 26  1  1  0
  1  2  2  0
  2  3  1  0
  3  4  2  0
  4 18  1  0
 18 19  1  0
 19 20  1  0
 20 21  1  0
 21 22  1  0
 22 23  1  0
  4  5  1  0
  5  6  1  0
  6  7  1  0
  6  8  2  0
  8  9  1  0
  9 10  1  0
 10 11  1  0
 11 12  2  0
 12 13  1  0
 13 14  1  0
 13 15  2  0
 15 16  1  0
 15  1  1  0
 12  3  1  0
 23 18  1  0
 10  5  2  0
 21 24  1  0
  9 17  1  0
M  END
> <minimizedAffinity>
-7.87483

> <CNNscore>
0.8809947968

> <CNNaffinity>
7.2685794830

> <CNN_VS>
6.4035806656

> <CNNaffinity_variance>
0.2762635946

$$$$



 26 29  0  0  0  0  0  0  0  0999 V2000
    6.5284    9.7337   45.9586 C   0  0  0  0  0  0  0  0  0  0  0  0
    6.1711   10.2099   44.7014 C   0  0  0  0  0  0  0  0  0  0  0  0
    5.4565   11.4232   44.5319 C   0  0  0  0  0  0  0  0  0  0  0  0
    5.0916   11.9068   43.2250 C   0  0  0  0  0  0  0  0  0  0  0  0
    4.3835   13.1366   43.1780 C   0  0  0  0  0  0  0  0  0  0  0  0
    3.7903   14.0402   42.2316 C   0  0  0  0  0  0  0  0  0  0  0  0
    3.7199   13.9871   40.7498 C   0  0  0  0  0  0  0  0  0  0  0  0
    3.2291   15.1070   42.8268 N   0  0  0  0  0  0  0  0  0  0  0  0
    3.4436   14.8920   44.1307 N   0  0  0  0  0  0  0  0  0  0  0  0
    4.1192   13.7428   44.3962 C   0  0  0  0  0  0  0  0  0  0  0  0
    4.4395   13.3260   45.6267 N   0  0  0  0  0  0  0  0  0  0  0  0
    5.1046   12.1703   45.6846 C   0  0  0  0  0  0  0  0  0  0  0  0
    5.4630   11.6896   46.9471 C   0  0  0  0  0  0  0  0  0  0  0  0
    5.1000   12.4631   48.1866 C   0  0  0  0  0  0  0  0  0  0  0  0
    6.1650   10.4856   47.0701 C   0  0  0  0  0  0  0  0  0  0  0  0
    6.4988   10.0448   48.2947 F   0  0  0  0  0  0  0  0  0  0  0  0
    3.1395   15.5104   44.8338 H   0  0  0  0  0  0  0  0  0  0  0  0
    5.4595   11.1041   42.1187 N   0  0  0  0  0  0  0  0  0  0  0  0
    4.4414   10.1571   41.6384 C   0  0  0  0  0  0  0  0  0  0  0  0
    4.8990    9.5258   40.3032 C   0  0  0  0  0  0  0  0  0  0  0  0
    6.2311    8.8937   40.3871 N   0  0  0  0  0  0  0  0  0  0  0  0
    7.2138    9.8873   40.8638 C   0  0  0  0  0  0  0  0  0  0  0  0
    6.8237   10.5506   42.2057 C   0  0  0  0  0  0  0  0  0  0  0  0
    6.5071    8.5569   39.4647 H   0  0  0  0  0  0  0  0  0  0  0  0
    6.5752    7.3540   45.8749 C   0  0  0  0  0  0  0  0  0  0  0  0
    7.2136    8.5782   46.2128 O   0  0  0  0  0  0  0  0  0  0  0  0
 25 26  1  0
 26  1  1  0
  1  2  2  0
  2  3  1  0
  3  4  2  0
  4 18  1  0
 18 19  1  0
 19 20  1  0
 20 21  1  0
 21 22  1  0
 22 23  1  0
  4  5  1  0
  5  6  1  0
  6  7  1  0
  6  8  2  0
  8  9  1  0
  9 10  1  0
 10 11  1  0
 11 12  2  0
 12 13  1  0
 13 14  1  0
 13 15  2  0
 15 16  1  0
 15  1  1  0
 12  3  1  0
 23 18  1  0
 10  5  2  0
 21 24  1  0
  9 17  1  0
M  END
> <minimizedAffinity>
-7.19608

> <CNNscore>
0.8481447101

> <CNNaffinity>
7.2237210274

> <CNN_VS>
6.1267609596

> <CNNaffinity_variance>
0.2945573330

$$$$



 26 29  0  0  0  0  0  0  0  0999 V2000
    6.1514    8.7056   44.1534 C   0  0  0  0  0  0  0  0  0  0  0  0
    5.6682    9.8108   44.8460 C   0  0  0  0  0  0  0  0  0  0  0  0
    5.2351   10.9855   44.1797 C   0  0  0  0  0  0  0  0  0  0  0  0
    4.7365   12.1244   44.9072 C   0  0  0  0  0  0  0  0  0  0  0  0
    4.3251   13.2416   44.1335 C   0  0  0  0  0  0  0  0  0  0  0  0
    3.7921   14.5662   44.2928 C   0  0  0  0  0  0  0  0  0  0  0  0
    3.4228   15.3247   45.5142 C   0  0  0  0  0  0  0  0  0  0  0  0
    3.5948   15.1824   43.1143 N   0  0  0  0  0  0  0  0  0  0  0  0
    4.0030   14.2807   42.2128 N   0  0  0  0  0  0  0  0  0  0  0  0
    4.4460   13.1172   42.7582 C   0  0  0  0  0  0  0  0  0  0  0  0
    4.9037   12.0799   42.0476 N   0  0  0  0  0  0  0  0  0  0  0  0
    5.2947   11.0236   42.7634 C   0  0  0  0  0  0  0  0  0  0  0  0
    5.7820    9.9128   42.0692 C   0  0  0  0  0  0  0  0  0  0  0  0
    5.8569    9.9283   40.5657 C   0  0  0  0  0  0  0  0  0  0  0  0
    6.2026    8.7745   42.7658 C   0  0  0  0  0  0  0  0  0  0  0  0
    6.6665    7.7191   42.0757 F   0  0  0  0  0  0  0  0  0  0  0  0
    3.9840   14.4456   41.2424 H   0  0  0  0  0  0  0  0  0  0  0  0
    4.7195   12.0258   46.3191 N   0  0  0  0  0  0  0  0  0  0  0  0
    3.7138   12.8443   47.0136 C   0  0  0  0  0  0  0  0  0  0  0  0
    3.6657   12.4599   48.5106 C   0  0  0  0  0  0  0  0  0  0  0  0
    4.9831   12.5419   49.1729 N   0  0  0  0  0  0  0  0  0  0  0  0
    5.9499   11.6974   48.4432 C   0  0  0  0  0  0  0  0  0  0  0  0
    6.0580   12.0378   46.9381 C   0  0  0  0  0  0  0  0  0  0  0  0
    4.9018   12.2132   50.1350 H   0  0  0  0  0  0  0  0  0  0  0  0
    7.8882    7.5379   45.2904 C   0  0  0  0  0  0  0  0  0  0  0  0
    6.5891    7.5375   44.7134 O   0  0  0  0  0  0  0  0  0  0  0  0
 25 26  1  0
 26  1  1  0
  1  2  2  0
  2  3  1  0
  3  4  2  0
  4 18  1  0
 18 19  1  0
 19 20  1  0
 20 21  1  0
 21 22  1  0
 22 23  1  0
  4  5  1  0
  5  6  1  0
  6  7  1  0
  6  8  2  0
  8  9  1  0
  9 10  1  0
 10 11  1  0
 11 12  2  0
 12 13  1  0
 13 14  1  0
 13 15  2  0
 15 16  1  0
 15  1  1  0
 12  3  1  0
 23 18  1  0
 10  5  2  0
 21 24  1  0
  9 17  1  0
M  END
> <minimizedAffinity>
-7.51623

> <CNNscore>
0.4535323679

> <CNNaffinity>
6.8040060997

> <CNN_VS>
3.0858368874

> <CNNaffinity_variance>
0.0167582650

$$$$



 26 29  0  0  0  0  0  0  0  0999 V2000
    7.5473    8.4290   41.3633 C   0  0  0  0  0  0  0  0  0  0  0  0
    7.1595    8.9767   42.5818 C   0  0  0  0  0  0  0  0  0  0  0  0
    6.3648   10.1487   42.6606 C   0  0  0  0  0  0  0  0  0  0  0  0
    5.9692   10.7073   43.9281 C   0  0  0  0  0  0  0  0  0  0  0  0
    5.1681   11.8787   43.8834 C   0  0  0  0  0  0  0  0  0  0  0  0
    4.5275   12.8193   44.7603 C   0  0  0  0  0  0  0  0  0  0  0  0
    4.4699   12.8828   46.2423 C   0  0  0  0  0  0  0  0  0  0  0  0
    3.8679   13.7778   44.0869 N   0  0  0  0  0  0  0  0  0  0  0  0
    4.0874   13.4711   42.8024 N   0  0  0  0  0  0  0  0  0  0  0  0
    4.8503   12.3605   42.6231 C   0  0  0  0  0  0  0  0  0  0  0  0
    5.1983   11.8722   41.4270 N   0  0  0  0  0  0  0  0  0  0  0  0
    5.9525   10.7715   41.4553 C   0  0  0  0  0  0  0  0  0  0  0  0
    6.3442   10.2208   40.2320 C   0  0  0  0  0  0  0  0  0  0  0  0
    5.9210   10.8636   38.9381 C   0  0  0  0  0  0  0  0  0  0  0  0
    7.1318    9.0649   40.1988 C   0  0  0  0  0  0  0  0  0  0  0  0
    7.4950    8.5541   39.0103 F   0  0  0  0  0  0  0  0  0  0  0  0
    3.7286   14.0021   42.0550 H   0  0  0  0  0  0  0  0  0  0  0  0
    6.4288   10.0453   45.0918 N   0  0  0  0  0  0  0  0  0  0  0  0
    7.8463   10.2422   45.4320 C   0  0  0  0  0  0  0  0  0  0  0  0
    8.1375    9.6545   46.8322 C   0  0  0  0  0  0  0  0  0  0  0  0
    7.7407    8.2377   46.9603 N   0  0  0  0  0  0  0  0  0  0  0  0
    6.3112    8.0981   46.6175 C   0  0  0  0  0  0  0  0  0  0  0  0
    5.9515    8.6558   45.2202 C   0  0  0  0  0  0  0  0  0  0  0  0
    7.8929    7.9267   47.9198 H   0  0  0  0  0  0  0  0  0  0  0  0
    7.6601    6.0502   41.3282 C   0  0  0  0  0  0  0  0  0  0  0  0
    8.3106    7.3071   41.1957 O   0  0  0  0  0  0  0  0  0  0  0  0
 25 26  1  0
 26  1  1  0
  1  2  2  0
  2  3  1  0
  3  4  2  0
  4 18  1  0
 18 19  1  0
 19 20  1  0
 20 21  1  0
 21 22  1  0
 22 23  1  0
  4  5  1  0
  5  6  1  0
  6  7  1  0
  6  8  2  0
  8  9  1  0
  9 10  1  0
 10 11  1  0
 11 12  2  0
 12 13  1  0
 13 14  1  0
 13 15  2  0
 15 16  1  0
 15  1  1  0
 12  3  1  0
 23 18  1  0
 10  5  2  0
 21 24  1  0
  9 17  1  0
M  END
> <minimizedAffinity>
-6.18003

> <CNNscore>
0.4468727112

> <CNNaffinity>
6.2698478699

> <CNN_VS>
2.8018238544

> <CNNaffinity_variance>
0.1543079168

$$$$



 26 29  0  0  0  0  0  0  0  0999 V2000
    3.8697   14.1087   42.9169 C   0  0  0  0  0  0  0  0  0  0  0  0
    4.3850   12.9568   42.3317 C   0  0  0  0  0  0  0  0  0  0  0  0
    4.8985   11.8851   43.1059 C   0  0  0  0  0  0  0  0  0  0  0  0
    5.4299   10.6967   42.4893 C   0  0  0  0  0  0  0  0  0  0  0  0
    5.9097    9.6873   43.3649 C   0  0  0  0  0  0  0  0  0  0  0  0
    6.5161    8.3852   43.3313 C   0  0  0  0  0  0  0  0  0  0  0  0
    6.8914    7.5173   42.1871 C   0  0  0  0  0  0  0  0  0  0  0  0
    6.7531    7.9004   44.5626 N   0  0  0  0  0  0  0  0  0  0  0  0
    6.3210    8.8729   45.3749 N   0  0  0  0  0  0  0  0  0  0  0  0
    5.8146    9.9523   44.7222 C   0  0  0  0  0  0  0  0  0  0  0  0
    5.3301   11.0405   45.3316 N   0  0  0  0  0  0  0  0  0  0  0  0
    4.8768   11.9975   44.5193 C   0  0  0  0  0  0  0  0  0  0  0  0
    4.3602   13.1563   45.1055 C   0  0  0  0  0  0  0  0  0  0  0  0
    4.3271   13.3011   46.6036 C   0  0  0  0  0  0  0  0  0  0  0  0
    3.8665   14.1920   44.3047 C   0  0  0  0  0  0  0  0  0  0  0  0
    3.3744   15.2958   44.8919 F   0  0  0  0  0  0  0  0  0  0  0  0
    6.3659    8.8118   46.3565 H   0  0  0  0  0  0  0  0  0  0  0  0
    5.4365   10.6569   41.0743 N   0  0  0  0  0  0  0  0  0  0  0  0
    4.4837    9.7275   40.4480 C   0  0  0  0  0  0  0  0  0  0  0  0
    4.4477    9.9620   38.9200 C   0  0  0  0  0  0  0  0  0  0  0  0
    5.7805    9.8794   38.2892 N   0  0  0  0  0  0  0  0  0  0  0  0
    6.6924   10.8362   38.9475 C   0  0  0  0  0  0  0  0  0  0  0  0
    6.7862   10.6491   40.4801 C   0  0  0  0  0  0  0  0  0  0  0  0
    5.7032   10.1089   37.2984 H   0  0  0  0  0  0  0  0  0  0  0  0
    3.8774   15.4585   40.9546 C   0  0  0  0  0  0  0  0  0  0  0  0
    3.3575   15.1863   42.2492 O   0  0  0  0  0  0  0  0  0  0  0  0
 25 26  1  0
 26  1  1  0
  1  2  2  0
  2  3  1  0
  3  4  2  0
  4 18  1  0
 18 19  1  0
 19 20  1  0
 20 21  1  0
 21 22  1  0
 22 23  1  0
  4  5  1  0
  5  6  1  0
  6  7  1  0
  6  8  2  0
  8  9  1  0
  9 10  1  0
 10 11  1  0
 11 12  2  0
 12 13  1  0
 13 14  1  0
 13 15  2  0
 15 16  1  0
 15  1  1  0
 12  3  1  0
 23 18  1  0
 10  5  2  0
 21 24  1  0
  9 17  1  0
M  END
> <minimizedAffinity>
-7.08824

> <CNNscore>
0.4131879508

> <CNNaffinity>
6.2276077271

> <CNN_VS>
2.5731725693

> <CNNaffinity_variance>
0.4501864016

$$$$



 26 29  0  0  0  0  0  0  0  0999 V2000
    4.6935   12.9745   43.2692 C   0  0  0  0  0  0  0  0  0  0  0  0
    5.6099   11.9633   43.5384 C   0  0  0  0  0  0  0  0  0  0  0  0
    5.8990   11.5432   44.8618 C   0  0  0  0  0  0  0  0  0  0  0  0
    6.8502   10.4949   45.1290 C   0  0  0  0  0  0  0  0  0  0  0  0
    7.0532   10.1540   46.4922 C   0  0  0  0  0  0  0  0  0  0  0  0
    7.8276    9.2618   47.3098 C   0  0  0  0  0  0  0  0  0  0  0  0
    8.8234    8.2243   46.9419 C   0  0  0  0  0  0  0  0  0  0  0  0
    7.5660    9.4129   48.6198 N   0  0  0  0  0  0  0  0  0  0  0  0
    6.6515   10.3902   48.6498 N   0  0  0  0  0  0  0  0  0  0  0  0
    6.3126   10.8664   47.4227 C   0  0  0  0  0  0  0  0  0  0  0  0
    5.4233   11.8442   47.2147 N   0  0  0  0  0  0  0  0  0  0  0  0
    5.2242   12.1748   45.9371 C   0  0  0  0  0  0  0  0  0  0  0  0
    4.3049   13.1916   45.6649 C   0  0  0  0  0  0  0  0  0  0  0  0
    3.5762   13.8791   46.7887 C   0  0  0  0  0  0  0  0  0  0  0  0
    4.0515   13.5784   44.3444 C   0  0  0  0  0  0  0  0  0  0  0  0
    3.1627   14.5580   44.1083 F   0  0  0  0  0  0  0  0  0  0  0  0
    6.2597   10.7330   49.4854 H   0  0  0  0  0  0  0  0  0  0  0  0
    7.4998    9.9186   44.0111 N   0  0  0  0  0  0  0  0  0  0  0  0
    7.1501    8.5224   43.7074 C   0  0  0  0  0  0  0  0  0  0  0  0
    7.7556    8.1133   42.3447 C   0  0  0  0  0  0  0  0  0  0  0  0
    9.2134    8.3364   42.2676 N   0  0  0  0  0  0  0  0  0  0  0  0
    9.5075    9.7512   42.5709 C   0  0  0  0  0  0  0  0  0  0  0  0
    8.9401   10.2248   43.9299 C   0  0  0  0  0  0  0  0  0  0  0  0
    9.5429    8.1137   41.3283 H   0  0  0  0  0  0  0  0  0  0  0  0
    3.6641   14.6810   41.9649 C   0  0  0  0  0  0  0  0  0  0  0  0
    4.3565   13.4412   42.0290 O   0  0  0  0  0  0  0  0  0  0  0  0
 25 26  1  0
 26  1  1  0
  1  2  2  0
  2  3  1  0
  3  4  2  0
  4 18  1  0
 18 19  1  0
 19 20  1  0
 20 21  1  0
 21 22  1  0
 22 23  1  0
  4  5  1  0
  5  6  1  0
  6  7  1  0
  6  8  2  0
  8  9  1  0
  9 10  1  0
 10 11  1  0
 11 12  2  0
 12 13  1  0
 13 14  1  0
 13 15  2  0
 15 16  1  0
 15  1  1  0
 12  3  1  0
 23 18  1  0
 10  5  2  0
 21 24  1  0
  9 17  1  0
M  END
> <minimizedAffinity>
-8.37237

> <CNNscore>
0.3921417594

> <CNNaffinity>
6.4940056801

> <CNN_VS>
2.5465707779

> <CNNaffinity_variance>
0.0384858660

$$$$



 26 29  0  0  0  0  0  0  0  0999 V2000
    5.4336   11.8883   43.5817 C   0  0  0  0  0  0  0  0  0  0  0  0
    4.8953   11.8624   42.2993 C   0  0  0  0  0  0  0  0  0  0  0  0
    4.3163   13.0118   41.7034 C   0  0  0  0  0  0  0  0  0  0  0  0
    3.7617   12.9735   40.3745 C   0  0  0  0  0  0  0  0  0  0  0  0
    3.2153   14.1868   39.8793 C   0  0  0  0  0  0  0  0  0  0  0  0
    2.5619   14.7159   38.7143 C   0  0  0  0  0  0  0  0  0  0  0  0
    2.1928   14.0701   37.4297 C   0  0  0  0  0  0  0  0  0  0  0  0
    2.2658   16.0209   38.8433 N   0  0  0  0  0  0  0  0  0  0  0  0
    2.7067   16.3263   40.0700 N   0  0  0  0  0  0  0  0  0  0  0  0
    3.2747   15.2813   40.7279 C   0  0  0  0  0  0  0  0  0  0  0  0
    3.7790   15.3562   41.9650 N   0  0  0  0  0  0  0  0  0  0  0  0
    4.2949   14.2217   42.4426 C   0  0  0  0  0  0  0  0  0  0  0  0
    4.8347   14.2455   43.7315 C   0  0  0  0  0  0  0  0  0  0  0  0
    4.8230   15.5169   44.5376 C   0  0  0  0  0  0  0  0  0  0  0  0
    5.3934   13.0877   44.2836 C   0  0  0  0  0  0  0  0  0  0  0  0
    5.9067   13.1361   45.5244 F   0  0  0  0  0  0  0  0  0  0  0  0
    2.6266   17.2266   40.4603 H   0  0  0  0  0  0  0  0  0  0  0  0
    3.8010   11.7301   39.6991 N   0  0  0  0  0  0  0  0  0  0  0  0
    2.9287   10.6739   40.2351 C   0  0  0  0  0  0  0  0  0  0  0  0
    2.9089    9.4674   39.2682 C   0  0  0  0  0  0  0  0  0  0  0  0
    4.2572    8.9514   38.9571 N   0  0  0  0  0  0  0  0  0  0  0  0
    5.0861   10.0468   38.4154 C   0  0  0  0  0  0  0  0  0  0  0  0
    5.1602   11.2841   39.3409 C   0  0  0  0  0  0  0  0  0  0  0  0
    4.1852    8.2048   38.2659 H   0  0  0  0  0  0  0  0  0  0  0  0
    5.1390    9.9271   44.9006 C   0  0  0  0  0  0  0  0  0  0  0  0
    6.0080   10.8310   44.2311 O   0  0  0  0  0  0  0  0  0  0  0  0
 25 26  1  0
 26  1  1  0
  1  2  2  0
  2  3  1  0
  3  4  2  0
  4 18  1  0
 18 19  1  0
 19 20  1  0
 20 21  1  0
 21 22  1  0
 22 23  1  0
  4  5  1  0
  5  6  1  0
  6  7  1  0
  6  8  2  0
  8  9  1  0
  9 10  1  0
 10 11  1  0
 11 12  2  0
 12 13  1  0
 13 14  1  0
 13 15  2  0
 15 16  1  0
 15  1  1  0
 12  3  1  0
 23 18  1  0
 10  5  2  0
 21 24  1  0
  9 17  1  0
M  END
> <minimizedAffinity>
-7.28460

> <CNNscore>
0.3862750828

> <CNNaffinity>
5.9212069511

> <CNN_VS>
2.2872147560

> <CNNaffinity_variance>
0.2490473837

$$$$



 26 29  0  0  0  0  0  0  0  0999 V2000
    6.7637    9.0870   42.1226 C   0  0  0  0  0  0  0  0  0  0  0  0
    6.4284   10.1156   42.9970 C   0  0  0  0  0  0  0  0  0  0  0  0
    5.6124   11.2051   42.5987 C   0  0  0  0  0  0  0  0  0  0  0  0
    5.2715   12.2651   43.5127 C   0  0  0  0  0  0  0  0  0  0  0  0
    4.4426   13.2997   43.0044 C   0  0  0  0  0  0  0  0  0  0  0  0
    3.8278   14.5318   43.4144 C   0  0  0  0  0  0  0  0  0  0  0  0
    3.8471   15.2404   44.7186 C   0  0  0  0  0  0  0  0  0  0  0  0
    3.1119   15.0984   42.4277 N   0  0  0  0  0  0  0  0  0  0  0  0
    3.2702   14.2576   41.3980 N   0  0  0  0  0  0  0  0  0  0  0  0
    4.0478   13.1792   41.6810 C   0  0  0  0  0  0  0  0  0  0  0  0
    4.3433   12.2139   40.8029 N   0  0  0  0  0  0  0  0  0  0  0  0
    5.1229   11.2357   41.2682 C   0  0  0  0  0  0  0  0  0  0  0  0
    5.4621   10.2022   40.3907 C   0  0  0  0  0  0  0  0  0  0  0  0
    4.9566   10.2119   38.9726 C   0  0  0  0  0  0  0  0  0  0  0  0
    6.2730    9.1473   40.8232 C   0  0  0  0  0  0  0  0  0  0  0  0
    6.5846    8.1651   39.9609 F   0  0  0  0  0  0  0  0  0  0  0  0
    2.8605   14.4069   40.5153 H   0  0  0  0  0  0  0  0  0  0  0  0
    5.8069   12.1808   44.8203 N   0  0  0  0  0  0  0  0  0  0  0  0
    7.2489   11.9059   44.9135 C   0  0  0  0  0  0  0  0  0  0  0  0
    7.7221   12.0704   46.3764 C   0  0  0  0  0  0  0  0  0  0  0  0
    6.9506   11.2492   47.3311 N   0  0  0  0  0  0  0  0  0  0  0  0
    5.5151   11.5705   47.2027 C   0  0  0  0  0  0  0  0  0  0  0  0
    4.9712   11.4141   45.7630 C   0  0  0  0  0  0  0  0  0  0  0  0
    7.2610   11.4502   48.2817 H   0  0  0  0  0  0  0  0  0  0  0  0
    8.6968    8.2305   43.2190 C   0  0  0  0  0  0  0  0  0  0  0  0
    7.5426    8.0036   42.4210 O   0  0  0  0  0  0  0  0  0  0  0  0
 25 26  1  0
 26  1  1  0
  1  2  2  0
  2  3  1  0
  3  4  2  0
  4 18  1  0
 18 19  1  0
 19 20  1  0
 20 21  1  0
 21 22  1  0
 22 23  1  0
  4  5  1  0
  5  6  1  0
  6  7  1  0
  6  8  2  0
  8  9  1  0
  9 10  1  0
 10 11  1  0
 11 12  2  0
 12 13  1  0
 13 14  1  0
 13 15  2  0
 15 16  1  0
 15  1  1  0
 12  3  1  0
 23 18  1  0
 10  5  2  0
 21 24  1  0
  9 17  1  0
M  END
> <minimizedAffinity>
-6.62509

> <CNNscore>
0.3800092340

> <CNNaffinity>
6.4139580727

> <CNN_VS>
2.4373633862

> <CNNaffinity_variance>
0.1975483745

$$$$
