


 21 23  0  0  0  0  0  0  0  0999 V2000
    4.5257   63.4752   63.9526 C   0  0  0  0  0  0  0  0  0  0  0  0
    3.5424   64.5213   64.3686 C   0  0  0  0  0  0  0  0  0  0  0  0
    3.5290   65.8334   64.0462 C   0  0  0  0  0  0  0  0  0  0  0  0
    4.5731   66.5322   63.1890 C   0  0  0  0  0  0  0  0  0  0  0  0
    5.1471   67.7417   63.9102 C   0  0  0  0  0  0  0  0  0  0  0  0
    4.5394   68.3469   64.9494 C   0  0  0  0  0  0  0  0  0  0  0  0
    5.1374   69.5188   65.6674 C   0  0  0  0  0  0  0  0  0  0  0  0
    3.1893   67.8611   65.4545 C   0  0  0  0  0  0  0  0  0  0  0  0
    2.4677   66.8589   64.4927 C   0  0  0  0  0  0  0  0  0  0  0  0
    1.3779   66.1861   65.2230 N   0  0  0  0  0  0  0  0  0  0  0  0
    1.9111   67.6140   63.2558 C   0  0  0  0  0  0  0  0  0  0  0  0
    0.6627   68.3666   63.3535 C   0  0  0  0  0  0  0  0  0  0  0  0
    0.1433   69.0084   62.2976 C   0  0  0  0  0  0  0  0  0  0  0  0
    0.8488   68.9728   60.9969 C   0  0  0  0  0  0  0  0  0  0  0  0
    0.3962   69.5414   60.0109 O   0  0  0  0  0  0  0  0  0  0  0  0
    2.0305   68.2785   60.9824 N   0  0  0  0  0  0  0  0  0  0  0  0
    2.5633   67.6179   62.0691 C   0  0  0  0  0  0  0  0  0  0  0  0
    3.9027   66.9440   61.8633 C   0  0  0  0  0  0  0  0  0  0  0  0
    0.6848   66.8768   65.5113 H   0  0  0  0  0  0  0  0  0  0  0  0
    1.7576   65.7209   66.0475 H   0  0  0  0  0  0  0  0  0  0  0  0
    2.5341   68.2496   60.1370 H   0  0  0  0  0  0  0  0  0  0  0  0
  1  2  1  0
  2  3  2  0
  3  4  1  0
  4  5  1  0
  5  6  2  0
  6  7  1  0
  6  8  1  0
  8  9  1  0
  9 10  1  0
  9 11  1  0
 11 12  1  0
 12 13  2  0
 13 14  1  0
 14 15  2  0
 14 16  1  0
 16 17  1  0
 17 18  1  0
  9  3  1  0
 17 11  2  0
  4 18  1  0
 10 19  1  0
 10 20  1  0
 16 21  1  0
M  END
> <minimizedAffinity>
-10.54071

> <CNNscore>
0.9505215883

> <CNNaffinity>
7.1042151451

> <CNN_VS>
6.7527098656

> <CNNaffinity_variance>
0.4314859807

$$$$



 21 23  0  0  0  0  0  0  0  0999 V2000
    5.6912   70.1157   65.5015 C   0  0  0  0  0  0  0  0  0  0  0  0
    4.6646   69.0385   65.6435 C   0  0  0  0  0  0  0  0  0  0  0  0
    4.1646   68.2269   64.6859 C   0  0  0  0  0  0  0  0  0  0  0  0
    4.5429   68.2779   63.2136 C   0  0  0  0  0  0  0  0  0  0  0  0
    3.3061   68.4123   62.3392 C   0  0  0  0  0  0  0  0  0  0  0  0
    2.0615   68.1096   62.7577 C   0  0  0  0  0  0  0  0  0  0  0  0
    0.8511   68.2793   61.8903 C   0  0  0  0  0  0  0  0  0  0  0  0
    1.8193   67.5692   64.1589 C   0  0  0  0  0  0  0  0  0  0  0  0
    3.1187   67.1153   64.9045 C   0  0  0  0  0  0  0  0  0  0  0  0
    2.8243   66.9616   66.3410 N   0  0  0  0  0  0  0  0  0  0  0  0
    3.6367   65.7792   64.3075 C   0  0  0  0  0  0  0  0  0  0  0  0
    3.0158   64.5131   64.6891 C   0  0  0  0  0  0  0  0  0  0  0  0
    3.4560   63.3409   64.2106 C   0  0  0  0  0  0  0  0  0  0  0  0
    4.5907   63.3153   63.2605 C   0  0  0  0  0  0  0  0  0  0  0  0
    5.0222   62.2603   62.8119 O   0  0  0  0  0  0  0  0  0  0  0  0
    5.1047   64.5388   62.9180 N   0  0  0  0  0  0  0  0  0  0  0  0
    4.6517   65.7439   63.4118 C   0  0  0  0  0  0  0  0  0  0  0  0
    5.3223   66.9910   62.8774 C   0  0  0  0  0  0  0  0  0  0  0  0
    2.1318   66.2238   66.4690 H   0  0  0  0  0  0  0  0  0  0  0  0
    2.4576   67.8396   66.7087 H   0  0  0  0  0  0  0  0  0  0  0  0
    5.8494   64.5586   62.2744 H   0  0  0  0  0  0  0  0  0  0  0  0
  1  2  1  0
  2  3  2  0
  3  4  1  0
  4  5  1  0
  5  6  2  0
  6  7  1  0
  6  8  1  0
  8  9  1  0
  9 10  1  0
  9 11  1  0
 11 12  1  0
 12 13  2  0
 13 14  1  0
 14 15  2  0
 14 16  1  0
 16 17  1  0
 17 18  1  0
  9  3  1  0
 17 11  2  0
  4 18  1  0
 10 19  1  0
 10 20  1  0
 16 21  1  0
M  END
> <minimizedAffinity>
-9.56524

> <CNNscore>
0.9459395409

> <CNNaffinity>
7.2683854103

> <CNN_VS>
6.8754529953

> <CNNaffinity_variance>
0.5174544454

$$$$



 21 23  0  0  0  0  0  0  0  0999 V2000
    6.1778   69.8436   65.7787 C   0  0  0  0  0  0  0  0  0  0  0  0
    5.7030   69.3524   64.4493 C   0  0  0  0  0  0  0  0  0  0  0  0
    4.7470   68.4337   64.1887 C   0  0  0  0  0  0  0  0  0  0  0  0
    3.9613   67.6689   65.2427 C   0  0  0  0  0  0  0  0  0  0  0  0
    4.0571   66.1691   65.0098 C   0  0  0  0  0  0  0  0  0  0  0  0
    4.4172   65.6196   63.8334 C   0  0  0  0  0  0  0  0  0  0  0  0
    4.5365   64.1390   63.6334 C   0  0  0  0  0  0  0  0  0  0  0  0
    4.7256   66.4923   62.6263 C   0  0  0  0  0  0  0  0  0  0  0  0
    4.2872   67.9865   62.7866 C   0  0  0  0  0  0  0  0  0  0  0  0
    4.9448   68.7985   61.7465 N   0  0  0  0  0  0  0  0  0  0  0  0
    2.7432   68.1038   62.6759 C   0  0  0  0  0  0  0  0  0  0  0  0
    2.0963   68.0897   61.3660 C   0  0  0  0  0  0  0  0  0  0  0  0
    0.7680   68.2141   61.2356 C   0  0  0  0  0  0  0  0  0  0  0  0
   -0.0779   68.3569   62.4418 C   0  0  0  0  0  0  0  0  0  0  0  0
   -1.2934   68.4814   62.3563 O   0  0  0  0  0  0  0  0  0  0  0  0
    0.5880   68.3281   63.6395 N   0  0  0  0  0  0  0  0  0  0  0  0
    1.9545   68.2012   63.7723 C   0  0  0  0  0  0  0  0  0  0  0  0
    2.4966   68.1463   65.1843 C   0  0  0  0  0  0  0  0  0  0  0  0
    4.6308   68.4910   60.8260 H   0  0  0  0  0  0  0  0  0  0  0  0
    5.9561   68.6857   61.8159 H   0  0  0  0  0  0  0  0  0  0  0  0
    0.0531   68.4033   64.4626 H   0  0  0  0  0  0  0  0  0  0  0  0
  1  2  1  0
  2  3  2  0
  3  4  1  0
  4  5  1  0
  5  6  2  0
  6  7  1  0
  6  8  1  0
  8  9  1  0
  9 10  1  0
  9 11  1  0
 11 12  1  0
 12 13  2  0
 13 14  1  0
 14 15  2  0
 14 16  1  0
 16 17  1  0
 17 18  1  0
  9  3  1  0
 17 11  2  0
  4 18  1  0
 10 19  1  0
 10 20  1  0
 16 21  1  0
M  END
> <minimizedAffinity>
-10.67795

> <CNNscore>
0.9408029914

> <CNNaffinity>
7.1514620781

> <CNN_VS>
6.7281169891

> <CNNaffinity_variance>
0.4425613880

$$$$



 21 23  0  0  0  0  0  0  0  0999 V2000
    0.5932   69.3442   61.5540 C   0  0  0  0  0  0  0  0  0  0  0  0
    1.8749   68.5754   61.5362 C   0  0  0  0  0  0  0  0  0  0  0  0
    2.5999   68.1317   62.5865 C   0  0  0  0  0  0  0  0  0  0  0  0
    2.2527   68.3674   64.0484 C   0  0  0  0  0  0  0  0  0  0  0  0
    3.4216   68.9971   64.7898 C   0  0  0  0  0  0  0  0  0  0  0  0
    4.6924   68.9630   64.3430 C   0  0  0  0  0  0  0  0  0  0  0  0
    5.8259   69.6177   65.0730 C   0  0  0  0  0  0  0  0  0  0  0  0
    5.0459   68.2433   63.0503 C   0  0  0  0  0  0  0  0  0  0  0  0
    3.9082   67.3206   62.4984 C   0  0  0  0  0  0  0  0  0  0  0  0
    4.2041   66.9727   61.0965 N   0  0  0  0  0  0  0  0  0  0  0  0
    3.7932   66.0387   63.3664 C   0  0  0  0  0  0  0  0  0  0  0  0
    4.7328   64.9359   63.1781 C   0  0  0  0  0  0  0  0  0  0  0  0
    4.6447   63.8062   63.8941 C   0  0  0  0  0  0  0  0  0  0  0  0
    3.5814   63.6644   64.9140 C   0  0  0  0  0  0  0  0  0  0  0  0
    3.4685   62.6418   65.5786 O   0  0  0  0  0  0  0  0  0  0  0  0
    2.7556   64.7480   65.0638 N   0  0  0  0  0  0  0  0  0  0  0  0
    2.8465   65.9092   64.3258 C   0  0  0  0  0  0  0  0  0  0  0  0
    1.8677   67.0107   64.6710 C   0  0  0  0  0  0  0  0  0  0  0  0
    5.0712   66.4372   61.0549 H   0  0  0  0  0  0  0  0  0  0  0  0
    4.3054   67.8269   60.5483 H   0  0  0  0  0  0  0  0  0  0  0  0
    2.0479   64.6934   65.7461 H   0  0  0  0  0  0  0  0  0  0  0  0
  1  2  1  0
  2  3  2  0
  3  4  1  0
  4  5  1  0
  5  6  2  0
  6  7  1  0
  6  8  1  0
  8  9  1  0
  9 10  1  0
  9 11  1  0
 11 12  1  0
 12 13  2  0
 13 14  1  0
 14 15  2  0
 14 16  1  0
 16 17  1  0
 17 18  1  0
  9  3  1  0
 17 11  2  0
  4 18  1  0
 10 19  1  0
 10 20  1  0
 16 21  1  0
M  END
> <minimizedAffinity>
-9.99850

> <CNNscore>
0.8886679411

> <CNNaffinity>
6.8923153877

> <CNN_VS>
6.1249794960

> <CNNaffinity_variance>
0.2794111073

$$$$



 21 23  0  0  0  0  0  0  0  0999 V2000
    2.0234   68.3700   59.8358 C   0  0  0  0  0  0  0  0  0  0  0  0
    1.9389   68.2479   61.3232 C   0  0  0  0  0  0  0  0  0  0  0  0
    2.9008   67.8555   62.1871 C   0  0  0  0  0  0  0  0  0  0  0  0
    4.3016   67.4140   61.7919 C   0  0  0  0  0  0  0  0  0  0  0  0
    4.6234   66.0451   62.3706 C   0  0  0  0  0  0  0  0  0  0  0  0
    3.9563   65.4986   63.4060 C   0  0  0  0  0  0  0  0  0  0  0  0
    4.2683   64.1338   63.9413 C   0  0  0  0  0  0  0  0  0  0  0  0
    2.8318   66.2554   64.0964 C   0  0  0  0  0  0  0  0  0  0  0  0
    2.7545   67.7728   63.7197 C   0  0  0  0  0  0  0  0  0  0  0  0
    1.4480   68.3105   64.1413 N   0  0  0  0  0  0  0  0  0  0  0  0
    3.9112   68.5512   64.4025 C   0  0  0  0  0  0  0  0  0  0  0  0
    3.8128   68.9301   65.8100 C   0  0  0  0  0  0  0  0  0  0  0  0
    4.7831   69.6239   66.4216 C   0  0  0  0  0  0  0  0  0  0  0  0
    5.9962   70.0109   65.6670 C   0  0  0  0  0  0  0  0  0  0  0  0
    6.8967   70.6524   66.1942 O   0  0  0  0  0  0  0  0  0  0  0  0
    6.0402   69.5950   64.3618 N   0  0  0  0  0  0  0  0  0  0  0  0
    5.0410   68.8823   63.7335 C   0  0  0  0  0  0  0  0  0  0  0  0
    5.2965   68.4774   62.2978 C   0  0  0  0  0  0  0  0  0  0  0  0
    1.3665   68.2489   65.1562 H   0  0  0  0  0  0  0  0  0  0  0  0
    0.7011   67.7686   63.7067 H   0  0  0  0  0  0  0  0  0  0  0  0
    6.8413   69.8209   63.8361 H   0  0  0  0  0  0  0  0  0  0  0  0
  1  2  1  0
  2  3  2  0
  3  4  1  0
  4  5  1  0
  5  6  2  0
  6  7  1  0
  6  8  1  0
  8  9  1  0
  9 10  1  0
  9 11  1  0
 11 12  1  0
 12 13  2  0
 13 14  1  0
 14 15  2  0
 14 16  1  0
 16 17  1  0
 17 18  1  0
  9  3  1  0
 17 11  2  0
  4 18  1  0
 10 19  1  0
 10 20  1  0
 16 21  1  0
M  END
> <minimizedAffinity>
-8.84500

> <CNNscore>
0.7451648712

> <CNNaffinity>
6.6615085602

> <CNN_VS>
4.9639220238

> <CNNaffinity_variance>
0.2610132396

$$$$



 21 23  0  0  0  0  0  0  0  0999 V2000
   -0.7312   65.3227   72.9568 C   0  0  0  0  0  0  0  0  0  0  0  0
    0.0337   64.2228   73.6196 C   0  0  0  0  0  0  0  0  0  0  0  0
    0.2002   62.9487   73.2016 C   0  0  0  0  0  0  0  0  0  0  0  0
   -0.4109   62.3570   71.9407 C   0  0  0  0  0  0  0  0  0  0  0  0
   -1.1949   61.0933   72.2583 C   0  0  0  0  0  0  0  0  0  0  0  0
   -1.0285   60.3777   73.3878 C   0  0  0  0  0  0  0  0  0  0  0  0
   -1.8341   59.1522   73.6968 C   0  0  0  0  0  0  0  0  0  0  0  0
    0.0063   60.7864   74.4252 C   0  0  0  0  0  0  0  0  0  0  0  0
    1.0245   61.8649   73.9248 C   0  0  0  0  0  0  0  0  0  0  0  0
    1.7277   62.4423   75.0849 N   0  0  0  0  0  0  0  0  0  0  0  0
    2.0361   61.2248   72.9364 C   0  0  0  0  0  0  0  0  0  0  0  0
    3.1630   60.4433   73.4402 C   0  0  0  0  0  0  0  0  0  0  0  0
    4.0673   59.8990   72.6140 C   0  0  0  0  0  0  0  0  0  0  0  0
    3.9254   60.0753   71.1512 C   0  0  0  0  0  0  0  0  0  0  0  0
    4.7393   59.5982   70.3701 O   0  0  0  0  0  0  0  0  0  0  0  0
    2.8286   60.7894   70.7440 N   0  0  0  0  0  0  0  0  0  0  0  0
    1.8996   61.3498   71.5950 C   0  0  0  0  0  0  0  0  0  0  0  0
    0.7328   62.0652   70.9490 C   0  0  0  0  0  0  0  0  0  0  0  0
    2.2678   61.7140   75.5521 H   0  0  0  0  0  0  0  0  0  0  0  0
    1.0462   62.8311   75.7365 H   0  0  0  0  0  0  0  0  0  0  0  0
    2.6948   60.9107   69.7762 H   0  0  0  0  0  0  0  0  0  0  0  0
  1  2  1  0
  2  3  2  0
  3  4  1  0
  4  5  1  0
  5  6  2  0
  6  7  1  0
  6  8  1  0
  8  9  1  0
  9 10  1  0
  9 11  1  0
 11 12  1  0
 12 13  2  0
 13 14  1  0
 14 15  2  0
 14 16  1  0
 16 17  1  0
 17 18  1  0
  9  3  1  0
 17 11  2  0
  4 18  1  0
 10 19  1  0
 10 20  1  0
 16 21  1  0
M  END
> <minimizedAffinity>
-7.00782

> <CNNscore>
0.6734014153

> <CNNaffinity>
5.7500672340

> <CNN_VS>
3.8721034527

> <CNNaffinity_variance>
0.3494023383

$$$$



 21 23  0  0  0  0  0  0  0  0999 V2000
    1.9880   69.6303   67.7613 C   0  0  0  0  0  0  0  0  0  0  0  0
    2.9499   69.3242   66.6589 C   0  0  0  0  0  0  0  0  0  0  0  0
    2.8467   68.3832   65.6947 C   0  0  0  0  0  0  0  0  0  0  0  0
    1.6996   67.3935   65.5604 C   0  0  0  0  0  0  0  0  0  0  0  0
    2.2184   65.9652   65.5019 C   0  0  0  0  0  0  0  0  0  0  0  0
    3.4905   65.6470   65.1917 C   0  0  0  0  0  0  0  0  0  0  0  0
    3.9902   64.2341   65.1707 C   0  0  0  0  0  0  0  0  0  0  0  0
    4.5016   66.7276   64.8400 C   0  0  0  0  0  0  0  0  0  0  0  0
    3.8691   68.1334   64.5680 C   0  0  0  0  0  0  0  0  0  0  0  0
    4.9303   69.1565   64.6005 N   0  0  0  0  0  0  0  0  0  0  0  0
    3.1493   68.1371   63.1926 C   0  0  0  0  0  0  0  0  0  0  0  0
    3.9193   68.2823   61.9596 C   0  0  0  0  0  0  0  0  0  0  0  0
    3.3253   68.3142   60.7584 C   0  0  0  0  0  0  0  0  0  0  0  0
    1.8537   68.1869   60.6636 C   0  0  0  0  0  0  0  0  0  0  0  0
    1.2797   68.2210   59.5820 O   0  0  0  0  0  0  0  0  0  0  0  0
    1.1953   68.0193   61.8540 N   0  0  0  0  0  0  0  0  0  0  0  0
    1.8074   67.9878   63.0891 C   0  0  0  0  0  0  0  0  0  0  0  0
    0.9106   67.7493   64.2847 C   0  0  0  0  0  0  0  0  0  0  0  0
    5.5979   68.9778   63.8503 H   0  0  0  0  0  0  0  0  0  0  0  0
    5.4109   69.1193   65.4994 H   0  0  0  0  0  0  0  0  0  0  0  0
    0.2169   67.9142   61.8251 H   0  0  0  0  0  0  0  0  0  0  0  0
  1  2  1  0
  2  3  2  0
  3  4  1  0
  4  5  1  0
  5  6  2  0
  6  7  1  0
  6  8  1  0
  8  9  1  0
  9 10  1  0
  9 11  1  0
 11 12  1  0
 12 13  2  0
 13 14  1  0
 14 15  2  0
 14 16  1  0
 16 17  1  0
 17 18  1  0
  9  3  1  0
 17 11  2  0
  4 18  1  0
 10 19  1  0
 10 20  1  0
 16 21  1  0
M  END
> <minimizedAffinity>
-9.77455

> <CNNscore>
0.4662634134

> <CNNaffinity>
6.4504342079

> <CNN_VS>
3.0076014996

> <CNNaffinity_variance>
0.4137465656

$$$$



 21 23  0  0  0  0  0  0  0  0999 V2000
    3.8343   63.2528   64.0177 C   0  0  0  0  0  0  0  0  0  0  0  0
    4.2937   64.4856   63.3081 C   0  0  0  0  0  0  0  0  0  0  0  0
    3.9121   65.7645   63.5191 C   0  0  0  0  0  0  0  0  0  0  0  0
    2.8754   66.2089   64.5394 C   0  0  0  0  0  0  0  0  0  0  0  0
    1.7901   67.0466   63.8816 C   0  0  0  0  0  0  0  0  0  0  0  0
    1.9382   67.6531   62.6875 C   0  0  0  0  0  0  0  0  0  0  0  0
    0.8445   68.4484   62.0412 C   0  0  0  0  0  0  0  0  0  0  0  0
    3.2493   67.5590   61.9219 C   0  0  0  0  0  0  0  0  0  0  0  0
    4.4444   66.9986   62.7634 C   0  0  0  0  0  0  0  0  0  0  0  0
    5.5382   66.6121   61.8536 N   0  0  0  0  0  0  0  0  0  0  0  0
    4.9303   68.0687   63.7777 C   0  0  0  0  0  0  0  0  0  0  0  0
    5.7960   69.1601   63.3376 C   0  0  0  0  0  0  0  0  0  0  0  0
    6.2525   70.0853   64.1934 C   0  0  0  0  0  0  0  0  0  0  0  0
    5.8668   70.0187   65.6209 C   0  0  0  0  0  0  0  0  0  0  0  0
    6.2740   70.8434   66.4299 O   0  0  0  0  0  0  0  0  0  0  0  0
    5.0261   68.9908   65.9604 N   0  0  0  0  0  0  0  0  0  0  0  0
    4.5580   68.0392   65.0793 C   0  0  0  0  0  0  0  0  0  0  0  0
    3.6021   67.0081   65.6394 C   0  0  0  0  0  0  0  0  0  0  0  0
    5.8792   67.4381   61.3618 H   0  0  0  0  0  0  0  0  0  0  0  0
    5.1931   65.9317   61.1767 H   0  0  0  0  0  0  0  0  0  0  0  0
    4.7362   68.9276   66.8992 H   0  0  0  0  0  0  0  0  0  0  0  0
  1  2  1  0
  2  3  2  0
  3  4  1  0
  4  5  1  0
  5  6  2  0
  6  7  1  0
  6  8  1  0
  8  9  1  0
  9 10  1  0
  9 11  1  0
 11 12  1  0
 12 13  2  0
 13 14  1  0
 14 15  2  0
 14 16  1  0
 16 17  1  0
 17 18  1  0
  9  3  1  0
 17 11  2  0
  4 18  1  0
 10 19  1  0
 10 20  1  0
 16 21  1  0
M  END
> <minimizedAffinity>
-8.33406

> <CNNscore>
0.4648882449

> <CNNaffinity>
6.3665461540

> <CNN_VS>
2.9597325325

> <CNNaffinity_variance>
0.1353790313

$$$$



 21 23  0  0  0  0  0  0  0  0999 V2000
   -5.6964   56.9949   63.2144 C   0  0  0  0  0  0  0  0  0  0  0  0
   -5.5742   58.3638   63.8022 C   0  0  0  0  0  0  0  0  0  0  0  0
   -6.5123   59.0790   64.4611 C   0  0  0  0  0  0  0  0  0  0  0  0
   -7.9408   58.6218   64.7132 C   0  0  0  0  0  0  0  0  0  0  0  0
   -8.9382   59.6559   64.2148 C   0  0  0  0  0  0  0  0  0  0  0  0
   -8.6204   60.9438   63.9785 C   0  0  0  0  0  0  0  0  0  0  0  0
   -9.6109   61.9404   63.4568 C   0  0  0  0  0  0  0  0  0  0  0  0
   -7.2127   61.4599   64.2354 C   0  0  0  0  0  0  0  0  0  0  0  0
   -6.3133   60.4836   65.0650 C   0  0  0  0  0  0  0  0  0  0  0  0
   -4.9045   60.9010   64.9428 N   0  0  0  0  0  0  0  0  0  0  0  0
   -6.7561   60.4853   66.5529 C   0  0  0  0  0  0  0  0  0  0  0  0
   -6.3427   61.5681   67.4423 C   0  0  0  0  0  0  0  0  0  0  0  0
   -6.6876   61.5855   68.7375 C   0  0  0  0  0  0  0  0  0  0  0  0
   -7.5191   60.4930   69.2906 C   0  0  0  0  0  0  0  0  0  0  0  0
   -7.8439   60.4750   70.4715 O   0  0  0  0  0  0  0  0  0  0  0  0
   -7.9007   59.5275   68.3958 N   0  0  0  0  0  0  0  0  0  0  0  0
   -7.5444   59.5101   67.0639 C   0  0  0  0  0  0  0  0  0  0  0  0
   -8.1032   58.3797   66.2270 C   0  0  0  0  0  0  0  0  0  0  0  0
   -4.7892   61.8307   65.3462 H   0  0  0  0  0  0  0  0  0  0  0  0
   -4.6405   60.9225   63.9578 H   0  0  0  0  0  0  0  0  0  0  0  0
   -8.4691   58.7951   68.7272 H   0  0  0  0  0  0  0  0  0  0  0  0
  1  2  1  0
  2  3  2  0
  3  4  1  0
  4  5  1  0
  5  6  2  0
  6  7  1  0
  6  8  1  0
  8  9  1  0
  9 10  1  0
  9 11  1  0
 11 12  1  0
 12 13  2  0
 13 14  1  0
 14 15  2  0
 14 16  1  0
 16 17  1  0
 17 18  1  0
  9  3  1  0
 17 11  2  0
  4 18  1  0
 10 19  1  0
 10 20  1  0
 16 21  1  0
M  END
> <minimizedAffinity>
81.95324

> <CNNscore>
0.4470055997

> <CNNaffinity>
4.7448801994

> <CNN_VS>
2.1209881306

> <CNNaffinity_variance>
0.2162959129

$$$$
