


 21 22  0  0  0  0  0  0  0  0999 V2000
   28.1176   65.8960   12.0684 O   0  0  0  0  0  0  0  0  0  0  0  0
   28.8856   65.9929   11.1384 C   0  0  0  0  0  0  0  0  0  0  0  0
   30.1797   65.5262   11.0669 N   0  0  0  0  0  0  0  0  0  0  0  0
   30.6653   65.5712    9.7195 C   0  0  0  0  0  0  0  0  0  0  0  0
   32.1293   66.0435    9.5937 C   0  0  0  0  0  0  0  0  0  0  0  0
   32.9686   64.8921    9.3782 O   0  0  0  0  0  0  0  0  0  0  0  0
   32.3266   67.0219    8.4206 C   0  0  0  0  0  0  0  0  0  0  0  0
   33.7074   66.9899    8.0162 O   0  0  0  0  0  0  0  0  0  0  0  0
   31.4281   66.6668    7.2267 C   0  0  0  0  0  0  0  0  0  0  0  0
   31.7604   67.5467    6.1443 O   0  0  0  0  0  0  0  0  0  0  0  0
   29.9445   66.8157    7.6344 C   0  0  0  0  0  0  0  0  0  0  0  0
   29.7267   66.4004    9.0128 N   0  0  0  0  0  0  0  0  0  0  0  0
   28.5958   66.6399    9.7582 C   0  0  0  0  0  0  0  0  0  0  0  0
   27.5872   67.2236    9.4311 O   0  0  0  0  0  0  0  0  0  0  0  0
   30.7008   65.2049   11.8378 H   0  0  0  0  0  0  0  0  0  0  0  0
   32.7085   64.4522    8.5537 H   0  0  0  0  0  0  0  0  0  0  0  0
   33.9375   66.0946    7.7223 H   0  0  0  0  0  0  0  0  0  0  0  0
   31.6218   68.4661    6.4208 H   0  0  0  0  0  0  0  0  0  0  0  0
   29.0231   66.0867    6.6405 C   0  0  0  0  0  0  0  0  0  0  0  0
   27.8064   66.8144    6.4723 O   0  0  0  0  0  0  0  0  0  0  0  0
   27.3520   66.8863    7.3262 H   0  0  0  0  0  0  0  0  0  0  0  0
  1  2  2  0
  2  3  1  0
  4  3  1  0
  4  5  1  0
  5  6  1  0
  5  7  1  0
  7  8  1  0
  7  9  1  0
  9 10  1  0
  9 11  1  0
 11 19  1  0
 19 20  1  0
 11 12  1  0
 12 13  1  0
 13 14  2  0
 13  2  1  0
 12  4  1  0
  3 15  1  0
  6 16  1  0
  8 17  1  0
 10 18  1  0
 20 21  1  0
M  END
> <minimizedAffinity>
-7.28975

> <CNNscore>
0.8419909477

> <CNNaffinity>
5.6192555428

> <CNN_VS>
4.7313623428

> <CNNaffinity_variance>
1.2196096182

$$$$



 21 22  0  0  0  0  0  0  0  0999 V2000
   19.4900   63.4502   13.7126 O   0  0  0  0  0  0  0  0  0  0  0  0
   20.5653   63.6805   14.2173 C   0  0  0  0  0  0  0  0  0  0  0  0
   21.0203   63.2645   15.4492 N   0  0  0  0  0  0  0  0  0  0  0  0
   22.4306   63.4849   15.5741 C   0  0  0  0  0  0  0  0  0  0  0  0
   22.8650   64.0122   16.9581 C   0  0  0  0  0  0  0  0  0  0  0  0
   23.4270   62.9204   17.7122 O   0  0  0  0  0  0  0  0  0  0  0  0
   23.9197   65.1295   16.8506 C   0  0  0  0  0  0  0  0  0  0  0  0
   24.6625   65.1872   18.0819 O   0  0  0  0  0  0  0  0  0  0  0  0
   24.8805   64.8933   15.6759 C   0  0  0  0  0  0  0  0  0  0  0  0
   25.8948   65.9060   15.7219 O   0  0  0  0  0  0  0  0  0  0  0  0
   24.0942   64.9481   14.3463 C   0  0  0  0  0  0  0  0  0  0  0  0
   22.7677   64.3644   14.4875 N   0  0  0  0  0  0  0  0  0  0  0  0
   21.7358   64.4792   13.5853 C   0  0  0  0  0  0  0  0  0  0  0  0
   21.7213   65.0676   12.5277 O   0  0  0  0  0  0  0  0  0  0  0  0
   20.4527   62.8689   16.1497 H   0  0  0  0  0  0  0  0  0  0  0  0
   24.2060   62.5748   17.2490 H   0  0  0  0  0  0  0  0  0  0  0  0
   25.1133   64.3408   18.2275 H   0  0  0  0  0  0  0  0  0  0  0  0
   25.4809   66.7811   15.6603 H   0  0  0  0  0  0  0  0  0  0  0  0
   24.9034   64.3162   13.1999 C   0  0  0  0  0  0  0  0  0  0  0  0
   25.7693   63.3018   13.7094 O   0  0  0  0  0  0  0  0  0  0  0  0
   26.3847   63.6933   14.3489 H   0  0  0  0  0  0  0  0  0  0  0  0
  1  2  2  0
  2  3  1  0
  4  3  1  0
  4  5  1  0
  5  6  1  0
  5  7  1  0
  7  8  1  0
  7  9  1  0
  9 10  1  0
  9 11  1  0
 11 19  1  0
 19 20  1  0
 11 12  1  0
 12 13  1  0
 13 14  2  0
 13  2  1  0
 12  4  1  0
  3 15  1  0
  6 16  1  0
  8 17  1  0
 10 18  1  0
 20 21  1  0
M  END
> <minimizedAffinity>
-5.28927

> <CNNscore>
0.7287566066

> <CNNaffinity>
3.8563787937

> <CNN_VS>
2.8103616238

> <CNNaffinity_variance>
0.0169567931

$$$$



 21 22  0  0  0  0  0  0  0  0999 V2000
   22.3300   64.9993   12.4058 O   0  0  0  0  0  0  0  0  0  0  0  0
   23.1218   64.9434   13.3190 C   0  0  0  0  0  0  0  0  0  0  0  0
   22.8644   64.6251   14.6343 N   0  0  0  0  0  0  0  0  0  0  0  0
   24.0823   64.3808   15.3487 C   0  0  0  0  0  0  0  0  0  0  0  0
   24.1041   64.9699   16.7751 C   0  0  0  0  0  0  0  0  0  0  0  0
   23.8684   63.9054   17.7174 O   0  0  0  0  0  0  0  0  0  0  0  0
   25.4531   65.6333   17.1104 C   0  0  0  0  0  0  0  0  0  0  0  0
   25.6162   65.6576   18.5401 O   0  0  0  0  0  0  0  0  0  0  0  0
   26.6301   64.8856   16.4667 C   0  0  0  0  0  0  0  0  0  0  0  0
   27.8454   65.4930   16.9252 O   0  0  0  0  0  0  0  0  0  0  0  0
   26.5113   64.9626   14.9275 C   0  0  0  0  0  0  0  0  0  0  0  0
   25.1225   64.8898   14.4962 N   0  0  0  0  0  0  0  0  0  0  0  0
   24.6529   65.1801   13.2363 C   0  0  0  0  0  0  0  0  0  0  0  0
   25.2769   65.5420   12.2643 O   0  0  0  0  0  0  0  0  0  0  0  0
   21.9645   64.5725   15.0303 H   0  0  0  0  0  0  0  0  0  0  0  0
   24.5731   63.2433   17.6401 H   0  0  0  0  0  0  0  0  0  0  0  0
   25.6180   64.7494   18.8808 H   0  0  0  0  0  0  0  0  0  0  0  0
   27.8525   66.4303   16.6758 H   0  0  0  0  0  0  0  0  0  0  0  0
   27.4007   63.9041   14.2516 C   0  0  0  0  0  0  0  0  0  0  0  0
   26.5923   62.9394   13.5777 O   0  0  0  0  0  0  0  0  0  0  0  0
   26.0127   62.4988   14.2187 H   0  0  0  0  0  0  0  0  0  0  0  0
  1  2  2  0
  2  3  1  0
  4  3  1  0
  4  5  1  0
  5  6  1  0
  5  7  1  0
  7  8  1  0
  7  9  1  0
  9 10  1  0
  9 11  1  0
 11 19  1  0
 19 20  1  0
 11 12  1  0
 12 13  1  0
 13 14  2  0
 13  2  1  0
 12  4  1  0
  3 15  1  0
  6 16  1  0
  8 17  1  0
 10 18  1  0
 20 21  1  0
M  END
> <minimizedAffinity>
-5.17656

> <CNNscore>
0.3891331255

> <CNNaffinity>
3.5737130642

> <CNN_VS>
1.3906501532

> <CNNaffinity_variance>
0.3943274021

$$$$



 21 22  0  0  0  0  0  0  0  0999 V2000
   23.9832   64.8817   17.9302 O   0  0  0  0  0  0  0  0  0  0  0  0
   24.7262   64.8180   16.9774 C   0  0  0  0  0  0  0  0  0  0  0  0
   24.3796   64.6952   15.6499 N   0  0  0  0  0  0  0  0  0  0  0  0
   25.5079   64.9432   14.8020 C   0  0  0  0  0  0  0  0  0  0  0  0
   25.6112   63.9858   13.5959 C   0  0  0  0  0  0  0  0  0  0  0  0
   25.1476   64.6755   12.4185 O   0  0  0  0  0  0  0  0  0  0  0  0
   27.0560   63.5118   13.3508 C   0  0  0  0  0  0  0  0  0  0  0  0
   27.1863   63.1107   11.9749 O   0  0  0  0  0  0  0  0  0  0  0  0
   28.0776   64.6136   13.6689 C   0  0  0  0  0  0  0  0  0  0  0  0
   29.3775   64.1328   13.3010 O   0  0  0  0  0  0  0  0  0  0  0  0
   28.0133   64.9587   15.1742 C   0  0  0  0  0  0  0  0  0  0  0  0
   26.6482   64.8972   15.6769 N   0  0  0  0  0  0  0  0  0  0  0  0
   26.2756   64.8979   17.0010 C   0  0  0  0  0  0  0  0  0  0  0  0
   26.9818   64.9486   17.9827 O   0  0  0  0  0  0  0  0  0  0  0  0
   23.4778   64.4676   15.3270 H   0  0  0  0  0  0  0  0  0  0  0  0
   25.7096   65.4490   12.2547 H   0  0  0  0  0  0  0  0  0  0  0  0
   27.0008   63.8683   11.3983 H   0  0  0  0  0  0  0  0  0  0  0  0
   29.5753   63.3233   13.7974 H   0  0  0  0  0  0  0  0  0  0  0  0
   28.6926   66.3097   15.4602 C   0  0  0  0  0  0  0  0  0  0  0  0
   30.0956   66.1252   15.6490 O   0  0  0  0  0  0  0  0  0  0  0  0
   30.2453   65.5333   16.4028 H   0  0  0  0  0  0  0  0  0  0  0  0
  1  2  2  0
  2  3  1  0
  4  3  1  0
  4  5  1  0
  5  6  1  0
  5  7  1  0
  7  8  1  0
  7  9  1  0
  9 10  1  0
  9 11  1  0
 11 19  1  0
 19 20  1  0
 11 12  1  0
 12 13  1  0
 13 14  2  0
 13  2  1  0
 12  4  1  0
  3 15  1  0
  6 16  1  0
  8 17  1  0
 10 18  1  0
 20 21  1  0
M  END
> <minimizedAffinity>
-5.63655

> <CNNscore>
0.2975037396

> <CNNaffinity>
3.2064545155

> <CNN_VS>
0.9539322257

> <CNNaffinity_variance>
0.8667646050

$$$$



 21 22  0  0  0  0  0  0  0  0999 V2000
   32.6287   71.8668   16.0447 O   0  0  0  0  0  0  0  0  0  0  0  0
   33.0817   71.1908   16.9401 C   0  0  0  0  0  0  0  0  0  0  0  0
   34.1130   71.5126   17.7949 N   0  0  0  0  0  0  0  0  0  0  0  0
   34.1701   70.5959   18.8947 C   0  0  0  0  0  0  0  0  0  0  0  0
   35.6018   70.1794   19.2932 C   0  0  0  0  0  0  0  0  0  0  0  0
   35.9843   70.9135   20.4727 O   0  0  0  0  0  0  0  0  0  0  0  0
   35.7068   68.6730   19.5962 C   0  0  0  0  0  0  0  0  0  0  0  0
   36.8396   68.4498   20.4554 O   0  0  0  0  0  0  0  0  0  0  0  0
   34.4334   68.1378   20.2676 C   0  0  0  0  0  0  0  0  0  0  0  0
   34.6612   66.7672   20.6220 O   0  0  0  0  0  0  0  0  0  0  0  0
   33.2402   68.2739   19.2944 C   0  0  0  0  0  0  0  0  0  0  0  0
   33.3340   69.4931   18.5040 N   0  0  0  0  0  0  0  0  0  0  0  0
   32.5882   69.7893   17.3868 C   0  0  0  0  0  0  0  0  0  0  0  0
   31.7322   69.1204   16.8529 O   0  0  0  0  0  0  0  0  0  0  0  0
   34.7282   72.2706   17.6672 H   0  0  0  0  0  0  0  0  0  0  0  0
   35.3799   70.6954   21.1994 H   0  0  0  0  0  0  0  0  0  0  0  0
   36.7137   68.9310   21.2881 H   0  0  0  0  0  0  0  0  0  0  0  0
   34.8724   66.2577   19.8240 H   0  0  0  0  0  0  0  0  0  0  0  0
   31.9010   68.1512   20.0426 C   0  0  0  0  0  0  0  0  0  0  0  0
   31.7319   66.8217   20.5347 O   0  0  0  0  0  0  0  0  0  0  0  0
   31.7336   66.1991   19.7910 H   0  0  0  0  0  0  0  0  0  0  0  0
  1  2  2  0
  2  3  1  0
  4  3  1  0
  4  5  1  0
  5  6  1  0
  5  7  1  0
  7  8  1  0
  7  9  1  0
  9 10  1  0
  9 11  1  0
 11 19  1  0
 19 20  1  0
 11 12  1  0
 12 13  1  0
 13 14  2  0
 13  2  1  0
 12  4  1  0
  3 15  1  0
  6 16  1  0
  8 17  1  0
 10 18  1  0
 20 21  1  0
M  END
> <minimizedAffinity>
-5.08124

> <CNNscore>
0.2651773691

> <CNNaffinity>
2.6031906605

> <CNN_VS>
0.6903072596

> <CNNaffinity_variance>
0.9650278091

$$$$



 21 22  0  0  0  0  0  0  0  0999 V2000
   22.6750   65.2400   12.0174 O   0  0  0  0  0  0  0  0  0  0  0  0
   23.8096   65.0638   12.3989 C   0  0  0  0  0  0  0  0  0  0  0  0
   24.2370   64.8535   13.6915 N   0  0  0  0  0  0  0  0  0  0  0  0
   25.5964   64.4008   13.7130 C   0  0  0  0  0  0  0  0  0  0  0  0
   26.4509   65.0284   14.8346 C   0  0  0  0  0  0  0  0  0  0  0  0
   26.5898   64.0686   15.9005 O   0  0  0  0  0  0  0  0  0  0  0  0
   27.8561   65.4243   14.3436 C   0  0  0  0  0  0  0  0  0  0  0  0
   28.7469   65.4707   15.4730 O   0  0  0  0  0  0  0  0  0  0  0  0
   28.3935   64.4343   13.2996 C   0  0  0  0  0  0  0  0  0  0  0  0
   29.7430   64.8064   12.9888 O   0  0  0  0  0  0  0  0  0  0  0  0
   27.4975   64.4740   12.0407 C   0  0  0  0  0  0  0  0  0  0  0  0
   26.0963   64.6608   12.3900 N   0  0  0  0  0  0  0  0  0  0  0  0
   25.0846   64.9896   11.5179 C   0  0  0  0  0  0  0  0  0  0  0  0
   25.1512   65.1833   10.3250 O   0  0  0  0  0  0  0  0  0  0  0  0
   23.6829   64.9953   14.4929 H   0  0  0  0  0  0  0  0  0  0  0  0
   27.0414   63.2777   15.5666 H   0  0  0  0  0  0  0  0  0  0  0  0
   28.7923   64.5939   15.8853 H   0  0  0  0  0  0  0  0  0  0  0  0
   29.7574   65.7136   12.6456 H   0  0  0  0  0  0  0  0  0  0  0  0
   27.7307   63.2353   11.1578 C   0  0  0  0  0  0  0  0  0  0  0  0
   28.7803   63.4873   10.2234 O   0  0  0  0  0  0  0  0  0  0  0  0
   28.5354   64.2350    9.6560 H   0  0  0  0  0  0  0  0  0  0  0  0
  1  2  2  0
  2  3  1  0
  4  3  1  0
  4  5  1  0
  5  6  1  0
  5  7  1  0
  7  8  1  0
  7  9  1  0
  9 10  1  0
  9 11  1  0
 11 19  1  0
 19 20  1  0
 11 12  1  0
 12 13  1  0
 13 14  2  0
 13  2  1  0
 12  4  1  0
  3 15  1  0
  6 16  1  0
  8 17  1  0
 10 18  1  0
 20 21  1  0
M  END
> <minimizedAffinity>
-5.57805

> <CNNscore>
0.2194788605

> <CNNaffinity>
2.6626863480

> <CNN_VS>
0.5844033360

> <CNNaffinity_variance>
0.8832564354

$$$$



 21 22  0  0  0  0  0  0  0  0999 V2000
   27.5499   65.2312   16.7807 O   0  0  0  0  0  0  0  0  0  0  0  0
   27.1276   64.8603   15.7092 C   0  0  0  0  0  0  0  0  0  0  0  0
   27.7831   64.0985   14.7671 N   0  0  0  0  0  0  0  0  0  0  0  0
   26.8707   63.6228   13.7698 C   0  0  0  0  0  0  0  0  0  0  0  0
   27.4287   63.6722   12.3316 C   0  0  0  0  0  0  0  0  0  0  0  0
   27.8329   62.3433   11.9478 O   0  0  0  0  0  0  0  0  0  0  0  0
   26.3849   64.1800   11.3193 C   0  0  0  0  0  0  0  0  0  0  0  0
   26.7367   63.7001   10.0089 O   0  0  0  0  0  0  0  0  0  0  0  0
   24.9677   63.7109   11.6802 C   0  0  0  0  0  0  0  0  0  0  0  0
   24.0831   64.1224   10.6292 O   0  0  0  0  0  0  0  0  0  0  0  0
   24.5500   64.3243   13.0361 C   0  0  0  0  0  0  0  0  0  0  0  0
   25.6770   64.4030   13.9547 N   0  0  0  0  0  0  0  0  0  0  0  0
   25.7111   65.1165   15.1302 C   0  0  0  0  0  0  0  0  0  0  0  0
   24.8416   65.7996   15.6227 O   0  0  0  0  0  0  0  0  0  0  0  0
   28.7487   63.9067   14.7776 H   0  0  0  0  0  0  0  0  0  0  0  0
   27.0632   61.7533   11.9661 H   0  0  0  0  0  0  0  0  0  0  0  0
   26.7315   62.7301   10.0077 H   0  0  0  0  0  0  0  0  0  0  0  0
   24.1159   65.0876   10.5384 H   0  0  0  0  0  0  0  0  0  0  0  0
   23.3463   63.5746   13.6338 C   0  0  0  0  0  0  0  0  0  0  0  0
   22.2084   64.4351   13.6892 O   0  0  0  0  0  0  0  0  0  0  0  0
   22.4096   65.2016   14.2487 H   0  0  0  0  0  0  0  0  0  0  0  0
  1  2  2  0
  2  3  1  0
  4  3  1  0
  4  5  1  0
  5  6  1  0
  5  7  1  0
  7  8  1  0
  7  9  1  0
  9 10  1  0
  9 11  1  0
 11 19  1  0
 19 20  1  0
 11 12  1  0
 12 13  1  0
 13 14  2  0
 13  2  1  0
 12  4  1  0
  3 15  1  0
  6 16  1  0
  8 17  1  0
 10 18  1  0
 20 21  1  0
M  END
> <minimizedAffinity>
-5.37285

> <CNNscore>
0.2081181705

> <CNNaffinity>
3.0239379406

> <CNN_VS>
0.6293364167

> <CNNaffinity_variance>
0.4950551689

$$$$



 21 22  0  0  0  0  0  0  0  0999 V2000
   27.5717   69.2943   11.6908 O   0  0  0  0  0  0  0  0  0  0  0  0
   26.8969   68.4419   11.1596 C   0  0  0  0  0  0  0  0  0  0  0  0
   27.2613   67.1468   10.8639 N   0  0  0  0  0  0  0  0  0  0  0  0
   26.1161   66.3624   10.5080 C   0  0  0  0  0  0  0  0  0  0  0  0
   26.3554   65.4002    9.3251 C   0  0  0  0  0  0  0  0  0  0  0  0
   26.5418   64.0688    9.8439 O   0  0  0  0  0  0  0  0  0  0  0  0
   25.1712   65.3826    8.3404 C   0  0  0  0  0  0  0  0  0  0  0  0
   25.1878   64.1391    7.6160 O   0  0  0  0  0  0  0  0  0  0  0  0
   23.8266   65.5427    9.0650 C   0  0  0  0  0  0  0  0  0  0  0  0
   22.7801   65.3948    8.0959 O   0  0  0  0  0  0  0  0  0  0  0  0
   23.7683   66.9295    9.7452 C   0  0  0  0  0  0  0  0  0  0  0  0
   25.0680   67.3186   10.2736 N   0  0  0  0  0  0  0  0  0  0  0  0
   25.4196   68.5766   10.7048 C   0  0  0  0  0  0  0  0  0  0  0  0
   24.7436   69.5803   10.7321 O   0  0  0  0  0  0  0  0  0  0  0  0
   28.1844   66.8059   10.8931 H   0  0  0  0  0  0  0  0  0  0  0  0
   25.7421   63.7915   10.3177 H   0  0  0  0  0  0  0  0  0  0  0  0
   25.0917   63.4012    8.2382 H   0  0  0  0  0  0  0  0  0  0  0  0
   22.8828   66.0668    7.4040 H   0  0  0  0  0  0  0  0  0  0  0  0
   22.6556   66.9771   10.8073 C   0  0  0  0  0  0  0  0  0  0  0  0
   21.3923   66.6835   10.2104 O   0  0  0  0  0  0  0  0  0  0  0  0
   21.1986   67.3407    9.5238 H   0  0  0  0  0  0  0  0  0  0  0  0
  1  2  2  0
  2  3  1  0
  4  3  1  0
  4  5  1  0
  5  6  1  0
  5  7  1  0
  7  8  1  0
  7  9  1  0
  9 10  1  0
  9 11  1  0
 11 19  1  0
 19 20  1  0
 11 12  1  0
 12 13  1  0
 13 14  2  0
 13  2  1  0
 12  4  1  0
  3 15  1  0
  6 16  1  0
  8 17  1  0
 10 18  1  0
 20 21  1  0
M  END
> <minimizedAffinity>
-5.68570

> <CNNscore>
0.2045428902

> <CNNaffinity>
2.1316843033

> <CNN_VS>
0.4360208809

> <CNNaffinity_variance>
1.6105146408

$$$$



 21 22  0  0  0  0  0  0  0  0999 V2000
   22.6189   64.9824   13.6261 O   0  0  0  0  0  0  0  0  0  0  0  0
   23.7357   64.6502   13.2996 C   0  0  0  0  0  0  0  0  0  0  0  0
   24.7853   64.3116   14.1251 N   0  0  0  0  0  0  0  0  0  0  0  0
   25.8456   63.7011   13.3792 C   0  0  0  0  0  0  0  0  0  0  0  0
   27.2577   64.1529   13.8079 C   0  0  0  0  0  0  0  0  0  0  0  0
   27.8452   63.1195   14.6225 O   0  0  0  0  0  0  0  0  0  0  0  0
   28.1785   64.4096   12.6001 C   0  0  0  0  0  0  0  0  0  0  0  0
   29.5477   64.2808   13.0241 O   0  0  0  0  0  0  0  0  0  0  0  0
   27.8968   63.4293   11.4519 C   0  0  0  0  0  0  0  0  0  0  0  0
   28.8707   63.6579   10.4245 O   0  0  0  0  0  0  0  0  0  0  0  0
   26.4616   63.6522   10.9228 C   0  0  0  0  0  0  0  0  0  0  0  0
   25.5413   63.9813   12.0019 N   0  0  0  0  0  0  0  0  0  0  0  0
   24.2683   64.4804   11.8523 C   0  0  0  0  0  0  0  0  0  0  0  0
   23.6753   64.7381   10.8290 O   0  0  0  0  0  0  0  0  0  0  0  0
   24.8044   64.4681   15.0969 H   0  0  0  0  0  0  0  0  0  0  0  0
   27.9204   62.3029   14.1044 H   0  0  0  0  0  0  0  0  0  0  0  0
   29.7013   63.3810   13.3523 H   0  0  0  0  0  0  0  0  0  0  0  0
   28.8088   64.5765   10.1189 H   0  0  0  0  0  0  0  0  0  0  0  0
   25.9900   62.4514   10.0837 C   0  0  0  0  0  0  0  0  0  0  0  0
   27.0106   61.4542   10.0341 O   0  0  0  0  0  0  0  0  0  0  0  0
   27.8078   61.8275    9.6267 H   0  0  0  0  0  0  0  0  0  0  0  0
  1  2  2  0
  2  3  1  0
  4  3  1  0
  4  5  1  0
  5  6  1  0
  5  7  1  0
  7  8  1  0
  7  9  1  0
  9 10  1  0
  9 11  1  0
 11 19  1  0
 19 20  1  0
 11 12  1  0
 12 13  1  0
 13 14  2  0
 13  2  1  0
 12  4  1  0
  3 15  1  0
  6 16  1  0
  8 17  1  0
 10 18  1  0
 20 21  1  0
M  END
> <minimizedAffinity>
-6.67225

> <CNNscore>
0.1943217814

> <CNNaffinity>
2.6624729633

> <CNN_VS>
0.5173764825

> <CNNaffinity_variance>
0.8673062921

$$$$
