


 17 17  0  0  0  0  0  0  0  0999 V2000
   45.0810   14.7730    2.6758 C   0  0  0  0  0  0  0  0  0  0  0  0
   45.6368   13.4812    2.4678 C   0  0  0  0  0  0  0  0  0  0  0  0
   44.9043   12.2170    1.2695 Br  0  0  0  0  0  0  0  0  0  0  0  0
   46.7622   13.2549    3.2176 C   0  0  0  0  0  0  0  0  0  0  0  0
   47.1698   14.6250    4.1539 S   0  0  0  0  0  0  0  0  0  0  0  0
   45.8350   15.5358    3.5519 C   0  0  0  0  0  0  0  0  0  0  0  0
   45.6878   16.8968    4.0116 C   0  0  0  0  0  0  0  0  0  0  0  0
   46.5111   17.7998    4.0021 O   0  0  0  0  0  0  0  0  0  0  0  0
   44.4632   17.1475    4.5396 O   0  0  0  0  0  0  0  0  0  0  0  0
   43.8141   16.4721    4.5589 H   0  0  0  0  0  0  0  0  0  0  0  0
   43.9961   15.2612    2.0252 O   0  0  0  0  0  0  0  0  0  0  0  0
   44.3738   16.0753    0.9088 C   0  0  0  0  0  0  0  0  0  0  0  0
   44.2113   15.2136   -0.3486 C   0  0  0  0  0  0  0  0  0  0  0  0
   44.8944   17.3639   -1.4990 C   0  0  0  0  0  0  0  0  0  0  0  0
   44.2773   15.9839   -1.6851 N   0  0  0  0  0  0  0  0  0  0  0  0
   42.8974   16.1140   -2.3187 C   0  0  0  0  0  0  0  0  0  0  0  0
   45.1692   15.1817   -2.6387 C   0  0  0  0  0  0  0  0  0  0  0  0
 14 15  1  0
 15 16  1  0
 15 17  1  0
 15 13  1  0
 13 12  1  0
 12 11  1  0
 11  1  1  0
  1  2  1  0
  2  3  1  0
  2  4  2  0
  4  5  1  0
  5  6  1  0
  6  7  1  0
  7  8  2  0
  7  9  1  0
  6  1  2  0
  9 10  1  0
M  CHG 1  15   1
M  END
> <minimizedAffinity>
-5.68094

> <CNNscore>
0.5777430534

> <CNNaffinity>
4.5244088173

> <CNN_VS>
2.6139457226

> <CNNaffinity_variance>
0.1090140343

$$$$



 17 17  0  0  0  0  0  0  0  0999 V2000
   50.5226    7.2162    3.1477 C   0  0  0  0  0  0  0  0  0  0  0  0
   49.4373    6.4144    2.7004 C   0  0  0  0  0  0  0  0  0  0  0  0
   48.2242    6.9642    1.3600 Br  0  0  0  0  0  0  0  0  0  0  0  0
   49.3709    5.2005    3.3345 C   0  0  0  0  0  0  0  0  0  0  0  0
   50.6487    5.0143    4.4536 S   0  0  0  0  0  0  0  0  0  0  0  0
   51.3044    6.5668    4.0884 C   0  0  0  0  0  0  0  0  0  0  0  0
   52.5142    6.9629    4.7702 C   0  0  0  0  0  0  0  0  0  0  0  0
   52.8716    8.0828    5.1039 O   0  0  0  0  0  0  0  0  0  0  0  0
   53.3424    5.9194    5.0278 O   0  0  0  0  0  0  0  0  0  0  0  0
   53.0919    5.0506    4.7820 H   0  0  0  0  0  0  0  0  0  0  0  0
   50.8362    8.4384    2.6513 O   0  0  0  0  0  0  0  0  0  0  0  0
   51.8019    8.3468    1.5974 C   0  0  0  0  0  0  0  0  0  0  0  0
   52.8950    9.3777    1.9013 C   0  0  0  0  0  0  0  0  0  0  0  0
   53.0608   11.0680    0.0227 C   0  0  0  0  0  0  0  0  0  0  0  0
   53.7067    9.8538    0.6772 N   0  0  0  0  0  0  0  0  0  0  0  0
   53.8702    8.7378   -0.3478 C   0  0  0  0  0  0  0  0  0  0  0  0
   55.0993   10.2574    1.1731 C   0  0  0  0  0  0  0  0  0  0  0  0
 14 15  1  0
 15 16  1  0
 15 17  1  0
 15 13  1  0
 13 12  1  0
 12 11  1  0
 11  1  1  0
  1  2  1  0
  2  3  1  0
  2  4  2  0
  4  5  1  0
  5  6  1  0
  6  7  1  0
  7  8  2  0
  7  9  1  0
  6  1  2  0
  9 10  1  0
M  CHG 1  15   1
M  END
> <minimizedAffinity>
-4.59968

> <CNNscore>
0.5386314392

> <CNNaffinity>
4.0736217499

> <CNN_VS>
2.1941807270

> <CNNaffinity_variance>
0.2660794258

$$$$



 17 17  0  0  0  0  0  0  0  0999 V2000
   45.1530   14.8694    2.4350 C   0  0  0  0  0  0  0  0  0  0  0  0
   46.3019   14.4084    3.1338 C   0  0  0  0  0  0  0  0  0  0  0  0
   46.7974   12.5874    3.2292 Br  0  0  0  0  0  0  0  0  0  0  0  0
   47.0153   15.4221    3.7197 C   0  0  0  0  0  0  0  0  0  0  0  0
   46.3111   16.9448    3.3946 S   0  0  0  0  0  0  0  0  0  0  0  0
   45.0418   16.2496    2.4571 C   0  0  0  0  0  0  0  0  0  0  0  0
   44.0854   17.1458    1.8511 C   0  0  0  0  0  0  0  0  0  0  0  0
   43.7613   18.2700    2.2041 O   0  0  0  0  0  0  0  0  0  0  0  0
   43.4736   16.6109    0.7644 O   0  0  0  0  0  0  0  0  0  0  0  0
   43.7040   15.7506    0.4732 H   0  0  0  0  0  0  0  0  0  0  0  0
   44.3056   14.0765    1.7335 O   0  0  0  0  0  0  0  0  0  0  0  0
   44.8202   13.7787    0.4304 C   0  0  0  0  0  0  0  0  0  0  0  0
   44.7962   12.2536    0.2777 C   0  0  0  0  0  0  0  0  0  0  0  0
   46.4985   11.7045   -1.5152 C   0  0  0  0  0  0  0  0  0  0  0  0
   45.0179   11.7344   -1.1594 N   0  0  0  0  0  0  0  0  0  0  0  0
   44.2569   12.5763   -2.1766 C   0  0  0  0  0  0  0  0  0  0  0  0
   44.4779   10.3016   -1.2228 C   0  0  0  0  0  0  0  0  0  0  0  0
 14 15  1  0
 15 16  1  0
 15 17  1  0
 15 13  1  0
 13 12  1  0
 12 11  1  0
 11  1  1  0
  1  2  1  0
  2  3  1  0
  2  4  2  0
  4  5  1  0
  5  6  1  0
  6  7  1  0
  7  8  2  0
  7  9  1  0
  6  1  2  0
  9 10  1  0
M  CHG 1  15   1
M  END
> <minimizedAffinity>
-5.38964

> <CNNscore>
0.4535302520

> <CNNaffinity>
4.0116295815

> <CNN_VS>
1.8193954229

> <CNNaffinity_variance>
0.4400704205

$$$$



 17 17  0  0  0  0  0  0  0  0999 V2000
   45.0495   14.2895    1.8683 C   0  0  0  0  0  0  0  0  0  0  0  0
   46.0406   13.8352    2.7805 C   0  0  0  0  0  0  0  0  0  0  0  0
   46.6225   12.0397    2.8715 Br  0  0  0  0  0  0  0  0  0  0  0  0
   46.5351   14.8360    3.5767 C   0  0  0  0  0  0  0  0  0  0  0  0
   45.8216   16.3414    3.1961 S   0  0  0  0  0  0  0  0  0  0  0  0
   44.8441   15.6565    1.9515 C   0  0  0  0  0  0  0  0  0  0  0  0
   43.9902   16.5468    1.2009 C   0  0  0  0  0  0  0  0  0  0  0  0
   43.4858   16.3752    0.1011 O   0  0  0  0  0  0  0  0  0  0  0  0
   43.7713   17.7277    1.8323 O   0  0  0  0  0  0  0  0  0  0  0  0
   44.1467   17.8843    2.6764 H   0  0  0  0  0  0  0  0  0  0  0  0
   44.4358   13.5107    0.9433 O   0  0  0  0  0  0  0  0  0  0  0  0
   45.2788   13.2765   -0.1907 C   0  0  0  0  0  0  0  0  0  0  0  0
   44.4347   12.5280   -1.2287 C   0  0  0  0  0  0  0  0  0  0  0  0
   43.8838   10.3730   -2.4397 C   0  0  0  0  0  0  0  0  0  0  0  0
   44.7980   11.0396   -1.4201 N   0  0  0  0  0  0  0  0  0  0  0  0
   44.7422   10.2810   -0.0994 C   0  0  0  0  0  0  0  0  0  0  0  0
   46.2352   10.9777   -1.9484 C   0  0  0  0  0  0  0  0  0  0  0  0
 14 15  1  0
 15 16  1  0
 15 17  1  0
 15 13  1  0
 13 12  1  0
 12 11  1  0
 11  1  1  0
  1  2  1  0
  2  3  1  0
  2  4  2  0
  4  5  1  0
  5  6  1  0
  6  7  1  0
  7  8  2  0
  7  9  1  0
  6  1  2  0
  9 10  1  0
M  CHG 1  15   1
M  END
> <minimizedAffinity>
-4.78670

> <CNNscore>
0.3497925103

> <CNNaffinity>
3.8846645355

> <CNN_VS>
1.3588265181

> <CNNaffinity_variance>
0.5573030114

$$$$



 17 17  0  0  0  0  0  0  0  0999 V2000
   45.0959   14.2897    1.7848 C   0  0  0  0  0  0  0  0  0  0  0  0
   46.0125   13.8155    2.7624 C   0  0  0  0  0  0  0  0  0  0  0  0
   46.4797   11.9942    2.9501 Br  0  0  0  0  0  0  0  0  0  0  0  0
   46.5276   14.8170    3.5444 C   0  0  0  0  0  0  0  0  0  0  0  0
   45.9257   16.3449    3.0720 S   0  0  0  0  0  0  0  0  0  0  0  0
   44.9699   15.6687    1.8061 C   0  0  0  0  0  0  0  0  0  0  0  0
   44.2087   16.5763    0.9802 C   0  0  0  0  0  0  0  0  0  0  0  0
   44.5509   17.1456   -0.0456 O   0  0  0  0  0  0  0  0  0  0  0  0
   42.9646   16.8166    1.4655 O   0  0  0  0  0  0  0  0  0  0  0  0
   42.6779   16.3927    2.2504 H   0  0  0  0  0  0  0  0  0  0  0  0
   44.4817   13.5114    0.8597 O   0  0  0  0  0  0  0  0  0  0  0  0
   45.2711   13.3832   -0.3285 C   0  0  0  0  0  0  0  0  0  0  0  0
   44.5098   12.4454   -1.2725 C   0  0  0  0  0  0  0  0  0  0  0  0
   42.9896   12.2842   -3.2916 C   0  0  0  0  0  0  0  0  0  0  0  0
   44.1273   13.0571   -2.6376 N   0  0  0  0  0  0  0  0  0  0  0  0
   45.3262   13.1094   -3.5771 C   0  0  0  0  0  0  0  0  0  0  0  0
   43.6526   14.4922   -2.3855 C   0  0  0  0  0  0  0  0  0  0  0  0
 14 15  1  0
 15 16  1  0
 15 17  1  0
 15 13  1  0
 13 12  1  0
 12 11  1  0
 11  1  1  0
  1  2  1  0
  2  3  1  0
  2  4  2  0
  4  5  1  0
  5  6  1  0
  6  7  1  0
  7  8  2  0
  7  9  1  0
  6  1  2  0
  9 10  1  0
M  CHG 1  15   1
M  END
> <minimizedAffinity>
-4.37055

> <CNNscore>
0.3254160583

> <CNNaffinity>
3.7852494717

> <CNN_VS>
1.2317810059

> <CNNaffinity_variance>
0.4954185486

$$$$



 17 17  0  0  0  0  0  0  0  0999 V2000
   50.8034    5.3404    3.5440 C   0  0  0  0  0  0  0  0  0  0  0  0
   49.7837    4.3516    3.6016 C   0  0  0  0  0  0  0  0  0  0  0  0
   48.5490    4.0514    2.2029 Br  0  0  0  0  0  0  0  0  0  0  0  0
   49.7978    3.6346    4.7702 C   0  0  0  0  0  0  0  0  0  0  0  0
   51.0732    4.1365    5.7907 S   0  0  0  0  0  0  0  0  0  0  0  0
   51.6195    5.3209    4.6627 C   0  0  0  0  0  0  0  0  0  0  0  0
   52.7900    6.0915    5.0110 C   0  0  0  0  0  0  0  0  0  0  0  0
   52.8914    7.2995    5.1657 O   0  0  0  0  0  0  0  0  0  0  0  0
   53.9043    5.3292    5.1472 O   0  0  0  0  0  0  0  0  0  0  0  0
   53.8533    4.4005    5.0336 H   0  0  0  0  0  0  0  0  0  0  0  0
   51.0337    6.1518    2.4823 O   0  0  0  0  0  0  0  0  0  0  0  0
   50.3845    7.4191    2.6374 C   0  0  0  0  0  0  0  0  0  0  0  0
   50.1763    7.9903    1.2302 C   0  0  0  0  0  0  0  0  0  0  0  0
   47.7427    7.8137    1.9086 C   0  0  0  0  0  0  0  0  0  0  0  0
   48.7087    8.0420    0.7534 N   0  0  0  0  0  0  0  0  0  0  0  0
   48.4479    7.0232   -0.3497 C   0  0  0  0  0  0  0  0  0  0  0  0
   48.4557    9.4417    0.1831 C   0  0  0  0  0  0  0  0  0  0  0  0
 14 15  1  0
 15 16  1  0
 15 17  1  0
 15 13  1  0
 13 12  1  0
 12 11  1  0
 11  1  1  0
  1  2  1  0
  2  3  1  0
  2  4  2  0
  4  5  1  0
  5  6  1  0
  6  7  1  0
  7  8  2  0
  7  9  1  0
  6  1  2  0
  9 10  1  0
M  CHG 1  15   1
M  END
> <minimizedAffinity>
-4.14577

> <CNNscore>
0.3245220780

> <CNNaffinity>
3.8257491589

> <CNN_VS>
1.2415400743

> <CNNaffinity_variance>
0.4027985036

$$$$



 17 17  0  0  0  0  0  0  0  0999 V2000
   50.5801    5.9631    2.5324 C   0  0  0  0  0  0  0  0  0  0  0  0
   49.5438    4.9908    2.4957 C   0  0  0  0  0  0  0  0  0  0  0  0
   48.6662    4.4687    0.9057 Br  0  0  0  0  0  0  0  0  0  0  0  0
   49.2571    4.4662    3.7296 C   0  0  0  0  0  0  0  0  0  0  0  0
   50.2704    5.1283    4.9359 S   0  0  0  0  0  0  0  0  0  0  0  0
   51.1069    6.1235    3.8030 C   0  0  0  0  0  0  0  0  0  0  0  0
   52.1864    6.9449    4.2984 C   0  0  0  0  0  0  0  0  0  0  0  0
   52.9258    6.7426    5.2502 O   0  0  0  0  0  0  0  0  0  0  0  0
   52.3418    8.0951    3.5955 O   0  0  0  0  0  0  0  0  0  0  0  0
   51.7876    8.2741    2.8615 H   0  0  0  0  0  0  0  0  0  0  0  0
   51.0818    6.5989    1.4448 O   0  0  0  0  0  0  0  0  0  0  0  0
   50.5238    7.9097    1.2970 C   0  0  0  0  0  0  0  0  0  0  0  0
   49.0491    7.7283    0.9196 C   0  0  0  0  0  0  0  0  0  0  0  0
   49.3699    9.9287   -0.2925 C   0  0  0  0  0  0  0  0  0  0  0  0
   48.3592    8.9847    0.3456 N   0  0  0  0  0  0  0  0  0  0  0  0
   47.5671    9.7215    1.4190 C   0  0  0  0  0  0  0  0  0  0  0  0
   47.3810    8.5213   -0.7392 C   0  0  0  0  0  0  0  0  0  0  0  0
 14 15  1  0
 15 16  1  0
 15 17  1  0
 15 13  1  0
 13 12  1  0
 12 11  1  0
 11  1  1  0
  1  2  1  0
  2  3  1  0
  2  4  2  0
  4  5  1  0
  5  6  1  0
  6  7  1  0
  7  8  2  0
  7  9  1  0
  6  1  2  0
  9 10  1  0
M  CHG 1  15   1
M  END
> <minimizedAffinity>
-3.73402

> <CNNscore>
0.3017210960

> <CNNaffinity>
3.7303798199

> <CNN_VS>
1.1255342960

> <CNNaffinity_variance>
0.2762077749

$$$$



 17 17  0  0  0  0  0  0  0  0999 V2000
   45.6666   10.8673    0.7837 C   0  0  0  0  0  0  0  0  0  0  0  0
   46.5923   10.9740    1.8572 C   0  0  0  0  0  0  0  0  0  0  0  0
   46.7247   12.4986    2.9658 Br  0  0  0  0  0  0  0  0  0  0  0  0
   47.3683    9.8539    2.0091 C   0  0  0  0  0  0  0  0  0  0  0  0
   46.9523    8.6515    0.8684 S   0  0  0  0  0  0  0  0  0  0  0  0
   45.7192    9.6298    0.1641 C   0  0  0  0  0  0  0  0  0  0  0  0
   44.9460    9.0629   -0.9157 C   0  0  0  0  0  0  0  0  0  0  0  0
   43.7429    8.8542   -0.9666 O   0  0  0  0  0  0  0  0  0  0  0  0
   45.7068    8.7068   -1.9813 O   0  0  0  0  0  0  0  0  0  0  0  0
   46.6317    8.8560   -1.9674 H   0  0  0  0  0  0  0  0  0  0  0  0
   44.7565   11.8158    0.4511 O   0  0  0  0  0  0  0  0  0  0  0  0
   45.3015   12.7692   -0.4683 C   0  0  0  0  0  0  0  0  0  0  0  0
   44.3783   12.7891   -1.6919 C   0  0  0  0  0  0  0  0  0  0  0  0
   45.2864   14.6163   -3.1922 C   0  0  0  0  0  0  0  0  0  0  0  0
   44.1278   14.1850   -2.3025 N   0  0  0  0  0  0  0  0  0  0  0  0
   43.8896   15.2296   -1.2186 C   0  0  0  0  0  0  0  0  0  0  0  0
   42.8652   14.0933   -3.1660 C   0  0  0  0  0  0  0  0  0  0  0  0
 14 15  1  0
 15 16  1  0
 15 17  1  0
 15 13  1  0
 13 12  1  0
 12 11  1  0
 11  1  1  0
  1  2  1  0
  2  3  1  0
  2  4  2  0
  4  5  1  0
  5  6  1  0
  6  7  1  0
  7  8  2  0
  7  9  1  0
  6  1  2  0
  9 10  1  0
M  CHG 1  15   1
M  END
> <minimizedAffinity>
-3.65216

> <CNNscore>
0.2787657678

> <CNNaffinity>
3.6089527607

> <CNN_VS>
1.0060524940

> <CNNaffinity_variance>
0.5627083182

$$$$



 17 17  0  0  0  0  0  0  0  0999 V2000
   50.2005    7.6733    1.6899 C   0  0  0  0  0  0  0  0  0  0  0  0
   48.8531    7.7946    1.2532 C   0  0  0  0  0  0  0  0  0  0  0  0
   48.3717    8.1736   -0.5344 Br  0  0  0  0  0  0  0  0  0  0  0  0
   47.9436    7.5975    2.2601 C   0  0  0  0  0  0  0  0  0  0  0  0
   48.7220    7.2298    3.7362 S   0  0  0  0  0  0  0  0  0  0  0  0
   50.2912    7.3283    3.0281 C   0  0  0  0  0  0  0  0  0  0  0  0
   51.4288    7.0520    3.8736 C   0  0  0  0  0  0  0  0  0  0  0  0
   52.4262    7.7333    4.0594 O   0  0  0  0  0  0  0  0  0  0  0  0
   51.3421    5.8527    4.5023 O   0  0  0  0  0  0  0  0  0  0  0  0
   50.5878    5.3112    4.3766 H   0  0  0  0  0  0  0  0  0  0  0  0
   51.2862    7.7779    0.8843 O   0  0  0  0  0  0  0  0  0  0  0  0
   51.6857    9.1427    0.7137 C   0  0  0  0  0  0  0  0  0  0  0  0
   53.1299    9.2523    1.2161 C   0  0  0  0  0  0  0  0  0  0  0  0
   53.6002   10.8615   -0.6822 C   0  0  0  0  0  0  0  0  0  0  0  0
   54.1568    9.7239    0.1639 N   0  0  0  0  0  0  0  0  0  0  0  0
   54.5958    8.5750   -0.7362 C   0  0  0  0  0  0  0  0  0  0  0  0
   55.3875   10.2407    0.9167 C   0  0  0  0  0  0  0  0  0  0  0  0
 14 15  1  0
 15 16  1  0
 15 17  1  0
 15 13  1  0
 13 12  1  0
 12 11  1  0
 11  1  1  0
  1  2  1  0
  2  3  1  0
  2  4  2  0
  4  5  1  0
  5  6  1  0
  6  7  1  0
  7  8  2  0
  7  9  1  0
  6  1  2  0
  9 10  1  0
M  CHG 1  15   1
M  END
> <minimizedAffinity>
-3.43754

> <CNNscore>
0.2565412819

> <CNNaffinity>
3.4201087952

> <CNN_VS>
0.8773990870

> <CNNaffinity_variance>
0.3648861647

$$$$
