


 35 37  0  0  0  0  0  0  0  0999 V2000
   38.9508   -3.2051   14.3545 C   0  0  0  0  0  0  0  0  0  0  0  0
   38.2298   -1.9994   14.7285 O   0  0  0  0  0  0  0  0  0  0  0  0
   38.8798   -0.8794   14.1001 C   0  0  0  0  0  0  0  0  0  0  0  0
   39.6764   -1.4476   12.9270 C   0  0  0  0  0  0  0  0  0  0  0  0
   40.7900   -0.6508   12.5383 O   0  0  0  0  0  0  0  0  0  0  0  0
   40.1535   -2.7662   13.5122 C   0  0  0  0  0  0  0  0  0  0  0  0
   41.2967   -2.5194   14.3504 O   0  0  0  0  0  0  0  0  0  0  0  0
   41.3850   -0.5354   13.2956 H   0  0  0  0  0  0  0  0  0  0  0  0
   41.0677   -1.8594   15.0233 H   0  0  0  0  0  0  0  0  0  0  0  0
   34.6644   -5.7816   10.9520 N   0  0  0  0  0  0  0  0  0  0  0  0
   35.3643   -4.7061   11.4792 C   0  0  0  0  0  0  0  0  0  0  0  0
   34.9752   -3.4594   11.1337 N   0  0  0  0  0  0  0  0  0  0  0  0
   35.6563   -2.4029   11.6332 C   0  0  0  0  0  0  0  0  0  0  0  0
   35.0561   -0.6787   11.0903 Br  0  0  0  0  0  0  0  0  0  0  0  0
   36.7051   -2.4284   12.4847 N   0  0  0  0  0  0  0  0  0  0  0  0
   37.0431   -3.6854   12.8056 C   0  0  0  0  0  0  0  0  0  0  0  0
   36.4419   -4.8516   12.3669 C   0  0  0  0  0  0  0  0  0  0  0  0
   37.0475   -5.9538   12.9303 N   0  0  0  0  0  0  0  0  0  0  0  0
   38.0209   -5.4627   13.6691 C   0  0  0  0  0  0  0  0  0  0  0  0
   38.0440   -4.0933   13.6461 N   0  0  0  0  0  0  0  0  0  0  0  0
   33.9153   -5.6254   10.3325 H   0  0  0  0  0  0  0  0  0  0  0  0
   34.9167   -6.7011   11.1973 H   0  0  0  0  0  0  0  0  0  0  0  0
   37.8415    0.1544   13.6766 C   0  0  0  0  0  0  0  0  0  0  0  0
   38.4233    1.0677   12.7657 O   0  0  0  0  0  0  0  0  0  0  0  0
   38.9688    2.4533   13.3583 P   0  0  0  0  0  0  0  0  0  0  0  0
   40.2171    2.3739   14.1704 O   0  0  0  0  0  0  0  0  0  0  0  0
   39.1143    3.3377   12.0303 O   0  0  0  0  0  0  0  0  0  0  0  0
   39.8622    3.0120   11.5054 H   0  0  0  0  0  0  0  0  0  0  0  0
   37.7225    3.1199   14.0729 O   0  0  0  0  0  0  0  0  0  0  0  0
   36.4338    3.6470   13.3241 P   0  0  0  0  0  0  0  0  0  0  0  0
   36.6034    3.9951   11.8866 O   0  0  0  0  0  0  0  0  0  0  0  0
   35.3346    2.5013   13.5293 O   0  0  0  0  0  0  0  0  0  0  0  0
   35.8339    4.8344   14.1944 O   0  0  0  0  0  0  0  0  0  0  0  0
   35.5969    1.7093   13.0346 H   0  0  0  0  0  0  0  0  0  0  0  0
   36.4258    5.6014   14.1467 H   0  0  0  0  0  0  0  0  0  0  0  0
 10 11  1  0
 11 12  2  0
 12 13  1  0
 13 14  1  0
 13 15  2  0
 15 16  1  0
 16 17  2  0
 17 18  1  0
 18 19  2  0
 19 20  1  0
  1 20  1  0
  1  2  1  0
  2  3  1  0
  3 23  1  0
 23 24  1  0
 24 25  1  0
 25 26  2  0
 25 27  1  0
 25 29  1  0
 29 30  1  0
 30 31  2  0
 30 32  1  0
 30 33  1  0
  3  4  1  0
  4  5  1  0
  4  6  1  0
  6  7  1  0
 17 11  1  0
  6  1  1  0
 20 16  1  0
 10 21  1  0
 10 22  1  0
 27 28  1  0
 32 34  1  0
 33 35  1  0
  5  8  1  0
  7  9  1  0
M  END
> <minimizedAffinity>
-7.08604

> <CNNscore>
0.8491014838

> <CNNaffinity>
5.1189212799

> <CNN_VS>
4.3464837074

> <CNNaffinity_variance>
0.2198211700

$$$$



 35 37  0  0  0  0  0  0  0  0999 V2000
   40.2202    3.3396   17.4825 C   0  0  0  0  0  0  0  0  0  0  0  0
   39.4193    3.4463   16.2739 O   0  0  0  0  0  0  0  0  0  0  0  0
   40.0085    2.5956   15.2733 C   0  0  0  0  0  0  0  0  0  0  0  0
   40.8582    1.5727   16.0250 C   0  0  0  0  0  0  0  0  0  0  0  0
   41.9262    1.0264   15.2589 O   0  0  0  0  0  0  0  0  0  0  0  0
   41.4069    2.4265   17.1558 C   0  0  0  0  0  0  0  0  0  0  0  0
   42.5185    3.1962   16.6635 O   0  0  0  0  0  0  0  0  0  0  0  0
   42.5003    1.7434   14.9472 H   0  0  0  0  0  0  0  0  0  0  0  0
   42.2378    3.7125   15.8918 H   0  0  0  0  0  0  0  0  0  0  0  0
   36.1808    2.4247   21.8909 N   0  0  0  0  0  0  0  0  0  0  0  0
   36.8021    3.1690   20.8987 C   0  0  0  0  0  0  0  0  0  0  0  0
   36.3761    4.4334   20.6870 N   0  0  0  0  0  0  0  0  0  0  0  0
   36.9671    5.1656   19.7155 C   0  0  0  0  0  0  0  0  0  0  0  0
   36.3033    6.9337   19.4690 Br  0  0  0  0  0  0  0  0  0  0  0  0
   37.9846    4.7928   18.9083 N   0  0  0  0  0  0  0  0  0  0  0  0
   38.3779    3.5374   19.1664 C   0  0  0  0  0  0  0  0  0  0  0  0
   37.8619    2.6782   20.1201 C   0  0  0  0  0  0  0  0  0  0  0  0
   38.5371    1.4769   20.1100 N   0  0  0  0  0  0  0  0  0  0  0  0
   39.4226    1.5961   19.1423 C   0  0  0  0  0  0  0  0  0  0  0  0
   39.3823    2.8340   18.5573 N   0  0  0  0  0  0  0  0  0  0  0  0
   35.4408    2.8159   22.4093 H   0  0  0  0  0  0  0  0  0  0  0  0
   36.4798    1.5053   22.0768 H   0  0  0  0  0  0  0  0  0  0  0  0
   38.9148    1.9588   14.4221 C   0  0  0  0  0  0  0  0  0  0  0  0
   37.8526    2.8772   14.2472 O   0  0  0  0  0  0  0  0  0  0  0  0
   36.8917    2.6609   12.9828 P   0  0  0  0  0  0  0  0  0  0  0  0
   37.3410    1.6505   11.9821 O   0  0  0  0  0  0  0  0  0  0  0  0
   35.5017    2.2977   13.6918 O   0  0  0  0  0  0  0  0  0  0  0  0
   35.5590    1.4107   14.0803 H   0  0  0  0  0  0  0  0  0  0  0  0
   36.6131    4.1140   12.4182 O   0  0  0  0  0  0  0  0  0  0  0  0
   36.0493    5.3175   13.2745 P   0  0  0  0  0  0  0  0  0  0  0  0
   36.2149    5.2103   14.7501 O   0  0  0  0  0  0  0  0  0  0  0  0
   36.7747    6.6200   12.6912 O   0  0  0  0  0  0  0  0  0  0  0  0
   34.5432    5.5535   12.8239 O   0  0  0  0  0  0  0  0  0  0  0  0
   37.7196    6.5883   12.9081 H   0  0  0  0  0  0  0  0  0  0  0  0
   33.9951    4.8128   13.1271 H   0  0  0  0  0  0  0  0  0  0  0  0
 10 11  1  0
 11 12  2  0
 12 13  1  0
 13 14  1  0
 13 15  2  0
 15 16  1  0
 16 17  2  0
 17 18  1  0
 18 19  2  0
 19 20  1  0
  1 20  1  0
  1  2  1  0
  2  3  1  0
  3 23  1  0
 23 24  1  0
 24 25  1  0
 25 26  2  0
 25 27  1  0
 25 29  1  0
 29 30  1  0
 30 31  2  0
 30 32  1  0
 30 33  1  0
  3  4  1  0
  4  5  1  0
  4  6  1  0
  6  7  1  0
 17 11  1  0
  6  1  1  0
 20 16  1  0
 10 21  1  0
 10 22  1  0
 27 28  1  0
 32 34  1  0
 33 35  1  0
  5  8  1  0
  7  9  1  0
M  END
> <minimizedAffinity>
-7.55963

> <CNNscore>
0.8190792799

> <CNNaffinity>
5.0154991150

> <CNN_VS>
4.1080913544

> <CNNaffinity_variance>
0.1982318759

$$$$



 35 37  0  0  0  0  0  0  0  0999 V2000
   37.9086    7.1263   18.4303 C   0  0  0  0  0  0  0  0  0  0  0  0
   37.0270    7.3213   17.2909 O   0  0  0  0  0  0  0  0  0  0  0  0
   37.6009    6.6368   16.1622 C   0  0  0  0  0  0  0  0  0  0  0  0
   38.5569    5.5915   16.7340 C   0  0  0  0  0  0  0  0  0  0  0  0
   39.6044    5.2130   15.8479 O   0  0  0  0  0  0  0  0  0  0  0  0
   39.1246    6.3404   17.9281 C   0  0  0  0  0  0  0  0  0  0  0  0
   40.1542    7.2360   17.4718 O   0  0  0  0  0  0  0  0  0  0  0  0
   40.1133    5.9989   15.5943 H   0  0  0  0  0  0  0  0  0  0  0  0
   39.7941    7.8200   16.7861 H   0  0  0  0  0  0  0  0  0  0  0  0
   35.6029    3.2567   22.4675 N   0  0  0  0  0  0  0  0  0  0  0  0
   36.4553    3.6305   21.4387 C   0  0  0  0  0  0  0  0  0  0  0  0
   37.3083    2.7052   20.9476 N   0  0  0  0  0  0  0  0  0  0  0  0
   38.1514    3.0605   19.9514 C   0  0  0  0  0  0  0  0  0  0  0  0
   39.3318    1.7053   19.3209 Br  0  0  0  0  0  0  0  0  0  0  0  0
   38.2435    4.2626   19.3413 N   0  0  0  0  0  0  0  0  0  0  0  0
   37.3696    5.1395   19.8556 C   0  0  0  0  0  0  0  0  0  0  0  0
   36.4595    4.9152   20.8730 C   0  0  0  0  0  0  0  0  0  0  0  0
   35.7102    6.0462   21.1149 N   0  0  0  0  0  0  0  0  0  0  0  0
   36.1844    6.9491   20.2815 C   0  0  0  0  0  0  0  0  0  0  0  0
   37.1732    6.4417   19.4808 N   0  0  0  0  0  0  0  0  0  0  0  0
   35.6400    2.3419   22.8296 H   0  0  0  0  0  0  0  0  0  0  0  0
   34.9610    3.9061   22.8354 H   0  0  0  0  0  0  0  0  0  0  0  0
   36.4951    6.0331   15.3025 C   0  0  0  0  0  0  0  0  0  0  0  0
   36.9790    4.8748   14.6492 O   0  0  0  0  0  0  0  0  0  0  0  0
   36.1391    4.3290   13.3981 P   0  0  0  0  0  0  0  0  0  0  0  0
   35.4485    3.0213   13.5912 O   0  0  0  0  0  0  0  0  0  0  0  0
   35.1437    5.5528   13.1185 O   0  0  0  0  0  0  0  0  0  0  0  0
   34.4817    5.5992   13.8260 H   0  0  0  0  0  0  0  0  0  0  0  0
   37.1290    4.4105   12.1646 O   0  0  0  0  0  0  0  0  0  0  0  0
   38.2159    5.5399   11.9584 P   0  0  0  0  0  0  0  0  0  0  0  0
   37.7548    6.9415   12.1555 O   0  0  0  0  0  0  0  0  0  0  0  0
   39.4052    5.1620   12.9613 O   0  0  0  0  0  0  0  0  0  0  0  0
   38.8927    5.2915   10.5415 O   0  0  0  0  0  0  0  0  0  0  0  0
   39.1051    5.2770   13.8765 H   0  0  0  0  0  0  0  0  0  0  0  0
   38.2546    5.4914    9.8388 H   0  0  0  0  0  0  0  0  0  0  0  0
 10 11  1  0
 11 12  2  0
 12 13  1  0
 13 14  1  0
 13 15  2  0
 15 16  1  0
 16 17  2  0
 17 18  1  0
 18 19  2  0
 19 20  1  0
  1 20  1  0
  1  2  1  0
  2  3  1  0
  3 23  1  0
 23 24  1  0
 24 25  1  0
 25 26  2  0
 25 27  1  0
 25 29  1  0
 29 30  1  0
 30 31  2  0
 30 32  1  0
 30 33  1  0
  3  4  1  0
  4  5  1  0
  4  6  1  0
  6  7  1  0
 17 11  1  0
  6  1  1  0
 20 16  1  0
 10 21  1  0
 10 22  1  0
 27 28  1  0
 32 34  1  0
 33 35  1  0
  5  8  1  0
  7  9  1  0
M  END
> <minimizedAffinity>
-7.52533

> <CNNscore>
0.7108126879

> <CNNaffinity>
4.9422435760

> <CNN_VS>
3.5130095482

> <CNNaffinity_variance>
0.4111460149

$$$$



 35 37  0  0  0  0  0  0  0  0999 V2000
   36.6169    5.6571   20.4394 C   0  0  0  0  0  0  0  0  0  0  0  0
   36.6578    5.9364   19.0133 O   0  0  0  0  0  0  0  0  0  0  0  0
   37.7427    6.8506   18.7700 C   0  0  0  0  0  0  0  0  0  0  0  0
   38.6884    6.7226   19.9628 C   0  0  0  0  0  0  0  0  0  0  0  0
   39.4830    7.8787   20.2033 O   0  0  0  0  0  0  0  0  0  0  0  0
   37.6981    6.5212   21.0975 C   0  0  0  0  0  0  0  0  0  0  0  0
   37.1612    7.7996   21.4819 O   0  0  0  0  0  0  0  0  0  0  0  0
   38.9050    8.6454   20.3415 H   0  0  0  0  0  0  0  0  0  0  0  0
   36.7750    8.2347   20.7058 H   0  0  0  0  0  0  0  0  0  0  0  0
   38.4033   -0.1219   20.4154 N   0  0  0  0  0  0  0  0  0  0  0  0
   38.4621    1.2071   20.0214 C   0  0  0  0  0  0  0  0  0  0  0  0
   39.3929    1.5624   19.1090 N   0  0  0  0  0  0  0  0  0  0  0  0
   39.4669    2.8570   18.7246 C   0  0  0  0  0  0  0  0  0  0  0  0
   40.8122    3.2822   17.4452 Br  0  0  0  0  0  0  0  0  0  0  0  0
   38.6868    3.8821   19.1326 N   0  0  0  0  0  0  0  0  0  0  0  0
   37.7736    3.4754   20.0259 C   0  0  0  0  0  0  0  0  0  0  0  0
   37.5902    2.1925   20.5102 C   0  0  0  0  0  0  0  0  0  0  0  0
   36.5364    2.1525   21.3973 N   0  0  0  0  0  0  0  0  0  0  0  0
   36.1134    3.3975   21.4743 C   0  0  0  0  0  0  0  0  0  0  0  0
   36.8142    4.2316   20.6441 N   0  0  0  0  0  0  0  0  0  0  0  0
   39.0389   -0.7745   20.0421 H   0  0  0  0  0  0  0  0  0  0  0  0
   37.7260   -0.4122   21.0682 H   0  0  0  0  0  0  0  0  0  0  0  0
   38.4091    6.5246   17.4373 C   0  0  0  0  0  0  0  0  0  0  0  0
   37.7395    5.4396   16.8233 O   0  0  0  0  0  0  0  0  0  0  0  0
   37.7858    5.3549   15.2236 P   0  0  0  0  0  0  0  0  0  0  0  0
   38.6687    6.3429   14.5391 O   0  0  0  0  0  0  0  0  0  0  0  0
   38.2188    3.8297   14.9933 O   0  0  0  0  0  0  0  0  0  0  0  0
   39.1479    3.7154   15.2478 H   0  0  0  0  0  0  0  0  0  0  0  0
   36.2706    5.3488   14.7629 O   0  0  0  0  0  0  0  0  0  0  0  0
   35.7566    4.7977   13.3731 P   0  0  0  0  0  0  0  0  0  0  0  0
   34.6341    5.5451   12.7426 O   0  0  0  0  0  0  0  0  0  0  0  0
   37.0510    4.7696   12.4314 O   0  0  0  0  0  0  0  0  0  0  0  0
   35.4563    3.2479   13.5611 O   0  0  0  0  0  0  0  0  0  0  0  0
   37.3339    5.6782   12.2435 H   0  0  0  0  0  0  0  0  0  0  0  0
   34.6759    3.1361   14.1263 H   0  0  0  0  0  0  0  0  0  0  0  0
 10 11  1  0
 11 12  2  0
 12 13  1  0
 13 14  1  0
 13 15  2  0
 15 16  1  0
 16 17  2  0
 17 18  1  0
 18 19  2  0
 19 20  1  0
  1 20  1  0
  1  2  1  0
  2  3  1  0
  3 23  1  0
 23 24  1  0
 24 25  1  0
 25 26  2  0
 25 27  1  0
 25 29  1  0
 29 30  1  0
 30 31  2  0
 30 32  1  0
 30 33  1  0
  3  4  1  0
  4  5  1  0
  4  6  1  0
  6  7  1  0
 17 11  1  0
  6  1  1  0
 20 16  1  0
 10 21  1  0
 10 22  1  0
 27 28  1  0
 32 34  1  0
 33 35  1  0
  5  8  1  0
  7  9  1  0
M  END
> <minimizedAffinity>
-6.91203

> <CNNscore>
0.6224624515

> <CNNaffinity>
5.0242056847

> <CNN_VS>
3.1273794174

> <CNNaffinity_variance>
0.2836053967

$$$$



 35 37  0  0  0  0  0  0  0  0999 V2000
   37.5303    6.5147   17.5853 C   0  0  0  0  0  0  0  0  0  0  0  0
   37.5540    5.4602   16.5847 O   0  0  0  0  0  0  0  0  0  0  0  0
   38.9277    5.2096   16.2351 C   0  0  0  0  0  0  0  0  0  0  0  0
   39.7697    5.7389   17.3946 C   0  0  0  0  0  0  0  0  0  0  0  0
   41.0980    6.1004   17.0328 O   0  0  0  0  0  0  0  0  0  0  0  0
   38.9780    6.9750   17.7872 C   0  0  0  0  0  0  0  0  0  0  0  0
   39.3012    8.0446   16.8806 O   0  0  0  0  0  0  0  0  0  0  0  0
   41.0713    6.7707   16.3323 H   0  0  0  0  0  0  0  0  0  0  0  0
   39.1385    7.7561   15.9689 H   0  0  0  0  0  0  0  0  0  0  0  0
   35.7798    3.3496   22.4336 N   0  0  0  0  0  0  0  0  0  0  0  0
   36.5366    3.5736   21.2927 C   0  0  0  0  0  0  0  0  0  0  0  0
   37.4270    2.6280   20.9209 N   0  0  0  0  0  0  0  0  0  0  0  0
   38.1780    2.8395   19.8161 C   0  0  0  0  0  0  0  0  0  0  0  0
   39.4190    1.4672   19.3636 Br  0  0  0  0  0  0  0  0  0  0  0  0
   38.1399    3.9059   18.9872 N   0  0  0  0  0  0  0  0  0  0  0  0
   37.2338    4.8071   19.3923 C   0  0  0  0  0  0  0  0  0  0  0  0
   36.4073    4.7237   20.4985 C   0  0  0  0  0  0  0  0  0  0  0  0
   35.5891    5.8296   20.5801 N   0  0  0  0  0  0  0  0  0  0  0  0
   35.9406    6.5848   19.5599 C   0  0  0  0  0  0  0  0  0  0  0  0
   36.9151    5.9980   18.7967 N   0  0  0  0  0  0  0  0  0  0  0  0
   35.9093    2.5254   22.9563 H   0  0  0  0  0  0  0  0  0  0  0  0
   35.1132    4.0149   22.7206 H   0  0  0  0  0  0  0  0  0  0  0  0
   39.1347    3.7215   15.9726 C   0  0  0  0  0  0  0  0  0  0  0  0
   38.3718    3.3260   14.8483 O   0  0  0  0  0  0  0  0  0  0  0  0
   39.1159    2.4684   13.7172 P   0  0  0  0  0  0  0  0  0  0  0  0
   40.4629    2.9566   13.3030 O   0  0  0  0  0  0  0  0  0  0  0  0
   39.1301    1.0081   14.3760 O   0  0  0  0  0  0  0  0  0  0  0  0
   39.7586    0.9926   15.1146 H   0  0  0  0  0  0  0  0  0  0  0  0
   38.0543    2.3036   12.5537 O   0  0  0  0  0  0  0  0  0  0  0  0
   36.7674    1.3889   12.6350 P   0  0  0  0  0  0  0  0  0  0  0  0
   36.2888    0.8096   11.3499 O   0  0  0  0  0  0  0  0  0  0  0  0
   37.1328    0.2488   13.6978 O   0  0  0  0  0  0  0  0  0  0  0  0
   35.6505    2.2123   13.4109 O   0  0  0  0  0  0  0  0  0  0  0  0
   37.8193   -0.3288   13.3291 H   0  0  0  0  0  0  0  0  0  0  0  0
   35.3448    2.9459   12.8547 H   0  0  0  0  0  0  0  0  0  0  0  0
 10 11  1  0
 11 12  2  0
 12 13  1  0
 13 14  1  0
 13 15  2  0
 15 16  1  0
 16 17  2  0
 17 18  1  0
 18 19  2  0
 19 20  1  0
  1 20  1  0
  1  2  1  0
  2  3  1  0
  3 23  1  0
 23 24  1  0
 24 25  1  0
 25 26  2  0
 25 27  1  0
 25 29  1  0
 29 30  1  0
 30 31  2  0
 30 32  1  0
 30 33  1  0
  3  4  1  0
  4  5  1  0
  4  6  1  0
  6  7  1  0
 17 11  1  0
  6  1  1  0
 20 16  1  0
 10 21  1  0
 10 22  1  0
 27 28  1  0
 32 34  1  0
 33 35  1  0
  5  8  1  0
  7  9  1  0
M  END
> <minimizedAffinity>
-7.32095

> <CNNscore>
0.5532231927

> <CNNaffinity>
4.6714286804

> <CNN_VS>
2.5843427181

> <CNNaffinity_variance>
0.3111369014

$$$$



 35 37  0  0  0  0  0  0  0  0999 V2000
   37.6474    6.6248   17.8102 C   0  0  0  0  0  0  0  0  0  0  0  0
   38.2100    7.9314   18.1096 O   0  0  0  0  0  0  0  0  0  0  0  0
   37.6080    8.8894   17.2198 C   0  0  0  0  0  0  0  0  0  0  0  0
   36.3020    8.2634   16.7340 C   0  0  0  0  0  0  0  0  0  0  0  0
   35.8528    8.7546   15.4759 O   0  0  0  0  0  0  0  0  0  0  0  0
   36.7076    6.8040   16.6131 C   0  0  0  0  0  0  0  0  0  0  0  0
   37.4197    6.6176   15.3768 O   0  0  0  0  0  0  0  0  0  0  0  0
   36.5397    8.6071   14.8072 H   0  0  0  0  0  0  0  0  0  0  0  0
   38.1705    7.2306   15.3405 H   0  0  0  0  0  0  0  0  0  0  0  0
   35.6227    3.4642   22.5536 N   0  0  0  0  0  0  0  0  0  0  0  0
   36.4152    3.6691   21.4335 C   0  0  0  0  0  0  0  0  0  0  0  0
   37.2608    2.6839   21.0602 N   0  0  0  0  0  0  0  0  0  0  0  0
   38.0459    2.8758   19.9758 C   0  0  0  0  0  0  0  0  0  0  0  0
   39.2201    1.4470   19.5201 Br  0  0  0  0  0  0  0  0  0  0  0  0
   38.0838    3.9591   19.1690 N   0  0  0  0  0  0  0  0  0  0  0  0
   37.2194    4.9003   19.5743 C   0  0  0  0  0  0  0  0  0  0  0  0
   36.3658    4.8402   20.6612 C   0  0  0  0  0  0  0  0  0  0  0  0
   35.6073    5.9874   20.7492 N   0  0  0  0  0  0  0  0  0  0  0  0
   36.0214    6.7424   19.7526 C   0  0  0  0  0  0  0  0  0  0  0  0
   36.9789    6.1185   18.9975 N   0  0  0  0  0  0  0  0  0  0  0  0
   35.6958    2.6240   23.0613 H   0  0  0  0  0  0  0  0  0  0  0  0
   34.9872    4.1592   22.8408 H   0  0  0  0  0  0  0  0  0  0  0  0
   37.4053   10.2164   17.9438 C   0  0  0  0  0  0  0  0  0  0  0  0
   36.6490   11.0922   17.1293 O   0  0  0  0  0  0  0  0  0  0  0  0
   37.3209   12.4911   16.7289 P   0  0  0  0  0  0  0  0  0  0  0  0
   37.1538   13.6037   17.7078 O   0  0  0  0  0  0  0  0  0  0  0  0
   38.8456   12.0607   16.4906 O   0  0  0  0  0  0  0  0  0  0  0  0
   39.2597   11.8524   17.3427 H   0  0  0  0  0  0  0  0  0  0  0  0
   36.8195   12.7873   15.2561 O   0  0  0  0  0  0  0  0  0  0  0  0
   36.6874   14.2312   14.6258 P   0  0  0  0  0  0  0  0  0  0  0  0
   37.9539   14.9959   14.4601 O   0  0  0  0  0  0  0  0  0  0  0  0
   35.9438   14.0083   13.2256 O   0  0  0  0  0  0  0  0  0  0  0  0
   35.5831   15.0123   15.4610 O   0  0  0  0  0  0  0  0  0  0  0  0
   36.5318   13.5309   12.6197 H   0  0  0  0  0  0  0  0  0  0  0  0
   35.9257   15.2070   16.3473 H   0  0  0  0  0  0  0  0  0  0  0  0
 10 11  1  0
 11 12  2  0
 12 13  1  0
 13 14  1  0
 13 15  2  0
 15 16  1  0
 16 17  2  0
 17 18  1  0
 18 19  2  0
 19 20  1  0
  1 20  1  0
  1  2  1  0
  2  3  1  0
  3 23  1  0
 23 24  1  0
 24 25  1  0
 25 26  2  0
 25 27  1  0
 25 29  1  0
 29 30  1  0
 30 31  2  0
 30 32  1  0
 30 33  1  0
  3  4  1  0
  4  5  1  0
  4  6  1  0
  6  7  1  0
 17 11  1  0
  6  1  1  0
 20 16  1  0
 10 21  1  0
 10 22  1  0
 27 28  1  0
 32 34  1  0
 33 35  1  0
  5  8  1  0
  7  9  1  0
M  END
> <minimizedAffinity>
-6.74718

> <CNNscore>
0.4918226004

> <CNNaffinity>
3.9898498058

> <CNN_VS>
1.9622982740

> <CNNaffinity_variance>
1.0105170012

$$$$



 35 37  0  0  0  0  0  0  0  0999 V2000
   40.2379    3.6908   17.1454 C   0  0  0  0  0  0  0  0  0  0  0  0
   39.3782    4.1752   16.0778 O   0  0  0  0  0  0  0  0  0  0  0  0
   39.5401    3.3016   14.9453 C   0  0  0  0  0  0  0  0  0  0  0  0
   40.0970    1.9883   15.4917 C   0  0  0  0  0  0  0  0  0  0  0  0
   40.8343    1.2275   14.5411 O   0  0  0  0  0  0  0  0  0  0  0  0
   41.0202    2.4977   16.5857 C   0  0  0  0  0  0  0  0  0  0  0  0
   42.2546    2.9351   15.9898 O   0  0  0  0  0  0  0  0  0  0  0  0
   41.5680    1.7615   14.1986 H   0  0  0  0  0  0  0  0  0  0  0  0
   42.0667    3.5961   15.3051 H   0  0  0  0  0  0  0  0  0  0  0  0
   36.2604    3.4533   21.6964 N   0  0  0  0  0  0  0  0  0  0  0  0
   36.8699    4.0410   20.5973 C   0  0  0  0  0  0  0  0  0  0  0  0
   36.4454    5.2634   20.2092 N   0  0  0  0  0  0  0  0  0  0  0  0
   37.0248    5.8423   19.1329 C   0  0  0  0  0  0  0  0  0  0  0  0
   36.3640    7.5593   18.6399 Br  0  0  0  0  0  0  0  0  0  0  0  0
   38.0289    5.3496   18.3746 N   0  0  0  0  0  0  0  0  0  0  0  0
   38.4213    4.1432   18.8080 C   0  0  0  0  0  0  0  0  0  0  0  0
   37.9163    3.4356   19.8841 C   0  0  0  0  0  0  0  0  0  0  0  0
   38.5868    2.2418   20.0403 N   0  0  0  0  0  0  0  0  0  0  0  0
   39.4584    2.2132   19.0532 C   0  0  0  0  0  0  0  0  0  0  0  0
   39.4141    3.3526   18.2942 N   0  0  0  0  0  0  0  0  0  0  0  0
   35.5296    3.9203   22.1623 H   0  0  0  0  0  0  0  0  0  0  0  0
   36.5587    2.5692   22.0104 H   0  0  0  0  0  0  0  0  0  0  0  0
   38.2077    3.1346   14.2221 C   0  0  0  0  0  0  0  0  0  0  0  0
   37.3515    4.2135   14.5469 O   0  0  0  0  0  0  0  0  0  0  0  0
   36.9126    5.1908   13.3551 P   0  0  0  0  0  0  0  0  0  0  0  0
   36.9481    4.6092   11.9822 O   0  0  0  0  0  0  0  0  0  0  0  0
   35.4508    5.6431   13.8298 O   0  0  0  0  0  0  0  0  0  0  0  0
   34.8370    4.8972   13.7416 H   0  0  0  0  0  0  0  0  0  0  0  0
   37.7599    6.5120   13.5664 O   0  0  0  0  0  0  0  0  0  0  0  0
   38.9744    6.9552   12.6564 P   0  0  0  0  0  0  0  0  0  0  0  0
   40.0756    5.9658   12.4998 O   0  0  0  0  0  0  0  0  0  0  0  0
   38.3203    7.3399   11.2467 O   0  0  0  0  0  0  0  0  0  0  0  0
   39.4683    8.3711   13.1841 O   0  0  0  0  0  0  0  0  0  0  0  0
   37.9762    6.5392   10.8207 H   0  0  0  0  0  0  0  0  0  0  0  0
   39.8910    8.2638   14.0505 H   0  0  0  0  0  0  0  0  0  0  0  0
 10 11  1  0
 11 12  2  0
 12 13  1  0
 13 14  1  0
 13 15  2  0
 15 16  1  0
 16 17  2  0
 17 18  1  0
 18 19  2  0
 19 20  1  0
  1 20  1  0
  1  2  1  0
  2  3  1  0
  3 23  1  0
 23 24  1  0
 24 25  1  0
 25 26  2  0
 25 27  1  0
 25 29  1  0
 29 30  1  0
 30 31  2  0
 30 32  1  0
 30 33  1  0
  3  4  1  0
  4  5  1  0
  4  6  1  0
  6  7  1  0
 17 11  1  0
  6  1  1  0
 20 16  1  0
 10 21  1  0
 10 22  1  0
 27 28  1  0
 32 34  1  0
 33 35  1  0
  5  8  1  0
  7  9  1  0
M  END
> <minimizedAffinity>
-6.11038

> <CNNscore>
0.4590869844

> <CNNaffinity>
4.6812276840

> <CNN_VS>
2.1490907669

> <CNNaffinity_variance>
0.1433517486

$$$$



 35 37  0  0  0  0  0  0  0  0999 V2000
   37.7884    6.8637   17.7617 C   0  0  0  0  0  0  0  0  0  0  0  0
   36.9624    6.8066   16.5667 O   0  0  0  0  0  0  0  0  0  0  0  0
   37.6705    6.0438   15.5724 C   0  0  0  0  0  0  0  0  0  0  0  0
   38.6915    5.1955   16.3282 C   0  0  0  0  0  0  0  0  0  0  0  0
   39.8241    4.8183   15.5530 O   0  0  0  0  0  0  0  0  0  0  0  0
   39.1064    6.1551   17.4308 C   0  0  0  0  0  0  0  0  0  0  0  0
   40.0652    7.0886   16.9019 O   0  0  0  0  0  0  0  0  0  0  0  0
   40.2647    5.6140   15.2159 H   0  0  0  0  0  0  0  0  0  0  0  0
   39.6898    7.5326   16.1254 H   0  0  0  0  0  0  0  0  0  0  0  0
   35.6302    3.3288   22.1702 N   0  0  0  0  0  0  0  0  0  0  0  0
   36.4966    3.6491   21.1351 C   0  0  0  0  0  0  0  0  0  0  0  0
   37.4496    2.7524   20.7991 N   0  0  0  0  0  0  0  0  0  0  0  0
   38.3068    3.0576   19.7984 C   0  0  0  0  0  0  0  0  0  0  0  0
   39.6297    1.7490   19.3916 Br  0  0  0  0  0  0  0  0  0  0  0  0
   38.3246    4.1781   19.0434 N   0  0  0  0  0  0  0  0  0  0  0  0
   37.3537    5.0278   19.4078 C   0  0  0  0  0  0  0  0  0  0  0  0
   36.4175    4.8485   20.4104 C   0  0  0  0  0  0  0  0  0  0  0  0
   35.5622    5.9270   20.4770 N   0  0  0  0  0  0  0  0  0  0  0  0
   35.9970    6.7594   19.5535 C   0  0  0  0  0  0  0  0  0  0  0  0
   37.0642    6.2498   18.8624 N   0  0  0  0  0  0  0  0  0  0  0  0
   35.7284    2.4733   22.6474 H   0  0  0  0  0  0  0  0  0  0  0  0
   34.9171    3.9569   22.4274 H   0  0  0  0  0  0  0  0  0  0  0  0
   36.6863    5.2131   14.7554 C   0  0  0  0  0  0  0  0  0  0  0  0
   37.3883    4.2226   14.0284 O   0  0  0  0  0  0  0  0  0  0  0  0
   36.5263    3.2359   13.1054 P   0  0  0  0  0  0  0  0  0  0  0  0
   35.3094    2.6453   13.7334 O   0  0  0  0  0  0  0  0  0  0  0  0
   36.2155    4.1671   11.8393 O   0  0  0  0  0  0  0  0  0  0  0  0
   35.5750    4.8510   12.0904 H   0  0  0  0  0  0  0  0  0  0  0  0
   37.5693    2.2006   12.5151 O   0  0  0  0  0  0  0  0  0  0  0  0
   37.3855    0.6305   12.5347 P   0  0  0  0  0  0  0  0  0  0  0  0
   38.0215   -0.0929   13.6697 O   0  0  0  0  0  0  0  0  0  0  0  0
   35.8024    0.3956   12.4966 O   0  0  0  0  0  0  0  0  0  0  0  0
   37.8307    0.0847   11.1095 O   0  0  0  0  0  0  0  0  0  0  0  0
   35.4106    0.6971   13.3311 H   0  0  0  0  0  0  0  0  0  0  0  0
   38.7916    0.1766   11.0138 H   0  0  0  0  0  0  0  0  0  0  0  0
 10 11  1  0
 11 12  2  0
 12 13  1  0
 13 14  1  0
 13 15  2  0
 15 16  1  0
 16 17  2  0
 17 18  1  0
 18 19  2  0
 19 20  1  0
  1 20  1  0
  1  2  1  0
  2  3  1  0
  3 23  1  0
 23 24  1  0
 24 25  1  0
 25 26  2  0
 25 27  1  0
 25 29  1  0
 29 30  1  0
 30 31  2  0
 30 32  1  0
 30 33  1  0
  3  4  1  0
  4  5  1  0
  4  6  1  0
  6  7  1  0
 17 11  1  0
  6  1  1  0
 20 16  1  0
 10 21  1  0
 10 22  1  0
 27 28  1  0
 32 34  1  0
 33 35  1  0
  5  8  1  0
  7  9  1  0
M  END
> <minimizedAffinity>
-7.56185

> <CNNscore>
0.4055882692

> <CNNaffinity>
4.3187260628

> <CNN_VS>
1.7516245842

> <CNNaffinity_variance>
0.8048993945

$$$$



 35 37  0  0  0  0  0  0  0  0999 V2000
   38.2147    6.2239   17.4323 C   0  0  0  0  0  0  0  0  0  0  0  0
   36.9957    5.9324   16.6959 O   0  0  0  0  0  0  0  0  0  0  0  0
   37.0915    6.5676   15.4078 C   0  0  0  0  0  0  0  0  0  0  0  0
   38.5790    6.8074   15.1564 C   0  0  0  0  0  0  0  0  0  0  0  0
   38.8535    7.8793   14.2610 O   0  0  0  0  0  0  0  0  0  0  0  0
   39.0568    7.1572   16.5557 C   0  0  0  0  0  0  0  0  0  0  0  0
   38.7379    8.5336   16.8282 O   0  0  0  0  0  0  0  0  0  0  0  0
   38.4569    8.6958   14.6030 H   0  0  0  0  0  0  0  0  0  0  0  0
   37.7874    8.6771   16.6982 H   0  0  0  0  0  0  0  0  0  0  0  0
   40.0715    0.9243   19.6807 N   0  0  0  0  0  0  0  0  0  0  0  0
   39.2407    2.0335   19.6165 C   0  0  0  0  0  0  0  0  0  0  0  0
   38.2302    2.1274   20.5082 N   0  0  0  0  0  0  0  0  0  0  0  0
   37.4072    3.1990   20.4492 C   0  0  0  0  0  0  0  0  0  0  0  0
   35.9993    3.2539   21.7308 Br  0  0  0  0  0  0  0  0  0  0  0  0
   37.4766    4.2435   19.5947 N   0  0  0  0  0  0  0  0  0  0  0  0
   38.5013    4.1085   18.7408 C   0  0  0  0  0  0  0  0  0  0  0  0
   39.4120    3.0687   18.6842 C   0  0  0  0  0  0  0  0  0  0  0  0
   40.3407    3.2879   17.6899 N   0  0  0  0  0  0  0  0  0  0  0  0
   39.9756    4.4238   17.1322 C   0  0  0  0  0  0  0  0  0  0  0  0
   38.8823    4.9721   17.7489 N   0  0  0  0  0  0  0  0  0  0  0  0
   39.9080    0.2252   20.3544 H   0  0  0  0  0  0  0  0  0  0  0  0
   40.8245    0.8362   19.0527 H   0  0  0  0  0  0  0  0  0  0  0  0
   36.4363    5.6911   14.3453 C   0  0  0  0  0  0  0  0  0  0  0  0
   37.2091    4.5219   14.1501 O   0  0  0  0  0  0  0  0  0  0  0  0
   36.5941    3.3805   13.2080 P   0  0  0  0  0  0  0  0  0  0  0  0
   35.3634    2.7057   13.7121 O   0  0  0  0  0  0  0  0  0  0  0  0
   36.3806    4.1761   11.8338 O   0  0  0  0  0  0  0  0  0  0  0  0
   35.6454    4.8010   11.9329 H   0  0  0  0  0  0  0  0  0  0  0  0
   37.8102    2.4272   12.8608 O   0  0  0  0  0  0  0  0  0  0  0  0
   37.6741    0.8958   12.4922 P   0  0  0  0  0  0  0  0  0  0  0  0
   36.7940    0.5724   11.3359 O   0  0  0  0  0  0  0  0  0  0  0  0
   39.1740    0.3897   12.2535 O   0  0  0  0  0  0  0  0  0  0  0  0
   37.2768    0.1229   13.8233 O   0  0  0  0  0  0  0  0  0  0  0  0
   39.5308    0.8024   11.4515 H   0  0  0  0  0  0  0  0  0  0  0  0
   36.3685    0.3543   14.0728 H   0  0  0  0  0  0  0  0  0  0  0  0
 10 11  1  0
 11 12  2  0
 12 13  1  0
 13 14  1  0
 13 15  2  0
 15 16  1  0
 16 17  2  0
 17 18  1  0
 18 19  2  0
 19 20  1  0
  1 20  1  0
  1  2  1  0
  2  3  1  0
  3 23  1  0
 23 24  1  0
 24 25  1  0
 25 26  2  0
 25 27  1  0
 25 29  1  0
 29 30  1  0
 30 31  2  0
 30 32  1  0
 30 33  1  0
  3  4  1  0
  4  5  1  0
  4  6  1  0
  6  7  1  0
 17 11  1  0
  6  1  1  0
 20 16  1  0
 10 21  1  0
 10 22  1  0
 27 28  1  0
 32 34  1  0
 33 35  1  0
  5  8  1  0
  7  9  1  0
M  END
> <minimizedAffinity>
-6.88357

> <CNNscore>
0.3772327304

> <CNNaffinity>
4.5007171631

> <CNN_VS>
1.6978178024

> <CNNaffinity_variance>
0.1373444945

$$$$
