


 46 50  0  0  0  0  0  0  0  0999 V2000
   13.7007    4.6867   12.6285 C   0  0  0  0  0  0  0  0  0  0  0  0
   14.3433    4.8163   11.4084 C   0  0  0  0  0  0  0  0  0  0  0  0
   13.7289    4.9045   10.0582 C   0  0  0  0  0  0  0  0  0  0  0  0
   15.7050    4.8405   11.6648 N   0  0  0  0  0  0  0  0  0  0  0  0
   15.9147    4.9425   13.0354 C   0  0  0  0  0  0  0  0  0  0  0  0
   17.0881    5.1468   13.7858 C   0  0  0  0  0  0  0  0  0  0  0  0
   16.9943    5.1384   15.1806 C   0  0  0  0  0  0  0  0  0  0  0  0
   15.7917    4.8819   15.8223 C   0  0  0  0  0  0  0  0  0  0  0  0
   14.6271    4.6977   15.0736 C   0  0  0  0  0  0  0  0  0  0  0  0
   14.6748    4.7622   13.6613 C   0  0  0  0  0  0  0  0  0  0  0  0
    9.6919    2.1901   15.1536 C   0  0  0  0  0  0  0  0  0  0  0  0
   11.0516    1.9459   15.3819 C   0  0  0  0  0  0  0  0  0  0  0  0
   12.0460    2.6555   14.6861 C   0  0  0  0  0  0  0  0  0  0  0  0
   11.6522    3.6182   13.7395 C   0  0  0  0  0  0  0  0  0  0  0  0
   12.2606    4.5237   12.8368 C   0  0  0  0  0  0  0  0  0  0  0  0
   11.3588    5.2834   12.1971 N   0  0  0  0  0  0  0  0  0  0  0  0
   10.1216    4.8267   12.6330 O   0  0  0  0  0  0  0  0  0  0  0  0
   10.2989    3.8409   13.5526 C   0  0  0  0  0  0  0  0  0  0  0  0
    9.2905    3.1525   14.2206 C   0  0  0  0  0  0  0  0  0  0  0  0
    8.5123    1.7446   17.1756 C   0  0  0  0  0  0  0  0  0  0  0  0
    8.6519    1.5508   15.7719 O   0  0  0  0  0  0  0  0  0  0  0  0
   16.7721    4.8282   10.6582 C   0  0  0  0  0  0  0  0  0  0  0  0
   17.1465    6.2177   10.1773 C   0  0  0  0  0  0  0  0  0  0  0  0
   16.3666    7.3211   10.5856 C   0  0  0  0  0  0  0  0  0  0  0  0
   16.6311    8.6090   10.1133 C   0  0  0  0  0  0  0  0  0  0  0  0
   17.7338    8.8386    9.2991 C   0  0  0  0  0  0  0  0  0  0  0  0
   18.5366    7.7685    8.9101 C   0  0  0  0  0  0  0  0  0  0  0  0
   18.2447    6.4670    9.3366 C   0  0  0  0  0  0  0  0  0  0  0  0
   19.3228    5.2265    8.8233 Cl  0  0  0  0  0  0  0  0  0  0  0  0
   15.8745    9.6959   10.4594 O   0  0  0  0  0  0  0  0  0  0  0  0
   14.6893    9.8624    9.6748 C   0  0  0  0  0  0  0  0  0  0  0  0
   13.9114    8.5501    9.5315 C   0  0  0  0  0  0  0  0  0  0  0  0
   15.0417   10.5278    8.3130 C   0  0  0  0  0  0  0  0  0  0  0  0
   14.9284   12.1144    8.1330 N   0  0  0  0  0  0  0  0  0  0  0  0
   16.1810   12.7488    8.7142 C   0  0  0  0  0  0  0  0  0  0  0  0
   14.8423   12.4440    6.6497 C   0  0  0  0  0  0  0  0  0  0  0  0
   13.6450   12.4791    8.8748 C   0  0  0  0  0  0  0  0  0  0  0  0
   13.5756   13.5871    9.9080 N   0  0  0  0  0  0  0  0  0  0  0  0
   14.3432   13.2790   11.1974 C   0  0  0  0  0  0  0  0  0  0  0  0
   13.9304   14.9797    9.4207 C   0  0  0  0  0  0  0  0  0  0  0  0
   12.0754   13.6605   10.3393 C   0  0  0  0  0  0  0  0  0  0  0  0
   18.1188    5.2914   15.9451 O   0  0  0  0  0  0  0  0  0  0  0  0
   18.6752    4.0258   16.2894 C   0  0  0  0  0  0  0  0  0  0  0  0
   18.7769    3.9485   17.6343 F   0  0  0  0  0  0  0  0  0  0  0  0
   19.9095    3.8710   15.7599 F   0  0  0  0  0  0  0  0  0  0  0  0
   17.8795    3.0155   15.8713 F   0  0  0  0  0  0  0  0  0  0  0  0
 20 21  1  0
 21 11  1  0
 11 12  2  0
 12 13  1  0
 13 14  2  0
 14 15  1  0
 15  1  1  0
  1  2  2  0
  2  3  1  0
  2  4  1  0
  4 22  1  0
 22 23  1  0
 23 24  2  0
 24 25  1  0
 25 30  1  0
 30 31  1  0
 31 32  1  0
 31 33  1  0
 33 34  1  0
 34 35  1  0
 34 36  1  0
 34 37  1  0
 37 38  1  0
 38 39  1  0
 38 40  1  0
 38 41  1  0
 25 26  2  0
 26 27  1  0
 27 28  2  0
 28 29  1  0
  4  5  1  0
  5  6  2  0
  6  7  1  0
  7 42  1  0
 42 43  1  0
 43 44  1  0
 43 45  1  0
 43 46  1  0
  7  8  2  0
  8  9  1  0
  9 10  2  0
 15 16  2  0
 16 17  1  0
 17 18  1  0
 18 19  2  0
 19 11  1  0
 18 14  1  0
 10  1  1  0
 28 23  1  0
 10  5  1  0
M  CHG 1  34   1
M  CHG 1  38   1
M  END
> <minimizedAffinity>
-10.78283

> <CNNscore>
0.9529226422

> <CNNaffinity>
8.5697593689

> <CNN_VS>
8.1663179398

> <CNNaffinity_variance>
0.7601860166

$$$$



 46 50  0  0  0  0  0  0  0  0999 V2000
   13.6383    4.6976   12.6242 C   0  0  0  0  0  0  0  0  0  0  0  0
   14.2917    4.8344   11.4107 C   0  0  0  0  0  0  0  0  0  0  0  0
   13.6889    4.9404   10.0565 C   0  0  0  0  0  0  0  0  0  0  0  0
   15.6514    4.8461   11.6782 N   0  0  0  0  0  0  0  0  0  0  0  0
   15.8507    4.9331   13.0514 C   0  0  0  0  0  0  0  0  0  0  0  0
   17.0194    5.1213   13.8133 C   0  0  0  0  0  0  0  0  0  0  0  0
   16.9143    5.0999   15.2071 C   0  0  0  0  0  0  0  0  0  0  0  0
   15.7046    4.8459   15.8365 C   0  0  0  0  0  0  0  0  0  0  0  0
   14.5449    4.6777   15.0767 C   0  0  0  0  0  0  0  0  0  0  0  0
   14.6045    4.7557   13.6655 C   0  0  0  0  0  0  0  0  0  0  0  0
    9.5922    2.2373   15.1255 C   0  0  0  0  0  0  0  0  0  0  0  0
   10.9484    1.9879   15.3688 C   0  0  0  0  0  0  0  0  0  0  0  0
   11.9532    2.6879   14.6784 C   0  0  0  0  0  0  0  0  0  0  0  0
   11.5736    3.6464   13.7217 C   0  0  0  0  0  0  0  0  0  0  0  0
   12.1954    4.5431   12.8193 C   0  0  0  0  0  0  0  0  0  0  0  0
   11.3038    5.3031   12.1658 N   0  0  0  0  0  0  0  0  0  0  0  0
   10.0601    4.8553   12.5924 O   0  0  0  0  0  0  0  0  0  0  0  0
   10.2233    3.8746   13.5200 C   0  0  0  0  0  0  0  0  0  0  0  0
    9.2049    3.1956   14.1824 C   0  0  0  0  0  0  0  0  0  0  0  0
    8.5154    1.6248   17.1611 C   0  0  0  0  0  0  0  0  0  0  0  0
    8.5430    1.6072   15.7376 O   0  0  0  0  0  0  0  0  0  0  0  0
   16.7265    4.8358   10.6802 C   0  0  0  0  0  0  0  0  0  0  0  0
   17.1056    6.2264   10.2062 C   0  0  0  0  0  0  0  0  0  0  0  0
   16.3274    7.3300   10.6170 C   0  0  0  0  0  0  0  0  0  0  0  0
   16.5963    8.6192   10.1509 C   0  0  0  0  0  0  0  0  0  0  0  0
   17.7018    8.8496    9.3406 C   0  0  0  0  0  0  0  0  0  0  0  0
   18.5031    7.7791    8.9493 C   0  0  0  0  0  0  0  0  0  0  0  0
   18.2068    6.4766    9.3696 C   0  0  0  0  0  0  0  0  0  0  0  0
   19.2832    5.2355    8.8540 Cl  0  0  0  0  0  0  0  0  0  0  0  0
   15.8415    9.7065   10.4995 O   0  0  0  0  0  0  0  0  0  0  0  0
   14.7037    9.9271    9.6600 C   0  0  0  0  0  0  0  0  0  0  0  0
   13.8484    8.6640    9.5154 C   0  0  0  0  0  0  0  0  0  0  0  0
   15.1555   10.5309    8.2989 C   0  0  0  0  0  0  0  0  0  0  0  0
   15.0647   12.1083    8.0420 N   0  0  0  0  0  0  0  0  0  0  0  0
   14.7583   12.3329    6.5706 C   0  0  0  0  0  0  0  0  0  0  0  0
   13.9355   12.6871    8.8824 C   0  0  0  0  0  0  0  0  0  0  0  0
   16.4297   12.6327    8.4802 C   0  0  0  0  0  0  0  0  0  0  0  0
   17.5635   12.8955    7.5079 N   0  0  0  0  0  0  0  0  0  0  0  0
   18.0871   11.6345    6.8133 C   0  0  0  0  0  0  0  0  0  0  0  0
   17.3241   13.9851    6.4793 C   0  0  0  0  0  0  0  0  0  0  0  0
   18.7556   13.3976    8.3847 C   0  0  0  0  0  0  0  0  0  0  0  0
   18.0336    5.2371   15.9821 O   0  0  0  0  0  0  0  0  0  0  0  0
   18.5443    3.9639   16.3670 C   0  0  0  0  0  0  0  0  0  0  0  0
   19.1506    4.0853   17.5681 F   0  0  0  0  0  0  0  0  0  0  0  0
   19.4533    3.5090   15.4757 F   0  0  0  0  0  0  0  0  0  0  0  0
   17.5478    3.0582   16.4910 F   0  0  0  0  0  0  0  0  0  0  0  0
 20 21  1  0
 21 11  1  0
 11 12  2  0
 12 13  1  0
 13 14  2  0
 14 15  1  0
 15  1  1  0
  1  2  2  0
  2  3  1  0
  2  4  1  0
  4 22  1  0
 22 23  1  0
 23 24  2  0
 24 25  1  0
 25 30  1  0
 30 31  1  0
 31 32  1  0
 31 33  1  0
 33 34  1  0
 34 35  1  0
 34 36  1  0
 34 37  1  0
 37 38  1  0
 38 39  1  0
 38 40  1  0
 38 41  1  0
 25 26  2  0
 26 27  1  0
 27 28  2  0
 28 29  1  0
  4  5  1  0
  5  6  2  0
  6  7  1  0
  7 42  1  0
 42 43  1  0
 43 44  1  0
 43 45  1  0
 43 46  1  0
  7  8  2  0
  8  9  1  0
  9 10  2  0
 15 16  2  0
 16 17  1  0
 17 18  1  0
 18 19  2  0
 19 11  1  0
 18 14  1  0
 10  1  1  0
 28 23  1  0
 10  5  1  0
M  CHG 1  34   1
M  CHG 1  38   1
M  END
> <minimizedAffinity>
-10.74232

> <CNNscore>
0.9482383728

> <CNNaffinity>
8.4825639725

> <CNN_VS>
8.0434923172

> <CNNaffinity_variance>
0.7884130478

$$$$



 46 50  0  0  0  0  0  0  0  0999 V2000
   13.4985    4.7264   12.2982 C   0  0  0  0  0  0  0  0  0  0  0  0
   14.2638    4.8572   11.1512 C   0  0  0  0  0  0  0  0  0  0  0  0
   13.7913    4.9709    9.7468 C   0  0  0  0  0  0  0  0  0  0  0  0
   15.5927    4.8540   11.5445 N   0  0  0  0  0  0  0  0  0  0  0  0
   15.6638    4.9376   12.9305 C   0  0  0  0  0  0  0  0  0  0  0  0
   16.7582    5.1125   13.7985 C   0  0  0  0  0  0  0  0  0  0  0  0
   16.5232    5.0910   15.1763 C   0  0  0  0  0  0  0  0  0  0  0  0
   15.2574    4.8496   15.6896 C   0  0  0  0  0  0  0  0  0  0  0  0
   14.1719    4.6946   14.8246 C   0  0  0  0  0  0  0  0  0  0  0  0
   14.3638    4.7731   13.4253 C   0  0  0  0  0  0  0  0  0  0  0  0
    8.6790    6.2083   10.4937 C   0  0  0  0  0  0  0  0  0  0  0  0
    9.8969    6.7006   10.0087 C   0  0  0  0  0  0  0  0  0  0  0  0
   11.1233    6.2494   10.5272 C   0  0  0  0  0  0  0  0  0  0  0  0
   11.1102    5.2929   11.5582 C   0  0  0  0  0  0  0  0  0  0  0  0
   12.0422    4.5874   12.3575 C   0  0  0  0  0  0  0  0  0  0  0  0
   11.4441    3.7088   13.1759 N   0  0  0  0  0  0  0  0  0  0  0  0
   10.0822    3.8820   12.9653 O   0  0  0  0  0  0  0  0  0  0  0  0
    9.8868    4.8201   12.0006 C   0  0  0  0  0  0  0  0  0  0  0  0
    8.6563    5.2497   11.5126 C   0  0  0  0  0  0  0  0  0  0  0  0
    6.4750    6.9167   11.0585 C   0  0  0  0  0  0  0  0  0  0  0  0
    7.4370    6.5870   10.0618 O   0  0  0  0  0  0  0  0  0  0  0  0
   16.7561    4.8329   10.6512 C   0  0  0  0  0  0  0  0  0  0  0  0
   17.1679    6.2168   10.1851 C   0  0  0  0  0  0  0  0  0  0  0  0
   16.4423    7.3400   10.6372 C   0  0  0  0  0  0  0  0  0  0  0  0
   16.7408    8.6263   10.1811 C   0  0  0  0  0  0  0  0  0  0  0  0
   17.8269    8.8311    9.3383 C   0  0  0  0  0  0  0  0  0  0  0  0
   18.5772    7.7399    8.9054 C   0  0  0  0  0  0  0  0  0  0  0  0
   18.2494    6.4419    9.3164 C   0  0  0  0  0  0  0  0  0  0  0  0
   19.2647    5.1728    8.7478 Cl  0  0  0  0  0  0  0  0  0  0  0  0
   16.0360    9.7333   10.5700 O   0  0  0  0  0  0  0  0  0  0  0  0
   14.9715   10.0948    9.6845 C   0  0  0  0  0  0  0  0  0  0  0  0
   14.0384    8.9126    9.4023 C   0  0  0  0  0  0  0  0  0  0  0  0
   15.5494   10.7514    8.3975 C   0  0  0  0  0  0  0  0  0  0  0  0
   15.0023   12.1695    7.8956 N   0  0  0  0  0  0  0  0  0  0  0  0
   14.5197   12.0123    6.4631 C   0  0  0  0  0  0  0  0  0  0  0  0
   13.8339   12.5935    8.7737 C   0  0  0  0  0  0  0  0  0  0  0  0
   16.2006   13.1026    8.0492 C   0  0  0  0  0  0  0  0  0  0  0  0
   17.6321   12.6491    7.8365 N   0  0  0  0  0  0  0  0  0  0  0  0
   18.3715   12.3071    9.1338 C   0  0  0  0  0  0  0  0  0  0  0  0
   17.8390   11.5406    6.8212 C   0  0  0  0  0  0  0  0  0  0  0  0
   18.3817   13.8937    7.2610 C   0  0  0  0  0  0  0  0  0  0  0  0
   17.5666    5.2154   16.0528 O   0  0  0  0  0  0  0  0  0  0  0  0
   18.0107    3.9372   16.4988 C   0  0  0  0  0  0  0  0  0  0  0  0
   17.1662    2.9953   16.0249 F   0  0  0  0  0  0  0  0  0  0  0  0
   18.0172    3.8625   17.8486 F   0  0  0  0  0  0  0  0  0  0  0  0
   19.2491    3.6626   16.0300 F   0  0  0  0  0  0  0  0  0  0  0  0
 20 21  1  0
 21 11  1  0
 11 12  2  0
 12 13  1  0
 13 14  2  0
 14 15  1  0
 15  1  1  0
  1  2  2  0
  2  3  1  0
  2  4  1  0
  4 22  1  0
 22 23  1  0
 23 24  2  0
 24 25  1  0
 25 30  1  0
 30 31  1  0
 31 32  1  0
 31 33  1  0
 33 34  1  0
 34 35  1  0
 34 36  1  0
 34 37  1  0
 37 38  1  0
 38 39  1  0
 38 40  1  0
 38 41  1  0
 25 26  2  0
 26 27  1  0
 27 28  2  0
 28 29  1  0
  4  5  1  0
  5  6  2  0
  6  7  1  0
  7 42  1  0
 42 43  1  0
 43 44  1  0
 43 45  1  0
 43 46  1  0
  7  8  2  0
  8  9  1  0
  9 10  2  0
 15 16  2  0
 16 17  1  0
 17 18  1  0
 18 19  2  0
 19 11  1  0
 18 14  1  0
 10  1  1  0
 28 23  1  0
 10  5  1  0
M  CHG 1  34   1
M  CHG 1  38   1
M  END
> <minimizedAffinity>
-10.34606

> <CNNscore>
0.5304409266

> <CNNaffinity>
7.6340155602

> <CNN_VS>
4.0493941307

> <CNNaffinity_variance>
1.2551847696

$$$$



 46 50  0  0  0  0  0  0  0  0999 V2000
   13.5771    4.6816   12.3205 C   0  0  0  0  0  0  0  0  0  0  0  0
   14.3309    4.8343   11.1686 C   0  0  0  0  0  0  0  0  0  0  0  0
   13.8462    4.9357    9.7674 C   0  0  0  0  0  0  0  0  0  0  0  0
   15.6620    4.8676   11.5532 N   0  0  0  0  0  0  0  0  0  0  0  0
   15.7398    4.9523   12.9387 C   0  0  0  0  0  0  0  0  0  0  0  0
   16.8347    5.1570   13.7997 C   0  0  0  0  0  0  0  0  0  0  0  0
   16.6094    5.1281   15.1790 C   0  0  0  0  0  0  0  0  0  0  0  0
   15.3542    4.8514   15.7004 C   0  0  0  0  0  0  0  0  0  0  0  0
   14.2677    4.6669   14.8423 C   0  0  0  0  0  0  0  0  0  0  0  0
   14.4482    4.7516   13.4419 C   0  0  0  0  0  0  0  0  0  0  0  0
    8.7036    6.0709   10.5889 C   0  0  0  0  0  0  0  0  0  0  0  0
    9.9034    6.6058   10.1042 C   0  0  0  0  0  0  0  0  0  0  0  0
   11.1461    6.1769   10.6024 C   0  0  0  0  0  0  0  0  0  0  0  0
   11.1680    5.1990   11.6130 C   0  0  0  0  0  0  0  0  0  0  0  0
   12.1256    4.5023   12.3892 C   0  0  0  0  0  0  0  0  0  0  0  0
   11.5587    3.5909   13.1939 N   0  0  0  0  0  0  0  0  0  0  0  0
   10.1908    3.7318   12.9986 O   0  0  0  0  0  0  0  0  0  0  0  0
    9.9616    4.6843   12.0557 C   0  0  0  0  0  0  0  0  0  0  0  0
    8.7157    5.0908   11.5874 C   0  0  0  0  0  0  0  0  0  0  0  0
    6.5866    7.0128   11.1452 C   0  0  0  0  0  0  0  0  0  0  0  0
    7.4480    6.4249   10.1758 O   0  0  0  0  0  0  0  0  0  0  0  0
   16.8196    4.8793   10.6523 C   0  0  0  0  0  0  0  0  0  0  0  0
   17.1757    6.2719   10.1664 C   0  0  0  0  0  0  0  0  0  0  0  0
   16.3818    7.3665   10.5712 C   0  0  0  0  0  0  0  0  0  0  0  0
   16.6294    8.6561   10.0944 C   0  0  0  0  0  0  0  0  0  0  0  0
   17.7287    8.8972    9.2788 C   0  0  0  0  0  0  0  0  0  0  0  0
   18.5452    7.8362    8.8932 C   0  0  0  0  0  0  0  0  0  0  0  0
   18.2703    6.5326    9.3244 C   0  0  0  0  0  0  0  0  0  0  0  0
   19.3642    5.3043    8.8149 Cl  0  0  0  0  0  0  0  0  0  0  0  0
   15.8589    9.7343   10.4370 O   0  0  0  0  0  0  0  0  0  0  0  0
   14.6652    9.8757    9.6604 C   0  0  0  0  0  0  0  0  0  0  0  0
   13.9133    8.5477    9.5237 C   0  0  0  0  0  0  0  0  0  0  0  0
   14.9946   10.5468    8.2956 C   0  0  0  0  0  0  0  0  0  0  0  0
   14.4670   12.0226    7.9700 N   0  0  0  0  0  0  0  0  0  0  0  0
   15.2846   13.0099    8.7862 C   0  0  0  0  0  0  0  0  0  0  0  0
   14.6683   12.3097    6.4890 C   0  0  0  0  0  0  0  0  0  0  0  0
   12.9885   11.9775    8.3475 C   0  0  0  0  0  0  0  0  0  0  0  0
   12.3266   13.0291    9.2170 N   0  0  0  0  0  0  0  0  0  0  0  0
   10.8138   12.8425    9.3693 C   0  0  0  0  0  0  0  0  0  0  0  0
   12.9537   13.2629   10.5789 C   0  0  0  0  0  0  0  0  0  0  0  0
   12.4910   14.3750    8.4401 C   0  0  0  0  0  0  0  0  0  0  0  0
   17.6547    5.2808   16.0486 O   0  0  0  0  0  0  0  0  0  0  0  0
   18.0853    4.0194   16.5521 C   0  0  0  0  0  0  0  0  0  0  0  0
   19.4355    4.0076   16.5943 F   0  0  0  0  0  0  0  0  0  0  0  0
   17.6756    3.0065   15.7560 F   0  0  0  0  0  0  0  0  0  0  0  0
   17.6258    3.8152   17.8075 F   0  0  0  0  0  0  0  0  0  0  0  0
 20 21  1  0
 21 11  1  0
 11 12  2  0
 12 13  1  0
 13 14  2  0
 14 15  1  0
 15  1  1  0
  1  2  2  0
  2  3  1  0
  2  4  1  0
  4 22  1  0
 22 23  1  0
 23 24  2  0
 24 25  1  0
 25 30  1  0
 30 31  1  0
 31 32  1  0
 31 33  1  0
 33 34  1  0
 34 35  1  0
 34 36  1  0
 34 37  1  0
 37 38  1  0
 38 39  1  0
 38 40  1  0
 38 41  1  0
 25 26  2  0
 26 27  1  0
 27 28  2  0
 28 29  1  0
  4  5  1  0
  5  6  2  0
  6  7  1  0
  7 42  1  0
 42 43  1  0
 43 44  1  0
 43 45  1  0
 43 46  1  0
  7  8  2  0
  8  9  1  0
  9 10  2  0
 15 16  2  0
 16 17  1  0
 17 18  1  0
 18 19  2  0
 19 11  1  0
 18 14  1  0
 10  1  1  0
 28 23  1  0
 10  5  1  0
M  CHG 1  34   1
M  CHG 1  38   1
M  END
> <minimizedAffinity>
-10.45789

> <CNNscore>
0.4709119797

> <CNNaffinity>
7.6819748878

> <CNN_VS>
3.6175339222

> <CNNaffinity_variance>
0.8770321012

$$$$



 46 50  0  0  0  0  0  0  0  0999 V2000
   14.6526    5.0594   13.0407 C   0  0  0  0  0  0  0  0  0  0  0  0
   15.5637    5.2572   12.0164 C   0  0  0  0  0  0  0  0  0  0  0  0
   17.0445    5.1491   12.0786 C   0  0  0  0  0  0  0  0  0  0  0  0
   14.8386    5.5953   10.8847 N   0  0  0  0  0  0  0  0  0  0  0  0
   13.4836    5.4042   11.1308 C   0  0  0  0  0  0  0  0  0  0  0  0
   12.3647    5.4615   10.2785 C   0  0  0  0  0  0  0  0  0  0  0  0
   11.0950    5.2859   10.8366 C   0  0  0  0  0  0  0  0  0  0  0  0
   10.9237    5.1135   12.2022 C   0  0  0  0  0  0  0  0  0  0  0  0
   12.0379    5.0394   13.0411 C   0  0  0  0  0  0  0  0  0  0  0  0
   13.3405    5.1505   12.5008 C   0  0  0  0  0  0  0  0  0  0  0  0
   18.3564    4.2126   16.8148 C   0  0  0  0  0  0  0  0  0  0  0  0
   18.6374    4.4967   15.4728 C   0  0  0  0  0  0  0  0  0  0  0  0
   17.6059    4.7210   14.5443 C   0  0  0  0  0  0  0  0  0  0  0  0
   16.2723    4.6458   14.9843 C   0  0  0  0  0  0  0  0  0  0  0  0
   14.9710    4.7787   14.4419 C   0  0  0  0  0  0  0  0  0  0  0  0
   14.0180    4.6652   15.3791 N   0  0  0  0  0  0  0  0  0  0  0  0
   14.6965    4.3831   16.5578 O   0  0  0  0  0  0  0  0  0  0  0  0
   16.0356    4.3768   16.3214 C   0  0  0  0  0  0  0  0  0  0  0  0
   17.0330    4.1449   17.2639 C   0  0  0  0  0  0  0  0  0  0  0  0
   18.9215    4.3001   19.1282 C   0  0  0  0  0  0  0  0  0  0  0  0
   19.2852    3.9734   17.7909 O   0  0  0  0  0  0  0  0  0  0  0  0
   15.3983    6.0257    9.5989 C   0  0  0  0  0  0  0  0  0  0  0  0
   15.9662    7.4320    9.6432 C   0  0  0  0  0  0  0  0  0  0  0  0
   15.1014    8.5160    9.9064 C   0  0  0  0  0  0  0  0  0  0  0  0
   15.5657    9.8335    9.8887 C   0  0  0  0  0  0  0  0  0  0  0  0
   16.9183   10.0921    9.7009 C   0  0  0  0  0  0  0  0  0  0  0  0
   17.7956    9.0344    9.4717 C   0  0  0  0  0  0  0  0  0  0  0  0
   17.3269    7.7153    9.4346 C   0  0  0  0  0  0  0  0  0  0  0  0
   18.5037    6.4849    9.1778 Cl  0  0  0  0  0  0  0  0  0  0  0  0
   14.7490   10.9107   10.1039 O   0  0  0  0  0  0  0  0  0  0  0  0
   13.7718   11.1227    9.0801 C   0  0  0  0  0  0  0  0  0  0  0  0
   14.4127   11.2210    7.6918 C   0  0  0  0  0  0  0  0  0  0  0  0
   12.8797   12.3456    9.4408 C   0  0  0  0  0  0  0  0  0  0  0  0
   13.5237   13.6487   10.1112 N   0  0  0  0  0  0  0  0  0  0  0  0
   14.2388   13.2242   11.3832 C   0  0  0  0  0  0  0  0  0  0  0  0
   14.5332   14.2584    9.1492 C   0  0  0  0  0  0  0  0  0  0  0  0
   12.3301   14.5707   10.3468 C   0  0  0  0  0  0  0  0  0  0  0  0
   12.4519   15.9207   11.0270 N   0  0  0  0  0  0  0  0  0  0  0  0
   11.1150   16.4933   11.5084 C   0  0  0  0  0  0  0  0  0  0  0  0
   13.4814   16.0202   12.1373 C   0  0  0  0  0  0  0  0  0  0  0  0
   12.9351   16.9053    9.9139 C   0  0  0  0  0  0  0  0  0  0  0  0
    9.9802    5.3764   10.0484 O   0  0  0  0  0  0  0  0  0  0  0  0
    8.7945    5.3038   10.8349 C   0  0  0  0  0  0  0  0  0  0  0  0
    8.6187    4.0261   11.2368 F   0  0  0  0  0  0  0  0  0  0  0  0
    7.7084    5.6790   10.1227 F   0  0  0  0  0  0  0  0  0  0  0  0
    8.8953    6.0793   11.9382 F   0  0  0  0  0  0  0  0  0  0  0  0
 20 21  1  0
 21 11  1  0
 11 12  2  0
 12 13  1  0
 13 14  2  0
 14 15  1  0
 15  1  1  0
  1  2  2  0
  2  3  1  0
  2  4  1  0
  4 22  1  0
 22 23  1  0
 23 24  2  0
 24 25  1  0
 25 30  1  0
 30 31  1  0
 31 32  1  0
 31 33  1  0
 33 34  1  0
 34 35  1  0
 34 36  1  0
 34 37  1  0
 37 38  1  0
 38 39  1  0
 38 40  1  0
 38 41  1  0
 25 26  2  0
 26 27  1  0
 27 28  2  0
 28 29  1  0
  4  5  1  0
  5  6  2  0
  6  7  1  0
  7 42  1  0
 42 43  1  0
 43 44  1  0
 43 45  1  0
 43 46  1  0
  7  8  2  0
  8  9  1  0
  9 10  2  0
 15 16  2  0
 16 17  1  0
 17 18  1  0
 18 19  2  0
 19 11  1  0
 18 14  1  0
 10  1  1  0
 28 23  1  0
 10  5  1  0
M  CHG 1  34   1
M  CHG 1  38   1
M  END
> <minimizedAffinity>
-8.78510

> <CNNscore>
0.4244093299

> <CNNaffinity>
8.0387458801

> <CNN_VS>
3.4117188454

> <CNNaffinity_variance>
0.4896605909

$$$$



 46 50  0  0  0  0  0  0  0  0999 V2000
   13.6537    5.0756   11.3880 C   0  0  0  0  0  0  0  0  0  0  0  0
   14.6922    5.5923   10.6310 C   0  0  0  0  0  0  0  0  0  0  0  0
   14.6062    6.3059    9.3303 C   0  0  0  0  0  0  0  0  0  0  0  0
   15.8689    5.3137   11.3081 N   0  0  0  0  0  0  0  0  0  0  0  0
   15.5678    4.8221   12.5733 C   0  0  0  0  0  0  0  0  0  0  0  0
   16.3881    4.5340   13.6805 C   0  0  0  0  0  0  0  0  0  0  0  0
   15.7968    3.9769   14.8181 C   0  0  0  0  0  0  0  0  0  0  0  0
   14.4467    3.6600   14.8489 C   0  0  0  0  0  0  0  0  0  0  0  0
   13.6337    3.9644   13.7548 C   0  0  0  0  0  0  0  0  0  0  0  0
   14.1877    4.5859   12.6112 C   0  0  0  0  0  0  0  0  0  0  0  0
    8.5185    5.2644   12.8957 C   0  0  0  0  0  0  0  0  0  0  0  0
    9.6089    5.3714   13.7676 C   0  0  0  0  0  0  0  0  0  0  0  0
   10.9305    5.3263   13.2903 C   0  0  0  0  0  0  0  0  0  0  0  0
   11.1453    5.1605   11.9103 C   0  0  0  0  0  0  0  0  0  0  0  0
   12.2378    5.0526   11.0160 C   0  0  0  0  0  0  0  0  0  0  0  0
   11.8394    4.9708    9.7377 N   0  0  0  0  0  0  0  0  0  0  0  0
   10.4514    4.9553    9.7880 O   0  0  0  0  0  0  0  0  0  0  0  0
   10.0417    5.0729   11.0792 C   0  0  0  0  0  0  0  0  0  0  0  0
    8.7222    5.1086   11.5203 C   0  0  0  0  0  0  0  0  0  0  0  0
    6.3817    4.2126   12.8164 C   0  0  0  0  0  0  0  0  0  0  0  0
    7.1999    5.2898   13.2608 O   0  0  0  0  0  0  0  0  0  0  0  0
   17.2276    5.5545   10.8104 C   0  0  0  0  0  0  0  0  0  0  0  0
   17.3904    6.9234   10.1766 C   0  0  0  0  0  0  0  0  0  0  0  0
   16.6398    8.0084   10.6785 C   0  0  0  0  0  0  0  0  0  0  0  0
   16.7047    9.2705   10.0832 C   0  0  0  0  0  0  0  0  0  0  0  0
   17.5879    9.5009    9.0351 C   0  0  0  0  0  0  0  0  0  0  0  0
   18.3626    8.4518    8.5450 C   0  0  0  0  0  0  0  0  0  0  0  0
   18.2622    7.1712    9.1026 C   0  0  0  0  0  0  0  0  0  0  0  0
   19.2906    5.9587    8.4414 Cl  0  0  0  0  0  0  0  0  0  0  0  0
   15.9646   10.3358   10.5204 O   0  0  0  0  0  0  0  0  0  0  0  0
   14.6512   10.4113    9.9570 C   0  0  0  0  0  0  0  0  0  0  0  0
   14.6684   10.1951    8.4401 C   0  0  0  0  0  0  0  0  0  0  0  0
   13.9628   11.7386   10.3878 C   0  0  0  0  0  0  0  0  0  0  0  0
   13.0487   12.5500    9.3542 N   0  0  0  0  0  0  0  0  0  0  0  0
   11.8639   11.6751    8.9797 C   0  0  0  0  0  0  0  0  0  0  0  0
   12.5419   13.8188   10.0246 C   0  0  0  0  0  0  0  0  0  0  0  0
   13.9889   12.8549    8.1908 C   0  0  0  0  0  0  0  0  0  0  0  0
   15.0053   13.9800    8.2244 N   0  0  0  0  0  0  0  0  0  0  0  0
   14.3837   15.3775    8.1369 C   0  0  0  0  0  0  0  0  0  0  0  0
   16.0133   13.9376    9.3579 C   0  0  0  0  0  0  0  0  0  0  0  0
   15.8394   13.8266    6.9119 C   0  0  0  0  0  0  0  0  0  0  0  0
   16.5670    3.6437   15.8988 O   0  0  0  0  0  0  0  0  0  0  0  0
   17.8141    4.3317   15.8656 C   0  0  0  0  0  0  0  0  0  0  0  0
   17.5810    5.6399   15.6223 F   0  0  0  0  0  0  0  0  0  0  0  0
   18.6138    3.8528   14.8865 F   0  0  0  0  0  0  0  0  0  0  0  0
   18.4541    4.2346   17.0530 F   0  0  0  0  0  0  0  0  0  0  0  0
 20 21  1  0
 21 11  1  0
 11 12  2  0
 12 13  1  0
 13 14  2  0
 14 15  1  0
 15  1  1  0
  1  2  2  0
  2  3  1  0
  2  4  1  0
  4 22  1  0
 22 23  1  0
 23 24  2  0
 24 25  1  0
 25 30  1  0
 30 31  1  0
 31 32  1  0
 31 33  1  0
 33 34  1  0
 34 35  1  0
 34 36  1  0
 34 37  1  0
 37 38  1  0
 38 39  1  0
 38 40  1  0
 38 41  1  0
 25 26  2  0
 26 27  1  0
 27 28  2  0
 28 29  1  0
  4  5  1  0
  5  6  2  0
  6  7  1  0
  7 42  1  0
 42 43  1  0
 43 44  1  0
 43 45  1  0
 43 46  1  0
  7  8  2  0
  8  9  1  0
  9 10  2  0
 15 16  2  0
 16 17  1  0
 17 18  1  0
 18 19  2  0
 19 11  1  0
 18 14  1  0
 10  1  1  0
 28 23  1  0
 10  5  1  0
M  CHG 1  34   1
M  CHG 1  38   1
M  END
> <minimizedAffinity>
-9.32632

> <CNNscore>
0.3910249770

> <CNNaffinity>
7.6891341209

> <CNN_VS>
3.0066435337

> <CNNaffinity_variance>
0.5639505386

$$$$



 46 50  0  0  0  0  0  0  0  0999 V2000
   11.2377    4.7179   12.7786 C   0  0  0  0  0  0  0  0  0  0  0  0
   11.3436    5.1120   11.4550 C   0  0  0  0  0  0  0  0  0  0  0  0
   10.2527    5.2601   10.4568 C   0  0  0  0  0  0  0  0  0  0  0  0
   12.6868    5.3439   11.2044 N   0  0  0  0  0  0  0  0  0  0  0  0
   13.3926    5.3074   12.4017 C   0  0  0  0  0  0  0  0  0  0  0  0
   14.7317    5.6192   12.7038 C   0  0  0  0  0  0  0  0  0  0  0  0
   15.1815    5.4183   14.0120 C   0  0  0  0  0  0  0  0  0  0  0  0
   14.3554    4.8744   14.9845 C   0  0  0  0  0  0  0  0  0  0  0  0
   13.0228    4.5834   14.6845 C   0  0  0  0  0  0  0  0  0  0  0  0
   12.5175    4.8332   13.3871 C   0  0  0  0  0  0  0  0  0  0  0  0
    8.9389    1.7877   16.6269 C   0  0  0  0  0  0  0  0  0  0  0  0
   10.3196    1.8770   16.4114 C   0  0  0  0  0  0  0  0  0  0  0  0
   10.8463    2.6815   15.3858 C   0  0  0  0  0  0  0  0  0  0  0  0
    9.9570    3.3961   14.5633 C   0  0  0  0  0  0  0  0  0  0  0  0
   10.0171    4.2781   13.4571 C   0  0  0  0  0  0  0  0  0  0  0  0
    8.8044    4.7291   13.1029 N   0  0  0  0  0  0  0  0  0  0  0  0
    7.9126    4.0807   13.9475 O   0  0  0  0  0  0  0  0  0  0  0  0
    8.6001    3.2932   14.8170 C   0  0  0  0  0  0  0  0  0  0  0  0
    8.0469    2.5023   15.8197 C   0  0  0  0  0  0  0  0  0  0  0  0
    9.1026   -0.0036   18.1898 C   0  0  0  0  0  0  0  0  0  0  0  0
    8.3293    1.0306   17.5900 O   0  0  0  0  0  0  0  0  0  0  0  0
   13.2800    5.6475    9.8975 C   0  0  0  0  0  0  0  0  0  0  0  0
   14.7682    5.9323    9.9764 C   0  0  0  0  0  0  0  0  0  0  0  0
   15.2069    7.2642   10.1379 C   0  0  0  0  0  0  0  0  0  0  0  0
   16.5671    7.5825   10.1463 C   0  0  0  0  0  0  0  0  0  0  0  0
   17.5187    6.5712   10.0875 C   0  0  0  0  0  0  0  0  0  0  0  0
   17.1075    5.2461    9.9606 C   0  0  0  0  0  0  0  0  0  0  0  0
   15.7458    4.9257    9.8973 C   0  0  0  0  0  0  0  0  0  0  0  0
   15.3510    3.2542    9.7747 Cl  0  0  0  0  0  0  0  0  0  0  0  0
   17.0279    8.8659   10.2649 O   0  0  0  0  0  0  0  0  0  0  0  0
   17.1295    9.5722    9.0243 C   0  0  0  0  0  0  0  0  0  0  0  0
   18.2995    9.0659    8.1743 C   0  0  0  0  0  0  0  0  0  0  0  0
   17.1695   11.1054    9.2865 C   0  0  0  0  0  0  0  0  0  0  0  0
   16.2740   12.1011    8.4096 N   0  0  0  0  0  0  0  0  0  0  0  0
   16.4660   13.5098    8.9464 C   0  0  0  0  0  0  0  0  0  0  0  0
   16.7406   12.0491    6.9620 C   0  0  0  0  0  0  0  0  0  0  0  0
   14.8552   11.5616    8.5724 C   0  0  0  0  0  0  0  0  0  0  0  0
   13.6929   12.4215    9.0302 N   0  0  0  0  0  0  0  0  0  0  0  0
   13.6913   13.8301    8.4280 C   0  0  0  0  0  0  0  0  0  0  0  0
   12.3123   11.8060    8.8978 C   0  0  0  0  0  0  0  0  0  0  0  0
   13.9134   12.6378   10.5620 C   0  0  0  0  0  0  0  0  0  0  0  0
   16.4872    5.6696   14.3352 O   0  0  0  0  0  0  0  0  0  0  0  0
   17.2608    4.4741   14.2910 C   0  0  0  0  0  0  0  0  0  0  0  0
   16.5839    3.4959   14.9311 F   0  0  0  0  0  0  0  0  0  0  0  0
   18.4540    4.6377   14.9052 F   0  0  0  0  0  0  0  0  0  0  0  0
   17.4658    4.0752   13.0152 F   0  0  0  0  0  0  0  0  0  0  0  0
 20 21  1  0
 21 11  1  0
 11 12  2  0
 12 13  1  0
 13 14  2  0
 14 15  1  0
 15  1  1  0
  1  2  2  0
  2  3  1  0
  2  4  1  0
  4 22  1  0
 22 23  1  0
 23 24  2  0
 24 25  1  0
 25 30  1  0
 30 31  1  0
 31 32  1  0
 31 33  1  0
 33 34  1  0
 34 35  1  0
 34 36  1  0
 34 37  1  0
 37 38  1  0
 38 39  1  0
 38 40  1  0
 38 41  1  0
 25 26  2  0
 26 27  1  0
 27 28  2  0
 28 29  1  0
  4  5  1  0
  5  6  2  0
  6  7  1  0
  7 42  1  0
 42 43  1  0
 43 44  1  0
 43 45  1  0
 43 46  1  0
  7  8  2  0
  8  9  1  0
  9 10  2  0
 15 16  2  0
 16 17  1  0
 17 18  1  0
 18 19  2  0
 19 11  1  0
 18 14  1  0
 10  1  1  0
 28 23  1  0
 10  5  1  0
M  CHG 1  34   1
M  CHG 1  38   1
M  END
> <minimizedAffinity>
-8.50089

> <CNNscore>
0.3601964116

> <CNNaffinity>
7.4492835999

> <CNN_VS>
2.6832051277

> <CNNaffinity_variance>
1.2113585472

$$$$



 46 50  0  0  0  0  0  0  0  0999 V2000
   13.2836    6.1228   10.2249 C   0  0  0  0  0  0  0  0  0  0  0  0
   13.9848    5.0820   10.8111 C   0  0  0  0  0  0  0  0  0  0  0  0
   13.5355    3.6805   11.0164 C   0  0  0  0  0  0  0  0  0  0  0  0
   15.2164    5.5863   11.1978 N   0  0  0  0  0  0  0  0  0  0  0  0
   15.3771    6.8639   10.6735 C   0  0  0  0  0  0  0  0  0  0  0  0
   16.4871    7.7294   10.6519 C   0  0  0  0  0  0  0  0  0  0  0  0
   16.3252    9.0036   10.1002 C   0  0  0  0  0  0  0  0  0  0  0  0
   15.0935    9.4370    9.6321 C   0  0  0  0  0  0  0  0  0  0  0  0
   13.9997    8.5685    9.6392 C   0  0  0  0  0  0  0  0  0  0  0  0
   14.1442    7.2507   10.1329 C   0  0  0  0  0  0  0  0  0  0  0  0
    8.0595    5.8563   11.3726 C   0  0  0  0  0  0  0  0  0  0  0  0
    9.0831    5.9039   12.3269 C   0  0  0  0  0  0  0  0  0  0  0  0
   10.4331    5.9875   11.9435 C   0  0  0  0  0  0  0  0  0  0  0  0
   10.7460    6.0132   10.5726 C   0  0  0  0  0  0  0  0  0  0  0  0
   11.8986    6.0773    9.7525 C   0  0  0  0  0  0  0  0  0  0  0  0
   11.5891    6.1423    8.4488 N   0  0  0  0  0  0  0  0  0  0  0  0
   10.2041    6.0508    8.3972 O   0  0  0  0  0  0  0  0  0  0  0  0
    9.7056    5.9790    9.6603 C   0  0  0  0  0  0  0  0  0  0  0  0
    8.3606    5.8909   10.0066 C   0  0  0  0  0  0  0  0  0  0  0  0
    6.3007    4.7202   12.5101 C   0  0  0  0  0  0  0  0  0  0  0  0
    6.7209    5.7680   11.6425 O   0  0  0  0  0  0  0  0  0  0  0  0
   16.2319    4.8744   11.9813 C   0  0  0  0  0  0  0  0  0  0  0  0
   15.7952    4.6064   13.4094 C   0  0  0  0  0  0  0  0  0  0  0  0
   14.4439    4.2918   13.6688 C   0  0  0  0  0  0  0  0  0  0  0  0
   13.9816    4.1054   14.9739 C   0  0  0  0  0  0  0  0  0  0  0  0
   14.8737    4.1365   16.0392 C   0  0  0  0  0  0  0  0  0  0  0  0
   16.2185    4.4130   15.8025 C   0  0  0  0  0  0  0  0  0  0  0  0
   16.6780    4.6542   14.5019 C   0  0  0  0  0  0  0  0  0  0  0  0
   18.3644    4.9521   14.3219 Cl  0  0  0  0  0  0  0  0  0  0  0  0
   12.6719    3.8348   15.2653 O   0  0  0  0  0  0  0  0  0  0  0  0
   12.3384    2.4433   15.2402 C   0  0  0  0  0  0  0  0  0  0  0  0
   12.2248    1.9099   13.8083 C   0  0  0  0  0  0  0  0  0  0  0  0
   11.0690    2.1845   16.1023 C   0  0  0  0  0  0  0  0  0  0  0  0
    9.6096    2.3551   15.4672 N   0  0  0  0  0  0  0  0  0  0  0  0
    8.5882    1.8945   16.4938 C   0  0  0  0  0  0  0  0  0  0  0  0
    9.3719    3.8242   15.1488 C   0  0  0  0  0  0  0  0  0  0  0  0
    9.6537    1.4969   14.2055 C   0  0  0  0  0  0  0  0  0  0  0  0
    8.4334    1.2315   13.3451 N   0  0  0  0  0  0  0  0  0  0  0  0
    8.4017   -0.1727   12.7335 C   0  0  0  0  0  0  0  0  0  0  0  0
    7.0892    1.5466   13.9748 C   0  0  0  0  0  0  0  0  0  0  0  0
    8.5655    2.1997   12.1256 C   0  0  0  0  0  0  0  0  0  0  0  0
   17.3686    9.8887   10.0988 O   0  0  0  0  0  0  0  0  0  0  0  0
   18.2121    9.6783    8.9700 C   0  0  0  0  0  0  0  0  0  0  0  0
   17.4377    9.4520    7.8865 F   0  0  0  0  0  0  0  0  0  0  0  0
   19.0158    8.6062    9.1499 F   0  0  0  0  0  0  0  0  0  0  0  0
   18.9714   10.7693    8.7210 F   0  0  0  0  0  0  0  0  0  0  0  0
 20 21  1  0
 21 11  1  0
 11 12  2  0
 12 13  1  0
 13 14  2  0
 14 15  1  0
 15  1  1  0
  1  2  2  0
  2  3  1  0
  2  4  1  0
  4 22  1  0
 22 23  1  0
 23 24  2  0
 24 25  1  0
 25 30  1  0
 30 31  1  0
 31 32  1  0
 31 33  1  0
 33 34  1  0
 34 35  1  0
 34 36  1  0
 34 37  1  0
 37 38  1  0
 38 39  1  0
 38 40  1  0
 38 41  1  0
 25 26  2  0
 26 27  1  0
 27 28  2  0
 28 29  1  0
  4  5  1  0
  5  6  2  0
  6  7  1  0
  7 42  1  0
 42 43  1  0
 43 44  1  0
 43 45  1  0
 43 46  1  0
  7  8  2  0
  8  9  1  0
  9 10  2  0
 15 16  2  0
 16 17  1  0
 17 18  1  0
 18 19  2  0
 19 11  1  0
 18 14  1  0
 10  1  1  0
 28 23  1  0
 10  5  1  0
M  CHG 1  34   1
M  CHG 1  38   1
M  END
> <minimizedAffinity>
-9.88966

> <CNNscore>
0.3203912377

> <CNNaffinity>
7.6175026894

> <CNN_VS>
2.4405810833

> <CNNaffinity_variance>
2.8996696472

$$$$



 46 50  0  0  0  0  0  0  0  0999 V2000
   11.4288    4.3876   12.6276 C   0  0  0  0  0  0  0  0  0  0  0  0
   11.4466    4.9728   11.3724 C   0  0  0  0  0  0  0  0  0  0  0  0
   10.3101    5.1485   10.4312 C   0  0  0  0  0  0  0  0  0  0  0  0
   12.7507    5.3725   11.1268 N   0  0  0  0  0  0  0  0  0  0  0  0
   13.5008    5.2396   12.2898 C   0  0  0  0  0  0  0  0  0  0  0  0
   14.8136    5.6399   12.6027 C   0  0  0  0  0  0  0  0  0  0  0  0
   15.3292    5.3035   13.8578 C   0  0  0  0  0  0  0  0  0  0  0  0
   14.5966    4.5473   14.7607 C   0  0  0  0  0  0  0  0  0  0  0  0
   13.2882    4.1679   14.4528 C   0  0  0  0  0  0  0  0  0  0  0  0
   12.7131    4.5452   13.2168 C   0  0  0  0  0  0  0  0  0  0  0  0
    9.4235    1.7079   16.8083 C   0  0  0  0  0  0  0  0  0  0  0  0
   10.7408    2.1744   16.7190 C   0  0  0  0  0  0  0  0  0  0  0  0
   11.1873    2.8840   15.5905 C   0  0  0  0  0  0  0  0  0  0  0  0
   10.2856    3.1133   14.5359 C   0  0  0  0  0  0  0  0  0  0  0  0
   10.2827    3.7353   13.2638 C   0  0  0  0  0  0  0  0  0  0  0  0
    9.0697    3.7115   12.6914 N   0  0  0  0  0  0  0  0  0  0  0  0
    8.2648    2.9990   13.5710 O   0  0  0  0  0  0  0  0  0  0  0  0
    8.9882    2.6490   14.6678 C   0  0  0  0  0  0  0  0  0  0  0  0
    8.5166    1.9394   15.7683 C   0  0  0  0  0  0  0  0  0  0  0  0
    7.8496    0.0850   17.5615 C   0  0  0  0  0  0  0  0  0  0  0  0
    8.8958    1.0046   17.8568 O   0  0  0  0  0  0  0  0  0  0  0  0
   13.2626    5.9155    9.8638 C   0  0  0  0  0  0  0  0  0  0  0  0
   14.7453    6.2333    9.9155 C   0  0  0  0  0  0  0  0  0  0  0  0
   15.1569    7.5630   10.1496 C   0  0  0  0  0  0  0  0  0  0  0  0
   16.5086    7.9154   10.1370 C   0  0  0  0  0  0  0  0  0  0  0  0
   17.4818    6.9350    9.9839 C   0  0  0  0  0  0  0  0  0  0  0  0
   17.0987    5.6105    9.7840 C   0  0  0  0  0  0  0  0  0  0  0  0
   15.7437    5.2596    9.7416 C   0  0  0  0  0  0  0  0  0  0  0  0
   15.3853    3.5897    9.5230 Cl  0  0  0  0  0  0  0  0  0  0  0  0
   16.9421    9.2002   10.3245 O   0  0  0  0  0  0  0  0  0  0  0  0
   16.1821   10.1868    9.6194 C   0  0  0  0  0  0  0  0  0  0  0  0
   14.6822    9.8747    9.6421 C   0  0  0  0  0  0  0  0  0  0  0  0
   16.7559   10.3760    8.1854 C   0  0  0  0  0  0  0  0  0  0  0  0
   16.7869   11.8269    7.5099 N   0  0  0  0  0  0  0  0  0  0  0  0
   16.9410   12.8609    8.6127 C   0  0  0  0  0  0  0  0  0  0  0  0
   17.9809   11.9152    6.5704 C   0  0  0  0  0  0  0  0  0  0  0  0
   15.4609   11.9122    6.7582 C   0  0  0  0  0  0  0  0  0  0  0  0
   14.8573   13.2246    6.2964 N   0  0  0  0  0  0  0  0  0  0  0  0
   15.8944   14.2552    5.8393 C   0  0  0  0  0  0  0  0  0  0  0  0
   13.7461   13.1249    5.2679 C   0  0  0  0  0  0  0  0  0  0  0  0
   14.1999   13.8507    7.5684 C   0  0  0  0  0  0  0  0  0  0  0  0
   16.6154    5.6379   14.1836 O   0  0  0  0  0  0  0  0  0  0  0  0
   17.5425    4.7417   13.5778 C   0  0  0  0  0  0  0  0  0  0  0  0
   16.8686    3.6626   13.1237 F   0  0  0  0  0  0  0  0  0  0  0  0
   18.4712    4.3207   14.4655 F   0  0  0  0  0  0  0  0  0  0  0  0
   18.1615    5.3219   12.5247 F   0  0  0  0  0  0  0  0  0  0  0  0
 20 21  1  0
 21 11  1  0
 11 12  2  0
 12 13  1  0
 13 14  2  0
 14 15  1  0
 15  1  1  0
  1  2  2  0
  2  3  1  0
  2  4  1  0
  4 22  1  0
 22 23  1  0
 23 24  2  0
 24 25  1  0
 25 30  1  0
 30 31  1  0
 31 32  1  0
 31 33  1  0
 33 34  1  0
 34 35  1  0
 34 36  1  0
 34 37  1  0
 37 38  1  0
 38 39  1  0
 38 40  1  0
 38 41  1  0
 25 26  2  0
 26 27  1  0
 27 28  2  0
 28 29  1  0
  4  5  1  0
  5  6  2  0
  6  7  1  0
  7 42  1  0
 42 43  1  0
 43 44  1  0
 43 45  1  0
 43 46  1  0
  7  8  2  0
  8  9  1  0
  9 10  2  0
 15 16  2  0
 16 17  1  0
 17 18  1  0
 18 19  2  0
 19 11  1  0
 18 14  1  0
 10  1  1  0
 28 23  1  0
 10  5  1  0
M  CHG 1  34   1
M  CHG 1  38   1
M  END
> <minimizedAffinity>
-7.28559

> <CNNscore>
0.2839314342

> <CNNaffinity>
7.2295646667

> <CNN_VS>
2.0527007580

> <CNNaffinity_variance>
1.2569749355

$$$$
