


 15 15  0  0  0  0  0  0  0  0999 V2000
   36.5744   40.4518   -2.6895 C   0  0  0  0  0  0  0  0  0  0  0  0
   36.3368   40.0647   -1.3576 C   0  0  0  0  0  0  0  0  0  0  0  0
   36.3316   38.6184   -0.9546 C   0  0  0  0  0  0  0  0  0  0  0  0
   36.1379   41.0623   -0.3951 C   0  0  0  0  0  0  0  0  0  0  0  0
   36.1500   42.4099   -0.7567 C   0  0  0  0  0  0  0  0  0  0  0  0
   36.3591   42.7798   -2.0871 C   0  0  0  0  0  0  0  0  0  0  0  0
   36.5680   41.8041   -3.0727 C   0  0  0  0  0  0  0  0  0  0  0  0
   36.7639   42.1950   -4.4948 C   0  0  0  0  0  0  0  0  0  0  0  0
   35.9108   42.2846   -5.3584 O   0  0  0  0  0  0  0  0  0  0  0  0
   38.0515   42.4686   -4.7826 O   0  0  0  0  0  0  0  0  0  0  0  0
   38.7057   42.3987   -4.1155 H   0  0  0  0  0  0  0  0  0  0  0  0
   36.7578   39.4361   -3.6375 O   0  0  0  0  0  0  0  0  0  0  0  0
   38.1894   37.8807   -4.6673 C   0  0  0  0  0  0  0  0  0  0  0  0
   38.0984   39.1368   -3.8536 C   0  0  0  0  0  0  0  0  0  0  0  0
   39.0643   39.7642   -3.4384 O   0  0  0  0  0  0  0  0  0  0  0  0
 13 14  1  0
 14 15  2  0
 14 12  1  0
 12  1  1  0
  1  2  2  0
  2  3  1  0
  2  4  1  0
  4  5  2  0
  5  6  1  0
  6  7  2  0
  7  8  1  0
  8  9  2  0
  8 10  1  0
  7  1  1  0
 10 11  1  0
M  END
> <minimizedAffinity>
-6.14092

> <CNNscore>
0.9318281412

> <CNNaffinity>
5.0658650398

> <CNN_VS>
4.7205157280

> <CNNaffinity_variance>
0.0363082476

$$$$



 15 15  0  0  0  0  0  0  0  0999 V2000
   35.7267   40.9093   -3.2976 C   0  0  0  0  0  0  0  0  0  0  0  0
   36.0058   39.8392   -2.4274 C   0  0  0  0  0  0  0  0  0  0  0  0
   36.0532   40.0356   -0.9397 C   0  0  0  0  0  0  0  0  0  0  0  0
   36.2061   38.5656   -2.9740 C   0  0  0  0  0  0  0  0  0  0  0  0
   36.1550   38.3697   -4.3546 C   0  0  0  0  0  0  0  0  0  0  0  0
   35.9049   39.4455   -5.2093 C   0  0  0  0  0  0  0  0  0  0  0  0
   35.6934   40.7316   -4.6915 C   0  0  0  0  0  0  0  0  0  0  0  0
   35.4537   41.8838   -5.6020 C   0  0  0  0  0  0  0  0  0  0  0  0
   34.3808   42.3720   -5.9054 O   0  0  0  0  0  0  0  0  0  0  0  0
   36.5962   42.3921   -6.1036 O   0  0  0  0  0  0  0  0  0  0  0  0
   37.4205   42.0139   -5.8680 H   0  0  0  0  0  0  0  0  0  0  0  0
   35.5426   42.1768   -2.7292 O   0  0  0  0  0  0  0  0  0  0  0  0
   36.6221   43.8232   -1.4433 C   0  0  0  0  0  0  0  0  0  0  0  0
   36.7289   42.8931   -2.6144 C   0  0  0  0  0  0  0  0  0  0  0  0
   37.7050   42.8146   -3.3495 O   0  0  0  0  0  0  0  0  0  0  0  0
 13 14  1  0
 14 15  2  0
 14 12  1  0
 12  1  1  0
  1  2  2  0
  2  3  1  0
  2  4  1  0
  4  5  2  0
  5  6  1  0
  6  7  2  0
  7  8  1  0
  8  9  2  0
  8 10  1  0
  7  1  1  0
 10 11  1  0
M  END
> <minimizedAffinity>
-6.59275

> <CNNscore>
0.8915917873

> <CNNaffinity>
4.6959443092

> <CNN_VS>
4.1868653297

> <CNNaffinity_variance>
0.0679883361

$$$$



 15 15  0  0  0  0  0  0  0  0999 V2000
   35.8734   41.3949   -1.8039 C   0  0  0  0  0  0  0  0  0  0  0  0
   36.2444   41.9129   -0.5491 C   0  0  0  0  0  0  0  0  0  0  0  0
   35.8060   41.2546    0.7270 C   0  0  0  0  0  0  0  0  0  0  0  0
   37.0679   43.0447   -0.5083 C   0  0  0  0  0  0  0  0  0  0  0  0
   37.4890   43.6591   -1.6882 C   0  0  0  0  0  0  0  0  0  0  0  0
   37.0907   43.1517   -2.9269 C   0  0  0  0  0  0  0  0  0  0  0  0
   36.2718   42.0154   -3.0005 C   0  0  0  0  0  0  0  0  0  0  0  0
   35.8244   41.4894   -4.3184 C   0  0  0  0  0  0  0  0  0  0  0  0
   36.3928   40.6698   -5.0159 O   0  0  0  0  0  0  0  0  0  0  0  0
   34.6522   42.0218   -4.7160 O   0  0  0  0  0  0  0  0  0  0  0  0
   34.2172   42.6525   -4.1767 H   0  0  0  0  0  0  0  0  0  0  0  0
   35.0384   40.2696   -1.8202 O   0  0  0  0  0  0  0  0  0  0  0  0
   36.6286   38.7191   -1.0479 C   0  0  0  0  0  0  0  0  0  0  0  0
   35.7118   39.1043   -2.1700 C   0  0  0  0  0  0  0  0  0  0  0  0
   35.6100   38.4886   -3.2234 O   0  0  0  0  0  0  0  0  0  0  0  0
 13 14  1  0
 14 15  2  0
 14 12  1  0
 12  1  1  0
  1  2  2  0
  2  3  1  0
  2  4  1  0
  4  5  2  0
  5  6  1  0
  6  7  2  0
  7  8  1  0
  8  9  2  0
  8 10  1  0
  7  1  1  0
 10 11  1  0
M  END
> <minimizedAffinity>
-5.60150

> <CNNscore>
0.8281157017

> <CNNaffinity>
4.3785014153

> <CNN_VS>
3.6259057522

> <CNNaffinity_variance>
0.1175849512

$$$$



 15 15  0  0  0  0  0  0  0  0999 V2000
   36.8120   39.9826   -2.9633 C   0  0  0  0  0  0  0  0  0  0  0  0
   36.7337   39.2482   -1.7655 C   0  0  0  0  0  0  0  0  0  0  0  0
   37.1595   37.8098   -1.7031 C   0  0  0  0  0  0  0  0  0  0  0  0
   36.2807   39.8968   -0.6101 C   0  0  0  0  0  0  0  0  0  0  0  0
   35.8913   41.2361   -0.6544 C   0  0  0  0  0  0  0  0  0  0  0  0
   35.9472   41.9459   -1.8558 C   0  0  0  0  0  0  0  0  0  0  0  0
   36.4029   41.3258   -3.0283 C   0  0  0  0  0  0  0  0  0  0  0  0
   36.4376   42.0725   -4.3148 C   0  0  0  0  0  0  0  0  0  0  0  0
   35.4864   42.4310   -4.9842 O   0  0  0  0  0  0  0  0  0  0  0  0
   37.6932   42.3499   -4.7173 O   0  0  0  0  0  0  0  0  0  0  0  0
   38.4232   42.0724   -4.1996 H   0  0  0  0  0  0  0  0  0  0  0  0
   37.2558   39.3093   -4.1094 O   0  0  0  0  0  0  0  0  0  0  0  0
   36.8797   37.4092   -5.4426 C   0  0  0  0  0  0  0  0  0  0  0  0
   36.2530   38.5622   -4.7175 C   0  0  0  0  0  0  0  0  0  0  0  0
   35.0518   38.7988   -4.7003 O   0  0  0  0  0  0  0  0  0  0  0  0
 13 14  1  0
 14 15  2  0
 14 12  1  0
 12  1  1  0
  1  2  2  0
  2  3  1  0
  2  4  1  0
  4  5  2  0
  5  6  1  0
  6  7  2  0
  7  8  1  0
  8  9  2  0
  8 10  1  0
  7  1  1  0
 10 11  1  0
M  END
> <minimizedAffinity>
-5.74793

> <CNNscore>
0.6832094789

> <CNNaffinity>
4.2934627533

> <CNN_VS>
2.9333343506

> <CNNaffinity_variance>
0.0395405442

$$$$



 15 15  0  0  0  0  0  0  0  0999 V2000
   33.7578   40.5400   -8.5534 C   0  0  0  0  0  0  0  0  0  0  0  0
   33.0786   39.4775   -9.1780 C   0  0  0  0  0  0  0  0  0  0  0  0
   32.6510   39.5622  -10.6147 C   0  0  0  0  0  0  0  0  0  0  0  0
   32.8357   38.3119   -8.4409 C   0  0  0  0  0  0  0  0  0  0  0  0
   33.2370   38.2186   -7.1077 C   0  0  0  0  0  0  0  0  0  0  0  0
   33.8854   39.2909   -6.4913 C   0  0  0  0  0  0  0  0  0  0  0  0
   34.1489   40.4690   -7.2052 C   0  0  0  0  0  0  0  0  0  0  0  0
   34.8153   41.6224   -6.5424 C   0  0  0  0  0  0  0  0  0  0  0  0
   34.5348   42.1160   -5.4657 O   0  0  0  0  0  0  0  0  0  0  0  0
   35.8335   42.1194   -7.2716 O   0  0  0  0  0  0  0  0  0  0  0  0
   36.0468   41.7371   -8.1000 H   0  0  0  0  0  0  0  0  0  0  0  0
   33.9783   41.7011   -9.3064 O   0  0  0  0  0  0  0  0  0  0  0  0
   32.8762   43.2737  -10.6635 C   0  0  0  0  0  0  0  0  0  0  0  0
   32.8604   42.5261   -9.3640 C   0  0  0  0  0  0  0  0  0  0  0  0
   32.0030   42.6577   -8.4999 O   0  0  0  0  0  0  0  0  0  0  0  0
 13 14  1  0
 14 15  2  0
 14 12  1  0
 12  1  1  0
  1  2  2  0
  2  3  1  0
  2  4  1  0
  4  5  2  0
  5  6  1  0
  6  7  2  0
  7  8  1  0
  8  9  2  0
  8 10  1  0
  7  1  1  0
 10 11  1  0
M  END
> <minimizedAffinity>
-6.01593

> <CNNscore>
0.6647578478

> <CNNaffinity>
4.2778916359

> <CNN_VS>
2.8437619209

> <CNNaffinity_variance>
0.0095926588

$$$$



 15 15  0  0  0  0  0  0  0  0999 V2000
   34.6203   39.8999   -7.8685 C   0  0  0  0  0  0  0  0  0  0  0  0
   34.1547   39.2500   -9.0266 C   0  0  0  0  0  0  0  0  0  0  0  0
   34.4597   37.8028   -9.2849 C   0  0  0  0  0  0  0  0  0  0  0  0
   33.3634   39.9724   -9.9282 C   0  0  0  0  0  0  0  0  0  0  0  0
   33.0659   41.3153   -9.6935 C   0  0  0  0  0  0  0  0  0  0  0  0
   33.5575   41.9564   -8.5543 C   0  0  0  0  0  0  0  0  0  0  0  0
   34.3470   41.2577   -7.6293 C   0  0  0  0  0  0  0  0  0  0  0  0
   34.8941   41.9461   -6.4290 C   0  0  0  0  0  0  0  0  0  0  0  0
   36.0532   42.2534   -6.2205 O   0  0  0  0  0  0  0  0  0  0  0  0
   33.9424   42.2322   -5.5191 O   0  0  0  0  0  0  0  0  0  0  0  0
   33.0510   41.9942   -5.6828 H   0  0  0  0  0  0  0  0  0  0  0  0
   35.4210   39.1610   -6.9873 O   0  0  0  0  0  0  0  0  0  0  0  0
   33.4533   38.2245   -6.1039 C   0  0  0  0  0  0  0  0  0  0  0  0
   34.7740   38.8625   -5.7931 C   0  0  0  0  0  0  0  0  0  0  0  0
   35.1820   39.0944   -4.6622 O   0  0  0  0  0  0  0  0  0  0  0  0
 13 14  1  0
 14 15  2  0
 14 12  1  0
 12  1  1  0
  1  2  2  0
  2  3  1  0
  2  4  1  0
  4  5  2  0
  5  6  1  0
  6  7  2  0
  7  8  1  0
  8  9  2  0
  8 10  1  0
  7  1  1  0
 10 11  1  0
M  END
> <minimizedAffinity>
-5.17042

> <CNNscore>
0.4435003996

> <CNNaffinity>
4.0333800316

> <CNN_VS>
1.7888056040

> <CNNaffinity_variance>
0.0714566633

$$$$



 15 15  0  0  0  0  0  0  0  0999 V2000
   34.9863   40.2557   -7.1392 C   0  0  0  0  0  0  0  0  0  0  0  0
   34.5699   38.9892   -7.5897 C   0  0  0  0  0  0  0  0  0  0  0  0
   34.1722   38.7618   -9.0195 C   0  0  0  0  0  0  0  0  0  0  0  0
   34.5658   37.9229   -6.6819 C   0  0  0  0  0  0  0  0  0  0  0  0
   34.9425   38.1208   -5.3529 C   0  0  0  0  0  0  0  0  0  0  0  0
   35.3269   39.3888   -4.9117 C   0  0  0  0  0  0  0  0  0  0  0  0
   35.3478   40.4750   -5.7987 C   0  0  0  0  0  0  0  0  0  0  0  0
   35.7310   41.8321   -5.3242 C   0  0  0  0  0  0  0  0  0  0  0  0
   35.3022   42.4195   -4.3481 O   0  0  0  0  0  0  0  0  0  0  0  0
   36.6615   42.4100   -6.1087 O   0  0  0  0  0  0  0  0  0  0  0  0
   36.9895   41.9551   -6.8594 H   0  0  0  0  0  0  0  0  0  0  0  0
   34.9699   41.3102   -8.0618 O   0  0  0  0  0  0  0  0  0  0  0  0
   33.4682   42.2647   -9.5992 C   0  0  0  0  0  0  0  0  0  0  0  0
   33.7233   41.9181   -8.1629 C   0  0  0  0  0  0  0  0  0  0  0  0
   32.9526   42.1641   -7.2439 O   0  0  0  0  0  0  0  0  0  0  0  0
 13 14  1  0
 14 15  2  0
 14 12  1  0
 12  1  1  0
  1  2  2  0
  2  3  1  0
  2  4  1  0
  4  5  2  0
  5  6  1  0
  6  7  2  0
  7  8  1  0
  8  9  2  0
  8 10  1  0
  7  1  1  0
 10 11  1  0
M  END
> <minimizedAffinity>
-5.63708

> <CNNscore>
0.4016062021

> <CNNaffinity>
4.1145634651

> <CNN_VS>
1.6524342299

> <CNNaffinity_variance>
0.0736287311

$$$$



 15 15  0  0  0  0  0  0  0  0999 V2000
   35.7887   41.4554   -2.4164 C   0  0  0  0  0  0  0  0  0  0  0  0
   36.0402   42.3618   -1.3697 C   0  0  0  0  0  0  0  0  0  0  0  0
   35.8885   43.8425   -1.5666 C   0  0  0  0  0  0  0  0  0  0  0  0
   36.4042   41.8540   -0.1164 C   0  0  0  0  0  0  0  0  0  0  0  0
   36.5390   40.4792    0.0805 C   0  0  0  0  0  0  0  0  0  0  0  0
   36.3138   39.5918   -0.9741 C   0  0  0  0  0  0  0  0  0  0  0  0
   35.9414   40.0695   -2.2391 C   0  0  0  0  0  0  0  0  0  0  0  0
   35.7275   39.1275   -3.3708 C   0  0  0  0  0  0  0  0  0  0  0  0
   36.5653   38.4413   -3.9264 O   0  0  0  0  0  0  0  0  0  0  0  0
   34.4405   39.0793   -3.7666 O   0  0  0  0  0  0  0  0  0  0  0  0
   33.7980   39.6089   -3.3367 H   0  0  0  0  0  0  0  0  0  0  0  0
   35.4386   41.9869   -3.6649 O   0  0  0  0  0  0  0  0  0  0  0  0
   36.0240   41.7340   -5.9282 C   0  0  0  0  0  0  0  0  0  0  0  0
   36.5131   42.0459   -4.5457 C   0  0  0  0  0  0  0  0  0  0  0  0
   37.6796   42.2858   -4.2616 O   0  0  0  0  0  0  0  0  0  0  0  0
 13 14  1  0
 14 15  2  0
 14 12  1  0
 12  1  1  0
  1  2  2  0
  2  3  1  0
  2  4  1  0
  4  5  2  0
  5  6  1  0
  6  7  2  0
  7  8  1  0
  8  9  2  0
  8 10  1  0
  7  1  1  0
 10 11  1  0
M  END
> <minimizedAffinity>
-5.42694

> <CNNscore>
0.3991714120

> <CNNaffinity>
4.3401322365

> <CNN_VS>
1.7324566841

> <CNNaffinity_variance>
0.0290951282

$$$$



 15 15  0  0  0  0  0  0  0  0999 V2000
   37.5363   38.4997   -3.4049 C   0  0  0  0  0  0  0  0  0  0  0  0
   37.4851   37.4201   -2.5036 C   0  0  0  0  0  0  0  0  0  0  0  0
   38.0217   36.0679   -2.8749 C   0  0  0  0  0  0  0  0  0  0  0  0
   36.9520   37.6375   -1.2271 C   0  0  0  0  0  0  0  0  0  0  0  0
   36.4590   38.8925   -0.8681 C   0  0  0  0  0  0  0  0  0  0  0  0
   36.4901   39.9485   -1.7815 C   0  0  0  0  0  0  0  0  0  0  0  0
   37.0241   39.7637   -3.0652 C   0  0  0  0  0  0  0  0  0  0  0  0
   37.0333   40.8801   -4.0487 C   0  0  0  0  0  0  0  0  0  0  0  0
   36.1571   41.1698   -4.8424 O   0  0  0  0  0  0  0  0  0  0  0  0
   38.1657   41.6082   -3.9931 O   0  0  0  0  0  0  0  0  0  0  0  0
   38.8382   41.3825   -3.3810 H   0  0  0  0  0  0  0  0  0  0  0  0
   38.0621   38.2555   -4.6807 O   0  0  0  0  0  0  0  0  0  0  0  0
   40.0660   38.7855   -3.5704 C   0  0  0  0  0  0  0  0  0  0  0  0
   39.4242   37.9768   -4.6577 C   0  0  0  0  0  0  0  0  0  0  0  0
   40.0289   37.2197   -5.4062 O   0  0  0  0  0  0  0  0  0  0  0  0
 13 14  1  0
 14 15  2  0
 14 12  1  0
 12  1  1  0
  1  2  2  0
  2  3  1  0
  2  4  1  0
  4  5  2  0
  5  6  1  0
  6  7  2  0
  7  8  1  0
  8  9  2  0
  8 10  1  0
  7  1  1  0
 10 11  1  0
M  END
> <minimizedAffinity>
-4.48118

> <CNNscore>
0.3496384025

> <CNNaffinity>
3.7577159405

> <CNN_VS>
1.3138418198

> <CNNaffinity_variance>
0.1404977888

$$$$
