


 20 21  0  0  0  0  0  0  0  0999 V2000
    1.5864  -30.5398   35.7705 C   0  0  0  0  0  0  0  0  0  0  0  0
    2.1178  -31.3461   34.5686 C   0  0  0  0  0  0  0  0  0  0  0  0
    3.5488  -31.4938   34.6572 O   0  0  0  0  0  0  0  0  0  0  0  0
    1.7964  -30.6431   33.2370 C   0  0  0  0  0  0  0  0  0  0  0  0
    0.2938  -30.3340   33.1254 C   0  0  0  0  0  0  0  0  0  0  0  0
   -0.2851  -29.6322   34.2645 N   0  0  0  0  0  0  0  0  0  0  0  0
    0.0439  -28.2099   34.3364 C   0  0  0  0  0  0  0  0  0  0  0  0
   -0.4363  -27.8124   35.7265 C   0  0  0  0  0  0  0  0  0  0  0  0
   -0.4125  -29.1027   36.5490 C   0  0  0  0  0  0  0  0  0  0  0  0
    0.3908  -28.9175   37.7062 O   0  0  0  0  0  0  0  0  0  0  0  0
    0.0874  -30.1927   35.5711 C   0  0  0  0  0  0  0  0  0  0  0  0
    3.9664  -30.6186   34.6324 H   0  0  0  0  0  0  0  0  0  0  0  0
    1.2834  -28.6465   37.4402 H   0  0  0  0  0  0  0  0  0  0  0  0
    2.2607  -31.4714   32.1124 N   0  0  0  0  0  0  0  0  0  0  0  0
    1.4568  -32.4646   31.5945 C   0  0  0  0  0  0  0  0  0  0  0  0
    2.1312  -33.3293   30.5640 C   0  0  0  0  0  0  0  0  0  0  0  0
    0.2955  -32.6441   31.9422 O   0  0  0  0  0  0  0  0  0  0  0  0
    3.1529  -31.3150   31.7268 H   0  0  0  0  0  0  0  0  0  0  0  0
    1.6551  -32.6994   36.8320 C   0  0  0  0  0  0  0  0  0  0  0  0
    1.6533  -31.2872   37.0090 O   0  0  0  0  0  0  0  0  0  0  0  0
 19 20  1  0
  1 20  1  0
  1  2  1  0
  2  3  1  0
  2  4  1  0
  4 14  1  0
 14 15  1  0
 15 16  1  0
 15 17  2  0
  4  5  1  0
  5  6  1  0
  6  7  1  0
  7  8  1  0
  8  9  1  0
  9 10  1  0
  9 11  1  0
 11  1  1  0
 11  6  1  0
  3 12  1  0
 14 18  1  0
 10 13  1  0
M  END
> <minimizedAffinity>
-7.08332

> <CNNscore>
0.9547405839

> <CNNaffinity>
6.1921982765

> <CNN_VS>
5.9119429588

> <CNNaffinity_variance>
0.1273412555

$$$$



 20 21  0  0  0  0  0  0  0  0999 V2000
    4.0301  -21.8662   27.3127 C   0  0  0  0  0  0  0  0  0  0  0  0
    4.9943  -21.9146   28.5148 C   0  0  0  0  0  0  0  0  0  0  0  0
    5.5614  -20.6115   28.7554 O   0  0  0  0  0  0  0  0  0  0  0  0
    6.1537  -22.8959   28.2631 C   0  0  0  0  0  0  0  0  0  0  0  0
    5.6244  -24.2860   27.8718 C   0  0  0  0  0  0  0  0  0  0  0  0
    4.6536  -24.3006   26.7842 N   0  0  0  0  0  0  0  0  0  0  0  0
    5.2246  -24.0984   25.4540 C   0  0  0  0  0  0  0  0  0  0  0  0
    3.9968  -23.8803   24.5788 C   0  0  0  0  0  0  0  0  0  0  0  0
    2.9131  -23.3547   25.5228 C   0  0  0  0  0  0  0  0  0  0  0  0
    2.4211  -22.1117   25.0413 O   0  0  0  0  0  0  0  0  0  0  0  0
    3.5863  -23.2987   26.9149 C   0  0  0  0  0  0  0  0  0  0  0  0
    6.0722  -20.3329   27.9793 H   0  0  0  0  0  0  0  0  0  0  0  0
    3.1560  -21.4844   24.9559 H   0  0  0  0  0  0  0  0  0  0  0  0
    7.0156  -22.9637   29.4543 N   0  0  0  0  0  0  0  0  0  0  0  0
    6.5406  -23.4965   30.6338 C   0  0  0  0  0  0  0  0  0  0  0  0
    7.4787  -23.3453   31.8008 C   0  0  0  0  0  0  0  0  0  0  0  0
    5.4471  -24.0396   30.7381 O   0  0  0  0  0  0  0  0  0  0  0  0
    7.9391  -22.6256   29.4084 H   0  0  0  0  0  0  0  0  0  0  0  0
    2.0951  -21.6652   28.7306 C   0  0  0  0  0  0  0  0  0  0  0  0
    2.8092  -21.1480   27.6134 O   0  0  0  0  0  0  0  0  0  0  0  0
 19 20  1  0
  1 20  1  0
  1  2  1  0
  2  3  1  0
  2  4  1  0
  4 14  1  0
 14 15  1  0
 15 16  1  0
 15 17  2  0
  4  5  1  0
  5  6  1  0
  6  7  1  0
  7  8  1  0
  8  9  1  0
  9 10  1  0
  9 11  1  0
 11  1  1  0
 11  6  1  0
  3 12  1  0
 14 18  1  0
 10 13  1  0
M  END
> <minimizedAffinity>
-4.34677

> <CNNscore>
0.7717252374

> <CNNaffinity>
3.0785522461

> <CNN_VS>
2.3757965565

> <CNNaffinity_variance>
0.8357352614

$$$$



 20 21  0  0  0  0  0  0  0  0999 V2000
    1.9360  -24.2517   39.7738 C   0  0  0  0  0  0  0  0  0  0  0  0
    2.9401  -24.8264   40.7931 C   0  0  0  0  0  0  0  0  0  0  0  0
    4.1396  -24.0278   40.8200 O   0  0  0  0  0  0  0  0  0  0  0  0
    3.3399  -26.2688   40.4324 C   0  0  0  0  0  0  0  0  0  0  0  0
    2.0973  -27.1584   40.2586 C   0  0  0  0  0  0  0  0  0  0  0  0
    1.0767  -26.6356   39.3584 N   0  0  0  0  0  0  0  0  0  0  0  0
    1.4031  -26.7435   37.9377 C   0  0  0  0  0  0  0  0  0  0  0  0
    0.3317  -25.8910   37.2698 C   0  0  0  0  0  0  0  0  0  0  0  0
   -0.1124  -24.8873   38.3362 C   0  0  0  0  0  0  0  0  0  0  0  0
    0.0391  -23.5644   37.8405 O   0  0  0  0  0  0  0  0  0  0  0  0
    0.7409  -25.2225   39.5827 C   0  0  0  0  0  0  0  0  0  0  0  0
    4.5618  -24.0489   39.9470 H   0  0  0  0  0  0  0  0  0  0  0  0
    0.9617  -23.4215   37.5771 H   0  0  0  0  0  0  0  0  0  0  0  0
    4.2467  -26.8053   41.4602 N   0  0  0  0  0  0  0  0  0  0  0  0
    5.6094  -26.8250   41.2516 C   0  0  0  0  0  0  0  0  0  0  0  0
    6.3860  -27.5512   42.3165 C   0  0  0  0  0  0  0  0  0  0  0  0
    6.1523  -26.3084   40.2819 O   0  0  0  0  0  0  0  0  0  0  0  0
    3.8771  -27.1530   42.3038 H   0  0  0  0  0  0  0  0  0  0  0  0
    0.8353  -23.0409   41.5395 C   0  0  0  0  0  0  0  0  0  0  0  0
    1.3566  -23.0004   40.2157 O   0  0  0  0  0  0  0  0  0  0  0  0
 19 20  1  0
  1 20  1  0
  1  2  1  0
  2  3  1  0
  2  4  1  0
  4 14  1  0
 14 15  1  0
 15 16  1  0
 15 17  2  0
  4  5  1  0
  5  6  1  0
  6  7  1  0
  7  8  1  0
  8  9  1  0
  9 10  1  0
  9 11  1  0
 11  1  1  0
 11  6  1  0
  3 12  1  0
 14 18  1  0
 10 13  1  0
M  END
> <minimizedAffinity>
-4.21450

> <CNNscore>
0.5336533785

> <CNNaffinity>
3.5162093639

> <CNN_VS>
1.8764369488

> <CNNaffinity_variance>
0.2448191047

$$$$



 20 21  0  0  0  0  0  0  0  0999 V2000
    5.0752  -23.8147   40.9428 C   0  0  0  0  0  0  0  0  0  0  0  0
    3.6922  -23.2674   40.5366 C   0  0  0  0  0  0  0  0  0  0  0  0
    3.3454  -22.1285   41.3491 O   0  0  0  0  0  0  0  0  0  0  0  0
    2.5938  -24.3308   40.7191 C   0  0  0  0  0  0  0  0  0  0  0  0
    2.9567  -25.6305   39.9810 C   0  0  0  0  0  0  0  0  0  0  0  0
    4.2827  -26.1629   40.2704 N   0  0  0  0  0  0  0  0  0  0  0  0
    4.4065  -26.8186   41.5709 C   0  0  0  0  0  0  0  0  0  0  0  0
    5.9101  -27.0134   41.7195 C   0  0  0  0  0  0  0  0  0  0  0  0
    6.5484  -25.9329   40.8438 C   0  0  0  0  0  0  0  0  0  0  0  0
    7.4354  -25.1455   41.6261 O   0  0  0  0  0  0  0  0  0  0  0  0
    5.3576  -25.1617   40.2263 C   0  0  0  0  0  0  0  0  0  0  0  0
    3.2934  -22.3988   42.2793 H   0  0  0  0  0  0  0  0  0  0  0  0
    6.9520  -24.7604   42.3737 H   0  0  0  0  0  0  0  0  0  0  0  0
    1.3016  -23.7947   40.2617 N   0  0  0  0  0  0  0  0  0  0  0  0
    0.1328  -24.1351   40.9089 C   0  0  0  0  0  0  0  0  0  0  0  0
   -1.1155  -23.6437   40.2271 C   0  0  0  0  0  0  0  0  0  0  0  0
    0.0996  -24.7892   41.9447 O   0  0  0  0  0  0  0  0  0  0  0  0
    1.2716  -23.1879   39.4870 H   0  0  0  0  0  0  0  0  0  0  0  0
    6.1650  -22.6083   39.1674 C   0  0  0  0  0  0  0  0  0  0  0  0
    6.1542  -22.9310   40.5536 O   0  0  0  0  0  0  0  0  0  0  0  0
 19 20  1  0
  1 20  1  0
  1  2  1  0
  2  3  1  0
  2  4  1  0
  4 14  1  0
 14 15  1  0
 15 16  1  0
 15 17  2  0
  4  5  1  0
  5  6  1  0
  6  7  1  0
  7  8  1  0
  8  9  1  0
  9 10  1  0
  9 11  1  0
 11  1  1  0
 11  6  1  0
  3 12  1  0
 14 18  1  0
 10 13  1  0
M  END
> <minimizedAffinity>
-4.01852

> <CNNscore>
0.5294608474

> <CNNaffinity>
2.8951046467

> <CNN_VS>
1.5328445435

> <CNNaffinity_variance>
0.6958845258

$$$$



 20 21  0  0  0  0  0  0  0  0999 V2000
    6.2518  -24.5403   34.3500 C   0  0  0  0  0  0  0  0  0  0  0  0
    4.9920  -24.8013   35.1996 C   0  0  0  0  0  0  0  0  0  0  0  0
    5.1082  -26.0581   35.8956 O   0  0  0  0  0  0  0  0  0  0  0  0
    3.7280  -24.8614   34.3226 C   0  0  0  0  0  0  0  0  0  0  0  0
    3.6029  -23.6017   33.4488 C   0  0  0  0  0  0  0  0  0  0  0  0
    4.7885  -23.2612   32.6718 N   0  0  0  0  0  0  0  0  0  0  0  0
    5.0113  -24.1031   31.4979 C   0  0  0  0  0  0  0  0  0  0  0  0
    6.4191  -23.7208   31.0588 C   0  0  0  0  0  0  0  0  0  0  0  0
    7.1094  -23.1955   32.3195 C   0  0  0  0  0  0  0  0  0  0  0  0
    8.3028  -23.9306   32.5528 O   0  0  0  0  0  0  0  0  0  0  0  0
    6.0433  -23.3043   33.4356 C   0  0  0  0  0  0  0  0  0  0  0  0
    5.1830  -26.7790   35.2509 H   0  0  0  0  0  0  0  0  0  0  0  0
    8.0918  -24.8744   32.6275 H   0  0  0  0  0  0  0  0  0  0  0  0
    2.5409  -25.0470   35.1728 N   0  0  0  0  0  0  0  0  0  0  0  0
    1.5434  -25.9235   34.8022 C   0  0  0  0  0  0  0  0  0  0  0  0
    0.3252  -25.8804   35.6847 C   0  0  0  0  0  0  0  0  0  0  0  0
    1.6254  -26.6708   33.8344 O   0  0  0  0  0  0  0  0  0  0  0  0
    2.4586  -24.5409   36.0132 H   0  0  0  0  0  0  0  0  0  0  0  0
    8.1032  -25.3846   35.6364 C   0  0  0  0  0  0  0  0  0  0  0  0
    7.4112  -24.2349   35.1620 O   0  0  0  0  0  0  0  0  0  0  0  0
 19 20  1  0
  1 20  1  0
  1  2  1  0
  2  3  1  0
  2  4  1  0
  4 14  1  0
 14 15  1  0
 15 16  1  0
 15 17  2  0
  4  5  1  0
  5  6  1  0
  6  7  1  0
  7  8  1  0
  8  9  1  0
  9 10  1  0
  9 11  1  0
 11  1  1  0
 11  6  1  0
  3 12  1  0
 14 18  1  0
 10 13  1  0
M  END
> <minimizedAffinity>
-4.09175

> <CNNscore>
0.5089725256

> <CNNaffinity>
2.9459984303

> <CNN_VS>
1.4994322062

> <CNNaffinity_variance>
0.9596604705

$$$$



 20 21  0  0  0  0  0  0  0  0999 V2000
    2.0099  -24.3889   38.0160 C   0  0  0  0  0  0  0  0  0  0  0  0
    3.3494  -24.6923   38.7166 C   0  0  0  0  0  0  0  0  0  0  0  0
    4.4436  -24.1127   37.9790 O   0  0  0  0  0  0  0  0  0  0  0  0
    3.5973  -26.2085   38.8175 C   0  0  0  0  0  0  0  0  0  0  0  0
    2.4063  -26.9189   39.4829 C   0  0  0  0  0  0  0  0  0  0  0  0
    1.1005  -26.6183   38.9086 N   0  0  0  0  0  0  0  0  0  0  0  0
    0.8304  -27.2741   37.6306 C   0  0  0  0  0  0  0  0  0  0  0  0
   -0.4348  -26.5787   37.1442 C   0  0  0  0  0  0  0  0  0  0  0  0
   -0.4314  -25.2073   37.8233 C   0  0  0  0  0  0  0  0  0  0  0  0
   -0.5164  -24.1860   36.8392 O   0  0  0  0  0  0  0  0  0  0  0  0
    0.8570  -25.1871   38.6800 C   0  0  0  0  0  0  0  0  0  0  0  0
    4.4797  -24.5049   37.0925 H   0  0  0  0  0  0  0  0  0  0  0  0
    0.2196  -24.2773   36.2141 H   0  0  0  0  0  0  0  0  0  0  0  0
    4.8505  -26.4601   39.5474 N   0  0  0  0  0  0  0  0  0  0  0  0
    4.9046  -26.3173   40.9176 C   0  0  0  0  0  0  0  0  0  0  0  0
    6.2873  -26.4467   41.4972 C   0  0  0  0  0  0  0  0  0  0  0  0
    3.9206  -26.0942   41.6132 O   0  0  0  0  0  0  0  0  0  0  0  0
    5.6570  -26.7328   39.0529 H   0  0  0  0  0  0  0  0  0  0  0  0
    1.5956  -22.5098   39.4624 C   0  0  0  0  0  0  0  0  0  0  0  0
    1.6338  -22.9948   38.1249 O   0  0  0  0  0  0  0  0  0  0  0  0
 19 20  1  0
  1 20  1  0
  1  2  1  0
  2  3  1  0
  2  4  1  0
  4 14  1  0
 14 15  1  0
 15 16  1  0
 15 17  2  0
  4  5  1  0
  5  6  1  0
  6  7  1  0
  7  8  1  0
  8  9  1  0
  9 10  1  0
  9 11  1  0
 11  1  1  0
 11  6  1  0
  3 12  1  0
 14 18  1  0
 10 13  1  0
M  END
> <minimizedAffinity>
-4.21270

> <CNNscore>
0.4991005063

> <CNNaffinity>
3.4968774319

> <CNN_VS>
1.7452932596

> <CNNaffinity_variance>
0.2663512230

$$$$



 20 21  0  0  0  0  0  0  0  0999 V2000
    3.5510  -22.6303   27.6447 C   0  0  0  0  0  0  0  0  0  0  0  0
    3.8072  -22.9514   26.1586 C   0  0  0  0  0  0  0  0  0  0  0  0
    2.5780  -23.3312   25.5087 O   0  0  0  0  0  0  0  0  0  0  0  0
    4.8044  -24.1137   26.0010 C   0  0  0  0  0  0  0  0  0  0  0  0
    6.1018  -23.8366   26.7794 C   0  0  0  0  0  0  0  0  0  0  0  0
    5.9227  -23.4591   28.1761 N   0  0  0  0  0  0  0  0  0  0  0  0
    5.5758  -24.5646   29.0672 C   0  0  0  0  0  0  0  0  0  0  0  0
    5.1815  -23.8588   30.3584 C   0  0  0  0  0  0  0  0  0  0  0  0
    4.7307  -22.4590   29.9351 C   0  0  0  0  0  0  0  0  0  0  0  0
    3.4115  -22.2188   30.4051 O   0  0  0  0  0  0  0  0  0  0  0  0
    4.8938  -22.4331   28.3967 C   0  0  0  0  0  0  0  0  0  0  0  0
    2.2256  -24.1325   25.9265 H   0  0  0  0  0  0  0  0  0  0  0  0
    2.8167  -22.9046   30.0634 H   0  0  0  0  0  0  0  0  0  0  0  0
    5.0731  -24.3484   24.5730 N   0  0  0  0  0  0  0  0  0  0  0  0
    5.7785  -23.4248   23.8312 C   0  0  0  0  0  0  0  0  0  0  0  0
    5.8283  -23.7255   22.3576 C   0  0  0  0  0  0  0  0  0  0  0  0
    6.3144  -22.4354   24.3167 O   0  0  0  0  0  0  0  0  0  0  0  0
    4.7463  -25.1720   24.1438 H   0  0  0  0  0  0  0  0  0  0  0  0
    1.4051  -21.5632   27.8707 C   0  0  0  0  0  0  0  0  0  0  0  0
    2.8176  -21.3948   27.8237 O   0  0  0  0  0  0  0  0  0  0  0  0
 19 20  1  0
  1 20  1  0
  1  2  1  0
  2  3  1  0
  2  4  1  0
  4 14  1  0
 14 15  1  0
 15 16  1  0
 15 17  2  0
  4  5  1  0
  5  6  1  0
  6  7  1  0
  7  8  1  0
  8  9  1  0
  9 10  1  0
  9 11  1  0
 11  1  1  0
 11  6  1  0
  3 12  1  0
 14 18  1  0
 10 13  1  0
M  END
> <minimizedAffinity>
-4.51363

> <CNNscore>
0.4113306403

> <CNNaffinity>
2.8811950684

> <CNN_VS>
1.1851238012

> <CNNaffinity_variance>
0.9036474228

$$$$



 20 21  0  0  0  0  0  0  0  0999 V2000
    1.3454  -24.4982   39.0595 C   0  0  0  0  0  0  0  0  0  0  0  0
    1.0798  -23.0855   39.6168 C   0  0  0  0  0  0  0  0  0  0  0  0
    1.7282  -22.0930   38.7971 O   0  0  0  0  0  0  0  0  0  0  0  0
    1.6186  -22.9394   41.0516 C   0  0  0  0  0  0  0  0  0  0  0  0
    1.0678  -24.0492   41.9631 C   0  0  0  0  0  0  0  0  0  0  0  0
    1.2266  -25.4075   41.4581 N   0  0  0  0  0  0  0  0  0  0  0  0
    2.5835  -25.9414   41.5593 C   0  0  0  0  0  0  0  0  0  0  0  0
    2.5185  -27.2148   40.7256 C   0  0  0  0  0  0  0  0  0  0  0  0
    1.3775  -26.9913   39.7306 C   0  0  0  0  0  0  0  0  0  0  0  0
    1.8579  -27.1660   38.4049 O   0  0  0  0  0  0  0  0  0  0  0  0
    0.8367  -25.5775   40.0513 C   0  0  0  0  0  0  0  0  0  0  0  0
    2.6871  -22.2391   38.8101 H   0  0  0  0  0  0  0  0  0  0  0  0
    2.5958  -26.5570   38.2455 H   0  0  0  0  0  0  0  0  0  0  0  0
    1.2905  -21.6025   41.5726 N   0  0  0  0  0  0  0  0  0  0  0  0
   -0.0226  -21.2245   41.7563 C   0  0  0  0  0  0  0  0  0  0  0  0
   -0.2012  -19.7791   42.1350 C   0  0  0  0  0  0  0  0  0  0  0  0
   -0.9714  -21.9874   41.6164 O   0  0  0  0  0  0  0  0  0  0  0  0
    2.0149  -20.9728   41.7917 H   0  0  0  0  0  0  0  0  0  0  0  0
   -0.7555  -24.4713   37.8846 C   0  0  0  0  0  0  0  0  0  0  0  0
    0.6399  -24.7435   37.8190 O   0  0  0  0  0  0  0  0  0  0  0  0
 19 20  1  0
  1 20  1  0
  1  2  1  0
  2  3  1  0
  2  4  1  0
  4 14  1  0
 14 15  1  0
 15 16  1  0
 15 17  2  0
  4  5  1  0
  5  6  1  0
  6  7  1  0
  7  8  1  0
  8  9  1  0
  9 10  1  0
  9 11  1  0
 11  1  1  0
 11  6  1  0
  3 12  1  0
 14 18  1  0
 10 13  1  0
M  END
> <minimizedAffinity>
-4.01349

> <CNNscore>
0.3937286139

> <CNNaffinity>
3.0410206318

> <CNN_VS>
1.1973367929

> <CNNaffinity_variance>
0.5739442706

$$$$



 20 21  0  0  0  0  0  0  0  0999 V2000
    1.6147  -24.3626   36.6648 C   0  0  0  0  0  0  0  0  0  0  0  0
    2.1362  -24.6595   38.0850 C   0  0  0  0  0  0  0  0  0  0  0  0
    1.8383  -23.5604   38.9684 O   0  0  0  0  0  0  0  0  0  0  0  0
    3.6614  -24.8694   38.0886 C   0  0  0  0  0  0  0  0  0  0  0  0
    4.0723  -25.9457   37.0695 C   0  0  0  0  0  0  0  0  0  0  0  0
    3.5523  -25.7585   35.7205 N   0  0  0  0  0  0  0  0  0  0  0  0
    4.2214  -24.7135   34.9482 C   0  0  0  0  0  0  0  0  0  0  0  0
    3.3180  -24.5479   33.7328 C   0  0  0  0  0  0  0  0  0  0  0  0
    1.9345  -25.0178   34.1877 C   0  0  0  0  0  0  0  0  0  0  0  0
    0.9829  -23.9856   33.9690 O   0  0  0  0  0  0  0  0  0  0  0  0
    2.1192  -25.4372   35.6657 C   0  0  0  0  0  0  0  0  0  0  0  0
    2.2862  -22.7604   38.6517 H   0  0  0  0  0  0  0  0  0  0  0  0
    1.2610  -23.1843   34.4397 H   0  0  0  0  0  0  0  0  0  0  0  0
    4.1130  -25.2134   39.4467 N   0  0  0  0  0  0  0  0  0  0  0  0
    3.5383  -26.2629   40.1317 C   0  0  0  0  0  0  0  0  0  0  0  0
    3.9881  -26.3855   41.5625 C   0  0  0  0  0  0  0  0  0  0  0  0
    2.7232  -27.0301   39.6329 O   0  0  0  0  0  0  0  0  0  0  0  0
    4.8315  -24.6897   39.8694 H   0  0  0  0  0  0  0  0  0  0  0  0
   -0.4565  -23.1410   36.7780 C   0  0  0  0  0  0  0  0  0  0  0  0
    0.1694  -24.4050   36.5877 O   0  0  0  0  0  0  0  0  0  0  0  0
 19 20  1  0
  1 20  1  0
  1  2  1  0
  2  3  1  0
  2  4  1  0
  4 14  1  0
 14 15  1  0
 15 16  1  0
 15 17  2  0
  4  5  1  0
  5  6  1  0
  6  7  1  0
  7  8  1  0
  8  9  1  0
  9 10  1  0
  9 11  1  0
 11  1  1  0
 11  6  1  0
  3 12  1  0
 14 18  1  0
 10 13  1  0
M  END
> <minimizedAffinity>
-4.01329

> <CNNscore>
0.3905936480

> <CNNaffinity>
3.2278225422

> <CNN_VS>
1.2607669830

> <CNNaffinity_variance>
0.3817559183

$$$$
