


 42 46  0  0  0  0  0  0  0  0999 V2000
    6.6012   30.6182   56.8788 N   0  0  0  0  0  0  0  0  0  0  0  0
    6.6601   29.2483   57.0419 C   0  0  0  0  0  0  0  0  0  0  0  0
    7.2342   28.6345   57.9265 O   0  0  0  0  0  0  0  0  0  0  0  0
    6.1961   30.9242   56.0353 H   0  0  0  0  0  0  0  0  0  0  0  0
    8.1386   33.5293   59.5790 C   0  0  0  0  0  0  0  0  0  0  0  0
    8.3096   32.1509   59.7688 C   0  0  0  0  0  0  0  0  0  0  0  0
    7.7656   31.2262   58.8668 C   0  0  0  0  0  0  0  0  0  0  0  0
    7.0377   31.6453   57.7463 C   0  0  0  0  0  0  0  0  0  0  0  0
    6.8601   33.0203   57.5710 C   0  0  0  0  0  0  0  0  0  0  0  0
    6.2155   33.5260   56.5139 F   0  0  0  0  0  0  0  0  0  0  0  0
    7.4012   33.9488   58.4716 C   0  0  0  0  0  0  0  0  0  0  0  0
    8.4690   34.7884   61.7988 C   0  0  0  0  0  0  0  0  0  0  0  0
    9.2695   35.7500   62.2359 N   0  0  0  0  0  0  0  0  0  0  0  0
   10.1138   36.0424   61.2121 C   0  0  0  0  0  0  0  0  0  0  0  0
   11.3096   37.2419   61.3079 Cl  0  0  0  0  0  0  0  0  0  0  0  0
    9.8526   35.2371   60.1378 C   0  0  0  0  0  0  0  0  0  0  0  0
    8.7650   34.4511   60.4764 N   0  0  0  0  0  0  0  0  0  0  0  0
    7.4759   34.1118   62.7027 C   0  0  0  0  0  0  0  0  0  0  0  0
    6.4460   36.2082   63.2700 C   0  0  0  0  0  0  0  0  0  0  0  0
    6.1917   34.8352   62.8227 N   0  0  0  0  0  0  0  0  0  0  0  0
    5.4648   34.8664   61.5468 C   0  0  0  0  0  0  0  0  0  0  0  0
    5.9286   28.5713   56.0023 C   0  0  0  0  0  0  0  0  0  0  0  0
    4.5560   28.3988   55.9720 C   0  0  0  0  0  0  0  0  0  0  0  0
    4.2696   27.7278   54.7678 C   0  0  0  0  0  0  0  0  0  0  0  0
    5.3961   27.5253   54.0694 N   0  0  0  0  0  0  0  0  0  0  0  0
    6.4236   27.9737   54.8506 N   0  0  0  0  0  0  0  0  0  0  0  0
    7.7630   27.8244   54.3532 C   0  0  0  0  0  0  0  0  0  0  0  0
    8.6705   27.0369   55.1005 C   0  0  0  0  0  0  0  0  0  0  0  0
    9.9980   26.8330   54.6949 C   0  0  0  0  0  0  0  0  0  0  0  0
   10.3830   27.4716   53.5242 C   0  0  0  0  0  0  0  0  0  0  0  0
   11.6151   27.4319   52.9527 O   0  0  0  0  0  0  0  0  0  0  0  0
   11.6178   28.2241   51.8090 N   0  0  0  0  0  0  0  0  0  0  0  0
   10.3790   28.7102   51.6999 C   0  0  0  0  0  0  0  0  0  0  0  0
    9.9686   29.5472   50.7216 N   0  0  0  0  0  0  0  0  0  0  0  0
    9.5466   28.2635   52.7605 C   0  0  0  0  0  0  0  0  0  0  0  0
    8.2052   28.4374   53.1683 C   0  0  0  0  0  0  0  0  0  0  0  0
   10.5947   29.8205   50.0128 H   0  0  0  0  0  0  0  0  0  0  0  0
    9.0433   29.8835   50.7176 H   0  0  0  0  0  0  0  0  0  0  0  0
    2.9091   27.3144   54.2694 C   0  0  0  0  0  0  0  0  0  0  0  0
    2.8765   26.0452   53.7971 F   0  0  0  0  0  0  0  0  0  0  0  0
    2.4708   28.1252   53.2734 F   0  0  0  0  0  0  0  0  0  0  0  0
    1.9738   27.3871   55.2552 F   0  0  0  0  0  0  0  0  0  0  0  0
 19 20  1  0
 20 21  1  0
 20 18  1  0
 18 12  1  0
 12 13  2  0
 13 14  1  0
 14 15  1  0
 14 16  2  0
 16 17  1  0
 17  5  1  0
  5  6  2  0
  6  7  1  0
  7  8  2  0
  8  1  1  0
  1  2  1  0
  2  3  2  0
  2 22  1  0
 22 23  2  0
 23 24  1  0
 24 39  1  0
 39 40  1  0
 39 41  1  0
 39 42  1  0
 24 25  2  0
 25 26  1  0
 26 27  1  0
 27 28  2  0
 28 29  1  0
 29 30  2  0
 30 31  1  0
 31 32  1  0
 32 33  2  0
 33 34  1  0
 33 35  1  0
 35 36  2  0
  8  9  1  0
  9 10  1  0
  9 11  2  0
 17 12  1  0
 11  5  1  0
 26 22  1  0
 36 27  1  0
 35 30  1  0
  1  4  1  0
 34 37  1  0
 34 38  1  0
M  END
> <minimizedAffinity>
-11.46464

> <CNNscore>
0.9849484563

> <CNNaffinity>
8.8337163925

> <CNN_VS>
8.7007551193

> <CNNaffinity_variance>
0.0204650834

$$$$



 42 46  0  0  0  0  0  0  0  0999 V2000
    5.7226   30.3438   57.0522 N   0  0  0  0  0  0  0  0  0  0  0  0
    6.6310   29.4220   56.5706 C   0  0  0  0  0  0  0  0  0  0  0  0
    7.8064   29.3134   56.8796 O   0  0  0  0  0  0  0  0  0  0  0  0
    4.8522   30.3562   56.5923 H   0  0  0  0  0  0  0  0  0  0  0  0
    5.9335   33.3130   60.0966 C   0  0  0  0  0  0  0  0  0  0  0  0
    5.5828   33.6064   58.7715 C   0  0  0  0  0  0  0  0  0  0  0  0
    5.5491   32.6011   57.7954 C   0  0  0  0  0  0  0  0  0  0  0  0
    5.8602   31.2722   58.1091 C   0  0  0  0  0  0  0  0  0  0  0  0
    6.2218   30.9898   59.4291 C   0  0  0  0  0  0  0  0  0  0  0  0
    6.4987   29.7480   59.8415 F   0  0  0  0  0  0  0  0  0  0  0  0
    6.2583   31.9925   60.4084 C   0  0  0  0  0  0  0  0  0  0  0  0
    6.8847   34.8546   61.9243 C   0  0  0  0  0  0  0  0  0  0  0  0
    6.3922   35.7700   62.7466 N   0  0  0  0  0  0  0  0  0  0  0  0
    5.0724   35.8873   62.4451 C   0  0  0  0  0  0  0  0  0  0  0  0
    4.0219   36.9367   63.2655 Cl  0  0  0  0  0  0  0  0  0  0  0  0
    4.7474   35.0560   61.4086 C   0  0  0  0  0  0  0  0  0  0  0  0
    5.8905   34.3456   61.0862 N   0  0  0  0  0  0  0  0  0  0  0  0
    8.3550   34.5434   61.8738 C   0  0  0  0  0  0  0  0  0  0  0  0
    9.6699   36.5466   62.0633 C   0  0  0  0  0  0  0  0  0  0  0  0
    9.1493   35.5438   61.1287 N   0  0  0  0  0  0  0  0  0  0  0  0
   10.2690   34.9219   60.4097 C   0  0  0  0  0  0  0  0  0  0  0  0
    6.0164   28.5431   55.6093 C   0  0  0  0  0  0  0  0  0  0  0  0
    4.6718   28.2190   55.5665 C   0  0  0  0  0  0  0  0  0  0  0  0
    4.5054   27.3740   54.4528 C   0  0  0  0  0  0  0  0  0  0  0  0
    5.6735   27.2093   53.8156 N   0  0  0  0  0  0  0  0  0  0  0  0
    6.6166   27.8626   54.5580 N   0  0  0  0  0  0  0  0  0  0  0  0
    7.9828   27.7990   54.1186 C   0  0  0  0  0  0  0  0  0  0  0  0
    8.9037   27.0625   54.9007 C   0  0  0  0  0  0  0  0  0  0  0  0
   10.2574   26.9430   54.5523 C   0  0  0  0  0  0  0  0  0  0  0  0
   10.6528   27.6130   53.4028 C   0  0  0  0  0  0  0  0  0  0  0  0
   11.9086   27.6530   52.8854 O   0  0  0  0  0  0  0  0  0  0  0  0
   11.9122   28.4528   51.7469 N   0  0  0  0  0  0  0  0  0  0  0  0
   10.6518   28.8634   51.5865 C   0  0  0  0  0  0  0  0  0  0  0  0
   10.2335   29.6814   50.5956 N   0  0  0  0  0  0  0  0  0  0  0  0
    9.8033   28.3584   52.6075 C   0  0  0  0  0  0  0  0  0  0  0  0
    8.4374   28.4472   52.9573 C   0  0  0  0  0  0  0  0  0  0  0  0
   10.8718   29.9980   49.9161 H   0  0  0  0  0  0  0  0  0  0  0  0
    9.2904   29.9608   50.5530 H   0  0  0  0  0  0  0  0  0  0  0  0
    3.2166   26.7546   53.9776 C   0  0  0  0  0  0  0  0  0  0  0  0
    2.8236   25.6978   54.7284 F   0  0  0  0  0  0  0  0  0  0  0  0
    3.3091   26.3235   52.6942 F   0  0  0  0  0  0  0  0  0  0  0  0
    2.1936   27.6517   54.0023 F   0  0  0  0  0  0  0  0  0  0  0  0
 19 20  1  0
 20 21  1  0
 20 18  1  0
 18 12  1  0
 12 13  2  0
 13 14  1  0
 14 15  1  0
 14 16  2  0
 16 17  1  0
 17  5  1  0
  5  6  2  0
  6  7  1  0
  7  8  2  0
  8  1  1  0
  1  2  1  0
  2  3  2  0
  2 22  1  0
 22 23  2  0
 23 24  1  0
 24 39  1  0
 39 40  1  0
 39 41  1  0
 39 42  1  0
 24 25  2  0
 25 26  1  0
 26 27  1  0
 27 28  2  0
 28 29  1  0
 29 30  2  0
 30 31  1  0
 31 32  1  0
 32 33  2  0
 33 34  1  0
 33 35  1  0
 35 36  2  0
  8  9  1  0
  9 10  1  0
  9 11  2  0
 17 12  1  0
 11  5  1  0
 26 22  1  0
 36 27  1  0
 35 30  1  0
  1  4  1  0
 34 37  1  0
 34 38  1  0
M  END
> <minimizedAffinity>
-10.06315

> <CNNscore>
0.9741395116

> <CNNaffinity>
8.5994272232

> <CNN_VS>
8.3770418167

> <CNNaffinity_variance>
0.0129834386

$$$$



 42 46  0  0  0  0  0  0  0  0999 V2000
    6.5142   30.4479   56.8366 N   0  0  0  0  0  0  0  0  0  0  0  0
    5.9499   29.2147   57.0960 C   0  0  0  0  0  0  0  0  0  0  0  0
    5.9578   28.6074   58.1543 O   0  0  0  0  0  0  0  0  0  0  0  0
    6.5137   30.7199   55.8904 H   0  0  0  0  0  0  0  0  0  0  0  0
    8.0137   33.4190   59.4924 C   0  0  0  0  0  0  0  0  0  0  0  0
    7.1315   33.7125   58.4433 C   0  0  0  0  0  0  0  0  0  0  0  0
    6.6813   32.7064   57.5774 C   0  0  0  0  0  0  0  0  0  0  0  0
    7.0927   31.3768   57.7314 C   0  0  0  0  0  0  0  0  0  0  0  0
    7.9825   31.0942   58.7712 C   0  0  0  0  0  0  0  0  0  0  0  0
    8.4054   29.8518   59.0288 F   0  0  0  0  0  0  0  0  0  0  0  0
    8.4366   32.0977   59.6389 C   0  0  0  0  0  0  0  0  0  0  0  0
    7.7080   35.0524   61.4572 C   0  0  0  0  0  0  0  0  0  0  0  0
    8.4217   36.0269   62.0028 N   0  0  0  0  0  0  0  0  0  0  0  0
    9.5993   36.0661   61.3261 C   0  0  0  0  0  0  0  0  0  0  0  0
   10.8292   37.1841   61.6660 Cl  0  0  0  0  0  0  0  0  0  0  0  0
    9.6283   35.0901   60.3683 C   0  0  0  0  0  0  0  0  0  0  0  0
    8.4003   34.4527   60.4032 N   0  0  0  0  0  0  0  0  0  0  0  0
    6.3849   34.6234   62.0287 C   0  0  0  0  0  0  0  0  0  0  0  0
    5.7492   34.0282   64.2691 C   0  0  0  0  0  0  0  0  0  0  0  0
    6.4989   33.5953   63.0856 N   0  0  0  0  0  0  0  0  0  0  0  0
    5.9871   32.2944   62.6350 C   0  0  0  0  0  0  0  0  0  0  0  0
    5.3070   28.6824   55.9223 C   0  0  0  0  0  0  0  0  0  0  0  0
    3.9401   28.6260   55.7147 C   0  0  0  0  0  0  0  0  0  0  0  0
    3.7587   28.0759   54.4315 C   0  0  0  0  0  0  0  0  0  0  0  0
    4.9459   27.8362   53.8565 N   0  0  0  0  0  0  0  0  0  0  0  0
    5.8975   28.1370   54.7899 N   0  0  0  0  0  0  0  0  0  0  0  0
    7.2742   27.9170   54.4435 C   0  0  0  0  0  0  0  0  0  0  0  0
    8.0937   27.2234   55.3653 C   0  0  0  0  0  0  0  0  0  0  0  0
    9.4489   26.9610   55.1153 C   0  0  0  0  0  0  0  0  0  0  0  0
    9.9528   27.4447   53.9159 C   0  0  0  0  0  0  0  0  0  0  0  0
   11.2316   27.3250   53.4726 O   0  0  0  0  0  0  0  0  0  0  0  0
   11.3553   27.9672   52.2445 N   0  0  0  0  0  0  0  0  0  0  0  0
   10.1412   28.4443   51.9594 C   0  0  0  0  0  0  0  0  0  0  0  0
    9.8390   29.1545   50.8502 N   0  0  0  0  0  0  0  0  0  0  0  0
    9.2058   28.1401   52.9841 C   0  0  0  0  0  0  0  0  0  0  0  0
    7.8358   28.3733   53.2385 C   0  0  0  0  0  0  0  0  0  0  0  0
   10.5332   29.3323   50.1752 H   0  0  0  0  0  0  0  0  0  0  0  0
    8.9245   29.4941   50.7171 H   0  0  0  0  0  0  0  0  0  0  0  0
    2.4447   27.8154   53.7414 C   0  0  0  0  0  0  0  0  0  0  0  0
    1.9134   28.9226   53.1696 F   0  0  0  0  0  0  0  0  0  0  0  0
    1.5161   27.3207   54.5985 F   0  0  0  0  0  0  0  0  0  0  0  0
    2.5763   26.8909   52.7516 F   0  0  0  0  0  0  0  0  0  0  0  0
 19 20  1  0
 20 21  1  0
 20 18  1  0
 18 12  1  0
 12 13  2  0
 13 14  1  0
 14 15  1  0
 14 16  2  0
 16 17  1  0
 17  5  1  0
  5  6  2  0
  6  7  1  0
  7  8  2  0
  8  1  1  0
  1  2  1  0
  2  3  2  0
  2 22  1  0
 22 23  2  0
 23 24  1  0
 24 39  1  0
 39 40  1  0
 39 41  1  0
 39 42  1  0
 24 25  2  0
 25 26  1  0
 26 27  1  0
 27 28  2  0
 28 29  1  0
 29 30  2  0
 30 31  1  0
 31 32  1  0
 32 33  2  0
 33 34  1  0
 33 35  1  0
 35 36  2  0
  8  9  1  0
  9 10  1  0
  9 11  2  0
 17 12  1  0
 11  5  1  0
 26 22  1  0
 36 27  1  0
 35 30  1  0
  1  4  1  0
 34 37  1  0
 34 38  1  0
M  END
> <minimizedAffinity>
-11.11207

> <CNNscore>
0.9670810699

> <CNNaffinity>
8.6675472260

> <CNN_VS>
8.3822212219

> <CNNaffinity_variance>
0.0166714154

$$$$



 42 46  0  0  0  0  0  0  0  0999 V2000
    5.9521   30.2153   56.8027 N   0  0  0  0  0  0  0  0  0  0  0  0
    6.6621   29.0576   56.5532 C   0  0  0  0  0  0  0  0  0  0  0  0
    7.6571   28.6616   57.1381 O   0  0  0  0  0  0  0  0  0  0  0  0
    5.2510   30.4285   56.1452 H   0  0  0  0  0  0  0  0  0  0  0  0
    6.1855   32.8118   60.1692 C   0  0  0  0  0  0  0  0  0  0  0  0
    5.1132   31.9335   59.9593 C   0  0  0  0  0  0  0  0  0  0  0  0
    5.0653   31.1129   58.8240 C   0  0  0  0  0  0  0  0  0  0  0  0
    6.0849   31.1389   57.8645 C   0  0  0  0  0  0  0  0  0  0  0  0
    7.1438   32.0265   58.0738 C   0  0  0  0  0  0  0  0  0  0  0  0
    8.1863   32.1008   57.2392 F   0  0  0  0  0  0  0  0  0  0  0  0
    7.1951   32.8502   59.2072 C   0  0  0  0  0  0  0  0  0  0  0  0
    6.0459   33.2225   62.7056 C   0  0  0  0  0  0  0  0  0  0  0  0
    6.1269   34.2778   63.5034 N   0  0  0  0  0  0  0  0  0  0  0  0
    6.3974   35.3434   62.7048 C   0  0  0  0  0  0  0  0  0  0  0  0
    6.5664   36.9257   63.2930 Cl  0  0  0  0  0  0  0  0  0  0  0  0
    6.5112   34.9426   61.4020 C   0  0  0  0  0  0  0  0  0  0  0  0
    6.2428   33.5853   61.3716 N   0  0  0  0  0  0  0  0  0  0  0  0
    5.8825   31.8295   63.2480 C   0  0  0  0  0  0  0  0  0  0  0  0
    4.1138   30.2058   63.1364 C   0  0  0  0  0  0  0  0  0  0  0  0
    4.5012   31.5146   63.6719 N   0  0  0  0  0  0  0  0  0  0  0  0
    4.3725   31.4986   65.1349 C   0  0  0  0  0  0  0  0  0  0  0  0
    6.0751   28.3138   55.4686 C   0  0  0  0  0  0  0  0  0  0  0  0
    4.7282   28.0278   55.3313 C   0  0  0  0  0  0  0  0  0  0  0  0
    4.5960   27.3258   54.1181 C   0  0  0  0  0  0  0  0  0  0  0  0
    5.7880   27.2117   53.5149 N   0  0  0  0  0  0  0  0  0  0  0  0
    6.7088   27.7502   54.3690 N   0  0  0  0  0  0  0  0  0  0  0  0
    8.0917   27.7084   53.9823 C   0  0  0  0  0  0  0  0  0  0  0  0
    8.9905   26.9722   54.7900 C   0  0  0  0  0  0  0  0  0  0  0  0
   10.3581   26.8732   54.4930 C   0  0  0  0  0  0  0  0  0  0  0  0
   10.7895   27.5631   53.3686 C   0  0  0  0  0  0  0  0  0  0  0  0
   12.0638   27.6246   52.9010 O   0  0  0  0  0  0  0  0  0  0  0  0
   12.1019   28.4397   51.7740 N   0  0  0  0  0  0  0  0  0  0  0  0
   10.8438   28.8377   51.5700 C   0  0  0  0  0  0  0  0  0  0  0  0
   10.4542   29.6640   50.5742 N   0  0  0  0  0  0  0  0  0  0  0  0
    9.9625   28.3092   52.5506 C   0  0  0  0  0  0  0  0  0  0  0  0
    8.5831   28.3773   52.8481 C   0  0  0  0  0  0  0  0  0  0  0  0
   11.1145   29.9970   49.9243 H   0  0  0  0  0  0  0  0  0  0  0  0
    9.5102   29.9329   50.4986 H   0  0  0  0  0  0  0  0  0  0  0  0
    3.3187   26.7969   53.5188 C   0  0  0  0  0  0  0  0  0  0  0  0
    2.3708   27.7508   53.3554 F   0  0  0  0  0  0  0  0  0  0  0  0
    2.7740   25.8156   54.2815 F   0  0  0  0  0  0  0  0  0  0  0  0
    3.5336   26.2474   52.2925 F   0  0  0  0  0  0  0  0  0  0  0  0
 19 20  1  0
 20 21  1  0
 20 18  1  0
 18 12  1  0
 12 13  2  0
 13 14  1  0
 14 15  1  0
 14 16  2  0
 16 17  1  0
 17  5  1  0
  5  6  2  0
  6  7  1  0
  7  8  2  0
  8  1  1  0
  1  2  1  0
  2  3  2  0
  2 22  1  0
 22 23  2  0
 23 24  1  0
 24 39  1  0
 39 40  1  0
 39 41  1  0
 39 42  1  0
 24 25  2  0
 25 26  1  0
 26 27  1  0
 27 28  2  0
 28 29  1  0
 29 30  2  0
 30 31  1  0
 31 32  1  0
 32 33  2  0
 33 34  1  0
 33 35  1  0
 35 36  2  0
  8  9  1  0
  9 10  1  0
  9 11  2  0
 17 12  1  0
 11  5  1  0
 26 22  1  0
 36 27  1  0
 35 30  1  0
  1  4  1  0
 34 37  1  0
 34 38  1  0
M  END
> <minimizedAffinity>
-9.64211

> <CNNscore>
0.9141157866

> <CNNaffinity>
8.3116235733

> <CNN_VS>
7.5977864265

> <CNNaffinity_variance>
0.0411169417

$$$$



 42 46  0  0  0  0  0  0  0  0999 V2000
    5.7546   30.1709   56.7898 N   0  0  0  0  0  0  0  0  0  0  0  0
    6.7301   29.3468   56.2646 C   0  0  0  0  0  0  0  0  0  0  0  0
    7.9180   29.3389   56.5433 O   0  0  0  0  0  0  0  0  0  0  0  0
    4.8752   30.1142   56.3508 H   0  0  0  0  0  0  0  0  0  0  0  0
    5.7670   33.0732   59.9052 C   0  0  0  0  0  0  0  0  0  0  0  0
    5.3241   33.3550   58.6054 C   0  0  0  0  0  0  0  0  0  0  0  0
    5.3599   32.3754   57.6035 C   0  0  0  0  0  0  0  0  0  0  0  0
    5.8344   31.0842   57.8657 C   0  0  0  0  0  0  0  0  0  0  0  0
    6.2866   30.8147   59.1602 C   0  0  0  0  0  0  0  0  0  0  0  0
    6.7219   29.6038   59.5247 F   0  0  0  0  0  0  0  0  0  0  0  0
    6.2540   31.7919   60.1651 C   0  0  0  0  0  0  0  0  0  0  0  0
    4.5322   34.5989   61.5693 C   0  0  0  0  0  0  0  0  0  0  0  0
    4.8767   35.5643   62.4096 N   0  0  0  0  0  0  0  0  0  0  0  0
    6.2298   35.6685   62.3412 C   0  0  0  0  0  0  0  0  0  0  0  0
    7.1206   36.8012   63.2365 Cl  0  0  0  0  0  0  0  0  0  0  0  0
    6.7331   34.7420   61.4699 C   0  0  0  0  0  0  0  0  0  0  0  0
    5.6526   34.0708   60.9246 N   0  0  0  0  0  0  0  0  0  0  0  0
    3.1150   34.1067   61.4656 C   0  0  0  0  0  0  0  0  0  0  0  0
    1.5154   34.3219   59.6845 C   0  0  0  0  0  0  0  0  0  0  0  0
    2.2119   35.0390   60.7572 N   0  0  0  0  0  0  0  0  0  0  0  0
    1.2232   35.6333   61.6664 C   0  0  0  0  0  0  0  0  0  0  0  0
    6.1733   28.4372   55.2967 C   0  0  0  0  0  0  0  0  0  0  0  0
    4.8387   28.0829   55.2068 C   0  0  0  0  0  0  0  0  0  0  0  0
    4.7350   27.2142   54.1037 C   0  0  0  0  0  0  0  0  0  0  0  0
    5.9310   27.0636   53.5167 N   0  0  0  0  0  0  0  0  0  0  0  0
    6.8294   27.7509   54.2833 N   0  0  0  0  0  0  0  0  0  0  0  0
    8.2132   27.7092   53.8998 C   0  0  0  0  0  0  0  0  0  0  0  0
    9.1067   26.9569   54.6986 C   0  0  0  0  0  0  0  0  0  0  0  0
   10.4746   26.8568   54.4038 C   0  0  0  0  0  0  0  0  0  0  0  0
   10.9121   27.5621   53.2913 C   0  0  0  0  0  0  0  0  0  0  0  0
   12.1880   27.6254   52.8282 O   0  0  0  0  0  0  0  0  0  0  0  0
   12.2325   28.4575   51.7139 N   0  0  0  0  0  0  0  0  0  0  0  0
   10.9767   28.8638   51.5126 C   0  0  0  0  0  0  0  0  0  0  0  0
   10.5934   29.7070   50.5286 N   0  0  0  0  0  0  0  0  0  0  0  0
   10.0905   28.3241   52.4826 C   0  0  0  0  0  0  0  0  0  0  0  0
    8.7105   28.3934   52.7773 C   0  0  0  0  0  0  0  0  0  0  0  0
   11.2568   30.0472   49.8857 H   0  0  0  0  0  0  0  0  0  0  0  0
    9.6507   29.9810   50.4546 H   0  0  0  0  0  0  0  0  0  0  0  0
    3.4797   26.5581   53.5897 C   0  0  0  0  0  0  0  0  0  0  0  0
    2.4704   27.4347   53.3706 F   0  0  0  0  0  0  0  0  0  0  0  0
    3.0153   25.6176   54.4506 F   0  0  0  0  0  0  0  0  0  0  0  0
    3.7002   25.9155   52.4106 F   0  0  0  0  0  0  0  0  0  0  0  0
 19 20  1  0
 20 21  1  0
 20 18  1  0
 18 12  1  0
 12 13  2  0
 13 14  1  0
 14 15  1  0
 14 16  2  0
 16 17  1  0
 17  5  1  0
  5  6  2  0
  6  7  1  0
  7  8  2  0
  8  1  1  0
  1  2  1  0
  2  3  2  0
  2 22  1  0
 22 23  2  0
 23 24  1  0
 24 39  1  0
 39 40  1  0
 39 41  1  0
 39 42  1  0
 24 25  2  0
 25 26  1  0
 26 27  1  0
 27 28  2  0
 28 29  1  0
 29 30  2  0
 30 31  1  0
 31 32  1  0
 32 33  2  0
 33 34  1  0
 33 35  1  0
 35 36  2  0
  8  9  1  0
  9 10  1  0
  9 11  2  0
 17 12  1  0
 11  5  1  0
 26 22  1  0
 36 27  1  0
 35 30  1  0
  1  4  1  0
 34 37  1  0
 34 38  1  0
M  END
> <minimizedAffinity>
-9.15345

> <CNNscore>
0.8151522279

> <CNNaffinity>
7.9533553123

> <CNN_VS>
6.4831953049

> <CNNaffinity_variance>
0.0392471217

$$$$



 42 46  0  0  0  0  0  0  0  0999 V2000
    7.3242   30.4968   57.5427 N   0  0  0  0  0  0  0  0  0  0  0  0
    6.6448   29.3199   57.2977 C   0  0  0  0  0  0  0  0  0  0  0  0
    5.6695   28.8930   57.8939 O   0  0  0  0  0  0  0  0  0  0  0  0
    8.1623   30.6111   57.0389 H   0  0  0  0  0  0  0  0  0  0  0  0
    6.4433   33.5434   60.3836 C   0  0  0  0  0  0  0  0  0  0  0  0
    6.5448   32.1885   60.7286 C   0  0  0  0  0  0  0  0  0  0  0  0
    6.8131   31.2153   59.7563 C   0  0  0  0  0  0  0  0  0  0  0  0
    6.9919   31.5613   58.4112 C   0  0  0  0  0  0  0  0  0  0  0  0
    6.8760   32.9122   58.0727 C   0  0  0  0  0  0  0  0  0  0  0  0
    7.0679   33.3526   56.8245 F   0  0  0  0  0  0  0  0  0  0  0  0
    6.6064   33.8889   59.0419 C   0  0  0  0  0  0  0  0  0  0  0  0
    7.1313   35.1039   62.3106 C   0  0  0  0  0  0  0  0  0  0  0  0
    6.5019   35.9225   63.1416 N   0  0  0  0  0  0  0  0  0  0  0  0
    5.1918   35.9027   62.7818 C   0  0  0  0  0  0  0  0  0  0  0  0
    3.9933   36.7913   63.5893 Cl  0  0  0  0  0  0  0  0  0  0  0  0
    5.0094   35.0846   61.7010 C   0  0  0  0  0  0  0  0  0  0  0  0
    6.2393   34.5219   61.4075 N   0  0  0  0  0  0  0  0  0  0  0  0
    8.6285   34.9631   62.3190 C   0  0  0  0  0  0  0  0  0  0  0  0
    9.9914   36.9281   62.0763 C   0  0  0  0  0  0  0  0  0  0  0  0
    9.3144   35.8475   61.3524 N   0  0  0  0  0  0  0  0  0  0  0  0
   10.2976   35.1119   60.5464 C   0  0  0  0  0  0  0  0  0  0  0  0
    7.2346   28.6008   56.1981 C   0  0  0  0  0  0  0  0  0  0  0  0
    8.5564   28.1985   56.1222 C   0  0  0  0  0  0  0  0  0  0  0  0
    8.6862   27.4982   54.9078 C   0  0  0  0  0  0  0  0  0  0  0  0
    7.5039   27.4360   54.2785 N   0  0  0  0  0  0  0  0  0  0  0  0
    6.6267   28.1700   55.0262 N   0  0  0  0  0  0  0  0  0  0  0  0
    5.2819   28.3111   54.5412 C   0  0  0  0  0  0  0  0  0  0  0  0
    4.6831   27.2028   53.8968 C   0  0  0  0  0  0  0  0  0  0  0  0
    3.3752   27.2452   53.3909 C   0  0  0  0  0  0  0  0  0  0  0  0
    2.7040   28.4514   53.5357 C   0  0  0  0  0  0  0  0  0  0  0  0
    1.4436   28.7280   53.1103 O   0  0  0  0  0  0  0  0  0  0  0  0
    1.1372   30.0521   53.4085 N   0  0  0  0  0  0  0  0  0  0  0  0
    2.2125   30.5438   54.0287 C   0  0  0  0  0  0  0  0  0  0  0  0
    2.3267   31.8159   54.4700 N   0  0  0  0  0  0  0  0  0  0  0  0
    3.2412   29.5709   54.1423 C   0  0  0  0  0  0  0  0  0  0  0  0
    4.5499   29.5040   54.6704 C   0  0  0  0  0  0  0  0  0  0  0  0
    1.5762   32.4437   54.3617 H   0  0  0  0  0  0  0  0  0  0  0  0
    3.1605   32.1148   54.8999 H   0  0  0  0  0  0  0  0  0  0  0  0
    9.9379   26.8554   54.3688 C   0  0  0  0  0  0  0  0  0  0  0  0
   11.0691   27.3151   54.9552 F   0  0  0  0  0  0  0  0  0  0  0  0
   10.0691   27.0528   53.0326 F   0  0  0  0  0  0  0  0  0  0  0  0
    9.9244   25.5070   54.5522 F   0  0  0  0  0  0  0  0  0  0  0  0
 19 20  1  0
 20 21  1  0
 20 18  1  0
 18 12  1  0
 12 13  2  0
 13 14  1  0
 14 15  1  0
 14 16  2  0
 16 17  1  0
 17  5  1  0
  5  6  2  0
  6  7  1  0
  7  8  2  0
  8  1  1  0
  1  2  1  0
  2  3  2  0
  2 22  1  0
 22 23  2  0
 23 24  1  0
 24 39  1  0
 39 40  1  0
 39 41  1  0
 39 42  1  0
 24 25  2  0
 25 26  1  0
 26 27  1  0
 27 28  2  0
 28 29  1  0
 29 30  2  0
 30 31  1  0
 31 32  1  0
 32 33  2  0
 33 34  1  0
 33 35  1  0
 35 36  2  0
  8  9  1  0
  9 10  1  0
  9 11  2  0
 17 12  1  0
 11  5  1  0
 26 22  1  0
 36 27  1  0
 35 30  1  0
  1  4  1  0
 34 37  1  0
 34 38  1  0
M  END
> <minimizedAffinity>
-9.69097

> <CNNscore>
0.4889074266

> <CNNaffinity>
7.7958989143

> <CNN_VS>
3.8114728928

> <CNNaffinity_variance>
0.2745027542

$$$$



 42 46  0  0  0  0  0  0  0  0999 V2000
    6.0272   30.9968   57.1876 N   0  0  0  0  0  0  0  0  0  0  0  0
    5.0399   30.0962   57.5353 C   0  0  0  0  0  0  0  0  0  0  0  0
    4.7527   29.7128   58.6575 O   0  0  0  0  0  0  0  0  0  0  0  0
    6.1925   31.0871   56.2213 H   0  0  0  0  0  0  0  0  0  0  0  0
    8.2370   33.6416   59.6878 C   0  0  0  0  0  0  0  0  0  0  0  0
    7.2549   34.0855   58.7914 C   0  0  0  0  0  0  0  0  0  0  0  0
    6.5680   33.1818   57.9693 C   0  0  0  0  0  0  0  0  0  0  0  0
    6.8350   31.8079   58.0167 C   0  0  0  0  0  0  0  0  0  0  0  0
    7.8246   31.3744   58.9032 C   0  0  0  0  0  0  0  0  0  0  0  0
    8.1282   30.0806   59.0542 F   0  0  0  0  0  0  0  0  0  0  0  0
    8.5153   32.2751   59.7263 C   0  0  0  0  0  0  0  0  0  0  0  0
    8.5997   34.9217   61.8904 C   0  0  0  0  0  0  0  0  0  0  0  0
    9.3978   35.8962   62.3030 N   0  0  0  0  0  0  0  0  0  0  0  0
   10.2161   36.1907   61.2590 C   0  0  0  0  0  0  0  0  0  0  0  0
   11.3990   37.4052   61.3200 Cl  0  0  0  0  0  0  0  0  0  0  0  0
    9.9417   35.3741   60.1966 C   0  0  0  0  0  0  0  0  0  0  0  0
    8.8713   34.5777   60.5645 N   0  0  0  0  0  0  0  0  0  0  0  0
    7.6346   34.2402   62.8207 C   0  0  0  0  0  0  0  0  0  0  0  0
    5.4853   33.1900   63.0560 C   0  0  0  0  0  0  0  0  0  0  0  0
    6.2470   34.1975   62.3111 N   0  0  0  0  0  0  0  0  0  0  0  0
    5.5820   35.5010   62.4373 C   0  0  0  0  0  0  0  0  0  0  0  0
    4.3348   29.6259   56.3709 C   0  0  0  0  0  0  0  0  0  0  0  0
    2.9810   29.7887   56.1353 C   0  0  0  0  0  0  0  0  0  0  0  0
    2.7294   29.2191   54.8726 C   0  0  0  0  0  0  0  0  0  0  0  0
    3.8684   28.7592   54.3349 N   0  0  0  0  0  0  0  0  0  0  0  0
    4.8427   28.9392   55.2759 N   0  0  0  0  0  0  0  0  0  0  0  0
    6.1682   28.4776   54.9701 C   0  0  0  0  0  0  0  0  0  0  0  0
    6.5457   28.3801   53.6098 C   0  0  0  0  0  0  0  0  0  0  0  0
    7.8176   27.9403   53.2134 C   0  0  0  0  0  0  0  0  0  0  0  0
    8.6841   27.5791   54.2358 C   0  0  0  0  0  0  0  0  0  0  0  0
    9.9516   27.1117   54.0900 O   0  0  0  0  0  0  0  0  0  0  0  0
   10.4853   26.8294   55.3435 N   0  0  0  0  0  0  0  0  0  0  0  0
    9.5357   27.1530   56.2247 C   0  0  0  0  0  0  0  0  0  0  0  0
    9.6531   27.0106   57.5634 N   0  0  0  0  0  0  0  0  0  0  0  0
    8.3674   27.6393   55.5796 C   0  0  0  0  0  0  0  0  0  0  0  0
    7.0917   28.1095   55.9636 C   0  0  0  0  0  0  0  0  0  0  0  0
   10.4907   26.6674   57.9503 H   0  0  0  0  0  0  0  0  0  0  0  0
    8.9009   27.2501   58.1517 H   0  0  0  0  0  0  0  0  0  0  0  0
    1.4010   29.1501   54.1648 C   0  0  0  0  0  0  0  0  0  0  0  0
    0.3818   28.7810   54.9772 F   0  0  0  0  0  0  0  0  0  0  0  0
    1.4277   28.2730   53.1297 F   0  0  0  0  0  0  0  0  0  0  0  0
    1.0574   30.3540   53.6314 F   0  0  0  0  0  0  0  0  0  0  0  0
 19 20  1  0
 20 21  1  0
 20 18  1  0
 18 12  1  0
 12 13  2  0
 13 14  1  0
 14 15  1  0
 14 16  2  0
 16 17  1  0
 17  5  1  0
  5  6  2  0
  6  7  1  0
  7  8  2  0
  8  1  1  0
  1  2  1  0
  2  3  2  0
  2 22  1  0
 22 23  2  0
 23 24  1  0
 24 39  1  0
 39 40  1  0
 39 41  1  0
 39 42  1  0
 24 25  2  0
 25 26  1  0
 26 27  1  0
 27 28  2  0
 28 29  1  0
 29 30  2  0
 30 31  1  0
 31 32  1  0
 32 33  2  0
 33 34  1  0
 33 35  1  0
 35 36  2  0
  8  9  1  0
  9 10  1  0
  9 11  2  0
 17 12  1  0
 11  5  1  0
 26 22  1  0
 36 27  1  0
 35 30  1  0
  1  4  1  0
 34 37  1  0
 34 38  1  0
M  END
> <minimizedAffinity>
-9.60403

> <CNNscore>
0.3144149482

> <CNNaffinity>
7.4871730804

> <CNN_VS>
2.3540792465

> <CNNaffinity_variance>
0.2789500654

$$$$



 42 46  0  0  0  0  0  0  0  0999 V2000
    7.5286   29.8259   58.1701 N   0  0  0  0  0  0  0  0  0  0  0  0
    6.6942   28.8904   57.5911 C   0  0  0  0  0  0  0  0  0  0  0  0
    5.6235   28.4912   58.0191 O   0  0  0  0  0  0  0  0  0  0  0  0
    8.4087   29.9272   57.7408 H   0  0  0  0  0  0  0  0  0  0  0  0
    6.9389   32.5693   61.3725 C   0  0  0  0  0  0  0  0  0  0  0  0
    7.8685   32.7873   60.3461 C   0  0  0  0  0  0  0  0  0  0  0  0
    8.0470   31.8455   59.3235 C   0  0  0  0  0  0  0  0  0  0  0  0
    7.3034   30.6594   59.2893 C   0  0  0  0  0  0  0  0  0  0  0  0
    6.3883   30.4429   60.3231 C   0  0  0  0  0  0  0  0  0  0  0  0
    5.6012   29.3624   60.3628 F   0  0  0  0  0  0  0  0  0  0  0  0
    6.2074   31.3816   61.3488 C   0  0  0  0  0  0  0  0  0  0  0  0
    7.2478   34.8701   62.4826 C   0  0  0  0  0  0  0  0  0  0  0  0
    6.8373   35.4478   63.6027 N   0  0  0  0  0  0  0  0  0  0  0  0
    6.0268   34.5507   64.2231 C   0  0  0  0  0  0  0  0  0  0  0  0
    5.2826   34.8500   65.7180 Cl  0  0  0  0  0  0  0  0  0  0  0  0
    5.9118   33.4153   63.4691 C   0  0  0  0  0  0  0  0  0  0  0  0
    6.7276   33.5798   62.3633 N   0  0  0  0  0  0  0  0  0  0  0  0
    8.0664   35.6118   61.4623 C   0  0  0  0  0  0  0  0  0  0  0  0
   10.3075   35.3463   60.6348 C   0  0  0  0  0  0  0  0  0  0  0  0
    9.5017   35.7060   61.8058 N   0  0  0  0  0  0  0  0  0  0  0  0
    9.8660   37.0578   62.2499 C   0  0  0  0  0  0  0  0  0  0  0  0
    7.2436   28.4029   56.3523 C   0  0  0  0  0  0  0  0  0  0  0  0
    8.5612   28.0299   56.1533 C   0  0  0  0  0  0  0  0  0  0  0  0
    8.6469   27.5808   54.8217 C   0  0  0  0  0  0  0  0  0  0  0  0
    7.4431   27.6366   54.2341 N   0  0  0  0  0  0  0  0  0  0  0  0
    6.5941   28.2060   55.1408 N   0  0  0  0  0  0  0  0  0  0  0  0
    5.2333   28.4321   54.7399 C   0  0  0  0  0  0  0  0  0  0  0  0
    4.6835   29.7213   54.9352 C   0  0  0  0  0  0  0  0  0  0  0  0
    3.3649   30.0374   54.5752 C   0  0  0  0  0  0  0  0  0  0  0  0
    2.6148   29.0015   54.0359 C   0  0  0  0  0  0  0  0  0  0  0  0
    1.3189   29.0701   53.6333 O   0  0  0  0  0  0  0  0  0  0  0  0
    0.9103   27.8192   53.1814 N   0  0  0  0  0  0  0  0  0  0  0  0
    1.9759   27.0234   53.2999 C   0  0  0  0  0  0  0  0  0  0  0  0
    1.9900   25.7105   52.9806 N   0  0  0  0  0  0  0  0  0  0  0  0
    3.0921   27.7202   53.8348 C   0  0  0  0  0  0  0  0  0  0  0  0
    4.4303   27.4247   54.1779 C   0  0  0  0  0  0  0  0  0  0  0  0
    1.1822   25.2846   52.6129 H   0  0  0  0  0  0  0  0  0  0  0  0
    2.8082   25.1798   53.1157 H   0  0  0  0  0  0  0  0  0  0  0  0
    9.8777   27.0621   54.1243 C   0  0  0  0  0  0  0  0  0  0  0  0
   11.0244   27.6233   54.5771 F   0  0  0  0  0  0  0  0  0  0  0  0
    9.8258   27.2784   52.7856 F   0  0  0  0  0  0  0  0  0  0  0  0
   10.0123   25.7175   54.2851 F   0  0  0  0  0  0  0  0  0  0  0  0
 19 20  1  0
 20 21  1  0
 20 18  1  0
 18 12  1  0
 12 13  2  0
 13 14  1  0
 14 15  1  0
 14 16  2  0
 16 17  1  0
 17  5  1  0
  5  6  2  0
  6  7  1  0
  7  8  2  0
  8  1  1  0
  1  2  1  0
  2  3  2  0
  2 22  1  0
 22 23  2  0
 23 24  1  0
 24 39  1  0
 39 40  1  0
 39 41  1  0
 39 42  1  0
 24 25  2  0
 25 26  1  0
 26 27  1  0
 27 28  2  0
 28 29  1  0
 29 30  2  0
 30 31  1  0
 31 32  1  0
 32 33  2  0
 33 34  1  0
 33 35  1  0
 35 36  2  0
  8  9  1  0
  9 10  1  0
  9 11  2  0
 17 12  1  0
 11  5  1  0
 26 22  1  0
 36 27  1  0
 35 30  1  0
  1  4  1  0
 34 37  1  0
 34 38  1  0
M  END
> <minimizedAffinity>
-9.19832

> <CNNscore>
0.2664814889

> <CNNaffinity>
7.2135024071

> <CNN_VS>
1.9222648144

> <CNNaffinity_variance>
0.1643807590

$$$$



 42 46  0  0  0  0  0  0  0  0999 V2000
    4.3940   32.8932   57.4578 N   0  0  0  0  0  0  0  0  0  0  0  0
    5.7486   33.0150   57.2195 C   0  0  0  0  0  0  0  0  0  0  0  0
    6.3058   33.8663   56.5459 O   0  0  0  0  0  0  0  0  0  0  0  0
    4.1213   32.0696   57.9232 H   0  0  0  0  0  0  0  0  0  0  0  0
    1.0574   35.4221   56.6825 C   0  0  0  0  0  0  0  0  0  0  0  0
    0.9240   34.1197   57.1836 C   0  0  0  0  0  0  0  0  0  0  0  0
    2.0491   33.3127   57.4017 C   0  0  0  0  0  0  0  0  0  0  0  0
    3.3416   33.7785   57.1309 C   0  0  0  0  0  0  0  0  0  0  0  0
    3.4656   35.0730   56.6191 C   0  0  0  0  0  0  0  0  0  0  0  0
    4.6560   35.6270   56.3644 F   0  0  0  0  0  0  0  0  0  0  0  0
    2.3429   35.8832   56.3980 C   0  0  0  0  0  0  0  0  0  0  0  0
   -0.5335   37.0443   55.4744 C   0  0  0  0  0  0  0  0  0  0  0  0
   -1.6399   37.7021   55.7903 N   0  0  0  0  0  0  0  0  0  0  0  0
   -1.9596   37.3302   57.0575 C   0  0  0  0  0  0  0  0  0  0  0  0
   -3.3021   37.9427   57.8945 Cl  0  0  0  0  0  0  0  0  0  0  0  0
   -1.0583   36.4133   57.5241 C   0  0  0  0  0  0  0  0  0  0  0  0
   -0.1024   36.2474   56.5371 N   0  0  0  0  0  0  0  0  0  0  0  0
    0.0563   37.1029   54.0924 C   0  0  0  0  0  0  0  0  0  0  0  0
    2.1364   37.9157   53.2034 C   0  0  0  0  0  0  0  0  0  0  0  0
    0.8786   38.3073   53.8473 N   0  0  0  0  0  0  0  0  0  0  0  0
    0.1787   39.2786   52.9964 C   0  0  0  0  0  0  0  0  0  0  0  0
    6.4875   31.9755   57.8884 C   0  0  0  0  0  0  0  0  0  0  0  0
    6.5813   30.6613   57.4653 C   0  0  0  0  0  0  0  0  0  0  0  0
    7.4276   30.0111   58.3835 C   0  0  0  0  0  0  0  0  0  0  0  0
    7.8659   30.8789   59.3067 N   0  0  0  0  0  0  0  0  0  0  0  0
    7.2383   32.0660   59.0531 N   0  0  0  0  0  0  0  0  0  0  0  0
    7.4949   33.1666   59.9399 C   0  0  0  0  0  0  0  0  0  0  0  0
    6.4361   33.6284   60.7572 C   0  0  0  0  0  0  0  0  0  0  0  0
    6.5908   34.6961   61.6540 C   0  0  0  0  0  0  0  0  0  0  0  0
    7.8422   35.2961   61.6779 C   0  0  0  0  0  0  0  0  0  0  0  0
    8.2155   36.3503   62.4496 O   0  0  0  0  0  0  0  0  0  0  0  0
    9.5360   36.6841   62.1657 N   0  0  0  0  0  0  0  0  0  0  0  0
    9.9420   35.8095   61.2421 C   0  0  0  0  0  0  0  0  0  0  0  0
   11.1717   35.8033   60.6818 N   0  0  0  0  0  0  0  0  0  0  0  0
    8.9089   34.8989   60.8942 C   0  0  0  0  0  0  0  0  0  0  0  0
    8.7448   33.8050   60.0153 C   0  0  0  0  0  0  0  0  0  0  0  0
   11.8456   36.4620   60.9665 H   0  0  0  0  0  0  0  0  0  0  0  0
   11.3935   35.1402   59.9888 H   0  0  0  0  0  0  0  0  0  0  0  0
    7.8462   28.5639   58.3528 C   0  0  0  0  0  0  0  0  0  0  0  0
    7.6107   27.9652   57.1607 F   0  0  0  0  0  0  0  0  0  0  0  0
    7.2061   27.8351   59.3018 F   0  0  0  0  0  0  0  0  0  0  0  0
    9.1766   28.4245   58.6025 F   0  0  0  0  0  0  0  0  0  0  0  0
 19 20  1  0
 20 21  1  0
 20 18  1  0
 18 12  1  0
 12 13  2  0
 13 14  1  0
 14 15  1  0
 14 16  2  0
 16 17  1  0
 17  5  1  0
  5  6  2  0
  6  7  1  0
  7  8  2  0
  8  1  1  0
  1  2  1  0
  2  3  2  0
  2 22  1  0
 22 23  2  0
 23 24  1  0
 24 39  1  0
 39 40  1  0
 39 41  1  0
 39 42  1  0
 24 25  2  0
 25 26  1  0
 26 27  1  0
 27 28  2  0
 28 29  1  0
 29 30  2  0
 30 31  1  0
 31 32  1  0
 32 33  2  0
 33 34  1  0
 33 35  1  0
 35 36  2  0
  8  9  1  0
  9 10  1  0
  9 11  2  0
 17 12  1  0
 11  5  1  0
 26 22  1  0
 36 27  1  0
 35 30  1  0
  1  4  1  0
 34 37  1  0
 34 38  1  0
M  END
> <minimizedAffinity>
-7.17542

> <CNNscore>
0.2044359893

> <CNNaffinity>
6.2862629890

> <CNN_VS>
1.2851383686

> <CNNaffinity_variance>
0.1052702293

$$$$
