


 12 12  0  0  0  0  0  0  0  0999 V2000
    5.5282   11.0073   44.5640 C   0  0  0  0  0  0  0  0  0  0  0  0
    4.7630   12.1659   44.0042 C   0  0  0  0  0  0  0  0  0  0  0  0
    4.2124   13.0365   44.8827 N   0  0  0  0  0  0  0  0  0  0  0  0
    3.5441   14.0754   44.3687 C   0  0  0  0  0  0  0  0  0  0  0  0
    2.9697   14.9616   45.2527 N   0  0  0  0  0  0  0  0  0  0  0  0
    3.3530   14.2946   43.0627 N   0  0  0  0  0  0  0  0  0  0  0  0
    3.9128   13.4105   42.2039 C   0  0  0  0  0  0  0  0  0  0  0  0
    3.7218   13.6518   40.7387 C   0  0  0  0  0  0  0  0  0  0  0  0
    4.6360   12.3204   42.6400 C   0  0  0  0  0  0  0  0  0  0  0  0
    5.1837   11.4511   41.7803 F   0  0  0  0  0  0  0  0  0  0  0  0
    3.0866   14.8355   46.2220 H   0  0  0  0  0  0  0  0  0  0  0  0
    2.4422   15.7213   44.9152 H   0  0  0  0  0  0  0  0  0  0  0  0
  1  2  1  0
  2  3  2  0
  3  4  1  0
  4  5  1  0
  4  6  2  0
  6  7  1  0
  7  8  1  0
  7  9  2  0
  9 10  1  0
  9  2  1  0
  5 11  1  0
  5 12  1  0
M  END
> <minimizedAffinity>
-5.25822

> <CNNscore>
0.9644193649

> <CNNaffinity>
4.5058541298

> <CNN_VS>
4.3455328941

> <CNNaffinity_variance>
0.2576279938

$$$$



 12 12  0  0  0  0  0  0  0  0999 V2000
    3.9872   13.4059   42.3663 C   0  0  0  0  0  0  0  0  0  0  0  0
    3.9103   13.5852   43.8506 C   0  0  0  0  0  0  0  0  0  0  0  0
    3.5122   14.7925   44.3161 N   0  0  0  0  0  0  0  0  0  0  0  0
    3.4337   14.9344   45.6443 C   0  0  0  0  0  0  0  0  0  0  0  0
    3.0408   16.1617   46.1301 N   0  0  0  0  0  0  0  0  0  0  0  0
    3.7504   13.9895   46.5370 N   0  0  0  0  0  0  0  0  0  0  0  0
    4.1459   12.7909   46.0474 C   0  0  0  0  0  0  0  0  0  0  0  0
    4.4877   11.7180   47.0342 C   0  0  0  0  0  0  0  0  0  0  0  0
    4.2385   12.5449   44.6938 C   0  0  0  0  0  0  0  0  0  0  0  0
    4.6331   11.3551   44.2213 F   0  0  0  0  0  0  0  0  0  0  0  0
    2.7994   16.8838   45.5060 H   0  0  0  0  0  0  0  0  0  0  0  0
    3.0013   16.3169   47.1015 H   0  0  0  0  0  0  0  0  0  0  0  0
  1  2  1  0
  2  3  2  0
  3  4  1  0
  4  5  1  0
  4  6  2  0
  6  7  1  0
  7  8  1  0
  7  9  2  0
  9 10  1  0
  9  2  1  0
  5 11  1  0
  5 12  1  0
M  END
> <minimizedAffinity>
-5.59017

> <CNNscore>
0.9365164638

> <CNNaffinity>
4.5276341438

> <CNN_VS>
4.2402038574

> <CNNaffinity_variance>
0.6232594848

$$$$



 12 12  0  0  0  0  0  0  0  0999 V2000
    3.2169   14.6458   45.3962 C   0  0  0  0  0  0  0  0  0  0  0  0
    3.6971   13.8076   44.2525 C   0  0  0  0  0  0  0  0  0  0  0  0
    3.4715   14.2686   42.9997 N   0  0  0  0  0  0  0  0  0  0  0  0
    3.9190   13.5169   41.9873 C   0  0  0  0  0  0  0  0  0  0  0  0
    3.6853   13.9698   40.7078 N   0  0  0  0  0  0  0  0  0  0  0  0
    4.5365   12.3376   42.1217 N   0  0  0  0  0  0  0  0  0  0  0  0
    4.7506   11.8975   43.3839 C   0  0  0  0  0  0  0  0  0  0  0  0
    5.4553   10.5872   43.5507 C   0  0  0  0  0  0  0  0  0  0  0  0
    4.3428   12.6128   44.4900 C   0  0  0  0  0  0  0  0  0  0  0  0
    4.5586   12.1659   45.7343 F   0  0  0  0  0  0  0  0  0  0  0  0
    3.2335   14.8330   40.5661 H   0  0  0  0  0  0  0  0  0  0  0  0
    3.9700   13.4305   39.9350 H   0  0  0  0  0  0  0  0  0  0  0  0
  1  2  1  0
  2  3  2  0
  3  4  1  0
  4  5  1  0
  4  6  2  0
  6  7  1  0
  7  8  1  0
  7  9  2  0
  9 10  1  0
  9  2  1  0
  5 11  1  0
  5 12  1  0
M  END
> <minimizedAffinity>
-5.01933

> <CNNscore>
0.9031431675

> <CNNaffinity>
4.3245468140

> <CNN_VS>
3.9056849480

> <CNNaffinity_variance>
0.2495308518

$$$$



 12 12  0  0  0  0  0  0  0  0999 V2000
    4.6689   11.5952   46.7888 C   0  0  0  0  0  0  0  0  0  0  0  0
    4.2444   12.6828   45.8516 C   0  0  0  0  0  0  0  0  0  0  0  0
    3.7884   13.8358   46.3953 N   0  0  0  0  0  0  0  0  0  0  0  0
    3.4265   14.8047   45.5465 C   0  0  0  0  0  0  0  0  0  0  0  0
    2.9502   15.9783   46.0876 N   0  0  0  0  0  0  0  0  0  0  0  0
    3.4496   14.7045   44.2125 N   0  0  0  0  0  0  0  0  0  0  0  0
    3.9092   13.5422   43.6926 C   0  0  0  0  0  0  0  0  0  0  0  0
    3.9567   13.4212   42.2011 C   0  0  0  0  0  0  0  0  0  0  0  0
    4.3229   12.4946   44.4880 C   0  0  0  0  0  0  0  0  0  0  0  0
    4.7739   11.3483   43.9617 F   0  0  0  0  0  0  0  0  0  0  0  0
    2.9168   16.0918   47.0650 H   0  0  0  0  0  0  0  0  0  0  0  0
    2.6432   16.7037   45.4971 H   0  0  0  0  0  0  0  0  0  0  0  0
  1  2  1  0
  2  3  2  0
  3  4  1  0
  4  5  1  0
  4  6  2  0
  6  7  1  0
  7  8  1  0
  7  9  2  0
  9 10  1  0
  9  2  1  0
  5 11  1  0
  5 12  1  0
M  END
> <minimizedAffinity>
-5.49084

> <CNNscore>
0.8578012586

> <CNNaffinity>
4.3781170845

> <CNN_VS>
3.7555544376

> <CNNaffinity_variance>
0.6535440087

$$$$



 12 12  0  0  0  0  0  0  0  0999 V2000
    3.4348   14.1206   45.0179 C   0  0  0  0  0  0  0  0  0  0  0  0
    4.1631   13.2601   44.0327 C   0  0  0  0  0  0  0  0  0  0  0  0
    3.8229   13.3765   42.7275 N   0  0  0  0  0  0  0  0  0  0  0  0
    4.4918   12.6125   41.8562 C   0  0  0  0  0  0  0  0  0  0  0  0
    4.1467   12.7138   40.5267 N   0  0  0  0  0  0  0  0  0  0  0  0
    5.4389   11.7257   42.1825 N   0  0  0  0  0  0  0  0  0  0  0  0
    5.7616   11.6272   43.4935 C   0  0  0  0  0  0  0  0  0  0  0  0
    6.8316   10.6509   43.8723 C   0  0  0  0  0  0  0  0  0  0  0  0
    5.1405   12.3875   44.4618 C   0  0  0  0  0  0  0  0  0  0  0  0
    5.4671   12.2797   45.7565 F   0  0  0  0  0  0  0  0  0  0  0  0
    3.4541   13.3544   40.2453 H   0  0  0  0  0  0  0  0  0  0  0  0
    4.5926   12.1455   39.8578 H   0  0  0  0  0  0  0  0  0  0  0  0
  1  2  1  0
  2  3  2  0
  3  4  1  0
  4  5  1  0
  4  6  2  0
  6  7  1  0
  7  8  1  0
  7  9  2  0
  9 10  1  0
  9  2  1  0
  5 11  1  0
  5 12  1  0
M  END
> <minimizedAffinity>
-4.44835

> <CNNscore>
0.7462865710

> <CNNaffinity>
4.4465794563

> <CNN_VS>
3.3184225559

> <CNNaffinity_variance>
0.0271534398

$$$$



 12 12  0  0  0  0  0  0  0  0999 V2000
    7.5959   11.2901   43.5450 C   0  0  0  0  0  0  0  0  0  0  0  0
    6.2675   11.9513   43.7434 C   0  0  0  0  0  0  0  0  0  0  0  0
    5.7120   12.5739   42.6773 N   0  0  0  0  0  0  0  0  0  0  0  0
    4.5180   13.1479   42.8647 C   0  0  0  0  0  0  0  0  0  0  0  0
    3.9480   13.7943   41.7904 N   0  0  0  0  0  0  0  0  0  0  0  0
    3.8562   13.1805   44.0270 N   0  0  0  0  0  0  0  0  0  0  0  0
    4.4317   12.5514   45.0785 C   0  0  0  0  0  0  0  0  0  0  0  0
    3.6952   12.5650   46.3819 C   0  0  0  0  0  0  0  0  0  0  0  0
    5.6510   11.9156   44.9762 C   0  0  0  0  0  0  0  0  0  0  0  0
    6.2115   11.2980   46.0245 F   0  0  0  0  0  0  0  0  0  0  0  0
    4.4033   13.7937   40.9174 H   0  0  0  0  0  0  0  0  0  0  0  0
    3.0853   14.2569   41.8953 H   0  0  0  0  0  0  0  0  0  0  0  0
  1  2  1  0
  2  3  2  0
  3  4  1  0
  4  5  1  0
  4  6  2  0
  6  7  1  0
  7  8  1  0
  7  9  2  0
  9 10  1  0
  9  2  1  0
  5 11  1  0
  5 12  1  0
M  END
> <minimizedAffinity>
-4.65452

> <CNNscore>
0.6922798753

> <CNNaffinity>
4.1097779274

> <CNN_VS>
2.8451166153

> <CNNaffinity_variance>
0.1692112237

$$$$



 12 12  0  0  0  0  0  0  0  0999 V2000
   11.5216    4.9140   41.3253 C   0  0  0  0  0  0  0  0  0  0  0  0
   10.4833    5.2457   42.3516 C   0  0  0  0  0  0  0  0  0  0  0  0
   10.3626    4.4133   43.4125 N   0  0  0  0  0  0  0  0  0  0  0  0
    9.4410    4.7296   44.3295 C   0  0  0  0  0  0  0  0  0  0  0  0
    9.3010    3.8841   45.4076 N   0  0  0  0  0  0  0  0  0  0  0  0
    8.6149    5.7795   44.2568 N   0  0  0  0  0  0  0  0  0  0  0  0
    8.7545    6.5970   43.1868 C   0  0  0  0  0  0  0  0  0  0  0  0
    7.8483    7.7856   43.1000 C   0  0  0  0  0  0  0  0  0  0  0  0
    9.6896    6.3630   42.2008 C   0  0  0  0  0  0  0  0  0  0  0  0
    9.8171    7.1782   41.1455 F   0  0  0  0  0  0  0  0  0  0  0  0
    9.8895    3.1001   45.4980 H   0  0  0  0  0  0  0  0  0  0  0  0
    8.6124    4.0638   46.0879 H   0  0  0  0  0  0  0  0  0  0  0  0
  1  2  1  0
  2  3  2  0
  3  4  1  0
  4  5  1  0
  4  6  2  0
  6  7  1  0
  7  8  1  0
  7  9  2  0
  9 10  1  0
  9  2  1  0
  5 11  1  0
  5 12  1  0
M  END
> <minimizedAffinity>
-5.08648

> <CNNscore>
0.6261447668

> <CNNaffinity>
5.4649415016

> <CNN_VS>
3.4218444824

> <CNNaffinity_variance>
0.1291606277

$$$$



 12 12  0  0  0  0  0  0  0  0999 V2000
    7.6978    7.8436   43.2854 C   0  0  0  0  0  0  0  0  0  0  0  0
    8.6146    6.6605   43.2546 C   0  0  0  0  0  0  0  0  0  0  0  0
    8.5695    5.8053   44.3032 N   0  0  0  0  0  0  0  0  0  0  0  0
    9.3834    4.7444   44.2558 C   0  0  0  0  0  0  0  0  0  0  0  0
    9.3546    3.8733   45.3222 N   0  0  0  0  0  0  0  0  0  0  0  0
   10.2548    4.4890   43.2732 N   0  0  0  0  0  0  0  0  0  0  0  0
   10.2817    5.3583   42.2359 C   0  0  0  0  0  0  0  0  0  0  0  0
   11.2400    5.0768   41.1205 C   0  0  0  0  0  0  0  0  0  0  0  0
    9.4662    6.4692   42.1872 C   0  0  0  0  0  0  0  0  0  0  0  0
    9.5034    7.3235   41.1561 F   0  0  0  0  0  0  0  0  0  0  0  0
    8.7277    4.0260   46.0658 H   0  0  0  0  0  0  0  0  0  0  0  0
    9.9610    3.0980   45.3410 H   0  0  0  0  0  0  0  0  0  0  0  0
  1  2  1  0
  2  3  2  0
  3  4  1  0
  4  5  1  0
  4  6  2  0
  6  7  1  0
  7  8  1  0
  7  9  2  0
  9 10  1  0
  9  2  1  0
  5 11  1  0
  5 12  1  0
M  END
> <minimizedAffinity>
-5.06465

> <CNNscore>
0.5185192823

> <CNNaffinity>
5.3957190514

> <CNN_VS>
2.7977843285

> <CNNaffinity_variance>
0.1633709669

$$$$



 12 12  0  0  0  0  0  0  0  0999 V2000
    7.2014    5.2492   40.9906 C   0  0  0  0  0  0  0  0  0  0  0  0
    7.8857    5.4369   42.3088 C   0  0  0  0  0  0  0  0  0  0  0  0
    8.8069    4.5143   42.6736 N   0  0  0  0  0  0  0  0  0  0  0  0
    9.4215    4.7023   43.8472 C   0  0  0  0  0  0  0  0  0  0  0  0
   10.3524    3.7641   44.2344 N   0  0  0  0  0  0  0  0  0  0  0  0
    9.1688    5.7073   44.6935 N   0  0  0  0  0  0  0  0  0  0  0  0
    8.2438    6.6169   44.3068 C   0  0  0  0  0  0  0  0  0  0  0  0
    7.9622    7.7566   45.2359 C   0  0  0  0  0  0  0  0  0  0  0  0
    7.5728    6.5173   43.1063 C   0  0  0  0  0  0  0  0  0  0  0  0
    6.6579    7.4228   42.7355 F   0  0  0  0  0  0  0  0  0  0  0  0
   10.5669    3.0090   43.6402 H   0  0  0  0  0  0  0  0  0  0  0  0
   10.8035    3.8485   45.1054 H   0  0  0  0  0  0  0  0  0  0  0  0
  1  2  1  0
  2  3  2  0
  3  4  1  0
  4  5  1  0
  4  6  2  0
  6  7  1  0
  7  8  1  0
  7  9  2  0
  9 10  1  0
  9  2  1  0
  5 11  1  0
  5 12  1  0
M  END
> <minimizedAffinity>
-4.71431

> <CNNscore>
0.5139725208

> <CNNaffinity>
5.4017963409

> <CNN_VS>
2.7763748169

> <CNNaffinity_variance>
0.6843721271

$$$$
