


 25 27  0  0  0  0  0  0  0  0999 V2000
   45.6236   78.9364   26.6490 N   0  0  0  0  0  0  0  0  0  0  0  0
   45.2522   80.0469   27.3709 C   0  0  0  0  0  0  0  0  0  0  0  0
   45.2895   81.1384   26.5293 C   0  0  0  0  0  0  0  0  0  0  0  0
   45.6899   80.6794   25.2457 C   0  0  0  0  0  0  0  0  0  0  0  0
   45.9135   81.2532   23.9880 C   0  0  0  0  0  0  0  0  0  0  0  0
   45.7443   82.6025   23.7198 N   0  0  0  0  0  0  0  0  0  0  0  0
   46.3039   80.4632   22.9720 N   0  0  0  0  0  0  0  0  0  0  0  0
   46.4770   79.1475   23.2051 C   0  0  0  0  0  0  0  0  0  0  0  0
   47.0442   78.0914   21.7257 Br  0  0  0  0  0  0  0  0  0  0  0  0
   46.2997   78.4883   24.3701 N   0  0  0  0  0  0  0  0  0  0  0  0
   45.8952   79.3116   25.3525 C   0  0  0  0  0  0  0  0  0  0  0  0
   45.4594   83.2148   24.4362 H   0  0  0  0  0  0  0  0  0  0  0  0
   45.9090   82.9487   22.8130 H   0  0  0  0  0  0  0  0  0  0  0  0
   44.9553   75.5596   26.1451 C   0  0  0  0  0  0  0  0  0  0  0  0
   45.8901   76.6646   26.0148 O   0  0  0  0  0  0  0  0  0  0  0  0
   45.7059   77.5595   27.1354 C   0  0  0  0  0  0  0  0  0  0  0  0
   44.4365   77.1103   27.8701 C   0  0  0  0  0  0  0  0  0  0  0  0
   44.4580   77.3293   29.2829 O   0  0  0  0  0  0  0  0  0  0  0  0
   44.4310   75.6227   27.5780 C   0  0  0  0  0  0  0  0  0  0  0  0
   45.3603   74.9786   28.4659 O   0  0  0  0  0  0  0  0  0  0  0  0
   45.2151   76.8633   29.6708 H   0  0  0  0  0  0  0  0  0  0  0  0
   46.2340   75.3895   28.3731 H   0  0  0  0  0  0  0  0  0  0  0  0
   43.8893   75.7448   25.0553 C   0  0  0  0  0  0  0  0  0  0  0  0
   45.6155   74.5759   23.2583 C   0  0  0  0  0  0  0  0  0  0  0  0
   43.9008   74.4152   23.8130 S   0  0  0  0  0  0  0  0  0  0  0  0
 24 25  1  0
 25 23  1  0
 14 23  1  0
 14 15  1  0
 15 16  1  0
 16  1  1  0
  1  2  1  0
  2  3  2  0
  3  4  1  0
  4  5  2  0
  5  6  1  0
  5  7  1  0
  7  8  2  0
  8  9  1  0
  8 10  1  0
 10 11  2  0
 16 17  1  0
 17 18  1  0
 17 19  1  0
 19 20  1  0
 19 14  1  0
 11  1  1  0
 11  4  1  0
  6 12  1  0
  6 13  1  0
 18 21  1  0
 20 22  1  0
M  END
> <minimizedAffinity>
-5.55811

> <CNNscore>
0.3664124012

> <CNNaffinity>
4.7058138847

> <CNN_VS>
1.7242685556

> <CNNaffinity_variance>
0.2937153876

$$$$



 25 27  0  0  0  0  0  0  0  0999 V2000
   59.0397   65.4918   24.3365 N   0  0  0  0  0  0  0  0  0  0  0  0
   58.9036   66.5469   25.2086 C   0  0  0  0  0  0  0  0  0  0  0  0
   59.9653   66.5170   26.0877 C   0  0  0  0  0  0  0  0  0  0  0  0
   60.7842   65.4101   25.7371 C   0  0  0  0  0  0  0  0  0  0  0  0
   61.9735   64.8396   26.2072 C   0  0  0  0  0  0  0  0  0  0  0  0
   62.6966   65.3457   27.2759 N   0  0  0  0  0  0  0  0  0  0  0  0
   62.4591   63.7467   25.5919 N   0  0  0  0  0  0  0  0  0  0  0  0
   61.7756   63.2331   24.5506 C   0  0  0  0  0  0  0  0  0  0  0  0
   62.5129   61.6777   23.7363 Br  0  0  0  0  0  0  0  0  0  0  0  0
   60.6223   63.6905   24.0177 N   0  0  0  0  0  0  0  0  0  0  0  0
   60.1818   64.7908   24.6517 C   0  0  0  0  0  0  0  0  0  0  0  0
   62.3753   66.1445   27.7535 H   0  0  0  0  0  0  0  0  0  0  0  0
   63.5315   64.9065   27.5575 H   0  0  0  0  0  0  0  0  0  0  0  0
   56.2862   66.3053   22.3718 C   0  0  0  0  0  0  0  0  0  0  0  0
   57.7260   66.3607   22.5606 O   0  0  0  0  0  0  0  0  0  0  0  0
   58.1512   65.1496   23.2262 C   0  0  0  0  0  0  0  0  0  0  0  0
   56.8844   64.4144   23.6817 C   0  0  0  0  0  0  0  0  0  0  0  0
   56.9930   62.9887   23.6852 O   0  0  0  0  0  0  0  0  0  0  0  0
   55.8869   64.8537   22.6281 C   0  0  0  0  0  0  0  0  0  0  0  0
   56.1014   64.0722   21.4406 O   0  0  0  0  0  0  0  0  0  0  0  0
   57.2206   62.6795   22.7944 H   0  0  0  0  0  0  0  0  0  0  0  0
   57.0259   64.1576   21.1599 H   0  0  0  0  0  0  0  0  0  0  0  0
   55.6690   67.3283   23.3365 C   0  0  0  0  0  0  0  0  0  0  0  0
   56.9664   69.7482   23.1479 C   0  0  0  0  0  0  0  0  0  0  0  0
   55.4347   68.9681   22.5833 S   0  0  0  0  0  0  0  0  0  0  0  0
 24 25  1  0
 25 23  1  0
 14 23  1  0
 14 15  1  0
 15 16  1  0
 16  1  1  0
  1  2  1  0
  2  3  2  0
  3  4  1  0
  4  5  2  0
  5  6  1  0
  5  7  1  0
  7  8  2  0
  8  9  1  0
  8 10  1  0
 10 11  2  0
 16 17  1  0
 17 18  1  0
 17 19  1  0
 19 20  1  0
 19 14  1  0
 11  1  1  0
 11  4  1  0
  6 12  1  0
  6 13  1  0
 18 21  1  0
 20 22  1  0
M  END
> <minimizedAffinity>
-5.14789

> <CNNscore>
0.2649216354

> <CNNaffinity>
4.4592986107

> <CNN_VS>
1.1813646555

> <CNNaffinity_variance>
0.4945347011

$$$$



 25 27  0  0  0  0  0  0  0  0999 V2000
   59.1875   63.1734   18.9508 N   0  0  0  0  0  0  0  0  0  0  0  0
   58.3602   64.0011   18.2278 C   0  0  0  0  0  0  0  0  0  0  0  0
   58.9348   64.2094   16.9919 C   0  0  0  0  0  0  0  0  0  0  0  0
   60.1521   63.4777   16.9536 C   0  0  0  0  0  0  0  0  0  0  0  0
   61.1782   63.2646   16.0248 C   0  0  0  0  0  0  0  0  0  0  0  0
   61.1870   63.8145   14.7525 N   0  0  0  0  0  0  0  0  0  0  0  0
   62.2133   62.4773   16.3674 N   0  0  0  0  0  0  0  0  0  0  0  0
   62.2306   61.9305   17.5986 C   0  0  0  0  0  0  0  0  0  0  0  0
   63.7325   60.8389   18.0211 Br  0  0  0  0  0  0  0  0  0  0  0  0
   61.3070   62.0702   18.5737 N   0  0  0  0  0  0  0  0  0  0  0  0
   60.2843   62.8505   18.1839 C   0  0  0  0  0  0  0  0  0  0  0  0
   60.4478   64.3965   14.4626 H   0  0  0  0  0  0  0  0  0  0  0  0
   61.9325   63.6230   14.1387 H   0  0  0  0  0  0  0  0  0  0  0  0
   57.3890   63.3462   21.9238 C   0  0  0  0  0  0  0  0  0  0  0  0
   57.5521   62.7364   20.6148 O   0  0  0  0  0  0  0  0  0  0  0  0
   58.9636   62.6743   20.3073 C   0  0  0  0  0  0  0  0  0  0  0  0
   59.6963   63.4982   21.3737 C   0  0  0  0  0  0  0  0  0  0  0  0
   61.0040   63.0205   21.6996 O   0  0  0  0  0  0  0  0  0  0  0  0
   58.7745   63.3338   22.5660 C   0  0  0  0  0  0  0  0  0  0  0  0
   59.0234   62.0501   23.1635 O   0  0  0  0  0  0  0  0  0  0  0  0
   60.9451   62.1037   22.0107 H   0  0  0  0  0  0  0  0  0  0  0  0
   58.9198   61.3562   22.4937 H   0  0  0  0  0  0  0  0  0  0  0  0
   56.7919   64.7424   21.6954 C   0  0  0  0  0  0  0  0  0  0  0  0
   57.1984   66.6428   23.6443 C   0  0  0  0  0  0  0  0  0  0  0  0
   55.9602   65.4123   23.1688 S   0  0  0  0  0  0  0  0  0  0  0  0
 24 25  1  0
 25 23  1  0
 14 23  1  0
 14 15  1  0
 15 16  1  0
 16  1  1  0
  1  2  1  0
  2  3  2  0
  3  4  1  0
  4  5  2  0
  5  6  1  0
  5  7  1  0
  7  8  2  0
  8  9  1  0
  8 10  1  0
 10 11  2  0
 16 17  1  0
 17 18  1  0
 17 19  1  0
 19 20  1  0
 19 14  1  0
 11  1  1  0
 11  4  1  0
  6 12  1  0
  6 13  1  0
 18 21  1  0
 20 22  1  0
M  END
> <minimizedAffinity>
-4.64209

> <CNNscore>
0.2469703555

> <CNNaffinity>
4.2839894295

> <CNN_VS>
1.0580184460

> <CNNaffinity_variance>
0.3604759872

$$$$



 25 27  0  0  0  0  0  0  0  0999 V2000
   56.6400   63.3812   22.7444 N   0  0  0  0  0  0  0  0  0  0  0  0
   55.3494   63.0074   23.0391 C   0  0  0  0  0  0  0  0  0  0  0  0
   54.8706   62.2527   21.9892 C   0  0  0  0  0  0  0  0  0  0  0  0
   55.9063   62.1543   21.0216 C   0  0  0  0  0  0  0  0  0  0  0  0
   56.0703   61.5480   19.7700 C   0  0  0  0  0  0  0  0  0  0  0  0
   55.0864   60.7956   19.1478 N   0  0  0  0  0  0  0  0  0  0  0  0
   57.2446   61.6852   19.1289 N   0  0  0  0  0  0  0  0  0  0  0  0
   58.2182   62.4123   19.7107 C   0  0  0  0  0  0  0  0  0  0  0  0
   59.8486   62.5768   18.7409 Br  0  0  0  0  0  0  0  0  0  0  0  0
   58.1719   63.0447   20.9029 N   0  0  0  0  0  0  0  0  0  0  0  0
   56.9883   62.8684   21.5152 C   0  0  0  0  0  0  0  0  0  0  0  0
   54.2126   60.6709   19.5838 H   0  0  0  0  0  0  0  0  0  0  0  0
   55.2614   60.3859   18.2698 H   0  0  0  0  0  0  0  0  0  0  0  0
   57.2669   66.3417   24.4608 C   0  0  0  0  0  0  0  0  0  0  0  0
   56.7576   64.9811   24.4940 O   0  0  0  0  0  0  0  0  0  0  0  0
   57.5384   64.1736   23.5836 C   0  0  0  0  0  0  0  0  0  0  0  0
   58.4216   65.1305   22.7729 C   0  0  0  0  0  0  0  0  0  0  0  0
   59.6884   64.5896   22.3892 O   0  0  0  0  0  0  0  0  0  0  0  0
   58.6215   66.2636   23.7599 C   0  0  0  0  0  0  0  0  0  0  0  0
   59.6362   65.8764   24.7019 O   0  0  0  0  0  0  0  0  0  0  0  0
   60.1786   64.3208   23.1818 H   0  0  0  0  0  0  0  0  0  0  0  0
   59.3866   65.0372   25.1193 H   0  0  0  0  0  0  0  0  0  0  0  0
   56.2127   67.1964   23.7424 C   0  0  0  0  0  0  0  0  0  0  0  0
   55.4874   69.3845   22.2386 C   0  0  0  0  0  0  0  0  0  0  0  0
   56.7771   68.8939   23.4089 S   0  0  0  0  0  0  0  0  0  0  0  0
 24 25  1  0
 25 23  1  0
 14 23  1  0
 14 15  1  0
 15 16  1  0
 16  1  1  0
  1  2  1  0
  2  3  2  0
  3  4  1  0
  4  5  2  0
  5  6  1  0
  5  7  1  0
  7  8  2  0
  8  9  1  0
  8 10  1  0
 10 11  2  0
 16 17  1  0
 17 18  1  0
 17 19  1  0
 19 20  1  0
 19 14  1  0
 11  1  1  0
 11  4  1  0
  6 12  1  0
  6 13  1  0
 18 21  1  0
 20 22  1  0
M  END
> <minimizedAffinity>
-4.96846

> <CNNscore>
0.2461618930

> <CNNaffinity>
5.0363602638

> <CNN_VS>
1.2397599220

> <CNNaffinity_variance>
0.1137349978

$$$$



 25 27  0  0  0  0  0  0  0  0999 V2000
   59.7713   64.9800   23.8417 N   0  0  0  0  0  0  0  0  0  0  0  0
   59.0744   65.9877   24.4673 C   0  0  0  0  0  0  0  0  0  0  0  0
   59.6950   66.2573   25.6686 C   0  0  0  0  0  0  0  0  0  0  0  0
   60.8152   65.3903   25.7792 C   0  0  0  0  0  0  0  0  0  0  0  0
   61.8301   65.1596   26.7161 C   0  0  0  0  0  0  0  0  0  0  0  0
   61.9524   65.8646   27.9032 N   0  0  0  0  0  0  0  0  0  0  0  0
   62.7501   64.2128   26.4594 N   0  0  0  0  0  0  0  0  0  0  0  0
   62.6545   63.5116   25.3129 C   0  0  0  0  0  0  0  0  0  0  0  0
   63.9816   62.1777   25.0211 Br  0  0  0  0  0  0  0  0  0  0  0  0
   61.7217   63.6407   24.3452 N   0  0  0  0  0  0  0  0  0  0  0  0
   60.8331   64.6068   24.6346 C   0  0  0  0  0  0  0  0  0  0  0  0
   61.2995   66.5661   28.1286 H   0  0  0  0  0  0  0  0  0  0  0  0
   62.6923   65.6639   28.5209 H   0  0  0  0  0  0  0  0  0  0  0  0
   57.5279   64.5120   21.2243 C   0  0  0  0  0  0  0  0  0  0  0  0
   58.6250   65.2823   21.7853 O   0  0  0  0  0  0  0  0  0  0  0  0
   59.4794   64.3895   22.5359 C   0  0  0  0  0  0  0  0  0  0  0  0
   58.7492   63.0446   22.6401 C   0  0  0  0  0  0  0  0  0  0  0  0
   59.6084   61.9020   22.6680 O   0  0  0  0  0  0  0  0  0  0  0  0
   57.9333   63.0461   21.3624 C   0  0  0  0  0  0  0  0  0  0  0  0
   58.7913   62.6727   20.2709 O   0  0  0  0  0  0  0  0  0  0  0  0
   60.1560   61.8896   21.8675 H   0  0  0  0  0  0  0  0  0  0  0  0
   59.5571   63.2674   20.2436 H   0  0  0  0  0  0  0  0  0  0  0  0
   56.2612   64.9105   21.9955 C   0  0  0  0  0  0  0  0  0  0  0  0
   55.4255   66.6935   23.9185 C   0  0  0  0  0  0  0  0  0  0  0  0
   56.1136   66.7069   22.2452 S   0  0  0  0  0  0  0  0  0  0  0  0
 24 25  1  0
 25 23  1  0
 14 23  1  0
 14 15  1  0
 15 16  1  0
 16  1  1  0
  1  2  1  0
  2  3  2  0
  3  4  1  0
  4  5  2  0
  5  6  1  0
  5  7  1  0
  7  8  2  0
  8  9  1  0
  8 10  1  0
 10 11  2  0
 16 17  1  0
 17 18  1  0
 17 19  1  0
 19 20  1  0
 19 14  1  0
 11  1  1  0
 11  4  1  0
  6 12  1  0
  6 13  1  0
 18 21  1  0
 20 22  1  0
M  END
> <minimizedAffinity>
-4.70992

> <CNNscore>
0.1955334842

> <CNNaffinity>
4.5355916023

> <CNN_VS>
0.8868600130

> <CNNaffinity_variance>
0.0936528519

$$$$



 25 27  0  0  0  0  0  0  0  0999 V2000
   44.4296   76.3115   26.4705 N   0  0  0  0  0  0  0  0  0  0  0  0
   43.6111   75.2623   26.8190 C   0  0  0  0  0  0  0  0  0  0  0  0
   43.5365   74.4008   25.7451 C   0  0  0  0  0  0  0  0  0  0  0  0
   44.3434   74.9369   24.7057 C   0  0  0  0  0  0  0  0  0  0  0  0
   44.6921   74.5685   23.4004 C   0  0  0  0  0  0  0  0  0  0  0  0
   44.2453   73.4094   22.7856 N   0  0  0  0  0  0  0  0  0  0  0  0
   45.5131   75.3674   22.6958 N   0  0  0  0  0  0  0  0  0  0  0  0
   45.9617   76.5012   23.2690 C   0  0  0  0  0  0  0  0  0  0  0  0
   47.1083   77.5913   22.2094 Br  0  0  0  0  0  0  0  0  0  0  0  0
   45.6888   76.9595   24.5095 N   0  0  0  0  0  0  0  0  0  0  0  0
   44.8792   76.1241   25.1829 C   0  0  0  0  0  0  0  0  0  0  0  0
   43.6428   72.7976   23.2672 H   0  0  0  0  0  0  0  0  0  0  0  0
   44.5303   73.1980   21.8673 H   0  0  0  0  0  0  0  0  0  0  0  0
   44.5946   79.7589   26.9082 C   0  0  0  0  0  0  0  0  0  0  0  0
   43.8584   78.5233   27.1156 O   0  0  0  0  0  0  0  0  0  0  0  0
   44.8059   77.4486   27.3100 C   0  0  0  0  0  0  0  0  0  0  0  0
   46.1957   78.0035   26.9735 C   0  0  0  0  0  0  0  0  0  0  0  0
   47.2643   77.4309   27.7317 O   0  0  0  0  0  0  0  0  0  0  0  0
   46.0310   79.4662   27.3363 C   0  0  0  0  0  0  0  0  0  0  0  0
   46.1516   79.6003   28.7626 O   0  0  0  0  0  0  0  0  0  0  0  0
   47.1013   77.5716   28.6775 H   0  0  0  0  0  0  0  0  0  0  0  0
   45.5097   79.0175   29.1976 H   0  0  0  0  0  0  0  0  0  0  0  0
   44.4225   80.1393   25.4304 C   0  0  0  0  0  0  0  0  0  0  0  0
   45.6249   80.8951   23.0729 C   0  0  0  0  0  0  0  0  0  0  0  0
   45.7003   81.2908   24.8368 S   0  0  0  0  0  0  0  0  0  0  0  0
 24 25  1  0
 25 23  1  0
 14 23  1  0
 14 15  1  0
 15 16  1  0
 16  1  1  0
  1  2  1  0
  2  3  2  0
  3  4  1  0
  4  5  2  0
  5  6  1  0
  5  7  1  0
  7  8  2  0
  8  9  1  0
  8 10  1  0
 10 11  2  0
 16 17  1  0
 17 18  1  0
 17 19  1  0
 19 20  1  0
 19 14  1  0
 11  1  1  0
 11  4  1  0
  6 12  1  0
  6 13  1  0
 18 21  1  0
 20 22  1  0
M  END
> <minimizedAffinity>
-6.08996

> <CNNscore>
0.1928365678

> <CNNaffinity>
4.5897068977

> <CNN_VS>
0.8850633502

> <CNNaffinity_variance>
0.0882272497

$$$$



 25 27  0  0  0  0  0  0  0  0999 V2000
   58.7997   65.2775   25.3026 N   0  0  0  0  0  0  0  0  0  0  0  0
   59.0488   64.0170   24.8112 C   0  0  0  0  0  0  0  0  0  0  0  0
   58.3406   63.8658   23.6380 C   0  0  0  0  0  0  0  0  0  0  0  0
   57.6396   65.0782   23.3983 C   0  0  0  0  0  0  0  0  0  0  0  0
   56.7727   65.5708   22.4150 C   0  0  0  0  0  0  0  0  0  0  0  0
   56.3847   64.8434   21.3008 N   0  0  0  0  0  0  0  0  0  0  0  0
   56.2903   66.8201   22.5390 N   0  0  0  0  0  0  0  0  0  0  0  0
   56.6506   67.5492   23.6132 C   0  0  0  0  0  0  0  0  0  0  0  0
   55.9193   69.3033   23.7319 Br  0  0  0  0  0  0  0  0  0  0  0  0
   57.4685   67.1790   24.6218 N   0  0  0  0  0  0  0  0  0  0  0  0
   57.9395   65.9318   24.4499 C   0  0  0  0  0  0  0  0  0  0  0  0
   56.7156   63.9251   21.1727 H   0  0  0  0  0  0  0  0  0  0  0  0
   55.7782   65.2451   20.6374 H   0  0  0  0  0  0  0  0  0  0  0  0
   61.5820   66.4386   27.0386 C   0  0  0  0  0  0  0  0  0  0  0  0
   60.4605   66.7381   26.1644 O   0  0  0  0  0  0  0  0  0  0  0  0
   59.3568   65.8730   26.5167 C   0  0  0  0  0  0  0  0  0  0  0  0
   59.8972   64.8267   27.4996 C   0  0  0  0  0  0  0  0  0  0  0  0
   58.9498   64.3797   28.4728 O   0  0  0  0  0  0  0  0  0  0  0  0
   61.0101   65.5998   28.1794 C   0  0  0  0  0  0  0  0  0  0  0  0
   60.4285   66.4606   29.1733 O   0  0  0  0  0  0  0  0  0  0  0  0
   58.6279   65.1391   28.9833 H   0  0  0  0  0  0  0  0  0  0  0  0
   59.7590   67.0270   28.7587 H   0  0  0  0  0  0  0  0  0  0  0  0
   62.6412   65.7312   26.1807 C   0  0  0  0  0  0  0  0  0  0  0  0
   64.2389   66.9887   28.0357 C   0  0  0  0  0  0  0  0  0  0  0  0
   64.2108   65.4642   27.0617 S   0  0  0  0  0  0  0  0  0  0  0  0
 24 25  1  0
 25 23  1  0
 14 23  1  0
 14 15  1  0
 15 16  1  0
 16  1  1  0
  1  2  1  0
  2  3  2  0
  3  4  1  0
  4  5  2  0
  5  6  1  0
  5  7  1  0
  7  8  2  0
  8  9  1  0
  8 10  1  0
 10 11  2  0
 16 17  1  0
 17 18  1  0
 17 19  1  0
 19 20  1  0
 19 14  1  0
 11  1  1  0
 11  4  1  0
  6 12  1  0
  6 13  1  0
 18 21  1  0
 20 22  1  0
M  END
> <minimizedAffinity>
-5.85313

> <CNNscore>
0.1885208488

> <CNNaffinity>
4.1783657074

> <CNN_VS>
0.7877090573

> <CNNaffinity_variance>
0.2764161527

$$$$



 25 27  0  0  0  0  0  0  0  0999 V2000
   58.2733   63.1221   23.8290 N   0  0  0  0  0  0  0  0  0  0  0  0
   59.3043   62.6015   24.5761 C   0  0  0  0  0  0  0  0  0  0  0  0
   59.8391   63.6189   25.3376 C   0  0  0  0  0  0  0  0  0  0  0  0
   59.1053   64.8018   25.0529 C   0  0  0  0  0  0  0  0  0  0  0  0
   59.1318   66.1373   25.4734 C   0  0  0  0  0  0  0  0  0  0  0  0
   60.0247   66.6276   26.4134 N   0  0  0  0  0  0  0  0  0  0  0  0
   58.2415   67.0012   24.9539 N   0  0  0  0  0  0  0  0  0  0  0  0
   57.3625   66.5514   24.0374 C   0  0  0  0  0  0  0  0  0  0  0  0
   56.1409   67.8315   23.3338 Br  0  0  0  0  0  0  0  0  0  0  0  0
   57.2487   65.2959   23.5535 N   0  0  0  0  0  0  0  0  0  0  0  0
   58.1454   64.4637   24.1103 C   0  0  0  0  0  0  0  0  0  0  0  0
   60.6924   66.0277   26.8178 H   0  0  0  0  0  0  0  0  0  0  0  0
   59.9913   67.5756   26.6765 H   0  0  0  0  0  0  0  0  0  0  0  0
   57.2380   62.5747   20.5531 C   0  0  0  0  0  0  0  0  0  0  0  0
   58.1173   62.1995   21.6475 O   0  0  0  0  0  0  0  0  0  0  0  0
   57.4126   62.3975   22.8944 C   0  0  0  0  0  0  0  0  0  0  0  0
   56.1182   63.1532   22.5682 C   0  0  0  0  0  0  0  0  0  0  0  0
   55.0133   62.8347   23.4180 O   0  0  0  0  0  0  0  0  0  0  0  0
   55.8389   62.6751   21.1569 C   0  0  0  0  0  0  0  0  0  0  0  0
   55.2427   61.3687   21.2258 O   0  0  0  0  0  0  0  0  0  0  0  0
   54.8310   61.8833   23.3684 H   0  0  0  0  0  0  0  0  0  0  0  0
   55.8215   60.7754   21.7296 H   0  0  0  0  0  0  0  0  0  0  0  0
   57.7873   63.8833   19.9666 C   0  0  0  0  0  0  0  0  0  0  0  0
   60.4047   63.4051   19.2628 C   0  0  0  0  0  0  0  0  0  0  0  0
   58.7929   63.6283   18.4716 S   0  0  0  0  0  0  0  0  0  0  0  0
 24 25  1  0
 25 23  1  0
 14 23  1  0
 14 15  1  0
 15 16  1  0
 16  1  1  0
  1  2  1  0
  2  3  2  0
  3  4  1  0
  4  5  2  0
  5  6  1  0
  5  7  1  0
  7  8  2  0
  8  9  1  0
  8 10  1  0
 10 11  2  0
 16 17  1  0
 17 18  1  0
 17 19  1  0
 19 20  1  0
 19 14  1  0
 11  1  1  0
 11  4  1  0
  6 12  1  0
  6 13  1  0
 18 21  1  0
 20 22  1  0
M  END
> <minimizedAffinity>
-4.79920

> <CNNscore>
0.1749030054

> <CNNaffinity>
4.1620826721

> <CNN_VS>
0.7279607654

> <CNNaffinity_variance>
0.4059845507

$$$$



 25 27  0  0  0  0  0  0  0  0999 V2000
   57.5069   64.5978   22.0826 N   0  0  0  0  0  0  0  0  0  0  0  0
   56.3729   65.1073   21.4936 C   0  0  0  0  0  0  0  0  0  0  0  0
   56.0241   66.2620   22.1614 C   0  0  0  0  0  0  0  0  0  0  0  0
   56.9818   66.4713   23.1899 C   0  0  0  0  0  0  0  0  0  0  0  0
   57.2031   67.4259   24.1903 C   0  0  0  0  0  0  0  0  0  0  0  0
   56.3955   68.5357   24.3832 N   0  0  0  0  0  0  0  0  0  0  0  0
   58.2591   67.2773   25.0098 N   0  0  0  0  0  0  0  0  0  0  0  0
   59.0604   66.2068   24.8451 C   0  0  0  0  0  0  0  0  0  0  0  0
   60.5274   66.0520   26.0490 Br  0  0  0  0  0  0  0  0  0  0  0  0
   58.9420   65.2244   23.9263 N   0  0  0  0  0  0  0  0  0  0  0  0
   57.8848   65.4205   23.1197 C   0  0  0  0  0  0  0  0  0  0  0  0
   55.6124   68.6812   23.8045 H   0  0  0  0  0  0  0  0  0  0  0  0
   56.6049   69.1785   25.0989 H   0  0  0  0  0  0  0  0  0  0  0  0
   59.2577   62.8515   19.6355 C   0  0  0  0  0  0  0  0  0  0  0  0
   59.2983   63.7546   20.7733 O   0  0  0  0  0  0  0  0  0  0  0  0
   58.2372   63.3940   21.6869 C   0  0  0  0  0  0  0  0  0  0  0  0
   57.3507   62.3682   20.9694 C   0  0  0  0  0  0  0  0  0  0  0  0
   56.7482   61.3979   21.8296 O   0  0  0  0  0  0  0  0  0  0  0  0
   58.3528   61.6943   20.0528 C   0  0  0  0  0  0  0  0  0  0  0  0
   59.1050   60.7394   20.8202 O   0  0  0  0  0  0  0  0  0  0  0  0
   57.4404   60.9181   22.3108 H   0  0  0  0  0  0  0  0  0  0  0  0
   59.5116   61.1839   21.5805 H   0  0  0  0  0  0  0  0  0  0  0  0
   58.7564   63.6671   18.4348 C   0  0  0  0  0  0  0  0  0  0  0  0
   61.3694   63.1094   17.7742 C   0  0  0  0  0  0  0  0  0  0  0  0
   59.7973   63.4716   16.9551 S   0  0  0  0  0  0  0  0  0  0  0  0
 24 25  1  0
 25 23  1  0
 14 23  1  0
 14 15  1  0
 15 16  1  0
 16  1  1  0
  1  2  1  0
  2  3  2  0
  3  4  1  0
  4  5  2  0
  5  6  1  0
  5  7  1  0
  7  8  2  0
  8  9  1  0
  8 10  1  0
 10 11  2  0
 16 17  1  0
 17 18  1  0
 17 19  1  0
 19 20  1  0
 19 14  1  0
 11  1  1  0
 11  4  1  0
  6 12  1  0
  6 13  1  0
 18 21  1  0
 20 22  1  0
M  END
> <minimizedAffinity>
-5.24946

> <CNNscore>
0.1639873236

> <CNNaffinity>
4.0253324509

> <CNN_VS>
0.6601034999

> <CNNaffinity_variance>
0.6184338927

$$$$
