


 24 23  0  0  0  0  0  0  0  0999 V2000
   -2.7777    7.5901   19.8382 C   0  0  0  0  0  0  0  0  0  0  0  0
   -2.9755    9.1058   19.9431 C   0  0  0  0  0  0  0  0  0  0  0  0
   -1.6934    9.9365   20.0555 C   0  0  0  0  0  0  0  0  0  0  0  0
   -1.9337   11.4437   19.9382 C   0  0  0  0  0  0  0  0  0  0  0  0
   -2.5454   11.7993   18.5811 C   0  0  0  0  0  0  0  0  0  0  0  0
   -3.9307   12.4375   18.6882 C   0  0  0  0  0  0  0  0  0  0  0  0
   -4.1939   13.6582   17.7988 C   0  0  0  0  0  0  0  0  0  0  0  0
   -3.3212   14.8813   18.1079 C   0  0  0  0  0  0  0  0  0  0  0  0
   -4.0963   16.2021   18.0881 C   0  0  0  0  0  0  0  0  0  0  0  0
   -3.7287   17.1026   16.9034 C   0  0  0  0  0  0  0  0  0  0  0  0
   -4.3206   19.2552   15.6649 C   0  0  0  0  0  0  0  0  0  0  0  0
   -4.1857   18.5595   17.0102 C   0  0  0  0  0  0  0  0  0  0  0  0
   -3.5067    6.7547   20.8950 C   0  0  0  0  0  0  0  0  0  0  0  0
   -3.8352    5.3144   20.4881 C   0  0  0  0  0  0  0  0  0  0  0  0
   -5.2829    5.0588   20.0466 C   0  0  0  0  0  0  0  0  0  0  0  0
   -5.6221    3.5681   19.9830 C   0  0  0  0  0  0  0  0  0  0  0  0
   -6.3954    3.1399   18.7090 N   0  0  0  0  0  0  0  0  0  0  0  0
   -6.2046    4.2302   17.6567 C   0  0  0  0  0  0  0  0  0  0  0  0
   -5.6583    1.8895   18.1289 C   0  0  0  0  0  0  0  0  0  0  0  0
   -7.8393    2.7170   18.8955 C   0  0  0  0  0  0  0  0  0  0  0  0
   -8.3072    2.0022   20.1473 N   0  0  0  0  0  0  0  0  0  0  0  0
   -7.6642    2.5457   21.4267 C   0  0  0  0  0  0  0  0  0  0  0  0
   -9.8257    2.3312   20.2800 C   0  0  0  0  0  0  0  0  0  0  0  0
   -8.2076    0.4896   20.1386 C   0  0  0  0  0  0  0  0  0  0  0  0
 11 12  1  0
 12 10  1  0
 10  9  1  0
  9  8  1  0
  8  7  1  0
  7  6  1  0
  6  5  1  0
  5  4  1  0
  4  3  1  0
  3  2  1  0
  2  1  1  0
  1 13  1  0
 13 14  1  0
 14 15  1  0
 15 16  1  0
 16 17  1  0
 17 18  1  0
 17 19  1  0
 17 20  1  0
 20 21  1  0
 21 22  1  0
 21 23  1  0
 21 24  1  0
M  CHG 1  17   1
M  CHG 1  21   1
M  END
> <minimizedAffinity>
-5.94525

> <CNNscore>
0.8367960453

> <CNNaffinity>
6.2171211243

> <CNN_VS>
5.2024621964

> <CNNaffinity_variance>
0.5338830352

$$$$



 24 23  0  0  0  0  0  0  0  0999 V2000
   -2.7085    7.5913   20.2862 C   0  0  0  0  0  0  0  0  0  0  0  0
   -1.7790    8.7968   20.1131 C   0  0  0  0  0  0  0  0  0  0  0  0
   -2.4731   10.1426   19.8816 C   0  0  0  0  0  0  0  0  0  0  0  0
   -1.4993   11.3195   19.7824 C   0  0  0  0  0  0  0  0  0  0  0  0
   -2.2512   12.6459   19.6497 C   0  0  0  0  0  0  0  0  0  0  0  0
   -3.1498   12.7134   18.4145 C   0  0  0  0  0  0  0  0  0  0  0  0
   -4.1038   13.9102   18.3251 C   0  0  0  0  0  0  0  0  0  0  0  0
   -3.5519   15.1188   17.5583 C   0  0  0  0  0  0  0  0  0  0  0  0
   -2.9312   16.1838   18.4672 C   0  0  0  0  0  0  0  0  0  0  0  0
   -3.4083   17.6052   18.1483 C   0  0  0  0  0  0  0  0  0  0  0  0
   -4.4265   18.8746   16.1811 C   0  0  0  0  0  0  0  0  0  0  0  0
   -4.5623   17.7092   17.1482 C   0  0  0  0  0  0  0  0  0  0  0  0
   -4.2035    7.8817   20.1226 C   0  0  0  0  0  0  0  0  0  0  0  0
   -5.0635    6.6929   19.6808 C   0  0  0  0  0  0  0  0  0  0  0  0
   -4.4792    5.3028   19.9677 C   0  0  0  0  0  0  0  0  0  0  0  0
   -5.1204    4.2090   19.1111 C   0  0  0  0  0  0  0  0  0  0  0  0
   -5.9085    3.1433   19.9158 N   0  0  0  0  0  0  0  0  0  0  0  0
   -5.1606    1.8172   19.7944 C   0  0  0  0  0  0  0  0  0  0  0  0
   -5.7899    3.5338   21.4247 C   0  0  0  0  0  0  0  0  0  0  0  0
   -7.3942    3.0347   19.6341 C   0  0  0  0  0  0  0  0  0  0  0  0
   -8.0599    1.7012   19.3589 N   0  0  0  0  0  0  0  0  0  0  0  0
   -7.1843    0.7494   18.5386 C   0  0  0  0  0  0  0  0  0  0  0  0
   -8.2215    1.0139   20.7493 C   0  0  0  0  0  0  0  0  0  0  0  0
   -9.4493    1.7517   18.7548 C   0  0  0  0  0  0  0  0  0  0  0  0
 11 12  1  0
 12 10  1  0
 10  9  1  0
  9  8  1  0
  8  7  1  0
  7  6  1  0
  6  5  1  0
  5  4  1  0
  4  3  1  0
  3  2  1  0
  2  1  1  0
  1 13  1  0
 13 14  1  0
 14 15  1  0
 15 16  1  0
 16 17  1  0
 17 18  1  0
 17 19  1  0
 17 20  1  0
 20 21  1  0
 21 22  1  0
 21 23  1  0
 21 24  1  0
M  CHG 1  17   1
M  CHG 1  21   1
M  END
> <minimizedAffinity>
-6.01943

> <CNNscore>
0.8097937107

> <CNNaffinity>
6.3435149193

> <CNN_VS>
5.1369385719

> <CNNaffinity_variance>
0.4871987402

$$$$



 24 23  0  0  0  0  0  0  0  0999 V2000
   -1.9991   10.1699   19.8371 C   0  0  0  0  0  0  0  0  0  0  0  0
   -2.3729   11.3497   18.9340 C   0  0  0  0  0  0  0  0  0  0  0  0
   -3.6154   12.1405   19.3550 C   0  0  0  0  0  0  0  0  0  0  0  0
   -4.0401   13.1957   18.3306 C   0  0  0  0  0  0  0  0  0  0  0  0
   -3.2260   14.4812   18.4951 C   0  0  0  0  0  0  0  0  0  0  0  0
   -3.8796   15.7010   17.8451 C   0  0  0  0  0  0  0  0  0  0  0  0
   -3.2368   17.0615   18.1388 C   0  0  0  0  0  0  0  0  0  0  0  0
   -4.0113   18.2705   17.5987 C   0  0  0  0  0  0  0  0  0  0  0  0
   -4.3330   18.1686   16.1048 C   0  0  0  0  0  0  0  0  0  0  0  0
   -4.4767   19.5333   15.4216 C   0  0  0  0  0  0  0  0  0  0  0  0
   -5.3381   20.8837   13.4336 C   0  0  0  0  0  0  0  0  0  0  0  0
   -5.0192   19.5053   13.9907 C   0  0  0  0  0  0  0  0  0  0  0  0
   -3.1653    9.2788   20.2755 C   0  0  0  0  0  0  0  0  0  0  0  0
   -3.0211    7.7901   19.9429 C   0  0  0  0  0  0  0  0  0  0  0  0
   -3.9217    7.2675   18.8149 C   0  0  0  0  0  0  0  0  0  0  0  0
   -4.2030    5.7684   18.9360 C   0  0  0  0  0  0  0  0  0  0  0  0
   -2.9548    4.8653   18.7608 N   0  0  0  0  0  0  0  0  0  0  0  0
   -3.2960    3.4826   19.3125 C   0  0  0  0  0  0  0  0  0  0  0  0
   -2.7633    4.6479   17.2248 C   0  0  0  0  0  0  0  0  0  0  0  0
   -1.6360    5.4162   19.2663 C   0  0  0  0  0  0  0  0  0  0  0  0
   -0.7905    4.6652   20.2753 N   0  0  0  0  0  0  0  0  0  0  0  0
    0.4425    5.4511   20.7312 C   0  0  0  0  0  0  0  0  0  0  0  0
   -1.6790    4.5216   21.5487 C   0  0  0  0  0  0  0  0  0  0  0  0
   -0.3764    3.2574   19.8951 C   0  0  0  0  0  0  0  0  0  0  0  0
 11 12  1  0
 12 10  1  0
 10  9  1  0
  9  8  1  0
  8  7  1  0
  7  6  1  0
  6  5  1  0
  5  4  1  0
  4  3  1  0
  3  2  1  0
  2  1  1  0
  1 13  1  0
 13 14  1  0
 14 15  1  0
 15 16  1  0
 16 17  1  0
 17 18  1  0
 17 19  1  0
 17 20  1  0
 20 21  1  0
 21 22  1  0
 21 23  1  0
 21 24  1  0
M  CHG 1  17   1
M  CHG 1  21   1
M  END
> <minimizedAffinity>
-6.36470

> <CNNscore>
0.7633018494

> <CNNaffinity>
6.1383957863

> <CNN_VS>
4.6854486465

> <CNNaffinity_variance>
1.3550601006

$$$$



 24 23  0  0  0  0  0  0  0  0999 V2000
   -2.8765    5.0189   20.2997 C   0  0  0  0  0  0  0  0  0  0  0  0
   -2.2186    6.0993   19.4352 C   0  0  0  0  0  0  0  0  0  0  0  0
   -1.8141    7.3817   20.1688 C   0  0  0  0  0  0  0  0  0  0  0  0
   -3.0067    8.1745   20.7094 C   0  0  0  0  0  0  0  0  0  0  0  0
   -3.3529    9.3453   19.7865 C   0  0  0  0  0  0  0  0  0  0  0  0
   -2.3049   10.4585   19.7989 C   0  0  0  0  0  0  0  0  0  0  0  0
   -2.7975   11.8679   19.4505 C   0  0  0  0  0  0  0  0  0  0  0  0
   -3.9980   11.9139   18.4967 C   0  0  0  0  0  0  0  0  0  0  0  0
   -4.3828   13.3340   18.0715 C   0  0  0  0  0  0  0  0  0  0  0  0
   -3.2891   14.3693   18.3575 C   0  0  0  0  0  0  0  0  0  0  0  0
   -2.9804   16.9034   18.3823 C   0  0  0  0  0  0  0  0  0  0  0  0
   -3.3979   15.6822   17.5784 C   0  0  0  0  0  0  0  0  0  0  0  0
   -1.9178    4.1790   21.1492 C   0  0  0  0  0  0  0  0  0  0  0  0
   -2.5166    2.9077   21.7600 C   0  0  0  0  0  0  0  0  0  0  0  0
   -1.5288    1.7611   22.0172 C   0  0  0  0  0  0  0  0  0  0  0  0
   -1.8525    0.5126   21.1941 C   0  0  0  0  0  0  0  0  0  0  0  0
   -2.1295   -0.7583   22.0381 N   0  0  0  0  0  0  0  0  0  0  0  0
   -2.2091   -1.9470   21.0825 C   0  0  0  0  0  0  0  0  0  0  0  0
   -0.8509   -1.0201   22.8982 C   0  0  0  0  0  0  0  0  0  0  0  0
   -3.2806   -0.6878   23.0223 C   0  0  0  0  0  0  0  0  0  0  0  0
   -3.1075   -1.0572   24.4819 N   0  0  0  0  0  0  0  0  0  0  0  0
   -2.3847    0.0215   25.2942 C   0  0  0  0  0  0  0  0  0  0  0  0
   -4.5479   -1.1214   25.0759 C   0  0  0  0  0  0  0  0  0  0  0  0
   -2.4785   -2.4066   24.7672 C   0  0  0  0  0  0  0  0  0  0  0  0
 11 12  1  0
 12 10  1  0
 10  9  1  0
  9  8  1  0
  8  7  1  0
  7  6  1  0
  6  5  1  0
  5  4  1  0
  4  3  1  0
  3  2  1  0
  2  1  1  0
  1 13  1  0
 13 14  1  0
 14 15  1  0
 15 16  1  0
 16 17  1  0
 17 18  1  0
 17 19  1  0
 17 20  1  0
 20 21  1  0
 21 22  1  0
 21 23  1  0
 21 24  1  0
M  CHG 1  17   1
M  CHG 1  21   1
M  END
> <minimizedAffinity>
-4.83735

> <CNNscore>
0.7631571293

> <CNNaffinity>
5.9697589874

> <CNN_VS>
4.5558643341

> <CNNaffinity_variance>
0.1236144304

$$$$



 24 23  0  0  0  0  0  0  0  0999 V2000
   -2.0029    8.6909   20.0697 C   0  0  0  0  0  0  0  0  0  0  0  0
   -2.5026   10.1064   19.7632 C   0  0  0  0  0  0  0  0  0  0  0  0
   -1.5975   11.2474   20.2378 C   0  0  0  0  0  0  0  0  0  0  0  0
   -1.7673   12.5350   19.4277 C   0  0  0  0  0  0  0  0  0  0  0  0
   -3.1047   12.5444   18.6835 C   0  0  0  0  0  0  0  0  0  0  0  0
   -3.6371   13.9513   18.4098 C   0  0  0  0  0  0  0  0  0  0  0  0
   -2.6521   15.1086   18.6118 C   0  0  0  0  0  0  0  0  0  0  0  0
   -3.1892   16.4893   18.2138 C   0  0  0  0  0  0  0  0  0  0  0  0
   -4.4551   16.4246   17.3542 C   0  0  0  0  0  0  0  0  0  0  0  0
   -5.1126   17.7926   17.1403 C   0  0  0  0  0  0  0  0  0  0  0  0
   -4.3720   19.4445   15.3401 C   0  0  0  0  0  0  0  0  0  0  0  0
   -4.1651   18.9318   16.7565 C   0  0  0  0  0  0  0  0  0  0  0  0
   -3.0185    7.7643   20.7451 C   0  0  0  0  0  0  0  0  0  0  0  0
   -2.7312    6.2644   20.6187 C   0  0  0  0  0  0  0  0  0  0  0  0
   -1.2869    5.8891   20.2589 C   0  0  0  0  0  0  0  0  0  0  0  0
   -1.1960    5.0870   18.9590 C   0  0  0  0  0  0  0  0  0  0  0  0
   -0.9051    3.5768   19.1561 N   0  0  0  0  0  0  0  0  0  0  0  0
   -0.1743    3.4104   20.4868 C   0  0  0  0  0  0  0  0  0  0  0  0
   -2.2844    2.8719   19.3653 C   0  0  0  0  0  0  0  0  0  0  0  0
   -0.2431    2.8516   18.0009 C   0  0  0  0  0  0  0  0  0  0  0  0
   -1.0524    2.1418   16.9341 N   0  0  0  0  0  0  0  0  0  0  0  0
   -1.6671    3.0990   15.9085 C   0  0  0  0  0  0  0  0  0  0  0  0
   -0.0304    1.2810   16.1302 C   0  0  0  0  0  0  0  0  0  0  0  0
   -2.1160    1.1783   17.4223 C   0  0  0  0  0  0  0  0  0  0  0  0
 11 12  1  0
 12 10  1  0
 10  9  1  0
  9  8  1  0
  8  7  1  0
  7  6  1  0
  6  5  1  0
  5  4  1  0
  4  3  1  0
  3  2  1  0
  2  1  1  0
  1 13  1  0
 13 14  1  0
 14 15  1  0
 15 16  1  0
 16 17  1  0
 17 18  1  0
 17 19  1  0
 17 20  1  0
 20 21  1  0
 21 22  1  0
 21 23  1  0
 21 24  1  0
M  CHG 1  17   1
M  CHG 1  21   1
M  END
> <minimizedAffinity>
-6.10596

> <CNNscore>
0.7544184923

> <CNNaffinity>
6.1243247986

> <CNN_VS>
4.6203041077

> <CNNaffinity_variance>
0.7207079530

$$$$



 24 23  0  0  0  0  0  0  0  0999 V2000
   -2.0091   10.6911   19.8587 C   0  0  0  0  0  0  0  0  0  0  0  0
   -3.0605   11.7928   20.0256 C   0  0  0  0  0  0  0  0  0  0  0  0
   -4.0672   11.9292   18.8792 C   0  0  0  0  0  0  0  0  0  0  0  0
   -4.1550   13.3487   18.3131 C   0  0  0  0  0  0  0  0  0  0  0  0
   -2.8256   14.0893   18.4765 C   0  0  0  0  0  0  0  0  0  0  0  0
   -2.9811   15.6091   18.5393 C   0  0  0  0  0  0  0  0  0  0  0  0
   -4.1602   16.2102   17.7655 C   0  0  0  0  0  0  0  0  0  0  0  0
   -4.1340   17.7385   17.6354 C   0  0  0  0  0  0  0  0  0  0  0  0
   -4.7892   18.2506   16.3494 C   0  0  0  0  0  0  0  0  0  0  0  0
   -4.1192   19.5099   15.7881 C   0  0  0  0  0  0  0  0  0  0  0  0
   -5.2202   19.6576   13.4894 C   0  0  0  0  0  0  0  0  0  0  0  0
   -4.9698   20.3409   14.8245 C   0  0  0  0  0  0  0  0  0  0  0  0
   -2.5298    9.2565   19.9893 C   0  0  0  0  0  0  0  0  0  0  0  0
   -1.4686    8.1927   20.2893 C   0  0  0  0  0  0  0  0  0  0  0  0
   -1.7050    6.8157   19.6535 C   0  0  0  0  0  0  0  0  0  0  0  0
   -2.7719    6.0043   20.3916 C   0  0  0  0  0  0  0  0  0  0  0  0
   -2.8819    4.5259   19.9373 N   0  0  0  0  0  0  0  0  0  0  0  0
   -1.6053    4.1734   19.1767 C   0  0  0  0  0  0  0  0  0  0  0  0
   -2.8336    3.6485   21.2300 C   0  0  0  0  0  0  0  0  0  0  0  0
   -4.1534    4.1254   19.2151 C   0  0  0  0  0  0  0  0  0  0  0  0
   -5.1692    5.1524   18.7567 N   0  0  0  0  0  0  0  0  0  0  0  0
   -4.5535    6.2735   17.9142 C   0  0  0  0  0  0  0  0  0  0  0  0
   -6.1308    4.3948   17.7908 C   0  0  0  0  0  0  0  0  0  0  0  0
   -6.0500    5.7579   19.8316 C   0  0  0  0  0  0  0  0  0  0  0  0
 11 12  1  0
 12 10  1  0
 10  9  1  0
  9  8  1  0
  8  7  1  0
  7  6  1  0
  6  5  1  0
  5  4  1  0
  4  3  1  0
  3  2  1  0
  2  1  1  0
  1 13  1  0
 13 14  1  0
 14 15  1  0
 15 16  1  0
 16 17  1  0
 17 18  1  0
 17 19  1  0
 17 20  1  0
 20 21  1  0
 21 22  1  0
 21 23  1  0
 21 24  1  0
M  CHG 1  17   1
M  CHG 1  21   1
M  END
> <minimizedAffinity>
-6.65029

> <CNNscore>
0.7082544565

> <CNNaffinity>
6.2017779350

> <CNN_VS>
4.3924369812

> <CNNaffinity_variance>
1.2505985498

$$$$



 24 23  0  0  0  0  0  0  0  0999 V2000
   -1.9900    7.2922   20.1192 C   0  0  0  0  0  0  0  0  0  0  0  0
   -1.5047    8.7027   19.7696 C   0  0  0  0  0  0  0  0  0  0  0  0
   -2.4115    9.8493   20.2271 C   0  0  0  0  0  0  0  0  0  0  0  0
   -3.4951   10.2108   19.2082 C   0  0  0  0  0  0  0  0  0  0  0  0
   -3.0791   11.4211   18.3687 C   0  0  0  0  0  0  0  0  0  0  0  0
   -2.2640   12.4512   19.1511 C   0  0  0  0  0  0  0  0  0  0  0  0
   -2.6627   13.9207   18.9718 C   0  0  0  0  0  0  0  0  0  0  0  0
   -3.8364   14.1579   18.0130 C   0  0  0  0  0  0  0  0  0  0  0  0
   -3.7200   15.4633   17.2206 C   0  0  0  0  0  0  0  0  0  0  0  0
   -4.5637   16.6029   17.8032 C   0  0  0  0  0  0  0  0  0  0  0  0
   -4.2662   18.7984   16.5347 C   0  0  0  0  0  0  0  0  0  0  0  0
   -3.9166   17.9897   17.7739 C   0  0  0  0  0  0  0  0  0  0  0  0
   -0.8889    6.2475   20.3250 C   0  0  0  0  0  0  0  0  0  0  0  0
   -0.2245    5.7264   19.0463 C   0  0  0  0  0  0  0  0  0  0  0  0
   -0.4301    4.2350   18.7470 C   0  0  0  0  0  0  0  0  0  0  0  0
   -1.7967    3.7267   19.2112 C   0  0  0  0  0  0  0  0  0  0  0  0
   -2.5449    2.8556   18.1692 N   0  0  0  0  0  0  0  0  0  0  0  0
   -2.8565    3.7356   16.9605 C   0  0  0  0  0  0  0  0  0  0  0  0
   -1.5216    1.7982   17.6422 C   0  0  0  0  0  0  0  0  0  0  0  0
   -3.7357    2.0622   18.6703 C   0  0  0  0  0  0  0  0  0  0  0  0
   -3.5709    0.8679   19.5886 N   0  0  0  0  0  0  0  0  0  0  0  0
   -2.8473    1.2084   20.8948 C   0  0  0  0  0  0  0  0  0  0  0  0
   -5.0142    0.4587   20.0140 C   0  0  0  0  0  0  0  0  0  0  0  0
   -2.9487   -0.3725   18.9784 C   0  0  0  0  0  0  0  0  0  0  0  0
 11 12  1  0
 12 10  1  0
 10  9  1  0
  9  8  1  0
  8  7  1  0
  7  6  1  0
  6  5  1  0
  5  4  1  0
  4  3  1  0
  3  2  1  0
  2  1  1  0
  1 13  1  0
 13 14  1  0
 14 15  1  0
 15 16  1  0
 16 17  1  0
 17 18  1  0
 17 19  1  0
 17 20  1  0
 20 21  1  0
 21 22  1  0
 21 23  1  0
 21 24  1  0
M  CHG 1  17   1
M  CHG 1  21   1
M  END
> <minimizedAffinity>
-5.62273

> <CNNscore>
0.6986998320

> <CNNaffinity>
5.6891303062

> <CNN_VS>
3.9749944210

> <CNNaffinity_variance>
0.8050270677

$$$$



 24 23  0  0  0  0  0  0  0  0999 V2000
   -1.5452    8.4715   20.1402 C   0  0  0  0  0  0  0  0  0  0  0  0
   -1.7070    9.9870   19.9837 C   0  0  0  0  0  0  0  0  0  0  0  0
   -3.1469   10.5083   20.0203 C   0  0  0  0  0  0  0  0  0  0  0  0
   -3.6599   10.9729   18.6550 C   0  0  0  0  0  0  0  0  0  0  0  0
   -4.4723   12.2638   18.7828 C   0  0  0  0  0  0  0  0  0  0  0  0
   -3.8688   13.4393   18.0137 C   0  0  0  0  0  0  0  0  0  0  0  0
   -3.0640   14.4545   18.8336 C   0  0  0  0  0  0  0  0  0  0  0  0
   -2.6093   15.6960   18.0557 C   0  0  0  0  0  0  0  0  0  0  0  0
   -3.5811   16.1079   16.9460 C   0  0  0  0  0  0  0  0  0  0  0  0
   -4.8097   16.8628   17.4659 C   0  0  0  0  0  0  0  0  0  0  0  0
   -4.2594   18.8974   16.0253 C   0  0  0  0  0  0  0  0  0  0  0  0
   -4.7380   18.3891   17.3761 C   0  0  0  0  0  0  0  0  0  0  0  0
   -2.8499    7.6749   20.2370 C   0  0  0  0  0  0  0  0  0  0  0  0
   -2.8968    6.6147   21.3422 C   0  0  0  0  0  0  0  0  0  0  0  0
   -2.8004    5.1563   20.8731 C   0  0  0  0  0  0  0  0  0  0  0  0
   -4.0543    4.3473   21.2116 C   0  0  0  0  0  0  0  0  0  0  0  0
   -3.8152    2.8216   21.3507 N   0  0  0  0  0  0  0  0  0  0  0  0
   -3.5753    2.2557   19.9525 C   0  0  0  0  0  0  0  0  0  0  0  0
   -2.4528    2.6412   22.0954 C   0  0  0  0  0  0  0  0  0  0  0  0
   -4.8329    2.0410   22.1592 C   0  0  0  0  0  0  0  0  0  0  0  0
   -4.6479    0.5691   22.4692 N   0  0  0  0  0  0  0  0  0  0  0  0
   -5.7318    0.0082   23.3946 C   0  0  0  0  0  0  0  0  0  0  0  0
   -4.8405   -0.1765   21.1133 C   0  0  0  0  0  0  0  0  0  0  0  0
   -3.2839    0.1533   22.9836 C   0  0  0  0  0  0  0  0  0  0  0  0
 11 12  1  0
 12 10  1  0
 10  9  1  0
  9  8  1  0
  8  7  1  0
  7  6  1  0
  6  5  1  0
  5  4  1  0
  4  3  1  0
  3  2  1  0
  2  1  1  0
  1 13  1  0
 13 14  1  0
 14 15  1  0
 15 16  1  0
 16 17  1  0
 17 18  1  0
 17 19  1  0
 17 20  1  0
 20 21  1  0
 21 22  1  0
 21 23  1  0
 21 24  1  0
M  CHG 1  17   1
M  CHG 1  21   1
M  END
> <minimizedAffinity>
-5.63278

> <CNNscore>
0.6958451271

> <CNNaffinity>
6.0802750587

> <CNN_VS>
4.2309298515

> <CNNaffinity_variance>
0.6274285913

$$$$



 24 23  0  0  0  0  0  0  0  0999 V2000
   -2.4254    9.7942   19.4306 C   0  0  0  0  0  0  0  0  0  0  0  0
   -2.3870   11.3251   19.4751 C   0  0  0  0  0  0  0  0  0  0  0  0
   -3.0662   12.0407   18.3034 C   0  0  0  0  0  0  0  0  0  0  0  0
   -3.6656   13.3967   18.6845 C   0  0  0  0  0  0  0  0  0  0  0  0
   -2.5904   14.4855   18.7118 C   0  0  0  0  0  0  0  0  0  0  0  0
   -3.1136   15.8654   18.3124 C   0  0  0  0  0  0  0  0  0  0  0  0
   -4.3829   15.8952   17.4530 C   0  0  0  0  0  0  0  0  0  0  0  0
   -4.9536   17.2954   17.1944 C   0  0  0  0  0  0  0  0  0  0  0  0
   -3.8758   18.3565   16.9539 C   0  0  0  0  0  0  0  0  0  0  0  0
   -4.2804   19.4059   15.9123 C   0  0  0  0  0  0  0  0  0  0  0  0
   -5.1585   19.8809   13.5626 C   0  0  0  0  0  0  0  0  0  0  0  0
   -5.0431   18.8743   14.6964 C   0  0  0  0  0  0  0  0  0  0  0  0
   -3.5523    9.1386   20.2346 C   0  0  0  0  0  0  0  0  0  0  0  0
   -4.5052    8.2470   19.4315 C   0  0  0  0  0  0  0  0  0  0  0  0
   -4.2171    6.7403   19.4882 C   0  0  0  0  0  0  0  0  0  0  0  0
   -2.8293    6.3879   18.9487 C   0  0  0  0  0  0  0  0  0  0  0  0
   -2.0082    5.4400   19.8605 N   0  0  0  0  0  0  0  0  0  0  0  0
   -0.7828    6.2080   20.3516 C   0  0  0  0  0  0  0  0  0  0  0  0
   -2.8648    5.1891   21.1437 C   0  0  0  0  0  0  0  0  0  0  0  0
   -1.6861    4.0665   19.3053 C   0  0  0  0  0  0  0  0  0  0  0  0
   -2.7552    3.1778   18.7019 N   0  0  0  0  0  0  0  0  0  0  0  0
   -4.0657    3.1898   19.4945 C   0  0  0  0  0  0  0  0  0  0  0  0
   -3.1050    3.8138   17.3218 C   0  0  0  0  0  0  0  0  0  0  0  0
   -2.3571    1.7442   18.4114 C   0  0  0  0  0  0  0  0  0  0  0  0
 11 12  1  0
 12 10  1  0
 10  9  1  0
  9  8  1  0
  8  7  1  0
  7  6  1  0
  6  5  1  0
  5  4  1  0
  4  3  1  0
  3  2  1  0
  2  1  1  0
  1 13  1  0
 13 14  1  0
 14 15  1  0
 15 16  1  0
 16 17  1  0
 17 18  1  0
 17 19  1  0
 17 20  1  0
 20 21  1  0
 21 22  1  0
 21 23  1  0
 21 24  1  0
M  CHG 1  17   1
M  CHG 1  21   1
M  END
> <minimizedAffinity>
-5.61803

> <CNNscore>
0.6687878966

> <CNNaffinity>
6.0346074104

> <CNN_VS>
4.0358724594

> <CNNaffinity_variance>
1.4418529272

$$$$
