


 27 28  0  0  0  0  0  0  0  0999 V2000
   13.4992    2.7985   38.8741 C   0  0  0  0  0  0  0  0  0  0  0  0
   13.7468    3.4750   40.2181 C   0  0  0  0  0  0  0  0  0  0  0  0
   14.5312    4.4075   40.3911 O   0  0  0  0  0  0  0  0  0  0  0  0
   13.0680    2.8433   41.4309 C   0  0  0  0  0  0  0  0  0  0  0  0
   13.2131    3.6439   42.6051 O   0  0  0  0  0  0  0  0  0  0  0  0
   11.5791    2.6424   41.1673 C   0  0  0  0  0  0  0  0  0  0  0  0
   11.0096    1.8806   42.2374 O   0  0  0  0  0  0  0  0  0  0  0  0
   11.3382    1.8886   39.8649 C   0  0  0  0  0  0  0  0  0  0  0  0
   11.9793    2.6099   38.6691 C   0  0  0  0  0  0  0  0  0  0  0  0
   11.3349    3.8757   38.5540 O   0  0  0  0  0  0  0  0  0  0  0  0
   12.7801    4.5010   42.4677 H   0  0  0  0  0  0  0  0  0  0  0  0
   11.4380    1.0113   42.2791 H   0  0  0  0  0  0  0  0  0  0  0  0
   10.3826    3.7433   38.4258 H   0  0  0  0  0  0  0  0  0  0  0  0
   11.7199    1.7289   37.4365 C   0  0  0  0  0  0  0  0  0  0  0  0
   11.4274    0.5460   37.4291 O   0  0  0  0  0  0  0  0  0  0  0  0
   11.8156    2.4283   36.2825 O   0  0  0  0  0  0  0  0  0  0  0  0
   12.0414    3.3374   36.3030 H   0  0  0  0  0  0  0  0  0  0  0  0
   14.3115    3.3978   37.6949 C   0  0  0  0  0  0  0  0  0  0  0  0
   18.4787    2.2991   37.0855 C   0  0  0  0  0  0  0  0  0  0  0  0
   18.0739    2.9768   38.2303 C   0  0  0  0  0  0  0  0  0  0  0  0
   16.7287    3.3263   38.4035 C   0  0  0  0  0  0  0  0  0  0  0  0
   15.7501    2.9895   37.4535 C   0  0  0  0  0  0  0  0  0  0  0  0
   16.1852    2.3459   36.2800 C   0  0  0  0  0  0  0  0  0  0  0  0
   15.1279    2.0077   34.9509 Cl  0  0  0  0  0  0  0  0  0  0  0  0
   17.5308    1.9969   36.1095 C   0  0  0  0  0  0  0  0  0  0  0  0
   19.9020    0.8999   35.7944 C   0  0  0  0  0  0  0  0  0  0  0  0
   19.7535    1.9018   36.7923 O   0  0  0  0  0  0  0  0  0  0  0  0
 26 27  1  0
 27 19  1  0
 19 20  2  0
 20 21  1  0
 21 22  2  0
 22 18  1  0
  1 18  1  0
  1  2  1  0
  2  3  2  0
  2  4  1  0
  4  5  1  0
  4  6  1  0
  6  7  1  0
  6  8  1  0
  8  9  1  0
  9 10  1  0
  9 14  1  0
 14 15  2  0
 14 16  1  0
 22 23  1  0
 23 24  1  0
 23 25  2  0
 25 19  1  0
  9  1  1  0
  5 11  1  0
  7 12  1  0
 10 13  1  0
 16 17  1  0
M  END
> <minimizedAffinity>
-10.35282

> <CNNscore>
0.9891643524

> <CNNaffinity>
6.4306178093

> <CNN_VS>
6.3609380722

> <CNNaffinity_variance>
0.0291362982

$$$$



 27 28  0  0  0  0  0  0  0  0999 V2000
   13.5212    2.9241   38.8662 C   0  0  0  0  0  0  0  0  0  0  0  0
   13.6547    3.5668   40.2426 C   0  0  0  0  0  0  0  0  0  0  0  0
   14.3604    4.5454   40.4854 O   0  0  0  0  0  0  0  0  0  0  0  0
   12.9662    2.8449   41.3982 C   0  0  0  0  0  0  0  0  0  0  0  0
   12.9968    3.6103   42.6040 O   0  0  0  0  0  0  0  0  0  0  0  0
   11.5101    2.5491   41.0536 C   0  0  0  0  0  0  0  0  0  0  0  0
   10.9468    1.7103   42.0680 O   0  0  0  0  0  0  0  0  0  0  0  0
   11.3868    1.8283   39.7166 C   0  0  0  0  0  0  0  0  0  0  0  0
   12.0304    2.6363   38.5790 C   0  0  0  0  0  0  0  0  0  0  0  0
   11.3024    3.8568   38.4735 O   0  0  0  0  0  0  0  0  0  0  0  0
   12.5100    4.4391   42.4734 H   0  0  0  0  0  0  0  0  0  0  0  0
   11.4344    0.8725   42.1024 H   0  0  0  0  0  0  0  0  0  0  0  0
   10.3694    3.6622   38.2934 H   0  0  0  0  0  0  0  0  0  0  0  0
   11.8945    1.7848   37.3065 C   0  0  0  0  0  0  0  0  0  0  0  0
   11.5697    0.6123   37.2400 O   0  0  0  0  0  0  0  0  0  0  0  0
   12.1491    2.4999   36.1867 O   0  0  0  0  0  0  0  0  0  0  0  0
   12.3980    3.4008   36.2526 H   0  0  0  0  0  0  0  0  0  0  0  0
   14.3434    3.6219   37.7498 C   0  0  0  0  0  0  0  0  0  0  0  0
   18.2493    2.1168   36.5571 C   0  0  0  0  0  0  0  0  0  0  0  0
   17.1609    2.0557   35.6937 C   0  0  0  0  0  0  0  0  0  0  0  0
   15.9112    2.5402   36.1000 C   0  0  0  0  0  0  0  0  0  0  0  0
   15.7195    3.1185   37.3659 C   0  0  0  0  0  0  0  0  0  0  0  0
   16.8198    3.1290   38.2433 C   0  0  0  0  0  0  0  0  0  0  0  0
   16.7015    3.6621   39.8866 Cl  0  0  0  0  0  0  0  0  0  0  0  0
   18.0686    2.6445   37.8343 C   0  0  0  0  0  0  0  0  0  0  0  0
   19.6703    0.7794   35.1997 C   0  0  0  0  0  0  0  0  0  0  0  0
   19.5168    1.6809   36.2885 O   0  0  0  0  0  0  0  0  0  0  0  0
 26 27  1  0
 27 19  1  0
 19 20  2  0
 20 21  1  0
 21 22  2  0
 22 18  1  0
  1 18  1  0
  1  2  1  0
  2  3  2  0
  2  4  1  0
  4  5  1  0
  4  6  1  0
  6  7  1  0
  6  8  1  0
  8  9  1  0
  9 10  1  0
  9 14  1  0
 14 15  2  0
 14 16  1  0
 22 23  1  0
 23 24  1  0
 23 25  2  0
 25 19  1  0
  9  1  1  0
  5 11  1  0
  7 12  1  0
 10 13  1  0
 16 17  1  0
M  END
> <minimizedAffinity>
-10.35823

> <CNNscore>
0.9805588126

> <CNNaffinity>
6.4755024910

> <CNN_VS>
6.3496108055

> <CNNaffinity_variance>
0.1919285804

$$$$



 27 28  0  0  0  0  0  0  0  0999 V2000
   13.8855    2.8650   38.9760 C   0  0  0  0  0  0  0  0  0  0  0  0
   13.8420    3.4981   40.3625 C   0  0  0  0  0  0  0  0  0  0  0  0
   14.6589    4.3209   40.7751 O   0  0  0  0  0  0  0  0  0  0  0  0
   12.7884    2.9540   41.3241 C   0  0  0  0  0  0  0  0  0  0  0  0
   12.7082    3.7241   42.5246 O   0  0  0  0  0  0  0  0  0  0  0  0
   11.4131    2.9479   40.6644 C   0  0  0  0  0  0  0  0  0  0  0  0
   10.4866    2.2612   41.5128 O   0  0  0  0  0  0  0  0  0  0  0  0
   11.4423    2.2371   39.3167 C   0  0  0  0  0  0  0  0  0  0  0  0
   12.4663    2.8748   38.3649 C   0  0  0  0  0  0  0  0  0  0  0  0
   12.0377    4.2136   38.1310 O   0  0  0  0  0  0  0  0  0  0  0  0
   12.4372    4.6304   42.3099 H   0  0  0  0  0  0  0  0  0  0  0  0
   10.7775    1.3437   41.6335 H   0  0  0  0  0  0  0  0  0  0  0  0
   11.1466    4.2056   37.7478 H   0  0  0  0  0  0  0  0  0  0  0  0
   12.4432    2.0399   37.0744 C   0  0  0  0  0  0  0  0  0  0  0  0
   12.9721    2.3170   36.0122 O   0  0  0  0  0  0  0  0  0  0  0  0
   11.7709    0.8768   37.2334 O   0  0  0  0  0  0  0  0  0  0  0  0
   11.3689    0.6766   38.0558 H   0  0  0  0  0  0  0  0  0  0  0  0
   15.0534    3.3597   38.0812 C   0  0  0  0  0  0  0  0  0  0  0  0
   19.1063    1.9547   38.8191 C   0  0  0  0  0  0  0  0  0  0  0  0
   18.2308    2.2083   39.8694 C   0  0  0  0  0  0  0  0  0  0  0  0
   16.9329    2.6659   39.6098 C   0  0  0  0  0  0  0  0  0  0  0  0
   16.4667    2.8597   38.2988 C   0  0  0  0  0  0  0  0  0  0  0  0
   17.3808    2.6434   37.2508 C   0  0  0  0  0  0  0  0  0  0  0  0
   17.0065    2.9894   35.5959 Cl  0  0  0  0  0  0  0  0  0  0  0  0
   18.6781    2.1852   37.5131 C   0  0  0  0  0  0  0  0  0  0  0  0
   21.3908    2.2345   38.2249 C   0  0  0  0  0  0  0  0  0  0  0  0
   20.3936    1.5088   38.9325 O   0  0  0  0  0  0  0  0  0  0  0  0
 26 27  1  0
 27 19  1  0
 19 20  2  0
 20 21  1  0
 21 22  2  0
 22 18  1  0
  1 18  1  0
  1  2  1  0
  2  3  2  0
  2  4  1  0
  4  5  1  0
  4  6  1  0
  6  7  1  0
  6  8  1  0
  8  9  1  0
  9 10  1  0
  9 14  1  0
 14 15  2  0
 14 16  1  0
 22 23  1  0
 23 24  1  0
 23 25  2  0
 25 19  1  0
  9  1  1  0
  5 11  1  0
  7 12  1  0
 10 13  1  0
 16 17  1  0
M  END
> <minimizedAffinity>
-9.60077

> <CNNscore>
0.9506289363

> <CNNaffinity>
5.8297138214

> <CNN_VS>
5.5418944359

> <CNNaffinity_variance>
0.0099356128

$$$$



 27 28  0  0  0  0  0  0  0  0999 V2000
   14.5153    3.2827   38.9635 C   0  0  0  0  0  0  0  0  0  0  0  0
   14.2189    3.7189   40.3943 C   0  0  0  0  0  0  0  0  0  0  0  0
   14.9043    4.5178   41.0318 O   0  0  0  0  0  0  0  0  0  0  0  0
   13.0733    2.9974   41.0999 C   0  0  0  0  0  0  0  0  0  0  0  0
   12.7590    3.5926   42.3600 O   0  0  0  0  0  0  0  0  0  0  0  0
   11.8171    3.0124   40.2349 C   0  0  0  0  0  0  0  0  0  0  0  0
   10.8238    2.1716   40.8318 O   0  0  0  0  0  0  0  0  0  0  0  0
   12.0990    2.4934   38.8300 C   0  0  0  0  0  0  0  0  0  0  0  0
   13.2073    3.3046   38.1411 C   0  0  0  0  0  0  0  0  0  0  0  0
   12.7258    4.6398   38.0132 O   0  0  0  0  0  0  0  0  0  0  0  0
   12.4605    4.5050   42.2212 H   0  0  0  0  0  0  0  0  0  0  0  0
   11.1570    1.2619   40.8804 H   0  0  0  0  0  0  0  0  0  0  0  0
   11.9055    4.6395   37.4955 H   0  0  0  0  0  0  0  0  0  0  0  0
   13.4378    2.6525   36.7683 C   0  0  0  0  0  0  0  0  0  0  0  0
   14.5040    2.3063   36.2907 O   0  0  0  0  0  0  0  0  0  0  0  0
   12.2787    2.4487   36.1012 O   0  0  0  0  0  0  0  0  0  0  0  0
   11.4659    2.7201   36.4805 H   0  0  0  0  0  0  0  0  0  0  0  0
   15.7671    3.9518   38.3352 C   0  0  0  0  0  0  0  0  0  0  0  0
   19.4473    1.7031   37.7492 C   0  0  0  0  0  0  0  0  0  0  0  0
   18.6073    1.9984   36.6810 C   0  0  0  0  0  0  0  0  0  0  0  0
   17.4245    2.7179   36.8928 C   0  0  0  0  0  0  0  0  0  0  0  0
   17.0606    3.1814   38.1681 C   0  0  0  0  0  0  0  0  0  0  0  0
   17.8981    2.8329   39.2441 C   0  0  0  0  0  0  0  0  0  0  0  0
   17.5047    3.1935   40.8914 Cl  0  0  0  0  0  0  0  0  0  0  0  0
   19.0807    2.1138   39.0294 C   0  0  0  0  0  0  0  0  0  0  0  0
   20.5335   -0.3980   37.5126 C   0  0  0  0  0  0  0  0  0  0  0  0
   20.6242    1.0109   37.6817 O   0  0  0  0  0  0  0  0  0  0  0  0
 26 27  1  0
 27 19  1  0
 19 20  2  0
 20 21  1  0
 21 22  2  0
 22 18  1  0
  1 18  1  0
  1  2  1  0
  2  3  2  0
  2  4  1  0
  4  5  1  0
  4  6  1  0
  6  7  1  0
  6  8  1  0
  8  9  1  0
  9 10  1  0
  9 14  1  0
 14 15  2  0
 14 16  1  0
 22 23  1  0
 23 24  1  0
 23 25  2  0
 25 19  1  0
  9  1  1  0
  5 11  1  0
  7 12  1  0
 10 13  1  0
 16 17  1  0
M  END
> <minimizedAffinity>
-8.94198

> <CNNscore>
0.4402405024

> <CNNaffinity>
5.2249488831

> <CNN_VS>
2.3002340794

> <CNNaffinity_variance>
0.0879143178

$$$$



 27 28  0  0  0  0  0  0  0  0999 V2000
   14.4907    3.8459   38.5879 C   0  0  0  0  0  0  0  0  0  0  0  0
   13.8014    2.9968   37.5254 C   0  0  0  0  0  0  0  0  0  0  0  0
   14.3238    2.6543   36.4650 O   0  0  0  0  0  0  0  0  0  0  0  0
   12.3254    2.6843   37.7590 C   0  0  0  0  0  0  0  0  0  0  0  0
   11.8189    1.7439   36.8103 O   0  0  0  0  0  0  0  0  0  0  0  0
   12.1130    2.1165   39.1586 C   0  0  0  0  0  0  0  0  0  0  0  0
   10.7086    2.0126   39.4170 O   0  0  0  0  0  0  0  0  0  0  0  0
   12.7287    3.0136   40.2257 C   0  0  0  0  0  0  0  0  0  0  0  0
   14.2301    3.2313   39.9816 C   0  0  0  0  0  0  0  0  0  0  0  0
   14.8566    1.9555   40.0845 O   0  0  0  0  0  0  0  0  0  0  0  0
   12.2925    0.9027   36.9044 H   0  0  0  0  0  0  0  0  0  0  0  0
   10.3060    2.8941   39.3747 H   0  0  0  0  0  0  0  0  0  0  0  0
   14.6855    1.5812   40.9629 H   0  0  0  0  0  0  0  0  0  0  0  0
   14.7171    4.1909   41.0793 C   0  0  0  0  0  0  0  0  0  0  0  0
   15.4476    5.1559   40.9384 O   0  0  0  0  0  0  0  0  0  0  0  0
   14.2074    3.8763   42.2923 O   0  0  0  0  0  0  0  0  0  0  0  0
   13.6470    3.1313   42.3861 H   0  0  0  0  0  0  0  0  0  0  0  0
   15.9508    4.2442   38.2431 C   0  0  0  0  0  0  0  0  0  0  0  0
   19.2030    1.3776   38.6313 C   0  0  0  0  0  0  0  0  0  0  0  0
   18.6169    1.9562   39.7518 C   0  0  0  0  0  0  0  0  0  0  0  0
   17.5757    2.8811   39.6040 C   0  0  0  0  0  0  0  0  0  0  0  0
   17.0766    3.2352   38.3395 C   0  0  0  0  0  0  0  0  0  0  0  0
   17.7127    2.6761   37.2155 C   0  0  0  0  0  0  0  0  0  0  0  0
   17.3179    3.1331   35.5926 Cl  0  0  0  0  0  0  0  0  0  0  0  0
   18.7533    1.7508   37.3660 C   0  0  0  0  0  0  0  0  0  0  0  0
   20.7907    0.1326   37.3745 C   0  0  0  0  0  0  0  0  0  0  0  0
   20.2225    0.4670   38.6343 O   0  0  0  0  0  0  0  0  0  0  0  0
 26 27  1  0
 27 19  1  0
 19 20  2  0
 20 21  1  0
 21 22  2  0
 22 18  1  0
  1 18  1  0
  1  2  1  0
  2  3  2  0
  2  4  1  0
  4  5  1  0
  4  6  1  0
  6  7  1  0
  6  8  1  0
  8  9  1  0
  9 10  1  0
  9 14  1  0
 14 15  2  0
 14 16  1  0
 22 23  1  0
 23 24  1  0
 23 25  2  0
 25 19  1  0
  9  1  1  0
  5 11  1  0
  7 12  1  0
 10 13  1  0
 16 17  1  0
M  END
> <minimizedAffinity>
-8.16934

> <CNNscore>
0.4024246633

> <CNNaffinity>
4.8329706192

> <CNN_VS>
1.9449065924

> <CNNaffinity_variance>
0.2958699763

$$$$



 27 28  0  0  0  0  0  0  0  0999 V2000
   14.4293    3.3236   39.3847 C   0  0  0  0  0  0  0  0  0  0  0  0
   14.4694    2.8000   37.9531 C   0  0  0  0  0  0  0  0  0  0  0  0
   15.4789    2.3600   37.4037 O   0  0  0  0  0  0  0  0  0  0  0  0
   13.1946    2.9739   37.1312 C   0  0  0  0  0  0  0  0  0  0  0  0
   13.2698    2.2989   35.8744 O   0  0  0  0  0  0  0  0  0  0  0  0
   11.9880    2.4364   37.8938 C   0  0  0  0  0  0  0  0  0  0  0  0
   10.7916    2.7827   37.1876 O   0  0  0  0  0  0  0  0  0  0  0  0
   11.9025    3.0290   39.2952 C   0  0  0  0  0  0  0  0  0  0  0  0
   13.1825    2.7580   40.1011 C   0  0  0  0  0  0  0  0  0  0  0  0
   13.2921    1.3442   40.2426 O   0  0  0  0  0  0  0  0  0  0  0  0
   13.3678    1.3456   36.0247 H   0  0  0  0  0  0  0  0  0  0  0  0
   10.7181    3.7482   37.1301 H   0  0  0  0  0  0  0  0  0  0  0  0
   12.5041    1.0022   40.6932 H   0  0  0  0  0  0  0  0  0  0  0  0
   12.9978    3.4499   41.4612 C   0  0  0  0  0  0  0  0  0  0  0  0
   13.8742    3.7818   42.2401 O   0  0  0  0  0  0  0  0  0  0  0  0
   11.6970    3.7093   41.7272 O   0  0  0  0  0  0  0  0  0  0  0  0
   11.0334    3.4483   41.1193 H   0  0  0  0  0  0  0  0  0  0  0  0
   15.7851    3.2415   40.1360 C   0  0  0  0  0  0  0  0  0  0  0  0
   19.3638    2.0288   37.9758 C   0  0  0  0  0  0  0  0  0  0  0  0
   18.4139    2.8560   37.3865 C   0  0  0  0  0  0  0  0  0  0  0  0
   17.2663    3.2290   38.0974 C   0  0  0  0  0  0  0  0  0  0  0  0
   17.0473    2.8077   39.4196 C   0  0  0  0  0  0  0  0  0  0  0  0
   17.9952    1.9334   39.9831 C   0  0  0  0  0  0  0  0  0  0  0  0
   17.7870    1.2043   41.5399 Cl  0  0  0  0  0  0  0  0  0  0  0  0
   19.1423    1.5623   39.2703 C   0  0  0  0  0  0  0  0  0  0  0  0
   20.4337    1.1236   36.0559 C   0  0  0  0  0  0  0  0  0  0  0  0
   20.5215    1.5901   37.3961 O   0  0  0  0  0  0  0  0  0  0  0  0
 26 27  1  0
 27 19  1  0
 19 20  2  0
 20 21  1  0
 21 22  2  0
 22 18  1  0
  1 18  1  0
  1  2  1  0
  2  3  2  0
  2  4  1  0
  4  5  1  0
  4  6  1  0
  6  7  1  0
  6  8  1  0
  8  9  1  0
  9 10  1  0
  9 14  1  0
 14 15  2  0
 14 16  1  0
 22 23  1  0
 23 24  1  0
 23 25  2  0
 25 19  1  0
  9  1  1  0
  5 11  1  0
  7 12  1  0
 10 13  1  0
 16 17  1  0
M  END
> <minimizedAffinity>
-8.88963

> <CNNscore>
0.3350442946

> <CNNaffinity>
4.9090456963

> <CNN_VS>
1.6447477341

> <CNNaffinity_variance>
0.1332304627

$$$$



 27 28  0  0  0  0  0  0  0  0999 V2000
   21.2095    1.2648   39.6746 C   0  0  0  0  0  0  0  0  0  0  0  0
   20.9759    1.8869   41.0470 C   0  0  0  0  0  0  0  0  0  0  0  0
   20.5652    3.0328   41.2282 O   0  0  0  0  0  0  0  0  0  0  0  0
   21.4194    1.0599   42.2512 C   0  0  0  0  0  0  0  0  0  0  0  0
   21.0005    1.6425   43.4865 O   0  0  0  0  0  0  0  0  0  0  0  0
   20.8509   -0.3532   42.1693 C   0  0  0  0  0  0  0  0  0  0  0  0
   21.4332   -1.1560   43.2019 O   0  0  0  0  0  0  0  0  0  0  0  0
   21.1619   -1.0044   40.8270 C   0  0  0  0  0  0  0  0  0  0  0  0
   20.6262   -0.1660   39.6560 C   0  0  0  0  0  0  0  0  0  0  0  0
   19.2081   -0.1239   39.7905 O   0  0  0  0  0  0  0  0  0  0  0  0
   20.0314    1.6704   43.5186 H   0  0  0  0  0  0  0  0  0  0  0  0
   22.3939   -1.1995   43.0747 H   0  0  0  0  0  0  0  0  0  0  0  0
   18.8551   -1.0273   39.7774 H   0  0  0  0  0  0  0  0  0  0  0  0
   21.0510   -0.8908   38.3688 C   0  0  0  0  0  0  0  0  0  0  0  0
   20.3186   -1.3509   37.5105 O   0  0  0  0  0  0  0  0  0  0  0  0
   22.3963   -0.9512   38.2396 O   0  0  0  0  0  0  0  0  0  0  0  0
   22.9476   -0.5933   38.9075 H   0  0  0  0  0  0  0  0  0  0  0  0
   20.8623    2.1947   38.4812 C   0  0  0  0  0  0  0  0  0  0  0  0
   16.7424    2.5134   37.1139 C   0  0  0  0  0  0  0  0  0  0  0  0
   17.0921    2.8280   38.4226 C   0  0  0  0  0  0  0  0  0  0  0  0
   18.4229    2.7124   38.8435 C   0  0  0  0  0  0  0  0  0  0  0  0
   19.4417    2.3039   37.9668 C   0  0  0  0  0  0  0  0  0  0  0  0
   19.0623    1.9446   36.6600 C   0  0  0  0  0  0  0  0  0  0  0  0
   20.1735    1.2741   35.5136 Cl  0  0  0  0  0  0  0  0  0  0  0  0
   17.7309    2.0617   36.2414 C   0  0  0  0  0  0  0  0  0  0  0  0
   14.4274    2.9287   37.4582 C   0  0  0  0  0  0  0  0  0  0  0  0
   15.4873    2.5805   36.5766 O   0  0  0  0  0  0  0  0  0  0  0  0
 26 27  1  0
 27 19  1  0
 19 20  2  0
 20 21  1  0
 21 22  2  0
 22 18  1  0
  1 18  1  0
  1  2  1  0
  2  3  2  0
  2  4  1  0
  4  5  1  0
  4  6  1  0
  6  7  1  0
  6  8  1  0
  8  9  1  0
  9 10  1  0
  9 14  1  0
 14 15  2  0
 14 16  1  0
 22 23  1  0
 23 24  1  0
 23 25  2  0
 25 19  1  0
  9  1  1  0
  5 11  1  0
  7 12  1  0
 10 13  1  0
 16 17  1  0
M  END
> <minimizedAffinity>
-6.18424

> <CNNscore>
0.2888839841

> <CNNaffinity>
3.7482039928

> <CNN_VS>
1.0827960968

> <CNNaffinity_variance>
1.0423818827

$$$$



 27 28  0  0  0  0  0  0  0  0999 V2000
   21.5515    1.4358   38.7334 C   0  0  0  0  0  0  0  0  0  0  0  0
   21.7198   -0.0388   38.3832 C   0  0  0  0  0  0  0  0  0  0  0  0
   21.1758   -0.5910   37.4274 O   0  0  0  0  0  0  0  0  0  0  0  0
   22.5076   -0.8868   39.3787 C   0  0  0  0  0  0  0  0  0  0  0  0
   22.7619   -2.2016   38.8810 O   0  0  0  0  0  0  0  0  0  0  0  0
   23.8449   -0.2288   39.7027 C   0  0  0  0  0  0  0  0  0  0  0  0
   24.4737   -0.9415   40.7735 O   0  0  0  0  0  0  0  0  0  0  0  0
   23.6645    1.2210   40.1365 C   0  0  0  0  0  0  0  0  0  0  0  0
   22.9331    2.0435   39.0642 C   0  0  0  0  0  0  0  0  0  0  0  0
   23.7628    2.0457   37.9055 O   0  0  0  0  0  0  0  0  0  0  0  0
   23.3080   -2.1446   38.0814 H   0  0  0  0  0  0  0  0  0  0  0  0
   23.9097   -0.9041   41.5619 H   0  0  0  0  0  0  0  0  0  0  0  0
   24.6259    2.4292   38.1265 H   0  0  0  0  0  0  0  0  0  0  0  0
   22.7615    3.4584   39.6397 C   0  0  0  0  0  0  0  0  0  0  0  0
   23.3405    4.4699   39.2842 O   0  0  0  0  0  0  0  0  0  0  0  0
   21.8271    3.4998   40.6171 O   0  0  0  0  0  0  0  0  0  0  0  0
   21.3896    2.7142   40.8806 H   0  0  0  0  0  0  0  0  0  0  0  0
   20.6366    2.2260   37.7597 C   0  0  0  0  0  0  0  0  0  0  0  0
   16.4358    2.7854   38.7518 C   0  0  0  0  0  0  0  0  0  0  0  0
   17.3953    2.6322   39.7467 C   0  0  0  0  0  0  0  0  0  0  0  0
   18.7409    2.4471   39.4051 C   0  0  0  0  0  0  0  0  0  0  0  0
   19.1679    2.4335   38.0668 C   0  0  0  0  0  0  0  0  0  0  0  0
   18.1775    2.5427   37.0729 C   0  0  0  0  0  0  0  0  0  0  0  0
   18.5252    2.3857   35.3838 Cl  0  0  0  0  0  0  0  0  0  0  0  0
   16.8327    2.7284   37.4171 C   0  0  0  0  0  0  0  0  0  0  0  0
   14.3412    3.4322   37.8328 C   0  0  0  0  0  0  0  0  0  0  0  0
   15.0955    2.9709   38.9464 O   0  0  0  0  0  0  0  0  0  0  0  0
 26 27  1  0
 27 19  1  0
 19 20  2  0
 20 21  1  0
 21 22  2  0
 22 18  1  0
  1 18  1  0
  1  2  1  0
  2  3  2  0
  2  4  1  0
  4  5  1  0
  4  6  1  0
  6  7  1  0
  6  8  1  0
  8  9  1  0
  9 10  1  0
  9 14  1  0
 14 15  2  0
 14 16  1  0
 22 23  1  0
 23 24  1  0
 23 25  2  0
 25 19  1  0
  9  1  1  0
  5 11  1  0
  7 12  1  0
 10 13  1  0
 16 17  1  0
M  END
> <minimizedAffinity>
-7.03175

> <CNNscore>
0.2814264297

> <CNNaffinity>
3.5329234600

> <CNN_VS>
0.9942580462

> <CNNaffinity_variance>
0.8523373008

$$$$



 27 28  0  0  0  0  0  0  0  0999 V2000
   13.1631    3.3204   39.1009 C   0  0  0  0  0  0  0  0  0  0  0  0
   13.2392    2.5334   37.7971 C   0  0  0  0  0  0  0  0  0  0  0  0
   14.2256    2.5033   37.0617 O   0  0  0  0  0  0  0  0  0  0  0  0
   11.9485    1.8631   37.3329 C   0  0  0  0  0  0  0  0  0  0  0  0
   12.1612    1.0100   36.2070 O   0  0  0  0  0  0  0  0  0  0  0  0
   11.3421    1.0311   38.4583 C   0  0  0  0  0  0  0  0  0  0  0  0
   10.0456    0.5728   38.0597 O   0  0  0  0  0  0  0  0  0  0  0  0
   11.1870    1.8469   39.7362 C   0  0  0  0  0  0  0  0  0  0  0  0
   12.5304    2.4338   40.1969 C   0  0  0  0  0  0  0  0  0  0  0  0
   13.3837    1.3322   40.4959 O   0  0  0  0  0  0  0  0  0  0  0  0
   12.7656    0.2927   36.4544 H   0  0  0  0  0  0  0  0  0  0  0  0
    9.4703    1.3357   37.8925 H   0  0  0  0  0  0  0  0  0  0  0  0
   12.9753    0.7844   41.1844 H   0  0  0  0  0  0  0  0  0  0  0  0
   12.2338    3.2755   41.4485 C   0  0  0  0  0  0  0  0  0  0  0  0
   12.9743    3.4644   42.3975 O   0  0  0  0  0  0  0  0  0  0  0  0
   11.0137    3.8573   41.3925 O   0  0  0  0  0  0  0  0  0  0  0  0
   10.4546    3.7032   40.6565 H   0  0  0  0  0  0  0  0  0  0  0  0
   14.4624    4.0885   39.4634 C   0  0  0  0  0  0  0  0  0  0  0  0
   18.0915    1.9673   40.5924 C   0  0  0  0  0  0  0  0  0  0  0  0
   17.0818    2.2077   41.5178 C   0  0  0  0  0  0  0  0  0  0  0  0
   15.9248    2.8977   41.1349 C   0  0  0  0  0  0  0  0  0  0  0  0
   15.7338    3.3446   39.8167 C   0  0  0  0  0  0  0  0  0  0  0  0
   16.7857    3.1342   38.9058 C   0  0  0  0  0  0  0  0  0  0  0  0
   16.7668    3.7632   37.2925 Cl  0  0  0  0  0  0  0  0  0  0  0  0
   17.9415    2.4433   39.2912 C   0  0  0  0  0  0  0  0  0  0  0  0
   19.1797   -0.0792   41.1196 C   0  0  0  0  0  0  0  0  0  0  0  0
   19.2662    1.3108   40.8332 O   0  0  0  0  0  0  0  0  0  0  0  0
 26 27  1  0
 27 19  1  0
 19 20  2  0
 20 21  1  0
 21 22  2  0
 22 18  1  0
  1 18  1  0
  1  2  1  0
  2  3  2  0
  2  4  1  0
  4  5  1  0
  4  6  1  0
  6  7  1  0
  6  8  1  0
  8  9  1  0
  9 10  1  0
  9 14  1  0
 14 15  2  0
 14 16  1  0
 22 23  1  0
 23 24  1  0
 23 25  2  0
 25 19  1  0
  9  1  1  0
  5 11  1  0
  7 12  1  0
 10 13  1  0
 16 17  1  0
M  END
> <minimizedAffinity>
-8.18138

> <CNNscore>
0.2228988111

> <CNNaffinity>
4.9424886703

> <CNN_VS>
1.1016747952

> <CNNaffinity_variance>
0.0653560385

$$$$
