


 18 19  0  0  0  0  0  0  0  0999 V2000
   81.4190   71.0499   -9.0894 C   0  0  0  0  0  0  0  0  0  0  0  0
   82.4895   71.0253   -9.9879 C   0  0  0  0  0  0  0  0  0  0  0  0
   83.7548   71.5107   -9.6240 C   0  0  0  0  0  0  0  0  0  0  0  0
   83.8718   72.0169   -8.3286 C   0  0  0  0  0  0  0  0  0  0  0  0
   82.8685   72.0680   -7.4235 N   0  0  0  0  0  0  0  0  0  0  0  0
   81.6663   71.5841   -7.8207 C   0  0  0  0  0  0  0  0  0  0  0  0
   80.2758   71.6705   -6.5185 Br  0  0  0  0  0  0  0  0  0  0  0  0
   84.8006   71.4699  -10.5730 N   0  0  0  0  0  0  0  0  0  0  0  0
   84.2918   71.0475  -11.8910 C   0  0  0  0  0  0  0  0  0  0  0  0
   85.4058   70.6564  -12.8607 C   0  0  0  0  0  0  0  0  0  0  0  0
   86.1702   71.8628  -13.4022 C   0  0  0  0  0  0  0  0  0  0  0  0
   87.2668   72.3642  -12.5826 N   0  0  0  0  0  0  0  0  0  0  0  0
   87.0849   72.2884  -11.1309 C   0  0  0  0  0  0  0  0  0  0  0  0
   85.6935   72.6470  -10.5711 C   0  0  0  0  0  0  0  0  0  0  0  0
   87.4129   73.3439  -12.8259 H   0  0  0  0  0  0  0  0  0  0  0  0
   80.1580   70.5945   -9.3638 O   0  0  0  0  0  0  0  0  0  0  0  0
   79.8034   68.7550  -10.8332 C   0  0  0  0  0  0  0  0  0  0  0  0
   79.8483   70.2680  -10.7169 C   0  0  0  0  0  0  0  0  0  0  0  0
 17 18  1  0
 18 16  1  0
 16  1  1  0
  1  2  2  0
  2  3  1  0
  3  8  1  0
  8  9  1  0
  9 10  1  0
 10 11  1  0
 11 12  1  0
 12 13  1  0
 13 14  1  0
  3  4  2  0
  4  5  1  0
  5  6  2  0
  6  7  1  0
  6  1  1  0
 14  8  1  0
 12 15  1  0
M  END
> <minimizedAffinity>
-5.40322

> <CNNscore>
0.6683877707

> <CNNaffinity>
7.0782928467

> <CNN_VS>
4.7310442924

> <CNNaffinity_variance>
0.2202940434

$$$$



 18 19  0  0  0  0  0  0  0  0999 V2000
   78.7560   63.4790   -8.7453 C   0  0  0  0  0  0  0  0  0  0  0  0
   79.9622   62.8753   -9.1122 C   0  0  0  0  0  0  0  0  0  0  0  0
   80.9246   62.5315   -8.1507 C   0  0  0  0  0  0  0  0  0  0  0  0
   80.6067   62.8318   -6.8252 C   0  0  0  0  0  0  0  0  0  0  0  0
   79.4584   63.4182   -6.4181 N   0  0  0  0  0  0  0  0  0  0  0  0
   78.5587   63.7282   -7.3833 C   0  0  0  0  0  0  0  0  0  0  0  0
   76.9508   64.5520   -6.7727 Br  0  0  0  0  0  0  0  0  0  0  0  0
   82.1305   61.9305   -8.5760 N   0  0  0  0  0  0  0  0  0  0  0  0
   83.2383   62.2885   -7.6709 C   0  0  0  0  0  0  0  0  0  0  0  0
   84.6118   61.9607   -8.2542 C   0  0  0  0  0  0  0  0  0  0  0  0
   84.9187   60.4645   -8.2422 C   0  0  0  0  0  0  0  0  0  0  0  0
   84.4219   59.6858   -9.3702 N   0  0  0  0  0  0  0  0  0  0  0  0
   83.1315   60.0961   -9.9294 C   0  0  0  0  0  0  0  0  0  0  0  0
   82.0246   60.5013   -8.9352 C   0  0  0  0  0  0  0  0  0  0  0  0
   84.3326   58.7173   -9.0629 H   0  0  0  0  0  0  0  0  0  0  0  0
   77.7666   63.8417   -9.6183 O   0  0  0  0  0  0  0  0  0  0  0  0
   77.6636   66.1659  -10.1246 C   0  0  0  0  0  0  0  0  0  0  0  0
   78.0867   64.7973  -10.6271 C   0  0  0  0  0  0  0  0  0  0  0  0
 17 18  1  0
 18 16  1  0
 16  1  1  0
  1  2  2  0
  2  3  1  0
  3  8  1  0
  8  9  1  0
  9 10  1  0
 10 11  1  0
 11 12  1  0
 12 13  1  0
 13 14  1  0
  3  4  2  0
  4  5  1  0
  5  6  2  0
  6  7  1  0
  6  1  1  0
 14  8  1  0
 12 15  1  0
M  END
> <minimizedAffinity>
-4.38536

> <CNNscore>
0.5732213259

> <CNNaffinity>
4.6919989586

> <CNN_VS>
2.6895539761

> <CNNaffinity_variance>
0.1666136086

$$$$



 18 19  0  0  0  0  0  0  0  0999 V2000
   77.9154   63.9728   -9.1628 C   0  0  0  0  0  0  0  0  0  0  0  0
   76.9434   62.9950   -8.9328 C   0  0  0  0  0  0  0  0  0  0  0  0
   76.2090   62.4375   -9.9905 C   0  0  0  0  0  0  0  0  0  0  0  0
   76.5038   62.9191  -11.2670 C   0  0  0  0  0  0  0  0  0  0  0  0
   77.4294   63.8653  -11.5430 N   0  0  0  0  0  0  0  0  0  0  0  0
   78.1150   64.3708  -10.4886 C   0  0  0  0  0  0  0  0  0  0  0  0
   79.4130   65.7013  -10.9153 Br  0  0  0  0  0  0  0  0  0  0  0  0
   75.2324   61.4581   -9.7023 N   0  0  0  0  0  0  0  0  0  0  0  0
   74.3702   61.2213  -10.8749 C   0  0  0  0  0  0  0  0  0  0  0  0
   73.1020   60.4413  -10.5324 C   0  0  0  0  0  0  0  0  0  0  0  0
   73.3697   58.9601  -10.2726 C   0  0  0  0  0  0  0  0  0  0  0  0
   73.7767   58.5962   -8.9207 N   0  0  0  0  0  0  0  0  0  0  0  0
   74.6220   59.5597   -8.2114 C   0  0  0  0  0  0  0  0  0  0  0  0
   75.7398   60.2509   -9.0181 C   0  0  0  0  0  0  0  0  0  0  0  0
   74.2900   57.7166   -8.9778 H   0  0  0  0  0  0  0  0  0  0  0  0
   78.6753   64.5632   -8.1898 O   0  0  0  0  0  0  0  0  0  0  0  0
   80.6321   63.6321   -7.2034 C   0  0  0  0  0  0  0  0  0  0  0  0
   79.1214   63.7484   -7.1080 C   0  0  0  0  0  0  0  0  0  0  0  0
 17 18  1  0
 18 16  1  0
 16  1  1  0
  1  2  2  0
  2  3  1  0
  3  8  1  0
  8  9  1  0
  9 10  1  0
 10 11  1  0
 11 12  1  0
 12 13  1  0
 13 14  1  0
  3  4  2  0
  4  5  1  0
  5  6  2  0
  6  7  1  0
  6  1  1  0
 14  8  1  0
 12 15  1  0
M  END
> <minimizedAffinity>
-3.83623

> <CNNscore>
0.4584766030

> <CNNaffinity>
4.1259341240

> <CNN_VS>
1.8916442394

> <CNNaffinity_variance>
0.1761702448

$$$$



 18 19  0  0  0  0  0  0  0  0999 V2000
   77.6911   64.1803   -9.9630 C   0  0  0  0  0  0  0  0  0  0  0  0
   76.7655   63.1370  -10.0562 C   0  0  0  0  0  0  0  0  0  0  0  0
   76.4531   62.5510  -11.2923 C   0  0  0  0  0  0  0  0  0  0  0  0
   77.1123   63.0732  -12.4063 C   0  0  0  0  0  0  0  0  0  0  0  0
   78.0111   64.0827  -12.3715 N   0  0  0  0  0  0  0  0  0  0  0  0
   78.2821   64.6137  -11.1542 C   0  0  0  0  0  0  0  0  0  0  0  0
   79.5551   66.0336  -11.1429 Br  0  0  0  0  0  0  0  0  0  0  0  0
   75.5045   61.5048  -11.3319 N   0  0  0  0  0  0  0  0  0  0  0  0
   74.7374   61.4494  -10.0736 C   0  0  0  0  0  0  0  0  0  0  0  0
   73.9477   60.1512   -9.9157 C   0  0  0  0  0  0  0  0  0  0  0  0
   72.7154   60.0942  -10.8163 C   0  0  0  0  0  0  0  0  0  0  0  0
   72.9234   59.6240  -12.1806 N   0  0  0  0  0  0  0  0  0  0  0  0
   74.1928   59.9924  -12.8121 C   0  0  0  0  0  0  0  0  0  0  0  0
   74.7124   61.4250  -12.5765 C   0  0  0  0  0  0  0  0  0  0  0  0
   72.1701   60.0002  -12.7564 H   0  0  0  0  0  0  0  0  0  0  0  0
   78.0528   64.8023   -8.7990 O   0  0  0  0  0  0  0  0  0  0  0  0
   76.8945   64.6265   -6.7262 C   0  0  0  0  0  0  0  0  0  0  0  0
   77.9956   64.0430   -7.5933 C   0  0  0  0  0  0  0  0  0  0  0  0
 17 18  1  0
 18 16  1  0
 16  1  1  0
  1  2  2  0
  2  3  1  0
  3  8  1  0
  8  9  1  0
  9 10  1  0
 10 11  1  0
 11 12  1  0
 12 13  1  0
 13 14  1  0
  3  4  2  0
  4  5  1  0
  5  6  2  0
  6  7  1  0
  6  1  1  0
 14  8  1  0
 12 15  1  0
M  END
> <minimizedAffinity>
-3.74335

> <CNNscore>
0.4103571475

> <CNNaffinity>
3.8276855946

> <CNN_VS>
1.5707181692

> <CNNaffinity_variance>
0.4694658220

$$$$



 18 19  0  0  0  0  0  0  0  0999 V2000
   79.5003   61.9573   -8.1017 C   0  0  0  0  0  0  0  0  0  0  0  0
   80.6899   61.3588   -8.5267 C   0  0  0  0  0  0  0  0  0  0  0  0
   81.9276   61.7368   -7.9844 C   0  0  0  0  0  0  0  0  0  0  0  0
   81.8949   62.7376   -7.0120 C   0  0  0  0  0  0  0  0  0  0  0  0
   80.7742   63.3511   -6.5696 N   0  0  0  0  0  0  0  0  0  0  0  0
   79.6031   62.9492   -7.1210 C   0  0  0  0  0  0  0  0  0  0  0  0
   78.0436   63.8345   -6.4721 Br  0  0  0  0  0  0  0  0  0  0  0  0
   83.1008   61.1057   -8.4550 N   0  0  0  0  0  0  0  0  0  0  0  0
   84.2975   61.6970   -7.8282 C   0  0  0  0  0  0  0  0  0  0  0  0
   85.5939   61.3044   -8.5348 C   0  0  0  0  0  0  0  0  0  0  0  0
   86.0068   59.8606   -8.2558 C   0  0  0  0  0  0  0  0  0  0  0  0
   85.4119   58.8345   -9.1038 N   0  0  0  0  0  0  0  0  0  0  0  0
   84.0287   59.0607   -9.5302 C   0  0  0  0  0  0  0  0  0  0  0  0
   83.0485   59.6295   -8.4844 C   0  0  0  0  0  0  0  0  0  0  0  0
   85.4376   57.9541   -8.5894 H   0  0  0  0  0  0  0  0  0  0  0  0
   78.2554   61.6448   -8.5763 O   0  0  0  0  0  0  0  0  0  0  0  0
   76.9970   60.2357   -7.1273 C   0  0  0  0  0  0  0  0  0  0  0  0
   77.7991   60.3036   -8.4145 C   0  0  0  0  0  0  0  0  0  0  0  0
 17 18  1  0
 18 16  1  0
 16  1  1  0
  1  2  2  0
  2  3  1  0
  3  8  1  0
  8  9  1  0
  9 10  1  0
 10 11  1  0
 11 12  1  0
 12 13  1  0
 13 14  1  0
  3  4  2  0
  4  5  1  0
  5  6  2  0
  6  7  1  0
  6  1  1  0
 14  8  1  0
 12 15  1  0
M  END
> <minimizedAffinity>
-3.97364

> <CNNscore>
0.3559968174

> <CNNaffinity>
4.2904448509

> <CNN_VS>
1.5273847580

> <CNNaffinity_variance>
0.1285551488

$$$$



 18 19  0  0  0  0  0  0  0  0999 V2000
   77.5062   63.3042   -9.6644 C   0  0  0  0  0  0  0  0  0  0  0  0
   76.5361   62.8014  -10.5362 C   0  0  0  0  0  0  0  0  0  0  0  0
   75.5928   61.8559  -10.1062 C   0  0  0  0  0  0  0  0  0  0  0  0
   75.6878   61.4522   -8.7734 C   0  0  0  0  0  0  0  0  0  0  0  0
   76.6082   61.9031   -7.8915 N   0  0  0  0  0  0  0  0  0  0  0  0
   77.4954   62.8179   -8.3531 C   0  0  0  0  0  0  0  0  0  0  0  0
   78.7771   63.4326   -7.0818 Br  0  0  0  0  0  0  0  0  0  0  0  0
   74.6387   61.3741  -11.0301 N   0  0  0  0  0  0  0  0  0  0  0  0
   73.5140   60.7282  -10.3283 C   0  0  0  0  0  0  0  0  0  0  0  0
   72.6321   59.8964  -11.2582 C   0  0  0  0  0  0  0  0  0  0  0  0
   71.7433   60.7547  -12.1561 C   0  0  0  0  0  0  0  0  0  0  0  0
   72.3375   61.2354  -13.3977 N   0  0  0  0  0  0  0  0  0  0  0  0
   73.7620   61.5741  -13.3519 C   0  0  0  0  0  0  0  0  0  0  0  0
   74.2732   62.3213  -12.1034 C   0  0  0  0  0  0  0  0  0  0  0  0
   71.8287   62.0728  -13.6810 H   0  0  0  0  0  0  0  0  0  0  0  0
   78.4575   64.2279  -10.0029 O   0  0  0  0  0  0  0  0  0  0  0  0
   77.9228   66.4535   -9.3472 C   0  0  0  0  0  0  0  0  0  0  0  0
   78.0139   65.4839  -10.5119 C   0  0  0  0  0  0  0  0  0  0  0  0
 17 18  1  0
 18 16  1  0
 16  1  1  0
  1  2  2  0
  2  3  1  0
  3  8  1  0
  8  9  1  0
  9 10  1  0
 10 11  1  0
 11 12  1  0
 12 13  1  0
 13 14  1  0
  3  4  2  0
  4  5  1  0
  5  6  2  0
  6  7  1  0
  6  1  1  0
 14  8  1  0
 12 15  1  0
M  END
> <minimizedAffinity>
-3.84553

> <CNNscore>
0.3086239696

> <CNNaffinity>
3.8296706676

> <CNN_VS>
1.1819281578

> <CNNaffinity_variance>
0.5565423369

$$$$



 18 19  0  0  0  0  0  0  0  0999 V2000
   85.0776   70.7926  -10.9061 C   0  0  0  0  0  0  0  0  0  0  0  0
   84.3197   71.3148   -9.8540 C   0  0  0  0  0  0  0  0  0  0  0  0
   82.9216   71.1962   -9.8369 C   0  0  0  0  0  0  0  0  0  0  0  0
   82.3453   70.5380  -10.9245 C   0  0  0  0  0  0  0  0  0  0  0  0
   83.0312   70.0196  -11.9680 N   0  0  0  0  0  0  0  0  0  0  0  0
   84.3794   70.1562  -11.9374 C   0  0  0  0  0  0  0  0  0  0  0  0
   85.3139   69.4119  -13.4239 Br  0  0  0  0  0  0  0  0  0  0  0  0
   82.2026   71.7488   -8.7535 N   0  0  0  0  0  0  0  0  0  0  0  0
   80.9123   71.0568   -8.5777 C   0  0  0  0  0  0  0  0  0  0  0  0
   79.9521   71.8135   -7.6615 C   0  0  0  0  0  0  0  0  0  0  0  0
   80.3445   71.7232   -6.1881 C   0  0  0  0  0  0  0  0  0  0  0  0
   81.3233   72.6928   -5.7112 N   0  0  0  0  0  0  0  0  0  0  0  0
   82.3727   73.0808   -6.6569 C   0  0  0  0  0  0  0  0  0  0  0  0
   82.9926   71.9666   -7.5242 C   0  0  0  0  0  0  0  0  0  0  0  0
   81.7782   72.2954   -4.8892 H   0  0  0  0  0  0  0  0  0  0  0  0
   86.4412   70.8631  -10.9969 O   0  0  0  0  0  0  0  0  0  0  0  0
   86.7480   73.2159  -11.1950 C   0  0  0  0  0  0  0  0  0  0  0  0
   87.0008   71.8660  -11.8420 C   0  0  0  0  0  0  0  0  0  0  0  0
 17 18  1  0
 18 16  1  0
 16  1  1  0
  1  2  2  0
  2  3  1  0
  3  8  1  0
  8  9  1  0
  9 10  1  0
 10 11  1  0
 11 12  1  0
 12 13  1  0
 13 14  1  0
  3  4  2  0
  4  5  1  0
  5  6  2  0
  6  7  1  0
  6  1  1  0
 14  8  1  0
 12 15  1  0
M  END
> <minimizedAffinity>
-4.66699

> <CNNscore>
0.2903109789

> <CNNaffinity>
5.5743126869

> <CNN_VS>
1.6182842255

> <CNNaffinity_variance>
0.5498178601

$$$$



 18 19  0  0  0  0  0  0  0  0999 V2000
   78.0963   61.8852   -7.5605 C   0  0  0  0  0  0  0  0  0  0  0  0
   79.4905   61.8537   -7.6563 C   0  0  0  0  0  0  0  0  0  0  0  0
   80.1286   61.4477   -8.8382 C   0  0  0  0  0  0  0  0  0  0  0  0
   79.2938   61.0779   -9.8939 C   0  0  0  0  0  0  0  0  0  0  0  0
   77.9424   61.0859   -9.8518 N   0  0  0  0  0  0  0  0  0  0  0  0
   77.3727   61.4890   -8.6898 C   0  0  0  0  0  0  0  0  0  0  0  0
   75.4658   61.4894   -8.6673 Br  0  0  0  0  0  0  0  0  0  0  0  0
   81.5407   61.4265   -8.8793 N   0  0  0  0  0  0  0  0  0  0  0  0
   82.1059   62.2389   -7.7861 C   0  0  0  0  0  0  0  0  0  0  0  0
   83.5929   62.5351   -7.9733 C   0  0  0  0  0  0  0  0  0  0  0  0
   84.4780   61.3211   -7.6976 C   0  0  0  0  0  0  0  0  0  0  0  0
   84.6787   60.3932   -8.8041 N   0  0  0  0  0  0  0  0  0  0  0  0
   83.5414   60.1966   -9.7063 C   0  0  0  0  0  0  0  0  0  0  0  0
   82.1411   60.0899   -9.0691 C   0  0  0  0  0  0  0  0  0  0  0  0
   84.9200   59.4851   -8.4072 H   0  0  0  0  0  0  0  0  0  0  0  0
   77.3981   62.2704   -6.4484 O   0  0  0  0  0  0  0  0  0  0  0  0
   76.8840   64.5772   -6.7361 C   0  0  0  0  0  0  0  0  0  0  0  0
   77.6611   63.5656   -5.9131 C   0  0  0  0  0  0  0  0  0  0  0  0
 17 18  1  0
 18 16  1  0
 16  1  1  0
  1  2  2  0
  2  3  1  0
  3  8  1  0
  8  9  1  0
  9 10  1  0
 10 11  1  0
 11 12  1  0
 12 13  1  0
 13 14  1  0
  3  4  2  0
  4  5  1  0
  5  6  2  0
  6  7  1  0
  6  1  1  0
 14  8  1  0
 12 15  1  0
M  END
> <minimizedAffinity>
-3.84314

> <CNNscore>
0.2900797725

> <CNNaffinity>
3.8478720188

> <CNN_VS>
1.1161898375

> <CNNaffinity_variance>
0.9252086282

$$$$



 18 19  0  0  0  0  0  0  0  0999 V2000
   93.8441   70.2498  -16.2918 C   0  0  0  0  0  0  0  0  0  0  0  0
   93.6881   69.2415  -17.2473 C   0  0  0  0  0  0  0  0  0  0  0  0
   93.6922   67.8869  -16.8813 C   0  0  0  0  0  0  0  0  0  0  0  0
   93.8649   67.6156  -15.5231 C   0  0  0  0  0  0  0  0  0  0  0  0
   94.0244   68.5518  -14.5606 N   0  0  0  0  0  0  0  0  0  0  0  0
   94.0099   69.8461  -14.9631 C   0  0  0  0  0  0  0  0  0  0  0  0
   94.2356   71.1386  -13.5792 Br  0  0  0  0  0  0  0  0  0  0  0  0
   93.5387   66.9072  -17.8877 N   0  0  0  0  0  0  0  0  0  0  0  0
   92.9901   65.6609  -17.3218 C   0  0  0  0  0  0  0  0  0  0  0  0
   93.1192   64.4701  -18.2703 C   0  0  0  0  0  0  0  0  0  0  0  0
   92.1283   64.5275  -19.4313 C   0  0  0  0  0  0  0  0  0  0  0  0
   92.5305   65.3057  -20.5967 N   0  0  0  0  0  0  0  0  0  0  0  0
   93.3209   66.5113  -20.3361 C   0  0  0  0  0  0  0  0  0  0  0  0
   92.9065   67.3848  -19.1347 C   0  0  0  0  0  0  0  0  0  0  0  0
   91.6826   65.5910  -21.0867 H   0  0  0  0  0  0  0  0  0  0  0  0
   93.8486   71.5908  -16.5647 O   0  0  0  0  0  0  0  0  0  0  0  0
   94.1618   72.7574  -18.6165 C   0  0  0  0  0  0  0  0  0  0  0  0
   94.8553   72.0876  -17.4439 C   0  0  0  0  0  0  0  0  0  0  0  0
 17 18  1  0
 18 16  1  0
 16  1  1  0
  1  2  2  0
  2  3  1  0
  3  8  1  0
  8  9  1  0
  9 10  1  0
 10 11  1  0
 11 12  1  0
 12 13  1  0
 13 14  1  0
  3  4  2  0
  4  5  1  0
  5  6  2  0
  6  7  1  0
  6  1  1  0
 14  8  1  0
 12 15  1  0
M  END
> <minimizedAffinity>
-4.01922

> <CNNscore>
0.2739896774

> <CNNaffinity>
3.6125857830

> <CNN_VS>
0.9898112416

> <CNNaffinity_variance>
0.8198329806

$$$$
