


 36 39  0  0  0  0  0  0  0  0999 V2000
   10.0461   53.6829   93.0170 C   0  0  0  0  0  0  0  0  0  0  0  0
    9.0420   53.7099   92.3024 O   0  0  0  0  0  0  0  0  0  0  0  0
   11.2718   53.3176   92.4895 N   0  0  0  0  0  0  0  0  0  0  0  0
   12.5735   53.4275   93.1474 C   0  0  0  0  0  0  0  0  0  0  0  0
   13.5461   53.8236   92.0333 C   0  0  0  0  0  0  0  0  0  0  0  0
   12.9529   53.1320   90.8146 C   0  0  0  0  0  0  0  0  0  0  0  0
   11.4379   53.2430   91.0248 C   0  0  0  0  0  0  0  0  0  0  0  0
   11.4861   55.7961   94.8503 C   0  0  0  0  0  0  0  0  0  0  0  0
    9.9889   55.4755   94.7950 C   0  0  0  0  0  0  0  0  0  0  0  0
    9.9646   53.9687   94.5376 C   0  0  0  0  0  0  0  0  0  0  0  0
   11.1492   53.4862   95.2521 N   0  0  0  0  0  0  0  0  0  0  0  0
   11.4151   52.2018   95.6636 C   0  0  0  0  0  0  0  0  0  0  0  0
   10.4055   51.1410   95.3026 C   0  0  0  0  0  0  0  0  0  0  0  0
   12.4118   51.9226   96.3302 O   0  0  0  0  0  0  0  0  0  0  0  0
   12.0518   54.5770   95.5813 C   0  0  0  0  0  0  0  0  0  0  0  0
   10.4304   57.6087   95.9469 C   0  0  0  0  0  0  0  0  0  0  0  0
   11.6654   57.0267   95.5401 O   0  0  0  0  0  0  0  0  0  0  0  0
   10.7669   52.0363   90.3411 C   0  0  0  0  0  0  0  0  0  0  0  0
   10.0019   51.2889   90.9502 O   0  0  0  0  0  0  0  0  0  0  0  0
   10.9604   51.9610   88.9793 N   0  0  0  0  0  0  0  0  0  0  0  0
   11.5047   52.6505   88.5348 H   0  0  0  0  0  0  0  0  0  0  0  0
   10.3883   50.9009   88.1859 C   0  0  0  0  0  0  0  0  0  0  0  0
   11.4101   49.8260   87.9115 C   0  0  0  0  0  0  0  0  0  0  0  0
   11.6139   49.3405   86.6121 C   0  0  0  0  0  0  0  0  0  0  0  0
   12.5294   48.3097   86.3752 C   0  0  0  0  0  0  0  0  0  0  0  0
   13.2553   47.7476   87.4329 C   0  0  0  0  0  0  0  0  0  0  0  0
   13.0537   48.2328   88.7314 C   0  0  0  0  0  0  0  0  0  0  0  0
   12.1352   49.2588   88.9686 C   0  0  0  0  0  0  0  0  0  0  0  0
   14.1805   46.6462   87.1813 C   0  0  0  0  0  0  0  0  0  0  0  0
   15.8466   46.9585   86.9077 S   0  0  0  0  0  0  0  0  0  0  0  0
   16.1117   45.2794   86.7056 C   0  0  0  0  0  0  0  0  0  0  0  0
   15.0558   44.5066   86.8201 N   0  0  0  0  0  0  0  0  0  0  0  0
   13.9418   45.2815   87.1056 C   0  0  0  0  0  0  0  0  0  0  0  0
   12.6381   44.5935   87.3003 C   0  0  0  0  0  0  0  0  0  0  0  0
   13.5208   55.2370   91.8066 O   0  0  0  0  0  0  0  0  0  0  0  0
   14.0982   55.6046   90.5597 C   0  0  0  0  0  0  0  0  0  0  0  0
 16 17  1  0
  8 17  1  0
  8  9  1  0
  9 10  1  0
 10  1  1  0
  1  2  2  0
  1  3  1  0
  3  4  1  0
  4  5  1  0
  5 35  1  0
 35 36  1  0
  5  6  1  0
  6  7  1  0
  7 18  1  0
 18 19  2  0
 18 20  1  0
 20 22  1  0
 22 23  1  0
 23 24  2  0
 24 25  1  0
 25 26  2  0
 26 29  1  0
 29 30  1  0
 30 31  1  0
 31 32  2  0
 32 33  1  0
 33 34  1  0
 26 27  1  0
 27 28  2  0
 10 11  1  0
 11 12  1  0
 12 13  1  0
 12 14  2  0
 11 15  1  0
 15  8  1  0
  7  3  1  0
 28 23  1  0
 33 29  2  0
 20 21  1  0
M  END
> <minimizedAffinity>
-5.75385

> <CNNscore>
0.8284501433

> <CNNaffinity>
6.1697196960

> <CNN_VS>
5.1113052368

> <CNNaffinity_variance>
0.1861786693

$$$$



 36 39  0  0  0  0  0  0  0  0999 V2000
   11.2064   54.3863   93.9535 C   0  0  0  0  0  0  0  0  0  0  0  0
   10.0081   54.6433   93.8207 O   0  0  0  0  0  0  0  0  0  0  0  0
   11.9297   53.8541   92.9011 N   0  0  0  0  0  0  0  0  0  0  0  0
   13.3809   53.6838   92.8364 C   0  0  0  0  0  0  0  0  0  0  0  0
   13.7492   53.9884   91.3819 C   0  0  0  0  0  0  0  0  0  0  0  0
   12.5219   53.5071   90.6219 C   0  0  0  0  0  0  0  0  0  0  0  0
   11.3498   53.8646   91.5439 C   0  0  0  0  0  0  0  0  0  0  0  0
   10.9001   52.9092   96.7148 C   0  0  0  0  0  0  0  0  0  0  0  0
   12.1963   53.2012   95.9519 C   0  0  0  0  0  0  0  0  0  0  0  0
   11.9258   54.5640   95.3143 C   0  0  0  0  0  0  0  0  0  0  0  0
   11.0764   55.2348   96.3019 N   0  0  0  0  0  0  0  0  0  0  0  0
   10.8386   56.5831   96.4257 C   0  0  0  0  0  0  0  0  0  0  0  0
   11.4767   57.4908   95.4041 C   0  0  0  0  0  0  0  0  0  0  0  0
   10.1661   57.0458   97.3474 O   0  0  0  0  0  0  0  0  0  0  0  0
   10.5264   54.2893   97.2591 C   0  0  0  0  0  0  0  0  0  0  0  0
   12.4927   51.4192   97.6347 C   0  0  0  0  0  0  0  0  0  0  0  0
   11.1685   51.9380   97.7183 O   0  0  0  0  0  0  0  0  0  0  0  0
   10.2166   52.8500   91.2980 C   0  0  0  0  0  0  0  0  0  0  0  0
   10.4152   51.6358   91.3316 O   0  0  0  0  0  0  0  0  0  0  0  0
    8.9573   53.4002   91.2032 N   0  0  0  0  0  0  0  0  0  0  0  0
    8.8544   54.3759   91.2843 H   0  0  0  0  0  0  0  0  0  0  0  0
    7.7851   52.5876   90.9883 C   0  0  0  0  0  0  0  0  0  0  0  0
    6.8370   53.2588   90.0264 C   0  0  0  0  0  0  0  0  0  0  0  0
    7.3014   54.1958   89.0926 C   0  0  0  0  0  0  0  0  0  0  0  0
    6.4074   54.8485   88.2374 C   0  0  0  0  0  0  0  0  0  0  0  0
    5.0352   54.5755   88.3019 C   0  0  0  0  0  0  0  0  0  0  0  0
    4.5700   53.6383   89.2333 C   0  0  0  0  0  0  0  0  0  0  0  0
    5.4626   52.9905   90.0912 C   0  0  0  0  0  0  0  0  0  0  0  0
    4.1055   55.2897   87.4314 C   0  0  0  0  0  0  0  0  0  0  0  0
    3.4088   56.7747   87.9393 S   0  0  0  0  0  0  0  0  0  0  0  0
    2.5413   56.8533   86.4655 C   0  0  0  0  0  0  0  0  0  0  0  0
    2.7259   55.8576   85.6289 N   0  0  0  0  0  0  0  0  0  0  0  0
    3.6329   54.9587   86.1696 C   0  0  0  0  0  0  0  0  0  0  0  0
    4.0024   53.7637   85.3657 C   0  0  0  0  0  0  0  0  0  0  0  0
   13.8867   55.3977   91.1701 O   0  0  0  0  0  0  0  0  0  0  0  0
   14.3115   55.7169   89.8508 C   0  0  0  0  0  0  0  0  0  0  0  0
 16 17  1  0
  8 17  1  0
  8  9  1  0
  9 10  1  0
 10  1  1  0
  1  2  2  0
  1  3  1  0
  3  4  1  0
  4  5  1  0
  5 35  1  0
 35 36  1  0
  5  6  1  0
  6  7  1  0
  7 18  1  0
 18 19  2  0
 18 20  1  0
 20 22  1  0
 22 23  1  0
 23 24  2  0
 24 25  1  0
 25 26  2  0
 26 29  1  0
 29 30  1  0
 30 31  1  0
 31 32  2  0
 32 33  1  0
 33 34  1  0
 26 27  1  0
 27 28  2  0
 10 11  1  0
 11 12  1  0
 12 13  1  0
 12 14  2  0
 11 15  1  0
 15  8  1  0
  7  3  1  0
 28 23  1  0
 33 29  2  0
 20 21  1  0
M  END
> <minimizedAffinity>
-5.96409

> <CNNscore>
0.7373802662

> <CNNaffinity>
6.2868976593

> <CNN_VS>
4.6358342171

> <CNNaffinity_variance>
0.0426990986

$$$$



 36 39  0  0  0  0  0  0  0  0999 V2000
    9.9385   53.3660   92.3403 C   0  0  0  0  0  0  0  0  0  0  0  0
    8.8375   53.6227   91.8491 O   0  0  0  0  0  0  0  0  0  0  0  0
   11.0445   53.1910   91.5279 N   0  0  0  0  0  0  0  0  0  0  0  0
   12.4375   53.0820   91.9603 C   0  0  0  0  0  0  0  0  0  0  0  0
   13.2427   53.8173   90.8855 C   0  0  0  0  0  0  0  0  0  0  0  0
   12.4288   53.5573   89.6264 C   0  0  0  0  0  0  0  0  0  0  0  0
   10.9739   53.5943   90.1098 C   0  0  0  0  0  0  0  0  0  0  0  0
   11.4389   55.0182   94.5583 C   0  0  0  0  0  0  0  0  0  0  0  0
   10.0069   54.4757   94.6079 C   0  0  0  0  0  0  0  0  0  0  0  0
   10.1127   53.1444   93.8639 C   0  0  0  0  0  0  0  0  0  0  0  0
   11.4597   52.6767   94.2010 N   0  0  0  0  0  0  0  0  0  0  0  0
   11.9485   51.3948   94.1143 C   0  0  0  0  0  0  0  0  0  0  0  0
   11.0216   50.3411   93.5617 C   0  0  0  0  0  0  0  0  0  0  0  0
   13.0792   51.0993   94.5016 O   0  0  0  0  0  0  0  0  0  0  0  0
   12.2727   53.7498   94.7491 C   0  0  0  0  0  0  0  0  0  0  0  0
   11.4038   57.3160   95.1252 C   0  0  0  0  0  0  0  0  0  0  0  0
   11.5985   55.9835   95.5902 O   0  0  0  0  0  0  0  0  0  0  0  0
   10.1398   52.6738   89.1983 C   0  0  0  0  0  0  0  0  0  0  0  0
    8.9196   52.5713   89.3228 O   0  0  0  0  0  0  0  0  0  0  0  0
   10.8348   52.1136   88.1492 N   0  0  0  0  0  0  0  0  0  0  0  0
   11.7930   52.3159   88.0481 H   0  0  0  0  0  0  0  0  0  0  0  0
   10.1989   51.2391   87.1945 C   0  0  0  0  0  0  0  0  0  0  0  0
   11.0154   51.1420   85.9302 C   0  0  0  0  0  0  0  0  0  0  0  0
   11.6649   49.9494   85.5817 C   0  0  0  0  0  0  0  0  0  0  0  0
   12.4592   49.8837   84.4321 C   0  0  0  0  0  0  0  0  0  0  0  0
   12.6173   51.0086   83.6128 C   0  0  0  0  0  0  0  0  0  0  0  0
   11.9676   52.2004   83.9591 C   0  0  0  0  0  0  0  0  0  0  0  0
   11.1787   52.2673   85.1104 C   0  0  0  0  0  0  0  0  0  0  0  0
   13.4790   50.9413   82.4359 C   0  0  0  0  0  0  0  0  0  0  0  0
   13.0276   49.9831   81.0844 S   0  0  0  0  0  0  0  0  0  0  0  0
   14.4763   50.4413   80.2959 C   0  0  0  0  0  0  0  0  0  0  0  0
   15.2712   51.2466   80.9630 N   0  0  0  0  0  0  0  0  0  0  0  0
   14.7014   51.5499   82.1903 C   0  0  0  0  0  0  0  0  0  0  0  0
   15.4337   52.4741   83.0961 C   0  0  0  0  0  0  0  0  0  0  0  0
   13.2582   55.2281   91.1292 O   0  0  0  0  0  0  0  0  0  0  0  0
   13.8533   55.9633   90.0669 C   0  0  0  0  0  0  0  0  0  0  0  0
 16 17  1  0
  8 17  1  0
  8  9  1  0
  9 10  1  0
 10  1  1  0
  1  2  2  0
  1  3  1  0
  3  4  1  0
  4  5  1  0
  5 35  1  0
 35 36  1  0
  5  6  1  0
  6  7  1  0
  7 18  1  0
 18 19  2  0
 18 20  1  0
 20 22  1  0
 22 23  1  0
 23 24  2  0
 24 25  1  0
 25 26  2  0
 26 29  1  0
 29 30  1  0
 30 31  1  0
 31 32  2  0
 32 33  1  0
 33 34  1  0
 26 27  1  0
 27 28  2  0
 10 11  1  0
 11 12  1  0
 12 13  1  0
 12 14  2  0
 11 15  1  0
 15  8  1  0
  7  3  1  0
 28 23  1  0
 33 29  2  0
 20 21  1  0
M  END
> <minimizedAffinity>
-7.56216

> <CNNscore>
0.5809854865

> <CNNaffinity>
6.1345963478

> <CNN_VS>
3.5641114712

> <CNNaffinity_variance>
0.6425318122

$$$$



 36 39  0  0  0  0  0  0  0  0999 V2000
   11.1089   50.8457   88.1494 C   0  0  0  0  0  0  0  0  0  0  0  0
   10.9459   51.4468   87.0856 O   0  0  0  0  0  0  0  0  0  0  0  0
   11.5765   51.5138   89.2670 N   0  0  0  0  0  0  0  0  0  0  0  0
   11.6321   50.9967   90.6341 C   0  0  0  0  0  0  0  0  0  0  0  0
   11.2909   52.1956   91.5232 C   0  0  0  0  0  0  0  0  0  0  0  0
   11.8625   53.3652   90.7354 C   0  0  0  0  0  0  0  0  0  0  0  0
   11.6035   52.9895   89.2714 C   0  0  0  0  0  0  0  0  0  0  0  0
   12.4848   48.4008   86.7247 C   0  0  0  0  0  0  0  0  0  0  0  0
   12.2227   48.5804   88.2236 C   0  0  0  0  0  0  0  0  0  0  0  0
   10.8834   49.3166   88.2573 C   0  0  0  0  0  0  0  0  0  0  0  0
   10.1758   48.7815   87.0912 N   0  0  0  0  0  0  0  0  0  0  0  0
    8.8236   48.8086   86.8456 C   0  0  0  0  0  0  0  0  0  0  0  0
    7.9545   49.5117   87.8580 C   0  0  0  0  0  0  0  0  0  0  0  0
    8.3267   48.2550   85.8645 O   0  0  0  0  0  0  0  0  0  0  0  0
   11.0852   48.1002   86.1848 C   0  0  0  0  0  0  0  0  0  0  0  0
   14.3973   47.3010   87.5821 C   0  0  0  0  0  0  0  0  0  0  0  0
   13.4195   47.3439   86.5470 O   0  0  0  0  0  0  0  0  0  0  0  0
   12.7024   53.6361   88.4063 C   0  0  0  0  0  0  0  0  0  0  0  0
   13.7478   54.0612   88.8976 O   0  0  0  0  0  0  0  0  0  0  0  0
   12.4941   53.5518   87.0473 N   0  0  0  0  0  0  0  0  0  0  0  0
   11.6802   53.1087   86.7149 H   0  0  0  0  0  0  0  0  0  0  0  0
   13.4342   54.0941   86.0973 C   0  0  0  0  0  0  0  0  0  0  0  0
   13.4736   53.2557   84.8442 C   0  0  0  0  0  0  0  0  0  0  0  0
   12.3725   52.4752   84.4646 C   0  0  0  0  0  0  0  0  0  0  0  0
   12.4363   51.6638   83.3270 C   0  0  0  0  0  0  0  0  0  0  0  0
   13.6014   51.6192   82.5509 C   0  0  0  0  0  0  0  0  0  0  0  0
   14.7017   52.3998   82.9282 C   0  0  0  0  0  0  0  0  0  0  0  0
   14.6396   53.2061   84.0677 C   0  0  0  0  0  0  0  0  0  0  0  0
   13.6719   50.7403   81.3869 C   0  0  0  0  0  0  0  0  0  0  0  0
   12.5030   49.5027   81.1628 S   0  0  0  0  0  0  0  0  0  0  0  0
   13.3047   49.0277   79.7267 C   0  0  0  0  0  0  0  0  0  0  0  0
   14.3770   49.7149   79.4055 N   0  0  0  0  0  0  0  0  0  0  0  0
   14.5904   50.7100   80.3474 C   0  0  0  0  0  0  0  0  0  0  0  0
   15.7477   51.6234   80.1551 C   0  0  0  0  0  0  0  0  0  0  0  0
    9.8740   52.3719   91.6279 O   0  0  0  0  0  0  0  0  0  0  0  0
    9.1807   51.1468   91.8318 C   0  0  0  0  0  0  0  0  0  0  0  0
 16 17  1  0
  8 17  1  0
  8  9  1  0
  9 10  1  0
 10  1  1  0
  1  2  2  0
  1  3  1  0
  3  4  1  0
  4  5  1  0
  5 35  1  0
 35 36  1  0
  5  6  1  0
  6  7  1  0
  7 18  1  0
 18 19  2  0
 18 20  1  0
 20 22  1  0
 22 23  1  0
 23 24  2  0
 24 25  1  0
 25 26  2  0
 26 29  1  0
 29 30  1  0
 30 31  1  0
 31 32  2  0
 32 33  1  0
 33 34  1  0
 26 27  1  0
 27 28  2  0
 10 11  1  0
 11 12  1  0
 12 13  1  0
 12 14  2  0
 11 15  1  0
 15  8  1  0
  7  3  1  0
 28 23  1  0
 33 29  2  0
 20 21  1  0
M  END
> <minimizedAffinity>
-8.44984

> <CNNscore>
0.5453406572

> <CNNaffinity>
6.3976626396

> <CNN_VS>
3.4889054298

> <CNNaffinity_variance>
0.2482074946

$$$$



 36 39  0  0  0  0  0  0  0  0999 V2000
   11.6329   53.4006   93.2814 C   0  0  0  0  0  0  0  0  0  0  0  0
   10.6746   54.1688   93.1760 O   0  0  0  0  0  0  0  0  0  0  0  0
   12.0471   52.9639   94.5271 N   0  0  0  0  0  0  0  0  0  0  0  0
   13.0241   51.9110   94.8032 C   0  0  0  0  0  0  0  0  0  0  0  0
   12.4861   51.1889   96.0415 C   0  0  0  0  0  0  0  0  0  0  0  0
   11.7891   52.3083   96.8007 C   0  0  0  0  0  0  0  0  0  0  0  0
   11.1747   53.1791   95.6981 C   0  0  0  0  0  0  0  0  0  0  0  0
   13.5045   54.9983   91.3206 C   0  0  0  0  0  0  0  0  0  0  0  0
   13.8119   53.6784   92.0353 C   0  0  0  0  0  0  0  0  0  0  0  0
   12.4600   52.9648   92.0457 C   0  0  0  0  0  0  0  0  0  0  0  0
   11.8416   53.3973   90.7898 N   0  0  0  0  0  0  0  0  0  0  0  0
   10.8047   52.7974   90.1154 C   0  0  0  0  0  0  0  0  0  0  0  0
   10.1833   51.5795   90.7521 C   0  0  0  0  0  0  0  0  0  0  0  0
   10.4150   53.2047   89.0209 O   0  0  0  0  0  0  0  0  0  0  0  0
   12.5193   54.5579   90.2362 C   0  0  0  0  0  0  0  0  0  0  0  0
   14.9215   55.2487   89.4412 C   0  0  0  0  0  0  0  0  0  0  0  0
   14.7198   55.5418   90.8207 O   0  0  0  0  0  0  0  0  0  0  0  0
   11.1013   54.6291   96.2139 C   0  0  0  0  0  0  0  0  0  0  0  0
   11.8336   55.5129   95.7697 O   0  0  0  0  0  0  0  0  0  0  0  0
   10.0585   54.8845   97.0770 N   0  0  0  0  0  0  0  0  0  0  0  0
    9.4457   54.1522   97.3164 H   0  0  0  0  0  0  0  0  0  0  0  0
    9.8388   56.1942   97.6399 C   0  0  0  0  0  0  0  0  0  0  0  0
    8.5265   56.7674   97.1668 C   0  0  0  0  0  0  0  0  0  0  0  0
    8.4660   57.5874   96.0312 C   0  0  0  0  0  0  0  0  0  0  0  0
    7.2518   58.1535   95.6285 C   0  0  0  0  0  0  0  0  0  0  0  0
    6.0790   57.9092   96.3542 C   0  0  0  0  0  0  0  0  0  0  0  0
    6.1379   57.0888   97.4881 C   0  0  0  0  0  0  0  0  0  0  0  0
    7.3518   56.5280   97.8933 C   0  0  0  0  0  0  0  0  0  0  0  0
    4.8238   58.5351   95.9482 C   0  0  0  0  0  0  0  0  0  0  0  0
    3.7118   57.6837   94.9548 S   0  0  0  0  0  0  0  0  0  0  0  0
    2.6762   59.0468   94.9734 C   0  0  0  0  0  0  0  0  0  0  0  0
    3.0971   60.0869   95.6563 N   0  0  0  0  0  0  0  0  0  0  0  0
    4.3259   59.7989   96.2310 C   0  0  0  0  0  0  0  0  0  0  0  0
    4.9699   60.8418   97.0726 C   0  0  0  0  0  0  0  0  0  0  0  0
   11.5057   50.2099   95.6809 O   0  0  0  0  0  0  0  0  0  0  0  0
   11.2640   49.2658   96.7169 C   0  0  0  0  0  0  0  0  0  0  0  0
 16 17  1  0
  8 17  1  0
  8  9  1  0
  9 10  1  0
 10  1  1  0
  1  2  2  0
  1  3  1  0
  3  4  1  0
  4  5  1  0
  5 35  1  0
 35 36  1  0
  5  6  1  0
  6  7  1  0
  7 18  1  0
 18 19  2  0
 18 20  1  0
 20 22  1  0
 22 23  1  0
 23 24  2  0
 24 25  1  0
 25 26  2  0
 26 29  1  0
 29 30  1  0
 30 31  1  0
 31 32  2  0
 32 33  1  0
 33 34  1  0
 26 27  1  0
 27 28  2  0
 10 11  1  0
 11 12  1  0
 12 13  1  0
 12 14  2  0
 11 15  1  0
 15  8  1  0
  7  3  1  0
 28 23  1  0
 33 29  2  0
 20 21  1  0
M  END
> <minimizedAffinity>
-6.00269

> <CNNscore>
0.3809642792

> <CNNaffinity>
5.8148837090

> <CNN_VS>
2.2152628899

> <CNNaffinity_variance>
0.1989330500

$$$$



 36 39  0  0  0  0  0  0  0  0999 V2000
   12.7369   53.2986   91.7432 C   0  0  0  0  0  0  0  0  0  0  0  0
   13.8313   52.7900   91.4923 O   0  0  0  0  0  0  0  0  0  0  0  0
   12.2244   53.2601   93.0276 N   0  0  0  0  0  0  0  0  0  0  0  0
   11.0518   53.9811   93.5222 C   0  0  0  0  0  0  0  0  0  0  0  0
   11.4148   54.3903   94.9523 C   0  0  0  0  0  0  0  0  0  0  0  0
   12.3105   53.2471   95.4064 C   0  0  0  0  0  0  0  0  0  0  0  0
   13.1040   52.8741   94.1483 C   0  0  0  0  0  0  0  0  0  0  0  0
   10.8125   52.0155   89.6099 C   0  0  0  0  0  0  0  0  0  0  0  0
   10.5159   53.1919   90.5457 C   0  0  0  0  0  0  0  0  0  0  0  0
   11.8583   53.9188   90.6277 C   0  0  0  0  0  0  0  0  0  0  0  0
   12.4340   53.7134   89.2962 N   0  0  0  0  0  0  0  0  0  0  0  0
   13.4371   54.4364   88.6956 C   0  0  0  0  0  0  0  0  0  0  0  0
   14.0669   55.5425   89.5047 C   0  0  0  0  0  0  0  0  0  0  0  0
   13.7903   54.2246   87.5353 O   0  0  0  0  0  0  0  0  0  0  0  0
   11.7504   52.6488   88.5804 C   0  0  0  0  0  0  0  0  0  0  0  0
    9.7547   50.3596   88.2903 C   0  0  0  0  0  0  0  0  0  0  0  0
    9.5861   51.5404   89.0692 O   0  0  0  0  0  0  0  0  0  0  0  0
   13.4589   51.3770   94.2287 C   0  0  0  0  0  0  0  0  0  0  0  0
   14.2546   50.9433   95.0616 O   0  0  0  0  0  0  0  0  0  0  0  0
   12.7042   50.5586   93.4174 N   0  0  0  0  0  0  0  0  0  0  0  0
   12.0118   50.9604   92.8443 H   0  0  0  0  0  0  0  0  0  0  0  0
   12.8991   49.1298   93.3837 C   0  0  0  0  0  0  0  0  0  0  0  0
   12.9938   48.6355   91.9619 C   0  0  0  0  0  0  0  0  0  0  0  0
   12.8356   49.5147   90.8814 C   0  0  0  0  0  0  0  0  0  0  0  0
   12.8770   49.0382   89.5669 C   0  0  0  0  0  0  0  0  0  0  0  0
   13.0769   47.6757   89.3113 C   0  0  0  0  0  0  0  0  0  0  0  0
   13.2367   46.7965   90.3900 C   0  0  0  0  0  0  0  0  0  0  0  0
   13.1898   47.2718   91.7031 C   0  0  0  0  0  0  0  0  0  0  0  0
   13.0805   47.1819   87.9371 C   0  0  0  0  0  0  0  0  0  0  0  0
   11.6091   46.7382   87.1713 S   0  0  0  0  0  0  0  0  0  0  0  0
   12.4883   46.3089   85.7665 C   0  0  0  0  0  0  0  0  0  0  0  0
   13.7911   46.4649   85.8263 N   0  0  0  0  0  0  0  0  0  0  0  0
   14.1411   46.9778   87.0663 C   0  0  0  0  0  0  0  0  0  0  0  0
   15.5776   47.2540   87.3327 C   0  0  0  0  0  0  0  0  0  0  0  0
   12.1842   55.5976   94.9625 O   0  0  0  0  0  0  0  0  0  0  0  0
   11.3863   56.7568   95.1688 C   0  0  0  0  0  0  0  0  0  0  0  0
 16 17  1  0
  8 17  1  0
  8  9  1  0
  9 10  1  0
 10  1  1  0
  1  2  2  0
  1  3  1  0
  3  4  1  0
  4  5  1  0
  5 35  1  0
 35 36  1  0
  5  6  1  0
  6  7  1  0
  7 18  1  0
 18 19  2  0
 18 20  1  0
 20 22  1  0
 22 23  1  0
 23 24  2  0
 24 25  1  0
 25 26  2  0
 26 29  1  0
 29 30  1  0
 30 31  1  0
 31 32  2  0
 32 33  1  0
 33 34  1  0
 26 27  1  0
 27 28  2  0
 10 11  1  0
 11 12  1  0
 12 13  1  0
 12 14  2  0
 11 15  1  0
 15  8  1  0
  7  3  1  0
 28 23  1  0
 33 29  2  0
 20 21  1  0
M  END
> <minimizedAffinity>
-6.26463

> <CNNscore>
0.3527670801

> <CNNaffinity>
5.1934247017

> <CNN_VS>
1.8320692778

> <CNNaffinity_variance>
0.8426595330

$$$$



 36 39  0  0  0  0  0  0  0  0999 V2000
   11.7408   51.6797   91.2630 C   0  0  0  0  0  0  0  0  0  0  0  0
   12.1866   50.8069   92.0106 O   0  0  0  0  0  0  0  0  0  0  0  0
   12.2205   52.9753   91.3344 N   0  0  0  0  0  0  0  0  0  0  0  0
   11.9428   54.0626   90.3962 C   0  0  0  0  0  0  0  0  0  0  0  0
   13.2560   54.8437   90.2981 C   0  0  0  0  0  0  0  0  0  0  0  0
   13.8441   54.6790   91.6918 C   0  0  0  0  0  0  0  0  0  0  0  0
   13.4569   53.2502   92.0923 C   0  0  0  0  0  0  0  0  0  0  0  0
   11.5001   51.9235   88.1352 C   0  0  0  0  0  0  0  0  0  0  0  0
   11.1087   50.7284   89.0105 C   0  0  0  0  0  0  0  0  0  0  0  0
   10.5766   51.3880   90.2829 C   0  0  0  0  0  0  0  0  0  0  0  0
    9.9528   52.6181   89.7886 N   0  0  0  0  0  0  0  0  0  0  0  0
    9.0173   53.3985   90.4255 C   0  0  0  0  0  0  0  0  0  0  0  0
    8.6100   52.9856   91.8177 C   0  0  0  0  0  0  0  0  0  0  0  0
    8.4996   54.3735   89.8804 O   0  0  0  0  0  0  0  0  0  0  0  0
   10.3820   52.9240   88.4339 C   0  0  0  0  0  0  0  0  0  0  0  0
   10.2892   51.0769   86.2859 C   0  0  0  0  0  0  0  0  0  0  0  0
   11.5575   51.4983   86.7794 O   0  0  0  0  0  0  0  0  0  0  0  0
   13.3205   53.1999   93.6262 C   0  0  0  0  0  0  0  0  0  0  0  0
   12.8144   54.1240   94.2625 O   0  0  0  0  0  0  0  0  0  0  0  0
   13.6542   51.9919   94.1979 N   0  0  0  0  0  0  0  0  0  0  0  0
   13.9598   51.2569   93.6186 H   0  0  0  0  0  0  0  0  0  0  0  0
   13.5686   51.7730   95.6210 C   0  0  0  0  0  0  0  0  0  0  0  0
   14.7092   50.9103   96.0999 C   0  0  0  0  0  0  0  0  0  0  0  0
   14.6917   49.5215   95.9090 C   0  0  0  0  0  0  0  0  0  0  0  0
   15.7314   48.7246   96.3995 C   0  0  0  0  0  0  0  0  0  0  0  0
   16.8049   49.3028   97.0888 C   0  0  0  0  0  0  0  0  0  0  0  0
   16.8244   50.6905   97.2788 C   0  0  0  0  0  0  0  0  0  0  0  0
   15.7829   51.4857   96.7935 C   0  0  0  0  0  0  0  0  0  0  0  0
   17.8663   48.4588   97.6303 C   0  0  0  0  0  0  0  0  0  0  0  0
   18.6978   47.3522   96.6142 S   0  0  0  0  0  0  0  0  0  0  0  0
   19.6312   46.8454   97.9569 C   0  0  0  0  0  0  0  0  0  0  0  0
   19.3673   47.4317   99.1023 N   0  0  0  0  0  0  0  0  0  0  0  0
   18.3621   48.3700   98.9232 C   0  0  0  0  0  0  0  0  0  0  0  0
   17.9281   49.1686  100.0999 C   0  0  0  0  0  0  0  0  0  0  0  0
   14.1476   54.2352   89.3575 O   0  0  0  0  0  0  0  0  0  0  0  0
   13.8459   54.5800   88.0110 C   0  0  0  0  0  0  0  0  0  0  0  0
 16 17  1  0
  8 17  1  0
  8  9  1  0
  9 10  1  0
 10  1  1  0
  1  2  2  0
  1  3  1  0
  3  4  1  0
  4  5  1  0
  5 35  1  0
 35 36  1  0
  5  6  1  0
  6  7  1  0
  7 18  1  0
 18 19  2  0
 18 20  1  0
 20 22  1  0
 22 23  1  0
 23 24  2  0
 24 25  1  0
 25 26  2  0
 26 29  1  0
 29 30  1  0
 30 31  1  0
 31 32  2  0
 32 33  1  0
 33 34  1  0
 26 27  1  0
 27 28  2  0
 10 11  1  0
 11 12  1  0
 12 13  1  0
 12 14  2  0
 11 15  1  0
 15  8  1  0
  7  3  1  0
 28 23  1  0
 33 29  2  0
 20 21  1  0
M  END
> <minimizedAffinity>
-6.18314

> <CNNscore>
0.3506063223

> <CNNaffinity>
5.3839340210

> <CNN_VS>
1.8876413107

> <CNNaffinity_variance>
0.2401092052

$$$$



 36 39  0  0  0  0  0  0  0  0999 V2000
   12.2113   53.0370   92.0419 C   0  0  0  0  0  0  0  0  0  0  0  0
   13.1746   52.2903   91.8582 O   0  0  0  0  0  0  0  0  0  0  0  0
   11.6008   53.1009   93.2818 N   0  0  0  0  0  0  0  0  0  0  0  0
   10.5911   54.0688   93.7094 C   0  0  0  0  0  0  0  0  0  0  0  0
   10.9212   54.3612   95.1756 C   0  0  0  0  0  0  0  0  0  0  0  0
   11.4873   53.0339   95.6585 C   0  0  0  0  0  0  0  0  0  0  0  0
   12.2726   52.5039   94.4526 C   0  0  0  0  0  0  0  0  0  0  0  0
   10.5751   52.1985   89.4885 C   0  0  0  0  0  0  0  0  0  0  0  0
   10.2272   53.2948   90.5007 C   0  0  0  0  0  0  0  0  0  0  0  0
   11.5944   53.8614   90.8841 C   0  0  0  0  0  0  0  0  0  0  0  0
   12.3691   53.7369   89.6468 N   0  0  0  0  0  0  0  0  0  0  0  0
   13.5198   54.4078   89.3067 C   0  0  0  0  0  0  0  0  0  0  0  0
   14.0965   55.3489   90.3344 C   0  0  0  0  0  0  0  0  0  0  0  0
   14.0462   54.2827   88.2008 O   0  0  0  0  0  0  0  0  0  0  0  0
   11.7272   52.8327   88.7069 C   0  0  0  0  0  0  0  0  0  0  0  0
    9.0580   53.0044   87.8600 C   0  0  0  0  0  0  0  0  0  0  0  0
    9.4223   51.9167   88.7049 O   0  0  0  0  0  0  0  0  0  0  0  0
   12.2629   50.9642   94.5102 C   0  0  0  0  0  0  0  0  0  0  0  0
   11.2126   50.3238   94.5510 O   0  0  0  0  0  0  0  0  0  0  0  0
   13.4956   50.3710   94.3493 N   0  0  0  0  0  0  0  0  0  0  0  0
   14.2877   50.9414   94.2211 H   0  0  0  0  0  0  0  0  0  0  0  0
   13.6592   48.9379   94.3632 C   0  0  0  0  0  0  0  0  0  0  0  0
   15.0133   48.5585   94.9082 C   0  0  0  0  0  0  0  0  0  0  0  0
   15.9277   49.5408   95.3141 C   0  0  0  0  0  0  0  0  0  0  0  0
   17.1991   49.1805   95.7729 C   0  0  0  0  0  0  0  0  0  0  0  0
   17.5769   47.8332   95.8332 C   0  0  0  0  0  0  0  0  0  0  0  0
   16.6637   46.8508   95.4295 C   0  0  0  0  0  0  0  0  0  0  0  0
   15.3957   47.2111   94.9660 C   0  0  0  0  0  0  0  0  0  0  0  0
   18.9194   47.4691   96.2773 C   0  0  0  0  0  0  0  0  0  0  0  0
   19.2346   47.1827   97.9408 S   0  0  0  0  0  0  0  0  0  0  0  0
   20.8763   46.8801   97.5611 C   0  0  0  0  0  0  0  0  0  0  0  0
   21.2078   46.9817   96.2942 N   0  0  0  0  0  0  0  0  0  0  0  0
   20.0872   47.3083   95.5455 C   0  0  0  0  0  0  0  0  0  0  0  0
   20.2415   47.4471   94.0732 C   0  0  0  0  0  0  0  0  0  0  0  0
   11.9462   55.3549   95.2841 O   0  0  0  0  0  0  0  0  0  0  0  0
   11.4475   56.6784   95.1333 C   0  0  0  0  0  0  0  0  0  0  0  0
 16 17  1  0
  8 17  1  0
  8  9  1  0
  9 10  1  0
 10  1  1  0
  1  2  2  0
  1  3  1  0
  3  4  1  0
  4  5  1  0
  5 35  1  0
 35 36  1  0
  5  6  1  0
  6  7  1  0
  7 18  1  0
 18 19  2  0
 18 20  1  0
 20 22  1  0
 22 23  1  0
 23 24  2  0
 24 25  1  0
 25 26  2  0
 26 29  1  0
 29 30  1  0
 30 31  1  0
 31 32  2  0
 32 33  1  0
 33 34  1  0
 26 27  1  0
 27 28  2  0
 10 11  1  0
 11 12  1  0
 12 13  1  0
 12 14  2  0
 11 15  1  0
 15  8  1  0
  7  3  1  0
 28 23  1  0
 33 29  2  0
 20 21  1  0
M  END
> <minimizedAffinity>
-5.87719

> <CNNscore>
0.3229089677

> <CNNaffinity>
5.3142757416

> <CNN_VS>
1.7160272598

> <CNNaffinity_variance>
0.6584763527

$$$$



 36 39  0  0  0  0  0  0  0  0999 V2000
    9.6848   52.4850   88.1508 C   0  0  0  0  0  0  0  0  0  0  0  0
    9.6809   53.6788   87.8438 O   0  0  0  0  0  0  0  0  0  0  0  0
   10.6752   51.9759   88.9717 N   0  0  0  0  0  0  0  0  0  0  0  0
   10.7071   50.6466   89.5811 C   0  0  0  0  0  0  0  0  0  0  0  0
   11.3201   50.8629   90.9673 C   0  0  0  0  0  0  0  0  0  0  0  0
   12.2822   52.0171   90.7273 C   0  0  0  0  0  0  0  0  0  0  0  0
   11.5525   52.9043   89.7113 C   0  0  0  0  0  0  0  0  0  0  0  0
    9.7246   50.6293   85.6101 C   0  0  0  0  0  0  0  0  0  0  0  0
    9.3419   50.2419   87.0422 C   0  0  0  0  0  0  0  0  0  0  0  0
    8.6439   51.4964   87.5677 C   0  0  0  0  0  0  0  0  0  0  0  0
    7.9799   52.0353   86.3780 N   0  0  0  0  0  0  0  0  0  0  0  0
    6.9328   52.9248   86.3326 C   0  0  0  0  0  0  0  0  0  0  0  0
    6.4270   53.4597   87.6489 C   0  0  0  0  0  0  0  0  0  0  0  0
    6.3981   53.2506   85.2725 O   0  0  0  0  0  0  0  0  0  0  0  0
    8.5118   51.4462   85.1602 C   0  0  0  0  0  0  0  0  0  0  0  0
   10.5597   48.4146   85.6264 C   0  0  0  0  0  0  0  0  0  0  0  0
    9.9418   49.4424   84.8575 O   0  0  0  0  0  0  0  0  0  0  0  0
   12.6104   53.6361   88.8632 C   0  0  0  0  0  0  0  0  0  0  0  0
   13.5762   54.2001   89.3770 O   0  0  0  0  0  0  0  0  0  0  0  0
   12.4777   53.4697   87.5022 N   0  0  0  0  0  0  0  0  0  0  0  0
   11.7362   52.9214   87.1576 H   0  0  0  0  0  0  0  0  0  0  0  0
   13.3940   54.0759   86.5676 C   0  0  0  0  0  0  0  0  0  0  0  0
   13.4335   53.2989   85.2756 C   0  0  0  0  0  0  0  0  0  0  0  0
   12.4333   52.3670   84.9644 C   0  0  0  0  0  0  0  0  0  0  0  0
   12.5046   51.6164   83.7861 C   0  0  0  0  0  0  0  0  0  0  0  0
   13.5764   51.7850   82.9004 C   0  0  0  0  0  0  0  0  0  0  0  0
   14.5755   52.7169   83.2094 C   0  0  0  0  0  0  0  0  0  0  0  0
   14.5070   53.4626   84.3891 C   0  0  0  0  0  0  0  0  0  0  0  0
   13.6620   50.9699   81.6919 C   0  0  0  0  0  0  0  0  0  0  0  0
   12.4114   49.8587   81.3051 S   0  0  0  0  0  0  0  0  0  0  0  0
   13.2796   49.3936   79.9049 C   0  0  0  0  0  0  0  0  0  0  0  0
   14.4295   49.9969   79.7073 N   0  0  0  0  0  0  0  0  0  0  0  0
   14.6534   50.9141   80.7229 C   0  0  0  0  0  0  0  0  0  0  0  0
   15.8972   51.7274   80.6740 C   0  0  0  0  0  0  0  0  0  0  0  0
   10.3286   51.2903   91.9075 O   0  0  0  0  0  0  0  0  0  0  0  0
    9.8007   50.2166   92.6766 C   0  0  0  0  0  0  0  0  0  0  0  0
 16 17  1  0
  8 17  1  0
  8  9  1  0
  9 10  1  0
 10  1  1  0
  1  2  2  0
  1  3  1  0
  3  4  1  0
  4  5  1  0
  5 35  1  0
 35 36  1  0
  5  6  1  0
  6  7  1  0
  7 18  1  0
 18 19  2  0
 18 20  1  0
 20 22  1  0
 22 23  1  0
 23 24  2  0
 24 25  1  0
 25 26  2  0
 26 29  1  0
 29 30  1  0
 30 31  1  0
 31 32  2  0
 32 33  1  0
 33 34  1  0
 26 27  1  0
 27 28  2  0
 10 11  1  0
 11 12  1  0
 12 13  1  0
 12 14  2  0
 11 15  1  0
 15  8  1  0
  7  3  1  0
 28 23  1  0
 33 29  2  0
 20 21  1  0
M  END
> <minimizedAffinity>
-8.06333

> <CNNscore>
0.3218022883

> <CNNaffinity>
6.1741199493

> <CNN_VS>
1.9868459702

> <CNNaffinity_variance>
0.2672685087

$$$$
