


 18 20  0  0  0  0  0  0  0  0999 V2000
    8.5532   80.4822   -3.7153 O   0  0  0  0  0  0  0  0  0  0  0  0
    8.6790   80.8051   -2.5384 C   0  0  0  0  0  0  0  0  0  0  0  0
    9.8724   80.6405   -1.8857 N   0  0  0  0  0  0  0  0  0  0  0  0
   10.0514   80.9880   -0.5760 C   0  0  0  0  0  0  0  0  0  0  0  0
   11.2686   80.7724   -0.0656 F   0  0  0  0  0  0  0  0  0  0  0  0
    9.1582   81.5020    0.2082 N   0  0  0  0  0  0  0  0  0  0  0  0
    7.8997   81.7040   -0.3877 C   0  0  0  0  0  0  0  0  0  0  0  0
    7.6706   81.3732   -1.6933 C   0  0  0  0  0  0  0  0  0  0  0  0
    6.0965   81.7051   -2.1803 S   0  0  0  0  0  0  0  0  0  0  0  0
    5.6646   82.3188   -0.6125 C   0  0  0  0  0  0  0  0  0  0  0  0
    4.4073   82.8287   -0.2048 C   0  0  0  0  0  0  0  0  0  0  0  0
    3.0625   82.9086   -1.2839 Cl  0  0  0  0  0  0  0  0  0  0  0  0
    4.2321   83.2842    1.1042 C   0  0  0  0  0  0  0  0  0  0  0  0
    5.2819   83.2400    2.0059 C   0  0  0  0  0  0  0  0  0  0  0  0
    6.5182   82.7368    1.5991 C   0  0  0  0  0  0  0  0  0  0  0  0
    7.8124   82.6853    2.7205 Cl  0  0  0  0  0  0  0  0  0  0  0  0
    6.7560   82.2597    0.2823 C   0  0  0  0  0  0  0  0  0  0  0  0
   10.6320   80.2563   -2.3803 H   0  0  0  0  0  0  0  0  0  0  0  0
  1  2  2  0
  2  3  1  0
  3  4  1  0
  4  5  1  0
  4  6  2  0
  6  7  1  0
  7  8  2  0
  8  9  1  0
  9 10  1  0
 10 11  2  0
 11 12  1  0
 11 13  1  0
 13 14  2  0
 14 15  1  0
 15 16  1  0
 15 17  2  0
  8  2  1  0
 17 10  1  0
 17  7  1  0
  3 18  1  0
M  END
> <minimizedAffinity>
-8.37333

> <CNNscore>
0.9059261680

> <CNNaffinity>
7.0437850952

> <CNN_VS>
6.3811492920

> <CNNaffinity_variance>
0.1681686193

$$$$



 18 20  0  0  0  0  0  0  0  0999 V2000
   10.9059   80.8630   -0.3910 O   0  0  0  0  0  0  0  0  0  0  0  0
    9.8206   81.0037   -0.9454 C   0  0  0  0  0  0  0  0  0  0  0  0
    9.6525   80.6660   -2.2626 N   0  0  0  0  0  0  0  0  0  0  0  0
    8.4597   80.8082   -2.9146 C   0  0  0  0  0  0  0  0  0  0  0  0
    8.4380   80.4391   -4.1999 F   0  0  0  0  0  0  0  0  0  0  0  0
    7.3593   81.2635   -2.4061 N   0  0  0  0  0  0  0  0  0  0  0  0
    7.4474   81.6343   -1.0516 C   0  0  0  0  0  0  0  0  0  0  0  0
    8.6169   81.5112   -0.3561 C   0  0  0  0  0  0  0  0  0  0  0  0
    8.4782   82.0162    1.2411 S   0  0  0  0  0  0  0  0  0  0  0  0
    6.8008   82.4254    1.0413 C   0  0  0  0  0  0  0  0  0  0  0  0
    5.9225   82.9554    2.0183 C   0  0  0  0  0  0  0  0  0  0  0  0
    6.4429   83.2813    3.6314 Cl  0  0  0  0  0  0  0  0  0  0  0  0
    4.5936   83.2286    1.6848 C   0  0  0  0  0  0  0  0  0  0  0  0
    4.1302   82.9836    0.4033 C   0  0  0  0  0  0  0  0  0  0  0  0
    4.9995   82.4615   -0.5552 C   0  0  0  0  0  0  0  0  0  0  0  0
    4.4188   82.1612   -2.1387 Cl  0  0  0  0  0  0  0  0  0  0  0  0
    6.3602   82.1640   -0.2750 C   0  0  0  0  0  0  0  0  0  0  0  0
   10.4224   80.3063   -2.7597 H   0  0  0  0  0  0  0  0  0  0  0  0
  1  2  2  0
  2  3  1  0
  3  4  1  0
  4  5  1  0
  4  6  2  0
  6  7  1  0
  7  8  2  0
  8  9  1  0
  9 10  1  0
 10 11  2  0
 11 12  1  0
 11 13  1  0
 13 14  2  0
 14 15  1  0
 15 16  1  0
 15 17  2  0
  8  2  1  0
 17 10  1  0
 17  7  1  0
  3 18  1  0
M  END
> <minimizedAffinity>
-8.20762

> <CNNscore>
0.8765181899

> <CNNaffinity>
6.8880901337

> <CNN_VS>
6.0375361443

> <CNNaffinity_variance>
0.1028513238

$$$$



 18 20  0  0  0  0  0  0  0  0999 V2000
    8.2789   82.4798    3.4885 O   0  0  0  0  0  0  0  0  0  0  0  0
    8.3026   82.1667    2.3025 C   0  0  0  0  0  0  0  0  0  0  0  0
    9.4444   81.6762    1.7254 N   0  0  0  0  0  0  0  0  0  0  0  0
    9.5100   81.3168    0.4083 C   0  0  0  0  0  0  0  0  0  0  0  0
   10.6882   80.8532   -0.0226 F   0  0  0  0  0  0  0  0  0  0  0  0
    8.5445   81.3836   -0.4520 N   0  0  0  0  0  0  0  0  0  0  0  0
    7.3323   81.8790    0.0627 C   0  0  0  0  0  0  0  0  0  0  0  0
    7.2160   82.2516    1.3720 C   0  0  0  0  0  0  0  0  0  0  0  0
    5.6773   82.8103    1.7536 S   0  0  0  0  0  0  0  0  0  0  0  0
    5.1067   82.5621    0.1306 C   0  0  0  0  0  0  0  0  0  0  0  0
    3.8083   82.8203   -0.3736 C   0  0  0  0  0  0  0  0  0  0  0  0
    2.5517   83.4541    0.6256 Cl  0  0  0  0  0  0  0  0  0  0  0  0
    3.5182   82.5609   -1.7153 C   0  0  0  0  0  0  0  0  0  0  0  0
    4.4940   82.0522   -2.5556 C   0  0  0  0  0  0  0  0  0  0  0  0
    5.7714   81.7997   -2.0539 C   0  0  0  0  0  0  0  0  0  0  0  0
    6.9735   81.1703   -3.0996 Cl  0  0  0  0  0  0  0  0  0  0  0  0
    6.1250   82.0434   -0.6996 C   0  0  0  0  0  0  0  0  0  0  0  0
   10.2505   81.5788    2.2821 H   0  0  0  0  0  0  0  0  0  0  0  0
  1  2  2  0
  2  3  1  0
  3  4  1  0
  4  5  1  0
  4  6  2  0
  6  7  1  0
  7  8  2  0
  8  9  1  0
  9 10  1  0
 10 11  2  0
 11 12  1  0
 11 13  1  0
 13 14  2  0
 14 15  1  0
 15 16  1  0
 15 17  2  0
  8  2  1  0
 17 10  1  0
 17  7  1  0
  3 18  1  0
M  END
> <minimizedAffinity>
-8.22940

> <CNNscore>
0.8559265733

> <CNNaffinity>
6.9094796181

> <CNN_VS>
5.9140071869

> <CNNaffinity_variance>
0.1198632494

$$$$



 18 20  0  0  0  0  0  0  0  0999 V2000
    9.6441   81.3857   -0.6110 O   0  0  0  0  0  0  0  0  0  0  0  0
    8.4538   81.6744   -0.6806 C   0  0  0  0  0  0  0  0  0  0  0  0
    7.8094   81.7230   -1.8888 N   0  0  0  0  0  0  0  0  0  0  0  0
    6.4853   82.0404   -2.0069 C   0  0  0  0  0  0  0  0  0  0  0  0
    5.9855   82.0502   -3.2473 F   0  0  0  0  0  0  0  0  0  0  0  0
    5.6783   82.3298   -1.0363 N   0  0  0  0  0  0  0  0  0  0  0  0
    6.2642   82.3022    0.2428 C   0  0  0  0  0  0  0  0  0  0  0  0
    7.5835   81.9907    0.4131 C   0  0  0  0  0  0  0  0  0  0  0  0
    8.0546   82.0223    2.0263 S   0  0  0  0  0  0  0  0  0  0  0  0
    6.4603   82.4663    2.5576 C   0  0  0  0  0  0  0  0  0  0  0  0
    6.0296   82.6954    3.8876 C   0  0  0  0  0  0  0  0  0  0  0  0
    7.1037   82.5528    5.2312 Cl  0  0  0  0  0  0  0  0  0  0  0  0
    4.7012   83.0478    4.1382 C   0  0  0  0  0  0  0  0  0  0  0  0
    3.8025   83.1744    3.0924 C   0  0  0  0  0  0  0  0  0  0  0  0
    4.2321   82.9477    1.7843 C   0  0  0  0  0  0  0  0  0  0  0  0
    3.1144   83.1062    0.4957 Cl  0  0  0  0  0  0  0  0  0  0  0  0
    5.5694   82.5871    1.4682 C   0  0  0  0  0  0  0  0  0  0  0  0
    8.3212   81.5210   -2.7052 H   0  0  0  0  0  0  0  0  0  0  0  0
  1  2  2  0
  2  3  1  0
  3  4  1  0
  4  5  1  0
  4  6  2  0
  6  7  1  0
  7  8  2  0
  8  9  1  0
  9 10  1  0
 10 11  2  0
 11 12  1  0
 11 13  1  0
 13 14  2  0
 14 15  1  0
 15 16  1  0
 15 17  2  0
  8  2  1  0
 17 10  1  0
 17  7  1  0
  3 18  1  0
M  END
> <minimizedAffinity>
-7.74456

> <CNNscore>
0.7734797597

> <CNNaffinity>
6.6497921944

> <CNN_VS>
5.1434798241

> <CNNaffinity_variance>
0.0896436796

$$$$



 18 20  0  0  0  0  0  0  0  0999 V2000
    9.0857   81.6637    2.8104 O   0  0  0  0  0  0  0  0  0  0  0  0
    8.6293   81.6716    1.6716 C   0  0  0  0  0  0  0  0  0  0  0  0
    9.4170   81.3618    0.5941 N   0  0  0  0  0  0  0  0  0  0  0  0
    8.9452   81.3596   -0.6887 C   0  0  0  0  0  0  0  0  0  0  0  0
    9.8242   81.0381   -1.6439 F   0  0  0  0  0  0  0  0  0  0  0  0
    7.7362   81.6380   -1.0598 N   0  0  0  0  0  0  0  0  0  0  0  0
    6.8605   81.9680   -0.0090 C   0  0  0  0  0  0  0  0  0  0  0  0
    7.2839   81.9843    1.2899 C   0  0  0  0  0  0  0  0  0  0  0  0
    6.0629   82.4065    2.3652 S   0  0  0  0  0  0  0  0  0  0  0  0
    4.8996   82.5844    1.0860 C   0  0  0  0  0  0  0  0  0  0  0  0
    3.5366   82.9507    1.2077 C   0  0  0  0  0  0  0  0  0  0  0  0
    2.8163   83.2873    2.7398 Cl  0  0  0  0  0  0  0  0  0  0  0  0
    2.7371   83.0476    0.0662 C   0  0  0  0  0  0  0  0  0  0  0  0
    3.2705   82.7870   -1.1847 C   0  0  0  0  0  0  0  0  0  0  0  0
    4.6137   82.4267   -1.2990 C   0  0  0  0  0  0  0  0  0  0  0  0
    5.2666   82.1059   -2.8501 Cl  0  0  0  0  0  0  0  0  0  0  0  0
    5.4750   82.3122   -0.1750 C   0  0  0  0  0  0  0  0  0  0  0  0
   10.3613   81.1314    0.7503 H   0  0  0  0  0  0  0  0  0  0  0  0
  1  2  2  0
  2  3  1  0
  3  4  1  0
  4  5  1  0
  4  6  2  0
  6  7  1  0
  7  8  2  0
  8  9  1  0
  9 10  1  0
 10 11  2  0
 11 12  1  0
 11 13  1  0
 13 14  2  0
 14 15  1  0
 15 16  1  0
 15 17  2  0
  8  2  1  0
 17 10  1  0
 17  7  1  0
  3 18  1  0
M  END
> <minimizedAffinity>
-7.98248

> <CNNscore>
0.6342465281

> <CNNaffinity>
6.6240386963

> <CNN_VS>
4.2012734413

> <CNNaffinity_variance>
0.0232843217

$$$$



 18 20  0  0  0  0  0  0  0  0999 V2000
    8.0938   81.9418   -2.1612 O   0  0  0  0  0  0  0  0  0  0  0  0
    8.0919   81.8118   -0.9412 C   0  0  0  0  0  0  0  0  0  0  0  0
    9.2136   81.3932   -0.2750 N   0  0  0  0  0  0  0  0  0  0  0  0
    9.2505   81.2365    1.0823 C   0  0  0  0  0  0  0  0  0  0  0  0
   10.4114   80.8215    1.6007 F   0  0  0  0  0  0  0  0  0  0  0  0
    8.2731   81.4512    1.9042 N   0  0  0  0  0  0  0  0  0  0  0  0
    7.0801   81.8856    1.2975 C   0  0  0  0  0  0  0  0  0  0  0  0
    6.9928   82.0574   -0.0550 C   0  0  0  0  0  0  0  0  0  0  0  0
    5.4727   82.5807   -0.5459 S   0  0  0  0  0  0  0  0  0  0  0  0
    4.8713   82.5925    1.0848 C   0  0  0  0  0  0  0  0  0  0  0  0
    3.5708   82.9487    1.5194 C   0  0  0  0  0  0  0  0  0  0  0  0
    2.3441   83.4470    0.4121 Cl  0  0  0  0  0  0  0  0  0  0  0  0
    3.2539   82.9013    2.8792 C   0  0  0  0  0  0  0  0  0  0  0  0
    4.2051   82.5077    3.8052 C   0  0  0  0  0  0  0  0  0  0  0  0
    5.4845   82.1578    3.3717 C   0  0  0  0  0  0  0  0  0  0  0  0
    6.6560   81.6718    4.5233 Cl  0  0  0  0  0  0  0  0  0  0  0  0
    5.8648   82.1865    2.0032 C   0  0  0  0  0  0  0  0  0  0  0  0
   10.0262   81.1972   -0.7951 H   0  0  0  0  0  0  0  0  0  0  0  0
  1  2  2  0
  2  3  1  0
  3  4  1  0
  4  5  1  0
  4  6  2  0
  6  7  1  0
  7  8  2  0
  8  9  1  0
  9 10  1  0
 10 11  2  0
 11 12  1  0
 11 13  1  0
 13 14  2  0
 14 15  1  0
 15 16  1  0
 15 17  2  0
  8  2  1  0
 17 10  1  0
 17  7  1  0
  3 18  1  0
M  END
> <minimizedAffinity>
-7.33417

> <CNNscore>
0.6225417256

> <CNNaffinity>
6.6820297241

> <CNN_VS>
4.1598424911

> <CNNaffinity_variance>
0.2300390005

$$$$



 18 20  0  0  0  0  0  0  0  0999 V2000
    9.5765   81.5376    1.5217 O   0  0  0  0  0  0  0  0  0  0  0  0
    8.6813   81.6199    0.6868 C   0  0  0  0  0  0  0  0  0  0  0  0
    8.9155   81.3220   -0.6299 N   0  0  0  0  0  0  0  0  0  0  0  0
    7.9447   81.4016   -1.5886 C   0  0  0  0  0  0  0  0  0  0  0  0
    8.3126   81.0819   -2.8340 F   0  0  0  0  0  0  0  0  0  0  0  0
    6.7129   81.7553   -1.4027 N   0  0  0  0  0  0  0  0  0  0  0  0
    6.3891   82.0789   -0.0722 C   0  0  0  0  0  0  0  0  0  0  0  0
    7.3240   82.0150    0.9220 C   0  0  0  0  0  0  0  0  0  0  0  0
    6.7046   82.4463    2.4239 S   0  0  0  0  0  0  0  0  0  0  0  0
    5.1222   82.7392    1.7671 C   0  0  0  0  0  0  0  0  0  0  0  0
    3.9662   83.1654    2.4662 C   0  0  0  0  0  0  0  0  0  0  0  0
    3.9875   83.4660    4.1658 Cl  0  0  0  0  0  0  0  0  0  0  0  0
    2.7656   83.3534    1.7770 C   0  0  0  0  0  0  0  0  0  0  0  0
    2.6997   83.1249    0.4130 C   0  0  0  0  0  0  0  0  0  0  0  0
    3.8414   82.7052   -0.2708 C   0  0  0  0  0  0  0  0  0  0  0  0
    3.7521   82.4246   -1.9584 Cl  0  0  0  0  0  0  0  0  0  0  0  0
    5.0892   82.4974    0.3759 C   0  0  0  0  0  0  0  0  0  0  0  0
    9.8201   81.0390   -0.8962 H   0  0  0  0  0  0  0  0  0  0  0  0
  1  2  2  0
  2  3  1  0
  3  4  1  0
  4  5  1  0
  4  6  2  0
  6  7  1  0
  7  8  2  0
  8  9  1  0
  9 10  1  0
 10 11  2  0
 11 12  1  0
 11 13  1  0
 13 14  2  0
 14 15  1  0
 15 16  1  0
 15 17  2  0
  8  2  1  0
 17 10  1  0
 17  7  1  0
  3 18  1  0
M  END
> <minimizedAffinity>
-7.51082

> <CNNscore>
0.5820261836

> <CNNaffinity>
6.6132259369

> <CNN_VS>
3.8490705490

> <CNNaffinity_variance>
0.0858280063

$$$$



 18 20  0  0  0  0  0  0  0  0999 V2000
    3.0810   82.6182   -1.8244 O   0  0  0  0  0  0  0  0  0  0  0  0
    4.2541   82.3704   -1.5644 C   0  0  0  0  0  0  0  0  0  0  0  0
    5.1176   81.9445   -2.5393 N   0  0  0  0  0  0  0  0  0  0  0  0
    6.4305   81.6588   -2.2889 C   0  0  0  0  0  0  0  0  0  0  0  0
    7.1595   81.2528   -3.3341 F   0  0  0  0  0  0  0  0  0  0  0  0
    7.0271   81.7445   -1.1428 N   0  0  0  0  0  0  0  0  0  0  0  0
    6.2068   82.1767   -0.0844 C   0  0  0  0  0  0  0  0  0  0  0  0
    4.8884   82.4746   -0.2836 C   0  0  0  0  0  0  0  0  0  0  0  0
    4.1146   82.9679    1.1247 S   0  0  0  0  0  0  0  0  0  0  0  0
    5.5639   82.7918    2.0679 C   0  0  0  0  0  0  0  0  0  0  0  0
    5.7239   83.0400    3.4534 C   0  0  0  0  0  0  0  0  0  0  0  0
    4.4153   83.5827    4.4395 Cl  0  0  0  0  0  0  0  0  0  0  0  0
    6.9690   82.8452    4.0563 C   0  0  0  0  0  0  0  0  0  0  0  0
    8.0485   82.4107    3.3059 C   0  0  0  0  0  0  0  0  0  0  0  0
    7.8854   82.1676    1.9416 C   0  0  0  0  0  0  0  0  0  0  0  0
    9.2256   81.6301    1.0198 Cl  0  0  0  0  0  0  0  0  0  0  0  0
    6.6444   82.3477    1.2738 C   0  0  0  0  0  0  0  0  0  0  0  0
    4.7785   81.8401   -3.4576 H   0  0  0  0  0  0  0  0  0  0  0  0
  1  2  2  0
  2  3  1  0
  3  4  1  0
  4  5  1  0
  4  6  2  0
  6  7  1  0
  7  8  2  0
  8  9  1  0
  9 10  1  0
 10 11  2  0
 11 12  1  0
 11 13  1  0
 13 14  2  0
 14 15  1  0
 15 16  1  0
 15 17  2  0
  8  2  1  0
 17 10  1  0
 17  7  1  0
  3 18  1  0
M  END
> <minimizedAffinity>
-7.84694

> <CNNscore>
0.5496702790

> <CNNaffinity>
6.2419319153

> <CNN_VS>
3.4310045242

> <CNNaffinity_variance>
0.4459739923

$$$$



 18 20  0  0  0  0  0  0  0  0999 V2000
    5.4077   82.2182   -2.9742 O   0  0  0  0  0  0  0  0  0  0  0  0
    6.1912   82.0299   -2.0490 C   0  0  0  0  0  0  0  0  0  0  0  0
    7.4599   81.5682   -2.2823 N   0  0  0  0  0  0  0  0  0  0  0  0
    8.3608   81.3463   -1.2787 C   0  0  0  0  0  0  0  0  0  0  0  0
    9.5637   80.8949   -1.6498 F   0  0  0  0  0  0  0  0  0  0  0  0
    8.1575   81.5314   -0.0133 N   0  0  0  0  0  0  0  0  0  0  0  0
    6.8737   82.0067    0.3121 C   0  0  0  0  0  0  0  0  0  0  0  0
    5.9381   82.2441   -0.6548 C   0  0  0  0  0  0  0  0  0  0  0  0
    4.4838   82.8060   -0.0266 S   0  0  0  0  0  0  0  0  0  0  0  0
    5.0825   82.7458    1.6041 C   0  0  0  0  0  0  0  0  0  0  0  0
    4.3881   83.0942    2.7887 C   0  0  0  0  0  0  0  0  0  0  0  0
    2.7569   83.6577    2.7571 Cl  0  0  0  0  0  0  0  0  0  0  0  0
    5.0255   82.9850    4.0270 C   0  0  0  0  0  0  0  0  0  0  0  0
    6.3337   82.5376    4.1025 C   0  0  0  0  0  0  0  0  0  0  0  0
    7.0130   82.1956    2.9326 C   0  0  0  0  0  0  0  0  0  0  0  0
    8.6314   81.6428    3.0341 Cl  0  0  0  0  0  0  0  0  0  0  0  0
    6.4174   82.2859    1.6460 C   0  0  0  0  0  0  0  0  0  0  0  0
    7.7339   81.3890   -3.2108 H   0  0  0  0  0  0  0  0  0  0  0  0
  1  2  2  0
  2  3  1  0
  3  4  1  0
  4  5  1  0
  4  6  2  0
  6  7  1  0
  7  8  2  0
  8  9  1  0
  9 10  1  0
 10 11  2  0
 11 12  1  0
 11 13  1  0
 13 14  2  0
 14 15  1  0
 15 16  1  0
 15 17  2  0
  8  2  1  0
 17 10  1  0
 17  7  1  0
  3 18  1  0
M  END
> <minimizedAffinity>
-7.33508

> <CNNscore>
0.5192370415

> <CNNaffinity>
6.3189773560

> <CNN_VS>
3.2810471058

> <CNNaffinity_variance>
0.3209034503

$$$$
