


 35 37  0  0  0  0  0  0  0  0999 V2000
   37.8537    6.4830   18.3112 C   0  0  0  0  0  0  0  0  0  0  0  0
   37.5681    6.6521   16.9030 O   0  0  0  0  0  0  0  0  0  0  0  0
   38.4488    7.6746   16.3949 C   0  0  0  0  0  0  0  0  0  0  0  0
   39.6716    7.6440   17.3079 C   0  0  0  0  0  0  0  0  0  0  0  0
   40.4368    8.8385   17.2985 O   0  0  0  0  0  0  0  0  0  0  0  0
   39.0277    7.4071   18.6642 C   0  0  0  0  0  0  0  0  0  0  0  0
   38.5609    8.6735   19.1740 O   0  0  0  0  0  0  0  0  0  0  0  0
   39.8749    9.5845   17.5605 H   0  0  0  0  0  0  0  0  0  0  0  0
   37.9711    9.0861   18.5238 H   0  0  0  0  0  0  0  0  0  0  0  0
   38.0453    0.8257   20.4172 N   0  0  0  0  0  0  0  0  0  0  0  0
   37.6191    2.1452   20.4143 C   0  0  0  0  0  0  0  0  0  0  0  0
   36.7415    2.5378   21.3631 N   0  0  0  0  0  0  0  0  0  0  0  0
   36.3114    3.8182   21.3559 C   0  0  0  0  0  0  0  0  0  0  0  0
   35.4400    4.1553   22.3191 F   0  0  0  0  0  0  0  0  0  0  0  0
   36.6641    4.8104   20.5069 N   0  0  0  0  0  0  0  0  0  0  0  0
   37.5424    4.3677   19.5945 C   0  0  0  0  0  0  0  0  0  0  0  0
   38.0651    3.0923   19.4787 C   0  0  0  0  0  0  0  0  0  0  0  0
   38.9582    3.0278   18.4316 N   0  0  0  0  0  0  0  0  0  0  0  0
   38.9583    4.2368   17.9077 C   0  0  0  0  0  0  0  0  0  0  0  0
   38.1251    5.0842   18.5839 N   0  0  0  0  0  0  0  0  0  0  0  0
   37.7028    0.1993   21.0951 H   0  0  0  0  0  0  0  0  0  0  0  0
   38.6905    0.5153   19.7414 H   0  0  0  0  0  0  0  0  0  0  0  0
   38.7635    7.4045   14.9270 C   0  0  0  0  0  0  0  0  0  0  0  0
   38.7022    6.0190   14.6509 O   0  0  0  0  0  0  0  0  0  0  0  0
   37.7058    5.5492   13.4880 P   0  0  0  0  0  0  0  0  0  0  0  0
   36.6826    6.5479   13.0522 O   0  0  0  0  0  0  0  0  0  0  0  0
   38.6993    5.0931   12.3179 O   0  0  0  0  0  0  0  0  0  0  0  0
   39.1221    5.8750   11.9296 H   0  0  0  0  0  0  0  0  0  0  0  0
   37.1022    4.1740   14.0134 O   0  0  0  0  0  0  0  0  0  0  0  0
   36.6939    3.1110   12.9093 P   0  0  0  0  0  0  0  0  0  0  0  0
   37.7978    2.2164   12.4567 O   0  0  0  0  0  0  0  0  0  0  0  0
   36.0179    3.9701   11.7487 O   0  0  0  0  0  0  0  0  0  0  0  0
   35.4416    2.3448   13.5323 O   0  0  0  0  0  0  0  0  0  0  0  0
   36.6987    4.4877   11.2911 H   0  0  0  0  0  0  0  0  0  0  0  0
   35.7388    1.7799   14.2627 H   0  0  0  0  0  0  0  0  0  0  0  0
 10 11  1  0
 11 12  2  0
 12 13  1  0
 13 14  1  0
 13 15  2  0
 15 16  1  0
 16 17  2  0
 17 18  1  0
 18 19  2  0
 19 20  1  0
  1 20  1  0
  1  2  1  0
  2  3  1  0
  3 23  1  0
 23 24  1  0
 24 25  1  0
 25 26  2  0
 25 27  1  0
 25 29  1  0
 29 30  1  0
 30 31  2  0
 30 32  1  0
 30 33  1  0
  3  4  1  0
  4  5  1  0
  4  6  1  0
  6  7  1  0
 17 11  1  0
  6  1  1  0
 20 16  1  0
 10 21  1  0
 10 22  1  0
 27 28  1  0
 32 34  1  0
 33 35  1  0
  5  8  1  0
  7  9  1  0
M  END
> <minimizedAffinity>
-7.41536

> <CNNscore>
0.9052260518

> <CNNaffinity>
4.7036442757

> <CNN_VS>
4.2578611374

> <CNNaffinity_variance>
0.4591452777

$$$$



 35 37  0  0  0  0  0  0  0  0999 V2000
   39.8178    3.9090   17.6177 C   0  0  0  0  0  0  0  0  0  0  0  0
   39.0175    3.8458   16.4140 O   0  0  0  0  0  0  0  0  0  0  0  0
   39.8132    3.2175   15.3887 C   0  0  0  0  0  0  0  0  0  0  0  0
   40.8091    2.3341   16.1355 C   0  0  0  0  0  0  0  0  0  0  0  0
   41.9659    1.9970   15.3868 O   0  0  0  0  0  0  0  0  0  0  0  0
   41.1547    3.2123   17.3271 C   0  0  0  0  0  0  0  0  0  0  0  0
   42.1603    4.1618   16.9163 O   0  0  0  0  0  0  0  0  0  0  0  0
   42.4201    2.8084   15.1106 H   0  0  0  0  0  0  0  0  0  0  0  0
   41.8438    4.6535   16.1424 H   0  0  0  0  0  0  0  0  0  0  0  0
   36.0304    2.5390   22.1183 N   0  0  0  0  0  0  0  0  0  0  0  0
   36.5558    3.3603   21.1323 C   0  0  0  0  0  0  0  0  0  0  0  0
   36.0092    4.5831   20.9576 N   0  0  0  0  0  0  0  0  0  0  0  0
   36.5073    5.3815   19.9886 C   0  0  0  0  0  0  0  0  0  0  0  0
   35.9277    6.5846   19.8570 F   0  0  0  0  0  0  0  0  0  0  0  0
   37.5319    5.1255   19.1435 N   0  0  0  0  0  0  0  0  0  0  0  0
   38.0416    3.9049   19.3678 C   0  0  0  0  0  0  0  0  0  0  0  0
   37.6343    2.9838   20.3159 C   0  0  0  0  0  0  0  0  0  0  0  0
   38.4172    1.8515   20.2592 N   0  0  0  0  0  0  0  0  0  0  0  0
   39.2682    2.0734   19.2781 C   0  0  0  0  0  0  0  0  0  0  0  0
   39.0861    3.3064   18.7158 N   0  0  0  0  0  0  0  0  0  0  0  0
   35.2727    2.8491   22.6651 H   0  0  0  0  0  0  0  0  0  0  0  0
   36.4151    1.6459   22.2716 H   0  0  0  0  0  0  0  0  0  0  0  0
   38.9089    2.4556   14.4253 C   0  0  0  0  0  0  0  0  0  0  0  0
   37.6959    3.1537   14.2228 O   0  0  0  0  0  0  0  0  0  0  0  0
   36.8202    2.7418   12.9465 P   0  0  0  0  0  0  0  0  0  0  0  0
   37.4226    1.7228   12.0337 O   0  0  0  0  0  0  0  0  0  0  0  0
   35.4273    2.2852   13.5911 O   0  0  0  0  0  0  0  0  0  0  0  0
   35.5449    1.4376   14.0480 H   0  0  0  0  0  0  0  0  0  0  0  0
   36.4639    4.1252   12.2457 O   0  0  0  0  0  0  0  0  0  0  0  0
   35.9900    5.3014   13.1986 P   0  0  0  0  0  0  0  0  0  0  0  0
   36.1607    5.0391   14.6566 O   0  0  0  0  0  0  0  0  0  0  0  0
   34.4909    5.6080   12.7507 O   0  0  0  0  0  0  0  0  0  0  0  0
   36.7685    6.5879   12.6673 O   0  0  0  0  0  0  0  0  0  0  0  0
   33.9151    4.8778   13.0267 H   0  0  0  0  0  0  0  0  0  0  0  0
   37.7099    6.5101   12.8879 H   0  0  0  0  0  0  0  0  0  0  0  0
 10 11  1  0
 11 12  2  0
 12 13  1  0
 13 14  1  0
 13 15  2  0
 15 16  1  0
 16 17  2  0
 17 18  1  0
 18 19  2  0
 19 20  1  0
  1 20  1  0
  1  2  1  0
  2  3  1  0
  3 23  1  0
 23 24  1  0
 24 25  1  0
 25 26  2  0
 25 27  1  0
 25 29  1  0
 29 30  1  0
 30 31  2  0
 30 32  1  0
 30 33  1  0
  3  4  1  0
  4  5  1  0
  4  6  1  0
  6  7  1  0
 17 11  1  0
  6  1  1  0
 20 16  1  0
 10 21  1  0
 10 22  1  0
 27 28  1  0
 32 34  1  0
 33 35  1  0
  5  8  1  0
  7  9  1  0
M  END
> <minimizedAffinity>
-8.04397

> <CNNscore>
0.8650251031

> <CNNaffinity>
4.9641976357

> <CNN_VS>
4.2941555977

> <CNNaffinity_variance>
0.3380288780

$$$$



 35 37  0  0  0  0  0  0  0  0999 V2000
   37.7267    6.9822   18.6049 C   0  0  0  0  0  0  0  0  0  0  0  0
   36.8232    7.1130   17.4824 O   0  0  0  0  0  0  0  0  0  0  0  0
   37.4921    6.5922   16.3159 C   0  0  0  0  0  0  0  0  0  0  0  0
   38.4990    5.5760   16.8483 C   0  0  0  0  0  0  0  0  0  0  0  0
   39.5668    5.2916   15.9587 O   0  0  0  0  0  0  0  0  0  0  0  0
   38.9935    6.2734   18.1051 C   0  0  0  0  0  0  0  0  0  0  0  0
   40.0101    7.2250   17.7276 O   0  0  0  0  0  0  0  0  0  0  0  0
   40.0390    6.1121   15.7475 H   0  0  0  0  0  0  0  0  0  0  0  0
   39.6553    7.8277   17.0555 H   0  0  0  0  0  0  0  0  0  0  0  0
   35.7389    2.9897   22.6774 N   0  0  0  0  0  0  0  0  0  0  0  0
   36.4895    3.3912   21.5828 C   0  0  0  0  0  0  0  0  0  0  0  0
   37.2795    2.4781   20.9772 N   0  0  0  0  0  0  0  0  0  0  0  0
   38.0243    2.8674   19.9197 C   0  0  0  0  0  0  0  0  0  0  0  0
   38.7915    1.9217   19.3560 F   0  0  0  0  0  0  0  0  0  0  0  0
   38.0799    4.0909   19.3457 N   0  0  0  0  0  0  0  0  0  0  0  0
   37.2706    4.9526   19.9799 C   0  0  0  0  0  0  0  0  0  0  0  0
   36.4582    4.6978   21.0699 C   0  0  0  0  0  0  0  0  0  0  0  0
   35.7544    5.8280   21.4246 N   0  0  0  0  0  0  0  0  0  0  0  0
   36.1516    6.7571   20.5790 C   0  0  0  0  0  0  0  0  0  0  0  0
   37.0606    6.2718   19.6801 N   0  0  0  0  0  0  0  0  0  0  0  0
   35.7957    2.0611   22.9994 H   0  0  0  0  0  0  0  0  0  0  0  0
   35.1491    3.6333   23.1326 H   0  0  0  0  0  0  0  0  0  0  0  0
   36.4678    6.0038   15.3510 C   0  0  0  0  0  0  0  0  0  0  0  0
   37.0614    5.0095   14.5395 O   0  0  0  0  0  0  0  0  0  0  0  0
   36.1571    4.3792   13.3773 P   0  0  0  0  0  0  0  0  0  0  0  0
   35.4874    3.0806   13.6930 O   0  0  0  0  0  0  0  0  0  0  0  0
   35.1358    5.5618   13.0271 O   0  0  0  0  0  0  0  0  0  0  0  0
   34.5016    5.6669   13.7535 H   0  0  0  0  0  0  0  0  0  0  0  0
   37.1156    4.3346   12.1080 O   0  0  0  0  0  0  0  0  0  0  0  0
   38.2956    5.3939   12.0730 P   0  0  0  0  0  0  0  0  0  0  0  0
   39.4693    5.0587   12.9297 O   0  0  0  0  0  0  0  0  0  0  0  0
   37.6008    6.7875   12.4152 O   0  0  0  0  0  0  0  0  0  0  0  0
   38.6395    5.5618   10.5247 O   0  0  0  0  0  0  0  0  0  0  0  0
   37.3439    6.7997   13.3505 H   0  0  0  0  0  0  0  0  0  0  0  0
   39.0745    4.7575   10.2011 H   0  0  0  0  0  0  0  0  0  0  0  0
 10 11  1  0
 11 12  2  0
 12 13  1  0
 13 14  1  0
 13 15  2  0
 15 16  1  0
 16 17  2  0
 17 18  1  0
 18 19  2  0
 19 20  1  0
  1 20  1  0
  1  2  1  0
  2  3  1  0
  3 23  1  0
 23 24  1  0
 24 25  1  0
 25 26  2  0
 25 27  1  0
 25 29  1  0
 29 30  1  0
 30 31  2  0
 30 32  1  0
 30 33  1  0
  3  4  1  0
  4  5  1  0
  4  6  1  0
  6  7  1  0
 17 11  1  0
  6  1  1  0
 20 16  1  0
 10 21  1  0
 10 22  1  0
 27 28  1  0
 32 34  1  0
 33 35  1  0
  5  8  1  0
  7  9  1  0
M  END
> <minimizedAffinity>
-7.87359

> <CNNscore>
0.7939567566

> <CNNaffinity>
4.9528617859

> <CNN_VS>
3.9323580265

> <CNNaffinity_variance>
0.3003874719

$$$$



 35 37  0  0  0  0  0  0  0  0999 V2000
   38.8723    5.4886   17.6678 C   0  0  0  0  0  0  0  0  0  0  0  0
   37.8246    5.6912   16.6906 O   0  0  0  0  0  0  0  0  0  0  0  0
   38.3925    5.4692   15.3839 C   0  0  0  0  0  0  0  0  0  0  0  0
   39.5635    4.5164   15.6094 C   0  0  0  0  0  0  0  0  0  0  0  0
   40.5340    4.5296   14.5749 O   0  0  0  0  0  0  0  0  0  0  0  0
   40.1348    5.0464   16.9144 C   0  0  0  0  0  0  0  0  0  0  0  0
   40.9856    6.1724   16.6148 O   0  0  0  0  0  0  0  0  0  0  0  0
   40.8835    5.4284   14.4709 H   0  0  0  0  0  0  0  0  0  0  0  0
   40.4848    6.8301   16.1072 H   0  0  0  0  0  0  0  0  0  0  0  0
   36.1141    2.4332   22.0875 N   0  0  0  0  0  0  0  0  0  0  0  0
   36.3385    3.5414   21.2848 C   0  0  0  0  0  0  0  0  0  0  0  0
   35.5829    4.6428   21.4862 N   0  0  0  0  0  0  0  0  0  0  0  0
   35.7871    5.7200   20.6972 C   0  0  0  0  0  0  0  0  0  0  0  0
   35.0093    6.7865   20.9389 F   0  0  0  0  0  0  0  0  0  0  0  0
   36.6924    5.8642   19.7026 N   0  0  0  0  0  0  0  0  0  0  0  0
   37.4196    4.7466   19.5538 C   0  0  0  0  0  0  0  0  0  0  0  0
   37.3201    3.5745   20.2814 C   0  0  0  0  0  0  0  0  0  0  0  0
   38.2548    2.6574   19.8531 N   0  0  0  0  0  0  0  0  0  0  0  0
   38.8931    3.2551   18.8675 C   0  0  0  0  0  0  0  0  0  0  0  0
   38.4295    4.5241   18.6568 N   0  0  0  0  0  0  0  0  0  0  0  0
   35.4129    2.4595   22.7781 H   0  0  0  0  0  0  0  0  0  0  0  0
   36.6559    1.6201   21.9668 H   0  0  0  0  0  0  0  0  0  0  0  0
   37.3240    4.9267   14.4402 C   0  0  0  0  0  0  0  0  0  0  0  0
   37.5414    3.5544   14.1774 O   0  0  0  0  0  0  0  0  0  0  0  0
   36.6919    2.8943   12.9908 P   0  0  0  0  0  0  0  0  0  0  0  0
   35.4745    2.1282   13.3976 O   0  0  0  0  0  0  0  0  0  0  0  0
   36.3793    4.1368   12.0302 O   0  0  0  0  0  0  0  0  0  0  0  0
   35.7301    4.7188   12.4553 H   0  0  0  0  0  0  0  0  0  0  0  0
   37.7559    2.0493   12.1627 O   0  0  0  0  0  0  0  0  0  0  0  0
   37.8808    0.5113   12.5302 P   0  0  0  0  0  0  0  0  0  0  0  0
   39.2057   -0.1032   12.2288 O   0  0  0  0  0  0  0  0  0  0  0  0
   36.6457   -0.1827   11.7988 O   0  0  0  0  0  0  0  0  0  0  0  0
   37.4522    0.4282   14.0640 O   0  0  0  0  0  0  0  0  0  0  0  0
   36.7990   -0.1890   10.8410 H   0  0  0  0  0  0  0  0  0  0  0  0
   38.1428    0.8287   14.6149 H   0  0  0  0  0  0  0  0  0  0  0  0
 10 11  1  0
 11 12  2  0
 12 13  1  0
 13 14  1  0
 13 15  2  0
 15 16  1  0
 16 17  2  0
 17 18  1  0
 18 19  2  0
 19 20  1  0
  1 20  1  0
  1  2  1  0
  2  3  1  0
  3 23  1  0
 23 24  1  0
 24 25  1  0
 25 26  2  0
 25 27  1  0
 25 29  1  0
 29 30  1  0
 30 31  2  0
 30 32  1  0
 30 33  1  0
  3  4  1  0
  4  5  1  0
  4  6  1  0
  6  7  1  0
 17 11  1  0
  6  1  1  0
 20 16  1  0
 10 21  1  0
 10 22  1  0
 27 28  1  0
 32 34  1  0
 33 35  1  0
  5  8  1  0
  7  9  1  0
M  END
> <minimizedAffinity>
-6.93559

> <CNNscore>
0.6782373786

> <CNNaffinity>
4.4571185112

> <CNN_VS>
3.0229842663

> <CNNaffinity_variance>
0.4321926534

$$$$



 35 37  0  0  0  0  0  0  0  0999 V2000
   38.6652   -2.0299   13.9925 C   0  0  0  0  0  0  0  0  0  0  0  0
   37.8328   -0.8740   14.2458 O   0  0  0  0  0  0  0  0  0  0  0  0
   38.4348    0.2559   13.5823 C   0  0  0  0  0  0  0  0  0  0  0  0
   39.2315   -0.3349   12.4221 C   0  0  0  0  0  0  0  0  0  0  0  0
   40.2590    0.5101   11.9298 O   0  0  0  0  0  0  0  0  0  0  0  0
   39.8026   -1.5913   13.0592 C   0  0  0  0  0  0  0  0  0  0  0  0
   40.9812   -1.2270   13.8072 O   0  0  0  0  0  0  0  0  0  0  0  0
   40.8739    0.7241   12.6488 H   0  0  0  0  0  0  0  0  0  0  0  0
   40.7579   -0.5289   14.4426 H   0  0  0  0  0  0  0  0  0  0  0  0
   34.6833   -5.4612   11.0180 N   0  0  0  0  0  0  0  0  0  0  0  0
   35.2592   -4.2588   11.3991 C   0  0  0  0  0  0  0  0  0  0  0  0
   34.7462   -3.1144   10.8972 N   0  0  0  0  0  0  0  0  0  0  0  0
   35.3128   -1.9411   11.2534 C   0  0  0  0  0  0  0  0  0  0  0  0
   34.7654   -0.8353   10.7258 F   0  0  0  0  0  0  0  0  0  0  0  0
   36.3551   -1.7402   12.0917 N   0  0  0  0  0  0  0  0  0  0  0  0
   36.8170   -2.9068   12.5666 C   0  0  0  0  0  0  0  0  0  0  0  0
   36.3420   -4.1759   12.2891 C   0  0  0  0  0  0  0  0  0  0  0  0
   37.0581   -5.1245   12.9858 N   0  0  0  0  0  0  0  0  0  0  0  0
   37.9662   -4.4436   13.6550 C   0  0  0  0  0  0  0  0  0  0  0  0
   37.8529   -3.0979   13.4410 N   0  0  0  0  0  0  0  0  0  0  0  0
   33.9248   -5.4667   10.3904 H   0  0  0  0  0  0  0  0  0  0  0  0
   35.0329   -6.3095   11.3750 H   0  0  0  0  0  0  0  0  0  0  0  0
   37.3526    1.2416   13.1535 C   0  0  0  0  0  0  0  0  0  0  0  0
   37.6483    2.5420   13.6237 O   0  0  0  0  0  0  0  0  0  0  0  0
   36.5949    3.6994   13.2825 P   0  0  0  0  0  0  0  0  0  0  0  0
   36.7423    4.3530   11.9463 O   0  0  0  0  0  0  0  0  0  0  0  0
   35.1802    2.9798   13.4946 O   0  0  0  0  0  0  0  0  0  0  0  0
   35.0313    2.3422   12.7790 H   0  0  0  0  0  0  0  0  0  0  0  0
   36.6874    4.6977   14.5181 O   0  0  0  0  0  0  0  0  0  0  0  0
   36.7435    6.2456   14.1763 P   0  0  0  0  0  0  0  0  0  0  0  0
   38.0378    6.7188   13.6064 O   0  0  0  0  0  0  0  0  0  0  0  0
   36.3060    6.9754   15.5246 O   0  0  0  0  0  0  0  0  0  0  0  0
   35.4809    6.4957   13.2347 O   0  0  0  0  0  0  0  0  0  0  0  0
   37.0118    6.8867   16.1841 H   0  0  0  0  0  0  0  0  0  0  0  0
   35.6374    6.0874   12.3688 H   0  0  0  0  0  0  0  0  0  0  0  0
 10 11  1  0
 11 12  2  0
 12 13  1  0
 13 14  1  0
 13 15  2  0
 15 16  1  0
 16 17  2  0
 17 18  1  0
 18 19  2  0
 19 20  1  0
  1 20  1  0
  1  2  1  0
  2  3  1  0
  3 23  1  0
 23 24  1  0
 24 25  1  0
 25 26  2  0
 25 27  1  0
 25 29  1  0
 29 30  1  0
 30 31  2  0
 30 32  1  0
 30 33  1  0
  3  4  1  0
  4  5  1  0
  4  6  1  0
  6  7  1  0
 17 11  1  0
  6  1  1  0
 20 16  1  0
 10 21  1  0
 10 22  1  0
 27 28  1  0
 32 34  1  0
 33 35  1  0
  5  8  1  0
  7  9  1  0
M  END
> <minimizedAffinity>
-8.56188

> <CNNscore>
0.6528043151

> <CNNaffinity>
4.8833675385

> <CNN_VS>
3.1878833771

> <CNNaffinity_variance>
0.2307132930

$$$$



 35 37  0  0  0  0  0  0  0  0999 V2000
   37.5012   -1.7702   13.4030 C   0  0  0  0  0  0  0  0  0  0  0  0
   37.0318   -0.4067   13.5209 O   0  0  0  0  0  0  0  0  0  0  0  0
   38.1327    0.4673   13.1996 C   0  0  0  0  0  0  0  0  0  0  0  0
   39.0359   -0.3447   12.2749 C   0  0  0  0  0  0  0  0  0  0  0  0
   40.3750    0.1194   12.2122 O   0  0  0  0  0  0  0  0  0  0  0  0
   38.9546   -1.7231   12.9104 C   0  0  0  0  0  0  0  0  0  0  0  0
   39.8821   -1.7708   14.0144 O   0  0  0  0  0  0  0  0  0  0  0  0
   40.7608    0.1149   13.1021 H   0  0  0  0  0  0  0  0  0  0  0  0
   39.6940   -1.0423   14.6266 H   0  0  0  0  0  0  0  0  0  0  0  0
   34.2548   -5.9147   10.4432 N   0  0  0  0  0  0  0  0  0  0  0  0
   35.1804   -5.4892   11.3838 C   0  0  0  0  0  0  0  0  0  0  0  0
   35.7812   -6.4186   12.1584 N   0  0  0  0  0  0  0  0  0  0  0  0
   36.6726   -6.0084   13.0867 C   0  0  0  0  0  0  0  0  0  0  0  0
   37.2391   -6.9718   13.8295 F   0  0  0  0  0  0  0  0  0  0  0  0
   37.0795   -4.7455   13.3496 N   0  0  0  0  0  0  0  0  0  0  0  0
   36.4596   -3.8677   12.5465 C   0  0  0  0  0  0  0  0  0  0  0  0
   35.5288   -4.1406   11.5605 C   0  0  0  0  0  0  0  0  0  0  0  0
   35.1366   -2.9802   10.9297 N   0  0  0  0  0  0  0  0  0  0  0  0
   35.8005   -2.0190   11.5390 C   0  0  0  0  0  0  0  0  0  0  0  0
   36.6211   -2.5086   12.5172 N   0  0  0  0  0  0  0  0  0  0  0  0
   34.0444   -6.8726   10.3579 H   0  0  0  0  0  0  0  0  0  0  0  0
   33.8080   -5.2588    9.8606 H   0  0  0  0  0  0  0  0  0  0  0  0
   37.6061    1.7565   12.5773 C   0  0  0  0  0  0  0  0  0  0  0  0
   37.8742    2.8615   13.4179 O   0  0  0  0  0  0  0  0  0  0  0  0
   36.8824    4.1150   13.3155 P   0  0  0  0  0  0  0  0  0  0  0  0
   37.0161    4.9642   12.0926 O   0  0  0  0  0  0  0  0  0  0  0  0
   35.4351    3.4504   13.4825 O   0  0  0  0  0  0  0  0  0  0  0  0
   35.2177    2.9442   12.6841 H   0  0  0  0  0  0  0  0  0  0  0  0
   37.0872    4.8969   14.6860 O   0  0  0  0  0  0  0  0  0  0  0  0
   36.8688    6.4674   14.6459 P   0  0  0  0  0  0  0  0  0  0  0  0
   38.0674    7.2605   14.2480 O   0  0  0  0  0  0  0  0  0  0  0  0
   36.2785    6.8322   16.0813 O   0  0  0  0  0  0  0  0  0  0  0  0
   35.6016    6.6733   13.6998 O   0  0  0  0  0  0  0  0  0  0  0  0
   36.9749    6.7404   16.7502 H   0  0  0  0  0  0  0  0  0  0  0  0
   35.8474    6.4756   12.7826 H   0  0  0  0  0  0  0  0  0  0  0  0
 10 11  1  0
 11 12  2  0
 12 13  1  0
 13 14  1  0
 13 15  2  0
 15 16  1  0
 16 17  2  0
 17 18  1  0
 18 19  2  0
 19 20  1  0
  1 20  1  0
  1  2  1  0
  2  3  1  0
  3 23  1  0
 23 24  1  0
 24 25  1  0
 25 26  2  0
 25 27  1  0
 25 29  1  0
 29 30  1  0
 30 31  2  0
 30 32  1  0
 30 33  1  0
  3  4  1  0
  4  5  1  0
  4  6  1  0
  6  7  1  0
 17 11  1  0
  6  1  1  0
 20 16  1  0
 10 21  1  0
 10 22  1  0
 27 28  1  0
 32 34  1  0
 33 35  1  0
  5  8  1  0
  7  9  1  0
M  END
> <minimizedAffinity>
-7.70631

> <CNNscore>
0.6491076946

> <CNNaffinity>
4.7571463585

> <CNN_VS>
3.0879004002

> <CNNaffinity_variance>
0.0417557471

$$$$



 35 37  0  0  0  0  0  0  0  0999 V2000
   42.5220    4.7812    9.4477 C   0  0  0  0  0  0  0  0  0  0  0  0
   41.5662    3.8601   10.0235 O   0  0  0  0  0  0  0  0  0  0  0  0
   41.5008    4.1220   11.4400 C   0  0  0  0  0  0  0  0  0  0  0  0
   41.9010    5.5865   11.5985 C   0  0  0  0  0  0  0  0  0  0  0  0
   42.3563    5.9296   12.8974 O   0  0  0  0  0  0  0  0  0  0  0  0
   43.0136    5.7066   10.5698 C   0  0  0  0  0  0  0  0  0  0  0  0
   44.2337    5.2110   11.1589 O   0  0  0  0  0  0  0  0  0  0  0  0
   43.1173    5.3750   13.1303 H   0  0  0  0  0  0  0  0  0  0  0  0
   44.0924    4.3079   11.4837 H   0  0  0  0  0  0  0  0  0  0  0  0
   41.1656    8.3305    4.7531 N   0  0  0  0  0  0  0  0  0  0  0  0
   41.9923    7.8410    5.7529 C   0  0  0  0  0  0  0  0  0  0  0  0
   43.2385    8.3507    5.8616 N   0  0  0  0  0  0  0  0  0  0  0  0
   44.0532    7.8669    6.8242 C   0  0  0  0  0  0  0  0  0  0  0  0
   45.2801    8.4070    6.8877 F   0  0  0  0  0  0  0  0  0  0  0  0
   43.7799    6.9154    7.7459 N   0  0  0  0  0  0  0  0  0  0  0  0
   42.5292    6.4531    7.5977 C   0  0  0  0  0  0  0  0  0  0  0  0
   41.5907    6.8492    6.6621 C   0  0  0  0  0  0  0  0  0  0  0  0
   40.4092    6.1632    6.8403 N   0  0  0  0  0  0  0  0  0  0  0  0
   40.6362    5.3488    7.8509 C   0  0  0  0  0  0  0  0  0  0  0  0
   41.9014    5.4956    8.3482 N   0  0  0  0  0  0  0  0  0  0  0  0
   41.4942    9.0269    4.1397 H   0  0  0  0  0  0  0  0  0  0  0  0
   40.2500    7.9817    4.6567 H   0  0  0  0  0  0  0  0  0  0  0  0
   40.1041    3.8005   11.9622 C   0  0  0  0  0  0  0  0  0  0  0  0
   39.5443    4.9244   12.6125 O   0  0  0  0  0  0  0  0  0  0  0  0
   38.1996    5.5335   11.9909 P   0  0  0  0  0  0  0  0  0  0  0  0
   37.7843    6.8749   12.5031 O   0  0  0  0  0  0  0  0  0  0  0  0
   38.4803    5.5050   10.4146 O   0  0  0  0  0  0  0  0  0  0  0  0
   39.1400    6.1802   10.1914 H   0  0  0  0  0  0  0  0  0  0  0  0
   37.1145    4.3871   12.1908 O   0  0  0  0  0  0  0  0  0  0  0  0
   36.1946    4.4981   13.4782 P   0  0  0  0  0  0  0  0  0  0  0  0
   36.9243    4.7459   14.7549 O   0  0  0  0  0  0  0  0  0  0  0  0
   35.3143    3.1689   13.4643 O   0  0  0  0  0  0  0  0  0  0  0  0
   35.1192    5.6164   13.1089 O   0  0  0  0  0  0  0  0  0  0  0  0
   35.8752    2.4073   13.6798 H   0  0  0  0  0  0  0  0  0  0  0  0
   35.5504    6.4851   13.0877 H   0  0  0  0  0  0  0  0  0  0  0  0
 10 11  1  0
 11 12  2  0
 12 13  1  0
 13 14  1  0
 13 15  2  0
 15 16  1  0
 16 17  2  0
 17 18  1  0
 18 19  2  0
 19 20  1  0
  1 20  1  0
  1  2  1  0
  2  3  1  0
  3 23  1  0
 23 24  1  0
 24 25  1  0
 25 26  2  0
 25 27  1  0
 25 29  1  0
 29 30  1  0
 30 31  2  0
 30 32  1  0
 30 33  1  0
  3  4  1  0
  4  5  1  0
  4  6  1  0
  6  7  1  0
 17 11  1  0
  6  1  1  0
 20 16  1  0
 10 21  1  0
 10 22  1  0
 27 28  1  0
 32 34  1  0
 33 35  1  0
  5  8  1  0
  7  9  1  0
M  END
> <minimizedAffinity>
-7.08468

> <CNNscore>
0.5934070945

> <CNNaffinity>
4.0627498627

> <CNN_VS>
2.4108645916

> <CNNaffinity_variance>
0.1907218099

$$$$



 35 37  0  0  0  0  0  0  0  0999 V2000
   37.2554    6.6018   19.3126 C   0  0  0  0  0  0  0  0  0  0  0  0
   36.6041    6.4527   18.0293 O   0  0  0  0  0  0  0  0  0  0  0  0
   36.8213    7.6665   17.2817 C   0  0  0  0  0  0  0  0  0  0  0  0
   38.1177    8.2537   17.8335 C   0  0  0  0  0  0  0  0  0  0  0  0
   38.2778    9.6426   17.5934 O   0  0  0  0  0  0  0  0  0  0  0  0
   37.9728    7.9592   19.3176 C   0  0  0  0  0  0  0  0  0  0  0  0
   37.1463    8.9847   19.9066 O   0  0  0  0  0  0  0  0  0  0  0  0
   37.5310   10.1258   17.9805 H   0  0  0  0  0  0  0  0  0  0  0  0
   36.3030    9.0338   19.4299 H   0  0  0  0  0  0  0  0  0  0  0  0
   41.7034    2.8507   20.9317 N   0  0  0  0  0  0  0  0  0  0  0  0
   41.0732    4.0834   20.8541 C   0  0  0  0  0  0  0  0  0  0  0  0
   41.6773    5.1494   21.4227 N   0  0  0  0  0  0  0  0  0  0  0  0
   41.0608    6.3498   21.3631 C   0  0  0  0  0  0  0  0  0  0  0  0
   41.7034    7.3745   21.9443 F   0  0  0  0  0  0  0  0  0  0  0  0
   39.8815    6.6519   20.7737 N   0  0  0  0  0  0  0  0  0  0  0  0
   39.3325    5.5610   20.2184 C   0  0  0  0  0  0  0  0  0  0  0  0
   39.8438    4.2759   20.2039 C   0  0  0  0  0  0  0  0  0  0  0  0
   39.0048    3.4282   19.5141 N   0  0  0  0  0  0  0  0  0  0  0  0
   37.9916    4.1819   19.1381 C   0  0  0  0  0  0  0  0  0  0  0  0
   38.1504    5.4815   19.5324 N   0  0  0  0  0  0  0  0  0  0  0  0
   42.5657    2.7672   21.3993 H   0  0  0  0  0  0  0  0  0  0  0  0
   41.2885    2.0589   20.5191 H   0  0  0  0  0  0  0  0  0  0  0  0
   36.8674    7.3543   15.7893 C   0  0  0  0  0  0  0  0  0  0  0  0
   36.8400    5.9574   15.5713 O   0  0  0  0  0  0  0  0  0  0  0  0
   36.5675    5.4569   14.0744 P   0  0  0  0  0  0  0  0  0  0  0  0
   35.1398    5.4463   13.6315 O   0  0  0  0  0  0  0  0  0  0  0  0
   37.5074    6.4087   13.1941 O   0  0  0  0  0  0  0  0  0  0  0  0
   37.1409    7.3067   13.1857 H   0  0  0  0  0  0  0  0  0  0  0  0
   37.2941    4.0439   13.9894 O   0  0  0  0  0  0  0  0  0  0  0  0
   36.7575    3.0356   12.8888 P   0  0  0  0  0  0  0  0  0  0  0  0
   37.7350    1.9958   12.4563 O   0  0  0  0  0  0  0  0  0  0  0  0
   36.2165    3.9674   11.7135 O   0  0  0  0  0  0  0  0  0  0  0  0
   35.4063    2.4517   13.5028 O   0  0  0  0  0  0  0  0  0  0  0  0
   36.9660    4.3839   11.2601 H   0  0  0  0  0  0  0  0  0  0  0  0
   35.6165    1.8587   14.2410 H   0  0  0  0  0  0  0  0  0  0  0  0
 10 11  1  0
 11 12  2  0
 12 13  1  0
 13 14  1  0
 13 15  2  0
 15 16  1  0
 16 17  2  0
 17 18  1  0
 18 19  2  0
 19 20  1  0
  1 20  1  0
  1  2  1  0
  2  3  1  0
  3 23  1  0
 23 24  1  0
 24 25  1  0
 25 26  2  0
 25 27  1  0
 25 29  1  0
 29 30  1  0
 30 31  2  0
 30 32  1  0
 30 33  1  0
  3  4  1  0
  4  5  1  0
  4  6  1  0
  6  7  1  0
 17 11  1  0
  6  1  1  0
 20 16  1  0
 10 21  1  0
 10 22  1  0
 27 28  1  0
 32 34  1  0
 33 35  1  0
  5  8  1  0
  7  9  1  0
M  END
> <minimizedAffinity>
-5.92997

> <CNNscore>
0.4649722278

> <CNNaffinity>
4.6439380646

> <CNN_VS>
2.1593022346

> <CNNaffinity_variance>
0.0685249195

$$$$



 35 37  0  0  0  0  0  0  0  0999 V2000
   39.2125    4.3186   17.6063 C   0  0  0  0  0  0  0  0  0  0  0  0
   38.7628    3.6017   16.4328 O   0  0  0  0  0  0  0  0  0  0  0  0
   39.9309    3.1833   15.6981 C   0  0  0  0  0  0  0  0  0  0  0  0
   41.0430    3.0719   16.7377 C   0  0  0  0  0  0  0  0  0  0  0  0
   42.3538    3.1360   16.1991 O   0  0  0  0  0  0  0  0  0  0  0  0
   40.7469    4.2710   17.6237 C   0  0  0  0  0  0  0  0  0  0  0  0
   41.3131    5.4449   17.0051 O   0  0  0  0  0  0  0  0  0  0  0  0
   42.4648    3.9704   15.7170 H   0  0  0  0  0  0  0  0  0  0  0  0
   40.9736    5.5294   16.1004 H   0  0  0  0  0  0  0  0  0  0  0  0
   35.9258    3.0053   22.5002 N   0  0  0  0  0  0  0  0  0  0  0  0
   36.3292    3.8066   21.4429 C   0  0  0  0  0  0  0  0  0  0  0  0
   35.7359    5.0101   21.2874 N   0  0  0  0  0  0  0  0  0  0  0  0
   36.1145    5.7884   20.2504 C   0  0  0  0  0  0  0  0  0  0  0  0
   35.4930    6.9728   20.1417 F   0  0  0  0  0  0  0  0  0  0  0  0
   37.0570    5.5295   19.3155 N   0  0  0  0  0  0  0  0  0  0  0  0
   37.6185    4.3291   19.5240 C   0  0  0  0  0  0  0  0  0  0  0  0
   37.3314    3.4295   20.5347 C   0  0  0  0  0  0  0  0  0  0  0  0
   38.1346    2.3147   20.4338 N   0  0  0  0  0  0  0  0  0  0  0  0
   38.8783    2.5248   19.3667 C   0  0  0  0  0  0  0  0  0  0  0  0
   38.6090    3.7346   18.7892 N   0  0  0  0  0  0  0  0  0  0  0  0
   35.2179    3.3149   23.1103 H   0  0  0  0  0  0  0  0  0  0  0  0
   36.3472    2.1267   22.6407 H   0  0  0  0  0  0  0  0  0  0  0  0
   39.6393    1.8810   14.9595 C   0  0  0  0  0  0  0  0  0  0  0  0
   39.2470    2.1414   13.6261 O   0  0  0  0  0  0  0  0  0  0  0  0
   38.1874    1.1372   12.9670 P   0  0  0  0  0  0  0  0  0  0  0  0
   36.9486    1.7589   12.4073 O   0  0  0  0  0  0  0  0  0  0  0  0
   39.0592    0.3482   11.8799 O   0  0  0  0  0  0  0  0  0  0  0  0
   39.2724    0.9424   11.1433 H   0  0  0  0  0  0  0  0  0  0  0  0
   37.9249    0.0423   14.0912 O   0  0  0  0  0  0  0  0  0  0  0  0
   37.5035   -1.4022   13.5896 P   0  0  0  0  0  0  0  0  0  0  0  0
   38.6239   -2.2450   13.0815 O   0  0  0  0  0  0  0  0  0  0  0  0
   36.3377   -1.1414   12.5336 O   0  0  0  0  0  0  0  0  0  0  0  0
   36.7081   -2.0380   14.8170 O   0  0  0  0  0  0  0  0  0  0  0  0
   36.7117   -0.7478   11.7298 H   0  0  0  0  0  0  0  0  0  0  0  0
   37.3289   -2.2415   15.5340 H   0  0  0  0  0  0  0  0  0  0  0  0
 10 11  1  0
 11 12  2  0
 12 13  1  0
 13 14  1  0
 13 15  2  0
 15 16  1  0
 16 17  2  0
 17 18  1  0
 18 19  2  0
 19 20  1  0
  1 20  1  0
  1  2  1  0
  2  3  1  0
  3 23  1  0
 23 24  1  0
 24 25  1  0
 25 26  2  0
 25 27  1  0
 25 29  1  0
 29 30  1  0
 30 31  2  0
 30 32  1  0
 30 33  1  0
  3  4  1  0
  4  5  1  0
  4  6  1  0
  6  7  1  0
 17 11  1  0
  6  1  1  0
 20 16  1  0
 10 21  1  0
 10 22  1  0
 27 28  1  0
 32 34  1  0
 33 35  1  0
  5  8  1  0
  7  9  1  0
M  END
> <minimizedAffinity>
-6.64777

> <CNNscore>
0.4358895719

> <CNNaffinity>
4.3963646889

> <CNN_VS>
1.9163295031

> <CNNaffinity_variance>
0.1717037112

$$$$
