


 20 19  0  0  0  0  0  0  0  0999 V2000
   -4.3871   12.3392   18.5723 C   0  0  0  0  0  0  0  0  0  0  0  0
   -4.1296   13.7674   18.0845 C   0  0  0  0  0  0  0  0  0  0  0  0
   -2.8083   14.3078   18.6373 C   0  0  0  0  0  0  0  0  0  0  0  0
   -2.6846   15.8312   18.5379 C   0  0  0  0  0  0  0  0  0  0  0  0
   -3.8596   16.5521   17.8687 C   0  0  0  0  0  0  0  0  0  0  0  0
   -3.7782   18.0821   17.8549 C   0  0  0  0  0  0  0  0  0  0  0  0
   -4.7971   18.7327   16.9159 C   0  0  0  0  0  0  0  0  0  0  0  0
   -4.2197   19.0705   15.5376 C   0  0  0  0  0  0  0  0  0  0  0  0
   -5.2048   19.9759   13.4025 C   0  0  0  0  0  0  0  0  0  0  0  0
   -4.9088   20.2599   14.8674 C   0  0  0  0  0  0  0  0  0  0  0  0
   -3.1114   11.5036   18.7121 C   0  0  0  0  0  0  0  0  0  0  0  0
   -3.3560   10.1133   19.3054 C   0  0  0  0  0  0  0  0  0  0  0  0
   -2.0750    9.5449   19.9237 C   0  0  0  0  0  0  0  0  0  0  0  0
   -2.1915    8.0667   20.3168 C   0  0  0  0  0  0  0  0  0  0  0  0
   -3.6349    7.5671   20.3730 C   0  0  0  0  0  0  0  0  0  0  0  0
   -4.0477    6.5791   19.2752 C   0  0  0  0  0  0  0  0  0  0  0  0
   -4.4370    5.1575   19.7185 N   0  0  0  0  0  0  0  0  0  0  0  0
   -5.9412    5.0121   19.9241 C   0  0  0  0  0  0  0  0  0  0  0  0
   -3.9401    4.0903   18.7537 C   0  0  0  0  0  0  0  0  0  0  0  0
   -3.7701    4.9070   21.0820 C   0  0  0  0  0  0  0  0  0  0  0  0
  9 10  1  0
 10  8  1  0
  8  7  1  0
  7  6  1  0
  6  5  1  0
  5  4  1  0
  4  3  1  0
  3  2  1  0
  2  1  1  0
  1 11  1  0
 11 12  1  0
 12 13  1  0
 13 14  1  0
 14 15  1  0
 15 16  1  0
 16 17  1  0
 17 18  1  0
 17 19  1  0
 17 20  1  0
M  CHG 1  17   1
M  END
> <minimizedAffinity>
-6.46113

> <CNNscore>
0.8470074534

> <CNNaffinity>
6.3858847618

> <CNN_VS>
5.4088921547

> <CNNaffinity_variance>
0.6270213723

$$$$



 20 19  0  0  0  0  0  0  0  0999 V2000
   -2.8773    7.1840   19.8864 C   0  0  0  0  0  0  0  0  0  0  0  0
   -3.8999    8.2968   19.6413 C   0  0  0  0  0  0  0  0  0  0  0  0
   -3.2045    9.6208   19.3139 C   0  0  0  0  0  0  0  0  0  0  0  0
   -4.1655   10.7082   18.8240 C   0  0  0  0  0  0  0  0  0  0  0  0
   -3.5227   12.0521   18.4652 C   0  0  0  0  0  0  0  0  0  0  0  0
   -4.3710   13.2933   18.7613 C   0  0  0  0  0  0  0  0  0  0  0  0
   -4.0944   14.4560   17.8051 C   0  0  0  0  0  0  0  0  0  0  0  0
   -3.1483   15.5090   18.3910 C   0  0  0  0  0  0  0  0  0  0  0  0
   -4.8654   17.0992   17.4575 C   0  0  0  0  0  0  0  0  0  0  0  0
   -3.4100   16.9197   17.8618 C   0  0  0  0  0  0  0  0  0  0  0  0
   -2.8047    6.7343   21.3485 C   0  0  0  0  0  0  0  0  0  0  0  0
   -2.4793    5.2471   21.5128 C   0  0  0  0  0  0  0  0  0  0  0  0
   -2.6417    4.4979   20.1866 C   0  0  0  0  0  0  0  0  0  0  0  0
   -3.1241    3.0519   20.3583 C   0  0  0  0  0  0  0  0  0  0  0  0
   -2.4140    2.3068   21.4882 C   0  0  0  0  0  0  0  0  0  0  0  0
   -3.3061    1.8152   22.6346 C   0  0  0  0  0  0  0  0  0  0  0  0
   -3.6974    0.3267   22.6327 N   0  0  0  0  0  0  0  0  0  0  0  0
   -4.9706    0.0690   21.8335 C   0  0  0  0  0  0  0  0  0  0  0  0
   -2.5766   -0.5693   22.1252 C   0  0  0  0  0  0  0  0  0  0  0  0
   -3.9930   -0.0684   24.0897 C   0  0  0  0  0  0  0  0  0  0  0  0
  9 10  1  0
 10  8  1  0
  8  7  1  0
  7  6  1  0
  6  5  1  0
  5  4  1  0
  4  3  1  0
  3  2  1  0
  2  1  1  0
  1 11  1  0
 11 12  1  0
 12 13  1  0
 13 14  1  0
 14 15  1  0
 15 16  1  0
 16 17  1  0
 17 18  1  0
 17 19  1  0
 17 20  1  0
M  CHG 1  17   1
M  END
> <minimizedAffinity>
-4.38085

> <CNNscore>
0.8163322806

> <CNNaffinity>
5.9370880127

> <CNN_VS>
4.8466367722

> <CNNaffinity_variance>
0.4823557436

$$$$



 20 19  0  0  0  0  0  0  0  0999 V2000
   -2.1977    8.6969   20.1290 C   0  0  0  0  0  0  0  0  0  0  0  0
   -3.2771    9.7266   19.7845 C   0  0  0  0  0  0  0  0  0  0  0  0
   -2.6719   11.1226   19.6155 C   0  0  0  0  0  0  0  0  0  0  0  0
   -3.4294   11.9969   18.6117 C   0  0  0  0  0  0  0  0  0  0  0  0
   -3.1075   13.4943   18.6576 C   0  0  0  0  0  0  0  0  0  0  0  0
   -4.1927   14.4234   18.1036 C   0  0  0  0  0  0  0  0  0  0  0  0
   -3.6289   15.6061   17.3121 C   0  0  0  0  0  0  0  0  0  0  0  0
   -3.0806   16.7245   18.2041 C   0  0  0  0  0  0  0  0  0  0  0  0
   -5.0437   17.9047   17.1544 C   0  0  0  0  0  0  0  0  0  0  0  0
   -3.7895   18.0641   18.0003 C   0  0  0  0  0  0  0  0  0  0  0  0
   -2.7643    7.3558   20.6042 C   0  0  0  0  0  0  0  0  0  0  0  0
   -1.7403    6.2177   20.5758 C   0  0  0  0  0  0  0  0  0  0  0  0
   -0.5302    6.5867   19.7122 C   0  0  0  0  0  0  0  0  0  0  0  0
    0.0259    5.4065   18.9055 C   0  0  0  0  0  0  0  0  0  0  0  0
   -0.9108    4.1991   18.8750 C   0  0  0  0  0  0  0  0  0  0  0  0
   -1.3405    3.7161   17.4844 C   0  0  0  0  0  0  0  0  0  0  0  0
   -0.7167    2.4061   16.9709 N   0  0  0  0  0  0  0  0  0  0  0  0
   -1.7682    1.3315   16.7148 C   0  0  0  0  0  0  0  0  0  0  0  0
    0.1273    2.6137   15.7214 C   0  0  0  0  0  0  0  0  0  0  0  0
    0.2074    1.8761   18.0807 C   0  0  0  0  0  0  0  0  0  0  0  0
  9 10  1  0
 10  8  1  0
  8  7  1  0
  7  6  1  0
  6  5  1  0
  5  4  1  0
  4  3  1  0
  3  2  1  0
  2  1  1  0
  1 11  1  0
 11 12  1  0
 12 13  1  0
 13 14  1  0
 14 15  1  0
 15 16  1  0
 16 17  1  0
 17 18  1  0
 17 19  1  0
 17 20  1  0
M  CHG 1  17   1
M  END
> <minimizedAffinity>
-5.83926

> <CNNscore>
0.8154098988

> <CNNaffinity>
5.9050521851

> <CNN_VS>
4.8150382042

> <CNNaffinity_variance>
0.4199468791

$$$$



 20 19  0  0  0  0  0  0  0  0999 V2000
   -2.8756   11.8017   20.1032 C   0  0  0  0  0  0  0  0  0  0  0  0
   -3.5630   12.5080   18.9316 C   0  0  0  0  0  0  0  0  0  0  0  0
   -2.9928   13.9137   18.7254 C   0  0  0  0  0  0  0  0  0  0  0  0
   -3.9813   14.8810   18.0674 C   0  0  0  0  0  0  0  0  0  0  0  0
   -3.3576   16.0724   17.3328 C   0  0  0  0  0  0  0  0  0  0  0  0
   -3.5915   17.4439   17.9747 C   0  0  0  0  0  0  0  0  0  0  0  0
   -4.8372   18.1558   17.4416 C   0  0  0  0  0  0  0  0  0  0  0  0
   -4.8663   18.2610   15.9135 C   0  0  0  0  0  0  0  0  0  0  0  0
   -4.9557   19.9356   14.0330 C   0  0  0  0  0  0  0  0  0  0  0  0
   -4.3522   19.6024   15.3889 C   0  0  0  0  0  0  0  0  0  0  0  0
   -1.5295   11.1733   19.7311 C   0  0  0  0  0  0  0  0  0  0  0  0
   -1.4105    9.7023   20.1394 C   0  0  0  0  0  0  0  0  0  0  0  0
   -2.7855    9.0285   20.1788 C   0  0  0  0  0  0  0  0  0  0  0  0
   -2.7167    7.5166   20.4288 C   0  0  0  0  0  0  0  0  0  0  0  0
   -1.4549    6.8661   19.8624 C   0  0  0  0  0  0  0  0  0  0  0  0
   -0.8851    5.6911   20.6665 C   0  0  0  0  0  0  0  0  0  0  0  0
   -1.3962    4.2831   20.3126 N   0  0  0  0  0  0  0  0  0  0  0  0
   -1.8610    4.1888   18.8631 C   0  0  0  0  0  0  0  0  0  0  0  0
   -0.3648    3.2006   20.5977 C   0  0  0  0  0  0  0  0  0  0  0  0
   -2.6241    4.0085   21.1977 C   0  0  0  0  0  0  0  0  0  0  0  0
  9 10  1  0
 10  8  1  0
  8  7  1  0
  7  6  1  0
  6  5  1  0
  5  4  1  0
  4  3  1  0
  3  2  1  0
  2  1  1  0
  1 11  1  0
 11 12  1  0
 12 13  1  0
 13 14  1  0
 14 15  1  0
 15 16  1  0
 16 17  1  0
 17 18  1  0
 17 19  1  0
 17 20  1  0
M  CHG 1  17   1
M  END
> <minimizedAffinity>
-6.33278

> <CNNscore>
0.7824526429

> <CNNaffinity>
5.9281620979

> <CNN_VS>
4.6385059357

> <CNNaffinity_variance>
0.9477515221

$$$$



 20 19  0  0  0  0  0  0  0  0999 V2000
   -2.1121    8.7027   20.2811 C   0  0  0  0  0  0  0  0  0  0  0  0
   -2.5274   10.1296   19.9128 C   0  0  0  0  0  0  0  0  0  0  0  0
   -1.3074   11.0484   19.8091 C   0  0  0  0  0  0  0  0  0  0  0  0
   -1.6597   12.5376   19.8738 C   0  0  0  0  0  0  0  0  0  0  0  0
   -2.7131   13.0165   18.8693 C   0  0  0  0  0  0  0  0  0  0  0  0
   -2.7584   14.5285   18.6256 C   0  0  0  0  0  0  0  0  0  0  0  0
   -4.0767   15.0017   18.0083 C   0  0  0  0  0  0  0  0  0  0  0  0
   -3.9033   16.1726   17.0356 C   0  0  0  0  0  0  0  0  0  0  0  0
   -4.6088   18.5901   16.9557 C   0  0  0  0  0  0  0  0  0  0  0  0
   -3.8373   17.5329   17.7311 C   0  0  0  0  0  0  0  0  0  0  0  0
   -3.2822    7.7151   20.3081 C   0  0  0  0  0  0  0  0  0  0  0  0
   -4.4148    8.0864   19.3467 C   0  0  0  0  0  0  0  0  0  0  0  0
   -4.9330    6.8517   18.6030 C   0  0  0  0  0  0  0  0  0  0  0  0
   -3.8781    6.1935   17.7047 C   0  0  0  0  0  0  0  0  0  0  0  0
   -4.0001    4.6711   17.6430 C   0  0  0  0  0  0  0  0  0  0  0  0
   -4.1873    3.9564   18.9868 C   0  0  0  0  0  0  0  0  0  0  0  0
   -5.5459    3.2789   19.2399 N   0  0  0  0  0  0  0  0  0  0  0  0
   -6.5450    3.5613   18.1227 C   0  0  0  0  0  0  0  0  0  0  0  0
   -5.4171    1.7773   19.4529 C   0  0  0  0  0  0  0  0  0  0  0  0
   -6.1263    3.8891   20.5274 C   0  0  0  0  0  0  0  0  0  0  0  0
  9 10  1  0
 10  8  1  0
  8  7  1  0
  7  6  1  0
  6  5  1  0
  5  4  1  0
  4  3  1  0
  3  2  1  0
  2  1  1  0
  1 11  1  0
 11 12  1  0
 12 13  1  0
 13 14  1  0
 14 15  1  0
 15 16  1  0
 16 17  1  0
 17 18  1  0
 17 19  1  0
 17 20  1  0
M  CHG 1  17   1
M  END
> <minimizedAffinity>
-5.88637

> <CNNscore>
0.7775007486

> <CNNaffinity>
5.9781355858

> <CNN_VS>
4.6480050087

> <CNNaffinity_variance>
0.6022108197

$$$$



 20 19  0  0  0  0  0  0  0  0999 V2000
   -3.1308   10.2224   19.9620 C   0  0  0  0  0  0  0  0  0  0  0  0
   -1.8031   10.9499   19.7342 C   0  0  0  0  0  0  0  0  0  0  0  0
   -2.0236   12.4538   19.5527 C   0  0  0  0  0  0  0  0  0  0  0  0
   -3.4375   12.8094   19.0833 C   0  0  0  0  0  0  0  0  0  0  0  0
   -3.5911   14.1777   18.4108 C   0  0  0  0  0  0  0  0  0  0  0  0
   -2.4110   15.1392   18.5860 C   0  0  0  0  0  0  0  0  0  0  0  0
   -2.8033   16.6110   18.4349 C   0  0  0  0  0  0  0  0  0  0  0  0
   -3.6669   16.8828   17.1990 C   0  0  0  0  0  0  0  0  0  0  0  0
   -4.4028   19.0394   16.1238 C   0  0  0  0  0  0  0  0  0  0  0  0
   -4.5427   18.1291   17.3344 C   0  0  0  0  0  0  0  0  0  0  0  0
   -3.0369    8.7066   19.7653 C   0  0  0  0  0  0  0  0  0  0  0  0
   -1.6745    8.1254   20.1537 C   0  0  0  0  0  0  0  0  0  0  0  0
   -1.7282    6.5963   20.2259 C   0  0  0  0  0  0  0  0  0  0  0  0
   -2.9899    6.0624   20.9158 C   0  0  0  0  0  0  0  0  0  0  0  0
   -3.4903    4.7439   20.3264 C   0  0  0  0  0  0  0  0  0  0  0  0
   -4.0346    4.8111   18.8943 C   0  0  0  0  0  0  0  0  0  0  0  0
   -5.5392    5.0879   18.7259 N   0  0  0  0  0  0  0  0  0  0  0  0
   -6.3533    4.5733   19.9086 C   0  0  0  0  0  0  0  0  0  0  0  0
   -5.8376    6.5622   18.4934 C   0  0  0  0  0  0  0  0  0  0  0  0
   -6.0091    4.3107   17.4841 C   0  0  0  0  0  0  0  0  0  0  0  0
  9 10  1  0
 10  8  1  0
  8  7  1  0
  7  6  1  0
  6  5  1  0
  5  4  1  0
  4  3  1  0
  3  2  1  0
  2  1  1  0
  1 11  1  0
 11 12  1  0
 12 13  1  0
 13 14  1  0
 14 15  1  0
 15 16  1  0
 16 17  1  0
 17 18  1  0
 17 19  1  0
 17 20  1  0
M  CHG 1  17   1
M  END
> <minimizedAffinity>
-6.25344

> <CNNscore>
0.7565603256

> <CNNaffinity>
6.0847907066

> <CNN_VS>
4.6035113335

> <CNNaffinity_variance>
0.7047784925

$$$$



 20 19  0  0  0  0  0  0  0  0999 V2000
   -1.5421    8.0698   20.0393 C   0  0  0  0  0  0  0  0  0  0  0  0
   -2.3558    9.3631   20.1353 C   0  0  0  0  0  0  0  0  0  0  0  0
   -1.4532   10.5924   20.0024 C   0  0  0  0  0  0  0  0  0  0  0  0
   -1.9827   11.6319   19.0100 C   0  0  0  0  0  0  0  0  0  0  0  0
   -3.1574   12.4839   19.5021 C   0  0  0  0  0  0  0  0  0  0  0  0
   -4.3225   12.6385   18.5190 C   0  0  0  0  0  0  0  0  0  0  0  0
   -4.1440   13.8100   17.5502 C   0  0  0  0  0  0  0  0  0  0  0  0
   -4.1343   15.1746   18.2465 C   0  0  0  0  0  0  0  0  0  0  0  0
   -3.9996   17.6246   17.6737 C   0  0  0  0  0  0  0  0  0  0  0  0
   -3.3834   16.2503   17.4605 C   0  0  0  0  0  0  0  0  0  0  0  0
   -2.3874    6.8040   20.2078 C   0  0  0  0  0  0  0  0  0  0  0  0
   -1.5611    5.5147   20.2023 C   0  0  0  0  0  0  0  0  0  0  0  0
   -1.5816    4.8413   21.5779 C   0  0  0  0  0  0  0  0  0  0  0  0
   -2.1799    3.4290   21.5566 C   0  0  0  0  0  0  0  0  0  0  0  0
   -3.5975    3.3806   20.9871 C   0  0  0  0  0  0  0  0  0  0  0  0
   -4.7099    3.0255   21.9812 C   0  0  0  0  0  0  0  0  0  0  0  0
   -5.1484    1.5517   22.0491 N   0  0  0  0  0  0  0  0  0  0  0  0
   -5.0710    0.8666   20.6887 C   0  0  0  0  0  0  0  0  0  0  0  0
   -4.3564    0.7554   23.0764 C   0  0  0  0  0  0  0  0  0  0  0  0
   -6.6258    1.5354   22.4777 C   0  0  0  0  0  0  0  0  0  0  0  0
  9 10  1  0
 10  8  1  0
  8  7  1  0
  7  6  1  0
  6  5  1  0
  5  4  1  0
  4  3  1  0
  3  2  1  0
  2  1  1  0
  1 11  1  0
 11 12  1  0
 12 13  1  0
 13 14  1  0
 14 15  1  0
 15 16  1  0
 16 17  1  0
 17 18  1  0
 17 19  1  0
 17 20  1  0
M  CHG 1  17   1
M  END
> <minimizedAffinity>
-5.27474

> <CNNscore>
0.7528293729

> <CNNaffinity>
5.7958531380

> <CNN_VS>
4.3632884026

> <CNNaffinity_variance>
0.4114636183

$$$$



 20 19  0  0  0  0  0  0  0  0999 V2000
   -2.1650   10.0467   19.8683 C   0  0  0  0  0  0  0  0  0  0  0  0
   -2.8581   11.4075   19.9772 C   0  0  0  0  0  0  0  0  0  0  0  0
   -3.4606   11.8273   18.6339 C   0  0  0  0  0  0  0  0  0  0  0  0
   -3.6821   13.3379   18.5116 C   0  0  0  0  0  0  0  0  0  0  0  0
   -2.4967   14.2194   18.9186 C   0  0  0  0  0  0  0  0  0  0  0  0
   -2.5723   15.6821   18.4685 C   0  0  0  0  0  0  0  0  0  0  0  0
   -3.8761   16.0243   17.7432 C   0  0  0  0  0  0  0  0  0  0  0  0
   -4.2308   17.5133   17.8069 C   0  0  0  0  0  0  0  0  0  0  0  0
   -4.2968   19.2254   15.9594 C   0  0  0  0  0  0  0  0  0  0  0  0
   -4.9797   18.0109   16.5699 C   0  0  0  0  0  0  0  0  0  0  0  0
   -3.0407    8.8781   20.3297 C   0  0  0  0  0  0  0  0  0  0  0  0
   -4.0788    8.4473   19.2898 C   0  0  0  0  0  0  0  0  0  0  0  0
   -3.8437    7.0011   18.8430 C   0  0  0  0  0  0  0  0  0  0  0  0
   -5.1230    6.1551   18.8176 C   0  0  0  0  0  0  0  0  0  0  0  0
   -4.9634    4.7955   19.4973 C   0  0  0  0  0  0  0  0  0  0  0  0
   -4.1555    4.7860   20.8008 C   0  0  0  0  0  0  0  0  0  0  0  0
   -2.7732    4.1101   20.7667 N   0  0  0  0  0  0  0  0  0  0  0  0
   -2.4628    3.5070   19.4007 C   0  0  0  0  0  0  0  0  0  0  0  0
   -1.6535    5.0531   21.1836 C   0  0  0  0  0  0  0  0  0  0  0  0
   -2.8095    2.9479   21.7739 C   0  0  0  0  0  0  0  0  0  0  0  0
  9 10  1  0
 10  8  1  0
  8  7  1  0
  7  6  1  0
  6  5  1  0
  5  4  1  0
  4  3  1  0
  3  2  1  0
  2  1  1  0
  1 11  1  0
 11 12  1  0
 12 13  1  0
 13 14  1  0
 14 15  1  0
 15 16  1  0
 16 17  1  0
 17 18  1  0
 17 19  1  0
 17 20  1  0
M  CHG 1  17   1
M  END
> <minimizedAffinity>
-5.91711

> <CNNscore>
0.7442524433

> <CNNaffinity>
6.1159930229

> <CNN_VS>
4.5518426895

> <CNNaffinity_variance>
0.6388392448

$$$$



 20 19  0  0  0  0  0  0  0  0999 V2000
   -1.7506   10.1841   20.0251 C   0  0  0  0  0  0  0  0  0  0  0  0
   -2.0214   11.4605   19.2241 C   0  0  0  0  0  0  0  0  0  0  0  0
   -3.4173   11.4305   18.5965 C   0  0  0  0  0  0  0  0  0  0  0  0
   -4.1627   12.7641   18.7062 C   0  0  0  0  0  0  0  0  0  0  0  0
   -3.5140   13.9503   17.9852 C   0  0  0  0  0  0  0  0  0  0  0  0
   -2.4980   14.7509   18.8067 C   0  0  0  0  0  0  0  0  0  0  0  0
   -2.5860   16.2607   18.5708 C   0  0  0  0  0  0  0  0  0  0  0  0
   -3.8337   16.6786   17.7861 C   0  0  0  0  0  0  0  0  0  0  0  0
   -4.4377   18.7030   16.4129 C   0  0  0  0  0  0  0  0  0  0  0  0
   -4.0798   18.1879   17.7988 C   0  0  0  0  0  0  0  0  0  0  0  0
   -2.9394    9.2191   20.0542 C   0  0  0  0  0  0  0  0  0  0  0  0
   -2.5354    7.7623   20.2978 C   0  0  0  0  0  0  0  0  0  0  0  0
   -1.0391    7.5556   20.0435 C   0  0  0  0  0  0  0  0  0  0  0  0
   -0.6028    6.0876   20.1304 C   0  0  0  0  0  0  0  0  0  0  0  0
    0.0509    5.5734   18.8480 C   0  0  0  0  0  0  0  0  0  0  0  0
   -0.2346    4.1104   18.4875 C   0  0  0  0  0  0  0  0  0  0  0  0
   -1.2841    3.3691   19.3348 N   0  0  0  0  0  0  0  0  0  0  0  0
   -2.6246    4.0963   19.3532 C   0  0  0  0  0  0  0  0  0  0  0  0
   -1.4822    1.9281   18.8864 C   0  0  0  0  0  0  0  0  0  0  0  0
   -0.7656    3.3446   20.7830 C   0  0  0  0  0  0  0  0  0  0  0  0
  9 10  1  0
 10  8  1  0
  8  7  1  0
  7  6  1  0
  6  5  1  0
  5  4  1  0
  4  3  1  0
  3  2  1  0
  2  1  1  0
  1 11  1  0
 11 12  1  0
 12 13  1  0
 13 14  1  0
 14 15  1  0
 15 16  1  0
 16 17  1  0
 17 18  1  0
 17 19  1  0
 17 20  1  0
M  CHG 1  17   1
M  END
> <minimizedAffinity>
-6.42685

> <CNNscore>
0.7250531912

> <CNNaffinity>
5.8213353157

> <CNN_VS>
4.2207775116

> <CNNaffinity_variance>
0.7289699912

$$$$
