


 45 47  0  0  0  0  0  0  0  0999 V2000
   14.1508   54.3324   90.4102 C   0  0  0  0  0  0  0  0  0  0  0  0
   12.8670   54.3210   89.5768 C   0  0  0  0  0  0  0  0  0  0  0  0
   11.7296   54.2345   90.6132 C   0  0  0  0  0  0  0  0  0  0  0  0
   12.3803   53.8736   91.8717 N   0  0  0  0  0  0  0  0  0  0  0  0
   11.8307   53.8354   93.1283 C   0  0  0  0  0  0  0  0  0  0  0  0
   12.4424   53.3216   94.0745 O   0  0  0  0  0  0  0  0  0  0  0  0
   13.7660   53.5113   91.6443 C   0  0  0  0  0  0  0  0  0  0  0  0
   10.7546   53.1407   90.1296 C   0  0  0  0  0  0  0  0  0  0  0  0
   10.4218   52.1837   90.8199 O   0  0  0  0  0  0  0  0  0  0  0  0
   10.3770   53.2967   88.8114 N   0  0  0  0  0  0  0  0  0  0  0  0
   10.5369   54.1575   88.3611 H   0  0  0  0  0  0  0  0  0  0  0  0
    9.7505   52.2180   88.0801 C   0  0  0  0  0  0  0  0  0  0  0  0
   10.4550   52.0566   86.7517 C   0  0  0  0  0  0  0  0  0  0  0  0
   10.4871   50.8071   86.1188 C   0  0  0  0  0  0  0  0  0  0  0  0
   11.2208   50.6224   84.9445 C   0  0  0  0  0  0  0  0  0  0  0  0
   11.9496   51.6829   84.3942 C   0  0  0  0  0  0  0  0  0  0  0  0
   11.9080   52.9378   85.0131 C   0  0  0  0  0  0  0  0  0  0  0  0
   11.1693   53.1235   86.1847 C   0  0  0  0  0  0  0  0  0  0  0  0
   12.7542   51.4815   83.1969 C   0  0  0  0  0  0  0  0  0  0  0  0
   12.2918   50.2786   82.0580 S   0  0  0  0  0  0  0  0  0  0  0  0
   13.6586   50.6762   81.1089 C   0  0  0  0  0  0  0  0  0  0  0  0
   14.4137   51.6542   81.5612 N   0  0  0  0  0  0  0  0  0  0  0  0
   13.9046   52.1252   82.7657 C   0  0  0  0  0  0  0  0  0  0  0  0
   14.6173   53.2350   83.4485 C   0  0  0  0  0  0  0  0  0  0  0  0
   14.6977   56.4895   89.5728 C   0  0  0  0  0  0  0  0  0  0  0  0
   14.4499   55.6984   90.7296 O   0  0  0  0  0  0  0  0  0  0  0  0
   10.4469   54.4945   93.3691 C   0  0  0  0  0  0  0  0  0  0  0  0
    9.5315   53.3833   93.6447 N   0  0  0  0  0  0  0  0  0  0  0  0
    8.3272   53.2527   92.9931 C   0  0  0  0  0  0  0  0  0  0  0  0
    7.8475   54.1374   92.2780 O   0  0  0  0  0  0  0  0  0  0  0  0
    9.7863   52.7102   94.3164 H   0  0  0  0  0  0  0  0  0  0  0  0
    7.5959   51.9061   93.2204 C   0  0  0  0  0  0  0  0  0  0  0  0
    8.6195   50.8723   93.0316 N   0  0  0  0  0  0  0  0  0  0  0  0
    8.4006   49.7953   92.2051 C   0  0  0  0  0  0  0  0  0  0  0  0
    9.6164   48.9371   91.9870 C   0  0  0  0  0  0  0  0  0  0  0  0
    7.3105   49.5162   91.7151 O   0  0  0  0  0  0  0  0  0  0  0  0
    9.4789   50.9510   93.5053 H   0  0  0  0  0  0  0  0  0  0  0  0
    6.9037   51.7786   94.6128 C   0  0  0  0  0  0  0  0  0  0  0  0
    7.8193   51.1173   95.6622 C   0  0  0  0  0  0  0  0  0  0  0  0
    6.4793   53.1628   95.1413 C   0  0  0  0  0  0  0  0  0  0  0  0
    5.6258   50.9183   94.4734 C   0  0  0  0  0  0  0  0  0  0  0  0
   10.4649   55.5331   94.5421 C   0  0  0  0  0  0  0  0  0  0  0  0
   11.6706   56.4934   94.4697 C   0  0  0  0  0  0  0  0  0  0  0  0
    9.1773   56.3826   94.5414 C   0  0  0  0  0  0  0  0  0  0  0  0
   10.5266   54.7856   95.8913 C   0  0  0  0  0  0  0  0  0  0  0  0
 25 26  1  0
  1 26  1  0
  1  2  1  0
  2  3  1  0
  3  8  1  0
  8  9  2  0
  8 10  1  0
 10 12  1  0
 12 13  1  0
 13 14  2  0
 14 15  1  0
 15 16  2  0
 16 19  1  0
 19 20  1  0
 20 21  1  0
 21 22  2  0
 22 23  1  0
 23 24  1  0
 16 17  1  0
 17 18  2  0
  3  4  1  0
  4  5  1  0
  5  6  2  0
  5 27  1  0
 27 28  1  0
 28 29  1  0
 29 30  2  0
 29 32  1  0
 32 33  1  0
 33 34  1  0
 34 35  1  0
 34 36  2  0
 32 38  1  0
 38 39  1  0
 38 40  1  0
 38 41  1  0
 27 42  1  0
 42 43  1  0
 42 44  1  0
 42 45  1  0
  4  7  1  0
  7  1  1  0
 18 13  1  0
 23 19  2  0
 10 11  1  0
 28 31  1  0
 33 37  1  0
M  END
> <minimizedAffinity>
-5.83469

> <CNNscore>
0.6894278526

> <CNNaffinity>
7.2545552254

> <CNN_VS>
5.0014925003

> <CNNaffinity_variance>
0.0219347253

$$$$



 45 47  0  0  0  0  0  0  0  0999 V2000
   10.7026   49.5554   89.2853 C   0  0  0  0  0  0  0  0  0  0  0  0
   11.1473   51.0018   89.5153 C   0  0  0  0  0  0  0  0  0  0  0  0
   10.5819   51.7802   88.3113 C   0  0  0  0  0  0  0  0  0  0  0  0
   10.1746   50.7589   87.3478 N   0  0  0  0  0  0  0  0  0  0  0  0
    9.4632   50.9263   86.1865 C   0  0  0  0  0  0  0  0  0  0  0  0
    9.3593   50.0047   85.3660 O   0  0  0  0  0  0  0  0  0  0  0  0
   10.6495   49.4515   87.7583 C   0  0  0  0  0  0  0  0  0  0  0  0
   11.7201   52.6693   87.7681 C   0  0  0  0  0  0  0  0  0  0  0  0
   12.3942   53.4071   88.4783 O   0  0  0  0  0  0  0  0  0  0  0  0
   11.8334   52.6235   86.3935 N   0  0  0  0  0  0  0  0  0  0  0  0
   11.3866   51.9016   85.8951 H   0  0  0  0  0  0  0  0  0  0  0  0
   12.5969   53.6175   85.6725 C   0  0  0  0  0  0  0  0  0  0  0  0
   13.1847   52.9769   84.4351 C   0  0  0  0  0  0  0  0  0  0  0  0
   14.2617   53.5809   83.7731 C   0  0  0  0  0  0  0  0  0  0  0  0
   14.7459   53.0543   82.5733 C   0  0  0  0  0  0  0  0  0  0  0  0
   14.1470   51.9233   82.0070 C   0  0  0  0  0  0  0  0  0  0  0  0
   13.0813   51.3059   82.6722 C   0  0  0  0  0  0  0  0  0  0  0  0
   12.6009   51.8297   83.8754 C   0  0  0  0  0  0  0  0  0  0  0  0
   14.6181   51.4001   80.7320 C   0  0  0  0  0  0  0  0  0  0  0  0
   16.0611   52.0292   80.0393 S   0  0  0  0  0  0  0  0  0  0  0  0
   15.8547   50.9830   78.7014 C   0  0  0  0  0  0  0  0  0  0  0  0
   14.8111   50.1829   78.7468 N   0  0  0  0  0  0  0  0  0  0  0  0
   14.0886   50.4154   79.9112 C   0  0  0  0  0  0  0  0  0  0  0  0
   12.8630   49.6125   80.1546 C   0  0  0  0  0  0  0  0  0  0  0  0
    8.8401   48.1186   89.6321 C   0  0  0  0  0  0  0  0  0  0  0  0
    9.4132   49.3950   89.8929 O   0  0  0  0  0  0  0  0  0  0  0  0
    8.7383   52.2741   85.9311 C   0  0  0  0  0  0  0  0  0  0  0  0
    8.2254   52.1844   84.5609 N   0  0  0  0  0  0  0  0  0  0  0  0
    8.7535   52.9329   83.5349 C   0  0  0  0  0  0  0  0  0  0  0  0
    9.5560   53.8536   83.7150 O   0  0  0  0  0  0  0  0  0  0  0  0
    7.4805   51.5699   84.3692 H   0  0  0  0  0  0  0  0  0  0  0  0
    8.2665   52.5455   82.1162 C   0  0  0  0  0  0  0  0  0  0  0  0
    7.8638   53.8078   81.4863 N   0  0  0  0  0  0  0  0  0  0  0  0
    6.6160   53.9598   80.9290 C   0  0  0  0  0  0  0  0  0  0  0  0
    6.3093   55.3669   80.4953 C   0  0  0  0  0  0  0  0  0  0  0  0
    5.8262   53.0373   80.7518 O   0  0  0  0  0  0  0  0  0  0  0  0
    8.4987   54.5599   81.4622 H   0  0  0  0  0  0  0  0  0  0  0  0
    9.3278   51.7903   81.2572 C   0  0  0  0  0  0  0  0  0  0  0  0
    9.8256   50.5024   81.9431 C   0  0  0  0  0  0  0  0  0  0  0  0
    8.7488   51.4144   79.8792 C   0  0  0  0  0  0  0  0  0  0  0  0
   10.5453   52.7139   81.0179 C   0  0  0  0  0  0  0  0  0  0  0  0
    7.5903   52.5507   86.9610 C   0  0  0  0  0  0  0  0  0  0  0  0
    7.1388   51.2774   87.7067 C   0  0  0  0  0  0  0  0  0  0  0  0
    8.0362   53.5871   88.0130 C   0  0  0  0  0  0  0  0  0  0  0  0
    6.3664   53.1351   86.2239 C   0  0  0  0  0  0  0  0  0  0  0  0
 25 26  1  0
  1 26  1  0
  1  2  1  0
  2  3  1  0
  3  8  1  0
  8  9  2  0
  8 10  1  0
 10 12  1  0
 12 13  1  0
 13 14  2  0
 14 15  1  0
 15 16  2  0
 16 19  1  0
 19 20  1  0
 20 21  1  0
 21 22  2  0
 22 23  1  0
 23 24  1  0
 16 17  1  0
 17 18  2  0
  3  4  1  0
  4  5  1  0
  5  6  2  0
  5 27  1  0
 27 28  1  0
 28 29  1  0
 29 30  2  0
 29 32  1  0
 32 33  1  0
 33 34  1  0
 34 35  1  0
 34 36  2  0
 32 38  1  0
 38 39  1  0
 38 40  1  0
 38 41  1  0
 27 42  1  0
 42 43  1  0
 42 44  1  0
 42 45  1  0
  4  7  1  0
  7  1  1  0
 18 13  1  0
 23 19  2  0
 10 11  1  0
 28 31  1  0
 33 37  1  0
M  END
> <minimizedAffinity>
-8.04100

> <CNNscore>
0.5828663707

> <CNNaffinity>
6.9418873787

> <CNN_VS>
4.0461926460

> <CNNaffinity_variance>
0.7531731725

$$$$



 45 47  0  0  0  0  0  0  0  0999 V2000
    7.5812   53.5190   86.8030 C   0  0  0  0  0  0  0  0  0  0  0  0
    8.7152   52.6321   86.2832 C   0  0  0  0  0  0  0  0  0  0  0  0
    9.5438   52.2841   87.5351 C   0  0  0  0  0  0  0  0  0  0  0  0
    9.0815   53.2046   88.5726 N   0  0  0  0  0  0  0  0  0  0  0  0
    9.3856   53.1940   89.9105 C   0  0  0  0  0  0  0  0  0  0  0  0
    9.0836   54.1489   90.6389 O   0  0  0  0  0  0  0  0  0  0  0  0
    8.2192   54.2228   88.0042 C   0  0  0  0  0  0  0  0  0  0  0  0
   11.0275   52.5111   87.1773 C   0  0  0  0  0  0  0  0  0  0  0  0
   11.9537   52.1865   87.9120 O   0  0  0  0  0  0  0  0  0  0  0  0
   11.1994   53.2044   85.9964 N   0  0  0  0  0  0  0  0  0  0  0  0
   10.4425   53.2931   85.3731 H   0  0  0  0  0  0  0  0  0  0  0  0
   12.4716   53.8029   85.6588 C   0  0  0  0  0  0  0  0  0  0  0  0
   13.0279   53.1075   84.4365 C   0  0  0  0  0  0  0  0  0  0  0  0
   14.2712   53.4878   83.9146 C   0  0  0  0  0  0  0  0  0  0  0  0
   14.7479   52.9245   82.7284 C   0  0  0  0  0  0  0  0  0  0  0  0
   13.9780   51.9835   82.0354 C   0  0  0  0  0  0  0  0  0  0  0  0
   12.7424   51.5876   82.5606 C   0  0  0  0  0  0  0  0  0  0  0  0
   12.2685   52.1470   83.7503 C   0  0  0  0  0  0  0  0  0  0  0  0
   14.4502   51.4301   80.7736 C   0  0  0  0  0  0  0  0  0  0  0  0
   15.8819   52.0576   80.0563 S   0  0  0  0  0  0  0  0  0  0  0  0
   15.6832   50.9711   78.7498 C   0  0  0  0  0  0  0  0  0  0  0  0
   14.6503   50.1593   78.8230 N   0  0  0  0  0  0  0  0  0  0  0  0
   13.9299   50.4157   79.9837 C   0  0  0  0  0  0  0  0  0  0  0  0
   12.7159   49.6044   80.2558 C   0  0  0  0  0  0  0  0  0  0  0  0
    5.7221   53.1946   88.2494 C   0  0  0  0  0  0  0  0  0  0  0  0
    6.4960   52.6605   87.1810 O   0  0  0  0  0  0  0  0  0  0  0  0
   10.0694   51.9421   90.5209 C   0  0  0  0  0  0  0  0  0  0  0  0
   11.0279   52.4631   91.4999 N   0  0  0  0  0  0  0  0  0  0  0  0
   12.3537   52.0968   91.4875 C   0  0  0  0  0  0  0  0  0  0  0  0
   12.7941   51.1808   90.7868 O   0  0  0  0  0  0  0  0  0  0  0  0
   10.7134   53.0942   92.1869 H   0  0  0  0  0  0  0  0  0  0  0  0
   13.2739   52.9155   92.4271 C   0  0  0  0  0  0  0  0  0  0  0  0
   14.1254   53.7129   91.5376 N   0  0  0  0  0  0  0  0  0  0  0  0
   13.5819   54.5287   90.5733 C   0  0  0  0  0  0  0  0  0  0  0  0
   14.5872   55.4068   89.8801 C   0  0  0  0  0  0  0  0  0  0  0  0
   12.3952   54.5253   90.2602 O   0  0  0  0  0  0  0  0  0  0  0  0
   15.1041   53.6631   91.6328 H   0  0  0  0  0  0  0  0  0  0  0  0
   12.5112   53.8158   93.4480 C   0  0  0  0  0  0  0  0  0  0  0  0
   10.9842   53.7704   93.2403 C   0  0  0  0  0  0  0  0  0  0  0  0
   12.8181   53.3827   94.8949 C   0  0  0  0  0  0  0  0  0  0  0  0
   12.9788   55.2816   93.2883 C   0  0  0  0  0  0  0  0  0  0  0  0
    9.0484   50.9539   91.1812 C   0  0  0  0  0  0  0  0  0  0  0  0
    9.5466   50.3957   92.5308 C   0  0  0  0  0  0  0  0  0  0  0  0
    7.6922   51.6482   91.4232 C   0  0  0  0  0  0  0  0  0  0  0  0
    8.7968   49.7626   90.2323 C   0  0  0  0  0  0  0  0  0  0  0  0
 25 26  1  0
  1 26  1  0
  1  2  1  0
  2  3  1  0
  3  8  1  0
  8  9  2  0
  8 10  1  0
 10 12  1  0
 12 13  1  0
 13 14  2  0
 14 15  1  0
 15 16  2  0
 16 19  1  0
 19 20  1  0
 20 21  1  0
 21 22  2  0
 22 23  1  0
 23 24  1  0
 16 17  1  0
 17 18  2  0
  3  4  1  0
  4  5  1  0
  5  6  2  0
  5 27  1  0
 27 28  1  0
 28 29  1  0
 29 30  2  0
 29 32  1  0
 32 33  1  0
 33 34  1  0
 34 35  1  0
 34 36  2  0
 32 38  1  0
 38 39  1  0
 38 40  1  0
 38 41  1  0
 27 42  1  0
 42 43  1  0
 42 44  1  0
 42 45  1  0
  4  7  1  0
  7  1  1  0
 18 13  1  0
 23 19  2  0
 10 11  1  0
 28 31  1  0
 33 37  1  0
M  END
> <minimizedAffinity>
-8.38479

> <CNNscore>
0.4693790376

> <CNNaffinity>
6.7952666283

> <CNN_VS>
3.1895556450

> <CNNaffinity_variance>
0.5360293984

$$$$



 45 47  0  0  0  0  0  0  0  0999 V2000
   13.7048   53.9005   91.0631 C   0  0  0  0  0  0  0  0  0  0  0  0
   12.3774   54.0245   90.3113 C   0  0  0  0  0  0  0  0  0  0  0  0
   11.3548   54.4337   91.3893 C   0  0  0  0  0  0  0  0  0  0  0  0
   12.0255   54.1987   92.6670 N   0  0  0  0  0  0  0  0  0  0  0  0
   11.6050   54.5582   93.9226 C   0  0  0  0  0  0  0  0  0  0  0  0
   12.1734   54.1221   94.9327 O   0  0  0  0  0  0  0  0  0  0  0  0
   13.2655   53.4737   92.4668 C   0  0  0  0  0  0  0  0  0  0  0  0
   10.1166   53.5308   91.2092 C   0  0  0  0  0  0  0  0  0  0  0  0
   10.0392   52.3965   91.6679 O   0  0  0  0  0  0  0  0  0  0  0  0
    9.1514   54.0915   90.3978 N   0  0  0  0  0  0  0  0  0  0  0  0
    9.1892   55.0543   90.1955 H   0  0  0  0  0  0  0  0  0  0  0  0
    8.0856   53.2897   89.8394 C   0  0  0  0  0  0  0  0  0  0  0  0
    8.5352   52.7448   88.5023 C   0  0  0  0  0  0  0  0  0  0  0  0
    8.7251   51.3673   88.3308 C   0  0  0  0  0  0  0  0  0  0  0  0
    9.2379   50.8629   87.1333 C   0  0  0  0  0  0  0  0  0  0  0  0
    9.5862   51.7324   86.0936 C   0  0  0  0  0  0  0  0  0  0  0  0
    9.3834   53.1082   86.2530 C   0  0  0  0  0  0  0  0  0  0  0  0
    8.8650   53.6120   87.4490 C   0  0  0  0  0  0  0  0  0  0  0  0
   10.1660   51.2140   84.8621 C   0  0  0  0  0  0  0  0  0  0  0  0
    9.3663   49.9477   84.0167 S   0  0  0  0  0  0  0  0  0  0  0  0
   10.6217   49.9537   82.8545 C   0  0  0  0  0  0  0  0  0  0  0  0
   11.5728   50.8452   83.0333 N   0  0  0  0  0  0  0  0  0  0  0  0
   11.3232   51.5763   84.1887 C   0  0  0  0  0  0  0  0  0  0  0  0
   12.2865   52.6388   84.5747 C   0  0  0  0  0  0  0  0  0  0  0  0
   14.7683   55.5752   89.7524 C   0  0  0  0  0  0  0  0  0  0  0  0
   14.3332   55.1898   91.0516 O   0  0  0  0  0  0  0  0  0  0  0  0
   10.4350   55.5667   94.0686 C   0  0  0  0  0  0  0  0  0  0  0  0
    9.2357   54.7443   94.2534 N   0  0  0  0  0  0  0  0  0  0  0  0
    9.1260   53.8369   95.2812 C   0  0  0  0  0  0  0  0  0  0  0  0
   10.0755   53.5151   96.0015 O   0  0  0  0  0  0  0  0  0  0  0  0
    8.4863   54.8446   93.6229 H   0  0  0  0  0  0  0  0  0  0  0  0
    7.7144   53.2299   95.4785 C   0  0  0  0  0  0  0  0  0  0  0  0
    6.7788   54.2818   95.0653 N   0  0  0  0  0  0  0  0  0  0  0  0
    5.9246   54.8704   95.9679 C   0  0  0  0  0  0  0  0  0  0  0  0
    5.1711   56.0488   95.4150 C   0  0  0  0  0  0  0  0  0  0  0  0
    5.7451   54.4612   97.1109 O   0  0  0  0  0  0  0  0  0  0  0  0
    6.7624   54.5716   94.1246 H   0  0  0  0  0  0  0  0  0  0  0  0
    7.4696   51.9050   94.6917 C   0  0  0  0  0  0  0  0  0  0  0  0
    6.9940   52.1622   93.2478 C   0  0  0  0  0  0  0  0  0  0  0  0
    8.7551   51.0566   94.6361 C   0  0  0  0  0  0  0  0  0  0  0  0
    6.3881   51.0702   95.4170 C   0  0  0  0  0  0  0  0  0  0  0  0
   10.6396   56.5659   95.2580 C   0  0  0  0  0  0  0  0  0  0  0  0
   11.3403   57.8713   94.8262 C   0  0  0  0  0  0  0  0  0  0  0  0
    9.2868   56.9396   95.8983 C   0  0  0  0  0  0  0  0  0  0  0  0
   11.5009   55.8972   96.3505 C   0  0  0  0  0  0  0  0  0  0  0  0
 25 26  1  0
  1 26  1  0
  1  2  1  0
  2  3  1  0
  3  8  1  0
  8  9  2  0
  8 10  1  0
 10 12  1  0
 12 13  1  0
 13 14  2  0
 14 15  1  0
 15 16  2  0
 16 19  1  0
 19 20  1  0
 20 21  1  0
 21 22  2  0
 22 23  1  0
 23 24  1  0
 16 17  1  0
 17 18  2  0
  3  4  1  0
  4  5  1  0
  5  6  2  0
  5 27  1  0
 27 28  1  0
 28 29  1  0
 29 30  2  0
 29 32  1  0
 32 33  1  0
 33 34  1  0
 34 35  1  0
 34 36  2  0
 32 38  1  0
 38 39  1  0
 38 40  1  0
 38 41  1  0
 27 42  1  0
 42 43  1  0
 42 44  1  0
 42 45  1  0
  4  7  1  0
  7  1  1  0
 18 13  1  0
 23 19  2  0
 10 11  1  0
 28 31  1  0
 33 37  1  0
M  END
> <minimizedAffinity>
-5.76918

> <CNNscore>
0.3663275242

> <CNNaffinity>
6.2096657753

> <CNN_VS>
2.2747714520

> <CNNaffinity_variance>
0.3278991282

$$$$



 45 47  0  0  0  0  0  0  0  0999 V2000
    8.7628   50.0888   89.1036 C   0  0  0  0  0  0  0  0  0  0  0  0
    9.3874   51.4741   89.2867 C   0  0  0  0  0  0  0  0  0  0  0  0
   10.1077   51.7569   87.9539 C   0  0  0  0  0  0  0  0  0  0  0  0
   10.1523   50.4716   87.2587 N   0  0  0  0  0  0  0  0  0  0  0  0
   10.5406   50.2210   85.9667 C   0  0  0  0  0  0  0  0  0  0  0  0
   10.7182   49.0616   85.5696 O   0  0  0  0  0  0  0  0  0  0  0  0
    9.7338   49.3993   88.1408 C   0  0  0  0  0  0  0  0  0  0  0  0
   11.5180   52.2787   88.2999 C   0  0  0  0  0  0  0  0  0  0  0  0
   12.4419   51.5466   88.6369 O   0  0  0  0  0  0  0  0  0  0  0  0
   11.6034   53.6561   88.2880 N   0  0  0  0  0  0  0  0  0  0  0  0
   10.8913   54.1811   87.8560 H   0  0  0  0  0  0  0  0  0  0  0  0
   12.7204   54.3416   88.8989 C   0  0  0  0  0  0  0  0  0  0  0  0
   12.5139   54.3706   90.3967 C   0  0  0  0  0  0  0  0  0  0  0  0
   11.2321   54.1951   90.9345 C   0  0  0  0  0  0  0  0  0  0  0  0
   11.0129   54.3220   92.3083 C   0  0  0  0  0  0  0  0  0  0  0  0
   12.0718   54.6448   93.1645 C   0  0  0  0  0  0  0  0  0  0  0  0
   13.3576   54.8052   92.6350 C   0  0  0  0  0  0  0  0  0  0  0  0
   13.5775   54.6725   91.2613 C   0  0  0  0  0  0  0  0  0  0  0  0
   11.8378   54.8252   94.5907 C   0  0  0  0  0  0  0  0  0  0  0  0
   11.9072   53.4639   95.6394 S   0  0  0  0  0  0  0  0  0  0  0  0
   11.5232   54.4824   96.9593 C   0  0  0  0  0  0  0  0  0  0  0  0
   11.3768   55.7603   96.6819 N   0  0  0  0  0  0  0  0  0  0  0  0
   11.5530   55.9706   95.3193 C   0  0  0  0  0  0  0  0  0  0  0  0
   11.4252   57.3545   94.7954 C   0  0  0  0  0  0  0  0  0  0  0  0
    6.8049   51.4357   89.0250 C   0  0  0  0  0  0  0  0  0  0  0  0
    7.4593   50.2714   88.5334 O   0  0  0  0  0  0  0  0  0  0  0  0
   10.7054   51.4090   84.9825 C   0  0  0  0  0  0  0  0  0  0  0  0
   11.7600   50.9972   84.0515 N   0  0  0  0  0  0  0  0  0  0  0  0
   12.7193   51.8749   83.6029 C   0  0  0  0  0  0  0  0  0  0  0  0
   12.6623   53.0930   83.7953 O   0  0  0  0  0  0  0  0  0  0  0  0
   11.7825   50.0642   83.7379 H   0  0  0  0  0  0  0  0  0  0  0  0
   13.8925   51.2295   82.8238 C   0  0  0  0  0  0  0  0  0  0  0  0
   13.2644   50.4630   81.7420 N   0  0  0  0  0  0  0  0  0  0  0  0
   12.2623   51.0059   80.9727 C   0  0  0  0  0  0  0  0  0  0  0  0
   11.8641   50.1530   79.7996 C   0  0  0  0  0  0  0  0  0  0  0  0
   11.6998   52.0667   81.2268 O   0  0  0  0  0  0  0  0  0  0  0  0
   13.5660   49.5429   81.5635 H   0  0  0  0  0  0  0  0  0  0  0  0
   14.9349   52.2506   82.2712 C   0  0  0  0  0  0  0  0  0  0  0  0
   15.0678   53.4950   83.1715 C   0  0  0  0  0  0  0  0  0  0  0  0
   16.3239   51.5961   82.1383 C   0  0  0  0  0  0  0  0  0  0  0  0
   14.4993   52.7161   80.8618 C   0  0  0  0  0  0  0  0  0  0  0  0
    9.3771   51.7635   84.2309 C   0  0  0  0  0  0  0  0  0  0  0  0
    9.1820   50.9364   82.9428 C   0  0  0  0  0  0  0  0  0  0  0  0
    8.1534   51.5269   85.1399 C   0  0  0  0  0  0  0  0  0  0  0  0
    9.3862   53.2581   83.8451 C   0  0  0  0  0  0  0  0  0  0  0  0
 25 26  1  0
  1 26  1  0
  1  2  1  0
  2  3  1  0
  3  8  1  0
  8  9  2  0
  8 10  1  0
 10 12  1  0
 12 13  1  0
 13 14  2  0
 14 15  1  0
 15 16  2  0
 16 19  1  0
 19 20  1  0
 20 21  1  0
 21 22  2  0
 22 23  1  0
 23 24  1  0
 16 17  1  0
 17 18  2  0
  3  4  1  0
  4  5  1  0
  5  6  2  0
  5 27  1  0
 27 28  1  0
 28 29  1  0
 29 30  2  0
 29 32  1  0
 32 33  1  0
 33 34  1  0
 34 35  1  0
 34 36  2  0
 32 38  1  0
 38 39  1  0
 38 40  1  0
 38 41  1  0
 27 42  1  0
 42 43  1  0
 42 44  1  0
 42 45  1  0
  4  7  1  0
  7  1  1  0
 18 13  1  0
 23 19  2  0
 10 11  1  0
 28 31  1  0
 33 37  1  0
M  END
> <minimizedAffinity>
-7.62569

> <CNNscore>
0.3012192845

> <CNNaffinity>
6.5329413414

> <CNN_VS>
1.9678479433

> <CNNaffinity_variance>
0.5198731422

$$$$



 45 47  0  0  0  0  0  0  0  0999 V2000
   11.3011   49.0005   89.1560 C   0  0  0  0  0  0  0  0  0  0  0  0
   12.1165   50.2679   88.8885 C   0  0  0  0  0  0  0  0  0  0  0  0
   11.1048   51.4212   89.0350 C   0  0  0  0  0  0  0  0  0  0  0  0
    9.7891   50.7838   89.0321 N   0  0  0  0  0  0  0  0  0  0  0  0
    8.5711   51.3551   89.3012 C   0  0  0  0  0  0  0  0  0  0  0  0
    7.5180   50.7464   89.0688 O   0  0  0  0  0  0  0  0  0  0  0  0
    9.9009   49.3843   88.6686 C   0  0  0  0  0  0  0  0  0  0  0  0
   11.2997   52.3553   87.8224 C   0  0  0  0  0  0  0  0  0  0  0  0
   11.8199   53.4626   87.9034 O   0  0  0  0  0  0  0  0  0  0  0  0
   10.7403   51.8598   86.6623 N   0  0  0  0  0  0  0  0  0  0  0  0
   10.4865   50.9098   86.6151 H   0  0  0  0  0  0  0  0  0  0  0  0
   10.5204   52.7117   85.5147 C   0  0  0  0  0  0  0  0  0  0  0  0
   11.4467   52.2773   84.4011 C   0  0  0  0  0  0  0  0  0  0  0  0
   12.7380   52.8131   84.3097 C   0  0  0  0  0  0  0  0  0  0  0  0
   13.5648   52.4978   83.2288 C   0  0  0  0  0  0  0  0  0  0  0  0
   13.1047   51.6540   82.2116 C   0  0  0  0  0  0  0  0  0  0  0  0
   11.8215   51.1026   82.3058 C   0  0  0  0  0  0  0  0  0  0  0  0
   10.9967   51.4138   83.3901 C   0  0  0  0  0  0  0  0  0  0  0  0
   13.9463   51.3615   81.0593 C   0  0  0  0  0  0  0  0  0  0  0  0
   15.4591   52.1619   80.8902 S   0  0  0  0  0  0  0  0  0  0  0  0
   15.7152   51.3302   79.4173 C   0  0  0  0  0  0  0  0  0  0  0  0
   14.7746   50.4826   79.0591 N   0  0  0  0  0  0  0  0  0  0  0  0
   13.7480   50.4933   79.9960 C   0  0  0  0  0  0  0  0  0  0  0  0
   12.5801   49.6028   79.7749 C   0  0  0  0  0  0  0  0  0  0  0  0
   12.2069   47.6679   90.9045 C   0  0  0  0  0  0  0  0  0  0  0  0
   11.3421   48.7467   90.5671 O   0  0  0  0  0  0  0  0  0  0  0  0
    8.5230   52.7615   89.9547 C   0  0  0  0  0  0  0  0  0  0  0  0
    9.8929   53.0267   90.4039 N   0  0  0  0  0  0  0  0  0  0  0  0
   10.1585   53.6990   91.5741 C   0  0  0  0  0  0  0  0  0  0  0  0
    9.2898   54.2817   92.2297 O   0  0  0  0  0  0  0  0  0  0  0  0
   10.6454   52.7143   89.8514 H   0  0  0  0  0  0  0  0  0  0  0  0
   11.6412   53.6833   92.0229 C   0  0  0  0  0  0  0  0  0  0  0  0
   12.2938   54.7400   91.2420 N   0  0  0  0  0  0  0  0  0  0  0  0
   13.5618   54.5730   90.7370 C   0  0  0  0  0  0  0  0  0  0  0  0
   14.0001   55.6756   89.8126 C   0  0  0  0  0  0  0  0  0  0  0  0
   14.3020   53.6403   91.0345 O   0  0  0  0  0  0  0  0  0  0  0  0
   11.8151   55.5842   91.0764 H   0  0  0  0  0  0  0  0  0  0  0  0
   11.8504   53.8917   93.5549 C   0  0  0  0  0  0  0  0  0  0  0  0
   10.6794   53.3308   94.3862 C   0  0  0  0  0  0  0  0  0  0  0  0
   13.1507   53.2121   94.0266 C   0  0  0  0  0  0  0  0  0  0  0  0
   11.9767   55.4041   93.8542 C   0  0  0  0  0  0  0  0  0  0  0  0
    8.0119   53.8702   88.9726 C   0  0  0  0  0  0  0  0  0  0  0  0
    7.7126   53.3240   87.5607 C   0  0  0  0  0  0  0  0  0  0  0  0
    6.7257   54.5292   89.5120 C   0  0  0  0  0  0  0  0  0  0  0  0
    9.0806   54.9764   88.8430 C   0  0  0  0  0  0  0  0  0  0  0  0
 25 26  1  0
  1 26  1  0
  1  2  1  0
  2  3  1  0
  3  8  1  0
  8  9  2  0
  8 10  1  0
 10 12  1  0
 12 13  1  0
 13 14  2  0
 14 15  1  0
 15 16  2  0
 16 19  1  0
 19 20  1  0
 20 21  1  0
 21 22  2  0
 22 23  1  0
 23 24  1  0
 16 17  1  0
 17 18  2  0
  3  4  1  0
  4  5  1  0
  5  6  2  0
  5 27  1  0
 27 28  1  0
 28 29  1  0
 29 30  2  0
 29 32  1  0
 32 33  1  0
 33 34  1  0
 34 35  1  0
 34 36  2  0
 32 38  1  0
 38 39  1  0
 38 40  1  0
 38 41  1  0
 27 42  1  0
 42 43  1  0
 42 44  1  0
 42 45  1  0
  4  7  1  0
  7  1  1  0
 18 13  1  0
 23 19  2  0
 10 11  1  0
 28 31  1  0
 33 37  1  0
M  END
> <minimizedAffinity>
-7.52344

> <CNNscore>
0.2551583648

> <CNNaffinity>
6.3022923470

> <CNN_VS>
1.6080826521

> <CNNaffinity_variance>
0.8742706180

$$$$



 45 47  0  0  0  0  0  0  0  0999 V2000
   11.5868   47.5748   89.1800 C   0  0  0  0  0  0  0  0  0  0  0  0
   12.4675   48.8033   88.9395 C   0  0  0  0  0  0  0  0  0  0  0  0
   11.6493   49.9851   89.4954 C   0  0  0  0  0  0  0  0  0  0  0  0
   10.2983   49.4616   89.6909 N   0  0  0  0  0  0  0  0  0  0  0  0
    9.2387   50.0665   90.3186 C   0  0  0  0  0  0  0  0  0  0  0  0
    8.0974   49.5927   90.2384 O   0  0  0  0  0  0  0  0  0  0  0  0
   10.1689   48.1469   89.0927 C   0  0  0  0  0  0  0  0  0  0  0  0
   11.6896   51.1058   88.4355 C   0  0  0  0  0  0  0  0  0  0  0  0
   12.1318   52.2272   88.6592 O   0  0  0  0  0  0  0  0  0  0  0  0
   11.0875   50.7480   87.2464 N   0  0  0  0  0  0  0  0  0  0  0  0
   10.9011   49.7984   87.0653 H   0  0  0  0  0  0  0  0  0  0  0  0
   10.7257   51.7433   86.2619 C   0  0  0  0  0  0  0  0  0  0  0  0
   11.7083   51.6732   85.1146 C   0  0  0  0  0  0  0  0  0  0  0  0
   12.3411   52.8365   84.6571 C   0  0  0  0  0  0  0  0  0  0  0  0
   13.1710   52.8009   83.5339 C   0  0  0  0  0  0  0  0  0  0  0  0
   13.3664   51.6020   82.8392 C   0  0  0  0  0  0  0  0  0  0  0  0
   12.7498   50.4332   83.3012 C   0  0  0  0  0  0  0  0  0  0  0  0
   11.9243   50.4681   84.4282 C   0  0  0  0  0  0  0  0  0  0  0  0
   14.1922   51.5710   81.6399 C   0  0  0  0  0  0  0  0  0  0  0  0
   15.8228   52.1121   81.7200 S   0  0  0  0  0  0  0  0  0  0  0  0
   15.9947   51.7876   80.0490 C   0  0  0  0  0  0  0  0  0  0  0  0
   14.9409   51.2808   79.4456 N   0  0  0  0  0  0  0  0  0  0  0  0
   13.8943   51.1536   80.3512 C   0  0  0  0  0  0  0  0  0  0  0  0
   12.6039   50.6001   79.8668 C   0  0  0  0  0  0  0  0  0  0  0  0
   13.2846   46.8075   90.6573 C   0  0  0  0  0  0  0  0  0  0  0  0
   11.8958   47.0670   90.4854 O   0  0  0  0  0  0  0  0  0  0  0  0
    9.4921   51.3305   91.1819 C   0  0  0  0  0  0  0  0  0  0  0  0
   10.9422   51.3712   91.3926 N   0  0  0  0  0  0  0  0  0  0  0  0
   11.4960   51.3592   92.6516 C   0  0  0  0  0  0  0  0  0  0  0  0
   10.8312   51.4983   93.6825 O   0  0  0  0  0  0  0  0  0  0  0  0
   11.5376   51.4082   90.6094 H   0  0  0  0  0  0  0  0  0  0  0  0
   13.0319   51.1623   92.6956 C   0  0  0  0  0  0  0  0  0  0  0  0
   13.5904   52.3039   91.9627 N   0  0  0  0  0  0  0  0  0  0  0  0
   13.1389   53.5834   92.1853 C   0  0  0  0  0  0  0  0  0  0  0  0
   13.9443   54.6443   91.4868 C   0  0  0  0  0  0  0  0  0  0  0  0
   12.1456   53.8546   92.8532 O   0  0  0  0  0  0  0  0  0  0  0  0
   14.3016   52.1510   91.2993 H   0  0  0  0  0  0  0  0  0  0  0  0
   13.6251   51.0609   94.1352 C   0  0  0  0  0  0  0  0  0  0  0  0
   15.0678   50.5174   94.1357 C   0  0  0  0  0  0  0  0  0  0  0  0
   13.6245   52.4390   94.8251 C   0  0  0  0  0  0  0  0  0  0  0  0
   12.7488   50.1109   94.9851 C   0  0  0  0  0  0  0  0  0  0  0  0
    8.9695   52.6431   90.5045 C   0  0  0  0  0  0  0  0  0  0  0  0
    7.8246   53.3080   91.2973 C   0  0  0  0  0  0  0  0  0  0  0  0
   10.1080   53.6733   90.3554 C   0  0  0  0  0  0  0  0  0  0  0  0
    8.4481   52.3198   89.0880 C   0  0  0  0  0  0  0  0  0  0  0  0
 25 26  1  0
  1 26  1  0
  1  2  1  0
  2  3  1  0
  3  8  1  0
  8  9  2  0
  8 10  1  0
 10 12  1  0
 12 13  1  0
 13 14  2  0
 14 15  1  0
 15 16  2  0
 16 19  1  0
 19 20  1  0
 20 21  1  0
 21 22  2  0
 22 23  1  0
 23 24  1  0
 16 17  1  0
 17 18  2  0
  3  4  1  0
  4  5  1  0
  5  6  2  0
  5 27  1  0
 27 28  1  0
 28 29  1  0
 29 30  2  0
 29 32  1  0
 32 33  1  0
 33 34  1  0
 34 35  1  0
 34 36  2  0
 32 38  1  0
 38 39  1  0
 38 40  1  0
 38 41  1  0
 27 42  1  0
 42 43  1  0
 42 44  1  0
 42 45  1  0
  4  7  1  0
  7  1  1  0
 18 13  1  0
 23 19  2  0
 10 11  1  0
 28 31  1  0
 33 37  1  0
M  END
> <minimizedAffinity>
-6.72140

> <CNNscore>
0.2432495952

> <CNNaffinity>
6.0350189209

> <CNN_VS>
1.4680159092

> <CNNaffinity_variance>
0.6972696185

$$$$



 45 47  0  0  0  0  0  0  0  0999 V2000
    7.2623   52.0332   88.1159 C   0  0  0  0  0  0  0  0  0  0  0  0
    8.5233   51.3876   87.5364 C   0  0  0  0  0  0  0  0  0  0  0  0
    9.4470   51.1754   88.7517 C   0  0  0  0  0  0  0  0  0  0  0  0
    8.8575   51.9696   89.8284 N   0  0  0  0  0  0  0  0  0  0  0  0
    9.2061   51.9877   91.1553 C   0  0  0  0  0  0  0  0  0  0  0  0
    8.7564   52.8526   91.9191 O   0  0  0  0  0  0  0  0  0  0  0  0
    7.7995   52.8187   89.3158 C   0  0  0  0  0  0  0  0  0  0  0  0
   10.8478   51.6860   88.3541 C   0  0  0  0  0  0  0  0  0  0  0  0
   11.8691   51.3917   88.9651 O   0  0  0  0  0  0  0  0  0  0  0  0
   10.8193   52.5836   87.3063 N   0  0  0  0  0  0  0  0  0  0  0  0
   10.0079   52.6559   86.7533 H   0  0  0  0  0  0  0  0  0  0  0  0
   11.9602   53.4198   87.0064 C   0  0  0  0  0  0  0  0  0  0  0  0
   12.4508   53.0931   85.6137 C   0  0  0  0  0  0  0  0  0  0  0  0
   11.9243   51.9950   84.9210 C   0  0  0  0  0  0  0  0  0  0  0  0
   12.4415   51.6228   83.6778 C   0  0  0  0  0  0  0  0  0  0  0  0
   13.5075   52.3344   83.1159 C   0  0  0  0  0  0  0  0  0  0  0  0
   14.0267   53.4424   83.7957 C   0  0  0  0  0  0  0  0  0  0  0  0
   13.5053   53.8178   85.0367 C   0  0  0  0  0  0  0  0  0  0  0  0
   14.0807   51.9199   81.8426 C   0  0  0  0  0  0  0  0  0  0  0  0
   15.7862   51.9664   81.6263 S   0  0  0  0  0  0  0  0  0  0  0  0
   15.5808   51.4080   80.0222 C   0  0  0  0  0  0  0  0  0  0  0  0
   14.3435   51.1628   79.6478 N   0  0  0  0  0  0  0  0  0  0  0  0
   13.4689   51.4565   80.6874 C   0  0  0  0  0  0  0  0  0  0  0  0
   12.0146   51.2504   80.4670 C   0  0  0  0  0  0  0  0  0  0  0  0
    5.0049   51.3048   88.2810 C   0  0  0  0  0  0  0  0  0  0  0  0
    6.3720   50.9775   88.5035 O   0  0  0  0  0  0  0  0  0  0  0  0
   10.1343   50.8745   91.7089 C   0  0  0  0  0  0  0  0  0  0  0  0
   10.6650   51.4038   92.9686 N   0  0  0  0  0  0  0  0  0  0  0  0
   11.7811   52.2065   93.0090 C   0  0  0  0  0  0  0  0  0  0  0  0
   12.5165   52.3892   92.0343 O   0  0  0  0  0  0  0  0  0  0  0  0
   10.2087   51.1778   93.8113 H   0  0  0  0  0  0  0  0  0  0  0  0
   12.0655   52.8741   94.3777 C   0  0  0  0  0  0  0  0  0  0  0  0
   13.4058   52.4169   94.7610 N   0  0  0  0  0  0  0  0  0  0  0  0
   13.6266   51.1242   95.1743 C   0  0  0  0  0  0  0  0  0  0  0  0
   15.0803   50.7803   95.3502 C   0  0  0  0  0  0  0  0  0  0  0  0
   12.7329   50.3213   95.4249 O   0  0  0  0  0  0  0  0  0  0  0  0
   14.1610   53.0473   94.7217 H   0  0  0  0  0  0  0  0  0  0  0  0
   11.9744   54.4316   94.3635 C   0  0  0  0  0  0  0  0  0  0  0  0
   13.1856   55.0815   93.6653 C   0  0  0  0  0  0  0  0  0  0  0  0
   10.6922   54.8978   93.6466 C   0  0  0  0  0  0  0  0  0  0  0  0
   11.9148   54.9550   95.8179 C   0  0  0  0  0  0  0  0  0  0  0  0
    9.3890   49.5129   91.9223 C   0  0  0  0  0  0  0  0  0  0  0  0
    7.8623   49.6328   91.7321 C   0  0  0  0  0  0  0  0  0  0  0  0
    9.9099   48.4435   90.9401 C   0  0  0  0  0  0  0  0  0  0  0  0
    9.6559   48.9980   93.3529 C   0  0  0  0  0  0  0  0  0  0  0  0
 25 26  1  0
  1 26  1  0
  1  2  1  0
  2  3  1  0
  3  8  1  0
  8  9  2  0
  8 10  1  0
 10 12  1  0
 12 13  1  0
 13 14  2  0
 14 15  1  0
 15 16  2  0
 16 19  1  0
 19 20  1  0
 20 21  1  0
 21 22  2  0
 22 23  1  0
 23 24  1  0
 16 17  1  0
 17 18  2  0
  3  4  1  0
  4  5  1  0
  5  6  2  0
  5 27  1  0
 27 28  1  0
 28 29  1  0
 29 30  2  0
 29 32  1  0
 32 33  1  0
 33 34  1  0
 34 35  1  0
 34 36  2  0
 32 38  1  0
 38 39  1  0
 38 40  1  0
 38 41  1  0
 27 42  1  0
 42 43  1  0
 42 44  1  0
 42 45  1  0
  4  7  1  0
  7  1  1  0
 18 13  1  0
 23 19  2  0
 10 11  1  0
 28 31  1  0
 33 37  1  0
M  END
> <minimizedAffinity>
-6.41829

> <CNNscore>
0.2228272855

> <CNNaffinity>
6.1235537529

> <CNN_VS>
1.3644949198

> <CNNaffinity_variance>
0.5837594867

$$$$



 45 47  0  0  0  0  0  0  0  0999 V2000
   11.6626   48.3765   89.7235 C   0  0  0  0  0  0  0  0  0  0  0  0
   12.4304   49.7000   89.7662 C   0  0  0  0  0  0  0  0  0  0  0  0
   11.3416   50.7777   89.9345 C   0  0  0  0  0  0  0  0  0  0  0  0
   10.0787   50.0990   89.6482 N   0  0  0  0  0  0  0  0  0  0  0  0
    8.8036   50.5754   89.8208 C   0  0  0  0  0  0  0  0  0  0  0  0
    7.8300   49.9706   89.3520 O   0  0  0  0  0  0  0  0  0  0  0  0
   10.3217   48.7778   89.1019 C   0  0  0  0  0  0  0  0  0  0  0  0
   11.6444   51.8947   88.9139 C   0  0  0  0  0  0  0  0  0  0  0  0
   12.1808   52.9547   89.2167 O   0  0  0  0  0  0  0  0  0  0  0  0
   11.1606   51.6195   87.6511 N   0  0  0  0  0  0  0  0  0  0  0  0
   10.8906   50.6998   87.4264 H   0  0  0  0  0  0  0  0  0  0  0  0
   11.0433   52.6585   86.6523 C   0  0  0  0  0  0  0  0  0  0  0  0
   11.7728   52.2177   85.4031 C   0  0  0  0  0  0  0  0  0  0  0  0
   12.7287   53.0551   84.8132 C   0  0  0  0  0  0  0  0  0  0  0  0
   13.3338   52.7039   83.6040 C   0  0  0  0  0  0  0  0  0  0  0  0
   12.9776   51.5157   82.9562 C   0  0  0  0  0  0  0  0  0  0  0  0
   12.0352   50.6672   83.5490 C   0  0  0  0  0  0  0  0  0  0  0  0
   11.4343   51.0161   84.7614 C   0  0  0  0  0  0  0  0  0  0  0  0
   13.5709   51.1699   81.6717 C   0  0  0  0  0  0  0  0  0  0  0  0
   12.6535   50.2684   80.5300 S   0  0  0  0  0  0  0  0  0  0  0  0
   13.9899   50.2933   79.4621 C   0  0  0  0  0  0  0  0  0  0  0  0
   15.0535   50.9457   79.8797 N   0  0  0  0  0  0  0  0  0  0  0  0
   14.8257   51.4536   81.1534 C   0  0  0  0  0  0  0  0  0  0  0  0
   15.9110   52.2254   81.8110 C   0  0  0  0  0  0  0  0  0  0  0  0
   12.7385   47.3769   91.5935 C   0  0  0  0  0  0  0  0  0  0  0  0
   11.5257   47.9094   91.0728 O   0  0  0  0  0  0  0  0  0  0  0  0
    8.5837   51.8610   90.6610 C   0  0  0  0  0  0  0  0  0  0  0  0
    9.7889   51.9964   91.4843 N   0  0  0  0  0  0  0  0  0  0  0  0
    9.7590   52.5810   92.7290 C   0  0  0  0  0  0  0  0  0  0  0  0
    8.7780   53.1909   93.1647 O   0  0  0  0  0  0  0  0  0  0  0  0
   10.6455   51.6588   91.1359 H   0  0  0  0  0  0  0  0  0  0  0  0
   11.0563   52.4282   93.5618 C   0  0  0  0  0  0  0  0  0  0  0  0
   11.3584   50.9926   93.5492 N   0  0  0  0  0  0  0  0  0  0  0  0
   11.5355   50.2914   94.7186 C   0  0  0  0  0  0  0  0  0  0  0  0
   11.6542   48.8045   94.5259 C   0  0  0  0  0  0  0  0  0  0  0  0
   11.6345   50.8143   95.8245 O   0  0  0  0  0  0  0  0  0  0  0  0
   11.4357   50.5227   92.6875 H   0  0  0  0  0  0  0  0  0  0  0  0
   12.2596   53.2709   93.0360 C   0  0  0  0  0  0  0  0  0  0  0  0
   13.0037   53.9995   94.1728 C   0  0  0  0  0  0  0  0  0  0  0  0
   13.2686   52.3766   92.2895 C   0  0  0  0  0  0  0  0  0  0  0  0
   11.7442   54.3322   92.0357 C   0  0  0  0  0  0  0  0  0  0  0  0
    8.3427   53.1311   89.7758 C   0  0  0  0  0  0  0  0  0  0  0  0
    8.1673   52.7913   88.2808 C   0  0  0  0  0  0  0  0  0  0  0  0
    7.0857   53.8938   90.2426 C   0  0  0  0  0  0  0  0  0  0  0  0
    9.5445   54.0902   89.9125 C   0  0  0  0  0  0  0  0  0  0  0  0
 25 26  1  0
  1 26  1  0
  1  2  1  0
  2  3  1  0
  3  8  1  0
  8  9  2  0
  8 10  1  0
 10 12  1  0
 12 13  1  0
 13 14  2  0
 14 15  1  0
 15 16  2  0
 16 19  1  0
 19 20  1  0
 20 21  1  0
 21 22  2  0
 22 23  1  0
 23 24  1  0
 16 17  1  0
 17 18  2  0
  3  4  1  0
  4  5  1  0
  5  6  2  0
  5 27  1  0
 27 28  1  0
 28 29  1  0
 29 30  2  0
 29 32  1  0
 32 33  1  0
 33 34  1  0
 34 35  1  0
 34 36  2  0
 32 38  1  0
 38 39  1  0
 38 40  1  0
 38 41  1  0
 27 42  1  0
 42 43  1  0
 42 44  1  0
 42 45  1  0
  4  7  1  0
  7  1  1  0
 18 13  1  0
 23 19  2  0
 10 11  1  0
 28 31  1  0
 33 37  1  0
M  END
> <minimizedAffinity>
-6.14677

> <CNNscore>
0.2171901613

> <CNNaffinity>
5.9598808289

> <CNN_VS>
1.2944275141

> <CNNaffinity_variance>
0.6233626008

$$$$
