


 40 41  0  0  0  0  0  0  0  0999 V2000
  -17.9411   51.7245   19.1708 N   0  0  0  0  0  0  0  0  0  0  0  0
  -19.1229   52.4230   19.3109 C   0  0  0  0  0  0  0  0  0  0  0  0
  -19.8481   52.3162   20.2948 O   0  0  0  0  0  0  0  0  0  0  0  0
  -17.4919   51.7146   18.2948 H   0  0  0  0  0  0  0  0  0  0  0  0
  -19.4836   53.3515   18.2057 C   0  0  0  0  0  0  0  0  0  0  0  0
  -20.2581   52.9431   17.1159 C   0  0  0  0  0  0  0  0  0  0  0  0
  -20.5569   53.8513   16.0966 C   0  0  0  0  0  0  0  0  0  0  0  0
  -20.0890   55.1743   16.1502 C   0  0  0  0  0  0  0  0  0  0  0  0
  -20.3703   56.0915   15.1240 C   0  0  0  0  0  0  0  0  0  0  0  0
  -19.8955   57.4121   15.1758 C   0  0  0  0  0  0  0  0  0  0  0  0
  -19.1231   57.8083   16.2735 C   0  0  0  0  0  0  0  0  0  0  0  0
  -18.8403   56.9091   17.3043 C   0  0  0  0  0  0  0  0  0  0  0  0
  -19.3161   55.5905   17.2567 C   0  0  0  0  0  0  0  0  0  0  0  0
  -19.0277   54.6738   18.2797 C   0  0  0  0  0  0  0  0  0  0  0  0
  -20.1866   58.3799   14.0622 C   0  0  0  0  0  0  0  0  0  0  0  0
  -19.0795   58.8061   13.3794 F   0  0  0  0  0  0  0  0  0  0  0  0
  -20.8129   59.5171   14.4796 F   0  0  0  0  0  0  0  0  0  0  0  0
  -21.2404   57.8634   12.6839 P   0  0  0  0  0  0  0  0  0  0  0  0
  -22.3770   56.9342   12.9816 O   0  0  0  0  0  0  0  0  0  0  0  0
  -21.7016   59.2015   11.9081 O   0  0  0  0  0  0  0  0  0  0  0  0
  -20.2760   57.2448   11.5459 O   0  0  0  0  0  0  0  0  0  0  0  0
  -22.3068   59.7092   12.4710 H   0  0  0  0  0  0  0  0  0  0  0  0
  -19.9013   56.4071   11.8600 H   0  0  0  0  0  0  0  0  0  0  0  0
  -17.3368   50.9976   20.2891 C   0  0  0  0  0  0  0  0  0  0  0  0
  -15.8270   51.3085   20.3433 C   0  0  0  0  0  0  0  0  0  0  0  0
  -15.4923   52.4985   20.9322 N   0  0  0  0  0  0  0  0  0  0  0  0
  -14.9612   50.5211   19.9764 O   0  0  0  0  0  0  0  0  0  0  0  0
  -16.1986   53.1203   21.2215 H   0  0  0  0  0  0  0  0  0  0  0  0
  -14.5454   52.7322   21.0662 H   0  0  0  0  0  0  0  0  0  0  0  0
  -17.5532   49.4726   20.2134 C   0  0  0  0  0  0  0  0  0  0  0  0
  -18.9191   49.0217   20.7368 C   0  0  0  0  0  0  0  0  0  0  0  0
  -18.8010   47.8398   21.6971 C   0  0  0  0  0  0  0  0  0  0  0  0
  -19.9452   46.7978   21.5662 N   0  0  0  0  0  0  0  0  0  0  0  0
  -19.9481   45.8459   22.7500 C   0  0  0  0  0  0  0  0  0  0  0  0
  -19.6691   45.9110   20.3062 C   0  0  0  0  0  0  0  0  0  0  0  0
  -21.2862   47.4591   21.2848 C   0  0  0  0  0  0  0  0  0  0  0  0
  -23.8023   47.7582   21.5163 C   0  0  0  0  0  0  0  0  0  0  0  0
  -22.5336   47.1043   22.0707 N   0  0  0  0  0  0  0  0  0  0  0  0
  -22.3322   47.7299   23.4848 C   0  0  0  0  0  0  0  0  0  0  0  0
  -22.7840   45.6273   22.3010 C   0  0  0  0  0  0  0  0  0  0  0  0
 37 38  1  0
 38 39  1  0
 38 40  1  0
 38 36  1  0
 36 33  1  0
 33 34  1  0
 33 35  1  0
 33 32  1  0
 32 31  1  0
 31 30  1  0
 24 30  1  0
 24  1  1  0
  1  2  1  0
  2  3  2  0
  2  5  1  0
  5  6  2  0
  6  7  1  0
  7  8  2  0
  8  9  1  0
  9 10  2  0
 10 15  1  0
 15 16  1  0
 15 17  1  0
 15 18  1  0
 18 19  2  0
 18 20  1  0
 18 21  1  0
 10 11  1  0
 11 12  2  0
 12 13  1  0
 13 14  2  0
 24 25  1  0
 25 26  1  0
 25 27  2  0
 14  5  1  0
 13  8  1  0
  1  4  1  0
 20 22  1  0
 21 23  1  0
 26 28  1  0
 26 29  1  0
M  CHG 1  33   1
M  CHG 1  38   1
M  END
> <minimizedAffinity>
-7.73260

> <CNNscore>
0.8248345852

> <CNNaffinity>
6.0876631737

> <CNN_VS>
5.0213150978

> <CNNaffinity_variance>
0.0731922537

$$$$



 40 41  0  0  0  0  0  0  0  0999 V2000
  -17.7861   51.7795   19.0708 N   0  0  0  0  0  0  0  0  0  0  0  0
  -18.4913   52.9208   19.3936 C   0  0  0  0  0  0  0  0  0  0  0  0
  -18.5073   53.3975   20.5241 O   0  0  0  0  0  0  0  0  0  0  0  0
  -17.9474   51.3471   18.2012 H   0  0  0  0  0  0  0  0  0  0  0  0
  -19.2331   53.5817   18.2861 C   0  0  0  0  0  0  0  0  0  0  0  0
  -20.2505   52.9311   17.5818 C   0  0  0  0  0  0  0  0  0  0  0  0
  -20.9068   53.5922   16.5400 C   0  0  0  0  0  0  0  0  0  0  0  0
  -20.5585   54.9062   16.1878 C   0  0  0  0  0  0  0  0  0  0  0  0
  -21.2009   55.5749   15.1324 C   0  0  0  0  0  0  0  0  0  0  0  0
  -20.8464   56.8864   14.7769 C   0  0  0  0  0  0  0  0  0  0  0  0
  -19.8277   57.5268   15.4915 C   0  0  0  0  0  0  0  0  0  0  0  0
  -19.1841   56.8766   16.5471 C   0  0  0  0  0  0  0  0  0  0  0  0
  -19.5386   55.5680   16.9064 C   0  0  0  0  0  0  0  0  0  0  0  0
  -18.8904   54.8992   17.9565 C   0  0  0  0  0  0  0  0  0  0  0  0
  -21.5275   57.5855   13.6328 C   0  0  0  0  0  0  0  0  0  0  0  0
  -22.2444   58.6942   13.9937 F   0  0  0  0  0  0  0  0  0  0  0  0
  -22.4065   56.7921   12.9563 F   0  0  0  0  0  0  0  0  0  0  0  0
  -20.5316   58.2666   12.2832 P   0  0  0  0  0  0  0  0  0  0  0  0
  -19.2151   58.8909   12.6307 O   0  0  0  0  0  0  0  0  0  0  0  0
  -20.4116   57.1204   11.1532 O   0  0  0  0  0  0  0  0  0  0  0  0
  -21.4646   59.3069   11.4739 O   0  0  0  0  0  0  0  0  0  0  0  0
  -19.8635   56.3932   11.4873 H   0  0  0  0  0  0  0  0  0  0  0  0
  -21.6403   60.0829   12.0287 H   0  0  0  0  0  0  0  0  0  0  0  0
  -16.8044   51.1938   19.9861 C   0  0  0  0  0  0  0  0  0  0  0  0
  -17.5108   50.1839   20.9136 C   0  0  0  0  0  0  0  0  0  0  0  0
  -18.2772   49.2414   20.2817 N   0  0  0  0  0  0  0  0  0  0  0  0
  -17.3408   50.1478   22.1276 O   0  0  0  0  0  0  0  0  0  0  0  0
  -18.4045   49.2836   19.3064 H   0  0  0  0  0  0  0  0  0  0  0  0
  -18.7010   48.5216   20.8028 H   0  0  0  0  0  0  0  0  0  0  0  0
  -16.0564   52.2444   20.8317 C   0  0  0  0  0  0  0  0  0  0  0  0
  -14.5343   52.1753   20.6868 C   0  0  0  0  0  0  0  0  0  0  0  0
  -13.8187   52.6009   21.9674 C   0  0  0  0  0  0  0  0  0  0  0  0
  -13.4583   54.1105   22.0223 N   0  0  0  0  0  0  0  0  0  0  0  0
  -12.3852   54.3730   23.0650 C   0  0  0  0  0  0  0  0  0  0  0  0
  -14.7194   54.9064   22.4981 C   0  0  0  0  0  0  0  0  0  0  0  0
  -13.1479   54.6709   20.6423 C   0  0  0  0  0  0  0  0  0  0  0  0
  -11.6393   55.4050   18.7294 C   0  0  0  0  0  0  0  0  0  0  0  0
  -11.7234   54.8696   20.1615 N   0  0  0  0  0  0  0  0  0  0  0  0
  -11.0954   53.4435   20.1055 C   0  0  0  0  0  0  0  0  0  0  0  0
  -10.8193   55.6873   21.0621 C   0  0  0  0  0  0  0  0  0  0  0  0
 37 38  1  0
 38 39  1  0
 38 40  1  0
 38 36  1  0
 36 33  1  0
 33 34  1  0
 33 35  1  0
 33 32  1  0
 32 31  1  0
 31 30  1  0
 24 30  1  0
 24  1  1  0
  1  2  1  0
  2  3  2  0
  2  5  1  0
  5  6  2  0
  6  7  1  0
  7  8  2  0
  8  9  1  0
  9 10  2  0
 10 15  1  0
 15 16  1  0
 15 17  1  0
 15 18  1  0
 18 19  2  0
 18 20  1  0
 18 21  1  0
 10 11  1  0
 11 12  2  0
 12 13  1  0
 13 14  2  0
 24 25  1  0
 25 26  1  0
 25 27  2  0
 14  5  1  0
 13  8  1  0
  1  4  1  0
 20 22  1  0
 21 23  1  0
 26 28  1  0
 26 29  1  0
M  CHG 1  33   1
M  CHG 1  38   1
M  END
> <minimizedAffinity>
-8.73418

> <CNNscore>
0.8230349422

> <CNNaffinity>
6.2109141350

> <CNN_VS>
5.1117992401

> <CNNaffinity_variance>
0.1281435937

$$$$



 40 41  0  0  0  0  0  0  0  0999 V2000
  -18.6275   52.2338   19.9824 N   0  0  0  0  0  0  0  0  0  0  0  0
  -18.3953   53.5332   19.5804 C   0  0  0  0  0  0  0  0  0  0  0  0
  -17.5981   54.2742   20.1468 O   0  0  0  0  0  0  0  0  0  0  0  0
  -19.3959   51.7465   19.6064 H   0  0  0  0  0  0  0  0  0  0  0  0
  -19.1510   54.0079   18.3899 C   0  0  0  0  0  0  0  0  0  0  0  0
  -20.1416   53.2317   17.7812 C   0  0  0  0  0  0  0  0  0  0  0  0
  -20.8122   53.7185   16.6559 C   0  0  0  0  0  0  0  0  0  0  0  0
  -20.5051   54.9814   16.1243 C   0  0  0  0  0  0  0  0  0  0  0  0
  -21.1619   55.4745   14.9846 C   0  0  0  0  0  0  0  0  0  0  0  0
  -20.8485   56.7347   14.4501 C   0  0  0  0  0  0  0  0  0  0  0  0
  -19.8563   57.5023   15.0705 C   0  0  0  0  0  0  0  0  0  0  0  0
  -19.1988   57.0278   16.2079 C   0  0  0  0  0  0  0  0  0  0  0  0
  -19.5124   55.7709   16.7457 C   0  0  0  0  0  0  0  0  0  0  0  0
  -18.8496   55.2773   17.8803 C   0  0  0  0  0  0  0  0  0  0  0  0
  -21.5445   57.2441   13.2182 C   0  0  0  0  0  0  0  0  0  0  0  0
  -22.6732   56.5487   12.8779 F   0  0  0  0  0  0  0  0  0  0  0  0
  -20.7596   57.2258   12.1032 F   0  0  0  0  0  0  0  0  0  0  0  0
  -22.1845   58.9373   13.1908 P   0  0  0  0  0  0  0  0  0  0  0  0
  -23.6700   59.1250   13.2338 O   0  0  0  0  0  0  0  0  0  0  0  0
  -21.4075   59.7599   14.3417 O   0  0  0  0  0  0  0  0  0  0  0  0
  -21.5502   59.6709   11.8996 O   0  0  0  0  0  0  0  0  0  0  0  0
  -21.6818   59.4340   15.2132 H   0  0  0  0  0  0  0  0  0  0  0  0
  -21.9228   59.2836   11.0921 H   0  0  0  0  0  0  0  0  0  0  0  0
  -17.7625   51.5597   20.9528 C   0  0  0  0  0  0  0  0  0  0  0  0
  -17.0129   50.4071   20.2538 C   0  0  0  0  0  0  0  0  0  0  0  0
  -17.7656   49.2967   19.9797 N   0  0  0  0  0  0  0  0  0  0  0  0
  -15.8491   50.4890   19.8755 O   0  0  0  0  0  0  0  0  0  0  0  0
  -18.6985   49.2455   20.2901 H   0  0  0  0  0  0  0  0  0  0  0  0
  -17.3740   48.5494   19.4723 H   0  0  0  0  0  0  0  0  0  0  0  0
  -18.5266   51.0181   22.1780 C   0  0  0  0  0  0  0  0  0  0  0  0
  -19.4329   52.0574   22.8423 C   0  0  0  0  0  0  0  0  0  0  0  0
  -20.6503   51.4143   23.5036 C   0  0  0  0  0  0  0  0  0  0  0  0
  -20.5119   51.2215   25.0385 N   0  0  0  0  0  0  0  0  0  0  0  0
  -20.4849   49.7458   25.3982 C   0  0  0  0  0  0  0  0  0  0  0  0
  -21.7885   51.8061   25.7306 C   0  0  0  0  0  0  0  0  0  0  0  0
  -19.3586   52.0319   25.6111 C   0  0  0  0  0  0  0  0  0  0  0  0
  -17.8038   52.8647   27.4448 C   0  0  0  0  0  0  0  0  0  0  0  0
  -19.0429   52.0364   27.0943 N   0  0  0  0  0  0  0  0  0  0  0  0
  -18.6685   50.5650   27.4493 C   0  0  0  0  0  0  0  0  0  0  0  0
  -20.1818   52.4113   28.0215 C   0  0  0  0  0  0  0  0  0  0  0  0
 37 38  1  0
 38 39  1  0
 38 40  1  0
 38 36  1  0
 36 33  1  0
 33 34  1  0
 33 35  1  0
 33 32  1  0
 32 31  1  0
 31 30  1  0
 24 30  1  0
 24  1  1  0
  1  2  1  0
  2  3  2  0
  2  5  1  0
  5  6  2  0
  6  7  1  0
  7  8  2  0
  8  9  1  0
  9 10  2  0
 10 15  1  0
 15 16  1  0
 15 17  1  0
 15 18  1  0
 18 19  2  0
 18 20  1  0
 18 21  1  0
 10 11  1  0
 11 12  2  0
 12 13  1  0
 13 14  2  0
 24 25  1  0
 25 26  1  0
 25 27  2  0
 14  5  1  0
 13  8  1  0
  1  4  1  0
 20 22  1  0
 21 23  1  0
 26 28  1  0
 26 29  1  0
M  CHG 1  33   1
M  CHG 1  38   1
M  END
> <minimizedAffinity>
-7.63700

> <CNNscore>
0.8013399243

> <CNNaffinity>
6.2202048302

> <CNN_VS>
4.9844985008

> <CNNaffinity_variance>
0.2295589000

$$$$



 40 41  0  0  0  0  0  0  0  0999 V2000
  -18.7476   51.9984   19.8778 N   0  0  0  0  0  0  0  0  0  0  0  0
  -18.4815   53.3080   19.5341 C   0  0  0  0  0  0  0  0  0  0  0  0
  -17.6816   54.0088   20.1461 O   0  0  0  0  0  0  0  0  0  0  0  0
  -19.5176   51.5427   19.4670 H   0  0  0  0  0  0  0  0  0  0  0  0
  -19.2028   53.8461   18.3493 C   0  0  0  0  0  0  0  0  0  0  0  0
  -20.1828   53.1085   17.6786 C   0  0  0  0  0  0  0  0  0  0  0  0
  -20.8207   53.6549   16.5616 C   0  0  0  0  0  0  0  0  0  0  0  0
  -20.4911   54.9395   16.1002 C   0  0  0  0  0  0  0  0  0  0  0  0
  -21.1149   55.4927   14.9694 C   0  0  0  0  0  0  0  0  0  0  0  0
  -20.7789   56.7747   14.5051 C   0  0  0  0  0  0  0  0  0  0  0  0
  -19.7977   57.5031   15.1871 C   0  0  0  0  0  0  0  0  0  0  0  0
  -19.1730   56.9685   16.3164 C   0  0  0  0  0  0  0  0  0  0  0  0
  -19.5092   55.6897   16.7843 C   0  0  0  0  0  0  0  0  0  0  0  0
  -18.8795   55.1362   17.9099 C   0  0  0  0  0  0  0  0  0  0  0  0
  -21.4393   57.3490   13.2822 C   0  0  0  0  0  0  0  0  0  0  0  0
  -22.6143   56.7391   12.9348 F   0  0  0  0  0  0  0  0  0  0  0  0
  -20.6591   57.2918   12.1652 F   0  0  0  0  0  0  0  0  0  0  0  0
  -21.9594   59.0830   13.2802 P   0  0  0  0  0  0  0  0  0  0  0  0
  -21.4954   59.9544   14.4068 O   0  0  0  0  0  0  0  0  0  0  0  0
  -21.6061   59.6855   11.8251 O   0  0  0  0  0  0  0  0  0  0  0  0
  -23.5700   59.1024   13.1650 O   0  0  0  0  0  0  0  0  0  0  0  0
  -20.6431   59.7435   11.7243 H   0  0  0  0  0  0  0  0  0  0  0  0
  -23.9570   58.7593   13.9856 H   0  0  0  0  0  0  0  0  0  0  0  0
  -17.9164   51.2678   20.8368 C   0  0  0  0  0  0  0  0  0  0  0  0
  -16.8179   50.4970   20.0764 C   0  0  0  0  0  0  0  0  0  0  0  0
  -15.5387   50.9399   20.2824 N   0  0  0  0  0  0  0  0  0  0  0  0
  -17.0378   49.4965   19.4019 O   0  0  0  0  0  0  0  0  0  0  0  0
  -15.3780   51.7447   20.8262 H   0  0  0  0  0  0  0  0  0  0  0  0
  -14.7797   50.4535   19.8867 H   0  0  0  0  0  0  0  0  0  0  0  0
  -18.7198   50.2937   21.7223 C   0  0  0  0  0  0  0  0  0  0  0  0
  -20.2256   50.3188   21.4492 C   0  0  0  0  0  0  0  0  0  0  0  0
  -21.0198   49.6431   22.5653 C   0  0  0  0  0  0  0  0  0  0  0  0
  -21.8273   48.3983   22.1067 N   0  0  0  0  0  0  0  0  0  0  0  0
  -21.4695   48.0165   20.6805 C   0  0  0  0  0  0  0  0  0  0  0  0
  -23.3469   48.7730   22.0797 C   0  0  0  0  0  0  0  0  0  0  0  0
  -21.7302   47.2575   23.1087 C   0  0  0  0  0  0  0  0  0  0  0  0
  -19.2905   46.7321   22.6132 C   0  0  0  0  0  0  0  0  0  0  0  0
  -20.6672   46.1819   22.9957 N   0  0  0  0  0  0  0  0  0  0  0  0
  -21.1007   45.2863   21.7951 C   0  0  0  0  0  0  0  0  0  0  0  0
  -20.5282   45.2488   24.1820 C   0  0  0  0  0  0  0  0  0  0  0  0
 37 38  1  0
 38 39  1  0
 38 40  1  0
 38 36  1  0
 36 33  1  0
 33 34  1  0
 33 35  1  0
 33 32  1  0
 32 31  1  0
 31 30  1  0
 24 30  1  0
 24  1  1  0
  1  2  1  0
  2  3  2  0
  2  5  1  0
  5  6  2  0
  6  7  1  0
  7  8  2  0
  8  9  1  0
  9 10  2  0
 10 15  1  0
 15 16  1  0
 15 17  1  0
 15 18  1  0
 18 19  2  0
 18 20  1  0
 18 21  1  0
 10 11  1  0
 11 12  2  0
 12 13  1  0
 13 14  2  0
 24 25  1  0
 25 26  1  0
 25 27  2  0
 14  5  1  0
 13  8  1  0
  1  4  1  0
 20 22  1  0
 21 23  1  0
 26 28  1  0
 26 29  1  0
M  CHG 1  33   1
M  CHG 1  38   1
M  END
> <minimizedAffinity>
-7.95602

> <CNNscore>
0.7864491940

> <CNNaffinity>
6.1909432411

> <CNN_VS>
4.8688621521

> <CNNaffinity_variance>
0.0774437562

$$$$



 40 41  0  0  0  0  0  0  0  0999 V2000
  -17.4160   53.4833   19.7635 N   0  0  0  0  0  0  0  0  0  0  0  0
  -18.5174   52.8493   19.2258 C   0  0  0  0  0  0  0  0  0  0  0  0
  -18.9071   51.7505   19.6082 O   0  0  0  0  0  0  0  0  0  0  0  0
  -17.0477   54.2733   19.3059 H   0  0  0  0  0  0  0  0  0  0  0  0
  -19.2470   53.5763   18.1521 C   0  0  0  0  0  0  0  0  0  0  0  0
  -20.2480   52.9663   17.3904 C   0  0  0  0  0  0  0  0  0  0  0  0
  -20.8931   53.6897   16.3837 C   0  0  0  0  0  0  0  0  0  0  0  0
  -20.5499   55.0263   16.1238 C   0  0  0  0  0  0  0  0  0  0  0  0
  -21.1809   55.7584   15.1043 C   0  0  0  0  0  0  0  0  0  0  0  0
  -20.8314   57.0928   14.8412 C   0  0  0  0  0  0  0  0  0  0  0  0
  -19.8292   57.6919   15.6125 C   0  0  0  0  0  0  0  0  0  0  0  0
  -19.1970   56.9784   16.6336 C   0  0  0  0  0  0  0  0  0  0  0  0
  -19.5466   55.6466   16.9007 C   0  0  0  0  0  0  0  0  0  0  0  0
  -18.9096   54.9149   17.9151 C   0  0  0  0  0  0  0  0  0  0  0  0
  -21.5001   57.8607   13.7345 C   0  0  0  0  0  0  0  0  0  0  0  0
  -21.8980   59.1232   14.0824 F   0  0  0  0  0  0  0  0  0  0  0  0
  -22.6189   57.2510   13.2484 F   0  0  0  0  0  0  0  0  0  0  0  0
  -20.5835   58.2154   12.2143 P   0  0  0  0  0  0  0  0  0  0  0  0
  -20.3665   57.0906   11.2490 O   0  0  0  0  0  0  0  0  0  0  0  0
  -21.2670   59.5106   11.5359 O   0  0  0  0  0  0  0  0  0  0  0  0
  -19.1770   58.8821   12.6445 O   0  0  0  0  0  0  0  0  0  0  0  0
  -22.1510   59.2772   11.2118 H   0  0  0  0  0  0  0  0  0  0  0  0
  -18.6241   58.2162   13.0825 H   0  0  0  0  0  0  0  0  0  0  0  0
  -16.7801   53.0134   20.9961 C   0  0  0  0  0  0  0  0  0  0  0  0
  -15.8969   51.7891   20.6797 C   0  0  0  0  0  0  0  0  0  0  0  0
  -16.4996   50.5707   20.8447 N   0  0  0  0  0  0  0  0  0  0  0  0
  -14.7622   51.8744   20.2221 O   0  0  0  0  0  0  0  0  0  0  0  0
  -17.4110   50.5183   21.2133 H   0  0  0  0  0  0  0  0  0  0  0  0
  -16.0215   49.7472   20.5947 H   0  0  0  0  0  0  0  0  0  0  0  0
  -17.7900   52.6558   22.1053 C   0  0  0  0  0  0  0  0  0  0  0  0
  -17.2519   52.8852   23.5197 C   0  0  0  0  0  0  0  0  0  0  0  0
  -17.6095   51.7361   24.4602 C   0  0  0  0  0  0  0  0  0  0  0  0
  -18.3446   52.1795   25.7545 N   0  0  0  0  0  0  0  0  0  0  0  0
  -19.8014   52.5001   25.4666 C   0  0  0  0  0  0  0  0  0  0  0  0
  -17.7047   53.5167   26.2572 C   0  0  0  0  0  0  0  0  0  0  0  0
  -18.1283   51.1967   26.8956 C   0  0  0  0  0  0  0  0  0  0  0  0
  -15.9156   50.2732   26.0441 C   0  0  0  0  0  0  0  0  0  0  0  0
  -17.2455   49.9733   26.7412 N   0  0  0  0  0  0  0  0  0  0  0  0
  -18.0120   49.0207   25.7735 C   0  0  0  0  0  0  0  0  0  0  0  0
  -16.9879   49.1688   27.9996 C   0  0  0  0  0  0  0  0  0  0  0  0
 37 38  1  0
 38 39  1  0
 38 40  1  0
 38 36  1  0
 36 33  1  0
 33 34  1  0
 33 35  1  0
 33 32  1  0
 32 31  1  0
 31 30  1  0
 24 30  1  0
 24  1  1  0
  1  2  1  0
  2  3  2  0
  2  5  1  0
  5  6  2  0
  6  7  1  0
  7  8  2  0
  8  9  1  0
  9 10  2  0
 10 15  1  0
 15 16  1  0
 15 17  1  0
 15 18  1  0
 18 19  2  0
 18 20  1  0
 18 21  1  0
 10 11  1  0
 11 12  2  0
 12 13  1  0
 13 14  2  0
 24 25  1  0
 25 26  1  0
 25 27  2  0
 14  5  1  0
 13  8  1  0
  1  4  1  0
 20 22  1  0
 21 23  1  0
 26 28  1  0
 26 29  1  0
M  CHG 1  33   1
M  CHG 1  38   1
M  END
> <minimizedAffinity>
-7.08236

> <CNNscore>
0.7728771567

> <CNNaffinity>
6.0885143280

> <CNN_VS>
4.7056736946

> <CNNaffinity_variance>
0.1843131930

$$$$



 40 41  0  0  0  0  0  0  0  0999 V2000
  -18.4555   53.9749   20.7576 N   0  0  0  0  0  0  0  0  0  0  0  0
  -18.6177   53.1225   19.6847 C   0  0  0  0  0  0  0  0  0  0  0  0
  -18.2309   51.9582   19.6935 O   0  0  0  0  0  0  0  0  0  0  0  0
  -18.6246   54.9370   20.6345 H   0  0  0  0  0  0  0  0  0  0  0  0
  -19.3172   53.6755   18.4936 C   0  0  0  0  0  0  0  0  0  0  0  0
  -20.3040   52.9572   17.8121 C   0  0  0  0  0  0  0  0  0  0  0  0
  -20.9206   53.5168   16.6897 C   0  0  0  0  0  0  0  0  0  0  0  0
  -20.5625   54.7957   16.2335 C   0  0  0  0  0  0  0  0  0  0  0  0
  -21.1647   55.3618   15.0975 C   0  0  0  0  0  0  0  0  0  0  0  0
  -20.8003   56.6380   14.6384 C   0  0  0  0  0  0  0  0  0  0  0  0
  -19.8125   57.3471   15.3312 C   0  0  0  0  0  0  0  0  0  0  0  0
  -19.2092   56.7995   16.4658 C   0  0  0  0  0  0  0  0  0  0  0  0
  -19.5737   55.5266   16.9284 C   0  0  0  0  0  0  0  0  0  0  0  0
  -18.9655   54.9599   18.0594 C   0  0  0  0  0  0  0  0  0  0  0  0
  -21.4378   57.2261   13.4099 C   0  0  0  0  0  0  0  0  0  0  0  0
  -22.8000   57.3395   13.4787 F   0  0  0  0  0  0  0  0  0  0  0  0
  -21.1921   56.5117   12.2746 F   0  0  0  0  0  0  0  0  0  0  0  0
  -20.9971   58.9039   12.8922 P   0  0  0  0  0  0  0  0  0  0  0  0
  -21.4053   60.0401   13.7789 O   0  0  0  0  0  0  0  0  0  0  0  0
  -19.4192   58.8996   12.5525 O   0  0  0  0  0  0  0  0  0  0  0  0
  -21.5659   59.1109   11.3951 O   0  0  0  0  0  0  0  0  0  0  0  0
  -18.9126   58.7805   13.3710 H   0  0  0  0  0  0  0  0  0  0  0  0
  -22.5353   59.1371   11.4183 H   0  0  0  0  0  0  0  0  0  0  0  0
  -18.0389   53.4880   22.0743 C   0  0  0  0  0  0  0  0  0  0  0  0
  -19.2867   53.2573   22.9511 C   0  0  0  0  0  0  0  0  0  0  0  0
  -19.7416   54.3573   23.6279 N   0  0  0  0  0  0  0  0  0  0  0  0
  -19.9023   52.1971   22.9851 O   0  0  0  0  0  0  0  0  0  0  0  0
  -19.2364   55.2016   23.5911 H   0  0  0  0  0  0  0  0  0  0  0  0
  -20.5738   54.3040   24.1512 H   0  0  0  0  0  0  0  0  0  0  0  0
  -17.0629   54.4395   22.7956 C   0  0  0  0  0  0  0  0  0  0  0  0
  -15.7295   53.7842   23.1639 C   0  0  0  0  0  0  0  0  0  0  0  0
  -15.0299   54.5164   24.3072 C   0  0  0  0  0  0  0  0  0  0  0  0
  -13.9160   53.6887   25.0046 N   0  0  0  0  0  0  0  0  0  0  0  0
  -13.1901   54.5259   26.0438 C   0  0  0  0  0  0  0  0  0  0  0  0
  -12.8379   53.3057   23.9364 C   0  0  0  0  0  0  0  0  0  0  0  0
  -14.4374   52.3556   25.5201 C   0  0  0  0  0  0  0  0  0  0  0  0
  -12.3345   51.4251   26.6090 C   0  0  0  0  0  0  0  0  0  0  0  0
  -13.8387   51.6797   26.7385 N   0  0  0  0  0  0  0  0  0  0  0  0
  -14.4921   50.2652   26.7986 C   0  0  0  0  0  0  0  0  0  0  0  0
  -14.1293   52.3295   28.0767 C   0  0  0  0  0  0  0  0  0  0  0  0
 37 38  1  0
 38 39  1  0
 38 40  1  0
 38 36  1  0
 36 33  1  0
 33 34  1  0
 33 35  1  0
 33 32  1  0
 32 31  1  0
 31 30  1  0
 24 30  1  0
 24  1  1  0
  1  2  1  0
  2  3  2  0
  2  5  1  0
  5  6  2  0
  6  7  1  0
  7  8  2  0
  8  9  1  0
  9 10  2  0
 10 15  1  0
 15 16  1  0
 15 17  1  0
 15 18  1  0
 18 19  2  0
 18 20  1  0
 18 21  1  0
 10 11  1  0
 11 12  2  0
 12 13  1  0
 13 14  2  0
 24 25  1  0
 25 26  1  0
 25 27  2  0
 14  5  1  0
 13  8  1  0
  1  4  1  0
 20 22  1  0
 21 23  1  0
 26 28  1  0
 26 29  1  0
M  CHG 1  33   1
M  CHG 1  38   1
M  END
> <minimizedAffinity>
-6.58952

> <CNNscore>
0.7421887517

> <CNNaffinity>
5.9692454338

> <CNN_VS>
4.4303069115

> <CNNaffinity_variance>
0.2409808636

$$$$



 40 41  0  0  0  0  0  0  0  0999 V2000
  -18.9259   52.6695   20.0030 N   0  0  0  0  0  0  0  0  0  0  0  0
  -18.5546   53.9985   20.0113 C   0  0  0  0  0  0  0  0  0  0  0  0
  -17.9172   54.5071   20.9280 O   0  0  0  0  0  0  0  0  0  0  0  0
  -19.5791   52.3591   19.3350 H   0  0  0  0  0  0  0  0  0  0  0  0
  -18.9470   54.8077   18.8261 C   0  0  0  0  0  0  0  0  0  0  0  0
  -18.5457   56.1376   18.6691 C   0  0  0  0  0  0  0  0  0  0  0  0
  -18.9537   56.8584   17.5435 C   0  0  0  0  0  0  0  0  0  0  0  0
  -19.7646   56.2647   16.5627 C   0  0  0  0  0  0  0  0  0  0  0  0
  -20.1934   56.9842   15.4349 C   0  0  0  0  0  0  0  0  0  0  0  0
  -21.0103   56.3911   14.4586 C   0  0  0  0  0  0  0  0  0  0  0  0
  -21.4030   55.0585   14.6270 C   0  0  0  0  0  0  0  0  0  0  0  0
  -20.9797   54.3287   15.7403 C   0  0  0  0  0  0  0  0  0  0  0  0
  -20.1610   54.9177   16.7150 C   0  0  0  0  0  0  0  0  0  0  0  0
  -19.7398   54.1990   17.8448 C   0  0  0  0  0  0  0  0  0  0  0  0
  -21.4791   57.1767   13.2651 C   0  0  0  0  0  0  0  0  0  0  0  0
  -22.8372   57.3260   13.1843 F   0  0  0  0  0  0  0  0  0  0  0  0
  -21.1047   56.6303   12.0730 F   0  0  0  0  0  0  0  0  0  0  0  0
  -20.9499   58.8963   13.0648 P   0  0  0  0  0  0  0  0  0  0  0  0
  -21.1892   59.8396   14.2036 O   0  0  0  0  0  0  0  0  0  0  0  0
  -19.4117   58.8684   12.5767 O   0  0  0  0  0  0  0  0  0  0  0  0
  -21.6241   59.4526   11.7070 O   0  0  0  0  0  0  0  0  0  0  0  0
  -18.8492   58.5466   13.2985 H   0  0  0  0  0  0  0  0  0  0  0  0
  -22.5828   59.5323   11.8312 H   0  0  0  0  0  0  0  0  0  0  0  0
  -18.3751   51.7081   20.9604 C   0  0  0  0  0  0  0  0  0  0  0  0
  -17.0692   51.1146   20.3934 C   0  0  0  0  0  0  0  0  0  0  0  0
  -17.1579   50.6005   19.1274 N   0  0  0  0  0  0  0  0  0  0  0  0
  -15.9921   51.1702   20.9773 O   0  0  0  0  0  0  0  0  0  0  0  0
  -18.0297   50.5624   18.6715 H   0  0  0  0  0  0  0  0  0  0  0  0
  -16.3499   50.2689   18.6731 H   0  0  0  0  0  0  0  0  0  0  0  0
  -19.3546   50.5709   21.3147 C   0  0  0  0  0  0  0  0  0  0  0  0
  -18.7994   49.1736   21.0276 C   0  0  0  0  0  0  0  0  0  0  0  0
  -19.9116   48.1595   20.7679 C   0  0  0  0  0  0  0  0  0  0  0  0
  -19.7686   46.8393   21.5734 N   0  0  0  0  0  0  0  0  0  0  0  0
  -19.8755   47.1018   23.0659 C   0  0  0  0  0  0  0  0  0  0  0  0
  -18.3294   46.2688   21.3426 C   0  0  0  0  0  0  0  0  0  0  0  0
  -20.7004   45.7540   21.0552 C   0  0  0  0  0  0  0  0  0  0  0  0
  -22.7707   46.8372   22.0621 C   0  0  0  0  0  0  0  0  0  0  0  0
  -22.1961   45.9737   20.9358 N   0  0  0  0  0  0  0  0  0  0  0  0
  -22.8442   44.5680   21.1232 C   0  0  0  0  0  0  0  0  0  0  0  0
  -22.6942   46.4868   19.5994 C   0  0  0  0  0  0  0  0  0  0  0  0
 37 38  1  0
 38 39  1  0
 38 40  1  0
 38 36  1  0
 36 33  1  0
 33 34  1  0
 33 35  1  0
 33 32  1  0
 32 31  1  0
 31 30  1  0
 24 30  1  0
 24  1  1  0
  1  2  1  0
  2  3  2  0
  2  5  1  0
  5  6  2  0
  6  7  1  0
  7  8  2  0
  8  9  1  0
  9 10  2  0
 10 15  1  0
 15 16  1  0
 15 17  1  0
 15 18  1  0
 18 19  2  0
 18 20  1  0
 18 21  1  0
 10 11  1  0
 11 12  2  0
 12 13  1  0
 13 14  2  0
 24 25  1  0
 25 26  1  0
 25 27  2  0
 14  5  1  0
 13  8  1  0
  1  4  1  0
 20 22  1  0
 21 23  1  0
 26 28  1  0
 26 29  1  0
M  CHG 1  33   1
M  CHG 1  38   1
M  END
> <minimizedAffinity>
-7.36276

> <CNNscore>
0.7116894126

> <CNNaffinity>
6.1429862976

> <CNN_VS>
4.3718981743

> <CNNaffinity_variance>
0.0547313504

$$$$



 40 41  0  0  0  0  0  0  0  0999 V2000
  -18.1157   51.8321   19.2412 N   0  0  0  0  0  0  0  0  0  0  0  0
  -18.4971   53.1549   19.3335 C   0  0  0  0  0  0  0  0  0  0  0  0
  -18.2494   53.8538   20.3111 O   0  0  0  0  0  0  0  0  0  0  0  0
  -18.4884   51.2756   18.5196 H   0  0  0  0  0  0  0  0  0  0  0  0
  -19.2195   53.7237   18.1638 C   0  0  0  0  0  0  0  0  0  0  0  0
  -20.1770   52.9921   17.4550 C   0  0  0  0  0  0  0  0  0  0  0  0
  -20.8167   53.5682   16.3541 C   0  0  0  0  0  0  0  0  0  0  0  0
  -20.5114   54.8770   15.9468 C   0  0  0  0  0  0  0  0  0  0  0  0
  -21.1370   55.4607   14.8327 C   0  0  0  0  0  0  0  0  0  0  0  0
  -20.8252   56.7671   14.4224 C   0  0  0  0  0  0  0  0  0  0  0  0
  -19.8665   57.4891   15.1421 C   0  0  0  0  0  0  0  0  0  0  0  0
  -19.2403   56.9239   16.2556 C   0  0  0  0  0  0  0  0  0  0  0  0
  -19.5525   55.6206   16.6695 C   0  0  0  0  0  0  0  0  0  0  0  0
  -18.9208   55.0368   17.7787 C   0  0  0  0  0  0  0  0  0  0  0  0
  -21.4872   57.3748   13.2166 C   0  0  0  0  0  0  0  0  0  0  0  0
  -22.6478   56.7568   12.8369 F   0  0  0  0  0  0  0  0  0  0  0  0
  -20.6977   57.3743   12.1046 F   0  0  0  0  0  0  0  0  0  0  0  0
  -22.0397   59.0977   13.2755 P   0  0  0  0  0  0  0  0  0  0  0  0
  -21.5715   59.9444   14.4191 O   0  0  0  0  0  0  0  0  0  0  0  0
  -21.7248   59.7496   11.8330 O   0  0  0  0  0  0  0  0  0  0  0  0
  -23.6523   59.0894   13.1898 O   0  0  0  0  0  0  0  0  0  0  0  0
  -20.7651   59.8291   11.7167 H   0  0  0  0  0  0  0  0  0  0  0  0
  -24.0175   58.7149   14.0067 H   0  0  0  0  0  0  0  0  0  0  0  0
  -17.1718   51.2330   20.1870 C   0  0  0  0  0  0  0  0  0  0  0  0
  -17.9397   50.7387   21.4301 C   0  0  0  0  0  0  0  0  0  0  0  0
  -19.2540   50.4172   21.2201 N   0  0  0  0  0  0  0  0  0  0  0  0
  -17.4106   50.5492   22.5202 O   0  0  0  0  0  0  0  0  0  0  0  0
  -19.6648   50.5752   20.3395 H   0  0  0  0  0  0  0  0  0  0  0  0
  -19.7882   50.0281   21.9498 H   0  0  0  0  0  0  0  0  0  0  0  0
  -16.0462   52.1953   20.6175 C   0  0  0  0  0  0  0  0  0  0  0  0
  -14.6840   51.5142   20.7700 C   0  0  0  0  0  0  0  0  0  0  0  0
  -13.7601   52.2886   21.7078 C   0  0  0  0  0  0  0  0  0  0  0  0
  -12.2473   52.0797   21.4250 N   0  0  0  0  0  0  0  0  0  0  0  0
  -11.4414   52.1522   22.7107 C   0  0  0  0  0  0  0  0  0  0  0  0
  -11.7392   53.2633   20.5356 C   0  0  0  0  0  0  0  0  0  0  0  0
  -11.9924   50.8338   20.5897 C   0  0  0  0  0  0  0  0  0  0  0  0
  -10.6851   49.7156   18.7150 C   0  0  0  0  0  0  0  0  0  0  0  0
  -10.6240   50.5222   20.0151 N   0  0  0  0  0  0  0  0  0  0  0  0
   -9.9367   49.5814   21.0514 C   0  0  0  0  0  0  0  0  0  0  0  0
   -9.6871   51.7002   19.8369 C   0  0  0  0  0  0  0  0  0  0  0  0
 37 38  1  0
 38 39  1  0
 38 40  1  0
 38 36  1  0
 36 33  1  0
 33 34  1  0
 33 35  1  0
 33 32  1  0
 32 31  1  0
 31 30  1  0
 24 30  1  0
 24  1  1  0
  1  2  1  0
  2  3  2  0
  2  5  1  0
  5  6  2  0
  6  7  1  0
  7  8  2  0
  8  9  1  0
  9 10  2  0
 10 15  1  0
 15 16  1  0
 15 17  1  0
 15 18  1  0
 18 19  2  0
 18 20  1  0
 18 21  1  0
 10 11  1  0
 11 12  2  0
 12 13  1  0
 13 14  2  0
 24 25  1  0
 25 26  1  0
 25 27  2  0
 14  5  1  0
 13  8  1  0
  1  4  1  0
 20 22  1  0
 21 23  1  0
 26 28  1  0
 26 29  1  0
M  CHG 1  33   1
M  CHG 1  38   1
M  END
> <minimizedAffinity>
-8.70652

> <CNNscore>
0.6800963879

> <CNNaffinity>
6.1924796104

> <CNN_VS>
4.2114830017

> <CNNaffinity_variance>
0.0408332311

$$$$



 40 41  0  0  0  0  0  0  0  0999 V2000
  -18.3352   51.9310   19.4946 N   0  0  0  0  0  0  0  0  0  0  0  0
  -18.4376   53.2601   19.8509 C   0  0  0  0  0  0  0  0  0  0  0  0
  -18.1980   53.6674   20.9832 O   0  0  0  0  0  0  0  0  0  0  0  0
  -18.7039   51.6373   18.6302 H   0  0  0  0  0  0  0  0  0  0  0  0
  -18.8384   54.2092   18.7775 C   0  0  0  0  0  0  0  0  0  0  0  0
  -18.4379   55.5486   18.7830 C   0  0  0  0  0  0  0  0  0  0  0  0
  -18.8539   56.4024   17.7579 C   0  0  0  0  0  0  0  0  0  0  0  0
  -19.6720   55.9338   16.7172 C   0  0  0  0  0  0  0  0  0  0  0  0
  -20.1087   56.7866   15.6898 C   0  0  0  0  0  0  0  0  0  0  0  0
  -20.9327   56.3180   14.6537 C   0  0  0  0  0  0  0  0  0  0  0  0
  -21.3245   54.9745   14.6592 C   0  0  0  0  0  0  0  0  0  0  0  0
  -20.8933   54.1132   15.6709 C   0  0  0  0  0  0  0  0  0  0  0  0
  -20.0675   54.5779   16.7049 C   0  0  0  0  0  0  0  0  0  0  0  0
  -19.6383   53.7257   17.7343 C   0  0  0  0  0  0  0  0  0  0  0  0
  -21.4100   57.2445   13.5697 C   0  0  0  0  0  0  0  0  0  0  0  0
  -22.7149   57.6378   13.6958 F   0  0  0  0  0  0  0  0  0  0  0  0
  -21.3129   56.7126   12.3178 F   0  0  0  0  0  0  0  0  0  0  0  0
  -20.6053   58.8513   13.3509 P   0  0  0  0  0  0  0  0  0  0  0  0
  -19.5406   58.9642   12.3033 O   0  0  0  0  0  0  0  0  0  0  0  0
  -21.7742   59.9524   13.1888 O   0  0  0  0  0  0  0  0  0  0  0  0
  -20.0418   59.3080   14.7938 O   0  0  0  0  0  0  0  0  0  0  0  0
  -22.2309   59.8170   12.3438 H   0  0  0  0  0  0  0  0  0  0  0  0
  -19.3074   58.7293   15.0520 H   0  0  0  0  0  0  0  0  0  0  0  0
  -17.6931   50.9452   20.3666 C   0  0  0  0  0  0  0  0  0  0  0  0
  -18.2927   51.0506   21.7838 C   0  0  0  0  0  0  0  0  0  0  0  0
  -17.3944   51.3067   22.7850 N   0  0  0  0  0  0  0  0  0  0  0  0
  -19.4966   51.0048   22.0134 O   0  0  0  0  0  0  0  0  0  0  0  0
  -16.4310   51.3402   22.5852 H   0  0  0  0  0  0  0  0  0  0  0  0
  -17.7119   51.4573   23.7046 H   0  0  0  0  0  0  0  0  0  0  0  0
  -16.1602   51.0989   20.4357 C   0  0  0  0  0  0  0  0  0  0  0  0
  -15.7017   52.5255   20.7477 C   0  0  0  0  0  0  0  0  0  0  0  0
  -14.1984   52.5984   21.0076 C   0  0  0  0  0  0  0  0  0  0  0  0
  -13.8021   53.5219   22.1917 N   0  0  0  0  0  0  0  0  0  0  0  0
  -14.3319   52.9741   23.5059 C   0  0  0  0  0  0  0  0  0  0  0  0
  -14.4996   54.9095   21.9958 C   0  0  0  0  0  0  0  0  0  0  0  0
  -12.3136   53.8364   22.1933 C   0  0  0  0  0  0  0  0  0  0  0  0
  -12.4425   54.6493   19.7857 C   0  0  0  0  0  0  0  0  0  0  0  0
  -11.5531   54.1130   20.9108 N   0  0  0  0  0  0  0  0  0  0  0  0
  -11.0505   52.7239   20.4116 C   0  0  0  0  0  0  0  0  0  0  0  0
  -10.3174   54.9815   21.0375 C   0  0  0  0  0  0  0  0  0  0  0  0
 37 38  1  0
 38 39  1  0
 38 40  1  0
 38 36  1  0
 36 33  1  0
 33 34  1  0
 33 35  1  0
 33 32  1  0
 32 31  1  0
 31 30  1  0
 24 30  1  0
 24  1  1  0
  1  2  1  0
  2  3  2  0
  2  5  1  0
  5  6  2  0
  6  7  1  0
  7  8  2  0
  8  9  1  0
  9 10  2  0
 10 15  1  0
 15 16  1  0
 15 17  1  0
 15 18  1  0
 18 19  2  0
 18 20  1  0
 18 21  1  0
 10 11  1  0
 11 12  2  0
 12 13  1  0
 13 14  2  0
 24 25  1  0
 25 26  1  0
 25 27  2  0
 14  5  1  0
 13  8  1  0
  1  4  1  0
 20 22  1  0
 21 23  1  0
 26 28  1  0
 26 29  1  0
M  CHG 1  33   1
M  CHG 1  38   1
M  END
> <minimizedAffinity>
-7.83479

> <CNNscore>
0.5674973726

> <CNNaffinity>
6.2353878021

> <CNN_VS>
3.5385661125

> <CNNaffinity_variance>
0.1337787956

$$$$
