


 88 90  0  0  0  0  0  0  0  0999 V2000
   17.9416    4.3930    3.9877 N   0  0  0  0  0  0  0  0  0  0  0  0
   16.9911    4.0109    4.9173 C   0  0  0  0  0  0  0  0  0  0  0  0
   15.8049    4.3256    4.8287 O   0  0  0  0  0  0  0  0  0  0  0  0
   18.8629    4.0588    4.0813 H   0  0  0  0  0  0  0  0  0  0  0  0
   17.5840    3.2833    6.1443 C   0  0  0  0  0  0  0  0  0  0  0  0
   16.5568    2.5607    6.9048 N   0  0  0  0  0  0  0  0  0  0  0  0
   16.0485    1.3678    6.4374 C   0  0  0  0  0  0  0  0  0  0  0  0
   16.2821    0.9489    5.3104 O   0  0  0  0  0  0  0  0  0  0  0  0
   16.2283    2.9312    7.7557 H   0  0  0  0  0  0  0  0  0  0  0  0
   15.1494    0.6557    7.4319 C   0  0  0  0  0  0  0  0  0  0  0  0
   13.6541    0.9143    7.2064 C   0  0  0  0  0  0  0  0  0  0  0  0
   13.0754    2.0566    8.0563 C   0  0  0  0  0  0  0  0  0  0  0  0
   11.6548    2.5059    7.7027 C   0  0  0  0  0  0  0  0  0  0  0  0
   11.4224    4.0133    7.7851 C   0  0  0  0  0  0  0  0  0  0  0  0
   12.1687    4.6294    8.8694 N   0  0  0  0  0  0  0  0  0  0  0  0
   11.7969    5.8286    9.4390 C   0  0  0  0  0  0  0  0  0  0  0  0
   10.8235    6.4865    9.0863 O   0  0  0  0  0  0  0  0  0  0  0  0
   12.9713    4.1725    9.2105 H   0  0  0  0  0  0  0  0  0  0  0  0
   12.6661    6.2380   10.6351 C   0  0  0  0  0  0  0  0  0  0  0  0
   11.8932    6.7754   11.7203 O   0  0  0  0  0  0  0  0  0  0  0  0
   11.9967    5.8598   12.8354 C   0  0  0  0  0  0  0  0  0  0  0  0
   12.4541    4.5205   12.2578 C   0  0  0  0  0  0  0  0  0  0  0  0
   13.1439    3.6852   13.1823 O   0  0  0  0  0  0  0  0  0  0  0  0
   13.3850    4.9931   11.1512 C   0  0  0  0  0  0  0  0  0  0  0  0
   14.6541    5.3368   11.7380 O   0  0  0  0  0  0  0  0  0  0  0  0
   13.9181    4.1561   13.5283 H   0  0  0  0  0  0  0  0  0  0  0  0
   14.5182    5.9885   12.4436 H   0  0  0  0  0  0  0  0  0  0  0  0
   10.7282    5.7943   13.5258 N   0  0  0  0  0  0  0  0  0  0  0  0
    9.5340    6.3320   13.1285 C   0  0  0  0  0  0  0  0  0  0  0  0
    8.5620    6.0513   13.9733 N   0  0  0  0  0  0  0  0  0  0  0  0
    9.1613    5.2990   14.9623 C   0  0  0  0  0  0  0  0  0  0  0  0
    8.6628    4.6763   16.1212 C   0  0  0  0  0  0  0  0  0  0  0  0
    7.3340    4.7522   16.5136 N   0  0  0  0  0  0  0  0  0  0  0  0
    9.5088    3.9405   16.8774 N   0  0  0  0  0  0  0  0  0  0  0  0
   10.8055    3.8706   16.4999 C   0  0  0  0  0  0  0  0  0  0  0  0
   11.3996    4.4315   15.4277 N   0  0  0  0  0  0  0  0  0  0  0  0
   10.5092    5.1235   14.6982 C   0  0  0  0  0  0  0  0  0  0  0  0
    6.6937    5.2800   15.9838 H   0  0  0  0  0  0  0  0  0  0  0  0
    7.0315    4.2783   17.3218 H   0  0  0  0  0  0  0  0  0  0  0  0
   18.4083    4.2179    7.0461 C   0  0  0  0  0  0  0  0  0  0  0  0
   19.8635    3.7710    7.2321 C   0  0  0  0  0  0  0  0  0  0  0  0
   20.2542    3.5053    8.6915 C   0  0  0  0  0  0  0  0  0  0  0  0
   19.8382    2.1382    9.2419 C   0  0  0  0  0  0  0  0  0  0  0  0
   18.5613    2.1685    9.9440 N   0  0  0  0  0  0  0  0  0  0  0  0
   18.6309    2.7904   10.7495 H   0  0  0  0  0  0  0  0  0  0  0  0
   18.3247    1.2280   10.2599 H   0  0  0  0  0  0  0  0  0  0  0  0
   17.6211    5.2707    2.8803 C   0  0  0  0  0  0  0  0  0  0  0  0
   17.8748    6.7407    3.2134 C   0  0  0  0  0  0  0  0  0  0  0  0
   19.1237    6.9120    4.0816 C   0  0  0  0  0  0  0  0  0  0  0  0
   19.0507    8.1498    4.9878 C   0  0  0  0  0  0  0  0  0  0  0  0
   19.7386    9.3827    4.3966 C   0  0  0  0  0  0  0  0  0  0  0  0
   18.4037   11.2532    5.2013 N   0  0  0  0  0  0  0  0  0  0  0  0
   18.7439   10.4897    4.1116 C   0  0  0  0  0  0  0  0  0  0  0  0
   18.2437   10.6668    3.0044 O   0  0  0  0  0  0  0  0  0  0  0  0
   18.7864   11.0300    6.0805 H   0  0  0  0  0  0  0  0  0  0  0  0
   17.4843   12.3941    5.0912 C   0  0  0  0  0  0  0  0  0  0  0  0
   17.7127   14.8303    5.3130 N   0  0  0  0  0  0  0  0  0  0  0  0
   18.2764   13.6935    4.7750 C   0  0  0  0  0  0  0  0  0  0  0  0
   19.2928   13.7186    4.0874 O   0  0  0  0  0  0  0  0  0  0  0  0
   16.9688   14.7237    5.9490 H   0  0  0  0  0  0  0  0  0  0  0  0
   18.1581   16.1879    4.9916 C   0  0  0  0  0  0  0  0  0  0  0  0
   17.6491   16.5956    3.5899 C   0  0  0  0  0  0  0  0  0  0  0  0
   18.5548   16.5372    2.5633 N   0  0  0  0  0  0  0  0  0  0  0  0
   16.4778   16.8717    3.3500 O   0  0  0  0  0  0  0  0  0  0  0  0
   19.4960   16.3162    2.7492 H   0  0  0  0  0  0  0  0  0  0  0  0
   18.2643   16.7163    1.6399 H   0  0  0  0  0  0  0  0  0  0  0  0
   17.6596   17.1458    6.0844 C   0  0  0  0  0  0  0  0  0  0  0  0
   18.7862   17.9022    6.7964 C   0  0  0  0  0  0  0  0  0  0  0  0
   18.3161   18.4930    8.1237 C   0  0  0  0  0  0  0  0  0  0  0  0
   18.1110   19.9175    7.9719 N   0  0  0  0  0  0  0  0  0  0  0  0
   18.3643   20.4846    8.7357 H   0  0  0  0  0  0  0  0  0  0  0  0
   16.3828   20.7714    6.5977 N   0  0  0  0  0  0  0  0  0  0  0  0
   17.6088   20.5463    6.8920 C   0  0  0  0  0  0  0  0  0  0  0  0
   18.5737   20.9960    6.0648 N   0  0  0  0  0  0  0  0  0  0  0  0
   16.1555   21.2476    5.7665 H   0  0  0  0  0  0  0  0  0  0  0  0
   18.3309   21.4736    5.2389 H   0  0  0  0  0  0  0  0  0  0  0  0
   19.5212   20.8469    6.2867 H   0  0  0  0  0  0  0  0  0  0  0  0
   16.4160   12.0925    4.0279 C   0  0  0  0  0  0  0  0  0  0  0  0
   15.0004   12.0080    4.6074 C   0  0  0  0  0  0  0  0  0  0  0  0
   14.8986   12.6643    5.9870 C   0  0  0  0  0  0  0  0  0  0  0  0
   14.3846   14.0201    5.8755 N   0  0  0  0  0  0  0  0  0  0  0  0
   14.9833   14.7802    6.0574 H   0  0  0  0  0  0  0  0  0  0  0  0
   13.0997   14.2565    5.5265 C   0  0  0  0  0  0  0  0  0  0  0  0
   12.0743   13.6378    5.9915 N   0  0  0  0  0  0  0  0  0  0  0  0
   13.0201   15.2397    4.6087 N   0  0  0  0  0  0  0  0  0  0  0  0
   12.1909   12.9263    6.6619 H   0  0  0  0  0  0  0  0  0  0  0  0
   13.8396   15.6802    4.2869 H   0  0  0  0  0  0  0  0  0  0  0  0
   12.1424   15.5176    4.2598 H   0  0  0  0  0  0  0  0  0  0  0  0
 72 73  2  0
 73 74  1  0
 73 70  1  0
 70 69  1  0
 69 68  1  0
 68 67  1  0
 61 67  1  0
 61 57  1  0
 57 58  1  0
 58 59  2  0
 58 56  1  0
 56 78  1  0
 78 79  1  0
 79 80  1  0
 80 81  1  0
 81 83  1  0
 83 84  2  0
 83 85  1  0
 56 52  1  0
 52 53  1  0
 53 54  2  0
 53 51  1  0
 51 50  1  0
 50 49  1  0
 49 48  1  0
 48 47  1  0
 47  1  1  0
  1  2  1  0
  2  3  2  0
  2  5  1  0
  5 40  1  0
 40 41  1  0
 41 42  1  0
 42 43  1  0
 43 44  1  0
  5  6  1  0
  6  7  1  0
  7  8  2  0
  7 10  1  0
 10 11  1  0
 11 12  1  0
 12 13  1  0
 13 14  1  0
 14 15  1  0
 15 16  1  0
 16 17  2  0
 19 16  1  0
 19 20  1  0
 20 21  1  0
 21 28  1  0
 28 29  1  0
 29 30  2  0
 30 31  1  0
 31 32  2  0
 32 33  1  0
 32 34  1  0
 34 35  2  0
 35 36  1  0
 36 37  2  0
 21 22  1  0
 22 23  1  0
 22 24  1  0
 24 25  1  0
 61 62  1  0
 62 63  1  0
 62 64  2  0
 24 19  1  0
 37 28  1  0
 37 31  1  0
 72 75  1  0
 74 76  1  0
 74 77  1  0
 70 71  1  0
 57 60  1  0
 81 82  1  0
 84 86  1  0
 85 87  1  0
 85 88  1  0
 52 55  1  0
  1  4  1  0
 44 45  1  0
 44 46  1  0
  6  9  1  0
 15 18  1  0
 33 38  1  0
 33 39  1  0
 23 26  1  0
 25 27  1  0
 63 65  1  0
 63 66  1  0
M  END
> <minimizedAffinity>
-6.88956

> <CNNscore>
0.4450972080

> <CNNaffinity>
7.3407254219

> <CNN_VS>
3.2673363686

> <CNNaffinity_variance>
1.5143469572

$$$$



 88 90  0  0  0  0  0  0  0  0999 V2000
   17.5444    6.5726    6.4574 N   0  0  0  0  0  0  0  0  0  0  0  0
   17.6647    5.6161    5.4654 C   0  0  0  0  0  0  0  0  0  0  0  0
   17.1942    5.7596    4.3376 O   0  0  0  0  0  0  0  0  0  0  0  0
   17.9949    6.4253    7.3204 H   0  0  0  0  0  0  0  0  0  0  0  0
   18.3116    4.2999    5.9510 C   0  0  0  0  0  0  0  0  0  0  0  0
   17.3077    3.2701    6.2469 N   0  0  0  0  0  0  0  0  0  0  0  0
   16.8453    2.4359    5.2520 C   0  0  0  0  0  0  0  0  0  0  0  0
   17.0994    2.6192    4.0679 O   0  0  0  0  0  0  0  0  0  0  0  0
   16.9620    3.1747    7.1638 H   0  0  0  0  0  0  0  0  0  0  0  0
   15.9681    1.3063    5.7608 C   0  0  0  0  0  0  0  0  0  0  0  0
   15.9989    1.1407    7.2857 C   0  0  0  0  0  0  0  0  0  0  0  0
   14.6406    1.3557    7.9719 C   0  0  0  0  0  0  0  0  0  0  0  0
   13.7629    2.4694    7.3936 C   0  0  0  0  0  0  0  0  0  0  0  0
   12.6356    2.9366    8.3122 C   0  0  0  0  0  0  0  0  0  0  0  0
   13.1344    3.5439    9.5348 N   0  0  0  0  0  0  0  0  0  0  0  0
   12.5744    4.6787   10.0821 C   0  0  0  0  0  0  0  0  0  0  0  0
   11.6242    5.2821    9.5945 O   0  0  0  0  0  0  0  0  0  0  0  0
   13.9022    3.1287    9.9900 H   0  0  0  0  0  0  0  0  0  0  0  0
   13.1918    5.0829   11.4271 C   0  0  0  0  0  0  0  0  0  0  0  0
   12.3229    5.9245   12.2022 O   0  0  0  0  0  0  0  0  0  0  0  0
   11.9297    5.1884   13.3837 C   0  0  0  0  0  0  0  0  0  0  0  0
   12.1883    3.7122   13.0830 C   0  0  0  0  0  0  0  0  0  0  0  0
   12.4122    2.9067   14.2360 O   0  0  0  0  0  0  0  0  0  0  0  0
   13.4479    3.8128   12.2359 C   0  0  0  0  0  0  0  0  0  0  0  0
   14.5766    3.9797   13.1142 O   0  0  0  0  0  0  0  0  0  0  0  0
   13.1649    3.2595   14.7358 H   0  0  0  0  0  0  0  0  0  0  0  0
   14.4273    4.7456   13.6905 H   0  0  0  0  0  0  0  0  0  0  0  0
   10.5511    5.4860   13.7015 N   0  0  0  0  0  0  0  0  0  0  0  0
    9.6499    6.1769   12.9377 C   0  0  0  0  0  0  0  0  0  0  0  0
    8.4624    6.2329   13.5068 N   0  0  0  0  0  0  0  0  0  0  0  0
    8.6085    5.5468   14.6947 C   0  0  0  0  0  0  0  0  0  0  0  0
    7.7098    5.2296   15.7296 C   0  0  0  0  0  0  0  0  0  0  0  0
    6.3806    5.6277   15.7313 N   0  0  0  0  0  0  0  0  0  0  0  0
    8.1492    4.4734   16.7612 N   0  0  0  0  0  0  0  0  0  0  0  0
    9.4460    4.0897   16.7644 C   0  0  0  0  0  0  0  0  0  0  0  0
   10.3988    4.3425   15.8450 N   0  0  0  0  0  0  0  0  0  0  0  0
    9.9010    5.0694   14.8312 C   0  0  0  0  0  0  0  0  0  0  0  0
    6.0308    6.1787   14.9942 H   0  0  0  0  0  0  0  0  0  0  0  0
    5.7872    5.3591   16.4695 H   0  0  0  0  0  0  0  0  0  0  0  0
   19.2741    4.5131    7.1318 C   0  0  0  0  0  0  0  0  0  0  0  0
   19.0867    3.5036    8.2709 C   0  0  0  0  0  0  0  0  0  0  0  0
   20.3786    2.7939    8.6961 C   0  0  0  0  0  0  0  0  0  0  0  0
   20.1837    1.5208    9.5244 C   0  0  0  0  0  0  0  0  0  0  0  0
   19.1829    1.6683   10.5736 N   0  0  0  0  0  0  0  0  0  0  0  0
   19.4810    2.3911   11.2286 H   0  0  0  0  0  0  0  0  0  0  0  0
   19.0768    0.7831   11.0692 H   0  0  0  0  0  0  0  0  0  0  0  0
   16.7750    7.7849    6.2638 C   0  0  0  0  0  0  0  0  0  0  0  0
   17.6305    8.9367    5.7366 C   0  0  0  0  0  0  0  0  0  0  0  0
   16.8917    9.7382    4.6620 C   0  0  0  0  0  0  0  0  0  0  0  0
   17.0076   11.2555    4.8694 C   0  0  0  0  0  0  0  0  0  0  0  0
   18.4474   11.7394    5.0579 C   0  0  0  0  0  0  0  0  0  0  0  0
   18.5344   14.0269    4.2283 N   0  0  0  0  0  0  0  0  0  0  0  0
   18.4999   13.2265    5.3438 C   0  0  0  0  0  0  0  0  0  0  0  0
   18.5529   13.6845    6.4818 O   0  0  0  0  0  0  0  0  0  0  0  0
   18.5528   13.6068    3.3381 H   0  0  0  0  0  0  0  0  0  0  0  0
   18.5446   15.4929    4.3267 C   0  0  0  0  0  0  0  0  0  0  0  0
   18.9729   16.2411    2.0261 N   0  0  0  0  0  0  0  0  0  0  0  0
   19.5242   16.0945    3.2807 C   0  0  0  0  0  0  0  0  0  0  0  0
   20.6896   16.3871    3.5315 O   0  0  0  0  0  0  0  0  0  0  0  0
   18.0040   16.0989    1.9248 H   0  0  0  0  0  0  0  0  0  0  0  0
   19.7474   16.5966    0.8350 C   0  0  0  0  0  0  0  0  0  0  0  0
   20.7319   15.4579    0.4828 C   0  0  0  0  0  0  0  0  0  0  0  0
   22.0616   15.6998    0.7082 N   0  0  0  0  0  0  0  0  0  0  0  0
   20.3730   14.3458    0.1080 O   0  0  0  0  0  0  0  0  0  0  0  0
   22.3560   16.5898    1.0090 H   0  0  0  0  0  0  0  0  0  0  0  0
   22.7227   14.9835    0.5695 H   0  0  0  0  0  0  0  0  0  0  0  0
   18.7768   16.8936   -0.3181 C   0  0  0  0  0  0  0  0  0  0  0  0
   19.0773   18.2066   -1.0490 C   0  0  0  0  0  0  0  0  0  0  0  0
   20.2195   18.0451   -2.0495 C   0  0  0  0  0  0  0  0  0  0  0  0
   21.0124   19.2554   -2.0759 N   0  0  0  0  0  0  0  0  0  0  0  0
   21.4742   19.4631   -2.9202 H   0  0  0  0  0  0  0  0  0  0  0  0
   20.4573   20.2900   -0.0202 N   0  0  0  0  0  0  0  0  0  0  0  0
   21.1827   20.1265   -1.0631 C   0  0  0  0  0  0  0  0  0  0  0  0
   22.2925   20.8772   -1.2127 N   0  0  0  0  0  0  0  0  0  0  0  0
   20.7013   20.9714    0.6472 H   0  0  0  0  0  0  0  0  0  0  0  0
   22.5253   21.5523   -0.5349 H   0  0  0  0  0  0  0  0  0  0  0  0
   22.8702   20.7504   -1.9998 H   0  0  0  0  0  0  0  0  0  0  0  0
   17.1141   16.0293    4.1578 C   0  0  0  0  0  0  0  0  0  0  0  0
   16.6834   16.9577    5.2977 C   0  0  0  0  0  0  0  0  0  0  0  0
   17.8779   17.4934    6.0919 C   0  0  0  0  0  0  0  0  0  0  0  0
   17.6159   17.4304    7.5210 N   0  0  0  0  0  0  0  0  0  0  0  0
   17.1264   16.6594    7.8889 H   0  0  0  0  0  0  0  0  0  0  0  0
   18.0321   18.4109    8.3541 C   0  0  0  0  0  0  0  0  0  0  0  0
   18.9138   19.3027    8.0753 N   0  0  0  0  0  0  0  0  0  0  0  0
   17.3993   18.3385    9.5415 N   0  0  0  0  0  0  0  0  0  0  0  0
   19.3452   19.3086    7.1904 H   0  0  0  0  0  0  0  0  0  0  0  0
   16.7313   17.6332    9.7011 H   0  0  0  0  0  0  0  0  0  0  0  0
   17.6049   18.9910   10.2494 H   0  0  0  0  0  0  0  0  0  0  0  0
 72 73  2  0
 73 74  1  0
 73 70  1  0
 70 69  1  0
 69 68  1  0
 68 67  1  0
 61 67  1  0
 61 57  1  0
 57 58  1  0
 58 59  2  0
 58 56  1  0
 56 78  1  0
 78 79  1  0
 79 80  1  0
 80 81  1  0
 81 83  1  0
 83 84  2  0
 83 85  1  0
 56 52  1  0
 52 53  1  0
 53 54  2  0
 53 51  1  0
 51 50  1  0
 50 49  1  0
 49 48  1  0
 48 47  1  0
 47  1  1  0
  1  2  1  0
  2  3  2  0
  2  5  1  0
  5 40  1  0
 40 41  1  0
 41 42  1  0
 42 43  1  0
 43 44  1  0
  5  6  1  0
  6  7  1  0
  7  8  2  0
  7 10  1  0
 10 11  1  0
 11 12  1  0
 12 13  1  0
 13 14  1  0
 14 15  1  0
 15 16  1  0
 16 17  2  0
 19 16  1  0
 19 20  1  0
 20 21  1  0
 21 28  1  0
 28 29  1  0
 29 30  2  0
 30 31  1  0
 31 32  2  0
 32 33  1  0
 32 34  1  0
 34 35  2  0
 35 36  1  0
 36 37  2  0
 21 22  1  0
 22 23  1  0
 22 24  1  0
 24 25  1  0
 61 62  1  0
 62 63  1  0
 62 64  2  0
 24 19  1  0
 37 28  1  0
 37 31  1  0
 72 75  1  0
 74 76  1  0
 74 77  1  0
 70 71  1  0
 57 60  1  0
 81 82  1  0
 84 86  1  0
 85 87  1  0
 85 88  1  0
 52 55  1  0
  1  4  1  0
 44 45  1  0
 44 46  1  0
  6  9  1  0
 15 18  1  0
 33 38  1  0
 33 39  1  0
 23 26  1  0
 25 27  1  0
 63 65  1  0
 63 66  1  0
M  END
> <minimizedAffinity>
-7.55903

> <CNNscore>
0.2965881526

> <CNNaffinity>
6.8915476799

> <CNN_VS>
2.0439515114

> <CNNaffinity_variance>
2.0746603012

$$$$



 88 90  0  0  0  0  0  0  0  0999 V2000
   18.5567    4.1779    7.9143 N   0  0  0  0  0  0  0  0  0  0  0  0
   18.3027    2.9590    8.5173 C   0  0  0  0  0  0  0  0  0  0  0  0
   19.1950    2.2101    8.9133 O   0  0  0  0  0  0  0  0  0  0  0  0
   17.7994    4.7592    7.6741 H   0  0  0  0  0  0  0  0  0  0  0  0
   16.8088    2.5655    8.5105 C   0  0  0  0  0  0  0  0  0  0  0  0
   16.1017    3.0703    9.6942 N   0  0  0  0  0  0  0  0  0  0  0  0
   15.1724    4.0813    9.5770 C   0  0  0  0  0  0  0  0  0  0  0  0
   15.0217    4.7208    8.5432 O   0  0  0  0  0  0  0  0  0  0  0  0
   16.2930    2.6833   10.5790 H   0  0  0  0  0  0  0  0  0  0  0  0
   14.3937    4.3460   10.8529 C   0  0  0  0  0  0  0  0  0  0  0  0
   14.4475    5.8076   11.3162 C   0  0  0  0  0  0  0  0  0  0  0  0
   13.1870    6.6221   10.9845 C   0  0  0  0  0  0  0  0  0  0  0  0
   12.5281    7.3510   12.1591 C   0  0  0  0  0  0  0  0  0  0  0  0
   11.3809    8.2817   11.7708 C   0  0  0  0  0  0  0  0  0  0  0  0
   10.0820    7.6433   11.9031 N   0  0  0  0  0  0  0  0  0  0  0  0
    8.9325    8.3504   12.1856 C   0  0  0  0  0  0  0  0  0  0  0  0
    8.8955    9.5640   12.3601 O   0  0  0  0  0  0  0  0  0  0  0  0
   10.0204    6.6677   11.7864 H   0  0  0  0  0  0  0  0  0  0  0  0
    7.6622    7.4903   12.1751 C   0  0  0  0  0  0  0  0  0  0  0  0
    7.8707    6.1913   12.7523 O   0  0  0  0  0  0  0  0  0  0  0  0
    7.0877    6.1137   13.9660 C   0  0  0  0  0  0  0  0  0  0  0  0
    6.7723    7.5528   14.3734 C   0  0  0  0  0  0  0  0  0  0  0  0
    5.5947    7.6974   15.1612 O   0  0  0  0  0  0  0  0  0  0  0  0
    6.5974    8.2011   13.0082 C   0  0  0  0  0  0  0  0  0  0  0  0
    5.2760    7.8965   12.5243 O   0  0  0  0  0  0  0  0  0  0  0  0
    4.8355    7.3370   14.6769 H   0  0  0  0  0  0  0  0  0  0  0  0
    5.1454    6.9353   12.5236 H   0  0  0  0  0  0  0  0  0  0  0  0
    7.8208    5.3716   14.9671 N   0  0  0  0  0  0  0  0  0  0  0  0
    7.3312    4.8167   16.1183 C   0  0  0  0  0  0  0  0  0  0  0  0
    8.2640    4.1709   16.7892 N   0  0  0  0  0  0  0  0  0  0  0  0
    9.4085    4.3203   16.0337 C   0  0  0  0  0  0  0  0  0  0  0  0
   10.7238    3.8463   16.1909 C   0  0  0  0  0  0  0  0  0  0  0  0
   11.1328    3.0839   17.2757 N   0  0  0  0  0  0  0  0  0  0  0  0
   11.6309    4.1178   15.2254 N   0  0  0  0  0  0  0  0  0  0  0  0
   11.2357    4.8660   14.1705 C   0  0  0  0  0  0  0  0  0  0  0  0
   10.0176    5.3854   13.9187 N   0  0  0  0  0  0  0  0  0  0  0  0
    9.1512    5.0604   14.8921 C   0  0  0  0  0  0  0  0  0  0  0  0
   10.4956    2.8694   17.9949 H   0  0  0  0  0  0  0  0  0  0  0  0
   12.0602    2.7574   17.3262 H   0  0  0  0  0  0  0  0  0  0  0  0
   16.5949    1.0541    8.3208 C   0  0  0  0  0  0  0  0  0  0  0  0
   15.5687    0.7073    7.2352 C   0  0  0  0  0  0  0  0  0  0  0  0
   14.1778    0.3565    7.7790 C   0  0  0  0  0  0  0  0  0  0  0  0
   13.1931    1.5264    7.8612 C   0  0  0  0  0  0  0  0  0  0  0  0
   13.3884    2.5139    6.8072 N   0  0  0  0  0  0  0  0  0  0  0  0
   14.3204    2.9200    6.8903 H   0  0  0  0  0  0  0  0  0  0  0  0
   12.6877    3.2496    6.8966 H   0  0  0  0  0  0  0  0  0  0  0  0
   19.9047    4.6241    7.6261 C   0  0  0  0  0  0  0  0  0  0  0  0
   20.2586    4.4815    6.1459 C   0  0  0  0  0  0  0  0  0  0  0  0
   21.5555    3.6920    5.9525 C   0  0  0  0  0  0  0  0  0  0  0  0
   22.1352    3.8411    4.5382 C   0  0  0  0  0  0  0  0  0  0  0  0
   23.4418    4.6370    4.4929 C   0  0  0  0  0  0  0  0  0  0  0  0
   24.5322    6.4788    3.3322 N   0  0  0  0  0  0  0  0  0  0  0  0
   23.3654    5.7724    3.4923 C   0  0  0  0  0  0  0  0  0  0  0  0
   22.3315    6.0704    2.9008 O   0  0  0  0  0  0  0  0  0  0  0  0
   25.3161    6.2381    3.8770 H   0  0  0  0  0  0  0  0  0  0  0  0
   24.6428    7.5842    2.3704 C   0  0  0  0  0  0  0  0  0  0  0  0
   23.5552    9.7686    2.0852 N   0  0  0  0  0  0  0  0  0  0  0  0
   24.1087    8.9003    3.0013 C   0  0  0  0  0  0  0  0  0  0  0  0
   24.1937    9.1634    4.1972 O   0  0  0  0  0  0  0  0  0  0  0  0
   23.4126    9.4456    1.1662 H   0  0  0  0  0  0  0  0  0  0  0  0
   23.1673   11.1449    2.4020 C   0  0  0  0  0  0  0  0  0  0  0  0
   23.4303   12.0635    1.1866 C   0  0  0  0  0  0  0  0  0  0  0  0
   24.5080   12.9055    1.2711 N   0  0  0  0  0  0  0  0  0  0  0  0
   22.7873   12.0046    0.1431 O   0  0  0  0  0  0  0  0  0  0  0  0
   25.0279   12.9574    2.1055 H   0  0  0  0  0  0  0  0  0  0  0  0
   24.7623   13.4586    0.4974 H   0  0  0  0  0  0  0  0  0  0  0  0
   21.6902   11.1599    2.8240 C   0  0  0  0  0  0  0  0  0  0  0  0
   21.3685   12.2123    3.8903 C   0  0  0  0  0  0  0  0  0  0  0  0
   20.0019   11.9691    4.5267 C   0  0  0  0  0  0  0  0  0  0  0  0
   19.3406   13.2370    4.7487 N   0  0  0  0  0  0  0  0  0  0  0  0
   19.7010   14.0145    4.2640 H   0  0  0  0  0  0  0  0  0  0  0  0
   18.2650   13.6333    6.8200 N   0  0  0  0  0  0  0  0  0  0  0  0
   18.2825   13.4617    5.5509 C   0  0  0  0  0  0  0  0  0  0  0  0
   17.1236   13.5295    4.8653 N   0  0  0  0  0  0  0  0  0  0  0  0
   17.4109   13.7901    7.2839 H   0  0  0  0  0  0  0  0  0  0  0  0
   16.2778   13.6904    5.3428 H   0  0  0  0  0  0  0  0  0  0  0  0
   17.1231   13.4180    3.8871 H   0  0  0  0  0  0  0  0  0  0  0  0
   26.1013    7.7148    1.9031 C   0  0  0  0  0  0  0  0  0  0  0  0
   26.5492    9.1703    1.7359 C   0  0  0  0  0  0  0  0  0  0  0  0
   28.0451    9.3513    2.0077 C   0  0  0  0  0  0  0  0  0  0  0  0
   28.2611   10.3038    3.0852 N   0  0  0  0  0  0  0  0  0  0  0  0
   28.2527    9.9883    4.0177 H   0  0  0  0  0  0  0  0  0  0  0  0
   28.4732   11.6148    2.8302 C   0  0  0  0  0  0  0  0  0  0  0  0
   29.4601   12.0949    2.1624 N   0  0  0  0  0  0  0  0  0  0  0  0
   27.5049   12.3770    3.3751 N   0  0  0  0  0  0  0  0  0  0  0  0
   30.1401   11.4907    1.7859 H   0  0  0  0  0  0  0  0  0  0  0  0
   26.7708   11.9554    3.8776 H   0  0  0  0  0  0  0  0  0  0  0  0
   27.5316   13.3556    3.2707 H   0  0  0  0  0  0  0  0  0  0  0  0
 72 73  2  0
 73 74  1  0
 73 70  1  0
 70 69  1  0
 69 68  1  0
 68 67  1  0
 61 67  1  0
 61 57  1  0
 57 58  1  0
 58 59  2  0
 58 56  1  0
 56 78  1  0
 78 79  1  0
 79 80  1  0
 80 81  1  0
 81 83  1  0
 83 84  2  0
 83 85  1  0
 56 52  1  0
 52 53  1  0
 53 54  2  0
 53 51  1  0
 51 50  1  0
 50 49  1  0
 49 48  1  0
 48 47  1  0
 47  1  1  0
  1  2  1  0
  2  3  2  0
  2  5  1  0
  5 40  1  0
 40 41  1  0
 41 42  1  0
 42 43  1  0
 43 44  1  0
  5  6  1  0
  6  7  1  0
  7  8  2  0
  7 10  1  0
 10 11  1  0
 11 12  1  0
 12 13  1  0
 13 14  1  0
 14 15  1  0
 15 16  1  0
 16 17  2  0
 19 16  1  0
 19 20  1  0
 20 21  1  0
 21 28  1  0
 28 29  1  0
 29 30  2  0
 30 31  1  0
 31 32  2  0
 32 33  1  0
 32 34  1  0
 34 35  2  0
 35 36  1  0
 36 37  2  0
 21 22  1  0
 22 23  1  0
 22 24  1  0
 24 25  1  0
 61 62  1  0
 62 63  1  0
 62 64  2  0
 24 19  1  0
 37 28  1  0
 37 31  1  0
 72 75  1  0
 74 76  1  0
 74 77  1  0
 70 71  1  0
 57 60  1  0
 81 82  1  0
 84 86  1  0
 85 87  1  0
 85 88  1  0
 52 55  1  0
  1  4  1  0
 44 45  1  0
 44 46  1  0
  6  9  1  0
 15 18  1  0
 33 38  1  0
 33 39  1  0
 23 26  1  0
 25 27  1  0
 63 65  1  0
 63 66  1  0
M  END
> <minimizedAffinity>
-7.48475

> <CNNscore>
0.2332140952

> <CNNaffinity>
6.9997849464

> <CNN_VS>
1.6324485540

> <CNNaffinity_variance>
1.8047357798

$$$$



 88 90  0  0  0  0  0  0  0  0999 V2000
   19.4813    4.4164    5.7896 N   0  0  0  0  0  0  0  0  0  0  0  0
   19.2334    4.6544    7.1296 C   0  0  0  0  0  0  0  0  0  0  0  0
   19.4074    5.7523    7.6570 O   0  0  0  0  0  0  0  0  0  0  0  0
   19.2649    3.5328    5.4132 H   0  0  0  0  0  0  0  0  0  0  0  0
   18.8628    3.3829    7.9250 C   0  0  0  0  0  0  0  0  0  0  0  0
   17.5845    3.5296    8.6322 N   0  0  0  0  0  0  0  0  0  0  0  0
   16.6869    2.4849    8.6810 C   0  0  0  0  0  0  0  0  0  0  0  0
   16.8182    1.4717    8.0055 O   0  0  0  0  0  0  0  0  0  0  0  0
   17.3668    4.3814    9.0753 H   0  0  0  0  0  0  0  0  0  0  0  0
   15.5139    2.7307    9.6127 C   0  0  0  0  0  0  0  0  0  0  0  0
   14.1533    2.7328    8.9039 C   0  0  0  0  0  0  0  0  0  0  0  0
   13.3021    3.9836    9.1744 C   0  0  0  0  0  0  0  0  0  0  0  0
   12.8250    4.1742   10.6170 C   0  0  0  0  0  0  0  0  0  0  0  0
   12.0445    5.4631   10.8668 C   0  0  0  0  0  0  0  0  0  0  0  0
   10.6350    5.2156   11.1208 N   0  0  0  0  0  0  0  0  0  0  0  0
    9.6704    6.1881   10.9639 C   0  0  0  0  0  0  0  0  0  0  0  0
    9.9039    7.3395   10.6111 O   0  0  0  0  0  0  0  0  0  0  0  0
   10.3582    4.3182   11.4164 H   0  0  0  0  0  0  0  0  0  0  0  0
    8.2403    5.6783   11.1844 C   0  0  0  0  0  0  0  0  0  0  0  0
    8.1541    4.7226   12.2536 O   0  0  0  0  0  0  0  0  0  0  0  0
    7.3735    5.3153   13.3173 C   0  0  0  0  0  0  0  0  0  0  0  0
    7.3868    6.8250   13.0778 C   0  0  0  0  0  0  0  0  0  0  0  0
    6.2710    7.5185   13.6277 O   0  0  0  0  0  0  0  0  0  0  0  0
    7.3608    6.8701   11.5573 C   0  0  0  0  0  0  0  0  0  0  0  0
    6.0047    6.6675   11.1178 O   0  0  0  0  0  0  0  0  0  0  0  0
    5.4505    7.1521   13.2623 H   0  0  0  0  0  0  0  0  0  0  0  0
    5.6632    5.8408   11.4933 H   0  0  0  0  0  0  0  0  0  0  0  0
    7.9227    4.9229   14.5957 N   0  0  0  0  0  0  0  0  0  0  0  0
    7.2808    4.8889   15.8039 C   0  0  0  0  0  0  0  0  0  0  0  0
    8.0637    4.4419   16.7654 N   0  0  0  0  0  0  0  0  0  0  0  0
    9.2675    4.1783   16.1453 C   0  0  0  0  0  0  0  0  0  0  0  0
   10.4882    3.6591   16.6139 C   0  0  0  0  0  0  0  0  0  0  0  0
   10.7088    3.3133   17.9394 N   0  0  0  0  0  0  0  0  0  0  0  0
   11.4895    3.4557   15.7278 N   0  0  0  0  0  0  0  0  0  0  0  0
   11.2785    3.7979   14.4366 C   0  0  0  0  0  0  0  0  0  0  0  0
   10.1667    4.3138   13.8755 N   0  0  0  0  0  0  0  0  0  0  0  0
    9.1975    4.4664   14.7927 C   0  0  0  0  0  0  0  0  0  0  0  0
    9.9992    3.4493   18.6082 H   0  0  0  0  0  0  0  0  0  0  0  0
   11.5748    2.9319   18.2112 H   0  0  0  0  0  0  0  0  0  0  0  0
   19.9874    2.9262    8.8699 C   0  0  0  0  0  0  0  0  0  0  0  0
   21.2786    2.5270    8.1452 C   0  0  0  0  0  0  0  0  0  0  0  0
   22.1847    1.5891    8.9531 C   0  0  0  0  0  0  0  0  0  0  0  0
   21.9051    0.0942    8.7739 C   0  0  0  0  0  0  0  0  0  0  0  0
   21.3145   -0.5230    9.9547 N   0  0  0  0  0  0  0  0  0  0  0  0
   21.9628   -0.4467   10.7385 H   0  0  0  0  0  0  0  0  0  0  0  0
   21.1247   -1.5071    9.7650 H   0  0  0  0  0  0  0  0  0  0  0  0
   20.0502    5.4293    4.9238 C   0  0  0  0  0  0  0  0  0  0  0  0
   21.5617    5.5655    5.1059 C   0  0  0  0  0  0  0  0  0  0  0  0
   22.2661    4.2123    4.9811 C   0  0  0  0  0  0  0  0  0  0  0  0
   22.7730    3.9367    3.5578 C   0  0  0  0  0  0  0  0  0  0  0  0
   21.9803    2.8516    2.8250 C   0  0  0  0  0  0  0  0  0  0  0  0
   21.0148    4.7972    1.7247 N   0  0  0  0  0  0  0  0  0  0  0  0
   21.1653    3.4326    1.6874 C   0  0  0  0  0  0  0  0  0  0  0  0
   20.6405    2.7381    0.8216 O   0  0  0  0  0  0  0  0  0  0  0  0
   21.4038    5.3014    2.4755 H   0  0  0  0  0  0  0  0  0  0  0  0
   20.2891    5.5255    0.6749 C   0  0  0  0  0  0  0  0  0  0  0  0
   18.3001    6.9678    0.6883 N   0  0  0  0  0  0  0  0  0  0  0  0
   18.8138    5.7586    1.1049 C   0  0  0  0  0  0  0  0  0  0  0  0
   18.1683    4.9599    1.7772 O   0  0  0  0  0  0  0  0  0  0  0  0
   18.8300    7.5044    0.0555 H   0  0  0  0  0  0  0  0  0  0  0  0
   17.0103    7.4992    1.1341 C   0  0  0  0  0  0  0  0  0  0  0  0
   16.1800    6.3821    1.8069 C   0  0  0  0  0  0  0  0  0  0  0  0
   15.5516    5.4935    0.9744 N   0  0  0  0  0  0  0  0  0  0  0  0
   16.1383    6.2088    3.0210 O   0  0  0  0  0  0  0  0  0  0  0  0
   15.5813    5.6269   -0.0006 H   0  0  0  0  0  0  0  0  0  0  0  0
   15.0703    4.7217    1.3512 H   0  0  0  0  0  0  0  0  0  0  0  0
   17.2613    8.6796    2.0846 C   0  0  0  0  0  0  0  0  0  0  0  0
   18.5967    8.5917    2.8312 C   0  0  0  0  0  0  0  0  0  0  0  0
   19.1122    9.9735    3.2269 C   0  0  0  0  0  0  0  0  0  0  0  0
   19.0652   10.1117    4.6667 N   0  0  0  0  0  0  0  0  0  0  0  0
   19.7043   10.7417    5.0715 H   0  0  0  0  0  0  0  0  0  0  0  0
   18.4894    8.4662    6.2682 N   0  0  0  0  0  0  0  0  0  0  0  0
   18.2362    9.4662    5.5091 C   0  0  0  0  0  0  0  0  0  0  0  0
   17.0015   10.0074    5.5295 N   0  0  0  0  0  0  0  0  0  0  0  0
   17.7812    8.0898    6.8392 H   0  0  0  0  0  0  0  0  0  0  0  0
   16.3047    9.6221    6.1085 H   0  0  0  0  0  0  0  0  0  0  0  0
   16.7967   10.7879    4.9655 H   0  0  0  0  0  0  0  0  0  0  0  0
   21.0183    6.8427    0.3652 C   0  0  0  0  0  0  0  0  0  0  0  0
   22.3139    7.0131    1.1647 C   0  0  0  0  0  0  0  0  0  0  0  0
   22.1056    7.8386    2.4373 C   0  0  0  0  0  0  0  0  0  0  0  0
   22.9882    8.9944    2.4515 N   0  0  0  0  0  0  0  0  0  0  0  0
   22.8774    9.6951    1.7690 H   0  0  0  0  0  0  0  0  0  0  0  0
   23.9582    9.1245    3.3847 C   0  0  0  0  0  0  0  0  0  0  0  0
   25.0752    9.7372    3.2195 N   0  0  0  0  0  0  0  0  0  0  0  0
   23.6073    8.5182    4.5357 N   0  0  0  0  0  0  0  0  0  0  0  0
   25.2799   10.1633    2.3559 H   0  0  0  0  0  0  0  0  0  0  0  0
   22.7374    8.0627    4.6069 H   0  0  0  0  0  0  0  0  0  0  0  0
   24.2208    8.5307    5.3056 H   0  0  0  0  0  0  0  0  0  0  0  0
 72 73  2  0
 73 74  1  0
 73 70  1  0
 70 69  1  0
 69 68  1  0
 68 67  1  0
 61 67  1  0
 61 57  1  0
 57 58  1  0
 58 59  2  0
 58 56  1  0
 56 78  1  0
 78 79  1  0
 79 80  1  0
 80 81  1  0
 81 83  1  0
 83 84  2  0
 83 85  1  0
 56 52  1  0
 52 53  1  0
 53 54  2  0
 53 51  1  0
 51 50  1  0
 50 49  1  0
 49 48  1  0
 48 47  1  0
 47  1  1  0
  1  2  1  0
  2  3  2  0
  2  5  1  0
  5 40  1  0
 40 41  1  0
 41 42  1  0
 42 43  1  0
 43 44  1  0
  5  6  1  0
  6  7  1  0
  7  8  2  0
  7 10  1  0
 10 11  1  0
 11 12  1  0
 12 13  1  0
 13 14  1  0
 14 15  1  0
 15 16  1  0
 16 17  2  0
 19 16  1  0
 19 20  1  0
 20 21  1  0
 21 28  1  0
 28 29  1  0
 29 30  2  0
 30 31  1  0
 31 32  2  0
 32 33  1  0
 32 34  1  0
 34 35  2  0
 35 36  1  0
 36 37  2  0
 21 22  1  0
 22 23  1  0
 22 24  1  0
 24 25  1  0
 61 62  1  0
 62 63  1  0
 62 64  2  0
 24 19  1  0
 37 28  1  0
 37 31  1  0
 72 75  1  0
 74 76  1  0
 74 77  1  0
 70 71  1  0
 57 60  1  0
 81 82  1  0
 84 86  1  0
 85 87  1  0
 85 88  1  0
 52 55  1  0
  1  4  1  0
 44 45  1  0
 44 46  1  0
  6  9  1  0
 15 18  1  0
 33 38  1  0
 33 39  1  0
 23 26  1  0
 25 27  1  0
 63 65  1  0
 63 66  1  0
M  END
> <minimizedAffinity>
-6.53588

> <CNNscore>
0.1952284724

> <CNNaffinity>
7.1030468941

> <CNN_VS>
1.3867169619

> <CNNaffinity_variance>
1.4524587393

$$$$



 88 90  0  0  0  0  0  0  0  0999 V2000
   16.8923    7.1896    8.6009 N   0  0  0  0  0  0  0  0  0  0  0  0
   17.4514    7.8866    7.5448 C   0  0  0  0  0  0  0  0  0  0  0  0
   17.0130    8.9661    7.1494 O   0  0  0  0  0  0  0  0  0  0  0  0
   17.3254    6.3610    8.9092 H   0  0  0  0  0  0  0  0  0  0  0  0
   18.5768    7.1143    6.8213 C   0  0  0  0  0  0  0  0  0  0  0  0
   19.2121    7.9221    5.7726 N   0  0  0  0  0  0  0  0  0  0  0  0
   20.2604    8.7641    6.0753 C   0  0  0  0  0  0  0  0  0  0  0  0
   20.5909    9.0166    7.2273 O   0  0  0  0  0  0  0  0  0  0  0  0
   18.8864    7.8618    4.8455 H   0  0  0  0  0  0  0  0  0  0  0  0
   20.9287    9.3704    4.8546 C   0  0  0  0  0  0  0  0  0  0  0  0
   21.6755   10.6784    5.1463 C   0  0  0  0  0  0  0  0  0  0  0  0
   21.2189   11.8708    4.2908 C   0  0  0  0  0  0  0  0  0  0  0  0
   21.7412   11.9061    2.8516 C   0  0  0  0  0  0  0  0  0  0  0  0
   20.9543   12.8139    1.9085 C   0  0  0  0  0  0  0  0  0  0  0  0
   21.6150   14.0899    1.6900 N   0  0  0  0  0  0  0  0  0  0  0  0
   21.4066   14.8497    0.5585 C   0  0  0  0  0  0  0  0  0  0  0  0
   20.6648   14.5246   -0.3627 O   0  0  0  0  0  0  0  0  0  0  0  0
   22.2357   14.4248    2.3769 H   0  0  0  0  0  0  0  0  0  0  0  0
   22.1239   16.2055    0.5864 C   0  0  0  0  0  0  0  0  0  0  0  0
   22.0473   16.8961   -0.6710 O   0  0  0  0  0  0  0  0  0  0  0  0
   21.2503   18.0873   -0.4757 C   0  0  0  0  0  0  0  0  0  0  0  0
   20.4443   17.8667    0.8042 C   0  0  0  0  0  0  0  0  0  0  0  0
   20.0548   19.0646    1.4688 O   0  0  0  0  0  0  0  0  0  0  0  0
   21.4466   17.0825    1.6377 C   0  0  0  0  0  0  0  0  0  0  0  0
   22.3835   18.0099    2.2167 O   0  0  0  0  0  0  0  0  0  0  0  0
   20.8438   19.5865    1.6833 H   0  0  0  0  0  0  0  0  0  0  0  0
   22.7871   18.5429    1.5139 H   0  0  0  0  0  0  0  0  0  0  0  0
   20.4340   18.3194   -1.6462 N   0  0  0  0  0  0  0  0  0  0  0  0
   20.0758   17.4120   -2.6060 C   0  0  0  0  0  0  0  0  0  0  0  0
   19.2881   17.9452   -3.5184 N   0  0  0  0  0  0  0  0  0  0  0  0
   19.1348   19.2592   -3.1270 C   0  0  0  0  0  0  0  0  0  0  0  0
   18.3975   20.3329   -3.6587 C   0  0  0  0  0  0  0  0  0  0  0  0
   17.6373   20.2347   -4.8153 N   0  0  0  0  0  0  0  0  0  0  0  0
   18.4010   21.5126   -2.9975 N   0  0  0  0  0  0  0  0  0  0  0  0
   19.1462   21.6121   -1.8734 C   0  0  0  0  0  0  0  0  0  0  0  0
   19.9006   20.6659   -1.2794 N   0  0  0  0  0  0  0  0  0  0  0  0
   19.8366   19.5097   -1.9600 C   0  0  0  0  0  0  0  0  0  0  0  0
   17.6144   19.3890   -5.3189 H   0  0  0  0  0  0  0  0  0  0  0  0
   17.1210   21.0106   -5.1324 H   0  0  0  0  0  0  0  0  0  0  0  0
   18.1096    5.7504    6.2851 C   0  0  0  0  0  0  0  0  0  0  0  0
   18.7545    4.5540    6.9954 C   0  0  0  0  0  0  0  0  0  0  0  0
   19.9356    4.9267    7.9006 C   0  0  0  0  0  0  0  0  0  0  0  0
   20.6793    3.7434    8.5264 C   0  0  0  0  0  0  0  0  0  0  0  0
   19.8545    2.9718    9.4476 N   0  0  0  0  0  0  0  0  0  0  0  0
   19.5629    3.5669   10.2230 H   0  0  0  0  0  0  0  0  0  0  0  0
   20.3930    2.1838    9.8076 H   0  0  0  0  0  0  0  0  0  0  0  0
   15.6880    7.6433    9.2665 C   0  0  0  0  0  0  0  0  0  0  0  0
   14.9923    6.5202   10.0353 C   0  0  0  0  0  0  0  0  0  0  0  0
   14.3490    5.5056    9.0868 C   0  0  0  0  0  0  0  0  0  0  0  0
   13.5342    4.4351    9.8275 C   0  0  0  0  0  0  0  0  0  0  0  0
   12.2327    4.0559    9.1170 C   0  0  0  0  0  0  0  0  0  0  0  0
   11.2954    5.2429   11.0251 N   0  0  0  0  0  0  0  0  0  0  0  0
   11.0189    4.4697    9.9242 C   0  0  0  0  0  0  0  0  0  0  0  0
    9.8791    4.1080    9.6460 O   0  0  0  0  0  0  0  0  0  0  0  0
   12.2330    5.4532   11.2390 H   0  0  0  0  0  0  0  0  0  0  0  0
   10.2303    5.7649   11.8924 C   0  0  0  0  0  0  0  0  0  0  0  0
   10.2268    4.6110   14.0615 N   0  0  0  0  0  0  0  0  0  0  0  0
   10.6789    5.7203   13.3798 C   0  0  0  0  0  0  0  0  0  0  0  0
   11.3481    6.5999   13.9137 O   0  0  0  0  0  0  0  0  0  0  0  0
    9.7982    3.8909   13.5447 H   0  0  0  0  0  0  0  0  0  0  0  0
   10.3483    4.4433   15.5113 C   0  0  0  0  0  0  0  0  0  0  0  0
    8.9471    4.2968   16.1478 C   0  0  0  0  0  0  0  0  0  0  0  0
    7.8749    4.3347   15.2954 N   0  0  0  0  0  0  0  0  0  0  0  0
    8.7668    4.0617   17.3386 O   0  0  0  0  0  0  0  0  0  0  0  0
    8.0128    4.5227   14.3389 H   0  0  0  0  0  0  0  0  0  0  0  0
    6.9666    4.1739   15.6395 H   0  0  0  0  0  0  0  0  0  0  0  0
   11.2390    3.2247   15.7973 C   0  0  0  0  0  0  0  0  0  0  0  0
   11.0742    2.0926   14.7778 C   0  0  0  0  0  0  0  0  0  0  0  0
   12.3661    1.2967   14.6069 C   0  0  0  0  0  0  0  0  0  0  0  0
   13.4523    1.9938   15.2613 N   0  0  0  0  0  0  0  0  0  0  0  0
   13.3173    2.2350   16.2062 H   0  0  0  0  0  0  0  0  0  0  0  0
   15.8132    2.0463   15.0947 N   0  0  0  0  0  0  0  0  0  0  0  0
   14.6292    2.3461   14.7093 C   0  0  0  0  0  0  0  0  0  0  0  0
   14.4718    3.0884   13.5949 N   0  0  0  0  0  0  0  0  0  0  0  0
   16.5928    2.3753   14.5915 H   0  0  0  0  0  0  0  0  0  0  0  0
   15.2611    3.4072   13.1003 H   0  0  0  0  0  0  0  0  0  0  0  0
   13.5677    3.3115   13.2757 H   0  0  0  0  0  0  0  0  0  0  0  0
    9.8512    7.1850   11.4429 C   0  0  0  0  0  0  0  0  0  0  0  0
   10.9020    7.8257   10.5307 C   0  0  0  0  0  0  0  0  0  0  0  0
   10.3547    8.1159    9.1305 C   0  0  0  0  0  0  0  0  0  0  0  0
   10.6902    9.4692    8.7168 N   0  0  0  0  0  0  0  0  0  0  0  0
   10.0364   10.1924    8.8540 H   0  0  0  0  0  0  0  0  0  0  0  0
   11.8834    9.7528    8.1472 C   0  0  0  0  0  0  0  0  0  0  0  0
   12.8359   10.4142    8.7002 N   0  0  0  0  0  0  0  0  0  0  0  0
   11.9560    9.2499    6.8993 N   0  0  0  0  0  0  0  0  0  0  0  0
   12.7285   10.7592    9.6160 H   0  0  0  0  0  0  0  0  0  0  0  0
   11.1948    8.7503    6.5248 H   0  0  0  0  0  0  0  0  0  0  0  0
   12.7703    9.3820    6.3619 H   0  0  0  0  0  0  0  0  0  0  0  0
 72 73  2  0
 73 74  1  0
 73 70  1  0
 70 69  1  0
 69 68  1  0
 68 67  1  0
 61 67  1  0
 61 57  1  0
 57 58  1  0
 58 59  2  0
 58 56  1  0
 56 78  1  0
 78 79  1  0
 79 80  1  0
 80 81  1  0
 81 83  1  0
 83 84  2  0
 83 85  1  0
 56 52  1  0
 52 53  1  0
 53 54  2  0
 53 51  1  0
 51 50  1  0
 50 49  1  0
 49 48  1  0
 48 47  1  0
 47  1  1  0
  1  2  1  0
  2  3  2  0
  2  5  1  0
  5 40  1  0
 40 41  1  0
 41 42  1  0
 42 43  1  0
 43 44  1  0
  5  6  1  0
  6  7  1  0
  7  8  2  0
  7 10  1  0
 10 11  1  0
 11 12  1  0
 12 13  1  0
 13 14  1  0
 14 15  1  0
 15 16  1  0
 16 17  2  0
 19 16  1  0
 19 20  1  0
 20 21  1  0
 21 28  1  0
 28 29  1  0
 29 30  2  0
 30 31  1  0
 31 32  2  0
 32 33  1  0
 32 34  1  0
 34 35  2  0
 35 36  1  0
 36 37  2  0
 21 22  1  0
 22 23  1  0
 22 24  1  0
 24 25  1  0
 61 62  1  0
 62 63  1  0
 62 64  2  0
 24 19  1  0
 37 28  1  0
 37 31  1  0
 72 75  1  0
 74 76  1  0
 74 77  1  0
 70 71  1  0
 57 60  1  0
 81 82  1  0
 84 86  1  0
 85 87  1  0
 85 88  1  0
 52 55  1  0
  1  4  1  0
 44 45  1  0
 44 46  1  0
  6  9  1  0
 15 18  1  0
 33 38  1  0
 33 39  1  0
 23 26  1  0
 25 27  1  0
 63 65  1  0
 63 66  1  0
M  END
> <minimizedAffinity>
-6.53546

> <CNNscore>
0.1808333099

> <CNNaffinity>
6.4438309669

> <CNN_VS>
1.1652592421

> <CNNaffinity_variance>
1.2010489702

$$$$



 88 90  0  0  0  0  0  0  0  0999 V2000
   12.8771    3.7550    9.1836 N   0  0  0  0  0  0  0  0  0  0  0  0
   13.1256    4.8171   10.0345 C   0  0  0  0  0  0  0  0  0  0  0  0
   14.2618    5.1810   10.3355 O   0  0  0  0  0  0  0  0  0  0  0  0
   11.9471    3.5508    8.9333 H   0  0  0  0  0  0  0  0  0  0  0  0
   11.8506    5.4021   10.6815 C   0  0  0  0  0  0  0  0  0  0  0  0
   11.5558    4.7787   11.9778 N   0  0  0  0  0  0  0  0  0  0  0  0
   11.5691    5.5278   13.1346 C   0  0  0  0  0  0  0  0  0  0  0  0
   11.9927    6.6765   13.1707 O   0  0  0  0  0  0  0  0  0  0  0  0
   11.3470    3.8176   12.0210 H   0  0  0  0  0  0  0  0  0  0  0  0
   11.0510    4.7820   14.3510 C   0  0  0  0  0  0  0  0  0  0  0  0
    9.7022    5.3021   14.8649 C   0  0  0  0  0  0  0  0  0  0  0  0
    8.6967    4.1982   15.2288 C   0  0  0  0  0  0  0  0  0  0  0  0
    7.2510    4.6513   15.4521 C   0  0  0  0  0  0  0  0  0  0  0  0
    6.8976    5.9953   14.8186 C   0  0  0  0  0  0  0  0  0  0  0  0
    5.5135    6.3709   15.0542 N   0  0  0  0  0  0  0  0  0  0  0  0
    5.0794    7.6783   15.0000 C   0  0  0  0  0  0  0  0  0  0  0  0
    5.8072    8.6367   14.7621 O   0  0  0  0  0  0  0  0  0  0  0  0
    4.8602    5.6638   15.2606 H   0  0  0  0  0  0  0  0  0  0  0  0
    3.5631    7.8316   15.1764 C   0  0  0  0  0  0  0  0  0  0  0  0
    3.1591    9.2040   15.3082 O   0  0  0  0  0  0  0  0  0  0  0  0
    2.3670    9.5471   14.1475 C   0  0  0  0  0  0  0  0  0  0  0  0
    2.6920    8.5069   13.0757 C   0  0  0  0  0  0  0  0  0  0  0  0
    1.6610    8.3113   12.1128 O   0  0  0  0  0  0  0  0  0  0  0  0
    2.8782    7.2650   13.9344 C   0  0  0  0  0  0  0  0  0  0  0  0
    1.5791    6.7353   14.2585 O   0  0  0  0  0  0  0  0  0  0  0  0
    0.8431    8.0493   12.5636 H   0  0  0  0  0  0  0  0  0  0  0  0
    1.0431    7.4269   14.6771 H   0  0  0  0  0  0  0  0  0  0  0  0
    2.6581   10.9059   13.7487 N   0  0  0  0  0  0  0  0  0  0  0  0
    3.4312   11.3188   12.6976 C   0  0  0  0  0  0  0  0  0  0  0  0
    3.4557   12.6322   12.5901 N   0  0  0  0  0  0  0  0  0  0  0  0
    2.6618   13.0849   13.6235 C   0  0  0  0  0  0  0  0  0  0  0  0
    2.2671   14.3729   14.0292 C   0  0  0  0  0  0  0  0  0  0  0  0
    2.6864   15.5326   13.3929 N   0  0  0  0  0  0  0  0  0  0  0  0
    1.4126   14.4916   15.0707 N   0  0  0  0  0  0  0  0  0  0  0  0
    1.0079   13.3628   15.6960 C   0  0  0  0  0  0  0  0  0  0  0  0
    1.3269   12.0845   15.4112 N   0  0  0  0  0  0  0  0  0  0  0  0
    2.1516   12.0243   14.3528 C   0  0  0  0  0  0  0  0  0  0  0  0
    3.3083   15.4790   12.6316 H   0  0  0  0  0  0  0  0  0  0  0  0
    2.3620   16.4089   13.7028 H   0  0  0  0  0  0  0  0  0  0  0  0
   10.6352    5.3598    9.7396 C   0  0  0  0  0  0  0  0  0  0  0  0
    9.8904    6.6961    9.6324 C   0  0  0  0  0  0  0  0  0  0  0  0
    8.3714    6.5815    9.8132 C   0  0  0  0  0  0  0  0  0  0  0  0
    7.8316    7.0905   11.1528 C   0  0  0  0  0  0  0  0  0  0  0  0
    6.5720    7.8124   11.0250 N   0  0  0  0  0  0  0  0  0  0  0  0
    6.7108    8.6378   10.4421 H   0  0  0  0  0  0  0  0  0  0  0  0
    6.2493    8.0992   11.9491 H   0  0  0  0  0  0  0  0  0  0  0  0
   13.9453    2.9344    8.6500 C   0  0  0  0  0  0  0  0  0  0  0  0
   13.6299    1.4415    8.7402 C   0  0  0  0  0  0  0  0  0  0  0  0
   14.1383    0.6853    7.5103 C   0  0  0  0  0  0  0  0  0  0  0  0
   15.5894    1.0403    7.1539 C   0  0  0  0  0  0  0  0  0  0  0  0
   15.8549    1.0908    5.6474 C   0  0  0  0  0  0  0  0  0  0  0  0
   16.2304    3.4444    6.1452 N   0  0  0  0  0  0  0  0  0  0  0  0
   16.4027    2.4391    5.2255 C   0  0  0  0  0  0  0  0  0  0  0  0
   16.9212    2.6341    4.1298 O   0  0  0  0  0  0  0  0  0  0  0  0
   15.7523    3.2495    6.9835 H   0  0  0  0  0  0  0  0  0  0  0  0
   16.7400    4.8028    5.9126 C   0  0  0  0  0  0  0  0  0  0  0  0
   18.7564    4.9287    7.3107 N   0  0  0  0  0  0  0  0  0  0  0  0
   18.2906    4.8200    6.0181 C   0  0  0  0  0  0  0  0  0  0  0  0
   19.0378    4.7715    5.0455 O   0  0  0  0  0  0  0  0  0  0  0  0
   18.1083    4.8434    8.0468 H   0  0  0  0  0  0  0  0  0  0  0  0
   20.1614    5.1637    7.6506 C   0  0  0  0  0  0  0  0  0  0  0  0
   20.2668    6.2340    8.7612 C   0  0  0  0  0  0  0  0  0  0  0  0
   19.5291    7.3759    8.5901 N   0  0  0  0  0  0  0  0  0  0  0  0
   20.8930    6.0674    9.8033 O   0  0  0  0  0  0  0  0  0  0  0  0
   19.0244    7.5156    7.7564 H   0  0  0  0  0  0  0  0  0  0  0  0
   19.5037    8.0567    9.3008 H   0  0  0  0  0  0  0  0  0  0  0  0
   20.7994    3.8320    8.0742 C   0  0  0  0  0  0  0  0  0  0  0  0
   19.7861    2.8030    8.5868 C   0  0  0  0  0  0  0  0  0  0  0  0
   20.2250    2.1953    9.9171 C   0  0  0  0  0  0  0  0  0  0  0  0
   19.8824    0.7895    9.9417 N   0  0  0  0  0  0  0  0  0  0  0  0
   18.9562    0.5643   10.1882 H   0  0  0  0  0  0  0  0  0  0  0  0
   21.9057   -0.2098    9.2263 N   0  0  0  0  0  0  0  0  0  0  0  0
   20.7016   -0.2421    9.6616 C   0  0  0  0  0  0  0  0  0  0  0  0
   20.1301   -1.4359    9.9183 N   0  0  0  0  0  0  0  0  0  0  0  0
   22.3928   -1.0497    9.0632 H   0  0  0  0  0  0  0  0  0  0  0  0
   20.6312   -2.2672    9.7534 H   0  0  0  0  0  0  0  0  0  0  0  0
   19.2118   -1.4764   10.2707 H   0  0  0  0  0  0  0  0  0  0  0  0
   16.2455    5.3107    4.5487 C   0  0  0  0  0  0  0  0  0  0  0  0
   17.0670    6.4878    4.0135 C   0  0  0  0  0  0  0  0  0  0  0  0
   17.3564    6.3591    2.5155 C   0  0  0  0  0  0  0  0  0  0  0  0
   18.0110    5.0935    2.2244 N   0  0  0  0  0  0  0  0  0  0  0  0
   17.5935    4.2536    2.5237 H   0  0  0  0  0  0  0  0  0  0  0  0
   19.1825    5.0487    1.5503 C   0  0  0  0  0  0  0  0  0  0  0  0
   19.3224    4.7096    0.3191 N   0  0  0  0  0  0  0  0  0  0  0  0
   20.2113    5.4077    2.3429 N   0  0  0  0  0  0  0  0  0  0  0  0
   18.5347    4.4559   -0.2142 H   0  0  0  0  0  0  0  0  0  0  0  0
   20.0462    5.6586    3.2805 H   0  0  0  0  0  0  0  0  0  0  0  0
   21.1281    5.4192    1.9844 H   0  0  0  0  0  0  0  0  0  0  0  0
 72 73  2  0
 73 74  1  0
 73 70  1  0
 70 69  1  0
 69 68  1  0
 68 67  1  0
 61 67  1  0
 61 57  1  0
 57 58  1  0
 58 59  2  0
 58 56  1  0
 56 78  1  0
 78 79  1  0
 79 80  1  0
 80 81  1  0
 81 83  1  0
 83 84  2  0
 83 85  1  0
 56 52  1  0
 52 53  1  0
 53 54  2  0
 53 51  1  0
 51 50  1  0
 50 49  1  0
 49 48  1  0
 48 47  1  0
 47  1  1  0
  1  2  1  0
  2  3  2  0
  2  5  1  0
  5 40  1  0
 40 41  1  0
 41 42  1  0
 42 43  1  0
 43 44  1  0
  5  6  1  0
  6  7  1  0
  7  8  2  0
  7 10  1  0
 10 11  1  0
 11 12  1  0
 12 13  1  0
 13 14  1  0
 14 15  1  0
 15 16  1  0
 16 17  2  0
 19 16  1  0
 19 20  1  0
 20 21  1  0
 21 28  1  0
 28 29  1  0
 29 30  2  0
 30 31  1  0
 31 32  2  0
 32 33  1  0
 32 34  1  0
 34 35  2  0
 35 36  1  0
 36 37  2  0
 21 22  1  0
 22 23  1  0
 22 24  1  0
 24 25  1  0
 61 62  1  0
 62 63  1  0
 62 64  2  0
 24 19  1  0
 37 28  1  0
 37 31  1  0
 72 75  1  0
 74 76  1  0
 74 77  1  0
 70 71  1  0
 57 60  1  0
 81 82  1  0
 84 86  1  0
 85 87  1  0
 85 88  1  0
 52 55  1  0
  1  4  1  0
 44 45  1  0
 44 46  1  0
  6  9  1  0
 15 18  1  0
 33 38  1  0
 33 39  1  0
 23 26  1  0
 25 27  1  0
 63 65  1  0
 63 66  1  0
M  END
> <minimizedAffinity>
-7.34711

> <CNNscore>
0.1195663959

> <CNNaffinity>
6.9055709839

> <CNN_VS>
0.8256742358

> <CNNaffinity_variance>
2.5689632893

$$$$



 88 90  0  0  0  0  0  0  0  0999 V2000
   20.1158    4.0936    6.0218 N   0  0  0  0  0  0  0  0  0  0  0  0
   19.8043    4.3213    7.3503 C   0  0  0  0  0  0  0  0  0  0  0  0
   20.1085    5.3573    7.9402 O   0  0  0  0  0  0  0  0  0  0  0  0
   19.7920    3.2705    5.5894 H   0  0  0  0  0  0  0  0  0  0  0  0
   19.1753    3.0994    8.0559 C   0  0  0  0  0  0  0  0  0  0  0  0
   17.8170    3.3810    8.5370 N   0  0  0  0  0  0  0  0  0  0  0  0
   16.8508    2.3983    8.5229 C   0  0  0  0  0  0  0  0  0  0  0  0
   17.0124    1.3239    7.9573 O   0  0  0  0  0  0  0  0  0  0  0  0
   17.5945    4.2795    8.8726 H   0  0  0  0  0  0  0  0  0  0  0  0
   15.5688    2.7920    9.2340 C   0  0  0  0  0  0  0  0  0  0  0  0
   14.3167    2.1054    8.6731 C   0  0  0  0  0  0  0  0  0  0  0  0
   13.4679    2.9951    7.7511 C   0  0  0  0  0  0  0  0  0  0  0  0
   11.9532    2.7797    7.8152 C   0  0  0  0  0  0  0  0  0  0  0  0
   11.1826    3.8751    8.5494 C   0  0  0  0  0  0  0  0  0  0  0  0
   11.8680    4.3237    9.7499 N   0  0  0  0  0  0  0  0  0  0  0  0
   12.2633    5.6316    9.9343 C   0  0  0  0  0  0  0  0  0  0  0  0
   12.0877    6.5266    9.1141 O   0  0  0  0  0  0  0  0  0  0  0  0
   12.0576    3.6679   10.4593 H   0  0  0  0  0  0  0  0  0  0  0  0
   12.8733    5.9017   11.3159 C   0  0  0  0  0  0  0  0  0  0  0  0
   11.9743    6.6055   12.1879 O   0  0  0  0  0  0  0  0  0  0  0  0
   11.6243    5.7179   13.2751 C   0  0  0  0  0  0  0  0  0  0  0  0
   11.9461    4.3008   12.8009 C   0  0  0  0  0  0  0  0  0  0  0  0
   12.2155    3.3757   13.8497 O   0  0  0  0  0  0  0  0  0  0  0  0
   13.1928    4.5578   11.9677 C   0  0  0  0  0  0  0  0  0  0  0  0
   14.3202    4.6709   12.8562 O   0  0  0  0  0  0  0  0  0  0  0  0
   12.9559    3.7008   14.3854 H   0  0  0  0  0  0  0  0  0  0  0  0
   14.1417    5.3557   13.5196 H   0  0  0  0  0  0  0  0  0  0  0  0
   10.2365    5.9129   13.6300 N   0  0  0  0  0  0  0  0  0  0  0  0
    9.2967    6.6405   12.9515 C   0  0  0  0  0  0  0  0  0  0  0  0
    8.1135    6.5770   13.5287 N   0  0  0  0  0  0  0  0  0  0  0  0
    8.3029    5.7717   14.6326 C   0  0  0  0  0  0  0  0  0  0  0  0
    7.4301    5.2999   15.6301 C   0  0  0  0  0  0  0  0  0  0  0  0
    6.0838    5.6321   15.6819 N   0  0  0  0  0  0  0  0  0  0  0  0
    7.9142    4.4562   16.5696 N   0  0  0  0  0  0  0  0  0  0  0  0
    9.2274    4.1363   16.5244 C   0  0  0  0  0  0  0  0  0  0  0  0
   10.1585    4.5339   15.6344 N   0  0  0  0  0  0  0  0  0  0  0  0
    9.6175    5.3438   14.7096 C   0  0  0  0  0  0  0  0  0  0  0  0
    5.7017    6.2439   15.0119 H   0  0  0  0  0  0  0  0  0  0  0  0
    5.5108    5.2559   16.3885 H   0  0  0  0  0  0  0  0  0  0  0  0
   20.0696    2.5348    9.1729 C   0  0  0  0  0  0  0  0  0  0  0  0
   21.5036    2.2317    8.7217 C   0  0  0  0  0  0  0  0  0  0  0  0
   21.8527    0.7379    8.7097 C   0  0  0  0  0  0  0  0  0  0  0  0
   21.5156   -0.0233    9.9950 C   0  0  0  0  0  0  0  0  0  0  0  0
   20.3956   -0.9426    9.8385 N   0  0  0  0  0  0  0  0  0  0  0  0
   19.5570   -0.4177    9.5904 H   0  0  0  0  0  0  0  0  0  0  0  0
   20.2387   -1.4397   10.7152 H   0  0  0  0  0  0  0  0  0  0  0  0
   20.9044    5.0309    5.2481 C   0  0  0  0  0  0  0  0  0  0  0  0
   22.2274    4.4263    4.7783 C   0  0  0  0  0  0  0  0  0  0  0  0
   22.0878    3.7716    3.4018 C   0  0  0  0  0  0  0  0  0  0  0  0
   23.3821    3.8415    2.5780 C   0  0  0  0  0  0  0  0  0  0  0  0
   23.3556    4.9136    1.4860 C   0  0  0  0  0  0  0  0  0  0  0  0
   25.4366    6.1221    1.1157 N   0  0  0  0  0  0  0  0  0  0  0  0
   24.2637    6.0772    1.8287 C   0  0  0  0  0  0  0  0  0  0  0  0
   23.9974    6.8940    2.7059 O   0  0  0  0  0  0  0  0  0  0  0  0
   25.6303    5.4072    0.4671 H   0  0  0  0  0  0  0  0  0  0  0  0
   26.4105    7.2079    1.2942 C   0  0  0  0  0  0  0  0  0  0  0  0
   27.8300    5.2527    1.7403 N   0  0  0  0  0  0  0  0  0  0  0  0
   27.7830    6.6302    1.7394 C   0  0  0  0  0  0  0  0  0  0  0  0
   28.7321    7.3265    2.0874 O   0  0  0  0  0  0  0  0  0  0  0  0
   27.0770    4.7620    1.3385 H   0  0  0  0  0  0  0  0  0  0  0  0
   28.9370    4.4781    2.3054 C   0  0  0  0  0  0  0  0  0  0  0  0
   28.7237    4.2774    3.8234 C   0  0  0  0  0  0  0  0  0  0  0  0
   27.5241    3.7417    4.2127 N   0  0  0  0  0  0  0  0  0  0  0  0
   29.5952    4.4856    4.6618 O   0  0  0  0  0  0  0  0  0  0  0  0
   26.8208    3.5723    3.5449 H   0  0  0  0  0  0  0  0  0  0  0  0
   27.3655    3.5263    5.1601 H   0  0  0  0  0  0  0  0  0  0  0  0
   29.0389    3.1398    1.5581 C   0  0  0  0  0  0  0  0  0  0  0  0
   30.1847    2.2491    2.0503 C   0  0  0  0  0  0  0  0  0  0  0  0
   29.6787    1.1343    2.9630 C   0  0  0  0  0  0  0  0  0  0  0  0
   30.3458    1.2199    4.2444 N   0  0  0  0  0  0  0  0  0  0  0  0
   31.3196    1.3632    4.2271 H   0  0  0  0  0  0  0  0  0  0  0  0
   28.9127    0.2651    5.8689 N   0  0  0  0  0  0  0  0  0  0  0  0
   29.7699    1.1235    5.4580 C   0  0  0  0  0  0  0  0  0  0  0  0
   30.2149    2.0655    6.3137 N   0  0  0  0  0  0  0  0  0  0  0  0
   28.5719    0.3126    6.7913 H   0  0  0  0  0  0  0  0  0  0  0  0
   29.8672    2.0980    7.2342 H   0  0  0  0  0  0  0  0  0  0  0  0
   30.8875    2.7209    6.0181 H   0  0  0  0  0  0  0  0  0  0  0  0
   26.5174    8.0212   -0.0057 C   0  0  0  0  0  0  0  0  0  0  0  0
   26.3721    9.5299    0.2174 C   0  0  0  0  0  0  0  0  0  0  0  0
   25.3525    9.8586    1.3113 C   0  0  0  0  0  0  0  0  0  0  0  0
   26.0230   10.2954    2.5256 N   0  0  0  0  0  0  0  0  0  0  0  0
   25.6073   10.1133    3.3992 H   0  0  0  0  0  0  0  0  0  0  0  0
   27.2069   10.9472    2.4772 C   0  0  0  0  0  0  0  0  0  0  0  0
   27.3831   12.1432    2.0427 N   0  0  0  0  0  0  0  0  0  0  0  0
   28.2050   10.1738    2.9475 N   0  0  0  0  0  0  0  0  0  0  0  0
   26.6167   12.6639    1.7100 H   0  0  0  0  0  0  0  0  0  0  0  0
   28.0127    9.2631    3.2685 H   0  0  0  0  0  0  0  0  0  0  0  0
   29.1266   10.5194    2.9702 H   0  0  0  0  0  0  0  0  0  0  0  0
 72 73  2  0
 73 74  1  0
 73 70  1  0
 70 69  1  0
 69 68  1  0
 68 67  1  0
 61 67  1  0
 61 57  1  0
 57 58  1  0
 58 59  2  0
 58 56  1  0
 56 78  1  0
 78 79  1  0
 79 80  1  0
 80 81  1  0
 81 83  1  0
 83 84  2  0
 83 85  1  0
 56 52  1  0
 52 53  1  0
 53 54  2  0
 53 51  1  0
 51 50  1  0
 50 49  1  0
 49 48  1  0
 48 47  1  0
 47  1  1  0
  1  2  1  0
  2  3  2  0
  2  5  1  0
  5 40  1  0
 40 41  1  0
 41 42  1  0
 42 43  1  0
 43 44  1  0
  5  6  1  0
  6  7  1  0
  7  8  2  0
  7 10  1  0
 10 11  1  0
 11 12  1  0
 12 13  1  0
 13 14  1  0
 14 15  1  0
 15 16  1  0
 16 17  2  0
 19 16  1  0
 19 20  1  0
 20 21  1  0
 21 28  1  0
 28 29  1  0
 29 30  2  0
 30 31  1  0
 31 32  2  0
 32 33  1  0
 32 34  1  0
 34 35  2  0
 35 36  1  0
 36 37  2  0
 21 22  1  0
 22 23  1  0
 22 24  1  0
 24 25  1  0
 61 62  1  0
 62 63  1  0
 62 64  2  0
 24 19  1  0
 37 28  1  0
 37 31  1  0
 72 75  1  0
 74 76  1  0
 74 77  1  0
 70 71  1  0
 57 60  1  0
 81 82  1  0
 84 86  1  0
 85 87  1  0
 85 88  1  0
 52 55  1  0
  1  4  1  0
 44 45  1  0
 44 46  1  0
  6  9  1  0
 15 18  1  0
 33 38  1  0
 33 39  1  0
 23 26  1  0
 25 27  1  0
 63 65  1  0
 63 66  1  0
M  END
> <minimizedAffinity>
-6.84339

> <CNNscore>
0.0909646600

> <CNNaffinity>
6.0841407776

> <CNN_VS>
0.5534418225

> <CNNaffinity_variance>
1.8503265381

$$$$



 88 90  0  0  0  0  0  0  0  0999 V2000
   12.4539    4.7073   11.0760 N   0  0  0  0  0  0  0  0  0  0  0  0
   12.2080    4.4886   12.4197 C   0  0  0  0  0  0  0  0  0  0  0  0
   13.0671    4.0761   13.1981 O   0  0  0  0  0  0  0  0  0  0  0  0
   11.7425    5.0958   10.5172 H   0  0  0  0  0  0  0  0  0  0  0  0
   10.7253    4.6685   12.8141 C   0  0  0  0  0  0  0  0  0  0  0  0
   10.1479    5.8905   12.2404 N   0  0  0  0  0  0  0  0  0  0  0  0
   10.7933    7.1008   12.3755 C   0  0  0  0  0  0  0  0  0  0  0  0
   11.7587    7.2536   13.1136 O   0  0  0  0  0  0  0  0  0  0  0  0
    9.2925    5.8450   11.7551 H   0  0  0  0  0  0  0  0  0  0  0  0
   10.1706    8.2194   11.5598 C   0  0  0  0  0  0  0  0  0  0  0  0
    9.0117    8.9298   12.2713 C   0  0  0  0  0  0  0  0  0  0  0  0
    7.9248    9.4668   11.3267 C   0  0  0  0  0  0  0  0  0  0  0  0
    6.9320   10.4597   11.9380 C   0  0  0  0  0  0  0  0  0  0  0  0
    6.4990   11.5875   11.0034 C   0  0  0  0  0  0  0  0  0  0  0  0
    5.1802   12.1024   11.3321 N   0  0  0  0  0  0  0  0  0  0  0  0
    4.5183   13.0117   10.5348 C   0  0  0  0  0  0  0  0  0  0  0  0
    4.9732   13.4750    9.4940 O   0  0  0  0  0  0  0  0  0  0  0  0
    4.7423   11.7895   12.1565 H   0  0  0  0  0  0  0  0  0  0  0  0
    3.0988   13.3362   11.0182 C   0  0  0  0  0  0  0  0  0  0  0  0
    2.4279   12.1907   11.5675 O   0  0  0  0  0  0  0  0  0  0  0  0
    2.2246   12.4299   12.9795 C   0  0  0  0  0  0  0  0  0  0  0  0
    3.2056   13.5315   13.3801 C   0  0  0  0  0  0  0  0  0  0  0  0
    2.8058   14.2919   14.5160 O   0  0  0  0  0  0  0  0  0  0  0  0
    3.1989   14.3870   12.1221 C   0  0  0  0  0  0  0  0  0  0  0  0
    2.0272   15.2236   12.1453 O   0  0  0  0  0  0  0  0  0  0  0  0
    1.9386   14.6927   14.3478 H   0  0  0  0  0  0  0  0  0  0  0  0
    1.2371   14.6706   12.2497 H   0  0  0  0  0  0  0  0  0  0  0  0
    2.4047   11.1950   13.7093 N   0  0  0  0  0  0  0  0  0  0  0  0
    2.0518   10.9335   15.0055 C   0  0  0  0  0  0  0  0  0  0  0  0
    2.3209    9.6895   15.3479 N   0  0  0  0  0  0  0  0  0  0  0  0
    2.8757    9.1253   14.2178 C   0  0  0  0  0  0  0  0  0  0  0  0
    3.3420    7.8297   13.9292 C   0  0  0  0  0  0  0  0  0  0  0  0
    3.3419    6.7973   14.8564 N   0  0  0  0  0  0  0  0  0  0  0  0
    3.7847    7.5630   12.6795 N   0  0  0  0  0  0  0  0  0  0  0  0
    3.7914    8.5696   11.7764 C   0  0  0  0  0  0  0  0  0  0  0  0
    3.3875    9.8454   11.9379 N   0  0  0  0  0  0  0  0  0  0  0  0
    2.9311   10.0459   13.1850 C   0  0  0  0  0  0  0  0  0  0  0  0
    3.0255    6.9601   15.7743 H   0  0  0  0  0  0  0  0  0  0  0  0
    3.6580    5.9020   14.5962 H   0  0  0  0  0  0  0  0  0  0  0  0
   10.5030    4.5929   14.3343 C   0  0  0  0  0  0  0  0  0  0  0  0
    9.1490    5.1513   14.7888 C   0  0  0  0  0  0  0  0  0  0  0  0
    8.3368    4.1873   15.6631 C   0  0  0  0  0  0  0  0  0  0  0  0
    8.3375    4.5041   17.1612 C   0  0  0  0  0  0  0  0  0  0  0  0
    9.3524    3.7654   17.9018 N   0  0  0  0  0  0  0  0  0  0  0  0
    9.1703    2.7649   17.8226 H   0  0  0  0  0  0  0  0  0  0  0  0
    9.3235    4.0395   18.8839 H   0  0  0  0  0  0  0  0  0  0  0  0
   13.7275    4.3815   10.4671 C   0  0  0  0  0  0  0  0  0  0  0  0
   13.5959    4.0777    8.9748 C   0  0  0  0  0  0  0  0  0  0  0  0
   13.4321    2.5773    8.7199 C   0  0  0  0  0  0  0  0  0  0  0  0
   13.4959    2.2190    7.2278 C   0  0  0  0  0  0  0  0  0  0  0  0
   14.5152    1.1239    6.9043 C   0  0  0  0  0  0  0  0  0  0  0  0
   16.3696    2.6916    7.0825 N   0  0  0  0  0  0  0  0  0  0  0  0
   15.7885    1.7051    6.3240 C   0  0  0  0  0  0  0  0  0  0  0  0
   16.2456    1.3566    5.2390 O   0  0  0  0  0  0  0  0  0  0  0  0
   15.9287    2.9777    7.9149 H   0  0  0  0  0  0  0  0  0  0  0  0
   17.6314    3.3317    6.6859 C   0  0  0  0  0  0  0  0  0  0  0  0
   18.4079    5.6551    6.8736 N   0  0  0  0  0  0  0  0  0  0  0  0
   17.4007    4.8420    6.4005 C   0  0  0  0  0  0  0  0  0  0  0  0
   16.4045    5.2815    5.8338 O   0  0  0  0  0  0  0  0  0  0  0  0
   19.2292    5.2292    7.2105 H   0  0  0  0  0  0  0  0  0  0  0  0
   18.3253    7.1169    6.9035 C   0  0  0  0  0  0  0  0  0  0  0  0
   19.4203    7.6916    7.8312 C   0  0  0  0  0  0  0  0  0  0  0  0
   19.5511    7.1107    9.0653 N   0  0  0  0  0  0  0  0  0  0  0  0
   20.2150    8.5592    7.4824 O   0  0  0  0  0  0  0  0  0  0  0  0
   18.9168    6.4141    9.3511 H   0  0  0  0  0  0  0  0  0  0  0  0
   20.2792    7.3899    9.6662 H   0  0  0  0  0  0  0  0  0  0  0  0
   18.4504    7.6508    5.4684 C   0  0  0  0  0  0  0  0  0  0  0  0
   19.2831    8.9329    5.3622 C   0  0  0  0  0  0  0  0  0  0  0  0
   20.3114    8.8444    4.2369 C   0  0  0  0  0  0  0  0  0  0  0  0
   21.5094    9.5597    4.6208 N   0  0  0  0  0  0  0  0  0  0  0  0
   22.1941    9.0463    5.1075 H   0  0  0  0  0  0  0  0  0  0  0  0
   22.6149   11.3547    3.5437 N   0  0  0  0  0  0  0  0  0  0  0  0
   21.7829   10.8563    4.3802 C   0  0  0  0  0  0  0  0  0  0  0  0
   21.0320   11.6873    5.1307 N   0  0  0  0  0  0  0  0  0  0  0  0
   22.7147   12.3315    3.4713 H   0  0  0  0  0  0  0  0  0  0  0  0
   21.1407   12.6620    5.0446 H   0  0  0  0  0  0  0  0  0  0  0  0
   20.3750   11.3194    5.7650 H   0  0  0  0  0  0  0  0  0  0  0  0
   18.6893    3.1024    7.7771 C   0  0  0  0  0  0  0  0  0  0  0  0
   18.1193    2.4388    9.0348 C   0  0  0  0  0  0  0  0  0  0  0  0
   18.9246    1.2065    9.4557 C   0  0  0  0  0  0  0  0  0  0  0  0
   20.3405    1.5245    9.5507 N   0  0  0  0  0  0  0  0  0  0  0  0
   20.6165    2.4545    9.7188 H   0  0  0  0  0  0  0  0  0  0  0  0
   21.2851    0.5668    9.4125 C   0  0  0  0  0  0  0  0  0  0  0  0
   21.3783   -0.4978   10.1254 N   0  0  0  0  0  0  0  0  0  0  0  0
   22.1399    0.8699    8.4160 N   0  0  0  0  0  0  0  0  0  0  0  0
   20.7251   -0.6692   10.8418 H   0  0  0  0  0  0  0  0  0  0  0  0
   22.0211    1.7007    7.9012 H   0  0  0  0  0  0  0  0  0  0  0  0
   22.8832    0.2607    8.2027 H   0  0  0  0  0  0  0  0  0  0  0  0
 72 73  2  0
 73 74  1  0
 73 70  1  0
 70 69  1  0
 69 68  1  0
 68 67  1  0
 61 67  1  0
 61 57  1  0
 57 58  1  0
 58 59  2  0
 58 56  1  0
 56 78  1  0
 78 79  1  0
 79 80  1  0
 80 81  1  0
 81 83  1  0
 83 84  2  0
 83 85  1  0
 56 52  1  0
 52 53  1  0
 53 54  2  0
 53 51  1  0
 51 50  1  0
 50 49  1  0
 49 48  1  0
 48 47  1  0
 47  1  1  0
  1  2  1  0
  2  3  2  0
  2  5  1  0
  5 40  1  0
 40 41  1  0
 41 42  1  0
 42 43  1  0
 43 44  1  0
  5  6  1  0
  6  7  1  0
  7  8  2  0
  7 10  1  0
 10 11  1  0
 11 12  1  0
 12 13  1  0
 13 14  1  0
 14 15  1  0
 15 16  1  0
 16 17  2  0
 19 16  1  0
 19 20  1  0
 20 21  1  0
 21 28  1  0
 28 29  1  0
 29 30  2  0
 30 31  1  0
 31 32  2  0
 32 33  1  0
 32 34  1  0
 34 35  2  0
 35 36  1  0
 36 37  2  0
 21 22  1  0
 22 23  1  0
 22 24  1  0
 24 25  1  0
 61 62  1  0
 62 63  1  0
 62 64  2  0
 24 19  1  0
 37 28  1  0
 37 31  1  0
 72 75  1  0
 74 76  1  0
 74 77  1  0
 70 71  1  0
 57 60  1  0
 81 82  1  0
 84 86  1  0
 85 87  1  0
 85 88  1  0
 52 55  1  0
  1  4  1  0
 44 45  1  0
 44 46  1  0
  6  9  1  0
 15 18  1  0
 33 38  1  0
 33 39  1  0
 23 26  1  0
 25 27  1  0
 63 65  1  0
 63 66  1  0
M  END
> <minimizedAffinity>
-7.41494

> <CNNscore>
0.0879905894

> <CNNaffinity>
6.8748817444

> <CNN_VS>
0.6049249172

> <CNNaffinity_variance>
2.4138724804

$$$$



 88 90  0  0  0  0  0  0  0  0999 V2000
   17.8306    3.0119    8.6124 N   0  0  0  0  0  0  0  0  0  0  0  0
   18.9935    2.6012    9.2390 C   0  0  0  0  0  0  0  0  0  0  0  0
   19.0033    1.7959   10.1692 O   0  0  0  0  0  0  0  0  0  0  0  0
   17.8933    3.6119    7.8344 H   0  0  0  0  0  0  0  0  0  0  0  0
   20.2532    3.3571    8.7612 C   0  0  0  0  0  0  0  0  0  0  0  0
   20.2497    3.5688    7.3082 N   0  0  0  0  0  0  0  0  0  0  0  0
   19.9306    4.8014    6.7805 C   0  0  0  0  0  0  0  0  0  0  0  0
   19.4689    5.7094    7.4605 O   0  0  0  0  0  0  0  0  0  0  0  0
   20.4771    2.8240    6.7059 H   0  0  0  0  0  0  0  0  0  0  0  0
   20.1675    4.9051    5.2847 C   0  0  0  0  0  0  0  0  0  0  0  0
   21.5728    5.3976    4.9156 C   0  0  0  0  0  0  0  0  0  0  0  0
   22.6745    4.3371    5.0696 C   0  0  0  0  0  0  0  0  0  0  0  0
   23.8804    4.4785    4.1364 C   0  0  0  0  0  0  0  0  0  0  0  0
   23.5572    4.3420    2.6498 C   0  0  0  0  0  0  0  0  0  0  0  0
   24.6935    4.6689    1.8046 N   0  0  0  0  0  0  0  0  0  0  0  0
   24.7320    5.8000    1.0173 C   0  0  0  0  0  0  0  0  0  0  0  0
   23.8236    6.6212    0.9461 O   0  0  0  0  0  0  0  0  0  0  0  0
   25.4660    4.0586    1.7939 H   0  0  0  0  0  0  0  0  0  0  0  0
   26.0684    5.9992    0.2904 C   0  0  0  0  0  0  0  0  0  0  0  0
   26.1170    7.2313   -0.4468 O   0  0  0  0  0  0  0  0  0  0  0  0
   27.1119    8.0799    0.1718 C   0  0  0  0  0  0  0  0  0  0  0  0
   27.3310    7.5360    1.5834 C   0  0  0  0  0  0  0  0  0  0  0  0
   28.6084    7.8346    2.1380 O   0  0  0  0  0  0  0  0  0  0  0  0
   27.1796    6.0424    1.3375 C   0  0  0  0  0  0  0  0  0  0  0  0
   28.4166    5.5410    0.7974 O   0  0  0  0  0  0  0  0  0  0  0  0
   29.3025    7.4846    1.5578 H   0  0  0  0  0  0  0  0  0  0  0  0
   28.6528    6.0487    0.0053 H   0  0  0  0  0  0  0  0  0  0  0  0
   26.6624    9.4536    0.1394 N   0  0  0  0  0  0  0  0  0  0  0  0
   25.3722    9.9078    0.0944 C   0  0  0  0  0  0  0  0  0  0  0  0
   25.3123   11.2242    0.1167 N   0  0  0  0  0  0  0  0  0  0  0  0
   26.6277   11.6356    0.1766 C   0  0  0  0  0  0  0  0  0  0  0  0
   27.2272   12.9061    0.2526 C   0  0  0  0  0  0  0  0  0  0  0  0
   26.5032   14.0899    0.2525 N   0  0  0  0  0  0  0  0  0  0  0  0
   28.5729   12.9829    0.3625 N   0  0  0  0  0  0  0  0  0  0  0  0
   29.2806   11.8305    0.3564 C   0  0  0  0  0  0  0  0  0  0  0  0
   28.8239   10.5649    0.2738 N   0  0  0  0  0  0  0  0  0  0  0  0
   27.4831   10.5470    0.1972 C   0  0  0  0  0  0  0  0  0  0  0  0
   25.5221   14.0668    0.1740 H   0  0  0  0  0  0  0  0  0  0  0  0
   26.9707   14.9528    0.3310 H   0  0  0  0  0  0  0  0  0  0  0  0
   21.5576    2.6954    9.2372 C   0  0  0  0  0  0  0  0  0  0  0  0
   22.2048    1.7821    8.1889 C   0  0  0  0  0  0  0  0  0  0  0  0
   22.1812    0.2930    8.5571 C   0  0  0  0  0  0  0  0  0  0  0  0
   21.6008   -0.0309    9.9367 C   0  0  0  0  0  0  0  0  0  0  0  0
   20.4493   -0.9224    9.8781 N   0  0  0  0  0  0  0  0  0  0  0  0
   19.6991   -0.4745    9.3518 H   0  0  0  0  0  0  0  0  0  0  0  0
   20.1271   -1.1242   10.8246 H   0  0  0  0  0  0  0  0  0  0  0  0
   16.5230    2.5850    9.0676 C   0  0  0  0  0  0  0  0  0  0  0  0
   16.1204    1.2301    8.4858 C   0  0  0  0  0  0  0  0  0  0  0  0
   15.8423    1.3247    6.9836 C   0  0  0  0  0  0  0  0  0  0  0  0
   14.3627    1.0996    6.6391 C   0  0  0  0  0  0  0  0  0  0  0  0
   13.4525    1.0259    7.8674 C   0  0  0  0  0  0  0  0  0  0  0  0
   13.1513    3.2312    8.8546 N   0  0  0  0  0  0  0  0  0  0  0  0
   12.6189    2.2825    8.0163 C   0  0  0  0  0  0  0  0  0  0  0  0
   11.5300    2.4282    7.4680 O   0  0  0  0  0  0  0  0  0  0  0  0
   13.9979    3.0388    9.3188 H   0  0  0  0  0  0  0  0  0  0  0  0
   12.4922    4.5254    9.0777 C   0  0  0  0  0  0  0  0  0  0  0  0
   11.7492    5.9464   10.9391 N   0  0  0  0  0  0  0  0  0  0  0  0
   12.6170    4.9413   10.5700 C   0  0  0  0  0  0  0  0  0  0  0  0
   13.4291    4.4475   11.3468 O   0  0  0  0  0  0  0  0  0  0  0  0
   11.0478    6.2121   10.3014 H   0  0  0  0  0  0  0  0  0  0  0  0
   11.8118    6.6413   12.2267 C   0  0  0  0  0  0  0  0  0  0  0  0
   11.9967    8.1596   12.0019 C   0  0  0  0  0  0  0  0  0  0  0  0
   13.2514    8.5832   11.6499 N   0  0  0  0  0  0  0  0  0  0  0  0
   11.0717    8.9653   12.0342 O   0  0  0  0  0  0  0  0  0  0  0  0
   13.9977    7.9417   11.6221 H   0  0  0  0  0  0  0  0  0  0  0  0
   13.4065    9.5289   11.4247 H   0  0  0  0  0  0  0  0  0  0  0  0
   10.5345    6.3300   13.0216 C   0  0  0  0  0  0  0  0  0  0  0  0
   10.4213    4.8627   13.4489 C   0  0  0  0  0  0  0  0  0  0  0  0
    9.7911    4.7267   14.8331 C   0  0  0  0  0  0  0  0  0  0  0  0
   10.2233    3.4861   15.4401 N   0  0  0  0  0  0  0  0  0  0  0  0
    9.6148    2.7168   15.3550 H   0  0  0  0  0  0  0  0  0  0  0  0
   11.7097    3.7013   17.2699 N   0  0  0  0  0  0  0  0  0  0  0  0
   11.3730    3.2769   16.1094 C   0  0  0  0  0  0  0  0  0  0  0  0
   12.2287    2.4898   15.4266 N   0  0  0  0  0  0  0  0  0  0  0  0
   12.5913    3.4698   17.6421 H   0  0  0  0  0  0  0  0  0  0  0  0
   13.1054    2.2642   15.8134 H   0  0  0  0  0  0  0  0  0  0  0  0
   11.9767    2.1407   14.5413 H   0  0  0  0  0  0  0  0  0  0  0  0
   13.0909    5.5771    8.1301 C   0  0  0  0  0  0  0  0  0  0  0  0
   14.5264    5.2528    7.7045 C   0  0  0  0  0  0  0  0  0  0  0  0
   15.2923    6.4988    7.2515 C   0  0  0  0  0  0  0  0  0  0  0  0
   15.6129    7.3476    8.3881 N   0  0  0  0  0  0  0  0  0  0  0  0
   14.9133    7.5544    9.0491 H   0  0  0  0  0  0  0  0  0  0  0  0
   16.8541    7.8582    8.5539 C   0  0  0  0  0  0  0  0  0  0  0  0
   17.6382    8.2354    7.6087 N   0  0  0  0  0  0  0  0  0  0  0  0
   17.1804    7.9235    9.8596 N   0  0  0  0  0  0  0  0  0  0  0  0
   17.3478    8.1651    6.6707 H   0  0  0  0  0  0  0  0  0  0  0  0
   16.5398    7.6201   10.5428 H   0  0  0  0  0  0  0  0  0  0  0  0
   18.0594    8.2745   10.1303 H   0  0  0  0  0  0  0  0  0  0  0  0
 72 73  2  0
 73 74  1  0
 73 70  1  0
 70 69  1  0
 69 68  1  0
 68 67  1  0
 61 67  1  0
 61 57  1  0
 57 58  1  0
 58 59  2  0
 58 56  1  0
 56 78  1  0
 78 79  1  0
 79 80  1  0
 80 81  1  0
 81 83  1  0
 83 84  2  0
 83 85  1  0
 56 52  1  0
 52 53  1  0
 53 54  2  0
 53 51  1  0
 51 50  1  0
 50 49  1  0
 49 48  1  0
 48 47  1  0
 47  1  1  0
  1  2  1  0
  2  3  2  0
  2  5  1  0
  5 40  1  0
 40 41  1  0
 41 42  1  0
 42 43  1  0
 43 44  1  0
  5  6  1  0
  6  7  1  0
  7  8  2  0
  7 10  1  0
 10 11  1  0
 11 12  1  0
 12 13  1  0
 13 14  1  0
 14 15  1  0
 15 16  1  0
 16 17  2  0
 19 16  1  0
 19 20  1  0
 20 21  1  0
 21 28  1  0
 28 29  1  0
 29 30  2  0
 30 31  1  0
 31 32  2  0
 32 33  1  0
 32 34  1  0
 34 35  2  0
 35 36  1  0
 36 37  2  0
 21 22  1  0
 22 23  1  0
 22 24  1  0
 24 25  1  0
 61 62  1  0
 62 63  1  0
 62 64  2  0
 24 19  1  0
 37 28  1  0
 37 31  1  0
 72 75  1  0
 74 76  1  0
 74 77  1  0
 70 71  1  0
 57 60  1  0
 81 82  1  0
 84 86  1  0
 85 87  1  0
 85 88  1  0
 52 55  1  0
  1  4  1  0
 44 45  1  0
 44 46  1  0
  6  9  1  0
 15 18  1  0
 33 38  1  0
 33 39  1  0
 23 26  1  0
 25 27  1  0
 63 65  1  0
 63 66  1  0
M  END
> <minimizedAffinity>
-7.12490

> <CNNscore>
0.0811406970

> <CNNaffinity>
6.1685538292

> <CNN_VS>
0.5005207658

> <CNNaffinity_variance>
4.1231818199

$$$$
