


 34 36  0  0  0  0  0  0  0  0999 V2000
   37.9053    6.7850   20.5341 C   0  0  0  0  0  0  0  0  0  0  0  0
   38.0682    7.3350   19.1183 C   0  0  0  0  0  0  0  0  0  0  0  0
   38.6863    8.6195   19.0978 O   0  0  0  0  0  0  0  0  0  0  0  0
   36.6306    7.3809   18.6216 C   0  0  0  0  0  0  0  0  0  0  0  0
   36.0176    6.1690   19.1246 O   0  0  0  0  0  0  0  0  0  0  0  0
   36.6202    5.9431   20.4287 C   0  0  0  0  0  0  0  0  0  0  0  0
   38.1652    9.2377   19.6337 H   0  0  0  0  0  0  0  0  0  0  0  0
   36.8331    4.5276   20.6247 N   0  0  0  0  0  0  0  0  0  0  0  0
   36.1297    3.7349   21.4967 C   0  0  0  0  0  0  0  0  0  0  0  0
   36.5220    2.4815   21.4467 N   0  0  0  0  0  0  0  0  0  0  0  0
   37.5299    2.4672   20.5011 C   0  0  0  0  0  0  0  0  0  0  0  0
   38.3288    1.4382   19.9831 C   0  0  0  0  0  0  0  0  0  0  0  0
   38.2289    0.1194   20.4021 N   0  0  0  0  0  0  0  0  0  0  0  0
   39.2252    1.7423   19.0158 N   0  0  0  0  0  0  0  0  0  0  0  0
   39.3329    3.0281   18.6151 C   0  0  0  0  0  0  0  0  0  0  0  0
   38.6547    4.1014   19.0698 N   0  0  0  0  0  0  0  0  0  0  0  0
   37.7496    3.7366   19.9938 C   0  0  0  0  0  0  0  0  0  0  0  0
   37.5842   -0.1265   21.1043 H   0  0  0  0  0  0  0  0  0  0  0  0
   38.8027   -0.5706   19.9972 H   0  0  0  0  0  0  0  0  0  0  0  0
   36.9880    7.5741   22.5950 C   0  0  0  0  0  0  0  0  0  0  0  0
   37.7293    7.9126   21.4260 O   0  0  0  0  0  0  0  0  0  0  0  0
   36.4940    7.4555   17.1014 C   0  0  0  0  0  0  0  0  0  0  0  0
   37.0299    6.2855   16.5027 O   0  0  0  0  0  0  0  0  0  0  0  0
   37.1173    6.1258   14.9089 P   0  0  0  0  0  0  0  0  0  0  0  0
   36.4418    7.2429   14.1790 O   0  0  0  0  0  0  0  0  0  0  0  0
   38.6927    6.0002   14.6648 O   0  0  0  0  0  0  0  0  0  0  0  0
   39.1121    6.8627   14.8096 H   0  0  0  0  0  0  0  0  0  0  0  0
   36.5614    4.6622   14.6419 O   0  0  0  0  0  0  0  0  0  0  0  0
   35.9617    4.2369   13.2399 P   0  0  0  0  0  0  0  0  0  0  0  0
   36.8601    4.1678   12.0549 O   0  0  0  0  0  0  0  0  0  0  0  0
   34.6909    5.1744   13.0264 O   0  0  0  0  0  0  0  0  0  0  0  0
   35.2530    2.8353   13.5304 O   0  0  0  0  0  0  0  0  0  0  0  0
   34.9848    6.0792   12.8371 H   0  0  0  0  0  0  0  0  0  0  0  0
   35.9291    2.1565   13.6823 H   0  0  0  0  0  0  0  0  0  0  0  0
 20 21  1  0
  1 21  1  0
  1  2  1  0
  2  3  1  0
  2  4  1  0
  4 22  1  0
 22 23  1  0
 23 24  1  0
 24 25  2  0
 24 26  1  0
 24 28  1  0
 28 29  1  0
 29 30  2  0
 29 31  1  0
 29 32  1  0
  4  5  1  0
  5  6  1  0
  6  8  1  0
  8  9  1  0
  9 10  2  0
 10 11  1  0
 11 12  2  0
 12 13  1  0
 12 14  1  0
 14 15  2  0
 15 16  1  0
 16 17  2  0
  6  1  1  0
 17  8  1  0
 17 11  1  0
  3  7  1  0
 26 27  1  0
 31 33  1  0
 32 34  1  0
 13 18  1  0
 13 19  1  0
M  END
> <minimizedAffinity>
-7.24216

> <CNNscore>
0.9356160760

> <CNNaffinity>
5.2346968651

> <CNN_VS>
4.8976664543

> <CNNaffinity_variance>
0.4670314491

$$$$



 34 36  0  0  0  0  0  0  0  0999 V2000
   39.0287    7.0774   19.6275 C   0  0  0  0  0  0  0  0  0  0  0  0
   39.5855    7.5652   18.2912 C   0  0  0  0  0  0  0  0  0  0  0  0
   40.2950    8.7960   18.4104 O   0  0  0  0  0  0  0  0  0  0  0  0
   38.3265    7.7068   17.4484 C   0  0  0  0  0  0  0  0  0  0  0  0
   37.5076    6.5641   17.7966 O   0  0  0  0  0  0  0  0  0  0  0  0
   37.7445    6.3356   19.2130 C   0  0  0  0  0  0  0  0  0  0  0  0
   39.7106    9.4707   18.7901 H   0  0  0  0  0  0  0  0  0  0  0  0
   37.7818    4.9152   19.4744 N   0  0  0  0  0  0  0  0  0  0  0  0
   38.6133    4.0177   18.8525 C   0  0  0  0  0  0  0  0  0  0  0  0
   38.4455    2.7961   19.3072 N   0  0  0  0  0  0  0  0  0  0  0  0
   37.4548    2.9113   20.2641 C   0  0  0  0  0  0  0  0  0  0  0  0
   36.8471    1.9785   21.1162 C   0  0  0  0  0  0  0  0  0  0  0  0
   37.1757    0.6306   21.1192 N   0  0  0  0  0  0  0  0  0  0  0  0
   35.9107    2.4168   21.9895 N   0  0  0  0  0  0  0  0  0  0  0  0
   35.5802    3.7268   21.9797 C   0  0  0  0  0  0  0  0  0  0  0  0
   36.0612    4.7008   21.1807 N   0  0  0  0  0  0  0  0  0  0  0  0
   37.0168    4.2207   20.3666 C   0  0  0  0  0  0  0  0  0  0  0  0
   37.8540    0.2879   20.4932 H   0  0  0  0  0  0  0  0  0  0  0  0
   36.7307    0.0168   21.7472 H   0  0  0  0  0  0  0  0  0  0  0  0
   39.4754    8.2750   21.6468 C   0  0  0  0  0  0  0  0  0  0  0  0
   38.7312    8.2446   20.4319 O   0  0  0  0  0  0  0  0  0  0  0  0
   38.5804    7.7409   15.9418 C   0  0  0  0  0  0  0  0  0  0  0  0
   38.7622    6.4238   15.4451 O   0  0  0  0  0  0  0  0  0  0  0  0
   38.3002    6.0168   13.9638 P   0  0  0  0  0  0  0  0  0  0  0  0
   38.1115    7.2024   13.0718 O   0  0  0  0  0  0  0  0  0  0  0  0
   39.4483    4.9974   13.5167 O   0  0  0  0  0  0  0  0  0  0  0  0
   40.2688    5.4873   13.3503 H   0  0  0  0  0  0  0  0  0  0  0  0
   37.0287    5.0952   14.2014 O   0  0  0  0  0  0  0  0  0  0  0  0
   36.6423    3.9279   13.2042 P   0  0  0  0  0  0  0  0  0  0  0  0
   36.7516    4.1580   11.7375 O   0  0  0  0  0  0  0  0  0  0  0  0
   35.1986    3.4400   13.6702 O   0  0  0  0  0  0  0  0  0  0  0  0
   37.5416    2.6971   13.6809 O   0  0  0  0  0  0  0  0  0  0  0  0
   34.5391    4.1117   13.4360 H   0  0  0  0  0  0  0  0  0  0  0  0
   38.4691    2.8670   13.4533 H   0  0  0  0  0  0  0  0  0  0  0  0
 20 21  1  0
  1 21  1  0
  1  2  1  0
  2  3  1  0
  2  4  1  0
  4 22  1  0
 22 23  1  0
 23 24  1  0
 24 25  2  0
 24 26  1  0
 24 28  1  0
 28 29  1  0
 29 30  2  0
 29 31  1  0
 29 32  1  0
  4  5  1  0
  5  6  1  0
  6  8  1  0
  8  9  1  0
  9 10  2  0
 10 11  1  0
 11 12  2  0
 12 13  1  0
 12 14  1  0
 14 15  2  0
 15 16  1  0
 16 17  2  0
  6  1  1  0
 17  8  1  0
 17 11  1  0
  3  7  1  0
 26 27  1  0
 31 33  1  0
 32 34  1  0
 13 18  1  0
 13 19  1  0
M  END
> <minimizedAffinity>
-6.06967

> <CNNscore>
0.9314795732

> <CNNaffinity>
5.0723662376

> <CNN_VS>
4.7248053551

> <CNNaffinity_variance>
0.2417059094

$$$$



 34 36  0  0  0  0  0  0  0  0999 V2000
   38.6039    6.4443   17.9902 C   0  0  0  0  0  0  0  0  0  0  0  0
   38.3142    5.9096   16.5887 C   0  0  0  0  0  0  0  0  0  0  0  0
   39.4171    6.0755   15.7007 O   0  0  0  0  0  0  0  0  0  0  0  0
   37.1087    6.7380   16.1693 C   0  0  0  0  0  0  0  0  0  0  0  0
   36.2857    6.8368   17.3569 O   0  0  0  0  0  0  0  0  0  0  0  0
   37.2193    6.9184   18.4688 C   0  0  0  0  0  0  0  0  0  0  0  0
   39.6550    7.0147   15.6527 H   0  0  0  0  0  0  0  0  0  0  0  0
   36.7023    6.1688   19.5906 N   0  0  0  0  0  0  0  0  0  0  0  0
   35.7575    6.6217   20.4770 C   0  0  0  0  0  0  0  0  0  0  0  0
   35.4597    5.7168   21.3824 N   0  0  0  0  0  0  0  0  0  0  0  0
   36.2545    4.6308   21.0672 C   0  0  0  0  0  0  0  0  0  0  0  0
   36.3874    3.3567   21.6365 C   0  0  0  0  0  0  0  0  0  0  0  0
   35.6654    2.9459   22.7477 N   0  0  0  0  0  0  0  0  0  0  0  0
   37.2453    2.4805   21.0638 N   0  0  0  0  0  0  0  0  0  0  0  0
   37.9585    2.8827   19.9891 C   0  0  0  0  0  0  0  0  0  0  0  0
   37.9475    4.0890   19.3865 N   0  0  0  0  0  0  0  0  0  0  0  0
   37.0485    4.9028   19.9660 C   0  0  0  0  0  0  0  0  0  0  0  0
   35.0351    3.5652   23.1818 H   0  0  0  0  0  0  0  0  0  0  0  0
   35.7833    2.0350   23.1022 H   0  0  0  0  0  0  0  0  0  0  0  0
   39.3360    8.5474   18.8576 C   0  0  0  0  0  0  0  0  0  0  0  0
   39.5269    7.5523   17.8555 O   0  0  0  0  0  0  0  0  0  0  0  0
   36.3072    6.1394   15.0140 C   0  0  0  0  0  0  0  0  0  0  0  0
   36.9282    4.9502   14.5505 O   0  0  0  0  0  0  0  0  0  0  0  0
   36.3455    4.1354   13.2975 P   0  0  0  0  0  0  0  0  0  0  0  0
   35.7706    2.8108   13.6873 O   0  0  0  0  0  0  0  0  0  0  0  0
   35.3071    5.1756   12.6676 O   0  0  0  0  0  0  0  0  0  0  0  0
   34.5316    5.2486   13.2457 H   0  0  0  0  0  0  0  0  0  0  0  0
   37.5518    4.1117   12.2646 O   0  0  0  0  0  0  0  0  0  0  0  0
   38.4650    5.3804   12.0142 P   0  0  0  0  0  0  0  0  0  0  0  0
   37.8425    6.7325   11.9946 O   0  0  0  0  0  0  0  0  0  0  0  0
   39.3016    5.0412   10.7010 O   0  0  0  0  0  0  0  0  0  0  0  0
   39.6019    5.2661   13.1302 O   0  0  0  0  0  0  0  0  0  0  0  0
   38.7174    5.0760    9.9275 H   0  0  0  0  0  0  0  0  0  0  0  0
   39.2195    5.4535   14.0017 H   0  0  0  0  0  0  0  0  0  0  0  0
 20 21  1  0
  1 21  1  0
  1  2  1  0
  2  3  1  0
  2  4  1  0
  4 22  1  0
 22 23  1  0
 23 24  1  0
 24 25  2  0
 24 26  1  0
 24 28  1  0
 28 29  1  0
 29 30  2  0
 29 31  1  0
 29 32  1  0
  4  5  1  0
  5  6  1  0
  6  8  1  0
  8  9  1  0
  9 10  2  0
 10 11  1  0
 11 12  2  0
 12 13  1  0
 12 14  1  0
 14 15  2  0
 15 16  1  0
 16 17  2  0
  6  1  1  0
 17  8  1  0
 17 11  1  0
  3  7  1  0
 26 27  1  0
 31 33  1  0
 32 34  1  0
 13 18  1  0
 13 19  1  0
M  END
> <minimizedAffinity>
-7.22308

> <CNNscore>
0.9034696817

> <CNNaffinity>
5.0784916878

> <CNN_VS>
4.5882630348

> <CNNaffinity_variance>
0.2538550794

$$$$



 34 36  0  0  0  0  0  0  0  0999 V2000
   38.5963    7.2289   18.0885 C   0  0  0  0  0  0  0  0  0  0  0  0
   39.3746    6.3802   17.0846 C   0  0  0  0  0  0  0  0  0  0  0  0
   40.4467    7.0970   16.4769 O   0  0  0  0  0  0  0  0  0  0  0  0
   38.2971    5.9974   16.0806 C   0  0  0  0  0  0  0  0  0  0  0  0
   37.1200    5.7184   16.8768 O   0  0  0  0  0  0  0  0  0  0  0  0
   37.1689    6.6608   17.9832 C   0  0  0  0  0  0  0  0  0  0  0  0
   40.0987    7.8894   16.0390 H   0  0  0  0  0  0  0  0  0  0  0  0
   36.7085    6.0142   19.1904 N   0  0  0  0  0  0  0  0  0  0  0  0
   35.7910    6.5364   20.0672 C   0  0  0  0  0  0  0  0  0  0  0  0
   35.5438    5.7176   21.0651 N   0  0  0  0  0  0  0  0  0  0  0  0
   36.3444    4.6174   20.8221 C   0  0  0  0  0  0  0  0  0  0  0  0
   36.5209    3.4048   21.5032 C   0  0  0  0  0  0  0  0  0  0  0  0
   35.8494    3.0917   22.6762 N   0  0  0  0  0  0  0  0  0  0  0  0
   37.3710    2.4899   20.9818 N   0  0  0  0  0  0  0  0  0  0  0  0
   38.0353    2.7978   19.8463 C   0  0  0  0  0  0  0  0  0  0  0  0
   37.9804    3.9413   19.1336 N   0  0  0  0  0  0  0  0  0  0  0  0
   37.0906    4.7943   19.6694 C   0  0  0  0  0  0  0  0  0  0  0  0
   35.2258    3.7409   23.0748 H   0  0  0  0  0  0  0  0  0  0  0  0
   35.9965    2.2202   23.1100 H   0  0  0  0  0  0  0  0  0  0  0  0
   37.5274    9.3663   18.0641 C   0  0  0  0  0  0  0  0  0  0  0  0
   38.6544    8.6046   17.6392 O   0  0  0  0  0  0  0  0  0  0  0  0
   38.6499    4.7915   15.2107 C   0  0  0  0  0  0  0  0  0  0  0  0
   37.4796    4.2649   14.6043 O   0  0  0  0  0  0  0  0  0  0  0  0
   37.0617    4.6618   13.1073 P   0  0  0  0  0  0  0  0  0  0  0  0
   35.6845    5.2394   13.0264 O   0  0  0  0  0  0  0  0  0  0  0  0
   38.2451    5.6457   12.6725 O   0  0  0  0  0  0  0  0  0  0  0  0
   38.1539    6.4889   13.1433 H   0  0  0  0  0  0  0  0  0  0  0  0
   37.3278    3.3364   12.2737 O   0  0  0  0  0  0  0  0  0  0  0  0
   36.7252    1.9385   12.7081 P   0  0  0  0  0  0  0  0  0  0  0  0
   36.5222    0.8822   11.6790 O   0  0  0  0  0  0  0  0  0  0  0  0
   35.4086    2.2889   13.5347 O   0  0  0  0  0  0  0  0  0  0  0  0
   37.6919    1.4472   13.8808 O   0  0  0  0  0  0  0  0  0  0  0  0
   34.7218    2.6082   12.9287 H   0  0  0  0  0  0  0  0  0  0  0  0
   38.5514    1.1965   13.5076 H   0  0  0  0  0  0  0  0  0  0  0  0
 20 21  1  0
  1 21  1  0
  1  2  1  0
  2  3  1  0
  2  4  1  0
  4 22  1  0
 22 23  1  0
 23 24  1  0
 24 25  2  0
 24 26  1  0
 24 28  1  0
 28 29  1  0
 29 30  2  0
 29 31  1  0
 29 32  1  0
  4  5  1  0
  5  6  1  0
  6  8  1  0
  8  9  1  0
  9 10  2  0
 10 11  1  0
 11 12  2  0
 12 13  1  0
 12 14  1  0
 14 15  2  0
 15 16  1  0
 16 17  2  0
  6  1  1  0
 17  8  1  0
 17 11  1  0
  3  7  1  0
 26 27  1  0
 31 33  1  0
 32 34  1  0
 13 18  1  0
 13 19  1  0
M  END
> <minimizedAffinity>
-7.46324

> <CNNscore>
0.8946934938

> <CNNaffinity>
4.8614163399

> <CNN_VS>
4.3494777679

> <CNNaffinity_variance>
0.2844061852

$$$$



 34 36  0  0  0  0  0  0  0  0999 V2000
   39.7024    5.5351   17.4618 C   0  0  0  0  0  0  0  0  0  0  0  0
   39.3470    5.2159   16.0107 C   0  0  0  0  0  0  0  0  0  0  0  0
   40.4096    5.5144   15.1085 O   0  0  0  0  0  0  0  0  0  0  0  0
   38.1284    6.0962   15.7750 C   0  0  0  0  0  0  0  0  0  0  0  0
   37.3602    6.0150   17.0001 O   0  0  0  0  0  0  0  0  0  0  0  0
   38.3433    5.9304   18.0683 C   0  0  0  0  0  0  0  0  0  0  0  0
   40.6503    6.4504   15.1907 H   0  0  0  0  0  0  0  0  0  0  0  0
   37.8733    5.0206   19.0875 N   0  0  0  0  0  0  0  0  0  0  0  0
   38.2989    3.7260   19.2499 C   0  0  0  0  0  0  0  0  0  0  0  0
   37.7172    3.1426   20.2739 N   0  0  0  0  0  0  0  0  0  0  0  0
   36.8726    4.1058   20.7928 C   0  0  0  0  0  0  0  0  0  0  0  0
   36.0010    4.1100   21.8908 C   0  0  0  0  0  0  0  0  0  0  0  0
   35.8187    3.0095   22.7158 N   0  0  0  0  0  0  0  0  0  0  0  0
   35.3208    5.2462   22.1701 N   0  0  0  0  0  0  0  0  0  0  0  0
   35.4874    6.3151   21.3607 C   0  0  0  0  0  0  0  0  0  0  0  0
   36.2580    6.4126   20.2583 N   0  0  0  0  0  0  0  0  0  0  0  0
   36.9431    5.2745   20.0538 C   0  0  0  0  0  0  0  0  0  0  0  0
   36.3024    2.1718   22.5330 H   0  0  0  0  0  0  0  0  0  0  0  0
   35.2057    3.0664   23.4840 H   0  0  0  0  0  0  0  0  0  0  0  0
   40.5525    7.4297   18.6448 C   0  0  0  0  0  0  0  0  0  0  0  0
   40.6245    6.6520   17.4527 O   0  0  0  0  0  0  0  0  0  0  0  0
   37.2724    5.6762   14.5807 C   0  0  0  0  0  0  0  0  0  0  0  0
   37.9578    5.9450   13.3673 O   0  0  0  0  0  0  0  0  0  0  0  0
   38.1325    4.8194   12.2377 P   0  0  0  0  0  0  0  0  0  0  0  0
   38.4928    5.3915   10.9037 O   0  0  0  0  0  0  0  0  0  0  0  0
   39.2270    3.8513   12.8876 O   0  0  0  0  0  0  0  0  0  0  0  0
   40.0923    4.2895   12.8786 H   0  0  0  0  0  0  0  0  0  0  0  0
   36.7804    3.9897   12.3147 O   0  0  0  0  0  0  0  0  0  0  0  0
   36.7480    2.4848   12.8050 P   0  0  0  0  0  0  0  0  0  0  0  0
   37.0405    1.3963   11.8324 O   0  0  0  0  0  0  0  0  0  0  0  0
   35.3503    2.3178   13.5519 O   0  0  0  0  0  0  0  0  0  0  0  0
   37.7541    2.4593   14.0452 O   0  0  0  0  0  0  0  0  0  0  0  0
   34.6328    2.3171   12.8991 H   0  0  0  0  0  0  0  0  0  0  0  0
   38.6647    2.5544   13.7248 H   0  0  0  0  0  0  0  0  0  0  0  0
 20 21  1  0
  1 21  1  0
  1  2  1  0
  2  3  1  0
  2  4  1  0
  4 22  1  0
 22 23  1  0
 23 24  1  0
 24 25  2  0
 24 26  1  0
 24 28  1  0
 28 29  1  0
 29 30  2  0
 29 31  1  0
 29 32  1  0
  4  5  1  0
  5  6  1  0
  6  8  1  0
  8  9  1  0
  9 10  2  0
 10 11  1  0
 11 12  2  0
 12 13  1  0
 12 14  1  0
 14 15  2  0
 15 16  1  0
 16 17  2  0
  6  1  1  0
 17  8  1  0
 17 11  1  0
  3  7  1  0
 26 27  1  0
 31 33  1  0
 32 34  1  0
 13 18  1  0
 13 19  1  0
M  END
> <minimizedAffinity>
-7.04950

> <CNNscore>
0.8916282654

> <CNNaffinity>
4.4748530388

> <CNN_VS>
3.9899053574

> <CNNaffinity_variance>
0.6374388337

$$$$



 34 36  0  0  0  0  0  0  0  0999 V2000
   40.8585    2.6998   17.8090 C   0  0  0  0  0  0  0  0  0  0  0  0
   40.6034    2.0260   16.4619 C   0  0  0  0  0  0  0  0  0  0  0  0
   41.8098    1.6846   15.7834 O   0  0  0  0  0  0  0  0  0  0  0  0
   39.8047    3.0853   15.7166 C   0  0  0  0  0  0  0  0  0  0  0  0
   38.9058    3.6460   16.7041 O   0  0  0  0  0  0  0  0  0  0  0  0
   39.6540    3.6484   17.9511 C   0  0  0  0  0  0  0  0  0  0  0  0
   42.3464    2.4827   15.6566 H   0  0  0  0  0  0  0  0  0  0  0  0
   38.7724    3.3112   19.0449 N   0  0  0  0  0  0  0  0  0  0  0  0
   38.7744    2.1186   19.7241 C   0  0  0  0  0  0  0  0  0  0  0  0
   37.8802    2.1004   20.6871 N   0  0  0  0  0  0  0  0  0  0  0  0
   37.2694    3.3385   20.6218 C   0  0  0  0  0  0  0  0  0  0  0  0
   36.2573    3.9374   21.3849 C   0  0  0  0  0  0  0  0  0  0  0  0
   35.6262    3.2957   22.4408 N   0  0  0  0  0  0  0  0  0  0  0  0
   35.8928    5.2070   21.0901 N   0  0  0  0  0  0  0  0  0  0  0  0
   36.4973    5.8293   20.0544 C   0  0  0  0  0  0  0  0  0  0  0  0
   37.4441    5.3410   19.2275 N   0  0  0  0  0  0  0  0  0  0  0  0
   37.7996    4.0972   19.5921 C   0  0  0  0  0  0  0  0  0  0  0  0
   35.8742    2.3721   22.6744 H   0  0  0  0  0  0  0  0  0  0  0  0
   34.9305    3.7641   22.9564 H   0  0  0  0  0  0  0  0  0  0  0  0
   42.0666    4.6733   18.4067 C   0  0  0  0  0  0  0  0  0  0  0  0
   42.1028    3.4338   17.7045 O   0  0  0  0  0  0  0  0  0  0  0  0
   39.0165    2.5513   14.5211 C   0  0  0  0  0  0  0  0  0  0  0  0
   38.7774    3.5926   13.5867 O   0  0  0  0  0  0  0  0  0  0  0  0
   37.3336    3.8038   12.9203 P   0  0  0  0  0  0  0  0  0  0  0  0
   36.8133    2.5640   12.2652 O   0  0  0  0  0  0  0  0  0  0  0  0
   36.4666    4.3457   14.1499 O   0  0  0  0  0  0  0  0  0  0  0  0
   36.3026    3.6214   14.7740 H   0  0  0  0  0  0  0  0  0  0  0  0
   37.5271    5.0743   11.9872 O   0  0  0  0  0  0  0  0  0  0  0  0
   38.4014    6.3162   12.4340 P   0  0  0  0  0  0  0  0  0  0  0  0
   38.1777    6.9180   13.7771 O   0  0  0  0  0  0  0  0  0  0  0  0
   38.2866    7.3614   11.2365 O   0  0  0  0  0  0  0  0  0  0  0  0
   39.9072    5.8163   12.2504 O   0  0  0  0  0  0  0  0  0  0  0  0
   37.3982    7.7507   11.2312 H   0  0  0  0  0  0  0  0  0  0  0  0
   40.1151    5.1590   12.9328 H   0  0  0  0  0  0  0  0  0  0  0  0
 20 21  1  0
  1 21  1  0
  1  2  1  0
  2  3  1  0
  2  4  1  0
  4 22  1  0
 22 23  1  0
 23 24  1  0
 24 25  2  0
 24 26  1  0
 24 28  1  0
 28 29  1  0
 29 30  2  0
 29 31  1  0
 29 32  1  0
  4  5  1  0
  5  6  1  0
  6  8  1  0
  8  9  1  0
  9 10  2  0
 10 11  1  0
 11 12  2  0
 12 13  1  0
 12 14  1  0
 14 15  2  0
 15 16  1  0
 16 17  2  0
  6  1  1  0
 17  8  1  0
 17 11  1  0
  3  7  1  0
 26 27  1  0
 31 33  1  0
 32 34  1  0
 13 18  1  0
 13 19  1  0
M  END
> <minimizedAffinity>
-6.43902

> <CNNscore>
0.8873182535

> <CNNaffinity>
4.8810791969

> <CNN_VS>
4.3310709000

> <CNNaffinity_variance>
0.1029649153

$$$$



 34 36  0  0  0  0  0  0  0  0999 V2000
   40.1116    5.3258   17.6886 C   0  0  0  0  0  0  0  0  0  0  0  0
   40.4770    4.5251   16.4399 C   0  0  0  0  0  0  0  0  0  0  0  0
   41.6430    5.0261   15.7902 O   0  0  0  0  0  0  0  0  0  0  0  0
   39.2301    4.6779   15.5813 C   0  0  0  0  0  0  0  0  0  0  0  0
   38.1196    4.5767   16.5054 O   0  0  0  0  0  0  0  0  0  0  0  0
   38.5764    5.2132   17.7305 C   0  0  0  0  0  0  0  0  0  0  0  0
   41.5079    5.9578   15.5567 H   0  0  0  0  0  0  0  0  0  0  0  0
   38.0766    4.4814   18.8715 N   0  0  0  0  0  0  0  0  0  0  0  0
   38.5190    3.2465   19.2752 C   0  0  0  0  0  0  0  0  0  0  0  0
   37.9012    2.8338   20.3593 N   0  0  0  0  0  0  0  0  0  0  0  0
   37.0148    3.8490   20.6656 C   0  0  0  0  0  0  0  0  0  0  0  0
   36.0927    4.0197   21.7077 C   0  0  0  0  0  0  0  0  0  0  0  0
   35.8931    3.0743   22.7033 N   0  0  0  0  0  0  0  0  0  0  0  0
   35.3784    5.1682   21.7553 N   0  0  0  0  0  0  0  0  0  0  0  0
   35.5622    6.0849   20.7799 C   0  0  0  0  0  0  0  0  0  0  0  0
   36.3817    6.0108   19.7115 N   0  0  0  0  0  0  0  0  0  0  0  0
   37.0974    4.8736   19.7380 C   0  0  0  0  0  0  0  0  0  0  0  0
   36.4009    2.2309   22.6902 H   0  0  0  0  0  0  0  0  0  0  0  0
   35.2437    3.2467   23.4228 H   0  0  0  0  0  0  0  0  0  0  0  0
   39.7797    7.6281   18.2370 C   0  0  0  0  0  0  0  0  0  0  0  0
   40.5378    6.6933   17.4739 O   0  0  0  0  0  0  0  0  0  0  0  0
   39.0986    3.6328   14.4741 C   0  0  0  0  0  0  0  0  0  0  0  0
   37.7839    3.0980   14.4580 O   0  0  0  0  0  0  0  0  0  0  0  0
   36.9558    2.9538   13.0917 P   0  0  0  0  0  0  0  0  0  0  0  0
   37.5486    1.9439   12.1613 O   0  0  0  0  0  0  0  0  0  0  0  0
   35.4835    2.6198   13.6192 O   0  0  0  0  0  0  0  0  0  0  0  0
   35.4631    1.7157   13.9700 H   0  0  0  0  0  0  0  0  0  0  0  0
   36.8500    4.4435   12.5515 O   0  0  0  0  0  0  0  0  0  0  0  0
   35.9564    5.5341   13.2716 P   0  0  0  0  0  0  0  0  0  0  0  0
   36.1882    6.9747   12.9770 O   0  0  0  0  0  0  0  0  0  0  0  0
   36.0297    5.1775   14.8230 O   0  0  0  0  0  0  0  0  0  0  0  0
   34.4589    5.0924   12.9343 O   0  0  0  0  0  0  0  0  0  0  0  0
   36.9094    5.4015   15.1649 H   0  0  0  0  0  0  0  0  0  0  0  0
   34.2760    5.2594   11.9965 H   0  0  0  0  0  0  0  0  0  0  0  0
 20 21  1  0
  1 21  1  0
  1  2  1  0
  2  3  1  0
  2  4  1  0
  4 22  1  0
 22 23  1  0
 23 24  1  0
 24 25  2  0
 24 26  1  0
 24 28  1  0
 28 29  1  0
 29 30  2  0
 29 31  1  0
 29 32  1  0
  4  5  1  0
  5  6  1  0
  6  8  1  0
  8  9  1  0
  9 10  2  0
 10 11  1  0
 11 12  2  0
 12 13  1  0
 12 14  1  0
 14 15  2  0
 15 16  1  0
 16 17  2  0
  6  1  1  0
 17  8  1  0
 17 11  1  0
  3  7  1  0
 26 27  1  0
 31 33  1  0
 32 34  1  0
 13 18  1  0
 13 19  1  0
M  END
> <minimizedAffinity>
-7.52820

> <CNNscore>
0.8788587451

> <CNNaffinity>
4.7501912117

> <CNN_VS>
4.1747469902

> <CNNaffinity_variance>
0.6066439152

$$$$



 34 36  0  0  0  0  0  0  0  0999 V2000
   40.7470    4.3393   18.1100 C   0  0  0  0  0  0  0  0  0  0  0  0
   41.3843    3.2698   17.2247 C   0  0  0  0  0  0  0  0  0  0  0  0
   42.6712    3.6521   16.7447 O   0  0  0  0  0  0  0  0  0  0  0  0
   40.3685    3.1334   16.1000 C   0  0  0  0  0  0  0  0  0  0  0  0
   39.0751    3.2096   16.7470 O   0  0  0  0  0  0  0  0  0  0  0  0
   39.2425    4.1587   17.8359 C   0  0  0  0  0  0  0  0  0  0  0  0
   42.5988    4.4859   16.2543 H   0  0  0  0  0  0  0  0  0  0  0  0
   38.4900    3.7133   18.9860 N   0  0  0  0  0  0  0  0  0  0  0  0
   38.6264    2.4916   19.5962 C   0  0  0  0  0  0  0  0  0  0  0  0
   37.8302    2.3697   20.6347 N   0  0  0  0  0  0  0  0  0  0  0  0
   37.1444    3.5683   20.6932 C   0  0  0  0  0  0  0  0  0  0  0  0
   36.1759    4.0638   21.5775 C   0  0  0  0  0  0  0  0  0  0  0  0
   35.6866    3.3327   22.6503 N   0  0  0  0  0  0  0  0  0  0  0  0
   35.7113    5.3206   21.3869 N   0  0  0  0  0  0  0  0  0  0  0  0
   36.1773    6.0298   20.3356 C   0  0  0  0  0  0  0  0  0  0  0  0
   37.0684    5.6434   19.4000 N   0  0  0  0  0  0  0  0  0  0  0  0
   37.5291    4.4084   19.6622 C   0  0  0  0  0  0  0  0  0  0  0  0
   36.0093    2.4163   22.8095 H   0  0  0  0  0  0  0  0  0  0  0  0
   35.0167    3.7303   23.2523 H   0  0  0  0  0  0  0  0  0  0  0  0
   42.2413    5.5166   16.6634 C   0  0  0  0  0  0  0  0  0  0  0  0
   41.2192    5.6290   17.6500 O   0  0  0  0  0  0  0  0  0  0  0  0
   40.4883    1.8368   15.3000 C   0  0  0  0  0  0  0  0  0  0  0  0
   39.3461    1.6617   14.4758 O   0  0  0  0  0  0  0  0  0  0  0  0
   39.3773    2.0263   12.9139 P   0  0  0  0  0  0  0  0  0  0  0  0
   40.3985    3.0682   12.5847 O   0  0  0  0  0  0  0  0  0  0  0  0
   39.6113    0.5974   12.2350 O   0  0  0  0  0  0  0  0  0  0  0  0
   40.5224    0.3073   12.3980 H   0  0  0  0  0  0  0  0  0  0  0  0
   37.8662    2.3784   12.5749 O   0  0  0  0  0  0  0  0  0  0  0  0
   36.7357    1.2707   12.5395 P   0  0  0  0  0  0  0  0  0  0  0  0
   36.3777    0.6379   11.2405 O   0  0  0  0  0  0  0  0  0  0  0  0
   35.4937    1.9156   13.3017 O   0  0  0  0  0  0  0  0  0  0  0  0
   37.2171    0.1910   13.6135 O   0  0  0  0  0  0  0  0  0  0  0  0
   35.0967    2.6054   12.7472 H   0  0  0  0  0  0  0  0  0  0  0  0
   37.9877   -0.2868   13.2686 H   0  0  0  0  0  0  0  0  0  0  0  0
 20 21  1  0
  1 21  1  0
  1  2  1  0
  2  3  1  0
  2  4  1  0
  4 22  1  0
 22 23  1  0
 23 24  1  0
 24 25  2  0
 24 26  1  0
 24 28  1  0
 28 29  1  0
 29 30  2  0
 29 31  1  0
 29 32  1  0
  4  5  1  0
  5  6  1  0
  6  8  1  0
  8  9  1  0
  9 10  2  0
 10 11  1  0
 11 12  2  0
 12 13  1  0
 12 14  1  0
 14 15  2  0
 15 16  1  0
 16 17  2  0
  6  1  1  0
 17  8  1  0
 17 11  1  0
  3  7  1  0
 26 27  1  0
 31 33  1  0
 32 34  1  0
 13 18  1  0
 13 19  1  0
M  END
> <minimizedAffinity>
-6.50495

> <CNNscore>
0.8350985050

> <CNNaffinity>
4.9531841278

> <CNN_VS>
4.1363968849

> <CNNaffinity_variance>
0.0740230456

$$$$



 34 36  0  0  0  0  0  0  0  0999 V2000
   39.5779    6.1673   17.7980 C   0  0  0  0  0  0  0  0  0  0  0  0
   40.1803    5.0557   16.9405 C   0  0  0  0  0  0  0  0  0  0  0  0
   41.4461    5.4135   16.3907 O   0  0  0  0  0  0  0  0  0  0  0  0
   39.1199    4.8654   15.8660 C   0  0  0  0  0  0  0  0  0  0  0  0
   37.8537    4.9736   16.5605 O   0  0  0  0  0  0  0  0  0  0  0  0
   38.0638    5.9745   17.5944 C   0  0  0  0  0  0  0  0  0  0  0  0
   41.3527    6.2225   15.8637 H   0  0  0  0  0  0  0  0  0  0  0  0
   37.3592    5.5859   18.7944 N   0  0  0  0  0  0  0  0  0  0  0  0
   36.4312    6.3547   19.4511 C   0  0  0  0  0  0  0  0  0  0  0  0
   35.9350    5.7368   20.4996 N   0  0  0  0  0  0  0  0  0  0  0  0
   36.5781    4.5136   20.5224 C   0  0  0  0  0  0  0  0  0  0  0  0
   36.4755    3.4047   21.3740 C   0  0  0  0  0  0  0  0  0  0  0  0
   35.6206    3.3664   22.4660 N   0  0  0  0  0  0  0  0  0  0  0  0
   37.2313    2.3142   21.1069 N   0  0  0  0  0  0  0  0  0  0  0  0
   38.0736    2.3540   20.0513 C   0  0  0  0  0  0  0  0  0  0  0  0
   38.2885    3.3739   19.1957 N   0  0  0  0  0  0  0  0  0  0  0  0
   37.4824    4.4113   19.4790 C   0  0  0  0  0  0  0  0  0  0  0  0
   35.0608    4.1473   22.6806 H   0  0  0  0  0  0  0  0  0  0  0  0
   35.5737    2.5582   23.0264 H   0  0  0  0  0  0  0  0  0  0  0  0
   38.9725    8.3804   17.1293 C   0  0  0  0  0  0  0  0  0  0  0  0
   40.0292    7.4329   17.2571 O   0  0  0  0  0  0  0  0  0  0  0  0
   39.2090    3.5314   15.1257 C   0  0  0  0  0  0  0  0  0  0  0  0
   39.1419    3.7429   13.7238 O   0  0  0  0  0  0  0  0  0  0  0  0
   40.3615    4.4031   12.9177 P   0  0  0  0  0  0  0  0  0  0  0  0
   41.6771    4.2117   13.6029 O   0  0  0  0  0  0  0  0  0  0  0  0
   40.2307    3.7167   11.4793 O   0  0  0  0  0  0  0  0  0  0  0  0
   40.5012    2.7870   11.5389 H   0  0  0  0  0  0  0  0  0  0  0  0
   39.8940    5.9023   12.6804 O   0  0  0  0  0  0  0  0  0  0  0  0
   38.3861    6.2699   12.3684 P   0  0  0  0  0  0  0  0  0  0  0  0
   37.5046    6.7282   13.4769 O   0  0  0  0  0  0  0  0  0  0  0  0
   37.8083    5.0208   11.5651 O   0  0  0  0  0  0  0  0  0  0  0  0
   38.4854    7.3555   11.2010 O   0  0  0  0  0  0  0  0  0  0  0  0
   37.6963    4.2710   12.1702 H   0  0  0  0  0  0  0  0  0  0  0  0
   38.8322    8.1867   11.5611 H   0  0  0  0  0  0  0  0  0  0  0  0
 20 21  1  0
  1 21  1  0
  1  2  1  0
  2  3  1  0
  2  4  1  0
  4 22  1  0
 22 23  1  0
 23 24  1  0
 24 25  2  0
 24 26  1  0
 24 28  1  0
 28 29  1  0
 29 30  2  0
 29 31  1  0
 29 32  1  0
  4  5  1  0
  5  6  1  0
  6  8  1  0
  8  9  1  0
  9 10  2  0
 10 11  1  0
 11 12  2  0
 12 13  1  0
 12 14  1  0
 14 15  2  0
 15 16  1  0
 16 17  2  0
  6  1  1  0
 17  8  1  0
 17 11  1  0
  3  7  1  0
 26 27  1  0
 31 33  1  0
 32 34  1  0
 13 18  1  0
 13 19  1  0
M  END
> <minimizedAffinity>
-5.88299

> <CNNscore>
0.7599985003

> <CNNaffinity>
4.5582504272

> <CNN_VS>
3.4642634392

> <CNNaffinity_variance>
0.3906599581

$$$$
