


 20 21  0  0  0  0  0  0  0  0999 V2000
  -16.4800   11.5267   32.3622 C   0  0  0  0  0  0  0  0  0  0  0  0
  -15.2247   11.6280   31.4755 C   0  0  0  0  0  0  0  0  0  0  0  0
  -15.4064   12.4096   30.2916 O   0  0  0  0  0  0  0  0  0  0  0  0
  -15.0127   10.1640   31.0908 C   0  0  0  0  0  0  0  0  0  0  0  0
  -15.8269    9.8401   29.9589 O   0  0  0  0  0  0  0  0  0  0  0  0
  -15.4207    9.3976   32.3657 C   0  0  0  0  0  0  0  0  0  0  0  0
  -16.1746    8.0987   32.1042 C   0  0  0  0  0  0  0  0  0  0  0  0
  -16.2693   10.3109   33.1921 N   0  0  0  0  0  0  0  0  0  0  0  0
  -15.6266   10.5614   34.4842 C   0  0  0  0  0  0  0  0  0  0  0  0
  -16.1319   12.0370   29.7665 H   0  0  0  0  0  0  0  0  0  0  0  0
  -16.7549   10.0368   30.1613 H   0  0  0  0  0  0  0  0  0  0  0  0
  -17.8436   15.0460   34.5381 C   0  0  0  0  0  0  0  0  0  0  0  0
  -18.7340   14.0473   34.1478 C   0  0  0  0  0  0  0  0  0  0  0  0
  -18.2705   12.9249   33.4482 C   0  0  0  0  0  0  0  0  0  0  0  0
  -16.9112   12.7734   33.1172 C   0  0  0  0  0  0  0  0  0  0  0  0
  -16.0238   13.7773   33.5219 C   0  0  0  0  0  0  0  0  0  0  0  0
  -16.4923   14.8926   34.2183 C   0  0  0  0  0  0  0  0  0  0  0  0
  -15.6036   15.8301   34.5826 F   0  0  0  0  0  0  0  0  0  0  0  0
  -18.8216   17.2155   34.4909 C   0  0  0  0  0  0  0  0  0  0  0  0
  -18.1697   16.1851   35.2215 O   0  0  0  0  0  0  0  0  0  0  0  0
 19 20  1  0
 20 12  1  0
 12 13  2  0
 13 14  1  0
 14 15  2  0
  1 15  1  0
  1  2  1  0
  2  3  1  0
  2  4  1  0
  4  5  1  0
  4  6  1  0
  6  7  1  0
  6  8  1  0
  8  9  1  0
 15 16  1  0
 16 17  2  0
 17 18  1  0
 17 12  1  0
  8  1  1  0
  3 10  1  0
  5 11  1  0
M  END
> <minimizedAffinity>
-6.01399

> <CNNscore>
0.9575495720

> <CNNaffinity>
6.2328662872

> <CNN_VS>
5.9682784081

> <CNNaffinity_variance>
0.3587403595

$$$$



 20 21  0  0  0  0  0  0  0  0999 V2000
  -15.4599   12.1509   33.9684 C   0  0  0  0  0  0  0  0  0  0  0  0
  -14.1130   12.8659   33.7517 C   0  0  0  0  0  0  0  0  0  0  0  0
  -12.9798   12.1361   34.2298 O   0  0  0  0  0  0  0  0  0  0  0  0
  -14.3031   14.1230   34.6000 C   0  0  0  0  0  0  0  0  0  0  0  0
  -13.9713   13.8395   35.9633 O   0  0  0  0  0  0  0  0  0  0  0  0
  -15.7940   14.4652   34.4013 C   0  0  0  0  0  0  0  0  0  0  0  0
  -16.4934   14.9793   35.6545 C   0  0  0  0  0  0  0  0  0  0  0  0
  -16.4823   13.2293   33.9155 N   0  0  0  0  0  0  0  0  0  0  0  0
  -17.0522   13.4614   32.5864 C   0  0  0  0  0  0  0  0  0  0  0  0
  -13.0889   11.9531   35.1762 H   0  0  0  0  0  0  0  0  0  0  0  0
  -14.5097   13.0972   36.2794 H   0  0  0  0  0  0  0  0  0  0  0  0
  -16.1696    8.6520   31.4717 C   0  0  0  0  0  0  0  0  0  0  0  0
  -15.0508    9.4609   31.2815 C   0  0  0  0  0  0  0  0  0  0  0  0
  -14.8451   10.5814   32.0978 C   0  0  0  0  0  0  0  0  0  0  0  0
  -15.7508   10.9247   33.1186 C   0  0  0  0  0  0  0  0  0  0  0  0
  -16.8663   10.1007   33.3075 C   0  0  0  0  0  0  0  0  0  0  0  0
  -17.0650    8.9863   32.4907 C   0  0  0  0  0  0  0  0  0  0  0  0
  -18.1508    8.2279   32.7085 F   0  0  0  0  0  0  0  0  0  0  0  0
  -16.3262    6.2784   31.3874 C   0  0  0  0  0  0  0  0  0  0  0  0
  -16.4823    7.5365   30.7445 O   0  0  0  0  0  0  0  0  0  0  0  0
 19 20  1  0
 20 12  1  0
 12 13  2  0
 13 14  1  0
 14 15  2  0
  1 15  1  0
  1  2  1  0
  2  3  1  0
  2  4  1  0
  4  5  1  0
  4  6  1  0
  6  7  1  0
  6  8  1  0
  8  9  1  0
 15 16  1  0
 16 17  2  0
 17 18  1  0
 17 12  1  0
  8  1  1  0
  3 10  1  0
  5 11  1  0
M  END
> <minimizedAffinity>
-7.00423

> <CNNscore>
0.8881603479

> <CNNaffinity>
5.1853914261

> <CNN_VS>
4.6054592133

> <CNNaffinity_variance>
0.0920151249

$$$$



 20 21  0  0  0  0  0  0  0  0999 V2000
  -16.1760   10.6566   33.2822 C   0  0  0  0  0  0  0  0  0  0  0  0
  -17.6684   10.5946   32.9066 C   0  0  0  0  0  0  0  0  0  0  0  0
  -18.5565   10.6662   34.0253 O   0  0  0  0  0  0  0  0  0  0  0  0
  -17.7588    9.2062   32.2736 C   0  0  0  0  0  0  0  0  0  0  0  0
  -17.9408    8.2211   33.2959 O   0  0  0  0  0  0  0  0  0  0  0  0
  -16.4137    9.0640   31.5323 C   0  0  0  0  0  0  0  0  0  0  0  0
  -15.8049    7.6679   31.5968 C   0  0  0  0  0  0  0  0  0  0  0  0
  -15.4615   10.0528   32.1262 N   0  0  0  0  0  0  0  0  0  0  0  0
  -15.0348   11.0140   31.1067 C   0  0  0  0  0  0  0  0  0  0  0  0
  -18.3583    9.9444   34.6423 H   0  0  0  0  0  0  0  0  0  0  0  0
  -17.2181    8.2857   33.9396 H   0  0  0  0  0  0  0  0  0  0  0  0
  -14.7321   14.5251   34.6713 C   0  0  0  0  0  0  0  0  0  0  0  0
  -16.0107   14.3804   34.1359 C   0  0  0  0  0  0  0  0  0  0  0  0
  -16.4517   13.1251   33.6956 C   0  0  0  0  0  0  0  0  0  0  0  0
  -15.6284   11.9865   33.7738 C   0  0  0  0  0  0  0  0  0  0  0  0
  -14.3495   12.1407   34.3214 C   0  0  0  0  0  0  0  0  0  0  0  0
  -13.9167   13.3940   34.7579 C   0  0  0  0  0  0  0  0  0  0  0  0
  -12.6814   13.4924   35.2733 F   0  0  0  0  0  0  0  0  0  0  0  0
  -14.7855   16.9046   34.6984 C   0  0  0  0  0  0  0  0  0  0  0  0
  -14.1863   15.6911   35.1331 O   0  0  0  0  0  0  0  0  0  0  0  0
 19 20  1  0
 20 12  1  0
 12 13  2  0
 13 14  1  0
 14 15  2  0
  1 15  1  0
  1  2  1  0
  2  3  1  0
  2  4  1  0
  4  5  1  0
  4  6  1  0
  6  7  1  0
  6  8  1  0
  8  9  1  0
 15 16  1  0
 16 17  2  0
 17 18  1  0
 17 12  1  0
  8  1  1  0
  3 10  1  0
  5 11  1  0
M  END
> <minimizedAffinity>
-6.84760

> <CNNscore>
0.8093645573

> <CNNaffinity>
5.5198721886

> <CNN_VS>
4.4675889015

> <CNNaffinity_variance>
0.0757976770

$$$$



 20 21  0  0  0  0  0  0  0  0999 V2000
  -16.2030   10.5854   33.4090 C   0  0  0  0  0  0  0  0  0  0  0  0
  -17.6667   10.5312   32.9324 C   0  0  0  0  0  0  0  0  0  0  0  0
  -18.6276   10.5473   33.9915 O   0  0  0  0  0  0  0  0  0  0  0  0
  -17.7024    9.1720   32.2340 C   0  0  0  0  0  0  0  0  0  0  0  0
  -17.9428    8.1410   33.1974 O   0  0  0  0  0  0  0  0  0  0  0  0
  -16.3098    9.0713   31.5784 C   0  0  0  0  0  0  0  0  0  0  0  0
  -15.6941    7.6774   31.6215 C   0  0  0  0  0  0  0  0  0  0  0  0
  -15.4081   10.0384   32.2776 N   0  0  0  0  0  0  0  0  0  0  0  0
  -14.9235   11.0467   31.3323 C   0  0  0  0  0  0  0  0  0  0  0  0
  -18.4642    9.7999   34.5878 H   0  0  0  0  0  0  0  0  0  0  0  0
  -17.2649    8.1813   33.8901 H   0  0  0  0  0  0  0  0  0  0  0  0
  -14.6342   14.2984   35.0619 C   0  0  0  0  0  0  0  0  0  0  0  0
  -13.7863   13.2538   34.6981 C   0  0  0  0  0  0  0  0  0  0  0  0
  -14.3157   12.0691   34.1688 C   0  0  0  0  0  0  0  0  0  0  0  0
  -15.7013   11.8954   33.9943 C   0  0  0  0  0  0  0  0  0  0  0  0
  -16.5435   12.9538   34.3541 C   0  0  0  0  0  0  0  0  0  0  0  0
  -16.0093   14.1310   34.8808 C   0  0  0  0  0  0  0  0  0  0  0  0
  -16.8572   15.1168   35.2136 F   0  0  0  0  0  0  0  0  0  0  0  0
  -13.9560   16.5462   34.6704 C   0  0  0  0  0  0  0  0  0  0  0  0
  -14.2432   15.4990   35.5878 O   0  0  0  0  0  0  0  0  0  0  0  0
 19 20  1  0
 20 12  1  0
 12 13  2  0
 13 14  1  0
 14 15  2  0
  1 15  1  0
  1  2  1  0
  2  3  1  0
  2  4  1  0
  4  5  1  0
  4  6  1  0
  6  7  1  0
  6  8  1  0
  8  9  1  0
 15 16  1  0
 16 17  2  0
 17 18  1  0
 17 12  1  0
  8  1  1  0
  3 10  1  0
  5 11  1  0
M  END
> <minimizedAffinity>
-6.35728

> <CNNscore>
0.6987896562

> <CNNaffinity>
5.3879084587

> <CNN_VS>
3.7650146484

> <CNNaffinity_variance>
0.0747244358

$$$$



 20 21  0  0  0  0  0  0  0  0999 V2000
  -16.8566   14.9486   35.3680 C   0  0  0  0  0  0  0  0  0  0  0  0
  -15.6739   14.0293   35.0098 C   0  0  0  0  0  0  0  0  0  0  0  0
  -15.4761   13.8515   33.6045 O   0  0  0  0  0  0  0  0  0  0  0  0
  -16.1250   12.7076   35.6311 C   0  0  0  0  0  0  0  0  0  0  0  0
  -16.9835   12.0144   34.7193 O   0  0  0  0  0  0  0  0  0  0  0  0
  -16.8464   13.1480   36.9214 C   0  0  0  0  0  0  0  0  0  0  0  0
  -18.0928   12.3355   37.2534 C   0  0  0  0  0  0  0  0  0  0  0  0
  -17.2154   14.5891   36.7656 N   0  0  0  0  0  0  0  0  0  0  0  0
  -16.5454   15.3927   37.7906 C   0  0  0  0  0  0  0  0  0  0  0  0
  -16.2845   13.4915   33.2073 H   0  0  0  0  0  0  0  0  0  0  0  0
  -17.7319   12.5844   34.4829 H   0  0  0  0  0  0  0  0  0  0  0  0
  -16.2794   19.1887   34.5503 C   0  0  0  0  0  0  0  0  0  0  0  0
  -15.1947   18.3237   34.6830 C   0  0  0  0  0  0  0  0  0  0  0  0
  -15.4067   16.9637   34.9465 C   0  0  0  0  0  0  0  0  0  0  0  0
  -16.7030   16.4347   35.0886 C   0  0  0  0  0  0  0  0  0  0  0  0
  -17.7858   17.3099   34.9445 C   0  0  0  0  0  0  0  0  0  0  0  0
  -17.5673   18.6634   34.6821 C   0  0  0  0  0  0  0  0  0  0  0  0
  -18.6372   19.4638   34.5549 F   0  0  0  0  0  0  0  0  0  0  0  0
  -15.1718   21.2581   34.9454 C   0  0  0  0  0  0  0  0  0  0  0  0
  -16.2053   20.5303   34.2951 O   0  0  0  0  0  0  0  0  0  0  0  0
 19 20  1  0
 20 12  1  0
 12 13  2  0
 13 14  1  0
 14 15  2  0
  1 15  1  0
  1  2  1  0
  2  3  1  0
  2  4  1  0
  4  5  1  0
  4  6  1  0
  6  7  1  0
  6  8  1  0
  8  9  1  0
 15 16  1  0
 16 17  2  0
 17 18  1  0
 17 12  1  0
  8  1  1  0
  3 10  1  0
  5 11  1  0
M  END
> <minimizedAffinity>
-4.41315

> <CNNscore>
0.3193428218

> <CNNaffinity>
3.0117950439

> <CNN_VS>
0.9617951512

> <CNNaffinity_variance>
0.6753911972

$$$$



 20 21  0  0  0  0  0  0  0  0999 V2000
  -18.3504   14.0754   34.4020 C   0  0  0  0  0  0  0  0  0  0  0  0
  -17.6406   12.7581   34.0371 C   0  0  0  0  0  0  0  0  0  0  0  0
  -17.2134   12.6818   32.6743 O   0  0  0  0  0  0  0  0  0  0  0  0
  -18.7565   11.7417   34.2779 C   0  0  0  0  0  0  0  0  0  0  0  0
  -19.5880   11.6543   33.1161 O   0  0  0  0  0  0  0  0  0  0  0  0
  -19.4961   12.3086   35.5071 C   0  0  0  0  0  0  0  0  0  0  0  0
  -21.0112   12.1479   35.4583 C   0  0  0  0  0  0  0  0  0  0  0  0
  -19.1501   13.7598   35.6153 N   0  0  0  0  0  0  0  0  0  0  0  0
  -18.4607   14.0186   36.8814 C   0  0  0  0  0  0  0  0  0  0  0  0
  -17.9780   12.7985   32.0889 H   0  0  0  0  0  0  0  0  0  0  0  0
  -19.9325   12.5344   32.8981 H   0  0  0  0  0  0  0  0  0  0  0  0
  -16.0349   17.7577   34.6435 C   0  0  0  0  0  0  0  0  0  0  0  0
  -17.4275   17.7814   34.5927 C   0  0  0  0  0  0  0  0  0  0  0  0
  -18.1496   16.5828   34.5148 C   0  0  0  0  0  0  0  0  0  0  0  0
  -17.5019   15.3340   34.4810 C   0  0  0  0  0  0  0  0  0  0  0  0
  -16.1037   15.3206   34.5418 C   0  0  0  0  0  0  0  0  0  0  0  0
  -15.3907   16.5182   34.6192 C   0  0  0  0  0  0  0  0  0  0  0  0
  -14.0511   16.4545   34.6726 F   0  0  0  0  0  0  0  0  0  0  0  0
  -15.2149   19.5747   35.9443 C   0  0  0  0  0  0  0  0  0  0  0  0
  -15.2192   18.8530   34.7196 O   0  0  0  0  0  0  0  0  0  0  0  0
 19 20  1  0
 20 12  1  0
 12 13  2  0
 13 14  1  0
 14 15  2  0
  1 15  1  0
  1  2  1  0
  2  3  1  0
  2  4  1  0
  4  5  1  0
  4  6  1  0
  6  7  1  0
  6  8  1  0
  8  9  1  0
 15 16  1  0
 16 17  2  0
 17 18  1  0
 17 12  1  0
  8  1  1  0
  3 10  1  0
  5 11  1  0
M  END
> <minimizedAffinity>
-5.10045

> <CNNscore>
0.3099877834

> <CNNaffinity>
3.2740509510

> <CNN_VS>
1.0149158239

> <CNNaffinity_variance>
0.5884771943

$$$$



 20 21  0  0  0  0  0  0  0  0999 V2000
  -16.1810   12.0388   33.9526 C   0  0  0  0  0  0  0  0  0  0  0  0
  -17.5410   12.3087   33.2819 C   0  0  0  0  0  0  0  0  0  0  0  0
  -18.5563   12.7638   34.1805 O   0  0  0  0  0  0  0  0  0  0  0  0
  -17.9026   10.9145   32.7701 C   0  0  0  0  0  0  0  0  0  0  0  0
  -18.5295   10.1645   33.8158 O   0  0  0  0  0  0  0  0  0  0  0  0
  -16.5421   10.3284   32.3404 C   0  0  0  0  0  0  0  0  0  0  0  0
  -16.3686    8.8468   32.6542 C   0  0  0  0  0  0  0  0  0  0  0  0
  -15.4717   11.1142   33.0289 N   0  0  0  0  0  0  0  0  0  0  0  0
  -14.6211   11.7788   32.0390 C   0  0  0  0  0  0  0  0  0  0  0  0
  -18.6793   12.1105   34.8870 H   0  0  0  0  0  0  0  0  0  0  0  0
  -17.9424   10.1326   34.5874 H   0  0  0  0  0  0  0  0  0  0  0  0
  -13.9960   15.5609   35.2944 C   0  0  0  0  0  0  0  0  0  0  0  0
  -15.2895   15.6629   34.7855 C   0  0  0  0  0  0  0  0  0  0  0  0
  -15.9713   14.5148   34.3600 C   0  0  0  0  0  0  0  0  0  0  0  0
  -15.3793   13.2399   34.4269 C   0  0  0  0  0  0  0  0  0  0  0  0
  -14.0836   13.1471   34.9480 C   0  0  0  0  0  0  0  0  0  0  0  0
  -13.4103   14.2948   35.3699 C   0  0  0  0  0  0  0  0  0  0  0  0
  -12.1685   14.1556   35.8599 F   0  0  0  0  0  0  0  0  0  0  0  0
  -13.7893   17.4396   36.7412 C   0  0  0  0  0  0  0  0  0  0  0  0
  -13.2280   16.6014   35.7397 O   0  0  0  0  0  0  0  0  0  0  0  0
 19 20  1  0
 20 12  1  0
 12 13  2  0
 13 14  1  0
 14 15  2  0
  1 15  1  0
  1  2  1  0
  2  3  1  0
  2  4  1  0
  4  5  1  0
  4  6  1  0
  6  7  1  0
  6  8  1  0
  8  9  1  0
 15 16  1  0
 16 17  2  0
 17 18  1  0
 17 12  1  0
  8  1  1  0
  3 10  1  0
  5 11  1  0
M  END
> <minimizedAffinity>
-5.82530

> <CNNscore>
0.3033570647

> <CNNaffinity>
4.8480906487

> <CNN_VS>
1.4707025290

> <CNNaffinity_variance>
0.0174912866

$$$$



 20 21  0  0  0  0  0  0  0  0999 V2000
  -11.4332   16.3799   38.2615 C   0  0  0  0  0  0  0  0  0  0  0  0
  -10.0221   16.1482   37.6893 C   0  0  0  0  0  0  0  0  0  0  0  0
   -9.8615   14.8955   37.0182 O   0  0  0  0  0  0  0  0  0  0  0  0
   -9.1790   16.1539   38.9642 C   0  0  0  0  0  0  0  0  0  0  0  0
   -9.1898   14.8502   39.5552 O   0  0  0  0  0  0  0  0  0  0  0  0
   -9.8672   17.2192   39.8421 C   0  0  0  0  0  0  0  0  0  0  0  0
   -9.9225   16.8714   41.3253 C   0  0  0  0  0  0  0  0  0  0  0  0
  -11.2562   17.4087   39.3206 N   0  0  0  0  0  0  0  0  0  0  0  0
  -11.4372   18.7883   38.8634 C   0  0  0  0  0  0  0  0  0  0  0  0
  -10.0751   14.1722   37.6283 H   0  0  0  0  0  0  0  0  0  0  0  0
  -10.1059   14.5779   39.7210 H   0  0  0  0  0  0  0  0  0  0  0  0
  -14.7013   17.2280   35.5083 C   0  0  0  0  0  0  0  0  0  0  0  0
  -14.5621   17.9310   36.7037 C   0  0  0  0  0  0  0  0  0  0  0  0
  -13.5022   17.6390   37.5729 C   0  0  0  0  0  0  0  0  0  0  0  0
  -12.5597   16.6376   37.2742 C   0  0  0  0  0  0  0  0  0  0  0  0
  -12.7030   15.9439   36.0670 C   0  0  0  0  0  0  0  0  0  0  0  0
  -13.7612   16.2398   35.2060 C   0  0  0  0  0  0  0  0  0  0  0  0
  -13.8584   15.5457   34.0614 F   0  0  0  0  0  0  0  0  0  0  0  0
  -16.9480   16.8128   34.8408 C   0  0  0  0  0  0  0  0  0  0  0  0
  -15.6881   17.4171   34.5802 O   0  0  0  0  0  0  0  0  0  0  0  0
 19 20  1  0
 20 12  1  0
 12 13  2  0
 13 14  1  0
 14 15  2  0
  1 15  1  0
  1  2  1  0
  2  3  1  0
  2  4  1  0
  4  5  1  0
  4  6  1  0
  6  7  1  0
  6  8  1  0
  8  9  1  0
 15 16  1  0
 16 17  2  0
 17 18  1  0
 17 12  1  0
  8  1  1  0
  3 10  1  0
  5 11  1  0
M  END
> <minimizedAffinity>
-4.60344

> <CNNscore>
0.2772158682

> <CNNaffinity>
3.0185463428

> <CNN_VS>
0.8367889524

> <CNNaffinity_variance>
0.9009816051

$$$$



 20 21  0  0  0  0  0  0  0  0999 V2000
  -15.8394   13.2128   33.5648 C   0  0  0  0  0  0  0  0  0  0  0  0
  -16.7388   13.5031   34.7810 C   0  0  0  0  0  0  0  0  0  0  0  0
  -18.1143   13.7175   34.4532 O   0  0  0  0  0  0  0  0  0  0  0  0
  -16.1300   14.8065   35.2974 C   0  0  0  0  0  0  0  0  0  0  0  0
  -16.6842   15.9148   34.5808 O   0  0  0  0  0  0  0  0  0  0  0  0
  -14.6199   14.6196   35.0443 C   0  0  0  0  0  0  0  0  0  0  0  0
  -13.8996   15.8804   34.5804 C   0  0  0  0  0  0  0  0  0  0  0  0
  -14.4618   13.5458   34.0152 N   0  0  0  0  0  0  0  0  0  0  0  0
  -13.7172   12.4169   34.5776 C   0  0  0  0  0  0  0  0  0  0  0  0
  -18.1864   14.4547   33.8269 H   0  0  0  0  0  0  0  0  0  0  0  0
  -16.5371   15.7912   33.6301 H   0  0  0  0  0  0  0  0  0  0  0  0
  -16.1712    9.3709   31.5376 C   0  0  0  0  0  0  0  0  0  0  0  0
  -15.0694   10.2008   31.3382 C   0  0  0  0  0  0  0  0  0  0  0  0
  -14.9863   11.4324   32.0019 C   0  0  0  0  0  0  0  0  0  0  0  0
  -16.0001   11.8678   32.8753 C   0  0  0  0  0  0  0  0  0  0  0  0
  -17.0979   11.0230   33.0758 C   0  0  0  0  0  0  0  0  0  0  0  0
  -17.1743    9.7977   32.4114 C   0  0  0  0  0  0  0  0  0  0  0  0
  -18.2477    9.0234   32.6338 F   0  0  0  0  0  0  0  0  0  0  0  0
  -16.1605    7.0011   31.7596 C   0  0  0  0  0  0  0  0  0  0  0  0
  -16.3697    8.1513   30.9511 O   0  0  0  0  0  0  0  0  0  0  0  0
 19 20  1  0
 20 12  1  0
 12 13  2  0
 13 14  1  0
 14 15  2  0
  1 15  1  0
  1  2  1  0
  2  3  1  0
  2  4  1  0
  4  5  1  0
  4  6  1  0
  6  7  1  0
  6  8  1  0
  8  9  1  0
 15 16  1  0
 16 17  2  0
 17 18  1  0
 17 12  1  0
  8  1  1  0
  3 10  1  0
  5 11  1  0
M  END
> <minimizedAffinity>
-6.52848

> <CNNscore>
0.2753577530

> <CNNaffinity>
4.3216004372

> <CNN_VS>
1.1899862289

> <CNNaffinity_variance>
0.3687550724

$$$$
