


 22 22  0  0  0  0  0  0  0  0999 V2000
   15.8610    1.5476   16.2397 C   0  0  0  0  0  0  0  0  0  0  0  0
   17.2424    1.5551   16.0518 C   0  0  0  0  0  0  0  0  0  0  0  0
   17.8348    2.6297   15.3855 C   0  0  0  0  0  0  0  0  0  0  0  0
   17.0596    3.7016   14.8993 C   0  0  0  0  0  0  0  0  0  0  0  0
   15.6666    3.6623   15.0734 C   0  0  0  0  0  0  0  0  0  0  0  0
   14.5901    4.8691   14.4609 Cl  0  0  0  0  0  0  0  0  0  0  0  0
   15.0693    2.5867   15.7452 C   0  0  0  0  0  0  0  0  0  0  0  0
   15.5412   -1.1074   16.0648 N   0  0  0  0  0  0  0  0  0  0  0  0
   15.1036    0.1716   17.0641 S   0  0  0  0  0  0  0  0  0  0  0  0
   13.6728    0.3348   16.9883 O   0  0  0  0  0  0  0  0  0  0  0  0
   15.8014   -0.0490   18.3091 O   0  0  0  0  0  0  0  0  0  0  0  0
   15.1586   -1.9763   16.4375 H   0  0  0  0  0  0  0  0  0  0  0  0
   16.5582   -1.1739   16.0233 H   0  0  0  0  0  0  0  0  0  0  0  0
   17.8173    4.7906   14.2155 C   0  0  0  0  0  0  0  0  0  0  0  0
   18.4040    4.5552   13.1642 O   0  0  0  0  0  0  0  0  0  0  0  0
   17.8691    6.0228   14.8236 N   0  0  0  0  0  0  0  0  0  0  0  0
   17.4837    6.1392   15.7220 H   0  0  0  0  0  0  0  0  0  0  0  0
   18.4920    7.1649   14.1482 C   0  0  0  0  0  0  0  0  0  0  0  0
   19.2513    8.1128   15.0715 C   0  0  0  0  0  0  0  0  0  0  0  0
   18.9000    9.4003   14.8583 F   0  0  0  0  0  0  0  0  0  0  0  0
   20.5859    8.0150   14.8662 F   0  0  0  0  0  0  0  0  0  0  0  0
   19.0132    7.8282   16.3699 F   0  0  0  0  0  0  0  0  0  0  0  0
  8  9  1  0
  9 10  2  0
  9 11  2  0
  9  1  1  0
  1  2  2  0
  2  3  1  0
  3  4  2  0
  4 14  1  0
 14 15  2  0
 14 16  1  0
 16 18  1  0
 18 19  1  0
 19 20  1  0
 19 21  1  0
 19 22  1  0
  4  5  1  0
  5  6  1  0
  5  7  2  0
  7  1  1  0
  8 12  1  0
  8 13  1  0
 16 17  1  0
M  END
> <minimizedAffinity>
-7.72840

> <CNNscore>
0.9755694866

> <CNNaffinity>
7.5417962074

> <CNN_VS>
7.3575463295

> <CNNaffinity_variance>
0.8855469823

$$$$



 22 22  0  0  0  0  0  0  0  0999 V2000
   15.6850    1.6235   16.1545 C   0  0  0  0  0  0  0  0  0  0  0  0
   14.7598    2.5927   15.7698 C   0  0  0  0  0  0  0  0  0  0  0  0
   15.2104    3.7551   15.1408 C   0  0  0  0  0  0  0  0  0  0  0  0
   16.5820    3.9635   14.8926 C   0  0  0  0  0  0  0  0  0  0  0  0
   17.5012    2.9884   15.3129 C   0  0  0  0  0  0  0  0  0  0  0  0
   19.2144    3.1500   15.1421 Cl  0  0  0  0  0  0  0  0  0  0  0  0
   17.0515    1.8188   15.9412 C   0  0  0  0  0  0  0  0  0  0  0  0
   15.6550   -1.0472   15.9339 N   0  0  0  0  0  0  0  0  0  0  0  0
   15.1170    0.1573   16.9758 S   0  0  0  0  0  0  0  0  0  0  0  0
   13.6750    0.1612   16.9552 O   0  0  0  0  0  0  0  0  0  0  0  0
   15.8821   -0.0058   18.1897 O   0  0  0  0  0  0  0  0  0  0  0  0
   15.3856   -1.9598   16.3012 H   0  0  0  0  0  0  0  0  0  0  0  0
   16.6707   -0.9991   15.8542 H   0  0  0  0  0  0  0  0  0  0  0  0
   16.9284    5.2420   14.2047 C   0  0  0  0  0  0  0  0  0  0  0  0
   16.1884    5.6816   13.3306 O   0  0  0  0  0  0  0  0  0  0  0  0
   18.1058    5.8633   14.5489 N   0  0  0  0  0  0  0  0  0  0  0  0
   18.7274    5.4193   15.1699 H   0  0  0  0  0  0  0  0  0  0  0  0
   18.4452    7.1797   14.0009 C   0  0  0  0  0  0  0  0  0  0  0  0
   19.2080    8.0898   14.9587 C   0  0  0  0  0  0  0  0  0  0  0  0
   18.9230    7.8032   16.2482 F   0  0  0  0  0  0  0  0  0  0  0  0
   18.8834    9.3871   14.7478 F   0  0  0  0  0  0  0  0  0  0  0  0
   20.5426    7.9678   14.7927 F   0  0  0  0  0  0  0  0  0  0  0  0
  8  9  1  0
  9 10  2  0
  9 11  2  0
  9  1  1  0
  1  2  2  0
  2  3  1  0
  3  4  2  0
  4 14  1  0
 14 15  2  0
 14 16  1  0
 16 18  1  0
 18 19  1  0
 19 20  1  0
 19 21  1  0
 19 22  1  0
  4  5  1  0
  5  6  1  0
  5  7  2  0
  7  1  1  0
  8 12  1  0
  8 13  1  0
 16 17  1  0
M  END
> <minimizedAffinity>
-7.79660

> <CNNscore>
0.9698583484

> <CNNaffinity>
7.4836707115

> <CNN_VS>
7.2581005096

> <CNNaffinity_variance>
0.9242361188

$$$$



 22 22  0  0  0  0  0  0  0  0999 V2000
   15.4287    1.5637   15.9481 C   0  0  0  0  0  0  0  0  0  0  0  0
   14.8462    2.7853   16.2824 C   0  0  0  0  0  0  0  0  0  0  0  0
   15.1459    3.9159   15.5199 C   0  0  0  0  0  0  0  0  0  0  0  0
   16.0277    3.8414   14.4230 C   0  0  0  0  0  0  0  0  0  0  0  0
   16.6265    2.6079   14.1192 C   0  0  0  0  0  0  0  0  0  0  0  0
   17.7835    2.3908   12.8525 Cl  0  0  0  0  0  0  0  0  0  0  0  0
   16.3247    1.4703   14.8806 C   0  0  0  0  0  0  0  0  0  0  0  0
   15.6303   -1.1087   15.9443 N   0  0  0  0  0  0  0  0  0  0  0  0
   15.0685    0.1313   16.9306 S   0  0  0  0  0  0  0  0  0  0  0  0
   13.6355    0.0090   17.0376 O   0  0  0  0  0  0  0  0  0  0  0  0
   15.9414    0.1413   18.0811 O   0  0  0  0  0  0  0  0  0  0  0  0
   15.4780   -2.0055   16.4056 H   0  0  0  0  0  0  0  0  0  0  0  0
   16.6273   -0.9803   15.7714 H   0  0  0  0  0  0  0  0  0  0  0  0
   16.2542    5.1196   13.6865 C   0  0  0  0  0  0  0  0  0  0  0  0
   17.1162    5.9009   14.0759 O   0  0  0  0  0  0  0  0  0  0  0  0
   15.4438    5.3990   12.6114 N   0  0  0  0  0  0  0  0  0  0  0  0
   14.6892    4.8024   12.4022 H   0  0  0  0  0  0  0  0  0  0  0  0
   15.6916    6.5758   11.7734 C   0  0  0  0  0  0  0  0  0  0  0  0
   14.4355    7.2221   11.1973 C   0  0  0  0  0  0  0  0  0  0  0  0
   14.0584    6.6307   10.0421 F   0  0  0  0  0  0  0  0  0  0  0  0
   14.6489    8.5328   10.9336 F   0  0  0  0  0  0  0  0  0  0  0  0
   13.4011    7.1398   12.0615 F   0  0  0  0  0  0  0  0  0  0  0  0
  8  9  1  0
  9 10  2  0
  9 11  2  0
  9  1  1  0
  1  2  2  0
  2  3  1  0
  3  4  2  0
  4 14  1  0
 14 15  2  0
 14 16  1  0
 16 18  1  0
 18 19  1  0
 19 20  1  0
 19 21  1  0
 19 22  1  0
  4  5  1  0
  5  6  1  0
  5  7  2  0
  7  1  1  0
  8 12  1  0
  8 13  1  0
 16 17  1  0
M  END
> <minimizedAffinity>
-7.89834

> <CNNscore>
0.8716367483

> <CNNaffinity>
7.2203269005

> <CNN_VS>
6.2935023308

> <CNNaffinity_variance>
0.8827643394

$$$$



 22 22  0  0  0  0  0  0  0  0999 V2000
   15.4149    1.4888   15.9391 C   0  0  0  0  0  0  0  0  0  0  0  0
   14.8769    2.7370   16.2491 C   0  0  0  0  0  0  0  0  0  0  0  0
   15.1902    3.8343   15.4445 C   0  0  0  0  0  0  0  0  0  0  0  0
   16.0415    3.6999   14.3293 C   0  0  0  0  0  0  0  0  0  0  0  0
   16.5961    2.4402   14.0499 C   0  0  0  0  0  0  0  0  0  0  0  0
   17.7140    2.1499   12.7628 Cl  0  0  0  0  0  0  0  0  0  0  0  0
   16.2805    1.3360   14.8536 C   0  0  0  0  0  0  0  0  0  0  0  0
   15.5575   -1.1860   16.0229 N   0  0  0  0  0  0  0  0  0  0  0  0
   15.0378    0.0986   16.9745 S   0  0  0  0  0  0  0  0  0  0  0  0
   13.6042    0.0123   17.1058 O   0  0  0  0  0  0  0  0  0  0  0  0
   15.9277    0.1275   18.1115 O   0  0  0  0  0  0  0  0  0  0  0  0
   15.3923   -2.0632   16.5163 H   0  0  0  0  0  0  0  0  0  0  0  0
   16.5544   -1.0859   15.8316 H   0  0  0  0  0  0  0  0  0  0  0  0
   16.2867    4.9476   13.5479 C   0  0  0  0  0  0  0  0  0  0  0  0
   15.3711    5.4527   12.9064 O   0  0  0  0  0  0  0  0  0  0  0  0
   17.5606    5.4651   13.5384 N   0  0  0  0  0  0  0  0  0  0  0  0
   18.2919    4.9669   13.9700 H   0  0  0  0  0  0  0  0  0  0  0  0
   17.8413    6.7505   12.8926 C   0  0  0  0  0  0  0  0  0  0  0  0
   18.3550    6.6437   11.4600 C   0  0  0  0  0  0  0  0  0  0  0  0
   19.2057    5.6037   11.3143 F   0  0  0  0  0  0  0  0  0  0  0  0
   19.0205    7.7678   11.1045 F   0  0  0  0  0  0  0  0  0  0  0  0
   17.3395    6.4736   10.5863 F   0  0  0  0  0  0  0  0  0  0  0  0
  8  9  1  0
  9 10  2  0
  9 11  2  0
  9  1  1  0
  1  2  2  0
  2  3  1  0
  3  4  2  0
  4 14  1  0
 14 15  2  0
 14 16  1  0
 16 18  1  0
 18 19  1  0
 19 20  1  0
 19 21  1  0
 19 22  1  0
  4  5  1  0
  5  6  1  0
  5  7  2  0
  7  1  1  0
  8 12  1  0
  8 13  1  0
 16 17  1  0
M  END
> <minimizedAffinity>
-7.01906

> <CNNscore>
0.8426554203

> <CNNaffinity>
7.0934481621

> <CNN_VS>
5.9773325920

> <CNNaffinity_variance>
0.6059030890

$$$$



 22 22  0  0  0  0  0  0  0  0999 V2000
   16.6747    1.7417   14.6337 C   0  0  0  0  0  0  0  0  0  0  0  0
   16.6582    1.6045   13.2465 C   0  0  0  0  0  0  0  0  0  0  0  0
   16.7550    2.7448   12.4465 C   0  0  0  0  0  0  0  0  0  0  0  0
   16.8659    4.0281   13.0185 C   0  0  0  0  0  0  0  0  0  0  0  0
   16.8523    4.1483   14.4177 C   0  0  0  0  0  0  0  0  0  0  0  0
   16.9030    5.6635   15.2495 Cl  0  0  0  0  0  0  0  0  0  0  0  0
   16.7589    3.0051   15.2234 C   0  0  0  0  0  0  0  0  0  0  0  0
   16.5558   -0.9324   14.5052 N   0  0  0  0  0  0  0  0  0  0  0  0
   16.5271    0.2965   15.6518 S   0  0  0  0  0  0  0  0  0  0  0  0
   15.2221    0.3111   16.2655 O   0  0  0  0  0  0  0  0  0  0  0  0
   17.7473    0.1516   16.4104 O   0  0  0  0  0  0  0  0  0  0  0  0
   16.4764   -1.8355   14.9727 H   0  0  0  0  0  0  0  0  0  0  0  0
   17.4336   -0.8937   13.9872 H   0  0  0  0  0  0  0  0  0  0  0  0
   16.9723    5.1605   12.0521 C   0  0  0  0  0  0  0  0  0  0  0  0
   18.0183    5.3376   11.4362 O   0  0  0  0  0  0  0  0  0  0  0  0
   15.8936    6.0034   11.9221 N   0  0  0  0  0  0  0  0  0  0  0  0
   15.1173    5.8965   12.5180 H   0  0  0  0  0  0  0  0  0  0  0  0
   15.8874    7.0593   10.9055 C   0  0  0  0  0  0  0  0  0  0  0  0
   14.5709    7.8211   10.7880 C   0  0  0  0  0  0  0  0  0  0  0  0
   14.7600    9.1560   10.8813 F   0  0  0  0  0  0  0  0  0  0  0  0
   13.7184    7.4599   11.7757 F   0  0  0  0  0  0  0  0  0  0  0  0
   13.9630    7.5706    9.6084 F   0  0  0  0  0  0  0  0  0  0  0  0
  8  9  1  0
  9 10  2  0
  9 11  2  0
  9  1  1  0
  1  2  2  0
  2  3  1  0
  3  4  2  0
  4 14  1  0
 14 15  2  0
 14 16  1  0
 16 18  1  0
 18 19  1  0
 19 20  1  0
 19 21  1  0
 19 22  1  0
  4  5  1  0
  5  6  1  0
  5  7  2  0
  7  1  1  0
  8 12  1  0
  8 13  1  0
 16 17  1  0
M  END
> <minimizedAffinity>
-6.98121

> <CNNscore>
0.8410021067

> <CNNaffinity>
6.5160045624

> <CNN_VS>
5.4799737930

> <CNNaffinity_variance>
0.4042294025

$$$$



 22 22  0  0  0  0  0  0  0  0999 V2000
   18.8292    6.1585   14.3580 C   0  0  0  0  0  0  0  0  0  0  0  0
   19.5537    4.9850   14.1544 C   0  0  0  0  0  0  0  0  0  0  0  0
   18.9155    3.7529   14.3107 C   0  0  0  0  0  0  0  0  0  0  0  0
   17.5554    3.6783   14.6725 C   0  0  0  0  0  0  0  0  0  0  0  0
   16.8499    4.8710   14.9007 C   0  0  0  0  0  0  0  0  0  0  0  0
   15.2024    4.9244   15.4235 Cl  0  0  0  0  0  0  0  0  0  0  0  0
   17.4869    6.1094   14.7411 C   0  0  0  0  0  0  0  0  0  0  0  0
   21.0329    7.2938   13.3398 N   0  0  0  0  0  0  0  0  0  0  0  0
   19.6445    7.7243   14.1841 S   0  0  0  0  0  0  0  0  0  0  0  0
   20.0359    8.1750   15.4969 O   0  0  0  0  0  0  0  0  0  0  0  0
   18.8712    8.5380   13.2754 O   0  0  0  0  0  0  0  0  0  0  0  0
   21.6006    8.1246   13.1728 H   0  0  0  0  0  0  0  0  0  0  0  0
   20.7718    6.8753   12.4470 H   0  0  0  0  0  0  0  0  0  0  0  0
   16.9931    2.3013   14.7960 C   0  0  0  0  0  0  0  0  0  0  0  0
   17.0211    1.5446   13.8309 O   0  0  0  0  0  0  0  0  0  0  0  0
   16.4135    1.9441   15.9907 N   0  0  0  0  0  0  0  0  0  0  0  0
   16.3069    2.6174   16.7010 H   0  0  0  0  0  0  0  0  0  0  0  0
   15.9525    0.5714   16.2179 C   0  0  0  0  0  0  0  0  0  0  0  0
   15.0531    0.3962   17.4376 C   0  0  0  0  0  0  0  0  0  0  0  0
   13.7455    0.4712   17.1047 F   0  0  0  0  0  0  0  0  0  0  0  0
   15.2963    1.3617   18.3550 F   0  0  0  0  0  0  0  0  0  0  0  0
   15.2610   -0.7980   18.0328 F   0  0  0  0  0  0  0  0  0  0  0  0
  8  9  1  0
  9 10  2  0
  9 11  2  0
  9  1  1  0
  1  2  2  0
  2  3  1  0
  3  4  2  0
  4 14  1  0
 14 15  2  0
 14 16  1  0
 16 18  1  0
 18 19  1  0
 19 20  1  0
 19 21  1  0
 19 22  1  0
  4  5  1  0
  5  6  1  0
  5  7  2  0
  7  1  1  0
  8 12  1  0
  8 13  1  0
 16 17  1  0
M  END
> <minimizedAffinity>
-6.88546

> <CNNscore>
0.7984057069

> <CNNaffinity>
5.2548356056

> <CNN_VS>
4.1954908371

> <CNNaffinity_variance>
0.0331347138

$$$$



 22 22  0  0  0  0  0  0  0  0999 V2000
   15.4313    1.9950   16.0465 C   0  0  0  0  0  0  0  0  0  0  0  0
   14.8139    3.2343   16.2093 C   0  0  0  0  0  0  0  0  0  0  0  0
   15.1328    4.2759   15.3358 C   0  0  0  0  0  0  0  0  0  0  0  0
   16.0684    4.0946   14.2974 C   0  0  0  0  0  0  0  0  0  0  0  0
   16.7006    2.8473   14.1670 C   0  0  0  0  0  0  0  0  0  0  0  0
   17.9215    2.5107   12.9896 Cl  0  0  0  0  0  0  0  0  0  0  0  0
   16.3798    1.7986   15.0401 C   0  0  0  0  0  0  0  0  0  0  0  0
   14.9904    1.4899   18.6411 N   0  0  0  0  0  0  0  0  0  0  0  0
   15.0459    0.6778   17.1703 S   0  0  0  0  0  0  0  0  0  0  0  0
   16.1655   -0.2307   17.1982 O   0  0  0  0  0  0  0  0  0  0  0  0
   13.6927    0.2447   16.9119 O   0  0  0  0  0  0  0  0  0  0  0  0
   14.7724    0.8287   19.3866 H   0  0  0  0  0  0  0  0  0  0  0  0
   14.2697    2.2108   18.6045 H   0  0  0  0  0  0  0  0  0  0  0  0
   16.3106    5.2842   13.4293 C   0  0  0  0  0  0  0  0  0  0  0  0
   17.2940    5.9905   13.6266 O   0  0  0  0  0  0  0  0  0  0  0  0
   15.3829    5.5749   12.4568 N   0  0  0  0  0  0  0  0  0  0  0  0
   14.5500    5.0524   12.4065 H   0  0  0  0  0  0  0  0  0  0  0  0
   15.6210    6.6543   11.4943 C   0  0  0  0  0  0  0  0  0  0  0  0
   14.3755    7.4437   11.1031 C   0  0  0  0  0  0  0  0  0  0  0  0
   14.6232    8.7715   11.0590 F   0  0  0  0  0  0  0  0  0  0  0  0
   13.3805    7.2439   11.9991 F   0  0  0  0  0  0  0  0  0  0  0  0
   13.9176    7.0675    9.8896 F   0  0  0  0  0  0  0  0  0  0  0  0
  8  9  1  0
  9 10  2  0
  9 11  2  0
  9  1  1  0
  1  2  2  0
  2  3  1  0
  3  4  2  0
  4 14  1  0
 14 15  2  0
 14 16  1  0
 16 18  1  0
 18 19  1  0
 19 20  1  0
 19 21  1  0
 19 22  1  0
  4  5  1  0
  5  6  1  0
  5  7  2  0
  7  1  1  0
  8 12  1  0
  8 13  1  0
 16 17  1  0
M  END
> <minimizedAffinity>
-7.27426

> <CNNscore>
0.7593691349

> <CNNaffinity>
6.7820987701

> <CNN_VS>
5.1501164436

> <CNNaffinity_variance>
0.7428033948

$$$$



 22 22  0  0  0  0  0  0  0  0999 V2000
   19.4062    5.3949   13.2299 C   0  0  0  0  0  0  0  0  0  0  0  0
   19.4088    4.0576   12.8359 C   0  0  0  0  0  0  0  0  0  0  0  0
   18.4064    3.2060   13.3044 C   0  0  0  0  0  0  0  0  0  0  0  0
   17.3972    3.6758   14.1688 C   0  0  0  0  0  0  0  0  0  0  0  0
   17.4278    5.0193   14.5769 C   0  0  0  0  0  0  0  0  0  0  0  0
   16.2999    5.7075   15.6926 Cl  0  0  0  0  0  0  0  0  0  0  0  0
   18.4307    5.8775   14.1053 C   0  0  0  0  0  0  0  0  0  0  0  0
   19.9876    7.1459   11.2863 N   0  0  0  0  0  0  0  0  0  0  0  0
   20.6930    6.4725   12.6555 S   0  0  0  0  0  0  0  0  0  0  0  0
   21.8066    5.6581   12.2356 O   0  0  0  0  0  0  0  0  0  0  0  0
   20.8284    7.5574   13.5990 O   0  0  0  0  0  0  0  0  0  0  0  0
   20.6408    7.7990   10.8535 H   0  0  0  0  0  0  0  0  0  0  0  0
   19.1365    7.6418   11.5511 H   0  0  0  0  0  0  0  0  0  0  0  0
   16.3811    2.6658   14.5870 C   0  0  0  0  0  0  0  0  0  0  0  0
   15.4336    2.4155   13.8491 O   0  0  0  0  0  0  0  0  0  0  0  0
   16.5220    2.0799   15.8230 N   0  0  0  0  0  0  0  0  0  0  0  0
   17.2294    2.3924   16.4323 H   0  0  0  0  0  0  0  0  0  0  0  0
   15.6303    0.9951   16.2429 C   0  0  0  0  0  0  0  0  0  0  0  0
   14.5543    1.4075   17.2427 C   0  0  0  0  0  0  0  0  0  0  0  0
   14.0700    2.6394   16.9705 F   0  0  0  0  0  0  0  0  0  0  0  0
   15.0540    1.4345   18.5007 F   0  0  0  0  0  0  0  0  0  0  0  0
   13.5169    0.5429   17.2311 F   0  0  0  0  0  0  0  0  0  0  0  0
  8  9  1  0
  9 10  2  0
  9 11  2  0
  9  1  1  0
  1  2  2  0
  2  3  1  0
  3  4  2  0
  4 14  1  0
 14 15  2  0
 14 16  1  0
 16 18  1  0
 18 19  1  0
 19 20  1  0
 19 21  1  0
 19 22  1  0
  4  5  1  0
  5  6  1  0
  5  7  2  0
  7  1  1  0
  8 12  1  0
  8 13  1  0
 16 17  1  0
M  END
> <minimizedAffinity>
-6.10382

> <CNNscore>
0.7056494951

> <CNNaffinity>
5.3328833580

> <CNN_VS>
3.7631464005

> <CNNaffinity_variance>
0.2393884659

$$$$



 22 22  0  0  0  0  0  0  0  0999 V2000
   16.5737    1.7964   14.7767 C   0  0  0  0  0  0  0  0  0  0  0  0
   16.4808    3.0039   15.4673 C   0  0  0  0  0  0  0  0  0  0  0  0
   16.5615    4.2039   14.7580 C   0  0  0  0  0  0  0  0  0  0  0  0
   16.7376    4.2127   13.3597 C   0  0  0  0  0  0  0  0  0  0  0  0
   16.8573    2.9865   12.6855 C   0  0  0  0  0  0  0  0  0  0  0  0
   17.1530    2.8520   10.9870 Cl  0  0  0  0  0  0  0  0  0  0  0  0
   16.7731    1.7801   13.3943 C   0  0  0  0  0  0  0  0  0  0  0  0
   16.5373   -0.8617   14.4376 N   0  0  0  0  0  0  0  0  0  0  0  0
   16.4962    0.2711   15.6790 S   0  0  0  0  0  0  0  0  0  0  0  0
   15.2062    0.1930   16.3190 O   0  0  0  0  0  0  0  0  0  0  0  0
   17.7380    0.1079   16.3980 O   0  0  0  0  0  0  0  0  0  0  0  0
   16.4978   -1.8011   14.8331 H   0  0  0  0  0  0  0  0  0  0  0  0
   17.4010   -0.7525   13.9062 H   0  0  0  0  0  0  0  0  0  0  0  0
   16.7975    5.5613   12.7232 C   0  0  0  0  0  0  0  0  0  0  0  0
   17.6721    6.3534   13.0587 O   0  0  0  0  0  0  0  0  0  0  0  0
   15.8268    5.8870   11.8054 N   0  0  0  0  0  0  0  0  0  0  0  0
   15.0765    5.2688   11.6498 H   0  0  0  0  0  0  0  0  0  0  0  0
   15.8973    7.1448   11.0562 C   0  0  0  0  0  0  0  0  0  0  0  0
   14.5517    7.8282   10.8328 C   0  0  0  0  0  0  0  0  0  0  0  0
   14.0343    7.5214    9.6226 F   0  0  0  0  0  0  0  0  0  0  0  0
   14.6824    9.1745   10.8911 F   0  0  0  0  0  0  0  0  0  0  0  0
   13.6534    7.4614   11.7721 F   0  0  0  0  0  0  0  0  0  0  0  0
  8  9  1  0
  9 10  2  0
  9 11  2  0
  9  1  1  0
  1  2  2  0
  2  3  1  0
  3  4  2  0
  4 14  1  0
 14 15  2  0
 14 16  1  0
 16 18  1  0
 18 19  1  0
 19 20  1  0
 19 21  1  0
 19 22  1  0
  4  5  1  0
  5  6  1  0
  5  7  2  0
  7  1  1  0
  8 12  1  0
  8 13  1  0
 16 17  1  0
M  END
> <minimizedAffinity>
-6.93972

> <CNNscore>
0.6858724952

> <CNNaffinity>
6.1957678795

> <CNN_VS>
4.2495069504

> <CNNaffinity_variance>
0.3314853013

$$$$
