


 22 21  0  0  0  0  0  0  0  0999 V2000
    6.3448   -1.9468   20.3676 C   0  0  0  0  0  0  0  0  0  0  0  0
    5.3971   -2.4730   19.2699 C   0  0  0  0  0  0  0  0  0  0  0  0
    7.6637   -1.5129   19.7077 C   0  0  0  0  0  0  0  0  0  0  0  0
    6.7105   -3.1394   21.3220 C   0  0  0  0  0  0  0  0  0  0  0  0
    8.1926   -3.5400   21.3707 C   0  0  0  0  0  0  0  0  0  0  0  0
    8.9097   -3.1327   20.0795 C   0  0  0  0  0  0  0  0  0  0  0  0
   10.1588   -3.9687   19.7847 C   0  0  0  0  0  0  0  0  0  0  0  0
   11.0348   -3.4760   18.6285 C   0  0  0  0  0  0  0  0  0  0  0  0
   10.2851   -2.9944   17.3833 C   0  0  0  0  0  0  0  0  0  0  0  0
   10.7946   -1.6556   16.8461 C   0  0  0  0  0  0  0  0  0  0  0  0
   11.9462   -1.8585   15.8588 C   0  0  0  0  0  0  0  0  0  0  0  0
   13.4874   -0.3936   14.5060 C   0  0  0  0  0  0  0  0  0  0  0  0
   12.0426   -0.6962   14.8716 C   0  0  0  0  0  0  0  0  0  0  0  0
    5.6717   -0.8172   21.2203 C   0  0  0  0  0  0  0  0  0  0  0  0
    4.2109   -0.2555   20.9988 C   0  0  0  0  0  0  0  0  0  0  0  0
    3.9819    0.0656   19.5162 C   0  0  0  0  0  0  0  0  0  0  0  0
    3.1525   -1.2614   21.4717 C   0  0  0  0  0  0  0  0  0  0  0  0
    4.1453    1.0538   21.8827 C   0  0  0  0  0  0  0  0  0  0  0  0
    2.8326    1.6866   22.4497 C   0  0  0  0  0  0  0  0  0  0  0  0
    1.7212    0.6149   22.2979 C   0  0  0  0  0  0  0  0  0  0  0  0
    2.9382    1.9991   23.9546 C   0  0  0  0  0  0  0  0  0  0  0  0
    2.3655    2.9381   21.6993 C   0  0  0  0  0  0  0  0  0  0  0  0
 12 13  1  0
 13 11  1  0
 11 10  1  0
 10  9  1  0
  9  8  1  0
  8  7  1  0
  7  6  1  0
  6  5  1  0
  5  4  1  0
  4  1  1  0
  1  2  1  0
  1  3  1  0
  1 14  1  0
 14 15  1  0
 15 16  1  0
 15 17  1  0
 15 18  1  0
 18 19  1  0
 19 20  1  0
 19 21  1  0
 19 22  1  0
M  END
> <minimizedAffinity>
-6.61390

> <CNNscore>
0.7371844053

> <CNNaffinity>
6.2890534401

> <CNN_VS>
4.6361923218

> <CNNaffinity_variance>
0.2490251511

$$$$



 22 21  0  0  0  0  0  0  0  0999 V2000
    3.9356   -0.2953   20.3977 C   0  0  0  0  0  0  0  0  0  0  0  0
    2.8532   -1.3300   20.0261 C   0  0  0  0  0  0  0  0  0  0  0  0
    3.9054    0.8378   19.3593 C   0  0  0  0  0  0  0  0  0  0  0  0
    5.3438   -0.9761   20.2544 C   0  0  0  0  0  0  0  0  0  0  0  0
    5.7710   -1.3585   18.8294 C   0  0  0  0  0  0  0  0  0  0  0  0
    7.0310   -2.2299   18.8536 C   0  0  0  0  0  0  0  0  0  0  0  0
    7.7411   -2.2393   20.2107 C   0  0  0  0  0  0  0  0  0  0  0  0
    7.8531   -3.6046   20.8965 C   0  0  0  0  0  0  0  0  0  0  0  0
    7.2819   -3.6864   22.3148 C   0  0  0  0  0  0  0  0  0  0  0  0
    7.5386   -5.0310   22.9978 C   0  0  0  0  0  0  0  0  0  0  0  0
    7.1881   -4.9706   24.4863 C   0  0  0  0  0  0  0  0  0  0  0  0
    5.0621   -6.1897   23.8987 C   0  0  0  0  0  0  0  0  0  0  0  0
    6.2235   -6.0900   24.8754 C   0  0  0  0  0  0  0  0  0  0  0  0
    3.7744    0.2057   21.8738 C   0  0  0  0  0  0  0  0  0  0  0  0
    2.6083    1.1346   22.3993 C   0  0  0  0  0  0  0  0  0  0  0  0
    1.2867    0.3570   22.4461 C   0  0  0  0  0  0  0  0  0  0  0  0
    2.9252    1.6855   23.7964 C   0  0  0  0  0  0  0  0  0  0  0  0
    2.5364    2.3193   21.3547 C   0  0  0  0  0  0  0  0  0  0  0  0
    3.1673    3.7350   21.5615 C   0  0  0  0  0  0  0  0  0  0  0  0
    4.5658    3.5100   22.1943 C   0  0  0  0  0  0  0  0  0  0  0  0
    3.4022    4.4696   20.2277 C   0  0  0  0  0  0  0  0  0  0  0  0
    2.3767    4.6406   22.5114 C   0  0  0  0  0  0  0  0  0  0  0  0
 12 13  1  0
 13 11  1  0
 11 10  1  0
 10  9  1  0
  9  8  1  0
  8  7  1  0
  7  6  1  0
  6  5  1  0
  5  4  1  0
  4  1  1  0
  1  2  1  0
  1  3  1  0
  1 14  1  0
 14 15  1  0
 15 16  1  0
 15 17  1  0
 15 18  1  0
 18 19  1  0
 19 20  1  0
 19 21  1  0
 19 22  1  0
M  END
> <minimizedAffinity>
-6.09567

> <CNNscore>
0.7125437856

> <CNNaffinity>
6.6223626137

> <CNN_VS>
4.7187232971

> <CNNaffinity_variance>
0.3116451800

$$$$



 22 21  0  0  0  0  0  0  0  0999 V2000
    3.9174   -0.1517   20.2302 C   0  0  0  0  0  0  0  0  0  0  0  0
    2.7490   -1.1312   19.9949 C   0  0  0  0  0  0  0  0  0  0  0  0
    3.8787    0.9272   19.1359 C   0  0  0  0  0  0  0  0  0  0  0  0
    5.2666   -0.9289   20.0239 C   0  0  0  0  0  0  0  0  0  0  0  0
    5.2965   -2.3813   20.5231 C   0  0  0  0  0  0  0  0  0  0  0  0
    6.4612   -2.5999   21.4942 C   0  0  0  0  0  0  0  0  0  0  0  0
    7.0936   -3.9907   21.3864 C   0  0  0  0  0  0  0  0  0  0  0  0
    7.8141   -4.4960   22.6404 C   0  0  0  0  0  0  0  0  0  0  0  0
    8.4679   -3.4201   23.5119 C   0  0  0  0  0  0  0  0  0  0  0  0
    9.1899   -3.9848   24.7367 C   0  0  0  0  0  0  0  0  0  0  0  0
    8.1934   -4.4260   25.8110 C   0  0  0  0  0  0  0  0  0  0  0  0
   10.3522   -4.2385   27.0977 C   0  0  0  0  0  0  0  0  0  0  0  0
    8.8840   -4.6303   27.1587 C   0  0  0  0  0  0  0  0  0  0  0  0
    3.8985    0.4325   21.6843 C   0  0  0  0  0  0  0  0  0  0  0  0
    2.6526    1.1164   22.3761 C   0  0  0  0  0  0  0  0  0  0  0  0
    1.4612    0.1504   22.4042 C   0  0  0  0  0  0  0  0  0  0  0  0
    2.9859    1.5563   23.8083 C   0  0  0  0  0  0  0  0  0  0  0  0
    2.3400    2.3816   21.4811 C   0  0  0  0  0  0  0  0  0  0  0  0
    3.0606    3.7642   21.6019 C   0  0  0  0  0  0  0  0  0  0  0  0
    4.4631    3.4830   22.2025 C   0  0  0  0  0  0  0  0  0  0  0  0
    3.2953    4.4218   20.2285 C   0  0  0  0  0  0  0  0  0  0  0  0
    2.3569    4.7584   22.5311 C   0  0  0  0  0  0  0  0  0  0  0  0
 12 13  1  0
 13 11  1  0
 11 10  1  0
 10  9  1  0
  9  8  1  0
  8  7  1  0
  7  6  1  0
  6  5  1  0
  5  4  1  0
  4  1  1  0
  1  2  1  0
  1  3  1  0
  1 14  1  0
 14 15  1  0
 15 16  1  0
 15 17  1  0
 15 18  1  0
 18 19  1  0
 19 20  1  0
 19 21  1  0
 19 22  1  0
M  END
> <minimizedAffinity>
-6.31405

> <CNNscore>
0.6679067016

> <CNNaffinity>
6.5480690002

> <CNN_VS>
4.3734993935

> <CNNaffinity_variance>
0.2125334591

$$$$



 22 21  0  0  0  0  0  0  0  0999 V2000
    3.8039   -0.5831   20.1908 C   0  0  0  0  0  0  0  0  0  0  0  0
    2.7117   -1.5460   19.6810 C   0  0  0  0  0  0  0  0  0  0  0  0
    3.8832    0.6169   19.2332 C   0  0  0  0  0  0  0  0  0  0  0  0
    5.1929   -1.3093   20.0903 C   0  0  0  0  0  0  0  0  0  0  0  0
    5.4471   -2.4320   21.1073 C   0  0  0  0  0  0  0  0  0  0  0  0
    6.5207   -3.3979   20.5957 C   0  0  0  0  0  0  0  0  0  0  0  0
    7.9188   -2.7761   20.5266 C   0  0  0  0  0  0  0  0  0  0  0  0
    8.3989   -2.3653   19.1311 C   0  0  0  0  0  0  0  0  0  0  0  0
    9.9164   -2.2711   18.9497 C   0  0  0  0  0  0  0  0  0  0  0  0
   10.4989   -3.4007   18.0982 C   0  0  0  0  0  0  0  0  0  0  0  0
   10.7532   -2.9357   16.6625 C   0  0  0  0  0  0  0  0  0  0  0  0
   11.8058   -1.1522   15.2263 C   0  0  0  0  0  0  0  0  0  0  0  0
   11.3788   -1.5419   16.6329 C   0  0  0  0  0  0  0  0  0  0  0  0
    3.5640   -0.1752   21.6848 C   0  0  0  0  0  0  0  0  0  0  0  0
    2.7719    1.1059   22.1644 C   0  0  0  0  0  0  0  0  0  0  0  0
    1.2664    0.8151   22.2130 C   0  0  0  0  0  0  0  0  0  0  0  0
    3.2472    1.5653   23.5496 C   0  0  0  0  0  0  0  0  0  0  0  0
    3.1046    2.2119   21.0847 C   0  0  0  0  0  0  0  0  0  0  0  0
    3.1408    3.7506   21.3607 C   0  0  0  0  0  0  0  0  0  0  0  0
    3.5886    4.4286   20.0391 C   0  0  0  0  0  0  0  0  0  0  0  0
    1.7471    4.3166   21.6938 C   0  0  0  0  0  0  0  0  0  0  0  0
    4.1357    4.1688   22.4482 C   0  0  0  0  0  0  0  0  0  0  0  0
 12 13  1  0
 13 11  1  0
 11 10  1  0
 10  9  1  0
  9  8  1  0
  8  7  1  0
  7  6  1  0
  6  5  1  0
  5  4  1  0
  4  1  1  0
  1  2  1  0
  1  3  1  0
  1 14  1  0
 14 15  1  0
 15 16  1  0
 15 17  1  0
 15 18  1  0
 18 19  1  0
 19 20  1  0
 19 21  1  0
 19 22  1  0
M  END
> <minimizedAffinity>
-6.20250

> <CNNscore>
0.6367890835

> <CNNaffinity>
6.0116024017

> <CNN_VS>
3.8281228542

> <CNNaffinity_variance>
0.4532013237

$$$$



 22 21  0  0  0  0  0  0  0  0999 V2000
    5.6037   -1.8313   20.7307 C   0  0  0  0  0  0  0  0  0  0  0  0
    5.5372   -1.4201   19.2452 C   0  0  0  0  0  0  0  0  0  0  0  0
    6.7223   -1.0258   21.4111 C   0  0  0  0  0  0  0  0  0  0  0  0
    6.0448   -3.3367   20.8102 C   0  0  0  0  0  0  0  0  0  0  0  0
    7.5570   -3.6037   20.7738 C   0  0  0  0  0  0  0  0  0  0  0  0
    7.9089   -4.8556   21.5840 C   0  0  0  0  0  0  0  0  0  0  0  0
    7.7342   -4.6744   23.0949 C   0  0  0  0  0  0  0  0  0  0  0  0
    8.5264   -3.5250   23.7258 C   0  0  0  0  0  0  0  0  0  0  0  0
    9.4716   -3.9145   24.8657 C   0  0  0  0  0  0  0  0  0  0  0  0
    8.9958   -3.4397   26.2400 C   0  0  0  0  0  0  0  0  0  0  0  0
    9.1628   -4.5381   27.2925 C   0  0  0  0  0  0  0  0  0  0  0  0
    7.2465   -3.6137   28.6432 C   0  0  0  0  0  0  0  0  0  0  0  0
    7.8366   -4.8507   27.9841 C   0  0  0  0  0  0  0  0  0  0  0  0
    4.2113   -1.6843   21.4345 C   0  0  0  0  0  0  0  0  0  0  0  0
    2.9960   -0.8370   20.8834 C   0  0  0  0  0  0  0  0  0  0  0  0
    2.7069   -1.2063   19.4228 C   0  0  0  0  0  0  0  0  0  0  0  0
    1.7336   -1.0651   21.7262 C   0  0  0  0  0  0  0  0  0  0  0  0
    3.4650    0.6676   21.0091 C   0  0  0  0  0  0  0  0  0  0  0  0
    3.0456    1.6435   22.1567 C   0  0  0  0  0  0  0  0  0  0  0  0
    4.1589    2.7196   22.2538 C   0  0  0  0  0  0  0  0  0  0  0  0
    1.7379    2.3927   21.8367 C   0  0  0  0  0  0  0  0  0  0  0  0
    2.9308    0.9799   23.5328 C   0  0  0  0  0  0  0  0  0  0  0  0
 12 13  1  0
 13 11  1  0
 11 10  1  0
 10  9  1  0
  9  8  1  0
  8  7  1  0
  7  6  1  0
  6  5  1  0
  5  4  1  0
  4  1  1  0
  1  2  1  0
  1  3  1  0
  1 14  1  0
 14 15  1  0
 15 16  1  0
 15 17  1  0
 15 18  1  0
 18 19  1  0
 19 20  1  0
 19 21  1  0
 19 22  1  0
M  END
> <minimizedAffinity>
-5.86060

> <CNNscore>
0.5946325064

> <CNNaffinity>
6.4795613289

> <CNN_VS>
3.8529577255

> <CNNaffinity_variance>
0.0828221738

$$$$



 22 21  0  0  0  0  0  0  0  0999 V2000
    5.9285   -1.7355   20.3992 C   0  0  0  0  0  0  0  0  0  0  0  0
    5.7083   -3.2550   20.5500 C   0  0  0  0  0  0  0  0  0  0  0  0
    5.7061   -1.3532   18.9270 C   0  0  0  0  0  0  0  0  0  0  0  0
    7.4362   -1.4191   20.7053 C   0  0  0  0  0  0  0  0  0  0  0  0
    8.1152   -0.3941   19.7846 C   0  0  0  0  0  0  0  0  0  0  0  0
    9.4400   -0.9414   19.2434 C   0  0  0  0  0  0  0  0  0  0  0  0
    9.2908   -2.2653   18.4878 C   0  0  0  0  0  0  0  0  0  0  0  0
   10.5942   -3.0091   18.1798 C   0  0  0  0  0  0  0  0  0  0  0  0
   10.9812   -3.0901   16.7006 C   0  0  0  0  0  0  0  0  0  0  0  0
   12.1929   -2.2284   16.3404 C   0  0  0  0  0  0  0  0  0  0  0  0
   13.2160   -3.0255   15.5279 C   0  0  0  0  0  0  0  0  0  0  0  0
   14.1431   -5.3457   15.1986 C   0  0  0  0  0  0  0  0  0  0  0  0
   13.5213   -4.3704   16.1859 C   0  0  0  0  0  0  0  0  0  0  0  0
    5.0376   -0.9200   21.3979 C   0  0  0  0  0  0  0  0  0  0  0  0
    3.5774   -0.3945   21.0971 C   0  0  0  0  0  0  0  0  0  0  0  0
    3.0341   -1.0346   19.8131 C   0  0  0  0  0  0  0  0  0  0  0  0
    2.6265   -0.7024   22.2619 C   0  0  0  0  0  0  0  0  0  0  0  0
    3.7393    1.1693   20.9304 C   0  0  0  0  0  0  0  0  0  0  0  0
    3.3413    2.2307   22.0076 C   0  0  0  0  0  0  0  0  0  0  0  0
    1.8665    2.6198   21.7241 C   0  0  0  0  0  0  0  0  0  0  0  0
    3.3761    1.6539   23.4358 C   0  0  0  0  0  0  0  0  0  0  0  0
    4.1710    3.5176   21.9556 C   0  0  0  0  0  0  0  0  0  0  0  0
 12 13  1  0
 13 11  1  0
 11 10  1  0
 10  9  1  0
  9  8  1  0
  8  7  1  0
  7  6  1  0
  6  5  1  0
  5  4  1  0
  4  1  1  0
  1  2  1  0
  1  3  1  0
  1 14  1  0
 14 15  1  0
 15 16  1  0
 15 17  1  0
 15 18  1  0
 18 19  1  0
 19 20  1  0
 19 21  1  0
 19 22  1  0
M  END
> <minimizedAffinity>
-5.88021

> <CNNscore>
0.5888974071

> <CNNaffinity>
5.8158354759

> <CNN_VS>
3.4249303341

> <CNNaffinity_variance>
0.4195564687

$$$$



 22 21  0  0  0  0  0  0  0  0999 V2000
    4.5367   -1.2008   19.6587 C   0  0  0  0  0  0  0  0  0  0  0  0
    5.2025   -0.2772   18.6175 C   0  0  0  0  0  0  0  0  0  0  0  0
    3.0982   -1.4940   19.2030 C   0  0  0  0  0  0  0  0  0  0  0  0
    4.4099   -0.4136   21.0120 C   0  0  0  0  0  0  0  0  0  0  0  0
    3.9115    1.0357   20.9101 C   0  0  0  0  0  0  0  0  0  0  0  0
    4.0588    1.7582   22.2531 C   0  0  0  0  0  0  0  0  0  0  0  0
    2.8537    1.5750   23.1807 C   0  0  0  0  0  0  0  0  0  0  0  0
    1.5466    1.1532   22.5022 C   0  0  0  0  0  0  0  0  0  0  0  0
    1.1255   -0.3034   22.7151 C   0  0  0  0  0  0  0  0  0  0  0  0
    1.6568   -0.9065   24.0169 C   0  0  0  0  0  0  0  0  0  0  0  0
    0.7209   -1.9970   24.5431 C   0  0  0  0  0  0  0  0  0  0  0  0
   -0.0736   -2.6408   26.8465 C   0  0  0  0  0  0  0  0  0  0  0  0
    1.1340   -2.4563   25.9407 C   0  0  0  0  0  0  0  0  0  0  0  0
    5.3868   -2.4924   19.9136 C   0  0  0  0  0  0  0  0  0  0  0  0
    6.9132   -2.5132   20.3238 C   0  0  0  0  0  0  0  0  0  0  0  0
    7.8020   -2.4853   19.0736 C   0  0  0  0  0  0  0  0  0  0  0  0
    7.2618   -1.3197   21.2236 C   0  0  0  0  0  0  0  0  0  0  0  0
    7.0962   -3.8647   21.1237 C   0  0  0  0  0  0  0  0  0  0  0  0
    8.4660   -4.4337   21.6190 C   0  0  0  0  0  0  0  0  0  0  0  0
    8.7051   -3.8461   23.0348 C   0  0  0  0  0  0  0  0  0  0  0  0
    8.4378   -5.9658   21.7788 C   0  0  0  0  0  0  0  0  0  0  0  0
    9.6622   -4.0322   20.7501 C   0  0  0  0  0  0  0  0  0  0  0  0
 12 13  1  0
 13 11  1  0
 11 10  1  0
 10  9  1  0
  9  8  1  0
  8  7  1  0
  7  6  1  0
  6  5  1  0
  5  4  1  0
  4  1  1  0
  1  2  1  0
  1  3  1  0
  1 14  1  0
 14 15  1  0
 15 16  1  0
 15 17  1  0
 15 18  1  0
 18 19  1  0
 19 20  1  0
 19 21  1  0
 19 22  1  0
M  END
> <minimizedAffinity>
-6.94605

> <CNNscore>
0.5124537945

> <CNNaffinity>
6.3180732727

> <CNN_VS>
3.2377207279

> <CNNaffinity_variance>
0.2291146964

$$$$



 22 21  0  0  0  0  0  0  0  0999 V2000
    7.3046   -3.3850   21.7016 C   0  0  0  0  0  0  0  0  0  0  0  0
    7.7480   -2.1840   22.5624 C   0  0  0  0  0  0  0  0  0  0  0  0
    5.7682   -3.4205   21.6667 C   0  0  0  0  0  0  0  0  0  0  0  0
    7.7516   -4.7061   22.4242 C   0  0  0  0  0  0  0  0  0  0  0  0
    6.7397   -5.8617   22.4128 C   0  0  0  0  0  0  0  0  0  0  0  0
    6.1690   -6.1000   23.8145 C   0  0  0  0  0  0  0  0  0  0  0  0
    6.7916   -5.2026   24.8883 C   0  0  0  0  0  0  0  0  0  0  0  0
    6.8503   -5.7931   26.3007 C   0  0  0  0  0  0  0  0  0  0  0  0
    7.8617   -5.1467   27.2513 C   0  0  0  0  0  0  0  0  0  0  0  0
    7.5581   -3.6787   27.5565 C   0  0  0  0  0  0  0  0  0  0  0  0
    7.2887   -3.4687   29.0483 C   0  0  0  0  0  0  0  0  0  0  0  0
    7.1102   -5.1112   30.9514 C   0  0  0  0  0  0  0  0  0  0  0  0
    8.0233   -4.5060   29.8966 C   0  0  0  0  0  0  0  0  0  0  0  0
    7.9612   -3.3509   20.2790 C   0  0  0  0  0  0  0  0  0  0  0  0
    7.8248   -2.1675   19.2400 C   0  0  0  0  0  0  0  0  0  0  0  0
    6.3548   -1.9672   18.8495 C   0  0  0  0  0  0  0  0  0  0  0  0
    8.3824   -0.8581   19.8147 C   0  0  0  0  0  0  0  0  0  0  0  0
    8.6884   -2.6229   17.9964 C   0  0  0  0  0  0  0  0  0  0  0  0
   10.2390   -2.4612   17.8754 C   0  0  0  0  0  0  0  0  0  0  0  0
   10.8698   -3.4682   18.8727 C   0  0  0  0  0  0  0  0  0  0  0  0
   10.7583   -2.8452   16.4766 C   0  0  0  0  0  0  0  0  0  0  0  0
   10.7544   -1.0670   18.2470 C   0  0  0  0  0  0  0  0  0  0  0  0
 12 13  1  0
 13 11  1  0
 11 10  1  0
 10  9  1  0
  9  8  1  0
  8  7  1  0
  7  6  1  0
  6  5  1  0
  5  4  1  0
  4  1  1  0
  1  2  1  0
  1  3  1  0
  1 14  1  0
 14 15  1  0
 15 16  1  0
 15 17  1  0
 15 18  1  0
 18 19  1  0
 19 20  1  0
 19 21  1  0
 19 22  1  0
M  END
> <minimizedAffinity>
-5.68598

> <CNNscore>
0.4465611577

> <CNNaffinity>
5.9215435982

> <CNN_VS>
2.6443314552

> <CNNaffinity_variance>
0.3419721127

$$$$



 22 21  0  0  0  0  0  0  0  0999 V2000
    3.3873   -0.8419   21.0133 C   0  0  0  0  0  0  0  0  0  0  0  0
    2.7982   -1.7037   22.1492 C   0  0  0  0  0  0  0  0  0  0  0  0
    2.7699   -1.2997   19.6820 C   0  0  0  0  0  0  0  0  0  0  0  0
    4.9244   -1.1463   20.9046 C   0  0  0  0  0  0  0  0  0  0  0  0
    5.3661   -1.9875   19.6977 C   0  0  0  0  0  0  0  0  0  0  0  0
    6.5991   -2.8292   20.0422 C   0  0  0  0  0  0  0  0  0  0  0  0
    7.8739   -2.3646   19.3314 C   0  0  0  0  0  0  0  0  0  0  0  0
    8.3552   -0.9522   19.6785 C   0  0  0  0  0  0  0  0  0  0  0  0
    9.6087   -0.4755   18.9395 C   0  0  0  0  0  0  0  0  0  0  0  0
   10.5980   -1.6008   18.6305 C   0  0  0  0  0  0  0  0  0  0  0  0
   10.8375   -1.7279   17.1243 C   0  0  0  0  0  0  0  0  0  0  0  0
   12.2427   -3.6881   16.3936 C   0  0  0  0  0  0  0  0  0  0  0  0
   10.8350   -3.1909   16.6833 C   0  0  0  0  0  0  0  0  0  0  0  0
    3.2031    0.6890   21.2936 C   0  0  0  0  0  0  0  0  0  0  0  0
    2.2335    1.3071   22.3782 C   0  0  0  0  0  0  0  0  0  0  0  0
    0.9767    0.4400   22.5264 C   0  0  0  0  0  0  0  0  0  0  0  0
    2.9313    1.4302   23.7398 C   0  0  0  0  0  0  0  0  0  0  0  0
    1.8735    2.7433   21.8238 C   0  0  0  0  0  0  0  0  0  0  0  0
    2.9045    3.8931   21.5788 C   0  0  0  0  0  0  0  0  0  0  0  0
    4.2019    3.4938   22.3299 C   0  0  0  0  0  0  0  0  0  0  0  0
    3.2831    4.0304   20.0917 C   0  0  0  0  0  0  0  0  0  0  0  0
    2.4637    5.2562   22.1221 C   0  0  0  0  0  0  0  0  0  0  0  0
 12 13  1  0
 13 11  1  0
 11 10  1  0
 10  9  1  0
  9  8  1  0
  8  7  1  0
  7  6  1  0
  6  5  1  0
  5  4  1  0
  4  1  1  0
  1  2  1  0
  1  3  1  0
  1 14  1  0
 14 15  1  0
 15 16  1  0
 15 17  1  0
 15 18  1  0
 18 19  1  0
 19 20  1  0
 19 21  1  0
 19 22  1  0
M  END
> <minimizedAffinity>
-6.87345

> <CNNscore>
0.4423413575

> <CNNaffinity>
5.9141025543

> <CNN_VS>
2.6160521507

> <CNNaffinity_variance>
0.4798847735

$$$$
