


 29 31  0  0  0  0  0  0  0  0999 V2000
   28.3593   66.2144    8.1936 C   0  0  0  0  0  0  0  0  0  0  0  0
   28.2260   66.5171    6.6886 C   0  0  0  0  0  0  0  0  0  0  0  0
   29.4857   66.1644    5.8989 C   0  0  0  0  0  0  0  0  0  0  0  0
   30.7260   66.0581    6.7808 C   0  0  0  0  0  0  0  0  0  0  0  0
   31.8762   66.2475    5.9541 O   0  0  0  0  0  0  0  0  0  0  0  0
   30.6726   67.0954    7.9241 C   0  0  0  0  0  0  0  0  0  0  0  0
   31.8621   67.0171    8.9009 C   0  0  0  0  0  0  0  0  0  0  0  0
   33.0543   66.4546    8.3480 O   0  0  0  0  0  0  0  0  0  0  0  0
   31.3306   66.1475   10.0314 C   0  0  0  0  0  0  0  0  0  0  0  0
   31.4484   64.7566    9.7169 O   0  0  0  0  0  0  0  0  0  0  0  0
   29.8629   66.5473   10.1162 C   0  0  0  0  0  0  0  0  0  0  0  0
   29.4543   67.0262    8.7742 N   0  0  0  0  0  0  0  0  0  0  0  0
   31.8340   67.1222    5.5369 H   0  0  0  0  0  0  0  0  0  0  0  0
   32.8748   65.5510    8.0443 H   0  0  0  0  0  0  0  0  0  0  0  0
   30.9768   64.5711    8.8899 H   0  0  0  0  0  0  0  0  0  0  0  0
   27.0277   66.5256    8.9075 C   0  0  0  0  0  0  0  0  0  0  0  0
   26.6673   65.3960    9.8525 C   0  0  0  0  0  0  0  0  0  0  0  0
   27.2807   64.3349    9.9050 O   0  0  0  0  0  0  0  0  0  0  0  0
   23.5238   65.9463   12.7401 C   0  0  0  0  0  0  0  0  0  0  0  0
   23.9126   64.6710   12.2834 C   0  0  0  0  0  0  0  0  0  0  0  0
   24.9211   64.5140   11.3293 C   0  0  0  0  0  0  0  0  0  0  0  0
   25.5744   65.6341   10.8149 C   0  0  0  0  0  0  0  0  0  0  0  0
   25.1944   66.9113   11.2263 C   0  0  0  0  0  0  0  0  0  0  0  0
   25.9085   68.3448   10.5797 Cl  0  0  0  0  0  0  0  0  0  0  0  0
   24.1794   67.0603   12.1825 C   0  0  0  0  0  0  0  0  0  0  0  0
   21.9566   67.5469   13.9041 C   0  0  0  0  0  0  0  0  0  0  0  0
   22.4254   66.0788   13.8105 C   0  0  0  0  0  0  0  0  0  0  0  0
   21.2259   65.1850   13.4263 C   0  0  0  0  0  0  0  0  0  0  0  0
   22.8767   65.6529   15.2264 C   0  0  0  0  0  0  0  0  0  0  0  0
 26 27  1  0
 27 28  1  0
 27 29  1  0
 27 19  1  0
 19 20  2  0
 20 21  1  0
 21 22  2  0
 22 17  1  0
 17 18  2  0
 17 16  1  0
  1 16  1  0
  1  2  1  0
  2  3  1  0
  3  4  1  0
  4  5  1  0
  4  6  1  0
  6  7  1  0
  7  8  1  0
  7  9  1  0
  9 10  1  0
  9 11  1  0
 11 12  1  0
 22 23  1  0
 23 24  1  0
 23 25  2  0
 25 19  1  0
 12  1  1  0
  6 12  1  0
  5 13  1  0
  8 14  1  0
 10 15  1  0
M  END
> <minimizedAffinity>
-7.18441

> <CNNscore>
0.6613440514

> <CNNaffinity>
6.4177970886

> <CNN_VS>
4.2443718910

> <CNNaffinity_variance>
0.1822848171

$$$$



 29 31  0  0  0  0  0  0  0  0999 V2000
   27.5543   66.1742    7.6402 C   0  0  0  0  0  0  0  0  0  0  0  0
   27.8938   66.7897    6.2689 C   0  0  0  0  0  0  0  0  0  0  0  0
   29.3256   66.4945    5.8246 C   0  0  0  0  0  0  0  0  0  0  0  0
   30.2348   66.0986    6.9838 C   0  0  0  0  0  0  0  0  0  0  0  0
   31.5865   66.3492    6.5936 O   0  0  0  0  0  0  0  0  0  0  0  0
   29.8596   66.8800    8.2624 C   0  0  0  0  0  0  0  0  0  0  0  0
   30.6922   66.4965    9.5013 C   0  0  0  0  0  0  0  0  0  0  0  0
   31.9826   65.9543    9.2107 O   0  0  0  0  0  0  0  0  0  0  0  0
   29.8207   65.4650   10.2036 C   0  0  0  0  0  0  0  0  0  0  0  0
   29.9958   64.1633    9.6360 O   0  0  0  0  0  0  0  0  0  0  0  0
   28.4069   65.9693    9.9422 C   0  0  0  0  0  0  0  0  0  0  0  0
   28.4388   66.7479    8.6812 N   0  0  0  0  0  0  0  0  0  0  0  0
   31.6944   67.2910    6.3880 H   0  0  0  0  0  0  0  0  0  0  0  0
   31.8830   65.1521    8.6746 H   0  0  0  0  0  0  0  0  0  0  0  0
   29.7948   64.1944    8.6876 H   0  0  0  0  0  0  0  0  0  0  0  0
   26.0762   66.4509    7.9839 C   0  0  0  0  0  0  0  0  0  0  0  0
   25.3928   65.1678    8.4148 C   0  0  0  0  0  0  0  0  0  0  0  0
   25.2492   64.1967    7.6790 O   0  0  0  0  0  0  0  0  0  0  0  0
   24.0260   64.9917   12.4920 C   0  0  0  0  0  0  0  0  0  0  0  0
   24.1189   66.2044   11.7802 C   0  0  0  0  0  0  0  0  0  0  0  0
   24.5855   66.2438   10.4638 C   0  0  0  0  0  0  0  0  0  0  0  0
   24.9621   65.0637    9.8222 C   0  0  0  0  0  0  0  0  0  0  0  0
   24.9075   63.8508   10.5082 C   0  0  0  0  0  0  0  0  0  0  0  0
   25.4251   62.3619    9.8024 Cl  0  0  0  0  0  0  0  0  0  0  0  0
   24.4403   63.8202   11.8302 C   0  0  0  0  0  0  0  0  0  0  0  0
   24.6520   65.1077   14.9348 C   0  0  0  0  0  0  0  0  0  0  0  0
   23.4839   64.9843   13.9328 C   0  0  0  0  0  0  0  0  0  0  0  0
   22.5216   66.1771   14.1236 C   0  0  0  0  0  0  0  0  0  0  0  0
   22.7010   63.7029   14.3003 C   0  0  0  0  0  0  0  0  0  0  0  0
 26 27  1  0
 27 28  1  0
 27 29  1  0
 27 19  1  0
 19 20  2  0
 20 21  1  0
 21 22  2  0
 22 17  1  0
 17 18  2  0
 17 16  1  0
  1 16  1  0
  1  2  1  0
  2  3  1  0
  3  4  1  0
  4  5  1  0
  4  6  1  0
  6  7  1  0
  7  8  1  0
  7  9  1  0
  9 10  1  0
  9 11  1  0
 11 12  1  0
 22 23  1  0
 23 24  1  0
 23 25  2  0
 25 19  1  0
 12  1  1  0
  6 12  1  0
  5 13  1  0
  8 14  1  0
 10 15  1  0
M  END
> <minimizedAffinity>
-8.58973

> <CNNscore>
0.4328287244

> <CNNaffinity>
6.3961334229

> <CNN_VS>
2.7684302330

> <CNNaffinity_variance>
0.0927546248

$$$$



 29 31  0  0  0  0  0  0  0  0999 V2000
   29.8640   66.1778   18.5805 C   0  0  0  0  0  0  0  0  0  0  0  0
   29.2159   66.3676   19.9655 C   0  0  0  0  0  0  0  0  0  0  0  0
   27.7327   66.0008   19.9814 C   0  0  0  0  0  0  0  0  0  0  0  0
   27.1092   65.9985   18.5892 C   0  0  0  0  0  0  0  0  0  0  0  0
   25.6974   66.1659   18.7345 O   0  0  0  0  0  0  0  0  0  0  0  0
   27.7250   67.1125   17.7141 C   0  0  0  0  0  0  0  0  0  0  0  0
   27.1931   67.1432   16.2680 C   0  0  0  0  0  0  0  0  0  0  0  0
   25.8894   66.5819   16.0979 O   0  0  0  0  0  0  0  0  0  0  0  0
   28.2300   66.3396   15.4960 C   0  0  0  0  0  0  0  0  0  0  0  0
   27.9803   64.9345   15.5982 O   0  0  0  0  0  0  0  0  0  0  0  0
   29.5361   66.6963   16.1948 C   0  0  0  0  0  0  0  0  0  0  0  0
   29.2064   67.0644   17.5923 N   0  0  0  0  0  0  0  0  0  0  0  0
   25.5160   67.0067   19.1829 H   0  0  0  0  0  0  0  0  0  0  0  0
   25.8979   65.6536   16.3789 H   0  0  0  0  0  0  0  0  0  0  0  0
   27.9707   64.6749   16.5328 H   0  0  0  0  0  0  0  0  0  0  0  0
   31.3713   66.4954   18.6627 C   0  0  0  0  0  0  0  0  0  0  0  0
   31.5783   67.9139   19.1564 C   0  0  0  0  0  0  0  0  0  0  0  0
   31.1815   68.3170   20.2450 O   0  0  0  0  0  0  0  0  0  0  0  0
   34.0128   70.4283   16.6516 C   0  0  0  0  0  0  0  0  0  0  0  0
   34.5564   69.3839   17.4262 C   0  0  0  0  0  0  0  0  0  0  0  0
   33.7524   68.5920   18.2499 C   0  0  0  0  0  0  0  0  0  0  0  0
   32.3776   68.8209   18.3104 C   0  0  0  0  0  0  0  0  0  0  0  0
   31.8130   69.8640   17.5769 C   0  0  0  0  0  0  0  0  0  0  0  0
   30.1318   70.2512   17.6582 Cl  0  0  0  0  0  0  0  0  0  0  0  0
   32.6274   70.6559   16.7544 C   0  0  0  0  0  0  0  0  0  0  0  0
   34.5602   72.7595   15.8523 C   0  0  0  0  0  0  0  0  0  0  0  0
   34.9263   71.2640   15.7367 C   0  0  0  0  0  0  0  0  0  0  0  0
   36.3973   71.0658   16.1634 C   0  0  0  0  0  0  0  0  0  0  0  0
   34.8298   70.8850   14.2411 C   0  0  0  0  0  0  0  0  0  0  0  0
 26 27  1  0
 27 28  1  0
 27 29  1  0
 27 19  1  0
 19 20  2  0
 20 21  1  0
 21 22  2  0
 22 17  1  0
 17 18  2  0
 17 16  1  0
  1 16  1  0
  1  2  1  0
  2  3  1  0
  3  4  1  0
  4  5  1  0
  4  6  1  0
  6  7  1  0
  7  8  1  0
  7  9  1  0
  9 10  1  0
  9 11  1  0
 11 12  1  0
 22 23  1  0
 23 24  1  0
 23 25  2  0
 25 19  1  0
 12  1  1  0
  6 12  1  0
  5 13  1  0
  8 14  1  0
 10 15  1  0
M  END
> <minimizedAffinity>
-6.42750

> <CNNscore>
0.3233783245

> <CNNaffinity>
4.7618179321

> <CNN_VS>
1.5398687124

> <CNNaffinity_variance>
0.2681818902

$$$$



 29 31  0  0  0  0  0  0  0  0999 V2000
   24.6680   64.2937   12.8087 C   0  0  0  0  0  0  0  0  0  0  0  0
   24.6280   64.0295   11.2911 C   0  0  0  0  0  0  0  0  0  0  0  0
   25.9240   63.4174   10.7615 C   0  0  0  0  0  0  0  0  0  0  0  0
   27.1088   63.6413   11.6959 C   0  0  0  0  0  0  0  0  0  0  0  0
   28.3084   63.5207   10.9288 O   0  0  0  0  0  0  0  0  0  0  0  0
   27.0100   65.0226   12.3803 C   0  0  0  0  0  0  0  0  0  0  0  0
   28.1393   65.3068   13.3899 C   0  0  0  0  0  0  0  0  0  0  0  0
   29.3500   64.5849   13.1523 O   0  0  0  0  0  0  0  0  0  0  0  0
   27.5261   64.9053   14.7239 C   0  0  0  0  0  0  0  0  0  0  0  0
   27.6341   63.4954   14.9424 O   0  0  0  0  0  0  0  0  0  0  0  0
   26.0641   65.3051   14.5682 C   0  0  0  0  0  0  0  0  0  0  0  0
   25.7435   65.2635   13.1215 N   0  0  0  0  0  0  0  0  0  0  0  0
   28.3079   64.1844   10.2213 H   0  0  0  0  0  0  0  0  0  0  0  0
   29.1704   63.6323   13.1862 H   0  0  0  0  0  0  0  0  0  0  0  0
   27.2075   63.0213   14.2116 H   0  0  0  0  0  0  0  0  0  0  0  0
   23.3038   64.8395   13.2786 C   0  0  0  0  0  0  0  0  0  0  0  0
   22.5922   63.8028   14.1258 C   0  0  0  0  0  0  0  0  0  0  0  0
   23.1290   62.7787   14.5359 O   0  0  0  0  0  0  0  0  0  0  0  0
   18.5037   64.5270   15.2582 C   0  0  0  0  0  0  0  0  0  0  0  0
   18.8564   64.0231   13.9902 C   0  0  0  0  0  0  0  0  0  0  0  0
   20.1911   63.8148   13.6334 C   0  0  0  0  0  0  0  0  0  0  0  0
   21.2085   64.0974   14.5450 C   0  0  0  0  0  0  0  0  0  0  0  0
   20.8939   64.6226   15.7980 C   0  0  0  0  0  0  0  0  0  0  0  0
   22.1036   65.0634   16.9492 Cl  0  0  0  0  0  0  0  0  0  0  0  0
   19.5518   64.8311   16.1474 C   0  0  0  0  0  0  0  0  0  0  0  0
   16.8728   64.8734   17.1537 C   0  0  0  0  0  0  0  0  0  0  0  0
   17.0210   64.7202   15.6246 C   0  0  0  0  0  0  0  0  0  0  0  0
   16.4841   65.9916   14.9313 C   0  0  0  0  0  0  0  0  0  0  0  0
   16.1117   63.5467   15.1934 C   0  0  0  0  0  0  0  0  0  0  0  0
 26 27  1  0
 27 28  1  0
 27 29  1  0
 27 19  1  0
 19 20  2  0
 20 21  1  0
 21 22  2  0
 22 17  1  0
 17 18  2  0
 17 16  1  0
  1 16  1  0
  1  2  1  0
  2  3  1  0
  3  4  1  0
  4  5  1  0
  4  6  1  0
  6  7  1  0
  7  8  1  0
  7  9  1  0
  9 10  1  0
  9 11  1  0
 11 12  1  0
 22 23  1  0
 23 24  1  0
 23 25  2  0
 25 19  1  0
 12  1  1  0
  6 12  1  0
  5 13  1  0
  8 14  1  0
 10 15  1  0
M  END
> <minimizedAffinity>
-7.46716

> <CNNscore>
0.2416711301

> <CNNaffinity>
4.8035798073

> <CNN_VS>
1.1608865261

> <CNNaffinity_variance>
0.1792435646

$$$$



 29 31  0  0  0  0  0  0  0  0999 V2000
   34.3922   69.4771   16.1956 C   0  0  0  0  0  0  0  0  0  0  0  0
   35.2783   70.7071   15.9191 C   0  0  0  0  0  0  0  0  0  0  0  0
   36.1819   71.0641   17.0984 C   0  0  0  0  0  0  0  0  0  0  0  0
   35.6946   70.4720   18.4172 C   0  0  0  0  0  0  0  0  0  0  0  0
   36.2498   71.2450   19.4832 O   0  0  0  0  0  0  0  0  0  0  0  0
   34.1509   70.4582   18.4713 C   0  0  0  0  0  0  0  0  0  0  0  0
   33.5717   69.8192   19.7486 C   0  0  0  0  0  0  0  0  0  0  0  0
   34.4399   69.8578   20.8835 O   0  0  0  0  0  0  0  0  0  0  0  0
   33.2984   68.3820   19.3285 C   0  0  0  0  0  0  0  0  0  0  0  0
   34.4803   67.5805   19.4179 O   0  0  0  0  0  0  0  0  0  0  0  0
   32.8639   68.5219   17.8748 C   0  0  0  0  0  0  0  0  0  0  0  0
   33.4922   69.7532   17.3396 N   0  0  0  0  0  0  0  0  0  0  0  0
   35.9585   72.1665   19.4001 H   0  0  0  0  0  0  0  0  0  0  0  0
   35.2627   69.3874   20.6773 H   0  0  0  0  0  0  0  0  0  0  0  0
   35.1785   67.9717   18.8699 H   0  0  0  0  0  0  0  0  0  0  0  0
   33.5672   69.1360   14.9375 C   0  0  0  0  0  0  0  0  0  0  0  0
   33.7844   70.1912   13.8706 C   0  0  0  0  0  0  0  0  0  0  0  0
   34.6847   70.1384   13.0390 O   0  0  0  0  0  0  0  0  0  0  0  0
   31.0318   73.4832   13.5408 C   0  0  0  0  0  0  0  0  0  0  0  0
   32.4131   73.6736   13.7454 C   0  0  0  0  0  0  0  0  0  0  0  0
   33.2879   72.5915   13.8714 C   0  0  0  0  0  0  0  0  0  0  0  0
   32.8003   71.2873   13.7849 C   0  0  0  0  0  0  0  0  0  0  0  0
   31.4347   71.0652   13.6100 C   0  0  0  0  0  0  0  0  0  0  0  0
   30.7511   69.4798   13.5662 Cl  0  0  0  0  0  0  0  0  0  0  0  0
   30.5630   72.1569   13.4869 C   0  0  0  0  0  0  0  0  0  0  0  0
   30.0663   75.5096   14.6960 C   0  0  0  0  0  0  0  0  0  0  0  0
   30.1022   74.6999   13.3819 C   0  0  0  0  0  0  0  0  0  0  0  0
   30.6287   75.6009   12.2432 C   0  0  0  0  0  0  0  0  0  0  0  0
   28.6420   74.3306   13.0335 C   0  0  0  0  0  0  0  0  0  0  0  0
 26 27  1  0
 27 28  1  0
 27 29  1  0
 27 19  1  0
 19 20  2  0
 20 21  1  0
 21 22  2  0
 22 17  1  0
 17 18  2  0
 17 16  1  0
  1 16  1  0
  1  2  1  0
  2  3  1  0
  3  4  1  0
  4  5  1  0
  4  6  1  0
  6  7  1  0
  7  8  1  0
  7  9  1  0
  9 10  1  0
  9 11  1  0
 11 12  1  0
 22 23  1  0
 23 24  1  0
 23 25  2  0
 25 19  1  0
 12  1  1  0
  6 12  1  0
  5 13  1  0
  8 14  1  0
 10 15  1  0
M  END
> <minimizedAffinity>
-7.13894

> <CNNscore>
0.2412305623

> <CNNaffinity>
4.1578369141

> <CNN_VS>
1.0029972792

> <CNNaffinity_variance>
1.0636749268

$$$$



 29 31  0  0  0  0  0  0  0  0999 V2000
   27.7289   67.9902   17.2184 C   0  0  0  0  0  0  0  0  0  0  0  0
   26.8200   67.6255   18.4081 C   0  0  0  0  0  0  0  0  0  0  0  0
   26.6187   66.1185   18.5604 C   0  0  0  0  0  0  0  0  0  0  0  0
   26.9314   65.3479   17.2816 C   0  0  0  0  0  0  0  0  0  0  0  0
   26.2467   64.0949   17.3394 O   0  0  0  0  0  0  0  0  0  0  0  0
   26.5159   66.1642   16.0377 C   0  0  0  0  0  0  0  0  0  0  0  0
   26.8521   65.4829   14.6968 C   0  0  0  0  0  0  0  0  0  0  0  0
   26.9500   64.0580   14.7576 O   0  0  0  0  0  0  0  0  0  0  0  0
   28.1912   66.0987   14.3168 C   0  0  0  0  0  0  0  0  0  0  0  0
   29.2747   65.4314   14.9709 O   0  0  0  0  0  0  0  0  0  0  0  0
   28.0705   67.5309   14.8225 C   0  0  0  0  0  0  0  0  0  0  0  0
   27.1131   67.5236   15.9543 N   0  0  0  0  0  0  0  0  0  0  0  0
   25.2922   64.2512   17.4130 H   0  0  0  0  0  0  0  0  0  0  0  0
   27.6450   63.8082   15.3864 H   0  0  0  0  0  0  0  0  0  0  0  0
   29.1418   65.4637   15.9312 H   0  0  0  0  0  0  0  0  0  0  0  0
   27.9437   69.5172   17.1759 C   0  0  0  0  0  0  0  0  0  0  0  0
   29.2873   69.8710   17.7829 C   0  0  0  0  0  0  0  0  0  0  0  0
   29.4725   70.0024   18.9885 O   0  0  0  0  0  0  0  0  0  0  0  0
   32.6698   70.3330   15.1622 C   0  0  0  0  0  0  0  0  0  0  0  0
   31.7159   71.3535   15.3483 C   0  0  0  0  0  0  0  0  0  0  0  0
   30.6126   71.1767   16.1870 C   0  0  0  0  0  0  0  0  0  0  0  0
   30.4426   69.9726   16.8706 C   0  0  0  0  0  0  0  0  0  0  0  0
   31.3542   68.9334   16.6868 C   0  0  0  0  0  0  0  0  0  0  0  0
   31.1684   67.3920   17.4433 Cl  0  0  0  0  0  0  0  0  0  0  0  0
   32.4577   69.1181   15.8412 C   0  0  0  0  0  0  0  0  0  0  0  0
   35.1433   70.8345   15.1062 C   0  0  0  0  0  0  0  0  0  0  0  0
   33.8859   70.5730   14.2493 C   0  0  0  0  0  0  0  0  0  0  0  0
   34.1198   69.3250   13.3700 C   0  0  0  0  0  0  0  0  0  0  0  0
   33.7245   71.7792   13.2960 C   0  0  0  0  0  0  0  0  0  0  0  0
 26 27  1  0
 27 28  1  0
 27 29  1  0
 27 19  1  0
 19 20  2  0
 20 21  1  0
 21 22  2  0
 22 17  1  0
 17 18  2  0
 17 16  1  0
  1 16  1  0
  1  2  1  0
  2  3  1  0
  3  4  1  0
  4  5  1  0
  4  6  1  0
  6  7  1  0
  7  8  1  0
  7  9  1  0
  9 10  1  0
  9 11  1  0
 11 12  1  0
 22 23  1  0
 23 24  1  0
 23 25  2  0
 25 19  1  0
 12  1  1  0
  6 12  1  0
  5 13  1  0
  8 14  1  0
 10 15  1  0
M  END
> <minimizedAffinity>
-6.18774

> <CNNscore>
0.2334019393

> <CNNaffinity>
4.4482622147

> <CNN_VS>
1.0382330418

> <CNNaffinity_variance>
0.6140828729

$$$$



 29 31  0  0  0  0  0  0  0  0999 V2000
   26.8745   67.5121   11.2007 C   0  0  0  0  0  0  0  0  0  0  0  0
   25.7450   67.7302   10.1754 C   0  0  0  0  0  0  0  0  0  0  0  0
   24.7259   66.5917   10.1647 C   0  0  0  0  0  0  0  0  0  0  0  0
   25.2695   65.3057   10.7794 C   0  0  0  0  0  0  0  0  0  0  0  0
   24.4993   64.2125   10.2755 O   0  0  0  0  0  0  0  0  0  0  0  0
   26.7705   65.1386   10.4554 C   0  0  0  0  0  0  0  0  0  0  0  0
   27.4163   63.8916   11.0904 C   0  0  0  0  0  0  0  0  0  0  0  0
   26.5068   62.8261   11.3752 O   0  0  0  0  0  0  0  0  0  0  0  0
   28.0323   64.4308   12.3736 C   0  0  0  0  0  0  0  0  0  0  0  0
   27.0627   64.5096   13.4228 O   0  0  0  0  0  0  0  0  0  0  0  0
   28.4952   65.8270   11.9762 C   0  0  0  0  0  0  0  0  0  0  0  0
   27.6289   66.2826   10.8630 N   0  0  0  0  0  0  0  0  0  0  0  0
   24.5755   64.1817    9.3090 H   0  0  0  0  0  0  0  0  0  0  0  0
   25.8250   63.1386   11.9903 H   0  0  0  0  0  0  0  0  0  0  0  0
   26.3216   65.0664   13.1370 H   0  0  0  0  0  0  0  0  0  0  0  0
   27.8174   68.7329   11.2045 C   0  0  0  0  0  0  0  0  0  0  0  0
   27.8353   69.3726   12.5790 C   0  0  0  0  0  0  0  0  0  0  0  0
   26.8535   69.4301   13.3123 O   0  0  0  0  0  0  0  0  0  0  0  0
   31.6870   70.6822   13.9833 C   0  0  0  0  0  0  0  0  0  0  0  0
   31.3293   69.3203   13.9255 C   0  0  0  0  0  0  0  0  0  0  0  0
   30.0659   68.9160   13.4867 C   0  0  0  0  0  0  0  0  0  0  0  0
   29.1300   69.8688   13.0838 C   0  0  0  0  0  0  0  0  0  0  0  0
   29.4438   71.2257   13.1548 C   0  0  0  0  0  0  0  0  0  0  0  0
   28.3112   72.4624   12.7415 Cl  0  0  0  0  0  0  0  0  0  0  0  0
   30.7133   71.6234   13.5988 C   0  0  0  0  0  0  0  0  0  0  0  0
   34.0294   69.8581   14.4386 C   0  0  0  0  0  0  0  0  0  0  0  0
   33.0970   71.0887   14.4488 C   0  0  0  0  0  0  0  0  0  0  0  0
   33.6615   72.1629   13.4933 C   0  0  0  0  0  0  0  0  0  0  0  0
   33.1384   71.6806   15.8763 C   0  0  0  0  0  0  0  0  0  0  0  0
 26 27  1  0
 27 28  1  0
 27 29  1  0
 27 19  1  0
 19 20  2  0
 20 21  1  0
 21 22  2  0
 22 17  1  0
 17 18  2  0
 17 16  1  0
  1 16  1  0
  1  2  1  0
  2  3  1  0
  3  4  1  0
  4  5  1  0
  4  6  1  0
  6  7  1  0
  7  8  1  0
  7  9  1  0
  9 10  1  0
  9 11  1  0
 11 12  1  0
 22 23  1  0
 23 24  1  0
 23 25  2  0
 25 19  1  0
 12  1  1  0
  6 12  1  0
  5 13  1  0
  8 14  1  0
 10 15  1  0
M  END
> <minimizedAffinity>
-6.44842

> <CNNscore>
0.2172417343

> <CNNaffinity>
4.8051009178

> <CNN_VS>
1.0438684225

> <CNNaffinity_variance>
0.1164005175

$$$$



 29 31  0  0  0  0  0  0  0  0999 V2000
   32.5999   69.1783   17.7497 C   0  0  0  0  0  0  0  0  0  0  0  0
   33.3470   69.6905   18.9964 C   0  0  0  0  0  0  0  0  0  0  0  0
   33.4953   68.6226   20.0792 C   0  0  0  0  0  0  0  0  0  0  0  0
   32.4959   67.4806   19.9242 C   0  0  0  0  0  0  0  0  0  0  0  0
   32.3495   66.8431   21.1948 O   0  0  0  0  0  0  0  0  0  0  0  0
   31.1436   68.0075   19.3953 C   0  0  0  0  0  0  0  0  0  0  0  0
   30.0914   66.9079   19.1521 C   0  0  0  0  0  0  0  0  0  0  0  0
   30.2706   65.7248   19.9342 O   0  0  0  0  0  0  0  0  0  0  0  0
   30.2421   66.6006   17.6689 C   0  0  0  0  0  0  0  0  0  0  0  0
   31.3128   65.6809   17.4346 O   0  0  0  0  0  0  0  0  0  0  0  0
   30.5716   67.9599   17.0646 C   0  0  0  0  0  0  0  0  0  0  0  0
   31.2251   68.7693   18.1207 N   0  0  0  0  0  0  0  0  0  0  0  0
   32.0265   67.4870   21.8444 H   0  0  0  0  0  0  0  0  0  0  0  0
   31.1383   65.3372   19.7400 H   0  0  0  0  0  0  0  0  0  0  0  0
   32.1363   66.0447   17.7955 H   0  0  0  0  0  0  0  0  0  0  0  0
   32.5562   70.2859   16.6769 C   0  0  0  0  0  0  0  0  0  0  0  0
   33.8671   70.3257   15.9160 C   0  0  0  0  0  0  0  0  0  0  0  0
   34.1956   69.4822   15.0879 O   0  0  0  0  0  0  0  0  0  0  0  0
   36.5479   73.6250   16.5877 C   0  0  0  0  0  0  0  0  0  0  0  0
   36.5424   72.4794   17.4085 C   0  0  0  0  0  0  0  0  0  0  0  0
   35.6496   71.4277   17.1873 C   0  0  0  0  0  0  0  0  0  0  0  0
   34.7439   71.4933   16.1283 C   0  0  0  0  0  0  0  0  0  0  0  0
   34.7059   72.6251   15.3144 C   0  0  0  0  0  0  0  0  0  0  0  0
   33.5644   72.8066   14.0310 Cl  0  0  0  0  0  0  0  0  0  0  0  0
   35.6038   73.6775   15.5447 C   0  0  0  0  0  0  0  0  0  0  0  0
   37.8399   74.8735   18.3610 C   0  0  0  0  0  0  0  0  0  0  0  0
   37.5629   74.7530   16.8469 C   0  0  0  0  0  0  0  0  0  0  0  0
   38.8829   74.4324   16.1120 C   0  0  0  0  0  0  0  0  0  0  0  0
   37.0935   76.1420   16.3570 C   0  0  0  0  0  0  0  0  0  0  0  0
 26 27  1  0
 27 28  1  0
 27 29  1  0
 27 19  1  0
 19 20  2  0
 20 21  1  0
 21 22  2  0
 22 17  1  0
 17 18  2  0
 17 16  1  0
  1 16  1  0
  1  2  1  0
  2  3  1  0
  3  4  1  0
  4  5  1  0
  4  6  1  0
  6  7  1  0
  7  8  1  0
  7  9  1  0
  9 10  1  0
  9 11  1  0
 11 12  1  0
 22 23  1  0
 23 24  1  0
 23 25  2  0
 25 19  1  0
 12  1  1  0
  6 12  1  0
  5 13  1  0
  8 14  1  0
 10 15  1  0
M  END
> <minimizedAffinity>
-6.91212

> <CNNscore>
0.2163367718

> <CNNaffinity>
4.6507220268

> <CNN_VS>
1.0061222315

> <CNNaffinity_variance>
0.4190084636

$$$$



 29 31  0  0  0  0  0  0  0  0999 V2000
   27.7001   66.4271    9.3768 C   0  0  0  0  0  0  0  0  0  0  0  0
   28.4318   65.9607   10.6502 C   0  0  0  0  0  0  0  0  0  0  0  0
   29.9341   66.2356   10.6052 C   0  0  0  0  0  0  0  0  0  0  0  0
   30.4541   66.4481    9.1869 C   0  0  0  0  0  0  0  0  0  0  0  0
   31.8577   66.1792    9.1836 O   0  0  0  0  0  0  0  0  0  0  0  0
   29.7009   65.5415    8.1885 C   0  0  0  0  0  0  0  0  0  0  0  0
   30.1237   65.7362    6.7193 C   0  0  0  0  0  0  0  0  0  0  0  0
   31.4475   66.2450    6.5399 O   0  0  0  0  0  0  0  0  0  0  0  0
   29.0920   66.7197    6.1850 C   0  0  0  0  0  0  0  0  0  0  0  0
   29.4453   68.0687    6.5050 O   0  0  0  0  0  0  0  0  0  0  0  0
   27.8182   66.3190    6.9187 C   0  0  0  0  0  0  0  0  0  0  0  0
   28.2215   65.6929    8.2004 N   0  0  0  0  0  0  0  0  0  0  0  0
   32.0122   65.2639    9.4649 H   0  0  0  0  0  0  0  0  0  0  0  0
   31.5237   67.1084    6.9753 H   0  0  0  0  0  0  0  0  0  0  0  0
   29.5404   68.1588    7.4661 H   0  0  0  0  0  0  0  0  0  0  0  0
   26.1842   66.1845    9.5286 C   0  0  0  0  0  0  0  0  0  0  0  0
   25.7377   66.5427   10.9326 C   0  0  0  0  0  0  0  0  0  0  0  0
   25.7647   65.7560   11.8735 O   0  0  0  0  0  0  0  0  0  0  0  0
   24.7268   70.6654   11.6429 C   0  0  0  0  0  0  0  0  0  0  0  0
   25.9645   70.1152   12.0323 C   0  0  0  0  0  0  0  0  0  0  0  0
   26.2658   68.7688   11.8122 C   0  0  0  0  0  0  0  0  0  0  0  0
   25.3355   67.9398   11.1850 C   0  0  0  0  0  0  0  0  0  0  0  0
   24.0913   68.4473   10.8121 C   0  0  0  0  0  0  0  0  0  0  0  0
   22.8646   67.4636   10.0976 Cl  0  0  0  0  0  0  0  0  0  0  0  0
   23.7957   69.7994   11.0390 C   0  0  0  0  0  0  0  0  0  0  0  0
   23.9323   72.8105   10.5750 C   0  0  0  0  0  0  0  0  0  0  0  0
   24.4398   72.1592   11.8797 C   0  0  0  0  0  0  0  0  0  0  0  0
   23.3606   72.3056   12.9748 C   0  0  0  0  0  0  0  0  0  0  0  0
   25.6731   72.9677   12.3434 C   0  0  0  0  0  0  0  0  0  0  0  0
 26 27  1  0
 27 28  1  0
 27 29  1  0
 27 19  1  0
 19 20  2  0
 20 21  1  0
 21 22  2  0
 22 17  1  0
 17 18  2  0
 17 16  1  0
  1 16  1  0
  1  2  1  0
  2  3  1  0
  3  4  1  0
  4  5  1  0
  4  6  1  0
  6  7  1  0
  7  8  1  0
  7  9  1  0
  9 10  1  0
  9 11  1  0
 11 12  1  0
 22 23  1  0
 23 24  1  0
 23 25  2  0
 25 19  1  0
 12  1  1  0
  6 12  1  0
  5 13  1  0
  8 14  1  0
 10 15  1  0
M  END
> <minimizedAffinity>
-7.09178

> <CNNscore>
0.2095876336

> <CNNaffinity>
5.7408518791

> <CNN_VS>
1.2032115459

> <CNNaffinity_variance>
0.0695301816

$$$$
