


 35 37  0  0  0  0  0  0  0  0999 V2000
   36.6174    7.6970   19.4360 C   0  0  0  0  0  0  0  0  0  0  0  0
   36.1278    7.4520   18.0893 O   0  0  0  0  0  0  0  0  0  0  0  0
   37.2531    7.5044   17.1946 C   0  0  0  0  0  0  0  0  0  0  0  0
   38.4861    7.2101   18.0465 C   0  0  0  0  0  0  0  0  0  0  0  0
   39.7018    7.7232   17.5122 O   0  0  0  0  0  0  0  0  0  0  0  0
   38.1289    7.9342   19.3337 C   0  0  0  0  0  0  0  0  0  0  0  0
   38.4131    9.3357   19.1763 O   0  0  0  0  0  0  0  0  0  0  0  0
   39.6239    8.6830   17.3954 H   0  0  0  0  0  0  0  0  0  0  0  0
   37.9421    9.6760   18.3996 H   0  0  0  0  0  0  0  0  0  0  0  0
   36.0710    2.3565   22.2285 N   0  0  0  0  0  0  0  0  0  0  0  0
   36.6079    3.2240   21.2885 C   0  0  0  0  0  0  0  0  0  0  0  0
   37.5466    2.7493   20.4421 N   0  0  0  0  0  0  0  0  0  0  0  0
   38.0685    3.6046   19.5405 C   0  0  0  0  0  0  0  0  0  0  0  0
   39.2533    2.9417   18.4988 Cl  0  0  0  0  0  0  0  0  0  0  0  0
   37.7767    4.9039   19.3279 N   0  0  0  0  0  0  0  0  0  0  0  0
   36.8324    5.3179   20.1861 C   0  0  0  0  0  0  0  0  0  0  0  0
   36.2063    4.5665   21.1670 C   0  0  0  0  0  0  0  0  0  0  0  0
   35.2710    5.3244   21.8370 N   0  0  0  0  0  0  0  0  0  0  0  0
   35.3505    6.5207   21.2908 C   0  0  0  0  0  0  0  0  0  0  0  0
   36.2683    6.5625   20.2749 N   0  0  0  0  0  0  0  0  0  0  0  0
   36.3851    1.4247   22.2745 H   0  0  0  0  0  0  0  0  0  0  0  0
   35.3757    2.6728   22.8497 H   0  0  0  0  0  0  0  0  0  0  0  0
   37.0631    6.5140   16.0514 C   0  0  0  0  0  0  0  0  0  0  0  0
   37.3948    7.1408   14.8294 O   0  0  0  0  0  0  0  0  0  0  0  0
   37.8005    6.2065   13.5945 P   0  0  0  0  0  0  0  0  0  0  0  0
   37.5199    6.7509   12.2342 O   0  0  0  0  0  0  0  0  0  0  0  0
   39.3722    5.9865   13.8230 O   0  0  0  0  0  0  0  0  0  0  0  0
   39.8439    6.8152   13.6449 H   0  0  0  0  0  0  0  0  0  0  0  0
   37.1917    4.7823   13.9222 O   0  0  0  0  0  0  0  0  0  0  0  0
   35.9379    4.1537   13.1955 P   0  0  0  0  0  0  0  0  0  0  0  0
   35.4062    2.8917   13.7826 O   0  0  0  0  0  0  0  0  0  0  0  0
   34.8169    5.2925   13.1516 O   0  0  0  0  0  0  0  0  0  0  0  0
   36.3155    3.9837   11.6591 O   0  0  0  0  0  0  0  0  0  0  0  0
   34.5097    5.4788   14.0526 H   0  0  0  0  0  0  0  0  0  0  0  0
   37.0010    3.3035   11.5680 H   0  0  0  0  0  0  0  0  0  0  0  0
 10 11  1  0
 11 12  2  0
 12 13  1  0
 13 14  1  0
 13 15  2  0
 15 16  1  0
 16 17  2  0
 17 18  1  0
 18 19  2  0
 19 20  1  0
  1 20  1  0
  1  2  1  0
  2  3  1  0
  3 23  1  0
 23 24  1  0
 24 25  1  0
 25 26  2  0
 25 27  1  0
 25 29  1  0
 29 30  1  0
 30 31  2  0
 30 32  1  0
 30 33  1  0
  3  4  1  0
  4  5  1  0
  4  6  1  0
  6  7  1  0
 17 11  1  0
  6  1  1  0
 20 16  1  0
 10 21  1  0
 10 22  1  0
 27 28  1  0
 32 34  1  0
 33 35  1  0
  5  8  1  0
  7  9  1  0
M  END
> <minimizedAffinity>
-7.79635

> <CNNscore>
0.9087774754

> <CNNaffinity>
5.1788516045

> <CNN_VS>
4.7064237595

> <CNNaffinity_variance>
0.5427308083

$$$$



 35 37  0  0  0  0  0  0  0  0999 V2000
   39.9222    3.8319   17.5664 C   0  0  0  0  0  0  0  0  0  0  0  0
   39.1288    3.7741   16.3497 O   0  0  0  0  0  0  0  0  0  0  0  0
   39.8769    3.0320   15.3703 C   0  0  0  0  0  0  0  0  0  0  0  0
   40.8528    2.1579   16.1553 C   0  0  0  0  0  0  0  0  0  0  0  0
   42.0086    1.7679   15.4214 O   0  0  0  0  0  0  0  0  0  0  0  0
   41.2384    3.0970   17.2859 C   0  0  0  0  0  0  0  0  0  0  0  0
   42.2404    4.0138   16.8113 O   0  0  0  0  0  0  0  0  0  0  0  0
   42.4767    2.5588   15.1111 H   0  0  0  0  0  0  0  0  0  0  0  0
   41.9104    4.4742   16.0239 H   0  0  0  0  0  0  0  0  0  0  0  0
   36.0815    2.5174   22.0541 N   0  0  0  0  0  0  0  0  0  0  0  0
   36.6163    3.3339   21.0682 C   0  0  0  0  0  0  0  0  0  0  0  0
   36.0892    4.5657   20.9019 N   0  0  0  0  0  0  0  0  0  0  0  0
   36.6101    5.3454   19.9337 C   0  0  0  0  0  0  0  0  0  0  0  0
   35.8977    6.8931   19.7736 Cl  0  0  0  0  0  0  0  0  0  0  0  0
   37.6263    5.0887   19.0851 N   0  0  0  0  0  0  0  0  0  0  0  0
   38.1184    3.8598   19.3027 C   0  0  0  0  0  0  0  0  0  0  0  0
   37.6909    2.9432   20.2492 C   0  0  0  0  0  0  0  0  0  0  0  0
   38.4525    1.7964   20.1939 N   0  0  0  0  0  0  0  0  0  0  0  0
   39.3063    2.0041   19.2122 C   0  0  0  0  0  0  0  0  0  0  0  0
   39.1560    3.2456   18.6535 N   0  0  0  0  0  0  0  0  0  0  0  0
   35.3285    2.8362   22.6023 H   0  0  0  0  0  0  0  0  0  0  0  0
   36.4551    1.6192   22.2054 H   0  0  0  0  0  0  0  0  0  0  0  0
   38.9318    2.2292   14.4835 C   0  0  0  0  0  0  0  0  0  0  0  0
   37.7125    2.9292   14.3450 O   0  0  0  0  0  0  0  0  0  0  0  0
   36.8737    2.7131   12.9989 P   0  0  0  0  0  0  0  0  0  0  0  0
   37.3644    1.6461   12.0789 O   0  0  0  0  0  0  0  0  0  0  0  0
   35.4056    2.3792   13.5505 O   0  0  0  0  0  0  0  0  0  0  0  0
   35.4065    1.5002   13.9607 H   0  0  0  0  0  0  0  0  0  0  0  0
   36.6975    4.1564   12.3725 O   0  0  0  0  0  0  0  0  0  0  0  0
   36.1022    5.4014   13.1410 P   0  0  0  0  0  0  0  0  0  0  0  0
   36.6521    6.7317   12.7564 O   0  0  0  0  0  0  0  0  0  0  0  0
   34.5172    5.3470   12.9403 O   0  0  0  0  0  0  0  0  0  0  0  0
   36.2612    5.1183   14.6988 O   0  0  0  0  0  0  0  0  0  0  0  0
   34.3035    5.5096   12.0082 H   0  0  0  0  0  0  0  0  0  0  0  0
   37.2020    5.1286   14.9349 H   0  0  0  0  0  0  0  0  0  0  0  0
 10 11  1  0
 11 12  2  0
 12 13  1  0
 13 14  1  0
 13 15  2  0
 15 16  1  0
 16 17  2  0
 17 18  1  0
 18 19  2  0
 19 20  1  0
  1 20  1  0
  1  2  1  0
  2  3  1  0
  3 23  1  0
 23 24  1  0
 24 25  1  0
 25 26  2  0
 25 27  1  0
 25 29  1  0
 29 30  1  0
 30 31  2  0
 30 32  1  0
 30 33  1  0
  3  4  1  0
  4  5  1  0
  4  6  1  0
  6  7  1  0
 17 11  1  0
  6  1  1  0
 20 16  1  0
 10 21  1  0
 10 22  1  0
 27 28  1  0
 32 34  1  0
 33 35  1  0
  5  8  1  0
  7  9  1  0
M  END
> <minimizedAffinity>
-7.79547

> <CNNscore>
0.7947475910

> <CNNaffinity>
4.9558329582

> <CNN_VS>
3.9386363029

> <CNNaffinity_variance>
0.3215337694

$$$$



 35 37  0  0  0  0  0  0  0  0999 V2000
   41.0432    3.4468   17.8326 C   0  0  0  0  0  0  0  0  0  0  0  0
   40.9227    4.8486   17.4671 O   0  0  0  0  0  0  0  0  0  0  0  0
   40.9339    4.9324   16.0310 C   0  0  0  0  0  0  0  0  0  0  0  0
   40.4852    3.5637   15.5229 C   0  0  0  0  0  0  0  0  0  0  0  0
   40.9252    3.2567   14.2043 O   0  0  0  0  0  0  0  0  0  0  0  0
   41.1575    2.6458   16.5301 C   0  0  0  0  0  0  0  0  0  0  0  0
   42.5369    2.4746   16.1589 O   0  0  0  0  0  0  0  0  0  0  0  0
   41.8934    3.3021   14.1677 H   0  0  0  0  0  0  0  0  0  0  0  0
   42.9623    3.3432   16.0857 H   0  0  0  0  0  0  0  0  0  0  0  0
   36.8258    0.7187   21.2073 N   0  0  0  0  0  0  0  0  0  0  0  0
   38.0031    0.7604   20.4747 C   0  0  0  0  0  0  0  0  0  0  0  0
   38.7193   -0.3772   20.3490 N   0  0  0  0  0  0  0  0  0  0  0  0
   39.8667   -0.3214   19.6440 C   0  0  0  0  0  0  0  0  0  0  0  0
   40.7275   -1.7955   19.5232 Cl  0  0  0  0  0  0  0  0  0  0  0  0
   40.4247    0.7255   19.0026 N   0  0  0  0  0  0  0  0  0  0  0  0
   39.6668    1.8226   19.1504 C   0  0  0  0  0  0  0  0  0  0  0  0
   38.4727    1.9268   19.8445 C   0  0  0  0  0  0  0  0  0  0  0  0
   37.9686    3.2060   19.7549 N   0  0  0  0  0  0  0  0  0  0  0  0
   38.8565    3.8707   19.0440 C   0  0  0  0  0  0  0  0  0  0  0  0
   39.8935    3.0726   18.6394 N   0  0  0  0  0  0  0  0  0  0  0  0
   36.5387   -0.1226   21.6303 H   0  0  0  0  0  0  0  0  0  0  0  0
   36.2774    1.5306   21.3044 H   0  0  0  0  0  0  0  0  0  0  0  0
   40.0344    6.0708   15.5631 C   0  0  0  0  0  0  0  0  0  0  0  0
   38.7637    5.9413   16.1669 O   0  0  0  0  0  0  0  0  0  0  0  0
   37.4719    6.1502   15.2450 P   0  0  0  0  0  0  0  0  0  0  0  0
   36.2801    6.7577   15.9055 O   0  0  0  0  0  0  0  0  0  0  0  0
   38.0285    7.0867   14.0686 O   0  0  0  0  0  0  0  0  0  0  0  0
   38.2038    7.9746   14.4176 H   0  0  0  0  0  0  0  0  0  0  0  0
   37.2423    4.7637   14.5160 O   0  0  0  0  0  0  0  0  0  0  0  0
   36.2790    4.5469   13.2831 P   0  0  0  0  0  0  0  0  0  0  0  0
   36.9398    4.3757   11.9587 O   0  0  0  0  0  0  0  0  0  0  0  0
   35.3562    3.2912   13.6396 O   0  0  0  0  0  0  0  0  0  0  0  0
   35.2364    5.7490   13.2781 O   0  0  0  0  0  0  0  0  0  0  0  0
   35.9000    2.4885   13.6695 H   0  0  0  0  0  0  0  0  0  0  0  0
   35.6977    6.5763   13.0688 H   0  0  0  0  0  0  0  0  0  0  0  0
 10 11  1  0
 11 12  2  0
 12 13  1  0
 13 14  1  0
 13 15  2  0
 15 16  1  0
 16 17  2  0
 17 18  1  0
 18 19  2  0
 19 20  1  0
  1 20  1  0
  1  2  1  0
  2  3  1  0
  3 23  1  0
 23 24  1  0
 24 25  1  0
 25 26  2  0
 25 27  1  0
 25 29  1  0
 29 30  1  0
 30 31  2  0
 30 32  1  0
 30 33  1  0
  3  4  1  0
  4  5  1  0
  4  6  1  0
  6  7  1  0
 17 11  1  0
  6  1  1  0
 20 16  1  0
 10 21  1  0
 10 22  1  0
 27 28  1  0
 32 34  1  0
 33 35  1  0
  5  8  1  0
  7  9  1  0
M  END
> <minimizedAffinity>
-6.23059

> <CNNscore>
0.7895859480

> <CNNaffinity>
4.8223929405

> <CNN_VS>
3.8076937199

> <CNNaffinity_variance>
0.0087130489

$$$$



 35 37  0  0  0  0  0  0  0  0999 V2000
   41.0669    3.0271   16.4301 C   0  0  0  0  0  0  0  0  0  0  0  0
   41.2957    4.0762   15.4501 O   0  0  0  0  0  0  0  0  0  0  0  0
   41.0124    3.5331   14.1484 C   0  0  0  0  0  0  0  0  0  0  0  0
   40.0717    2.3518   14.3775 C   0  0  0  0  0  0  0  0  0  0  0  0
   40.0946    1.3767   13.3405 O   0  0  0  0  0  0  0  0  0  0  0  0
   40.6427    1.7708   15.6602 C   0  0  0  0  0  0  0  0  0  0  0  0
   41.7882    0.9621   15.3380 O   0  0  0  0  0  0  0  0  0  0  0  0
   40.9981    1.0409   13.2324 H   0  0  0  0  0  0  0  0  0  0  0  0
   42.4278    1.4923   14.8372 H   0  0  0  0  0  0  0  0  0  0  0  0
   36.9874    3.7151   20.8462 N   0  0  0  0  0  0  0  0  0  0  0  0
   37.9048    2.9938   20.0960 C   0  0  0  0  0  0  0  0  0  0  0  0
   38.1012    1.6937   20.4027 N   0  0  0  0  0  0  0  0  0  0  0  0
   39.0029    1.0065   19.6738 C   0  0  0  0  0  0  0  0  0  0  0  0
   39.2059   -0.6348   20.1132 Cl  0  0  0  0  0  0  0  0  0  0  0  0
   39.7546    1.4215   18.6338 N   0  0  0  0  0  0  0  0  0  0  0  0
   39.5105    2.7131   18.3660 C   0  0  0  0  0  0  0  0  0  0  0  0
   38.6236    3.5503   19.0228 C   0  0  0  0  0  0  0  0  0  0  0  0
   38.6240    4.8037   18.4507 N   0  0  0  0  0  0  0  0  0  0  0  0
   39.5164    4.7342   17.4840 C   0  0  0  0  0  0  0  0  0  0  0  0
   40.0673    3.4844   17.3810 N   0  0  0  0  0  0  0  0  0  0  0  0
   36.5086    3.2807   21.5886 H   0  0  0  0  0  0  0  0  0  0  0  0
   36.8152    4.6614   20.6360 H   0  0  0  0  0  0  0  0  0  0  0  0
   40.4166    4.6089   13.2475 C   0  0  0  0  0  0  0  0  0  0  0  0
   39.0127    4.4571   13.2030 O   0  0  0  0  0  0  0  0  0  0  0  0
   38.1714    5.5190   12.3504 P   0  0  0  0  0  0  0  0  0  0  0  0
   38.2371    6.9366   12.8107 O   0  0  0  0  0  0  0  0  0  0  0  0
   38.7867    5.3534   10.8790 O   0  0  0  0  0  0  0  0  0  0  0  0
   39.6876    5.7126   10.8630 H   0  0  0  0  0  0  0  0  0  0  0  0
   36.7247    4.8933   12.2022 O   0  0  0  0  0  0  0  0  0  0  0  0
   35.7218    4.6584   13.3998 P   0  0  0  0  0  0  0  0  0  0  0  0
   35.5188    3.2420   13.8150 O   0  0  0  0  0  0  0  0  0  0  0  0
   36.2466    5.5520   14.6171 O   0  0  0  0  0  0  0  0  0  0  0  0
   34.3508    5.3699   13.0174 O   0  0  0  0  0  0  0  0  0  0  0  0
   37.0933    5.2009   14.9344 H   0  0  0  0  0  0  0  0  0  0  0  0
   33.9390    4.9005   12.2751 H   0  0  0  0  0  0  0  0  0  0  0  0
 10 11  1  0
 11 12  2  0
 12 13  1  0
 13 14  1  0
 13 15  2  0
 15 16  1  0
 16 17  2  0
 17 18  1  0
 18 19  2  0
 19 20  1  0
  1 20  1  0
  1  2  1  0
  2  3  1  0
  3 23  1  0
 23 24  1  0
 24 25  1  0
 25 26  2  0
 25 27  1  0
 25 29  1  0
 29 30  1  0
 30 31  2  0
 30 32  1  0
 30 33  1  0
  3  4  1  0
  4  5  1  0
  4  6  1  0
  6  7  1  0
 17 11  1  0
  6  1  1  0
 20 16  1  0
 10 21  1  0
 10 22  1  0
 27 28  1  0
 32 34  1  0
 33 35  1  0
  5  8  1  0
  7  9  1  0
M  END
> <minimizedAffinity>
-6.20576

> <CNNscore>
0.7688180804

> <CNNaffinity>
4.6003513336

> <CNN_VS>
3.5368332863

> <CNNaffinity_variance>
0.0651231483

$$$$



 35 37  0  0  0  0  0  0  0  0999 V2000
   38.2930    6.7313   18.4584 C   0  0  0  0  0  0  0  0  0  0  0  0
   37.4296    7.0835   17.3432 O   0  0  0  0  0  0  0  0  0  0  0  0
   37.9089    6.3892   16.1780 C   0  0  0  0  0  0  0  0  0  0  0  0
   38.6950    5.1860   16.6949 C   0  0  0  0  0  0  0  0  0  0  0  0
   39.6705    4.6901   15.7844 O   0  0  0  0  0  0  0  0  0  0  0  0
   39.3708    5.7844   17.9172 C   0  0  0  0  0  0  0  0  0  0  0  0
   40.5307    6.5238   17.4954 O   0  0  0  0  0  0  0  0  0  0  0  0
   40.2940    5.3987   15.5610 H   0  0  0  0  0  0  0  0  0  0  0  0
   40.2698    7.1862   16.8366 H   0  0  0  0  0  0  0  0  0  0  0  0
   35.5775    3.1855   22.5414 N   0  0  0  0  0  0  0  0  0  0  0  0
   36.4695    3.4458   21.5113 C   0  0  0  0  0  0  0  0  0  0  0  0
   37.2230    2.4274   21.0444 N   0  0  0  0  0  0  0  0  0  0  0  0
   38.0936    2.6954   20.0509 C   0  0  0  0  0  0  0  0  0  0  0  0
   39.0188    1.3632   19.5053 Cl  0  0  0  0  0  0  0  0  0  0  0  0
   38.3265    3.8592   19.4107 N   0  0  0  0  0  0  0  0  0  0  0  0
   37.5442    4.8302   19.9055 C   0  0  0  0  0  0  0  0  0  0  0  0
   36.6103    4.7151   20.9220 C   0  0  0  0  0  0  0  0  0  0  0  0
   35.9792    5.9202   21.1408 N   0  0  0  0  0  0  0  0  0  0  0  0
   36.5419    6.7560   20.2920 C   0  0  0  0  0  0  0  0  0  0  0  0
   37.4823    6.1397   19.5098 N   0  0  0  0  0  0  0  0  0  0  0  0
   35.5154    2.2795   22.9216 H   0  0  0  0  0  0  0  0  0  0  0  0
   35.0066    3.9067   22.8923 H   0  0  0  0  0  0  0  0  0  0  0  0
   36.7408    6.0016   15.2786 C   0  0  0  0  0  0  0  0  0  0  0  0
   37.0180    4.7621   14.6597 O   0  0  0  0  0  0  0  0  0  0  0  0
   36.1353    4.3445   13.3913 P   0  0  0  0  0  0  0  0  0  0  0  0
   35.3145    3.1072   13.5362 O   0  0  0  0  0  0  0  0  0  0  0  0
   35.2113    5.6355   13.1669 O   0  0  0  0  0  0  0  0  0  0  0  0
   34.5618    5.6970   13.8847 H   0  0  0  0  0  0  0  0  0  0  0  0
   37.1211    4.3944   12.1535 O   0  0  0  0  0  0  0  0  0  0  0  0
   38.3353    5.3950   12.0132 P   0  0  0  0  0  0  0  0  0  0  0  0
   39.5542    5.0591   12.8016 O   0  0  0  0  0  0  0  0  0  0  0  0
   38.6628    5.4999   10.4521 O   0  0  0  0  0  0  0  0  0  0  0  0
   37.7909    6.8521   12.3488 O   0  0  0  0  0  0  0  0  0  0  0  0
   39.0080    4.6502   10.1363 H   0  0  0  0  0  0  0  0  0  0  0  0
   37.5576    6.9015   13.2891 H   0  0  0  0  0  0  0  0  0  0  0  0
 10 11  1  0
 11 12  2  0
 12 13  1  0
 13 14  1  0
 13 15  2  0
 15 16  1  0
 16 17  2  0
 17 18  1  0
 18 19  2  0
 19 20  1  0
  1 20  1  0
  1  2  1  0
  2  3  1  0
  3 23  1  0
 23 24  1  0
 24 25  1  0
 25 26  2  0
 25 27  1  0
 25 29  1  0
 29 30  1  0
 30 31  2  0
 30 32  1  0
 30 33  1  0
  3  4  1  0
  4  5  1  0
  4  6  1  0
  6  7  1  0
 17 11  1  0
  6  1  1  0
 20 16  1  0
 10 21  1  0
 10 22  1  0
 27 28  1  0
 32 34  1  0
 33 35  1  0
  5  8  1  0
  7  9  1  0
M  END
> <minimizedAffinity>
-7.79031

> <CNNscore>
0.6812141538

> <CNNaffinity>
4.7925944328

> <CNN_VS>
3.2647831440

> <CNNaffinity_variance>
0.5319655538

$$$$



 35 37  0  0  0  0  0  0  0  0999 V2000
   37.3213    5.8933   20.2553 C   0  0  0  0  0  0  0  0  0  0  0  0
   36.4438    5.9700   19.0988 O   0  0  0  0  0  0  0  0  0  0  0  0
   36.5032    7.3138   18.5885 C   0  0  0  0  0  0  0  0  0  0  0  0
   37.8324    7.8918   19.0701 C   0  0  0  0  0  0  0  0  0  0  0  0
   37.8586    9.3131   19.1457 O   0  0  0  0  0  0  0  0  0  0  0  0
   37.9241    7.2881   20.4615 C   0  0  0  0  0  0  0  0  0  0  0  0
   37.1132    8.0634   21.3621 O   0  0  0  0  0  0  0  0  0  0  0  0
   37.1522    9.6186   19.7361 H   0  0  0  0  0  0  0  0  0  0  0  0
   36.2061    8.1102   21.0216 H   0  0  0  0  0  0  0  0  0  0  0  0
   42.1073    2.1904   20.2476 N   0  0  0  0  0  0  0  0  0  0  0  0
   41.3673    3.2724   20.7019 C   0  0  0  0  0  0  0  0  0  0  0  0
   41.8794    4.0243   21.6996 N   0  0  0  0  0  0  0  0  0  0  0  0
   41.1461    5.0661   22.1396 C   0  0  0  0  0  0  0  0  0  0  0  0
   41.8500    5.9777   23.4053 Cl  0  0  0  0  0  0  0  0  0  0  0  0
   39.9451    5.5060   21.7120 N   0  0  0  0  0  0  0  0  0  0  0  0
   39.4910    4.7316   20.7152 C   0  0  0  0  0  0  0  0  0  0  0  0
   40.1200    3.6298   20.1591 C   0  0  0  0  0  0  0  0  0  0  0  0
   39.3619    3.1020   19.1368 N   0  0  0  0  0  0  0  0  0  0  0  0
   38.2804    3.8533   19.0947 C   0  0  0  0  0  0  0  0  0  0  0  0
   38.3198    4.8641   20.0182 N   0  0  0  0  0  0  0  0  0  0  0  0
   42.9760    1.9802   20.6602 H   0  0  0  0  0  0  0  0  0  0  0  0
   41.7636    1.6328   19.5126 H   0  0  0  0  0  0  0  0  0  0  0  0
   36.3666    7.3068   17.0702 C   0  0  0  0  0  0  0  0  0  0  0  0
   36.9585    6.1329   16.5526 O   0  0  0  0  0  0  0  0  0  0  0  0
   37.1223    6.0144   14.9647 P   0  0  0  0  0  0  0  0  0  0  0  0
   36.5124    7.1084   14.1542 O   0  0  0  0  0  0  0  0  0  0  0  0
   38.7142    5.9677   14.7791 O   0  0  0  0  0  0  0  0  0  0  0  0
   39.0891    6.8392   14.9813 H   0  0  0  0  0  0  0  0  0  0  0  0
   36.6794    4.5385   14.6016 O   0  0  0  0  0  0  0  0  0  0  0  0
   35.9563    4.1231   13.2600 P   0  0  0  0  0  0  0  0  0  0  0  0
   36.8059    4.1090   12.0362 O   0  0  0  0  0  0  0  0  0  0  0  0
   35.2914    2.6934   13.5232 O   0  0  0  0  0  0  0  0  0  0  0  0
   34.6863    5.0672   13.0933 O   0  0  0  0  0  0  0  0  0  0  0  0
   35.9886    2.0294   13.6413 H   0  0  0  0  0  0  0  0  0  0  0  0
   34.9792    5.9767   12.9264 H   0  0  0  0  0  0  0  0  0  0  0  0
 10 11  1  0
 11 12  2  0
 12 13  1  0
 13 14  1  0
 13 15  2  0
 15 16  1  0
 16 17  2  0
 17 18  1  0
 18 19  2  0
 19 20  1  0
  1 20  1  0
  1  2  1  0
  2  3  1  0
  3 23  1  0
 23 24  1  0
 24 25  1  0
 25 26  2  0
 25 27  1  0
 25 29  1  0
 29 30  1  0
 30 31  2  0
 30 32  1  0
 30 33  1  0
  3  4  1  0
  4  5  1  0
  4  6  1  0
  6  7  1  0
 17 11  1  0
  6  1  1  0
 20 16  1  0
 10 21  1  0
 10 22  1  0
 27 28  1  0
 32 34  1  0
 33 35  1  0
  5  8  1  0
  7  9  1  0
M  END
> <minimizedAffinity>
-6.28614

> <CNNscore>
0.6697465777

> <CNNaffinity>
5.0029101372

> <CNN_VS>
3.3506820202

> <CNNaffinity_variance>
0.0287756175

$$$$



 35 37  0  0  0  0  0  0  0  0999 V2000
   39.7945    4.9087   18.2024 C   0  0  0  0  0  0  0  0  0  0  0  0
   38.6483    5.7815   18.0080 O   0  0  0  0  0  0  0  0  0  0  0  0
   38.5851    6.1219   16.6117 C   0  0  0  0  0  0  0  0  0  0  0  0
   39.3324    5.0148   15.8711 C   0  0  0  0  0  0  0  0  0  0  0  0
   39.8454    5.4040   14.6014 O   0  0  0  0  0  0  0  0  0  0  0  0
   40.4718    4.7374   16.8374 C   0  0  0  0  0  0  0  0  0  0  0  0
   41.4958    5.7306   16.6507 O   0  0  0  0  0  0  0  0  0  0  0  0
   40.4392    6.1630   14.7115 H   0  0  0  0  0  0  0  0  0  0  0  0
   41.1108    6.6151   16.7529 H   0  0  0  0  0  0  0  0  0  0  0  0
   37.0235    0.4501   21.2123 N   0  0  0  0  0  0  0  0  0  0  0  0
   37.2260    1.7742   20.8513 C   0  0  0  0  0  0  0  0  0  0  0  0
   36.4404    2.7179   21.4126 N   0  0  0  0  0  0  0  0  0  0  0  0
   36.6396    3.9995   21.0456 C   0  0  0  0  0  0  0  0  0  0  0  0
   35.6113    5.1459   21.7917 Cl  0  0  0  0  0  0  0  0  0  0  0  0
   37.5469    4.5111   20.1891 N   0  0  0  0  0  0  0  0  0  0  0  0
   38.3058    3.5331   19.6721 C   0  0  0  0  0  0  0  0  0  0  0  0
   38.2215    2.1773   19.9432 C   0  0  0  0  0  0  0  0  0  0  0  0
   39.1833    1.4812   19.2441 N   0  0  0  0  0  0  0  0  0  0  0  0
   39.8189    2.3960   18.5405 C   0  0  0  0  0  0  0  0  0  0  0  0
   39.3366    3.6556   18.7791 N   0  0  0  0  0  0  0  0  0  0  0  0
   36.3129    0.2176   21.8527 H   0  0  0  0  0  0  0  0  0  0  0  0
   37.5905   -0.2571   20.8280 H   0  0  0  0  0  0  0  0  0  0  0  0
   37.1331    6.2651   16.1701 C   0  0  0  0  0  0  0  0  0  0  0  0
   37.0860    6.9348   14.9270 O   0  0  0  0  0  0  0  0  0  0  0  0
   36.5885    6.1084   13.6495 P   0  0  0  0  0  0  0  0  0  0  0  0
   35.2670    6.5032   13.0809 O   0  0  0  0  0  0  0  0  0  0  0  0
   37.7729    6.3464   12.5952 O   0  0  0  0  0  0  0  0  0  0  0  0
   37.7545    7.2671   12.2906 H   0  0  0  0  0  0  0  0  0  0  0  0
   36.7605    4.5832   14.0378 O   0  0  0  0  0  0  0  0  0  0  0  0
   36.5957    3.3770   13.0312 P   0  0  0  0  0  0  0  0  0  0  0  0
   37.7910    2.5057   12.8530 O   0  0  0  0  0  0  0  0  0  0  0  0
   35.3314    2.5354   13.5299 O   0  0  0  0  0  0  0  0  0  0  0  0
   36.0848    3.9783   11.6494 O   0  0  0  0  0  0  0  0  0  0  0  0
   35.5363    2.1177   14.3811 H   0  0  0  0  0  0  0  0  0  0  0  0
   36.7866    4.5172   11.2520 H   0  0  0  0  0  0  0  0  0  0  0  0
 10 11  1  0
 11 12  2  0
 12 13  1  0
 13 14  1  0
 13 15  2  0
 15 16  1  0
 16 17  2  0
 17 18  1  0
 18 19  2  0
 19 20  1  0
  1 20  1  0
  1  2  1  0
  2  3  1  0
  3 23  1  0
 23 24  1  0
 24 25  1  0
 25 26  2  0
 25 27  1  0
 25 29  1  0
 29 30  1  0
 30 31  2  0
 30 32  1  0
 30 33  1  0
  3  4  1  0
  4  5  1  0
  4  6  1  0
  6  7  1  0
 17 11  1  0
  6  1  1  0
 20 16  1  0
 10 21  1  0
 10 22  1  0
 27 28  1  0
 32 34  1  0
 33 35  1  0
  5  8  1  0
  7  9  1  0
M  END
> <minimizedAffinity>
-7.38910

> <CNNscore>
0.6313460469

> <CNNaffinity>
4.7624621391

> <CNN_VS>
3.0067615509

> <CNNaffinity_variance>
0.4627253115

$$$$



 35 37  0  0  0  0  0  0  0  0999 V2000
   38.8410   -2.1951   14.1839 C   0  0  0  0  0  0  0  0  0  0  0  0
   37.9914   -1.0416   14.4309 O   0  0  0  0  0  0  0  0  0  0  0  0
   38.5440    0.0751   13.7118 C   0  0  0  0  0  0  0  0  0  0  0  0
   39.3832   -0.5206   12.5833 C   0  0  0  0  0  0  0  0  0  0  0  0
   40.4119    0.3386   12.1036 O   0  0  0  0  0  0  0  0  0  0  0  0
   39.9873   -1.7295   13.2781 C   0  0  0  0  0  0  0  0  0  0  0  0
   41.1140   -1.3025   14.0642 O   0  0  0  0  0  0  0  0  0  0  0  0
   40.9995    0.5800   12.8367 H   0  0  0  0  0  0  0  0  0  0  0  0
   40.8344   -0.6054   14.6780 H   0  0  0  0  0  0  0  0  0  0  0  0
   34.8435   -5.6088   11.1864 N   0  0  0  0  0  0  0  0  0  0  0  0
   35.4034   -4.4045   11.5875 C   0  0  0  0  0  0  0  0  0  0  0  0
   34.8430   -3.2590   11.1442 N   0  0  0  0  0  0  0  0  0  0  0  0
   35.4027   -2.0958   11.5320 C   0  0  0  0  0  0  0  0  0  0  0  0
   34.6464   -0.6814   10.9353 Cl  0  0  0  0  0  0  0  0  0  0  0  0
   36.4620   -1.8854   12.3395 N   0  0  0  0  0  0  0  0  0  0  0  0
   36.9701   -3.0541   12.7588 C   0  0  0  0  0  0  0  0  0  0  0  0
   36.5142   -4.3243   12.4465 C   0  0  0  0  0  0  0  0  0  0  0  0
   37.2718   -5.2828   13.0834 N   0  0  0  0  0  0  0  0  0  0  0  0
   38.1875   -4.6055   13.7457 C   0  0  0  0  0  0  0  0  0  0  0  0
   38.0357   -3.2525   13.5956 N   0  0  0  0  0  0  0  0  0  0  0  0
   34.0654   -5.6132   10.5832 H   0  0  0  0  0  0  0  0  0  0  0  0
   35.2243   -6.4589   11.5050 H   0  0  0  0  0  0  0  0  0  0  0  0
   37.4270    0.9849   13.2133 C   0  0  0  0  0  0  0  0  0  0  0  0
   37.6896    2.3129   13.6176 O   0  0  0  0  0  0  0  0  0  0  0  0
   36.6197    3.4389   13.2307 P   0  0  0  0  0  0  0  0  0  0  0  0
   36.7091    3.9871   11.8460 O   0  0  0  0  0  0  0  0  0  0  0  0
   35.2217    2.6926   13.4745 O   0  0  0  0  0  0  0  0  0  0  0  0
   35.0938    2.0146   12.7926 H   0  0  0  0  0  0  0  0  0  0  0  0
   36.6689    4.4940   14.4100 O   0  0  0  0  0  0  0  0  0  0  0  0
   36.7240    6.0601   14.2111 P   0  0  0  0  0  0  0  0  0  0  0  0
   38.0029    6.6072   13.6773 O   0  0  0  0  0  0  0  0  0  0  0  0
   35.4893    6.4449   13.2715 O   0  0  0  0  0  0  0  0  0  0  0  0
   36.3221    6.7291   15.5978 O   0  0  0  0  0  0  0  0  0  0  0  0
   35.6324    6.0802   12.3841 H   0  0  0  0  0  0  0  0  0  0  0  0
   37.0149    6.5546   16.2539 H   0  0  0  0  0  0  0  0  0  0  0  0
 10 11  1  0
 11 12  2  0
 12 13  1  0
 13 14  1  0
 13 15  2  0
 15 16  1  0
 16 17  2  0
 17 18  1  0
 18 19  2  0
 19 20  1  0
  1 20  1  0
  1  2  1  0
  2  3  1  0
  3 23  1  0
 23 24  1  0
 24 25  1  0
 25 26  2  0
 25 27  1  0
 25 29  1  0
 29 30  1  0
 30 31  2  0
 30 32  1  0
 30 33  1  0
  3  4  1  0
  4  5  1  0
  4  6  1  0
  6  7  1  0
 17 11  1  0
  6  1  1  0
 20 16  1  0
 10 21  1  0
 10 22  1  0
 27 28  1  0
 32 34  1  0
 33 35  1  0
  5  8  1  0
  7  9  1  0
M  END
> <minimizedAffinity>
-8.04386

> <CNNscore>
0.6181237698

> <CNNaffinity>
4.9738364220

> <CNN_VS>
3.0744464397

> <CNNaffinity_variance>
0.4069844186

$$$$



 35 37  0  0  0  0  0  0  0  0999 V2000
   38.7559    6.2911   18.0878 C   0  0  0  0  0  0  0  0  0  0  0  0
   37.9763    6.7821   16.9633 O   0  0  0  0  0  0  0  0  0  0  0  0
   38.3175    5.9909   15.8112 C   0  0  0  0  0  0  0  0  0  0  0  0
   38.8611    4.6693   16.3504 C   0  0  0  0  0  0  0  0  0  0  0  0
   39.7267    3.9834   15.4521 O   0  0  0  0  0  0  0  0  0  0  0  0
   39.6361    5.1489   17.5663 C   0  0  0  0  0  0  0  0  0  0  0  0
   40.9154    5.6489   17.1382 O   0  0  0  0  0  0  0  0  0  0  0  0
   40.4733    4.5577   15.2205 H   0  0  0  0  0  0  0  0  0  0  0  0
   40.7854    6.3380   16.4680 H   0  0  0  0  0  0  0  0  0  0  0  0
   35.5605    3.4293   22.3559 N   0  0  0  0  0  0  0  0  0  0  0  0
   36.5247    3.5084   21.3616 C   0  0  0  0  0  0  0  0  0  0  0  0
   37.2235    2.3940   21.0576 N   0  0  0  0  0  0  0  0  0  0  0  0
   38.1650    2.4863   20.0975 C   0  0  0  0  0  0  0  0  0  0  0  0
   39.0154    1.0401   19.7606 Cl  0  0  0  0  0  0  0  0  0  0  0  0
   38.5200    3.5508   19.3494 N   0  0  0  0  0  0  0  0  0  0  0  0
   37.7873    4.6234   19.6845 C   0  0  0  0  0  0  0  0  0  0  0  0
   36.7931    4.6896   20.6467 C   0  0  0  0  0  0  0  0  0  0  0  0
   36.2438    5.9523   20.6919 N   0  0  0  0  0  0  0  0  0  0  0  0
   36.9137    6.6452   19.7936 C   0  0  0  0  0  0  0  0  0  0  0  0
   37.8463    5.8804   19.1445 N   0  0  0  0  0  0  0  0  0  0  0  0
   35.4093    2.5789   22.8284 H   0  0  0  0  0  0  0  0  0  0  0  0
   35.0273    4.2234   22.5889 H   0  0  0  0  0  0  0  0  0  0  0  0
   37.0984    5.8165   14.9126 C   0  0  0  0  0  0  0  0  0  0  0  0
   37.0185    4.4713   14.4884 O   0  0  0  0  0  0  0  0  0  0  0  0
   35.9966    4.1178   13.3081 P   0  0  0  0  0  0  0  0  0  0  0  0
   34.7163    4.8836   13.2913 O   0  0  0  0  0  0  0  0  0  0  0  0
   36.8670    4.4061   11.9927 O   0  0  0  0  0  0  0  0  0  0  0  0
   37.0017    5.3620   11.8972 H   0  0  0  0  0  0  0  0  0  0  0  0
   35.8728    2.5395   13.3126 O   0  0  0  0  0  0  0  0  0  0  0  0
   36.9619    1.5525   12.7340 P   0  0  0  0  0  0  0  0  0  0  0  0
   38.3126    2.1350   12.4967 O   0  0  0  0  0  0  0  0  0  0  0  0
   37.0322    0.3104   13.7380 O   0  0  0  0  0  0  0  0  0  0  0  0
   36.3560    0.8961   11.4172 O   0  0  0  0  0  0  0  0  0  0  0  0
   37.3941    0.6027   14.5891 H   0  0  0  0  0  0  0  0  0  0  0  0
   36.2687    1.5738   10.7288 H   0  0  0  0  0  0  0  0  0  0  0  0
 10 11  1  0
 11 12  2  0
 12 13  1  0
 13 14  1  0
 13 15  2  0
 15 16  1  0
 16 17  2  0
 17 18  1  0
 18 19  2  0
 19 20  1  0
  1 20  1  0
  1  2  1  0
  2  3  1  0
  3 23  1  0
 23 24  1  0
 24 25  1  0
 25 26  2  0
 25 27  1  0
 25 29  1  0
 29 30  1  0
 30 31  2  0
 30 32  1  0
 30 33  1  0
  3  4  1  0
  4  5  1  0
  4  6  1  0
  6  7  1  0
 17 11  1  0
  6  1  1  0
 20 16  1  0
 10 21  1  0
 10 22  1  0
 27 28  1  0
 32 34  1  0
 33 35  1  0
  5  8  1  0
  7  9  1  0
M  END
> <minimizedAffinity>
-7.30356

> <CNNscore>
0.5472749472

> <CNNaffinity>
4.3649849892

> <CNN_VS>
2.3888468742

> <CNNaffinity_variance>
0.6846811771

$$$$
