


 54 59  0  0  0  0  0  0  0  0999 V2000
   13.4588   23.6559    4.6855 C   0  0  0  0  0  0  0  0  0  0  0  0
   14.1242   22.1062    2.9739 C   0  0  0  0  0  0  0  0  0  0  0  0
   13.0929   22.5368    3.8519 O   0  0  0  0  0  0  0  0  0  0  0  0
   13.7920   23.2873    6.1679 C   0  0  0  0  0  0  0  0  0  0  0  0
   12.9715   22.1811    6.6057 O   0  0  0  0  0  0  0  0  0  0  0  0
   12.7530   21.2084    5.5882 C   0  0  0  0  0  0  0  0  0  0  0  0
   15.2812   22.9884    6.4955 C   0  0  0  0  0  0  0  0  0  0  0  0
   15.4650   21.4508    6.5113 C   0  0  0  0  0  0  0  0  0  0  0  0
   14.8593   20.7122    7.2836 O   0  0  0  0  0  0  0  0  0  0  0  0
   16.3352   20.9789    5.5535 N   0  0  0  0  0  0  0  0  0  0  0  0
   16.7693   21.6326    4.9590 H   0  0  0  0  0  0  0  0  0  0  0  0
   16.6482   19.5778    5.3706 C   0  0  0  0  0  0  0  0  0  0  0  0
   16.6120   19.1120    3.9377 C   0  0  0  0  0  0  0  0  0  0  0  0
   15.6326   19.3295    2.9807 C   0  0  0  0  0  0  0  0  0  0  0  0
   15.7990   18.7726    1.7110 C   0  0  0  0  0  0  0  0  0  0  0  0
   16.9198   17.9827    1.4192 C   0  0  0  0  0  0  0  0  0  0  0  0
   17.8856   17.7349    2.3947 C   0  0  0  0  0  0  0  0  0  0  0  0
   17.7190   18.3027    3.6467 C   0  0  0  0  0  0  0  0  0  0  0  0
   18.5947   18.1225    4.8511 C   0  0  0  0  0  0  0  0  0  0  0  0
   18.1405   19.3031    5.7233 C   0  0  0  0  0  0  0  0  0  0  0  0
   18.9562   20.4613    5.4264 O   0  0  0  0  0  0  0  0  0  0  0  0
   18.8789   20.6782    4.4842 H   0  0  0  0  0  0  0  0  0  0  0  0
   15.6064   23.5339    7.7820 O   0  0  0  0  0  0  0  0  0  0  0  0
   16.9405   23.2967    8.2272 C   0  0  0  0  0  0  0  0  0  0  0  0
   17.1063   22.0351    9.0276 C   0  0  0  0  0  0  0  0  0  0  0  0
   18.2810   21.2757    8.9256 C   0  0  0  0  0  0  0  0  0  0  0  0
   18.4188   20.0883    9.6437 C   0  0  0  0  0  0  0  0  0  0  0  0
   17.3857   19.6495   10.4669 C   0  0  0  0  0  0  0  0  0  0  0  0
   16.2206   20.4046   10.5854 C   0  0  0  0  0  0  0  0  0  0  0  0
   16.0834   21.5974    9.8754 C   0  0  0  0  0  0  0  0  0  0  0  0
   12.3835   24.7466    4.4787 C   0  0  0  0  0  0  0  0  0  0  0  0
   11.1731   24.5009    5.3921 C   0  0  0  0  0  0  0  0  0  0  0  0
   10.8715   23.3911    5.8155 O   0  0  0  0  0  0  0  0  0  0  0  0
   10.4617   25.6414    5.6559 N   0  0  0  0  0  0  0  0  0  0  0  0
   10.7828   26.4841    5.2611 H   0  0  0  0  0  0  0  0  0  0  0  0
    9.2737   25.6915    6.4731 C   0  0  0  0  0  0  0  0  0  0  0  0
    9.5689   26.3340    7.7952 C   0  0  0  0  0  0  0  0  0  0  0  0
   10.2651   25.7910    8.8642 C   0  0  0  0  0  0  0  0  0  0  0  0
   10.4723   26.5850    9.9943 C   0  0  0  0  0  0  0  0  0  0  0  0
    9.9939   27.9032   10.0403 C   0  0  0  0  0  0  0  0  0  0  0  0
    9.2987   28.4426    8.9571 C   0  0  0  0  0  0  0  0  0  0  0  0
    9.0859   27.6442    7.8460 C   0  0  0  0  0  0  0  0  0  0  0  0
    8.4070   28.0248    6.5701 C   0  0  0  0  0  0  0  0  0  0  0  0
    8.2117   26.6613    5.8762 C   0  0  0  0  0  0  0  0  0  0  0  0
    8.3230   26.8251    4.4612 O   0  0  0  0  0  0  0  0  0  0  0  0
    9.1920   27.1987    4.2463 H   0  0  0  0  0  0  0  0  0  0  0  0
   11.9568   24.8731    3.1126 O   0  0  0  0  0  0  0  0  0  0  0  0
   11.0435   23.8381    2.7334 C   0  0  0  0  0  0  0  0  0  0  0  0
    9.6822   24.3687    2.3406 C   0  0  0  0  0  0  0  0  0  0  0  0
    8.5436   23.6135    2.6783 C   0  0  0  0  0  0  0  0  0  0  0  0
    7.2648   24.0281    2.2944 C   0  0  0  0  0  0  0  0  0  0  0  0
    7.1041   25.2001    1.5584 C   0  0  0  0  0  0  0  0  0  0  0  0
    8.2234   25.9612    1.2162 C   0  0  0  0  0  0  0  0  0  0  0  0
    9.5035   25.5483    1.6041 C   0  0  0  0  0  0  0  0  0  0  0  0
  2  3  1  0
  1  3  1  0
  1  4  1  0
  4  5  1  0
  5  6  1  0
  4  7  1  0
  7 23  1  0
 23 24  1  0
 24 25  1  0
 25 26  2  0
 26 27  1  0
 27 28  2  0
 28 29  1  0
 29 30  2  0
  7  8  1  0
  8  9  2  0
  8 10  1  0
 12 10  1  0
 12 13  1  0
 13 14  2  0
 14 15  1  0
 15 16  2  0
 16 17  1  0
 17 18  2  0
 18 19  1  0
 19 20  1  0
 20 21  1  0
  1 31  1  0
 31 47  1  0
 47 48  1  0
 48 49  1  0
 49 50  2  0
 50 51  1  0
 51 52  2  0
 52 53  1  0
 53 54  2  0
 31 32  1  0
 32 33  2  0
 32 34  1  0
 36 34  1  0
 36 37  1  0
 37 38  2  0
 38 39  1  0
 39 40  2  0
 40 41  1  0
 41 42  2  0
 42 43  1  0
 43 44  1  0
 44 45  1  0
 30 25  1  0
 20 12  1  0
 54 49  1  0
 44 36  1  0
 18 13  1  0
 42 37  1  0
 10 11  1  0
 21 22  1  0
 34 35  1  0
 45 46  1  0
M  END
> <minimizedAffinity>
-11.11334

> <CNNscore>
0.8676449060

> <CNNaffinity>
9.5644216537

> <CNN_VS>
8.2985219955

> <CNNaffinity_variance>
0.0588456206

$$$$



 54 59  0  0  0  0  0  0  0  0999 V2000
   13.9223   23.9333    5.8467 C   0  0  0  0  0  0  0  0  0  0  0  0
   12.8821   24.8862    7.7919 C   0  0  0  0  0  0  0  0  0  0  0  0
   13.3088   23.7021    7.1318 O   0  0  0  0  0  0  0  0  0  0  0  0
   13.0061   23.6239    4.6182 C   0  0  0  0  0  0  0  0  0  0  0  0
   12.1984   22.4538    4.8776 O   0  0  0  0  0  0  0  0  0  0  0  0
   11.9000   22.2739    6.2589 C   0  0  0  0  0  0  0  0  0  0  0  0
   12.0966   24.7795    4.1164 C   0  0  0  0  0  0  0  0  0  0  0  0
   10.7818   24.7386    4.9335 C   0  0  0  0  0  0  0  0  0  0  0  0
   10.2574   23.6921    5.3060 O   0  0  0  0  0  0  0  0  0  0  0  0
   10.2741   25.9808    5.2439 N   0  0  0  0  0  0  0  0  0  0  0  0
   10.7615   26.7741    4.9241 H   0  0  0  0  0  0  0  0  0  0  0  0
    9.0655   26.1873    6.0130 C   0  0  0  0  0  0  0  0  0  0  0  0
    9.2769   26.8822    7.3335 C   0  0  0  0  0  0  0  0  0  0  0  0
   10.2162   26.6080    8.3159 C   0  0  0  0  0  0  0  0  0  0  0  0
   10.2092   27.3735    9.4838 C   0  0  0  0  0  0  0  0  0  0  0  0
    9.2509   28.3790    9.6726 C   0  0  0  0  0  0  0  0  0  0  0  0
    8.2840   28.6285    8.6987 C   0  0  0  0  0  0  0  0  0  0  0  0
    8.3074   27.8738    7.5379 C   0  0  0  0  0  0  0  0  0  0  0  0
    7.3369   27.9315    6.3956 C   0  0  0  0  0  0  0  0  0  0  0  0
    8.1333   27.2099    5.2973 C   0  0  0  0  0  0  0  0  0  0  0  0
    8.9126   28.1774    4.5547 O   0  0  0  0  0  0  0  0  0  0  0  0
    9.5071   28.6472    5.1604 H   0  0  0  0  0  0  0  0  0  0  0  0
   11.8131   24.5938    2.7224 O   0  0  0  0  0  0  0  0  0  0  0  0
   10.8231   23.6110    2.4254 C   0  0  0  0  0  0  0  0  0  0  0  0
    9.4673   24.1794    2.1114 C   0  0  0  0  0  0  0  0  0  0  0  0
    9.3325   25.5115    1.6939 C   0  0  0  0  0  0  0  0  0  0  0  0
    8.0708   26.0461    1.4354 C   0  0  0  0  0  0  0  0  0  0  0  0
    6.9353   25.2566    1.5930 C   0  0  0  0  0  0  0  0  0  0  0  0
    7.0606   23.9280    1.9938 C   0  0  0  0  0  0  0  0  0  0  0  0
    8.3219   23.3876    2.2444 C   0  0  0  0  0  0  0  0  0  0  0  0
   15.2976   23.2285    5.8669 C   0  0  0  0  0  0  0  0  0  0  0  0
   15.1290   21.7020    5.9030 C   0  0  0  0  0  0  0  0  0  0  0  0
   14.1963   21.1473    6.4725 O   0  0  0  0  0  0  0  0  0  0  0  0
   16.1385   21.0369    5.2588 N   0  0  0  0  0  0  0  0  0  0  0  0
   16.8474   21.5752    4.8383 H   0  0  0  0  0  0  0  0  0  0  0  0
   16.2333   19.6010    5.1546 C   0  0  0  0  0  0  0  0  0  0  0  0
   15.9999   19.1575    3.7415 C   0  0  0  0  0  0  0  0  0  0  0  0
   14.7961   19.1144    3.0551 C   0  0  0  0  0  0  0  0  0  0  0  0
   14.8080   18.7127    1.7176 C   0  0  0  0  0  0  0  0  0  0  0  0
   16.0119   18.3702    1.0838 C   0  0  0  0  0  0  0  0  0  0  0  0
   17.2193   18.4218    1.7817 C   0  0  0  0  0  0  0  0  0  0  0  0
   17.1971   18.8081    3.1112 C   0  0  0  0  0  0  0  0  0  0  0  0
   18.3645   18.9696    4.0302 C   0  0  0  0  0  0  0  0  0  0  0  0
   17.6874   19.1058    5.4093 C   0  0  0  0  0  0  0  0  0  0  0  0
   18.4527   19.9883    6.2321 O   0  0  0  0  0  0  0  0  0  0  0  0
   18.5258   20.8528    5.7984 H   0  0  0  0  0  0  0  0  0  0  0  0
   16.1423   23.6601    6.9461 O   0  0  0  0  0  0  0  0  0  0  0  0
   15.6523   23.2313    8.2209 C   0  0  0  0  0  0  0  0  0  0  0  0
   16.5080   22.1529    8.8485 C   0  0  0  0  0  0  0  0  0  0  0  0
   17.9038   22.2209    8.6821 C   0  0  0  0  0  0  0  0  0  0  0  0
   18.7393   21.2238    9.1943 C   0  0  0  0  0  0  0  0  0  0  0  0
   18.1921   20.1372    9.8733 C   0  0  0  0  0  0  0  0  0  0  0  0
   16.8093   20.0554   10.0477 C   0  0  0  0  0  0  0  0  0  0  0  0
   15.9730   21.0558    9.5385 C   0  0  0  0  0  0  0  0  0  0  0  0
  2  3  1  0
  1  3  1  0
  1  4  1  0
  4  5  1  0
  5  6  1  0
  4  7  1  0
  7 23  1  0
 23 24  1  0
 24 25  1  0
 25 26  2  0
 26 27  1  0
 27 28  2  0
 28 29  1  0
 29 30  2  0
  7  8  1  0
  8  9  2  0
  8 10  1  0
 12 10  1  0
 12 13  1  0
 13 14  2  0
 14 15  1  0
 15 16  2  0
 16 17  1  0
 17 18  2  0
 18 19  1  0
 19 20  1  0
 20 21  1  0
  1 31  1  0
 31 47  1  0
 47 48  1  0
 48 49  1  0
 49 50  2  0
 50 51  1  0
 51 52  2  0
 52 53  1  0
 53 54  2  0
 31 32  1  0
 32 33  2  0
 32 34  1  0
 36 34  1  0
 36 37  1  0
 37 38  2  0
 38 39  1  0
 39 40  2  0
 40 41  1  0
 41 42  2  0
 42 43  1  0
 43 44  1  0
 44 45  1  0
 30 25  1  0
 20 12  1  0
 54 49  1  0
 44 36  1  0
 18 13  1  0
 42 37  1  0
 10 11  1  0
 21 22  1  0
 34 35  1  0
 45 46  1  0
M  END
> <minimizedAffinity>
-11.17021

> <CNNscore>
0.7689989805

> <CNNaffinity>
9.5038747787

> <CNN_VS>
7.3084702492

> <CNNaffinity_variance>
0.0870626643

$$$$



 54 59  0  0  0  0  0  0  0  0999 V2000
   12.9371   24.3615    6.5063 C   0  0  0  0  0  0  0  0  0  0  0  0
   14.5513   24.4409    4.7281 C   0  0  0  0  0  0  0  0  0  0  0  0
   13.4262   25.0565    5.3405 O   0  0  0  0  0  0  0  0  0  0  0  0
   13.8759   23.2288    7.0355 C   0  0  0  0  0  0  0  0  0  0  0  0
   13.1197   22.0195    7.2689 O   0  0  0  0  0  0  0  0  0  0  0  0
   11.7950   22.0777    6.7482 C   0  0  0  0  0  0  0  0  0  0  0  0
   15.1266   22.8988    6.1745 C   0  0  0  0  0  0  0  0  0  0  0  0
   15.1448   21.3699    5.9292 C   0  0  0  0  0  0  0  0  0  0  0  0
   14.1326   20.6747    5.9614 O   0  0  0  0  0  0  0  0  0  0  0  0
   16.3900   20.8637    5.6285 N   0  0  0  0  0  0  0  0  0  0  0  0
   17.1510   21.4880    5.6045 H   0  0  0  0  0  0  0  0  0  0  0  0
   16.6446   19.4674    5.3457 C   0  0  0  0  0  0  0  0  0  0  0  0
   16.5577   19.0999    3.8866 C   0  0  0  0  0  0  0  0  0  0  0  0
   15.5657   19.4169    2.9713 C   0  0  0  0  0  0  0  0  0  0  0  0
   15.6814   18.9403    1.6638 C   0  0  0  0  0  0  0  0  0  0  0  0
   16.7639   18.1308    1.2923 C   0  0  0  0  0  0  0  0  0  0  0  0
   17.7416   17.7829    2.2244 C   0  0  0  0  0  0  0  0  0  0  0  0
   17.6257   18.2716    3.5149 C   0  0  0  0  0  0  0  0  0  0  0  0
   18.5212   17.9792    4.6821 C   0  0  0  0  0  0  0  0  0  0  0  0
   18.1330   19.1149    5.6415 C   0  0  0  0  0  0  0  0  0  0  0  0
   18.9856   20.2594    5.4009 O   0  0  0  0  0  0  0  0  0  0  0  0
   18.8952   20.5415    4.4773 H   0  0  0  0  0  0  0  0  0  0  0  0
   16.3110   23.2960    6.8801 O   0  0  0  0  0  0  0  0  0  0  0  0
   16.2188   23.2522    8.3027 C   0  0  0  0  0  0  0  0  0  0  0  0
   16.6276   21.9369    8.9050 C   0  0  0  0  0  0  0  0  0  0  0  0
   15.7032   21.1640    9.6227 C   0  0  0  0  0  0  0  0  0  0  0  0
   16.0936   19.9604   10.2090 C   0  0  0  0  0  0  0  0  0  0  0  0
   17.4084   19.5205   10.0847 C   0  0  0  0  0  0  0  0  0  0  0  0
   18.3301   20.2748    9.3615 C   0  0  0  0  0  0  0  0  0  0  0  0
   17.9405   21.4747    8.7664 C   0  0  0  0  0  0  0  0  0  0  0  0
   11.4754   23.9545    6.2122 C   0  0  0  0  0  0  0  0  0  0  0  0
   11.3246   23.4676    4.7631 C   0  0  0  0  0  0  0  0  0  0  0  0
   12.1590   22.7640    4.2056 O   0  0  0  0  0  0  0  0  0  0  0  0
   10.1813   23.9232    4.1618 N   0  0  0  0  0  0  0  0  0  0  0  0
    9.5777   24.4904    4.6941 H   0  0  0  0  0  0  0  0  0  0  0  0
    9.8013   23.6284    2.8016 C   0  0  0  0  0  0  0  0  0  0  0  0
    8.3493   23.9303    2.5816 C   0  0  0  0  0  0  0  0  0  0  0  0
    7.2559   23.2053    3.0300 C   0  0  0  0  0  0  0  0  0  0  0  0
    5.9768   23.6933    2.7542 C   0  0  0  0  0  0  0  0  0  0  0  0
    5.8054   24.8934    2.0479 C   0  0  0  0  0  0  0  0  0  0  0  0
    6.9124   25.6189    1.6052 C   0  0  0  0  0  0  0  0  0  0  0  0
    8.1769   25.1211    1.8710 C   0  0  0  0  0  0  0  0  0  0  0  0
    9.4902   25.7465    1.5281 C   0  0  0  0  0  0  0  0  0  0  0  0
   10.4860   24.5994    1.7952 C   0  0  0  0  0  0  0  0  0  0  0  0
   11.7189   25.1391    2.2751 O   0  0  0  0  0  0  0  0  0  0  0  0
   11.5558   25.6480    3.0847 H   0  0  0  0  0  0  0  0  0  0  0  0
   10.5279   24.9994    6.4858 O   0  0  0  0  0  0  0  0  0  0  0  0
    9.8271   24.7854    7.7154 C   0  0  0  0  0  0  0  0  0  0  0  0
    9.5437   26.0697    8.4631 C   0  0  0  0  0  0  0  0  0  0  0  0
   10.5530   26.6060    9.2843 C   0  0  0  0  0  0  0  0  0  0  0  0
   10.3287   27.7609   10.0397 C   0  0  0  0  0  0  0  0  0  0  0  0
    9.0882   28.3934    9.9937 C   0  0  0  0  0  0  0  0  0  0  0  0
    8.0767   27.8747    9.1831 C   0  0  0  0  0  0  0  0  0  0  0  0
    8.3024   26.7208    8.4236 C   0  0  0  0  0  0  0  0  0  0  0  0
  2  3  1  0
  1  3  1  0
  1  4  1  0
  4  5  1  0
  5  6  1  0
  4  7  1  0
  7 23  1  0
 23 24  1  0
 24 25  1  0
 25 26  2  0
 26 27  1  0
 27 28  2  0
 28 29  1  0
 29 30  2  0
  7  8  1  0
  8  9  2  0
  8 10  1  0
 12 10  1  0
 12 13  1  0
 13 14  2  0
 14 15  1  0
 15 16  2  0
 16 17  1  0
 17 18  2  0
 18 19  1  0
 19 20  1  0
 20 21  1  0
  1 31  1  0
 31 47  1  0
 47 48  1  0
 48 49  1  0
 49 50  2  0
 50 51  1  0
 51 52  2  0
 52 53  1  0
 53 54  2  0
 31 32  1  0
 32 33  2  0
 32 34  1  0
 36 34  1  0
 36 37  1  0
 37 38  2  0
 38 39  1  0
 39 40  2  0
 40 41  1  0
 41 42  2  0
 42 43  1  0
 43 44  1  0
 44 45  1  0
 30 25  1  0
 20 12  1  0
 54 49  1  0
 44 36  1  0
 18 13  1  0
 42 37  1  0
 10 11  1  0
 21 22  1  0
 34 35  1  0
 45 46  1  0
M  END
> <minimizedAffinity>
-11.20261

> <CNNscore>
0.6602181792

> <CNNaffinity>
9.0289850235

> <CNN_VS>
5.9611001015

> <CNNaffinity_variance>
0.0148554640

$$$$



 54 59  0  0  0  0  0  0  0  0999 V2000
    8.9561   24.9075    5.0401 C   0  0  0  0  0  0  0  0  0  0  0  0
    9.3999   27.2115    5.5584 C   0  0  0  0  0  0  0  0  0  0  0  0
    8.7653   26.0042    5.9578 O   0  0  0  0  0  0  0  0  0  0  0  0
   10.4447   24.4747    4.8370 C   0  0  0  0  0  0  0  0  0  0  0  0
   10.9144   24.8911    3.5352 O   0  0  0  0  0  0  0  0  0  0  0  0
   11.0712   23.8080    2.6232 C   0  0  0  0  0  0  0  0  0  0  0  0
   11.4588   24.9296    5.9228 C   0  0  0  0  0  0  0  0  0  0  0  0
   12.6208   23.9061    5.9464 C   0  0  0  0  0  0  0  0  0  0  0  0
   12.5058   22.7734    6.4074 O   0  0  0  0  0  0  0  0  0  0  0  0
   13.7833   24.3622    5.3653 N   0  0  0  0  0  0  0  0  0  0  0  0
   13.7921   25.2771    5.0017 H   0  0  0  0  0  0  0  0  0  0  0  0
   14.9927   23.5744    5.2582 C   0  0  0  0  0  0  0  0  0  0  0  0
   15.2957   22.7282    6.4681 C   0  0  0  0  0  0  0  0  0  0  0  0
   15.2929   23.0961    7.8049 C   0  0  0  0  0  0  0  0  0  0  0  0
   15.6364   22.1416    8.7646 C   0  0  0  0  0  0  0  0  0  0  0  0
   16.0074   20.8452    8.3812 C   0  0  0  0  0  0  0  0  0  0  0  0
   16.0450   20.4881    7.0333 C   0  0  0  0  0  0  0  0  0  0  0  0
   15.6893   21.4372    6.0897 C   0  0  0  0  0  0  0  0  0  0  0  0
   15.7145   21.2900    4.5972 C   0  0  0  0  0  0  0  0  0  0  0  0
   14.8286   22.4709    4.1709 C   0  0  0  0  0  0  0  0  0  0  0  0
   13.4511   22.0339    4.0916 O   0  0  0  0  0  0  0  0  0  0  0  0
   13.1722   21.6861    4.9531 H   0  0  0  0  0  0  0  0  0  0  0  0
   10.8082   24.9617    7.2011 O   0  0  0  0  0  0  0  0  0  0  0  0
   11.5063   25.6678    8.2249 C   0  0  0  0  0  0  0  0  0  0  0  0
   10.6490   26.6234    9.0069 C   0  0  0  0  0  0  0  0  0  0  0  0
    9.2513   26.5771    8.9007 C   0  0  0  0  0  0  0  0  0  0  0  0
    8.4595   27.4864    9.6014 C   0  0  0  0  0  0  0  0  0  0  0  0
    9.0562   28.4486   10.4112 C   0  0  0  0  0  0  0  0  0  0  0  0
   10.4435   28.4931   10.5338 C   0  0  0  0  0  0  0  0  0  0  0  0
   11.2378   27.5793    9.8413 C   0  0  0  0  0  0  0  0  0  0  0  0
    8.1627   25.2456    3.7575 C   0  0  0  0  0  0  0  0  0  0  0  0
    7.2285   26.4422    3.9922 C   0  0  0  0  0  0  0  0  0  0  0  0
    7.4439   27.5570    3.5308 O   0  0  0  0  0  0  0  0  0  0  0  0
    6.1553   26.1355    4.7863 N   0  0  0  0  0  0  0  0  0  0  0  0
    6.0764   25.2103    5.1137 H   0  0  0  0  0  0  0  0  0  0  0  0
    5.1328   27.0760    5.1754 C   0  0  0  0  0  0  0  0  0  0  0  0
    3.8167   26.7113    4.5566 C   0  0  0  0  0  0  0  0  0  0  0  0
    3.4324   26.8615    3.2330 C   0  0  0  0  0  0  0  0  0  0  0  0
    2.1679   26.4067    2.8526 C   0  0  0  0  0  0  0  0  0  0  0  0
    1.3127   25.8045    3.7877 C   0  0  0  0  0  0  0  0  0  0  0  0
    1.7107   25.6530    5.1167 C   0  0  0  0  0  0  0  0  0  0  0  0
    2.9605   26.1188    5.4885 C   0  0  0  0  0  0  0  0  0  0  0  0
    3.6007   26.0267    6.8358 C   0  0  0  0  0  0  0  0  0  0  0  0
    4.8113   26.9720    6.6954 C   0  0  0  0  0  0  0  0  0  0  0  0
    5.9003   26.4725    7.4740 O   0  0  0  0  0  0  0  0  0  0  0  0
    6.1269   25.5775    7.1763 H   0  0  0  0  0  0  0  0  0  0  0  0
    7.4203   24.1308    3.2375 O   0  0  0  0  0  0  0  0  0  0  0  0
    6.7437   24.4534    2.0180 C   0  0  0  0  0  0  0  0  0  0  0  0
    5.3091   23.9736    1.9955 C   0  0  0  0  0  0  0  0  0  0  0  0
    4.7903   23.3519    3.1467 C   0  0  0  0  0  0  0  0  0  0  0  0
    3.4889   22.8415    3.1647 C   0  0  0  0  0  0  0  0  0  0  0  0
    2.6877   22.9360    2.0288 C   0  0  0  0  0  0  0  0  0  0  0  0
    3.1870   23.5508    0.8791 C   0  0  0  0  0  0  0  0  0  0  0  0
    4.4886   24.0656    0.8622 C   0  0  0  0  0  0  0  0  0  0  0  0
  2  3  1  0
  1  3  1  0
  1  4  1  0
  4  5  1  0
  5  6  1  0
  4  7  1  0
  7 23  1  0
 23 24  1  0
 24 25  1  0
 25 26  2  0
 26 27  1  0
 27 28  2  0
 28 29  1  0
 29 30  2  0
  7  8  1  0
  8  9  2  0
  8 10  1  0
 12 10  1  0
 12 13  1  0
 13 14  2  0
 14 15  1  0
 15 16  2  0
 16 17  1  0
 17 18  2  0
 18 19  1  0
 19 20  1  0
 20 21  1  0
  1 31  1  0
 31 47  1  0
 47 48  1  0
 48 49  1  0
 49 50  2  0
 50 51  1  0
 51 52  2  0
 52 53  1  0
 53 54  2  0
 31 32  1  0
 32 33  2  0
 32 34  1  0
 36 34  1  0
 36 37  1  0
 37 38  2  0
 38 39  1  0
 39 40  2  0
 40 41  1  0
 41 42  2  0
 42 43  1  0
 43 44  1  0
 44 45  1  0
 30 25  1  0
 20 12  1  0
 54 49  1  0
 44 36  1  0
 18 13  1  0
 42 37  1  0
 10 11  1  0
 21 22  1  0
 34 35  1  0
 45 46  1  0
M  END
> <minimizedAffinity>
-8.55107

> <CNNscore>
0.5892620683

> <CNNaffinity>
8.8458738327

> <CNN_VS>
5.2125377655

> <CNNaffinity_variance>
0.1591252238

$$$$



 54 59  0  0  0  0  0  0  0  0999 V2000
   14.0170   22.6399    5.1569 C   0  0  0  0  0  0  0  0  0  0  0  0
   13.6649   24.1359    7.0041 C   0  0  0  0  0  0  0  0  0  0  0  0
   14.5621   23.6728    6.0039 O   0  0  0  0  0  0  0  0  0  0  0  0
   12.5900   22.9403    4.5932 C   0  0  0  0  0  0  0  0  0  0  0  0
   11.6034   22.1281    5.2683 O   0  0  0  0  0  0  0  0  0  0  0  0
   12.1430   21.3752    6.3506 C   0  0  0  0  0  0  0  0  0  0  0  0
   12.1329   24.4253    4.6042 C   0  0  0  0  0  0  0  0  0  0  0  0
   10.8407   24.5186    5.4526 C   0  0  0  0  0  0  0  0  0  0  0  0
   10.4260   23.5923    6.1446 O   0  0  0  0  0  0  0  0  0  0  0  0
   10.2198   25.7469    5.3978 N   0  0  0  0  0  0  0  0  0  0  0  0
   10.6231   26.4456    4.8336 H   0  0  0  0  0  0  0  0  0  0  0  0
    9.0087   26.0697    6.1215 C   0  0  0  0  0  0  0  0  0  0  0  0
    9.2349   26.7775    7.4327 C   0  0  0  0  0  0  0  0  0  0  0  0
   10.1173   26.4521    8.4516 C   0  0  0  0  0  0  0  0  0  0  0  0
   10.1365   27.2441    9.6015 C   0  0  0  0  0  0  0  0  0  0  0  0
    9.2583   28.3286    9.7362 C   0  0  0  0  0  0  0  0  0  0  0  0
    8.3462   28.6318    8.7254 C   0  0  0  0  0  0  0  0  0  0  0  0
    8.3440   27.8492    7.5829 C   0  0  0  0  0  0  0  0  0  0  0  0
    7.4178   27.9575    6.4080 C   0  0  0  0  0  0  0  0  0  0  0  0
    8.1864   27.1468    5.3529 C   0  0  0  0  0  0  0  0  0  0  0  0
    9.0652   28.0292    4.6156 O   0  0  0  0  0  0  0  0  0  0  0  0
    9.6770   28.4639    5.2302 H   0  0  0  0  0  0  0  0  0  0  0  0
   11.8689   24.8542    3.2608 O   0  0  0  0  0  0  0  0  0  0  0  0
   11.1583   23.9209    2.4496 C   0  0  0  0  0  0  0  0  0  0  0  0
    9.7054   24.2550    2.2569 C   0  0  0  0  0  0  0  0  0  0  0  0
    9.3196   25.5308    1.8202 C   0  0  0  0  0  0  0  0  0  0  0  0
    7.9697   25.8487    1.6744 C   0  0  0  0  0  0  0  0  0  0  0  0
    6.9957   24.8974    1.9644 C   0  0  0  0  0  0  0  0  0  0  0  0
    7.3701   23.6230    2.3853 C   0  0  0  0  0  0  0  0  0  0  0  0
    8.7198   23.2989    2.5235 C   0  0  0  0  0  0  0  0  0  0  0  0
   14.1856   21.3003    5.9090 C   0  0  0  0  0  0  0  0  0  0  0  0
   15.3694   21.3669    6.8857 C   0  0  0  0  0  0  0  0  0  0  0  0
   16.4967   20.9843    6.5944 O   0  0  0  0  0  0  0  0  0  0  0  0
   15.0237   21.8704    8.1118 N   0  0  0  0  0  0  0  0  0  0  0  0
   14.0877   22.1433    8.2484 H   0  0  0  0  0  0  0  0  0  0  0  0
   15.9382   22.0280    9.2166 C   0  0  0  0  0  0  0  0  0  0  0  0
   16.5387   20.7081    9.5975 C   0  0  0  0  0  0  0  0  0  0  0  0
   15.9269   19.6618   10.2705 C   0  0  0  0  0  0  0  0  0  0  0  0
   16.6574   18.4904   10.4822 C   0  0  0  0  0  0  0  0  0  0  0  0
   17.9757   18.3749   10.0159 C   0  0  0  0  0  0  0  0  0  0  0  0
   18.5811   19.4319    9.3348 C   0  0  0  0  0  0  0  0  0  0  0  0
   17.8545   20.5946    9.1410 C   0  0  0  0  0  0  0  0  0  0  0  0
   18.2867   21.8252    8.4114 C   0  0  0  0  0  0  0  0  0  0  0  0
   17.1974   22.8448    8.8023 C   0  0  0  0  0  0  0  0  0  0  0  0
   16.9632   23.7359    7.7101 O   0  0  0  0  0  0  0  0  0  0  0  0
   16.6933   23.2269    6.9298 H   0  0  0  0  0  0  0  0  0  0  0  0
   14.3278   20.1702    5.0331 O   0  0  0  0  0  0  0  0  0  0  0  0
   14.8800   20.5359    3.7641 C   0  0  0  0  0  0  0  0  0  0  0  0
   15.7555   19.4549    3.1691 C   0  0  0  0  0  0  0  0  0  0  0  0
   16.7101   18.8329    3.9952 C   0  0  0  0  0  0  0  0  0  0  0  0
   17.5819   17.8657    3.4861 C   0  0  0  0  0  0  0  0  0  0  0  0
   17.5197   17.5112    2.1402 C   0  0  0  0  0  0  0  0  0  0  0  0
   16.5776   18.1181    1.3076 C   0  0  0  0  0  0  0  0  0  0  0  0
   15.7020   19.0835    1.8181 C   0  0  0  0  0  0  0  0  0  0  0  0
  2  3  1  0
  1  3  1  0
  1  4  1  0
  4  5  1  0
  5  6  1  0
  4  7  1  0
  7 23  1  0
 23 24  1  0
 24 25  1  0
 25 26  2  0
 26 27  1  0
 27 28  2  0
 28 29  1  0
 29 30  2  0
  7  8  1  0
  8  9  2  0
  8 10  1  0
 12 10  1  0
 12 13  1  0
 13 14  2  0
 14 15  1  0
 15 16  2  0
 16 17  1  0
 17 18  2  0
 18 19  1  0
 19 20  1  0
 20 21  1  0
  1 31  1  0
 31 47  1  0
 47 48  1  0
 48 49  1  0
 49 50  2  0
 50 51  1  0
 51 52  2  0
 52 53  1  0
 53 54  2  0
 31 32  1  0
 32 33  2  0
 32 34  1  0
 36 34  1  0
 36 37  1  0
 37 38  2  0
 38 39  1  0
 39 40  2  0
 40 41  1  0
 41 42  2  0
 42 43  1  0
 43 44  1  0
 44 45  1  0
 30 25  1  0
 20 12  1  0
 54 49  1  0
 44 36  1  0
 18 13  1  0
 42 37  1  0
 10 11  1  0
 21 22  1  0
 34 35  1  0
 45 46  1  0
M  END
> <minimizedAffinity>
-11.56739

> <CNNscore>
0.5313823819

> <CNNaffinity>
9.0249567032

> <CNN_VS>
4.7957029343

> <CNNaffinity_variance>
0.5164304376

$$$$



 54 59  0  0  0  0  0  0  0  0999 V2000
   14.3786   21.4145    6.4107 C   0  0  0  0  0  0  0  0  0  0  0  0
   15.2614   21.6162    4.1850 C   0  0  0  0  0  0  0  0  0  0  0  0
   14.1330   21.3102    4.9929 O   0  0  0  0  0  0  0  0  0  0  0  0
   14.4262   22.8770    6.9614 C   0  0  0  0  0  0  0  0  0  0  0  0
   15.3528   23.6732    6.1894 O   0  0  0  0  0  0  0  0  0  0  0  0
   14.8429   24.0454    4.9123 C   0  0  0  0  0  0  0  0  0  0  0  0
   13.0693   23.6257    7.0736 C   0  0  0  0  0  0  0  0  0  0  0  0
   12.1104   23.0332    6.0117 C   0  0  0  0  0  0  0  0  0  0  0  0
   11.5930   21.9246    6.1213 O   0  0  0  0  0  0  0  0  0  0  0  0
   11.8536   23.8766    4.9534 N   0  0  0  0  0  0  0  0  0  0  0  0
   12.2929   24.7576    4.9453 H   0  0  0  0  0  0  0  0  0  0  0  0
   10.9754   23.5426    3.8525 C   0  0  0  0  0  0  0  0  0  0  0  0
    9.7578   24.4231    3.7358 C   0  0  0  0  0  0  0  0  0  0  0  0
    8.8668   24.8047    4.7272 C   0  0  0  0  0  0  0  0  0  0  0  0
    7.7821   25.6128    4.3802 C   0  0  0  0  0  0  0  0  0  0  0  0
    7.5807   26.0046    3.0494 C   0  0  0  0  0  0  0  0  0  0  0  0
    8.4580   25.5891    2.0477 C   0  0  0  0  0  0  0  0  0  0  0  0
    9.5385   24.7995    2.4035 C   0  0  0  0  0  0  0  0  0  0  0  0
   10.5640   24.1961    1.4902 C   0  0  0  0  0  0  0  0  0  0  0  0
   11.6732   23.8371    2.4912 C   0  0  0  0  0  0  0  0  0  0  0  0
   12.5862   24.9530    2.6170 O   0  0  0  0  0  0  0  0  0  0  0  0
   12.0981   25.7387    2.9094 H   0  0  0  0  0  0  0  0  0  0  0  0
   13.2728   25.0238    6.8242 O   0  0  0  0  0  0  0  0  0  0  0  0
   12.0877   25.7817    6.5890 C   0  0  0  0  0  0  0  0  0  0  0  0
   11.2153   25.9509    7.8015 C   0  0  0  0  0  0  0  0  0  0  0  0
   11.7334   26.5081    8.9798 C   0  0  0  0  0  0  0  0  0  0  0  0
   10.9313   26.6331   10.1136 C   0  0  0  0  0  0  0  0  0  0  0  0
    9.6081   26.2021   10.0806 C   0  0  0  0  0  0  0  0  0  0  0  0
    9.0809   25.6604    8.9101 C   0  0  0  0  0  0  0  0  0  0  0  0
    9.8779   25.5422    7.7716 C   0  0  0  0  0  0  0  0  0  0  0  0
   15.6037   20.5265    6.7257 C   0  0  0  0  0  0  0  0  0  0  0  0
   16.0697   20.7322    8.1750 C   0  0  0  0  0  0  0  0  0  0  0  0
   16.1655   21.8382    8.6941 O   0  0  0  0  0  0  0  0  0  0  0  0
   16.3877   19.5589    8.8063 N   0  0  0  0  0  0  0  0  0  0  0  0
   16.2833   18.7218    8.2986 H   0  0  0  0  0  0  0  0  0  0  0  0
   16.8651   19.4664   10.1646 C   0  0  0  0  0  0  0  0  0  0  0  0
   16.8386   18.0440   10.6380 C   0  0  0  0  0  0  0  0  0  0  0  0
   15.7305   17.2890   10.9902 C   0  0  0  0  0  0  0  0  0  0  0  0
   15.9247   15.9561   11.3592 C   0  0  0  0  0  0  0  0  0  0  0  0
   17.2106   15.3948   11.3638 C   0  0  0  0  0  0  0  0  0  0  0  0
   18.3193   16.1615   11.0025 C   0  0  0  0  0  0  0  0  0  0  0  0
   18.1196   17.4859   10.6511 C   0  0  0  0  0  0  0  0  0  0  0  0
   19.1481   18.4705   10.1969 C   0  0  0  0  0  0  0  0  0  0  0  0
   18.3814   19.8073   10.2604 C   0  0  0  0  0  0  0  0  0  0  0  0
   18.8373   20.6695    9.2163 O   0  0  0  0  0  0  0  0  0  0  0  0
   18.7037   20.2372    8.3583 H   0  0  0  0  0  0  0  0  0  0  0  0
   16.6999   20.7271    5.8187 O   0  0  0  0  0  0  0  0  0  0  0  0
   17.7098   19.7227    5.9607 C   0  0  0  0  0  0  0  0  0  0  0  0
   17.8361   18.8377    4.7401 C   0  0  0  0  0  0  0  0  0  0  0  0
   17.1213   19.1878    3.5794 C   0  0  0  0  0  0  0  0  0  0  0  0
   17.1581   18.3787    2.4398 C   0  0  0  0  0  0  0  0  0  0  0  0
   17.9029   17.2013    2.4450 C   0  0  0  0  0  0  0  0  0  0  0  0
   18.6186   16.8404    3.5882 C   0  0  0  0  0  0  0  0  0  0  0  0
   18.5851   17.6525    4.7279 C   0  0  0  0  0  0  0  0  0  0  0  0
  2  3  1  0
  1  3  1  0
  1  4  1  0
  4  5  1  0
  5  6  1  0
  4  7  1  0
  7 23  1  0
 23 24  1  0
 24 25  1  0
 25 26  2  0
 26 27  1  0
 27 28  2  0
 28 29  1  0
 29 30  2  0
  7  8  1  0
  8  9  2  0
  8 10  1  0
 12 10  1  0
 12 13  1  0
 13 14  2  0
 14 15  1  0
 15 16  2  0
 16 17  1  0
 17 18  2  0
 18 19  1  0
 19 20  1  0
 20 21  1  0
  1 31  1  0
 31 47  1  0
 47 48  1  0
 48 49  1  0
 49 50  2  0
 50 51  1  0
 51 52  2  0
 52 53  1  0
 53 54  2  0
 31 32  1  0
 32 33  2  0
 32 34  1  0
 36 34  1  0
 36 37  1  0
 37 38  2  0
 38 39  1  0
 39 40  2  0
 40 41  1  0
 41 42  2  0
 42 43  1  0
 43 44  1  0
 44 45  1  0
 30 25  1  0
 20 12  1  0
 54 49  1  0
 44 36  1  0
 18 13  1  0
 42 37  1  0
 10 11  1  0
 21 22  1  0
 34 35  1  0
 45 46  1  0
M  END
> <minimizedAffinity>
-10.18344

> <CNNscore>
0.5071334243

> <CNNaffinity>
8.1631021500

> <CNN_VS>
4.1397819519

> <CNNaffinity_variance>
0.0846492276

$$$$



 54 59  0  0  0  0  0  0  0  0999 V2000
   11.9977   23.8316    5.6273 C   0  0  0  0  0  0  0  0  0  0  0  0
   12.6594   25.4389    7.2864 C   0  0  0  0  0  0  0  0  0  0  0  0
   12.1622   24.1327    7.0286 O   0  0  0  0  0  0  0  0  0  0  0  0
   13.2307   23.1437    4.9559 C   0  0  0  0  0  0  0  0  0  0  0  0
   14.4397   23.8746    5.2605 O   0  0  0  0  0  0  0  0  0  0  0  0
   14.5810   24.1711    6.6467 C   0  0  0  0  0  0  0  0  0  0  0  0
   13.4450   21.6365    5.2672 C   0  0  0  0  0  0  0  0  0  0  0  0
   14.4215   21.5326    6.4646 C   0  0  0  0  0  0  0  0  0  0  0  0
   14.0444   21.4223    7.6284 O   0  0  0  0  0  0  0  0  0  0  0  0
   15.7516   21.5309    6.1065 N   0  0  0  0  0  0  0  0  0  0  0  0
   15.9746   21.6052    5.1505 H   0  0  0  0  0  0  0  0  0  0  0  0
   16.8403   21.4261    7.0544 C   0  0  0  0  0  0  0  0  0  0  0  0
   16.4108   21.1288    8.4681 C   0  0  0  0  0  0  0  0  0  0  0  0
   15.4163   21.7386    9.2175 C   0  0  0  0  0  0  0  0  0  0  0  0
   15.2094   21.3131   10.5313 C   0  0  0  0  0  0  0  0  0  0  0  0
   16.0128   20.3103   11.0919 C   0  0  0  0  0  0  0  0  0  0  0  0
   17.0367   19.7239   10.3480 C   0  0  0  0  0  0  0  0  0  0  0  0
   17.2253   20.1425    9.0415 C   0  0  0  0  0  0  0  0  0  0  0  0
   18.2935   19.6952    8.0882 C   0  0  0  0  0  0  0  0  0  0  0  0
   17.7087   20.1693    6.7487 C   0  0  0  0  0  0  0  0  0  0  0  0
   16.8972   19.1150    6.1789 O   0  0  0  0  0  0  0  0  0  0  0  0
   16.1905   18.8793    6.8002 H   0  0  0  0  0  0  0  0  0  0  0  0
   14.0074   20.9864    4.1185 O   0  0  0  0  0  0  0  0  0  0  0  0
   14.3454   19.6124    4.2980 C   0  0  0  0  0  0  0  0  0  0  0  0
   15.2297   19.0510    3.2198 C   0  0  0  0  0  0  0  0  0  0  0  0
   15.1689   19.5568    1.9131 C   0  0  0  0  0  0  0  0  0  0  0  0
   15.9662   19.0118    0.9072 C   0  0  0  0  0  0  0  0  0  0  0  0
   16.8282   17.9580    1.1972 C   0  0  0  0  0  0  0  0  0  0  0  0
   16.9057   17.4584    2.4956 C   0  0  0  0  0  0  0  0  0  0  0  0
   16.1160   18.0073    3.5060 C   0  0  0  0  0  0  0  0  0  0  0  0
   11.4782   25.1172    4.9447 C   0  0  0  0  0  0  0  0  0  0  0  0
   10.4114   25.8034    5.8114 C   0  0  0  0  0  0  0  0  0  0  0  0
   10.3624   27.0174    5.9720 O   0  0  0  0  0  0  0  0  0  0  0  0
    9.5480   24.9170    6.3987 N   0  0  0  0  0  0  0  0  0  0  0  0
    9.6767   23.9589    6.2121 H   0  0  0  0  0  0  0  0  0  0  0  0
    8.4627   25.2919    7.2724 C   0  0  0  0  0  0  0  0  0  0  0  0
    8.9600   26.1581    8.3905 C   0  0  0  0  0  0  0  0  0  0  0  0
    9.6996   25.7709    9.4974 C   0  0  0  0  0  0  0  0  0  0  0  0
   10.1065   26.7544   10.4017 C   0  0  0  0  0  0  0  0  0  0  0  0
    9.7807   28.1022   10.1879 C   0  0  0  0  0  0  0  0  0  0  0  0
    9.0402   28.4828    9.0678 C   0  0  0  0  0  0  0  0  0  0  0  0
    8.6292   27.4999    8.1834 C   0  0  0  0  0  0  0  0  0  0  0  0
    7.8679   27.6836    6.9105 C   0  0  0  0  0  0  0  0  0  0  0  0
    7.4561   26.2399    6.5566 C   0  0  0  0  0  0  0  0  0  0  0  0
    7.4384   26.0827    5.1365 O   0  0  0  0  0  0  0  0  0  0  0  0
    8.3160   26.2875    4.7776 H   0  0  0  0  0  0  0  0  0  0  0  0
   10.9713   24.8925    3.6192 O   0  0  0  0  0  0  0  0  0  0  0  0
   10.0542   23.7946    3.5699 C   0  0  0  0  0  0  0  0  0  0  0  0
    8.7700   24.1320    2.8446 C   0  0  0  0  0  0  0  0  0  0  0  0
    8.7534   25.2527    1.9935 C   0  0  0  0  0  0  0  0  0  0  0  0
    7.5809   25.6428    1.3395 C   0  0  0  0  0  0  0  0  0  0  0  0
    6.4032   24.9240    1.5330 C   0  0  0  0  0  0  0  0  0  0  0  0
    6.4031   23.8091    2.3733 C   0  0  0  0  0  0  0  0  0  0  0  0
    7.5780   23.4160    3.0250 C   0  0  0  0  0  0  0  0  0  0  0  0
  2  3  1  0
  1  3  1  0
  1  4  1  0
  4  5  1  0
  5  6  1  0
  4  7  1  0
  7 23  1  0
 23 24  1  0
 24 25  1  0
 25 26  2  0
 26 27  1  0
 27 28  2  0
 28 29  1  0
 29 30  2  0
  7  8  1  0
  8  9  2  0
  8 10  1  0
 12 10  1  0
 12 13  1  0
 13 14  2  0
 14 15  1  0
 15 16  2  0
 16 17  1  0
 17 18  2  0
 18 19  1  0
 19 20  1  0
 20 21  1  0
  1 31  1  0
 31 47  1  0
 47 48  1  0
 48 49  1  0
 49 50  2  0
 50 51  1  0
 51 52  2  0
 52 53  1  0
 53 54  2  0
 31 32  1  0
 32 33  2  0
 32 34  1  0
 36 34  1  0
 36 37  1  0
 37 38  2  0
 38 39  1  0
 39 40  2  0
 40 41  1  0
 41 42  2  0
 42 43  1  0
 43 44  1  0
 44 45  1  0
 30 25  1  0
 20 12  1  0
 54 49  1  0
 44 36  1  0
 18 13  1  0
 42 37  1  0
 10 11  1  0
 21 22  1  0
 34 35  1  0
 45 46  1  0
M  END
> <minimizedAffinity>
-9.02344

> <CNNscore>
0.5007464290

> <CNNaffinity>
8.9957933426

> <CNN_VS>
4.5046114922

> <CNNaffinity_variance>
0.0410236120

$$$$



 54 59  0  0  0  0  0  0  0  0999 V2000
   14.6332   21.9384    5.9581 C   0  0  0  0  0  0  0  0  0  0  0  0
   13.7016   21.3908    3.8119 C   0  0  0  0  0  0  0  0  0  0  0  0
   14.8057   21.9304    4.5258 O   0  0  0  0  0  0  0  0  0  0  0  0
   14.2596   23.3299    6.5652 C   0  0  0  0  0  0  0  0  0  0  0  0
   14.4989   24.3784    5.5997 O   0  0  0  0  0  0  0  0  0  0  0  0
   15.6633   24.1572    4.8094 C   0  0  0  0  0  0  0  0  0  0  0  0
   12.8251   23.4771    7.1439 C   0  0  0  0  0  0  0  0  0  0  0  0
   11.8251   22.9966    6.0635 C   0  0  0  0  0  0  0  0  0  0  0  0
   11.2309   21.9237    6.1312 O   0  0  0  0  0  0  0  0  0  0  0  0
   11.6269   23.8976    5.0407 N   0  0  0  0  0  0  0  0  0  0  0  0
   12.1272   24.7451    5.0658 H   0  0  0  0  0  0  0  0  0  0  0  0
   10.7256   23.6706    3.9313 C   0  0  0  0  0  0  0  0  0  0  0  0
    9.5950   24.6622    3.8324 C   0  0  0  0  0  0  0  0  0  0  0  0
    8.7394   25.1025    4.8306 C   0  0  0  0  0  0  0  0  0  0  0  0
    7.7352   26.0148    4.5001 C   0  0  0  0  0  0  0  0  0  0  0  0
    7.5756   26.4529    3.1780 C   0  0  0  0  0  0  0  0  0  0  0  0
    8.4145   25.9804    2.1686 C   0  0  0  0  0  0  0  0  0  0  0  0
    9.4161   25.0866    2.5084 C   0  0  0  0  0  0  0  0  0  0  0  0
   10.3849   24.4113    1.5836 C   0  0  0  0  0  0  0  0  0  0  0  0
   11.4525   23.9293    2.5780 C   0  0  0  0  0  0  0  0  0  0  0  0
   12.4642   24.9531    2.7302 O   0  0  0  0  0  0  0  0  0  0  0  0
   12.0497   25.7738    3.0393 H   0  0  0  0  0  0  0  0  0  0  0  0
   12.5774   24.8537    7.4632 O   0  0  0  0  0  0  0  0  0  0  0  0
   11.2655   25.3248    7.1612 C   0  0  0  0  0  0  0  0  0  0  0  0
   10.7484   26.3608    8.1200 C   0  0  0  0  0  0  0  0  0  0  0  0
   11.3786   26.5651    9.3562 C   0  0  0  0  0  0  0  0  0  0  0  0
   10.8771   27.5032   10.2578 C   0  0  0  0  0  0  0  0  0  0  0  0
    9.7431   28.2425    9.9335 C   0  0  0  0  0  0  0  0  0  0  0  0
    9.1186   28.0563    8.7019 C   0  0  0  0  0  0  0  0  0  0  0  0
    9.6231   27.1251    7.7941 C   0  0  0  0  0  0  0  0  0  0  0  0
   15.8682   21.2373    6.5680 C   0  0  0  0  0  0  0  0  0  0  0  0
   16.4056   20.1545    5.6200 C   0  0  0  0  0  0  0  0  0  0  0  0
   17.4122   20.3057    4.9374 O   0  0  0  0  0  0  0  0  0  0  0  0
   15.6300   19.0257    5.6026 N   0  0  0  0  0  0  0  0  0  0  0  0
   14.8354   19.0060    6.1835 H   0  0  0  0  0  0  0  0  0  0  0  0
   15.8983   17.8636    4.7907 C   0  0  0  0  0  0  0  0  0  0  0  0
   15.7673   18.1951    3.3344 C   0  0  0  0  0  0  0  0  0  0  0  0
   14.6011   18.4109    2.6163 C   0  0  0  0  0  0  0  0  0  0  0  0
   14.7060   18.7599    1.2681 C   0  0  0  0  0  0  0  0  0  0  0  0
   15.9629   18.8967    0.6599 C   0  0  0  0  0  0  0  0  0  0  0  0
   17.1313   18.6824    1.3924 C   0  0  0  0  0  0  0  0  0  0  0  0
   17.0182   18.3236    2.7250 C   0  0  0  0  0  0  0  0  0  0  0  0
   18.1263   18.0856    3.6991 C   0  0  0  0  0  0  0  0  0  0  0  0
   17.3914   17.4328    4.8877 C   0  0  0  0  0  0  0  0  0  0  0  0
   18.0181   17.8250    6.1105 O   0  0  0  0  0  0  0  0  0  0  0  0
   18.0026   18.7919    6.1861 H   0  0  0  0  0  0  0  0  0  0  0  0
   15.6210   20.6797    7.8689 O   0  0  0  0  0  0  0  0  0  0  0  0
   16.5734   21.1278    8.8390 C   0  0  0  0  0  0  0  0  0  0  0  0
   17.0663   20.0153    9.7381 C   0  0  0  0  0  0  0  0  0  0  0  0
   18.4025   20.0497   10.1790 C   0  0  0  0  0  0  0  0  0  0  0  0
   18.9272   19.0213   10.9674 C   0  0  0  0  0  0  0  0  0  0  0  0
   18.1271   17.9366   11.3203 C   0  0  0  0  0  0  0  0  0  0  0  0
   16.7992   17.8879   10.8919 C   0  0  0  0  0  0  0  0  0  0  0  0
   16.2725   18.9196   10.1060 C   0  0  0  0  0  0  0  0  0  0  0  0
  2  3  1  0
  1  3  1  0
  1  4  1  0
  4  5  1  0
  5  6  1  0
  4  7  1  0
  7 23  1  0
 23 24  1  0
 24 25  1  0
 25 26  2  0
 26 27  1  0
 27 28  2  0
 28 29  1  0
 29 30  2  0
  7  8  1  0
  8  9  2  0
  8 10  1  0
 12 10  1  0
 12 13  1  0
 13 14  2  0
 14 15  1  0
 15 16  2  0
 16 17  1  0
 17 18  2  0
 18 19  1  0
 19 20  1  0
 20 21  1  0
  1 31  1  0
 31 47  1  0
 47 48  1  0
 48 49  1  0
 49 50  2  0
 50 51  1  0
 51 52  2  0
 52 53  1  0
 53 54  2  0
 31 32  1  0
 32 33  2  0
 32 34  1  0
 36 34  1  0
 36 37  1  0
 37 38  2  0
 38 39  1  0
 39 40  2  0
 40 41  1  0
 41 42  2  0
 42 43  1  0
 43 44  1  0
 44 45  1  0
 30 25  1  0
 20 12  1  0
 54 49  1  0
 44 36  1  0
 18 13  1  0
 42 37  1  0
 10 11  1  0
 21 22  1  0
 34 35  1  0
 45 46  1  0
M  END
> <minimizedAffinity>
-9.21923

> <CNNscore>
0.4978291094

> <CNNaffinity>
8.3858308792

> <CNN_VS>
4.1747107506

> <CNNaffinity_variance>
0.1223728582

$$$$



 54 59  0  0  0  0  0  0  0  0999 V2000
   13.6962   22.4546    5.2386 C   0  0  0  0  0  0  0  0  0  0  0  0
   14.0758   22.2855    2.8720 C   0  0  0  0  0  0  0  0  0  0  0  0
   14.4429   22.9137    4.0928 O   0  0  0  0  0  0  0  0  0  0  0  0
   12.8172   23.5480    5.9287 C   0  0  0  0  0  0  0  0  0  0  0  0
   13.6564   24.5571    6.5340 O   0  0  0  0  0  0  0  0  0  0  0  0
   13.0275   25.2313    7.6199 C   0  0  0  0  0  0  0  0  0  0  0  0
   11.7366   24.2341    5.0479 C   0  0  0  0  0  0  0  0  0  0  0  0
   10.4721   24.4367    5.9186 C   0  0  0  0  0  0  0  0  0  0  0  0
   10.0586   23.5893    6.7059 O   0  0  0  0  0  0  0  0  0  0  0  0
    9.8755   25.6687    5.7652 N   0  0  0  0  0  0  0  0  0  0  0  0
   10.2766   26.3019    5.1269 H   0  0  0  0  0  0  0  0  0  0  0  0
    8.6932   26.0862    6.4880 C   0  0  0  0  0  0  0  0  0  0  0  0
    8.9744   26.8194    7.7744 C   0  0  0  0  0  0  0  0  0  0  0  0
    9.8456   26.4733    8.7959 C   0  0  0  0  0  0  0  0  0  0  0  0
    9.9237   27.2980    9.9201 C   0  0  0  0  0  0  0  0  0  0  0  0
    9.1136   28.4370   10.0275 C   0  0  0  0  0  0  0  0  0  0  0  0
    8.2113   28.7631    9.0150 C   0  0  0  0  0  0  0  0  0  0  0  0
    8.1509   27.9471    7.8978 C   0  0  0  0  0  0  0  0  0  0  0  0
    7.2213   28.0744    6.7275 C   0  0  0  0  0  0  0  0  0  0  0  0
    7.9294   27.1865    5.6925 C   0  0  0  0  0  0  0  0  0  0  0  0
    8.8523   27.9911    4.9206 O   0  0  0  0  0  0  0  0  0  0  0  0
    9.4950   28.4069    5.5163 H   0  0  0  0  0  0  0  0  0  0  0  0
   11.4297   23.3935    3.9265 O   0  0  0  0  0  0  0  0  0  0  0  0
   11.1902   24.0767    2.6977 C   0  0  0  0  0  0  0  0  0  0  0  0
    9.7375   24.3381    2.4126 C   0  0  0  0  0  0  0  0  0  0  0  0
    9.3215   25.5819    1.9156 C   0  0  0  0  0  0  0  0  0  0  0  0
    7.9696   25.8332    1.6836 C   0  0  0  0  0  0  0  0  0  0  0  0
    7.0236   24.8466    1.9470 C   0  0  0  0  0  0  0  0  0  0  0  0
    7.4290   23.6031    2.4275 C   0  0  0  0  0  0  0  0  0  0  0  0
    8.7814   23.3456    2.6521 C   0  0  0  0  0  0  0  0  0  0  0  0
   14.6868   21.6984    6.1527 C   0  0  0  0  0  0  0  0  0  0  0  0
   15.3202   20.5125    5.4094 C   0  0  0  0  0  0  0  0  0  0  0  0
   14.8967   19.3660    5.4994 O   0  0  0  0  0  0  0  0  0  0  0  0
   16.4133   20.8698    4.6652 N   0  0  0  0  0  0  0  0  0  0  0  0
   16.6781   21.8180    4.6650 H   0  0  0  0  0  0  0  0  0  0  0  0
   17.2028   19.9509    3.8817 C   0  0  0  0  0  0  0  0  0  0  0  0
   17.7377   18.8466    4.7433 C   0  0  0  0  0  0  0  0  0  0  0  0
   18.7656   18.9181    5.6709 C   0  0  0  0  0  0  0  0  0  0  0  0
   19.0750   17.7737    6.4093 C   0  0  0  0  0  0  0  0  0  0  0  0
   18.3552   16.5842    6.2212 C   0  0  0  0  0  0  0  0  0  0  0  0
   17.3185   16.5236    5.2888 C   0  0  0  0  0  0  0  0  0  0  0  0
   17.0272   17.6587    4.5512 C   0  0  0  0  0  0  0  0  0  0  0  0
   15.9437   17.8295    3.5361 C   0  0  0  0  0  0  0  0  0  0  0  0
   16.3224   19.1658    2.8654 C   0  0  0  0  0  0  0  0  0  0  0  0
   15.1345   19.8628    2.4850 O   0  0  0  0  0  0  0  0  0  0  0  0
   14.5842   20.0157    3.2690 H   0  0  0  0  0  0  0  0  0  0  0  0
   14.0975   21.2538    7.3854 O   0  0  0  0  0  0  0  0  0  0  0  0
   14.7366   21.8304    8.5291 C   0  0  0  0  0  0  0  0  0  0  0  0
   16.0129   21.1148    8.9138 C   0  0  0  0  0  0  0  0  0  0  0  0
   15.9208   19.9569    9.7084 C   0  0  0  0  0  0  0  0  0  0  0  0
   17.0692   19.2854   10.1383 C   0  0  0  0  0  0  0  0  0  0  0  0
   18.3293   19.7661    9.7884 C   0  0  0  0  0  0  0  0  0  0  0  0
   18.4378   20.9130    8.9997 C   0  0  0  0  0  0  0  0  0  0  0  0
   17.2880   21.5830    8.5658 C   0  0  0  0  0  0  0  0  0  0  0  0
  2  3  1  0
  1  3  1  0
  1  4  1  0
  4  5  1  0
  5  6  1  0
  4  7  1  0
  7 23  1  0
 23 24  1  0
 24 25  1  0
 25 26  2  0
 26 27  1  0
 27 28  2  0
 28 29  1  0
 29 30  2  0
  7  8  1  0
  8  9  2  0
  8 10  1  0
 12 10  1  0
 12 13  1  0
 13 14  2  0
 14 15  1  0
 15 16  2  0
 16 17  1  0
 17 18  2  0
 18 19  1  0
 19 20  1  0
 20 21  1  0
  1 31  1  0
 31 47  1  0
 47 48  1  0
 48 49  1  0
 49 50  2  0
 50 51  1  0
 51 52  2  0
 52 53  1  0
 53 54  2  0
 31 32  1  0
 32 33  2  0
 32 34  1  0
 36 34  1  0
 36 37  1  0
 37 38  2  0
 38 39  1  0
 39 40  2  0
 40 41  1  0
 41 42  2  0
 42 43  1  0
 43 44  1  0
 44 45  1  0
 30 25  1  0
 20 12  1  0
 54 49  1  0
 44 36  1  0
 18 13  1  0
 42 37  1  0
 10 11  1  0
 21 22  1  0
 34 35  1  0
 45 46  1  0
M  END
> <minimizedAffinity>
-9.42010

> <CNNscore>
0.4748281837

> <CNNaffinity>
8.6682767868

> <CNN_VS>
4.1159420013

> <CNNaffinity_variance>
0.0027762188

$$$$
