


 23 23  0  0  0  0  0  0  0  0999 V2000
   -5.7363  -11.7256    9.2918 C   0  0  0  0  0  0  0  0  0  0  0  0
   -4.8318  -11.0920   10.2015 O   0  0  0  0  0  0  0  0  0  0  0  0
   -5.1020   -9.6944   10.3707 C   0  0  0  0  0  0  0  0  0  0  0  0
   -6.5037   -9.4702   10.9576 C   0  0  0  0  0  0  0  0  0  0  0  0
   -7.5386  -10.1386   10.0302 C   0  0  0  0  0  0  0  0  0  0  0  0
   -7.1912  -11.6330    9.8344 C   0  0  0  0  0  0  0  0  0  0  0  0
   -8.1979  -12.2506    8.9428 N   0  0  0  0  0  0  0  0  0  0  0  0
   -8.8662  -11.4672    8.0012 C   0  0  0  0  0  0  0  0  0  0  0  0
   -8.5825  -10.2842    7.8443 O   0  0  0  0  0  0  0  0  0  0  0  0
   -9.8366  -12.1818    7.2837 N   0  0  0  0  0  0  0  0  0  0  0  0
  -10.2706  -13.5221    7.6337 C   0  0  0  0  0  0  0  0  0  0  0  0
   -8.3958  -13.2124    9.0138 H   0  0  0  0  0  0  0  0  0  0  0  0
  -10.5330  -11.5926    6.0944 N   0  0  0  0  0  0  0  0  0  0  0  0
  -11.1495  -12.4029    5.3993 O   0  0  0  0  0  0  0  0  0  0  0  0
   -4.0112   -9.1335   11.2900 C   0  0  0  0  0  0  0  0  0  0  0  0
   -4.5074   -9.0613   12.6284 O   0  0  0  0  0  0  0  0  0  0  0  0
   -5.2833   -8.4797   12.6546 H   0  0  0  0  0  0  0  0  0  0  0  0
   -6.4101  -13.9090    8.6682 C   0  0  0  0  0  0  0  0  0  0  0  0
   -5.3508  -13.0860    9.1283 O   0  0  0  0  0  0  0  0  0  0  0  0
   -6.7486   -8.0582   11.0309 O   0  0  0  0  0  0  0  0  0  0  0  0
   -7.6030   -7.7114   12.1170 C   0  0  0  0  0  0  0  0  0  0  0  0
   -8.8666  -10.0734   10.5940 O   0  0  0  0  0  0  0  0  0  0  0  0
   -8.9836  -10.7651   11.8326 C   0  0  0  0  0  0  0  0  0  0  0  0
 18 19  1  0
  1 19  1  0
  1  2  1  0
  2  3  1  0
  3 15  1  0
 15 16  1  0
  3  4  1  0
  4 20  1  0
 20 21  1  0
  4  5  1  0
  5 22  1  0
 22 23  1  0
  5  6  1  0
  6  7  1  0
  7  8  1  0
  8  9  2  0
  8 10  1  0
 10 11  1  0
 10 13  1  0
 13 14  2  0
  6  1  1  0
 16 17  1  0
  7 12  1  0
M  END
> <minimizedAffinity>
-5.46805

> <CNNscore>
0.7578119040

> <CNNaffinity>
4.5711226463

> <CNN_VS>
3.4640512466

> <CNNaffinity_variance>
1.0172451735

$$$$



 23 23  0  0  0  0  0  0  0  0999 V2000
   -5.6449  -12.0325    9.3511 C   0  0  0  0  0  0  0  0  0  0  0  0
   -4.8107  -11.3275   10.2752 O   0  0  0  0  0  0  0  0  0  0  0  0
   -5.0771   -9.9192   10.3017 C   0  0  0  0  0  0  0  0  0  0  0  0
   -6.5195   -9.6384   10.7490 C   0  0  0  0  0  0  0  0  0  0  0  0
   -7.4825  -10.3790    9.7993 C   0  0  0  0  0  0  0  0  0  0  0  0
   -7.1382  -11.8864    9.7612 C   0  0  0  0  0  0  0  0  0  0  0  0
   -8.0756  -12.5734    8.8450 N   0  0  0  0  0  0  0  0  0  0  0  0
   -8.6183  -13.8079    9.2034 C   0  0  0  0  0  0  0  0  0  0  0  0
   -8.3920  -14.3054   10.3015 O   0  0  0  0  0  0  0  0  0  0  0  0
   -9.4298  -14.3610    8.2020 N   0  0  0  0  0  0  0  0  0  0  0  0
   -9.5133  -13.8336    6.8522 C   0  0  0  0  0  0  0  0  0  0  0  0
   -8.3158  -12.1603    7.9843 H   0  0  0  0  0  0  0  0  0  0  0  0
  -10.2670  -15.5797    8.4472 N   0  0  0  0  0  0  0  0  0  0  0  0
  -11.2608  -15.3939    9.1526 O   0  0  0  0  0  0  0  0  0  0  0  0
   -4.0589   -9.2867   11.2572 C   0  0  0  0  0  0  0  0  0  0  0  0
   -4.5924   -9.2772   12.5830 O   0  0  0  0  0  0  0  0  0  0  0  0
   -5.4136   -8.7611   12.5973 H   0  0  0  0  0  0  0  0  0  0  0  0
   -4.0893  -13.6587   10.0896 C   0  0  0  0  0  0  0  0  0  0  0  0
   -5.2636  -13.4038    9.3366 O   0  0  0  0  0  0  0  0  0  0  0  0
   -6.7526   -8.2243   10.6811 O   0  0  0  0  0  0  0  0  0  0  0  0
   -7.4499   -7.7338   11.8226 C   0  0  0  0  0  0  0  0  0  0  0  0
   -8.8516  -10.2591   10.2434 O   0  0  0  0  0  0  0  0  0  0  0  0
   -9.0642  -10.7823   11.5500 C   0  0  0  0  0  0  0  0  0  0  0  0
 18 19  1  0
  1 19  1  0
  1  2  1  0
  2  3  1  0
  3 15  1  0
 15 16  1  0
  3  4  1  0
  4 20  1  0
 20 21  1  0
  4  5  1  0
  5 22  1  0
 22 23  1  0
  5  6  1  0
  6  7  1  0
  7  8  1  0
  8  9  2  0
  8 10  1  0
 10 11  1  0
 10 13  1  0
 13 14  2  0
  6  1  1  0
 16 17  1  0
  7 12  1  0
M  END
> <minimizedAffinity>
-5.34648

> <CNNscore>
0.5845527649

> <CNNaffinity>
4.2469563484

> <CNN_VS>
2.4825701714

> <CNNaffinity_variance>
0.4623720944

$$$$



 23 23  0  0  0  0  0  0  0  0999 V2000
   -6.0859   -9.0028   11.4713 C   0  0  0  0  0  0  0  0  0  0  0  0
   -4.8465   -8.5754   12.0442 O   0  0  0  0  0  0  0  0  0  0  0  0
   -3.9070   -9.6471   12.1993 C   0  0  0  0  0  0  0  0  0  0  0  0
   -3.5437  -10.2637   10.8402 C   0  0  0  0  0  0  0  0  0  0  0  0
   -4.8394  -10.7415   10.1541 C   0  0  0  0  0  0  0  0  0  0  0  0
   -5.8458   -9.5723   10.0438 C   0  0  0  0  0  0  0  0  0  0  0  0
   -7.0782  -10.0559    9.3825 N   0  0  0  0  0  0  0  0  0  0  0  0
   -7.8216  -11.0835    9.9640 C   0  0  0  0  0  0  0  0  0  0  0  0
   -7.5147  -11.5481   11.0569 O   0  0  0  0  0  0  0  0  0  0  0  0
   -8.9185  -11.4758    9.1828 N   0  0  0  0  0  0  0  0  0  0  0  0
   -9.1305  -11.0357    7.8159 C   0  0  0  0  0  0  0  0  0  0  0  0
   -7.3730   -9.6532    8.5338 H   0  0  0  0  0  0  0  0  0  0  0  0
   -9.9601  -12.4204    9.7015 N   0  0  0  0  0  0  0  0  0  0  0  0
   -9.7441  -13.6114    9.4673 O   0  0  0  0  0  0  0  0  0  0  0  0
   -2.6741   -9.0663   12.9009 C   0  0  0  0  0  0  0  0  0  0  0  0
   -1.6916   -8.7156   11.9240 O   0  0  0  0  0  0  0  0  0  0  0  0
   -1.4367   -9.5065   11.4235 H   0  0  0  0  0  0  0  0  0  0  0  0
   -8.2320   -8.1700   12.0286 C   0  0  0  0  0  0  0  0  0  0  0  0
   -6.9794   -7.8959   11.4229 O   0  0  0  0  0  0  0  0  0  0  0  0
   -2.6658  -11.3767   11.0627 O   0  0  0  0  0  0  0  0  0  0  0  0
   -3.3037  -12.4386   11.7664 C   0  0  0  0  0  0  0  0  0  0  0  0
   -4.5789  -11.2159    8.8151 O   0  0  0  0  0  0  0  0  0  0  0  0
   -3.8931  -10.2651    8.0078 C   0  0  0  0  0  0  0  0  0  0  0  0
 18 19  1  0
  1 19  1  0
  1  2  1  0
  2  3  1  0
  3 15  1  0
 15 16  1  0
  3  4  1  0
  4 20  1  0
 20 21  1  0
  4  5  1  0
  5 22  1  0
 22 23  1  0
  5  6  1  0
  6  7  1  0
  7  8  1  0
  8  9  2  0
  8 10  1  0
 10 11  1  0
 10 13  1  0
 13 14  2  0
  6  1  1  0
 16 17  1  0
  7 12  1  0
M  END
> <minimizedAffinity>
-4.79634

> <CNNscore>
0.4585113525

> <CNNaffinity>
3.8700306416

> <CNN_VS>
1.7744529247

> <CNNaffinity_variance>
0.6241969466

$$$$



 23 23  0  0  0  0  0  0  0  0999 V2000
   -7.7106  -10.7748    8.9820 C   0  0  0  0  0  0  0  0  0  0  0  0
   -7.9747   -9.4438    9.4355 O   0  0  0  0  0  0  0  0  0  0  0  0
   -7.3990   -9.1696   10.7194 C   0  0  0  0  0  0  0  0  0  0  0  0
   -5.8687   -9.2961   10.6766 C   0  0  0  0  0  0  0  0  0  0  0  0
   -5.5052  -10.7113   10.1837 C   0  0  0  0  0  0  0  0  0  0  0  0
   -6.1785  -10.9892    8.8194 C   0  0  0  0  0  0  0  0  0  0  0  0
   -5.8140  -12.3509    8.3687 N   0  0  0  0  0  0  0  0  0  0  0  0
   -6.3022  -13.4638    9.0543 C   0  0  0  0  0  0  0  0  0  0  0  0
   -7.0925  -13.3394    9.9841 O   0  0  0  0  0  0  0  0  0  0  0  0
   -5.8111  -14.6768    8.5498 N   0  0  0  0  0  0  0  0  0  0  0  0
   -4.7346  -14.7673    7.5802 C   0  0  0  0  0  0  0  0  0  0  0  0
   -5.2282  -12.4713    7.5867 H   0  0  0  0  0  0  0  0  0  0  0  0
   -6.3524  -15.9984    9.0043 N   0  0  0  0  0  0  0  0  0  0  0  0
   -7.5782  -16.0427    9.1285 O   0  0  0  0  0  0  0  0  0  0  0  0
   -7.8353   -7.7543   11.1149 C   0  0  0  0  0  0  0  0  0  0  0  0
   -7.6060   -7.5586   12.5119 O   0  0  0  0  0  0  0  0  0  0  0  0
   -8.1185   -8.2084   13.0178 H   0  0  0  0  0  0  0  0  0  0  0  0
   -9.4480  -11.9073    7.8380 C   0  0  0  0  0  0  0  0  0  0  0  0
   -8.3776  -10.9821    7.7418 O   0  0  0  0  0  0  0  0  0  0  0  0
   -5.3553   -9.0894   12.0004 O   0  0  0  0  0  0  0  0  0  0  0  0
   -4.5816  -10.1935   12.4608 C   0  0  0  0  0  0  0  0  0  0  0  0
   -4.0797  -10.8517    9.9992 O   0  0  0  0  0  0  0  0  0  0  0  0
   -3.5604  -10.0021    8.9822 C   0  0  0  0  0  0  0  0  0  0  0  0
 18 19  1  0
  1 19  1  0
  1  2  1  0
  2  3  1  0
  3 15  1  0
 15 16  1  0
  3  4  1  0
  4 20  1  0
 20 21  1  0
  4  5  1  0
  5 22  1  0
 22 23  1  0
  5  6  1  0
  6  7  1  0
  7  8  1  0
  8  9  2  0
  8 10  1  0
 10 11  1  0
 10 13  1  0
 13 14  2  0
  6  1  1  0
 16 17  1  0
  7 12  1  0
M  END
> <minimizedAffinity>
-6.12072

> <CNNscore>
0.2933920026

> <CNNaffinity>
4.7047581673

> <CNN_VS>
1.3803384304

> <CNNaffinity_variance>
0.0407841131

$$$$



 23 23  0  0  0  0  0  0  0  0999 V2000
   -2.0486   -9.8583   12.6523 C   0  0  0  0  0  0  0  0  0  0  0  0
   -1.4045   -9.7890   13.9279 O   0  0  0  0  0  0  0  0  0  0  0  0
   -2.1330  -10.4724   14.9562 C   0  0  0  0  0  0  0  0  0  0  0  0
   -2.2624  -11.9698   14.6389 C   0  0  0  0  0  0  0  0  0  0  0  0
   -2.9435  -12.1247   13.2641 C   0  0  0  0  0  0  0  0  0  0  0  0
   -2.1569  -11.3392   12.1888 C   0  0  0  0  0  0  0  0  0  0  0  0
   -2.8293  -11.5043   10.8808 N   0  0  0  0  0  0  0  0  0  0  0  0
   -4.1540  -11.0950   10.7238 C   0  0  0  0  0  0  0  0  0  0  0  0
   -4.7547  -10.5292   11.6313 O   0  0  0  0  0  0  0  0  0  0  0  0
   -4.6690  -11.3827    9.4514 N   0  0  0  0  0  0  0  0  0  0  0  0
   -3.9906  -12.2215    8.4802 C   0  0  0  0  0  0  0  0  0  0  0  0
   -2.3429  -11.9022   10.1230 H   0  0  0  0  0  0  0  0  0  0  0  0
   -5.9986  -10.8583    9.0002 N   0  0  0  0  0  0  0  0  0  0  0  0
   -6.7729  -11.7124    8.5635 O   0  0  0  0  0  0  0  0  0  0  0  0
   -1.3806  -10.2393   16.2712 C   0  0  0  0  0  0  0  0  0  0  0  0
   -2.2927  -10.3439   17.3665 O   0  0  0  0  0  0  0  0  0  0  0  0
   -2.9909   -9.6773   17.2706 H   0  0  0  0  0  0  0  0  0  0  0  0
    0.0733   -8.9908   12.0564 C   0  0  0  0  0  0  0  0  0  0  0  0
   -1.2987   -9.0954   11.7132 O   0  0  0  0  0  0  0  0  0  0  0  0
   -3.0643  -12.5856   15.6571 O   0  0  0  0  0  0  0  0  0  0  0  0
   -2.3908  -13.6640   16.2998 C   0  0  0  0  0  0  0  0  0  0  0  0
   -2.9791  -13.5078   12.8500 O   0  0  0  0  0  0  0  0  0  0  0  0
   -1.6851  -14.0858   12.7168 C   0  0  0  0  0  0  0  0  0  0  0  0
 18 19  1  0
  1 19  1  0
  1  2  1  0
  2  3  1  0
  3 15  1  0
 15 16  1  0
  3  4  1  0
  4 20  1  0
 20 21  1  0
  4  5  1  0
  5 22  1  0
 22 23  1  0
  5  6  1  0
  6  7  1  0
  7  8  1  0
  8  9  2  0
  8 10  1  0
 10 11  1  0
 10 13  1  0
 13 14  2  0
  6  1  1  0
 16 17  1  0
  7 12  1  0
M  END
> <minimizedAffinity>
-4.25582

> <CNNscore>
0.2902474105

> <CNNaffinity>
3.3843429089

> <CNN_VS>
0.9822967649

> <CNNaffinity_variance>
0.6741897464

$$$$



 23 23  0  0  0  0  0  0  0  0999 V2000
   -2.2100  -17.4840    6.3379 C   0  0  0  0  0  0  0  0  0  0  0  0
   -1.4781  -18.4728    7.0684 O   0  0  0  0  0  0  0  0  0  0  0  0
   -2.0827  -19.7711    7.0054 C   0  0  0  0  0  0  0  0  0  0  0  0
   -2.1398  -20.2838    5.5585 C   0  0  0  0  0  0  0  0  0  0  0  0
   -2.9104  -19.2582    4.7028 C   0  0  0  0  0  0  0  0  0  0  0  0
   -2.2581  -17.8617    4.8296 C   0  0  0  0  0  0  0  0  0  0  0  0
   -3.0145  -16.8975    4.0000 N   0  0  0  0  0  0  0  0  0  0  0  0
   -2.3372  -16.0725    3.1014 C   0  0  0  0  0  0  0  0  0  0  0  0
   -1.1276  -16.1810    2.9289 O   0  0  0  0  0  0  0  0  0  0  0  0
   -3.1833  -15.1681    2.4433 N   0  0  0  0  0  0  0  0  0  0  0  0
   -4.5679  -14.9443    2.8176 C   0  0  0  0  0  0  0  0  0  0  0  0
   -3.9938  -16.8383    4.0819 H   0  0  0  0  0  0  0  0  0  0  0  0
   -2.7039  -14.3272    1.2990 N   0  0  0  0  0  0  0  0  0  0  0  0
   -3.5969  -13.8047    0.6286 O   0  0  0  0  0  0  0  0  0  0  0  0
   -1.2504  -20.6985    7.8981 C   0  0  0  0  0  0  0  0  0  0  0  0
   -2.1231  -21.5429    8.6518 O   0  0  0  0  0  0  0  0  0  0  0  0
   -2.7035  -20.9967    9.2047 H   0  0  0  0  0  0  0  0  0  0  0  0
   -0.1727  -16.2766    6.3744 C   0  0  0  0  0  0  0  0  0  0  0  0
   -1.5826  -16.2188    6.5154 O   0  0  0  0  0  0  0  0  0  0  0  0
   -2.8224  -21.5458    5.5469 O   0  0  0  0  0  0  0  0  0  0  0  0
   -2.1116  -22.5404    4.8152 C   0  0  0  0  0  0  0  0  0  0  0  0
   -2.8887  -19.6206    3.3049 O   0  0  0  0  0  0  0  0  0  0  0  0
   -1.5723  -19.7185    2.7724 C   0  0  0  0  0  0  0  0  0  0  0  0
 18 19  1  0
  1 19  1  0
  1  2  1  0
  2  3  1  0
  3 15  1  0
 15 16  1  0
  3  4  1  0
  4 20  1  0
 20 21  1  0
  4  5  1  0
  5 22  1  0
 22 23  1  0
  5  6  1  0
  6  7  1  0
  7  8  1  0
  8  9  2  0
  8 10  1  0
 10 11  1  0
 10 13  1  0
 13 14  2  0
  6  1  1  0
 16 17  1  0
  7 12  1  0
M  END
> <minimizedAffinity>
-3.80881

> <CNNscore>
0.2859511673

> <CNNaffinity>
3.2903373241

> <CNN_VS>
0.9408758283

> <CNNaffinity_variance>
0.7513711452

$$$$



 23 23  0  0  0  0  0  0  0  0999 V2000
   -4.0315   -9.7216   11.6311 C   0  0  0  0  0  0  0  0  0  0  0  0
   -4.7681  -10.3479   10.5765 O   0  0  0  0  0  0  0  0  0  0  0  0
   -4.0088  -11.3493    9.8868 C   0  0  0  0  0  0  0  0  0  0  0  0
   -3.6008  -12.4849   10.8374 C   0  0  0  0  0  0  0  0  0  0  0  0
   -2.8060  -11.8813   12.0129 C   0  0  0  0  0  0  0  0  0  0  0  0
   -3.6366  -10.7753   12.7051 C   0  0  0  0  0  0  0  0  0  0  0  0
   -2.8533  -10.2137   13.8281 N   0  0  0  0  0  0  0  0  0  0  0  0
   -1.6668   -9.5254   13.5722 C   0  0  0  0  0  0  0  0  0  0  0  0
   -1.2938   -9.3097   12.4237 O   0  0  0  0  0  0  0  0  0  0  0  0
   -1.0070   -9.1178   14.7407 N   0  0  0  0  0  0  0  0  0  0  0  0
   -1.3816   -9.5602   16.0716 C   0  0  0  0  0  0  0  0  0  0  0  0
   -3.1687  -10.3254   14.7539 H   0  0  0  0  0  0  0  0  0  0  0  0
    0.1760   -8.1985   14.7003 N   0  0  0  0  0  0  0  0  0  0  0  0
    0.1662   -7.3018   15.5462 O   0  0  0  0  0  0  0  0  0  0  0  0
   -4.8828  -11.8646    8.7378 C   0  0  0  0  0  0  0  0  0  0  0  0
   -5.5729  -10.7675    8.1357 O   0  0  0  0  0  0  0  0  0  0  0  0
   -6.1327  -10.3344    8.7990 H   0  0  0  0  0  0  0  0  0  0  0  0
   -5.7984   -8.1773   11.3105 C   0  0  0  0  0  0  0  0  0  0  0  0
   -4.8319   -8.6963   12.2091 O   0  0  0  0  0  0  0  0  0  0  0  0
   -2.7804  -13.4141   10.1147 O   0  0  0  0  0  0  0  0  0  0  0  0
   -3.2396  -14.7567   10.2424 C   0  0  0  0  0  0  0  0  0  0  0  0
   -2.5030  -12.8821   13.0091 O   0  0  0  0  0  0  0  0  0  0  0  0
   -1.1170  -13.1982   13.0818 C   0  0  0  0  0  0  0  0  0  0  0  0
 18 19  1  0
  1 19  1  0
  1  2  1  0
  2  3  1  0
  3 15  1  0
 15 16  1  0
  3  4  1  0
  4 20  1  0
 20 21  1  0
  4  5  1  0
  5 22  1  0
 22 23  1  0
  5  6  1  0
  6  7  1  0
  7  8  1  0
  8  9  2  0
  8 10  1  0
 10 11  1  0
 10 13  1  0
 13 14  2  0
  6  1  1  0
 16 17  1  0
  7 12  1  0
M  END
> <minimizedAffinity>
-4.16115

> <CNNscore>
0.2780309319

> <CNNaffinity>
3.9956099987

> <CNN_VS>
1.1109031439

> <CNNaffinity_variance>
0.1049640402

$$$$



 23 23  0  0  0  0  0  0  0  0999 V2000
   -6.4003   -9.4851   10.3962 C   0  0  0  0  0  0  0  0  0  0  0  0
   -7.7758   -9.7316   10.0893 O   0  0  0  0  0  0  0  0  0  0  0  0
   -7.9466  -10.6008    8.9622 C   0  0  0  0  0  0  0  0  0  0  0  0
   -7.3290  -11.9813    9.2312 C   0  0  0  0  0  0  0  0  0  0  0  0
   -5.8389  -11.7944    9.5813 C   0  0  0  0  0  0  0  0  0  0  0  0
   -5.6901  -10.8173   10.7710 C   0  0  0  0  0  0  0  0  0  0  0  0
   -4.2534  -10.6557   11.0871 N   0  0  0  0  0  0  0  0  0  0  0  0
   -3.3811  -10.1546   10.1202 C   0  0  0  0  0  0  0  0  0  0  0  0
   -3.7942   -9.7726    9.0303 O   0  0  0  0  0  0  0  0  0  0  0  0
   -2.0457  -10.1283   10.5482 N   0  0  0  0  0  0  0  0  0  0  0  0
   -1.5788  -10.7663   11.7656 C   0  0  0  0  0  0  0  0  0  0  0  0
   -3.9138  -10.9014   11.9779 H   0  0  0  0  0  0  0  0  0  0  0  0
   -0.9736   -9.4500    9.7501 N   0  0  0  0  0  0  0  0  0  0  0  0
   -0.2801   -8.6522   10.3844 O   0  0  0  0  0  0  0  0  0  0  0  0
   -9.4528  -10.7011    8.6956 C   0  0  0  0  0  0  0  0  0  0  0  0
  -10.1691  -10.1192    9.7870 O   0  0  0  0  0  0  0  0  0  0  0  0
   -9.9530  -10.5935   10.6050 H   0  0  0  0  0  0  0  0  0  0  0  0
   -7.5569   -7.9022   11.7253 C   0  0  0  0  0  0  0  0  0  0  0  0
   -6.3256   -8.5595   11.4750 O   0  0  0  0  0  0  0  0  0  0  0  0
   -7.4593  -12.7797    8.0461 O   0  0  0  0  0  0  0  0  0  0  0  0
   -8.0705  -14.0402    8.3055 C   0  0  0  0  0  0  0  0  0  0  0  0
   -5.2312  -13.0454    9.9703 O   0  0  0  0  0  0  0  0  0  0  0  0
   -4.3110  -13.5446    9.0059 C   0  0  0  0  0  0  0  0  0  0  0  0
 18 19  1  0
  1 19  1  0
  1  2  1  0
  2  3  1  0
  3 15  1  0
 15 16  1  0
  3  4  1  0
  4 20  1  0
 20 21  1  0
  4  5  1  0
  5 22  1  0
 22 23  1  0
  5  6  1  0
  6  7  1  0
  7  8  1  0
  8  9  2  0
  8 10  1  0
 10 11  1  0
 10 13  1  0
 13 14  2  0
  6  1  1  0
 16 17  1  0
  7 12  1  0
M  END
> <minimizedAffinity>
-5.37073

> <CNNscore>
0.2743692994

> <CNNaffinity>
4.0732989311

> <CNN_VS>
1.1175881624

> <CNNaffinity_variance>
1.2836686373

$$$$



 23 23  0  0  0  0  0  0  0  0999 V2000
   -1.5775  -10.6490   15.5548 C   0  0  0  0  0  0  0  0  0  0  0  0
   -2.6851  -10.7721   14.6575 O   0  0  0  0  0  0  0  0  0  0  0  0
   -2.5577   -9.9367   13.4995 C   0  0  0  0  0  0  0  0  0  0  0  0
   -1.3161  -10.3165   12.6787 C   0  0  0  0  0  0  0  0  0  0  0  0
   -0.0750  -10.2164   13.5884 C   0  0  0  0  0  0  0  0  0  0  0  0
   -0.2656  -11.0941   14.8475 C   0  0  0  0  0  0  0  0  0  0  0  0
    0.9374  -10.9813   15.7021 N   0  0  0  0  0  0  0  0  0  0  0  0
    1.2107   -9.7832   16.3628 C   0  0  0  0  0  0  0  0  0  0  0  0
    0.4311   -8.8377   16.3100 O   0  0  0  0  0  0  0  0  0  0  0  0
    2.4195   -9.8129   17.0735 N   0  0  0  0  0  0  0  0  0  0  0  0
    3.3982  -10.8780   16.9510 C   0  0  0  0  0  0  0  0  0  0  0  0
    1.5436  -11.7503   15.8042 H   0  0  0  0  0  0  0  0  0  0  0  0
    2.8124   -8.7110   18.0103 N   0  0  0  0  0  0  0  0  0  0  0  0
    3.1455   -7.6578   17.4629 O   0  0  0  0  0  0  0  0  0  0  0  0
   -3.8440  -10.1016   12.6822 C   0  0  0  0  0  0  0  0  0  0  0  0
   -4.1422   -8.8754   12.0114 O   0  0  0  0  0  0  0  0  0  0  0  0
   -4.2630   -8.1698   12.6660 H   0  0  0  0  0  0  0  0  0  0  0  0
   -2.0257  -12.8199   16.3891 C   0  0  0  0  0  0  0  0  0  0  0  0
   -1.8217  -11.4524   16.7041 O   0  0  0  0  0  0  0  0  0  0  0  0
   -1.1960   -9.4009   11.5805 O   0  0  0  0  0  0  0  0  0  0  0  0
   -0.4824   -8.2197   11.9344 C   0  0  0  0  0  0  0  0  0  0  0  0
    1.1109  -10.6848   12.9100 O   0  0  0  0  0  0  0  0  0  0  0  0
    0.9483  -11.9705   12.3214 C   0  0  0  0  0  0  0  0  0  0  0  0
 18 19  1  0
  1 19  1  0
  1  2  1  0
  2  3  1  0
  3 15  1  0
 15 16  1  0
  3  4  1  0
  4 20  1  0
 20 21  1  0
  4  5  1  0
  5 22  1  0
 22 23  1  0
  5  6  1  0
  6  7  1  0
  7  8  1  0
  8  9  2  0
  8 10  1  0
 10 11  1  0
 10 13  1  0
 13 14  2  0
  6  1  1  0
 16 17  1  0
  7 12  1  0
M  END
> <minimizedAffinity>
-4.04040

> <CNNscore>
0.2526312172

> <CNNaffinity>
3.6787331104

> <CNN_VS>
0.9293628335

> <CNNaffinity_variance>
0.1661464125

$$$$
