


 19 20  0  0  0  0  0  0  0  0999 V2000
   14.7173   16.3456   24.4042 N   0  0  0  0  0  0  0  0  0  0  0  0
   15.6646   16.5009   23.4142 C   0  0  0  0  0  0  0  0  0  0  0  0
   16.8922   16.8434   23.7882 N   0  0  0  0  0  0  0  0  0  0  0  0
   17.7854   16.9924   22.8038 C   0  0  0  0  0  0  0  0  0  0  0  0
   19.0374   17.3068   23.2548 O   0  0  0  0  0  0  0  0  0  0  0  0
   17.5036   16.8447   21.4458 C   0  0  0  0  0  0  0  0  0  0  0  0
   18.4154   17.0336   20.3732 C   0  0  0  0  0  0  0  0  0  0  0  0
   18.0259   16.8263   19.0483 C   0  0  0  0  0  0  0  0  0  0  0  0
   18.9192   17.1420   18.0155 N   0  0  0  0  0  0  0  0  0  0  0  0
   16.6812   16.5198   18.8069 C   0  0  0  0  0  0  0  0  0  0  0  0
   16.0316   16.3039   17.0335 Br  0  0  0  0  0  0  0  0  0  0  0  0
   15.7817   16.3452   19.8631 C   0  0  0  0  0  0  0  0  0  0  0  0
   16.1762   16.5015   21.1831 C   0  0  0  0  0  0  0  0  0  0  0  0
   15.2678   16.3332   22.1506 N   0  0  0  0  0  0  0  0  0  0  0  0
   14.9691   16.4607   25.3489 H   0  0  0  0  0  0  0  0  0  0  0  0
   13.7891   16.1195   24.1662 H   0  0  0  0  0  0  0  0  0  0  0  0
   19.1947   17.3991   24.1739 H   0  0  0  0  0  0  0  0  0  0  0  0
   19.8581   17.3523   18.2239 H   0  0  0  0  0  0  0  0  0  0  0  0
   18.6078   17.1534   17.0816 H   0  0  0  0  0  0  0  0  0  0  0  0
  1  2  1  0
  2  3  2  0
  3  4  1  0
  4  5  1  0
  4  6  2  0
  6  7  1  0
  7  8  2  0
  8  9  1  0
  8 10  1  0
 10 11  1  0
 10 12  2  0
 12 13  1  0
 13 14  2  0
 14  2  1  0
 13  6  1  0
  1 15  1  0
  1 16  1  0
  5 17  1  0
  9 18  1  0
  9 19  1  0
M  END
> <minimizedAffinity>
-7.12659

> <CNNscore>
0.9869276881

> <CNNaffinity>
6.3514971733

> <CNN_VS>
6.2684683800

> <CNNaffinity_variance>
0.0277195629

$$$$



 19 20  0  0  0  0  0  0  0  0999 V2000
   16.0383   16.2351   22.1866 N   0  0  0  0  0  0  0  0  0  0  0  0
   16.7372   16.4888   21.0252 C   0  0  0  0  0  0  0  0  0  0  0  0
   18.0291   16.7766   21.1371 N   0  0  0  0  0  0  0  0  0  0  0  0
   18.6765   17.0238   19.9931 C   0  0  0  0  0  0  0  0  0  0  0  0
   20.0087   17.2750   20.1710 O   0  0  0  0  0  0  0  0  0  0  0  0
   18.0848   17.0283   18.7301 C   0  0  0  0  0  0  0  0  0  0  0  0
   18.7314   17.3247   17.5005 C   0  0  0  0  0  0  0  0  0  0  0  0
   18.0405   17.2674   16.2883 C   0  0  0  0  0  0  0  0  0  0  0  0
   18.6827   17.6856   15.1148 N   0  0  0  0  0  0  0  0  0  0  0  0
   16.6666   17.0020   16.3356 C   0  0  0  0  0  0  0  0  0  0  0  0
   15.6193   16.9877   14.7492 Br  0  0  0  0  0  0  0  0  0  0  0  0
   16.0287   16.7215   17.5478 C   0  0  0  0  0  0  0  0  0  0  0  0
   16.7215   16.7286   18.7488 C   0  0  0  0  0  0  0  0  0  0  0  0
   16.0548   16.4642   19.8781 N   0  0  0  0  0  0  0  0  0  0  0  0
   16.5046   16.2438   23.0536 H   0  0  0  0  0  0  0  0  0  0  0  0
   15.0730   16.0454   22.1486 H   0  0  0  0  0  0  0  0  0  0  0  0
   20.3765   17.2647   21.0327 H   0  0  0  0  0  0  0  0  0  0  0  0
   19.6511   17.8628   15.1200 H   0  0  0  0  0  0  0  0  0  0  0  0
   18.1653   17.8022   14.2854 H   0  0  0  0  0  0  0  0  0  0  0  0
  1  2  1  0
  2  3  2  0
  3  4  1  0
  4  5  1  0
  4  6  2  0
  6  7  1  0
  7  8  2  0
  8  9  1  0
  8 10  1  0
 10 11  1  0
 10 12  2  0
 12 13  1  0
 13 14  2  0
 14  2  1  0
 13  6  1  0
  1 15  1  0
  1 16  1  0
  5 17  1  0
  9 18  1  0
  9 19  1  0
M  END
> <minimizedAffinity>
-6.51624

> <CNNscore>
0.8395771980

> <CNNaffinity>
5.4184989929

> <CNN_VS>
4.5492482185

> <CNNaffinity_variance>
0.0338971950

$$$$



 19 20  0  0  0  0  0  0  0  0999 V2000
   17.9386   16.7699   23.5521 N   0  0  0  0  0  0  0  0  0  0  0  0
   17.7528   16.7033   22.1873 C   0  0  0  0  0  0  0  0  0  0  0  0
   18.8185   16.8776   21.4139 N   0  0  0  0  0  0  0  0  0  0  0  0
   18.6034   16.8135   20.0953 C   0  0  0  0  0  0  0  0  0  0  0  0
   19.7435   16.9619   19.3552 O   0  0  0  0  0  0  0  0  0  0  0  0
   17.3571   16.6122   19.5022 C   0  0  0  0  0  0  0  0  0  0  0  0
   17.0858   16.5780   18.1083 C   0  0  0  0  0  0  0  0  0  0  0  0
   15.7967   16.3372   17.6285 C   0  0  0  0  0  0  0  0  0  0  0  0
   15.5501   16.4338   16.2522 N   0  0  0  0  0  0  0  0  0  0  0  0
   14.7642   16.2263   18.5677 C   0  0  0  0  0  0  0  0  0  0  0  0
   12.9618   15.9845   18.0139 Br  0  0  0  0  0  0  0  0  0  0  0  0
   15.0307   16.2714   19.9395 C   0  0  0  0  0  0  0  0  0  0  0  0
   16.3171   16.4609   20.4210 C   0  0  0  0  0  0  0  0  0  0  0  0
   16.5088   16.5071   21.7441 N   0  0  0  0  0  0  0  0  0  0  0  0
   18.8405   16.9135   23.9196 H   0  0  0  0  0  0  0  0  0  0  0  0
   17.1693   16.6739   24.1589 H   0  0  0  0  0  0  0  0  0  0  0  0
   20.5660   17.0958   19.7836 H   0  0  0  0  0  0  0  0  0  0  0  0
   16.3022   16.5104   15.6216 H   0  0  0  0  0  0  0  0  0  0  0  0
   14.6248   16.4250   15.9161 H   0  0  0  0  0  0  0  0  0  0  0  0
  1  2  1  0
  2  3  2  0
  3  4  1  0
  4  5  1  0
  4  6  2  0
  6  7  1  0
  7  8  2  0
  8  9  1  0
  8 10  1  0
 10 11  1  0
 10 12  2  0
 12 13  1  0
 13 14  2  0
 14  2  1  0
 13  6  1  0
  1 15  1  0
  1 16  1  0
  5 17  1  0
  9 18  1  0
  9 19  1  0
M  END
> <minimizedAffinity>
-7.21512

> <CNNscore>
0.7933423519

> <CNNaffinity>
5.2750911713

> <CNN_VS>
4.1849532127

> <CNNaffinity_variance>
0.4960873425

$$$$



 19 20  0  0  0  0  0  0  0  0999 V2000
   22.9225   15.5533   11.9793 N   0  0  0  0  0  0  0  0  0  0  0  0
   23.4887   16.7717   11.6685 C   0  0  0  0  0  0  0  0  0  0  0  0
   24.7582   16.7764   11.2777 N   0  0  0  0  0  0  0  0  0  0  0  0
   25.2792   17.9742   10.9900 C   0  0  0  0  0  0  0  0  0  0  0  0
   26.5747   17.9089   10.5577 O   0  0  0  0  0  0  0  0  0  0  0  0
   24.5972   19.1856   11.1036 C   0  0  0  0  0  0  0  0  0  0  0  0
   25.1297   20.4769   10.8453 C   0  0  0  0  0  0  0  0  0  0  0  0
   24.3391   21.6218   10.9641 C   0  0  0  0  0  0  0  0  0  0  0  0
   24.9349   22.8822   10.8200 N   0  0  0  0  0  0  0  0  0  0  0  0
   23.0317   21.4620   11.4390 C   0  0  0  0  0  0  0  0  0  0  0  0
   21.9032   22.9661   11.7182 Br  0  0  0  0  0  0  0  0  0  0  0  0
   22.5120   20.1913   11.7038 C   0  0  0  0  0  0  0  0  0  0  0  0
   23.2783   19.0474   11.5398 C   0  0  0  0  0  0  0  0  0  0  0  0
   22.7302   17.8598   11.8205 N   0  0  0  0  0  0  0  0  0  0  0  0
   23.4482   14.7268   11.8810 H   0  0  0  0  0  0  0  0  0  0  0  0
   21.9925   15.5101   12.2995 H   0  0  0  0  0  0  0  0  0  0  0  0
   27.0055   17.0793   10.4922 H   0  0  0  0  0  0  0  0  0  0  0  0
   25.8569   22.9552   10.4826 H   0  0  0  0  0  0  0  0  0  0  0  0
   24.4314   23.6946   11.0562 H   0  0  0  0  0  0  0  0  0  0  0  0
  1  2  1  0
  2  3  2  0
  3  4  1  0
  4  5  1  0
  4  6  2  0
  6  7  1  0
  7  8  2  0
  8  9  1  0
  8 10  1  0
 10 11  1  0
 10 12  2  0
 12 13  1  0
 13 14  2  0
 14  2  1  0
 13  6  1  0
  1 15  1  0
  1 16  1  0
  5 17  1  0
  9 18  1  0
  9 19  1  0
M  END
> <minimizedAffinity>
-5.06657

> <CNNscore>
0.5582983494

> <CNNaffinity>
4.1495757103

> <CNN_VS>
2.3167011738

> <CNNaffinity_variance>
0.0046183369

$$$$



 19 20  0  0  0  0  0  0  0  0999 V2000
   18.7791   17.0438   11.9513 N   0  0  0  0  0  0  0  0  0  0  0  0
   19.9203   17.6989   11.5387 C   0  0  0  0  0  0  0  0  0  0  0  0
   19.7666   18.8248   10.8508 N   0  0  0  0  0  0  0  0  0  0  0  0
   20.8925   19.4319   10.4600 C   0  0  0  0  0  0  0  0  0  0  0  0
   20.6690   20.6034    9.7911 O   0  0  0  0  0  0  0  0  0  0  0  0
   22.1794   18.9495   10.6978 C   0  0  0  0  0  0  0  0  0  0  0  0
   23.3935   19.5459   10.2644 C   0  0  0  0  0  0  0  0  0  0  0  0
   24.6306   18.9858   10.5901 C   0  0  0  0  0  0  0  0  0  0  0  0
   25.7964   19.5360   10.0402 N   0  0  0  0  0  0  0  0  0  0  0  0
   24.6306   17.7652   11.2760 C   0  0  0  0  0  0  0  0  0  0  0  0
   26.2598   16.8776   11.6902 Br  0  0  0  0  0  0  0  0  0  0  0  0
   23.4343   17.1732   11.6924 C   0  0  0  0  0  0  0  0  0  0  0  0
   22.2053   17.7516   11.4141 C   0  0  0  0  0  0  0  0  0  0  0  0
   21.0940   17.1324   11.8280 N   0  0  0  0  0  0  0  0  0  0  0  0
   17.8936   17.4282   11.7577 H   0  0  0  0  0  0  0  0  0  0  0  0
   18.8498   16.1918   12.4393 H   0  0  0  0  0  0  0  0  0  0  0  0
   19.7921   20.9007    9.6471 H   0  0  0  0  0  0  0  0  0  0  0  0
   25.7574   20.3970    9.5644 H   0  0  0  0  0  0  0  0  0  0  0  0
   26.6543   19.0615   10.1297 H   0  0  0  0  0  0  0  0  0  0  0  0
  1  2  1  0
  2  3  2  0
  3  4  1  0
  4  5  1  0
  4  6  2  0
  6  7  1  0
  7  8  2  0
  8  9  1  0
  8 10  1  0
 10 11  1  0
 10 12  2  0
 12 13  1  0
 13 14  2  0
 14  2  1  0
 13  6  1  0
  1 15  1  0
  1 16  1  0
  5 17  1  0
  9 18  1  0
  9 19  1  0
M  END
> <minimizedAffinity>
-4.47949

> <CNNscore>
0.4886890650

> <CNNaffinity>
4.3646831512

> <CNN_VS>
2.1329729557

> <CNNaffinity_variance>
0.0044119977

$$$$



 19 20  0  0  0  0  0  0  0  0999 V2000
   19.5963   16.9906   19.5843 N   0  0  0  0  0  0  0  0  0  0  0  0
   18.2441   16.8043   19.3880 C   0  0  0  0  0  0  0  0  0  0  0  0
   17.4987   16.5470   20.4568 N   0  0  0  0  0  0  0  0  0  0  0  0
   16.1929   16.3650   20.2316 C   0  0  0  0  0  0  0  0  0  0  0  0
   15.4747   16.1426   21.3736 O   0  0  0  0  0  0  0  0  0  0  0  0
   15.5914   16.3970   18.9736 C   0  0  0  0  0  0  0  0  0  0  0  0
   14.2176   16.1695   18.6933 C   0  0  0  0  0  0  0  0  0  0  0  0
   13.7211   16.2585   17.3911 C   0  0  0  0  0  0  0  0  0  0  0  0
   12.3874   15.9068   17.1422 N   0  0  0  0  0  0  0  0  0  0  0  0
   14.6403   16.4846   16.3595 C   0  0  0  0  0  0  0  0  0  0  0  0
   14.0783   16.5366   14.5443 Br  0  0  0  0  0  0  0  0  0  0  0  0
   15.9945   16.6973   16.6354 C   0  0  0  0  0  0  0  0  0  0  0  0
   16.4835   16.6589   17.9323 C   0  0  0  0  0  0  0  0  0  0  0  0
   17.7910   16.8581   18.1333 N   0  0  0  0  0  0  0  0  0  0  0  0
   19.9706   16.9585   20.4943 H   0  0  0  0  0  0  0  0  0  0  0  0
   20.1873   17.1557   18.8145 H   0  0  0  0  0  0  0  0  0  0  0  0
   15.9083   16.1271   22.2042 H   0  0  0  0  0  0  0  0  0  0  0  0
   11.7697   15.7557   17.8938 H   0  0  0  0  0  0  0  0  0  0  0  0
   12.0683   15.8109   16.2158 H   0  0  0  0  0  0  0  0  0  0  0  0
  1  2  1  0
  2  3  2  0
  3  4  1  0
  4  5  1  0
  4  6  2  0
  6  7  1  0
  7  8  2  0
  8  9  1  0
  8 10  1  0
 10 11  1  0
 10 12  2  0
 12 13  1  0
 13 14  2  0
 14  2  1  0
 13  6  1  0
  1 15  1  0
  1 16  1  0
  5 17  1  0
  9 18  1  0
  9 19  1  0
M  END
> <minimizedAffinity>
-6.85773

> <CNNscore>
0.3926091194

> <CNNaffinity>
4.7623829842

> <CNN_VS>
1.8697550297

> <CNNaffinity_variance>
0.1395507306

$$$$



 19 20  0  0  0  0  0  0  0  0999 V2000
   26.2942   17.7146   12.7149 N   0  0  0  0  0  0  0  0  0  0  0  0
   24.9753   17.8450   12.3338 C   0  0  0  0  0  0  0  0  0  0  0  0
   24.3442   16.7505   11.9238 N   0  0  0  0  0  0  0  0  0  0  0  0
   23.0686   16.9121   11.5552 C   0  0  0  0  0  0  0  0  0  0  0  0
   22.4637   15.7444   11.1808 O   0  0  0  0  0  0  0  0  0  0  0  0
   22.3923   18.1319   11.5462 C   0  0  0  0  0  0  0  0  0  0  0  0
   21.0530   18.3468   11.1245 C   0  0  0  0  0  0  0  0  0  0  0  0
   20.4692   19.6137   11.1894 C   0  0  0  0  0  0  0  0  0  0  0  0
   19.1900   19.8056   10.6499 N   0  0  0  0  0  0  0  0  0  0  0  0
   21.2789   20.6821   11.5935 C   0  0  0  0  0  0  0  0  0  0  0  0
   20.6041   22.4588   11.6326 Br  0  0  0  0  0  0  0  0  0  0  0  0
   22.6007   20.4712   11.9977 C   0  0  0  0  0  0  0  0  0  0  0  0
   23.1693   19.2067   11.9819 C   0  0  0  0  0  0  0  0  0  0  0  0
   24.4425   19.0685   12.3687 N   0  0  0  0  0  0  0  0  0  0  0  0
   26.7247   16.8293   12.7033 H   0  0  0  0  0  0  0  0  0  0  0  0
   26.8053   18.5068   12.9985 H   0  0  0  0  0  0  0  0  0  0  0  0
   22.9453   14.9408   11.1977 H   0  0  0  0  0  0  0  0  0  0  0  0
   18.6494   19.0294   10.3768 H   0  0  0  0  0  0  0  0  0  0  0  0
   18.8320   20.7165   10.5441 H   0  0  0  0  0  0  0  0  0  0  0  0
  1  2  1  0
  2  3  2  0
  3  4  1  0
  4  5  1  0
  4  6  2  0
  6  7  1  0
  7  8  2  0
  8  9  1  0
  8 10  1  0
 10 11  1  0
 10 12  2  0
 12 13  1  0
 13 14  2  0
 14  2  1  0
 13  6  1  0
  1 15  1  0
  1 16  1  0
  5 17  1  0
  9 18  1  0
  9 19  1  0
M  END
> <minimizedAffinity>
-4.75022

> <CNNscore>
0.3584125340

> <CNNaffinity>
4.0085725784

> <CNN_VS>
1.4367226362

> <CNNaffinity_variance>
0.0167021863

$$$$



 19 20  0  0  0  0  0  0  0  0999 V2000
   12.1256   14.8174   18.2713 N   0  0  0  0  0  0  0  0  0  0  0  0
   13.2817   15.4151   17.8154 C   0  0  0  0  0  0  0  0  0  0  0  0
   13.3217   15.7794   16.5387 N   0  0  0  0  0  0  0  0  0  0  0  0
   14.4590   16.3501   16.1267 C   0  0  0  0  0  0  0  0  0  0  0  0
   14.4239   16.7369   14.8157 O   0  0  0  0  0  0  0  0  0  0  0  0
   15.5834   16.5501   16.9274 C   0  0  0  0  0  0  0  0  0  0  0  0
   16.8191   17.1156   16.5142 C   0  0  0  0  0  0  0  0  0  0  0  0
   17.8695   17.2954   17.4166 C   0  0  0  0  0  0  0  0  0  0  0  0
   19.1103   17.7418   16.9417 N   0  0  0  0  0  0  0  0  0  0  0  0
   17.6970   16.8114   18.7190 C   0  0  0  0  0  0  0  0  0  0  0  0
   19.0978   16.9294   19.9986 Br  0  0  0  0  0  0  0  0  0  0  0  0
   16.4839   16.2447   19.1218 C   0  0  0  0  0  0  0  0  0  0  0  0
   15.4208   16.1092   18.2419 C   0  0  0  0  0  0  0  0  0  0  0  0
   14.2888   15.5482   18.6816 N   0  0  0  0  0  0  0  0  0  0  0  0
   11.3595   14.7003   17.6641 H   0  0  0  0  0  0  0  0  0  0  0  0
   12.0663   14.5077   19.2039 H   0  0  0  0  0  0  0  0  0  0  0  0
   13.6532   16.5884   14.3039 H   0  0  0  0  0  0  0  0  0  0  0  0
   19.1931   18.0756   16.0192 H   0  0  0  0  0  0  0  0  0  0  0  0
   19.8990   17.7216   17.5305 H   0  0  0  0  0  0  0  0  0  0  0  0
  1  2  1  0
  2  3  2  0
  3  4  1  0
  4  5  1  0
  4  6  2  0
  6  7  1  0
  7  8  2  0
  8  9  1  0
  8 10  1  0
 10 11  1  0
 10 12  2  0
 12 13  1  0
 13 14  2  0
 14  2  1  0
 13  6  1  0
  1 15  1  0
  1 16  1  0
  5 17  1  0
  9 18  1  0
  9 19  1  0
M  END
> <minimizedAffinity>
-6.58304

> <CNNscore>
0.3183819354

> <CNNaffinity>
4.4697632790

> <CNN_VS>
1.4230918884

> <CNNaffinity_variance>
0.7520747185

$$$$



 19 20  0  0  0  0  0  0  0  0999 V2000
   13.9688   22.3566   15.4475 N   0  0  0  0  0  0  0  0  0  0  0  0
   14.5655   21.2738   14.8368 C   0  0  0  0  0  0  0  0  0  0  0  0
   13.9186   20.1143   14.8753 N   0  0  0  0  0  0  0  0  0  0  0  0
   14.5271   19.0828   14.2796 C   0  0  0  0  0  0  0  0  0  0  0  0
   13.7949   17.9288   14.3196 O   0  0  0  0  0  0  0  0  0  0  0  0
   15.7784   19.1444   13.6665 C   0  0  0  0  0  0  0  0  0  0  0  0
   16.4710   18.0626   13.0602 C   0  0  0  0  0  0  0  0  0  0  0  0
   17.7114   18.2512   12.4472 C   0  0  0  0  0  0  0  0  0  0  0  0
   18.4151   17.1368   11.9706 N   0  0  0  0  0  0  0  0  0  0  0  0
   18.2928   19.5219   12.5348 C   0  0  0  0  0  0  0  0  0  0  0  0
   20.0168   19.8595   11.8087 Br  0  0  0  0  0  0  0  0  0  0  0  0
   17.6150   20.5836   13.1419 C   0  0  0  0  0  0  0  0  0  0  0  0
   16.3611   20.4123   13.7084 C   0  0  0  0  0  0  0  0  0  0  0  0
   15.7667   21.4625   14.2857 N   0  0  0  0  0  0  0  0  0  0  0  0
   13.0829   22.2593   15.8659 H   0  0  0  0  0  0  0  0  0  0  0  0
   14.4286   23.2269   15.4652 H   0  0  0  0  0  0  0  0  0  0  0  0
   12.9572   17.9197   14.7393 H   0  0  0  0  0  0  0  0  0  0  0  0
   17.9728   16.2585   11.9234 H   0  0  0  0  0  0  0  0  0  0  0  0
   19.3519   17.2322   11.6830 H   0  0  0  0  0  0  0  0  0  0  0  0
  1  2  1  0
  2  3  2  0
  3  4  1  0
  4  5  1  0
  4  6  2  0
  6  7  1  0
  7  8  2  0
  8  9  1  0
  8 10  1  0
 10 11  1  0
 10 12  2  0
 12 13  1  0
 13 14  2  0
 14  2  1  0
 13  6  1  0
  1 15  1  0
  1 16  1  0
  5 17  1  0
  9 18  1  0
  9 19  1  0
M  END
> <minimizedAffinity>
-3.94241

> <CNNscore>
0.3063277602

> <CNNaffinity>
3.9721701145

> <CNN_VS>
1.2167860270

> <CNNaffinity_variance>
0.0244968683

$$$$
