


 15 15  0  0  0  0  0  0  0  0999 V2000
    6.7194   -7.1570    9.7309 C   0  0  0  0  0  0  0  0  0  0  0  0
    5.4203   -6.8868   10.1792 C   0  0  0  0  0  0  0  0  0  0  0  0
    4.3831   -6.6692    9.2659 C   0  0  0  0  0  0  0  0  0  0  0  0
    4.6474   -6.7157    7.8965 C   0  0  0  0  0  0  0  0  0  0  0  0
    5.9312   -6.9953    7.4274 C   0  0  0  0  0  0  0  0  0  0  0  0
    6.9616   -7.2089    8.3463 C   0  0  0  0  0  0  0  0  0  0  0  0
    8.6953   -7.5714    7.6548 Br  0  0  0  0  0  0  0  0  0  0  0  0
    3.3406   -6.4525    6.7289 S   0  0  0  0  0  0  0  0  0  0  0  0
    4.0058   -5.2676    5.7363 N   0  0  0  0  0  0  0  0  0  0  0  0
    3.1813   -7.6558    5.9497 O   0  0  0  0  0  0  0  0  0  0  0  0
    2.2398   -5.8125    7.4115 O   0  0  0  0  0  0  0  0  0  0  0  0
    4.7950   -5.6586    5.2219 H   0  0  0  0  0  0  0  0  0  0  0  0
    4.3262   -4.4859    6.3078 H   0  0  0  0  0  0  0  0  0  0  0  0
    8.0696   -8.7123   10.9448 C   0  0  0  0  0  0  0  0  0  0  0  0
    7.7919   -7.3739   10.5547 O   0  0  0  0  0  0  0  0  0  0  0  0
 14 15  1  0
 15  1  1  0
  1  2  2  0
  2  3  1  0
  3  4  2  0
  4  8  1  0
  8  9  1  0
  8 10  2  0
  8 11  2  0
  4  5  1  0
  5  6  2  0
  6  7  1  0
  6  1  1  0
  9 12  1  0
  9 13  1  0
M  END
> <minimizedAffinity>
-6.59070

> <CNNscore>
0.8069730997

> <CNNaffinity>
4.4463267326

> <CNN_VS>
3.5880661011

> <CNNaffinity_variance>
0.5695801377

$$$$



 15 15  0  0  0  0  0  0  0  0999 V2000
    5.5877   -7.0359    9.5051 C   0  0  0  0  0  0  0  0  0  0  0  0
    6.4501   -7.6078   10.4489 C   0  0  0  0  0  0  0  0  0  0  0  0
    7.7040   -8.0947   10.0643 C   0  0  0  0  0  0  0  0  0  0  0  0
    8.0955   -8.0152    8.7273 C   0  0  0  0  0  0  0  0  0  0  0  0
    7.2577   -7.4383    7.7724 C   0  0  0  0  0  0  0  0  0  0  0  0
    6.0063   -6.9569    8.1646 C   0  0  0  0  0  0  0  0  0  0  0  0
    4.8973   -6.1939    6.8218 Br  0  0  0  0  0  0  0  0  0  0  0  0
    9.6853   -8.6184    8.2285 S   0  0  0  0  0  0  0  0  0  0  0  0
    9.8444   -7.9327    6.7000 N   0  0  0  0  0  0  0  0  0  0  0  0
   10.6821   -8.0329    9.0910 O   0  0  0  0  0  0  0  0  0  0  0  0
    9.5844  -10.0422    8.0054 O   0  0  0  0  0  0  0  0  0  0  0  0
    9.9209   -6.9194    6.7882 H   0  0  0  0  0  0  0  0  0  0  0  0
    9.0261   -8.1641    6.1367 H   0  0  0  0  0  0  0  0  0  0  0  0
    3.2300   -7.1110    9.1166 C   0  0  0  0  0  0  0  0  0  0  0  0
    4.3429   -6.5430    9.7942 O   0  0  0  0  0  0  0  0  0  0  0  0
 14 15  1  0
 15  1  1  0
  1  2  2  0
  2  3  1  0
  3  4  2  0
  4  8  1  0
  8  9  1  0
  8 10  2  0
  8 11  2  0
  4  5  1  0
  5  6  2  0
  6  7  1  0
  6  1  1  0
  9 12  1  0
  9 13  1  0
M  END
> <minimizedAffinity>
-6.64414

> <CNNscore>
0.7102235556

> <CNNaffinity>
4.5520167351

> <CNN_VS>
3.2329494953

> <CNNaffinity_variance>
1.1886839867

$$$$



 15 15  0  0  0  0  0  0  0  0999 V2000
    7.8991   -7.3899    8.3646 C   0  0  0  0  0  0  0  0  0  0  0  0
    8.8985   -7.4480    7.3852 C   0  0  0  0  0  0  0  0  0  0  0  0
   10.0437   -8.2270    7.5823 C   0  0  0  0  0  0  0  0  0  0  0  0
   10.1938   -8.9471    8.7681 C   0  0  0  0  0  0  0  0  0  0  0  0
    9.2053   -8.9137    9.7522 C   0  0  0  0  0  0  0  0  0  0  0  0
    8.0661   -8.1312    9.5483 C   0  0  0  0  0  0  0  0  0  0  0  0
    6.7566   -8.1089   10.9266 Br  0  0  0  0  0  0  0  0  0  0  0  0
   11.6345   -9.9461    9.0260 S   0  0  0  0  0  0  0  0  0  0  0  0
   12.7335   -9.2368    7.9674 N   0  0  0  0  0  0  0  0  0  0  0  0
   12.1010   -9.7275   10.3732 O   0  0  0  0  0  0  0  0  0  0  0  0
   11.3783  -11.2640    8.4923 O   0  0  0  0  0  0  0  0  0  0  0  0
   12.9579   -8.2957    8.2905 H   0  0  0  0  0  0  0  0  0  0  0  0
   12.3238   -9.1873    7.0346 H   0  0  0  0  0  0  0  0  0  0  0  0
    5.9415   -6.8441    7.1055 C   0  0  0  0  0  0  0  0  0  0  0  0
    6.7528   -6.6482    8.2562 O   0  0  0  0  0  0  0  0  0  0  0  0
 14 15  1  0
 15  1  1  0
  1  2  2  0
  2  3  1  0
  3  4  2  0
  4  8  1  0
  8  9  1  0
  8 10  2  0
  8 11  2  0
  4  5  1  0
  5  6  2  0
  6  7  1  0
  6  1  1  0
  9 12  1  0
  9 13  1  0
M  END
> <minimizedAffinity>
-5.34704

> <CNNscore>
0.7076498866

> <CNNaffinity>
3.9036464691

> <CNN_VS>
2.7624149323

> <CNNaffinity_variance>
0.6297479272

$$$$



 15 15  0  0  0  0  0  0  0  0999 V2000
    8.0518   -7.6428    9.7477 C   0  0  0  0  0  0  0  0  0  0  0  0
    6.8946   -7.3343   10.4737 C   0  0  0  0  0  0  0  0  0  0  0  0
    5.7206   -6.9549    9.8141 C   0  0  0  0  0  0  0  0  0  0  0  0
    5.7052   -6.8772    8.4210 C   0  0  0  0  0  0  0  0  0  0  0  0
    6.8427   -7.1918    7.6769 C   0  0  0  0  0  0  0  0  0  0  0  0
    8.0115   -7.5674    8.3437 C   0  0  0  0  0  0  0  0  0  0  0  0
    9.5374   -7.9714    7.2837 Br  0  0  0  0  0  0  0  0  0  0  0  0
    4.2219   -6.4082    7.5724 S   0  0  0  0  0  0  0  0  0  0  0  0
    4.8388   -5.6002    6.2314 N   0  0  0  0  0  0  0  0  0  0  0  0
    3.5652   -7.6074    7.1132 O   0  0  0  0  0  0  0  0  0  0  0  0
    3.5469   -5.3991    8.3557 O   0  0  0  0  0  0  0  0  0  0  0  0
    5.3317   -6.2625    5.6325 H   0  0  0  0  0  0  0  0  0  0  0  0
    5.4855   -4.8741    6.5397 H   0  0  0  0  0  0  0  0  0  0  0  0
    9.2428   -9.1399   11.1815 C   0  0  0  0  0  0  0  0  0  0  0  0
    9.2427   -8.0147   10.3129 O   0  0  0  0  0  0  0  0  0  0  0  0
 14 15  1  0
 15  1  1  0
  1  2  2  0
  2  3  1  0
  3  4  2  0
  4  8  1  0
  8  9  1  0
  8 10  2  0
  8 11  2  0
  4  5  1  0
  5  6  2  0
  6  7  1  0
  6  1  1  0
  9 12  1  0
  9 13  1  0
M  END
> <minimizedAffinity>
-6.12600

> <CNNscore>
0.7059903741

> <CNNaffinity>
4.0865492821

> <CNN_VS>
2.8850643635

> <CNNaffinity_variance>
0.6588058472

$$$$



 15 15  0  0  0  0  0  0  0  0999 V2000
    2.8237   -6.1525    7.9806 C   0  0  0  0  0  0  0  0  0  0  0  0
    3.1473   -6.7688    9.1959 C   0  0  0  0  0  0  0  0  0  0  0  0
    4.4585   -7.1799    9.4584 C   0  0  0  0  0  0  0  0  0  0  0  0
    5.4507   -6.9796    8.4979 C   0  0  0  0  0  0  0  0  0  0  0  0
    5.1535   -6.3567    7.2854 C   0  0  0  0  0  0  0  0  0  0  0  0
    3.8411   -5.9516    7.0304 C   0  0  0  0  0  0  0  0  0  0  0  0
    3.4865   -5.1212    5.3571 Br  0  0  0  0  0  0  0  0  0  0  0  0
    7.1177   -7.4860    8.8218 S   0  0  0  0  0  0  0  0  0  0  0  0
    7.8718   -7.1262    7.3611 N   0  0  0  0  0  0  0  0  0  0  0  0
    7.6645   -6.6192    9.8367 O   0  0  0  0  0  0  0  0  0  0  0  0
    7.1454   -8.9266    8.9272 O   0  0  0  0  0  0  0  0  0  0  0  0
    7.8851   -6.1154    7.2253 H   0  0  0  0  0  0  0  0  0  0  0  0
    7.3589   -7.5652    6.5965 H   0  0  0  0  0  0  0  0  0  0  0  0
    1.4077   -5.0525    6.3993 C   0  0  0  0  0  0  0  0  0  0  0  0
    1.5670   -5.7273    7.6402 O   0  0  0  0  0  0  0  0  0  0  0  0
 14 15  1  0
 15  1  1  0
  1  2  2  0
  2  3  1  0
  3  4  2  0
  4  8  1  0
  8  9  1  0
  8 10  2  0
  8 11  2  0
  4  5  1  0
  5  6  2  0
  6  7  1  0
  6  1  1  0
  9 12  1  0
  9 13  1  0
M  END
> <minimizedAffinity>
-6.17446

> <CNNscore>
0.6231394410

> <CNNaffinity>
4.7086291313

> <CNN_VS>
2.9341325760

> <CNNaffinity_variance>
1.5530720949

$$$$



 15 15  0  0  0  0  0  0  0  0999 V2000
   11.5562   -9.9914    8.7788 C   0  0  0  0  0  0  0  0  0  0  0  0
   12.7756  -10.5936    8.4439 C   0  0  0  0  0  0  0  0  0  0  0  0
   13.8714  -10.5114    9.3097 C   0  0  0  0  0  0  0  0  0  0  0  0
   13.7496   -9.8179   10.5144 C   0  0  0  0  0  0  0  0  0  0  0  0
   12.5409   -9.2208   10.8740 C   0  0  0  0  0  0  0  0  0  0  0  0
   11.4525   -9.3056   10.0024 C   0  0  0  0  0  0  0  0  0  0  0  0
    9.8332   -8.4622   10.5334 Br  0  0  0  0  0  0  0  0  0  0  0  0
   15.1266   -9.7152   11.6250 S   0  0  0  0  0  0  0  0  0  0  0  0
   15.8993   -8.3232   11.0800 N   0  0  0  0  0  0  0  0  0  0  0  0
   14.6199   -9.4595   12.9510 O   0  0  0  0  0  0  0  0  0  0  0  0
   16.0328  -10.8013   11.3311 O   0  0  0  0  0  0  0  0  0  0  0  0
   15.3065   -7.5128   11.2596 H   0  0  0  0  0  0  0  0  0  0  0  0
   16.0739   -8.4014   10.0781 H   0  0  0  0  0  0  0  0  0  0  0  0
   10.5064   -9.3744    6.7215 C   0  0  0  0  0  0  0  0  0  0  0  0
   10.4385  -10.0170    7.9876 O   0  0  0  0  0  0  0  0  0  0  0  0
 14 15  1  0
 15  1  1  0
  1  2  2  0
  2  3  1  0
  3  4  2  0
  4  8  1  0
  8  9  1  0
  8 10  2  0
  8 11  2  0
  4  5  1  0
  5  6  2  0
  6  7  1  0
  6  1  1  0
  9 12  1  0
  9 13  1  0
M  END
> <minimizedAffinity>
-5.08468

> <CNNscore>
0.5955349207

> <CNNaffinity>
3.3853359222

> <CNN_VS>
2.0160858631

> <CNNaffinity_variance>
1.1510676146

$$$$



 15 15  0  0  0  0  0  0  0  0999 V2000
    6.6621   -7.5731   10.0669 C   0  0  0  0  0  0  0  0  0  0  0  0
    7.5902   -8.1206   10.9616 C   0  0  0  0  0  0  0  0  0  0  0  0
    8.8290   -8.5850   10.5065 C   0  0  0  0  0  0  0  0  0  0  0  0
    9.1392   -8.5075    9.1483 C   0  0  0  0  0  0  0  0  0  0  0  0
    8.2349   -7.9547    8.2410 C   0  0  0  0  0  0  0  0  0  0  0  0
    6.9992   -7.4957    8.7035 C   0  0  0  0  0  0  0  0  0  0  0  0
    5.7975   -6.7651    7.4239 Br  0  0  0  0  0  0  0  0  0  0  0  0
   10.7089   -9.0823    8.5601 S   0  0  0  0  0  0  0  0  0  0  0  0
   10.7240  -10.6670    9.1259 N   0  0  0  0  0  0  0  0  0  0  0  0
   10.6659   -9.1188    7.1188 O   0  0  0  0  0  0  0  0  0  0  0  0
   11.7497   -8.3994    9.2934 O   0  0  0  0  0  0  0  0  0  0  0  0
   10.0056  -11.2071    8.6436 H   0  0  0  0  0  0  0  0  0  0  0  0
   10.5372  -10.6717   10.1287 H   0  0  0  0  0  0  0  0  0  0  0  0
    4.5574   -6.6626    9.3914 C   0  0  0  0  0  0  0  0  0  0  0  0
    5.4267   -7.1033   10.4261 O   0  0  0  0  0  0  0  0  0  0  0  0
 14 15  1  0
 15  1  1  0
  1  2  2  0
  2  3  1  0
  3  4  2  0
  4  8  1  0
  8  9  1  0
  8 10  2  0
  8 11  2  0
  4  5  1  0
  5  6  2  0
  6  7  1  0
  6  1  1  0
  9 12  1  0
  9 13  1  0
M  END
> <minimizedAffinity>
-6.67803

> <CNNscore>
0.5933071971

> <CNNaffinity>
3.6864697933

> <CNN_VS>
2.1872091293

> <CNNaffinity_variance>
1.2454230785

$$$$



 15 15  0  0  0  0  0  0  0  0999 V2000
    5.2954   -6.7953    9.2048 C   0  0  0  0  0  0  0  0  0  0  0  0
    3.9453   -6.5809    9.5095 C   0  0  0  0  0  0  0  0  0  0  0  0
    3.0206   -6.3122    8.4946 C   0  0  0  0  0  0  0  0  0  0  0  0
    3.4492   -6.2511    7.1680 C   0  0  0  0  0  0  0  0  0  0  0  0
    4.7870   -6.4735    6.8402 C   0  0  0  0  0  0  0  0  0  0  0  0
    5.7041   -6.7387    7.8601 C   0  0  0  0  0  0  0  0  0  0  0  0
    7.5172   -7.0197    7.3611 Br  0  0  0  0  0  0  0  0  0  0  0  0
    2.2866   -5.9221    5.8717 S   0  0  0  0  0  0  0  0  0  0  0  0
    1.0010   -5.2565    6.7295 N   0  0  0  0  0  0  0  0  0  0  0  0
    2.8380   -4.8977    5.0191 O   0  0  0  0  0  0  0  0  0  0  0  0
    1.8005   -7.1839    5.3628 O   0  0  0  0  0  0  0  0  0  0  0  0
    1.2814   -4.3561    7.1181 H   0  0  0  0  0  0  0  0  0  0  0  0
    0.7355   -5.8859    7.4870 H   0  0  0  0  0  0  0  0  0  0  0  0
    6.7347   -8.3931   10.2493 C   0  0  0  0  0  0  0  0  0  0  0  0
    6.2658   -7.0560   10.1355 O   0  0  0  0  0  0  0  0  0  0  0  0
 14 15  1  0
 15  1  1  0
  1  2  2  0
  2  3  1  0
  3  4  2  0
  4  8  1  0
  8  9  1  0
  8 10  2  0
  8 11  2  0
  4  5  1  0
  5  6  2  0
  6  7  1  0
  6  1  1  0
  9 12  1  0
  9 13  1  0
M  END
> <minimizedAffinity>
-5.34949

> <CNNscore>
0.5458838940

> <CNNaffinity>
4.1710562706

> <CNN_VS>
2.2769124508

> <CNNaffinity_variance>
0.4023563862

$$$$



 15 15  0  0  0  0  0  0  0  0999 V2000
   -0.4107  -14.2238    6.8787 C   0  0  0  0  0  0  0  0  0  0  0  0
    0.5910  -13.3419    7.3035 C   0  0  0  0  0  0  0  0  0  0  0  0
    1.2454  -12.5131    6.3859 C   0  0  0  0  0  0  0  0  0  0  0  0
    0.9010  -12.5707    5.0349 C   0  0  0  0  0  0  0  0  0  0  0  0
   -0.1023  -13.4327    4.5913 C   0  0  0  0  0  0  0  0  0  0  0  0
   -0.7490  -14.2587    5.5139 C   0  0  0  0  0  0  0  0  0  0  0  0
   -2.0981  -15.4253    4.8552 Br  0  0  0  0  0  0  0  0  0  0  0  0
    1.7146  -11.5187    3.8637 S   0  0  0  0  0  0  0  0  0  0  0  0
    0.4163  -10.9576    2.9520 N   0  0  0  0  0  0  0  0  0  0  0  0
    2.2809  -10.4005    4.5773 O   0  0  0  0  0  0  0  0  0  0  0  0
    2.4886  -12.3459    2.9670 O   0  0  0  0  0  0  0  0  0  0  0  0
   -0.1744  -10.3620    3.5322 H   0  0  0  0  0  0  0  0  0  0  0  0
   -0.1289  -11.7503    2.6130 H   0  0  0  0  0  0  0  0  0  0  0  0
   -0.8733  -14.9576    9.1065 C   0  0  0  0  0  0  0  0  0  0  0  0
   -1.0947  -15.0734    7.7072 O   0  0  0  0  0  0  0  0  0  0  0  0
 14 15  1  0
 15  1  1  0
  1  2  2  0
  2  3  1  0
  3  4  2  0
  4  8  1  0
  8  9  1  0
  8 10  2  0
  8 11  2  0
  4  5  1  0
  5  6  2  0
  6  7  1  0
  6  1  1  0
  9 12  1  0
  9 13  1  0
M  END
> <minimizedAffinity>
-3.47183

> <CNNscore>
0.4906477034

> <CNNaffinity>
3.2039463520

> <CNN_VS>
1.5720089674

> <CNNaffinity_variance>
0.6647146344

$$$$
