


 20 21  0  0  0  0  0  0  0  0999 V2000
   29.5557   66.6566    7.7008 C   0  0  0  0  0  0  0  0  0  0  0  0
   30.9654   66.2855    7.1535 C   0  0  0  0  0  0  0  0  0  0  0  0
   31.3265   67.1789    6.0982 O   0  0  0  0  0  0  0  0  0  0  0  0
   32.0415   66.3413    8.2515 C   0  0  0  0  0  0  0  0  0  0  0  0
   33.3318   66.0415    7.6975 O   0  0  0  0  0  0  0  0  0  0  0  0
   31.7188   65.3660    9.3859 C   0  0  0  0  0  0  0  0  0  0  0  0
   32.5905   65.5597   10.4984 O   0  0  0  0  0  0  0  0  0  0  0  0
   30.2839   65.5147    9.8075 C   0  0  0  0  0  0  0  0  0  0  0  0
   29.7376   65.1812   10.9788 N   0  0  0  0  0  0  0  0  0  0  0  0
   28.4184   65.5341   11.0118 C   0  0  0  0  0  0  0  0  0  0  0  0
   27.5900   65.3772   12.0437 F   0  0  0  0  0  0  0  0  0  0  0  0
   28.1374   66.1093    9.8028 C   0  0  0  0  0  0  0  0  0  0  0  0
   29.3135   66.0580    9.0488 N   0  0  0  0  0  0  0  0  0  0  0  0
   31.3701   68.0848    6.4423 H   0  0  0  0  0  0  0  0  0  0  0  0
   33.3255   65.1434    7.3309 H   0  0  0  0  0  0  0  0  0  0  0  0
   32.4730   66.4565   10.8489 H   0  0  0  0  0  0  0  0  0  0  0  0
   30.2189   64.7417   11.7168 H   0  0  0  0  0  0  0  0  0  0  0  0
   27.1733   66.3396    7.2147 O   0  0  0  0  0  0  0  0  0  0  0  0
   28.4851   66.2579    6.6584 C   0  0  0  0  0  0  0  0  0  0  0  0
   26.5210   66.0854    6.5433 H   0  0  0  0  0  0  0  0  0  0  0  0
 18 19  1  0
  1 19  1  0
  1  2  1  0
  2  3  1  0
  2  4  1  0
  4  5  1  0
  4  6  1  0
  6  7  1  0
  6  8  1  0
  8  9  1  0
  9 10  1  0
 10 11  1  0
 10 12  2  0
 12 13  1  0
 13  1  1  0
 13  8  2  0
 18 20  1  0
  3 14  1  0
  5 15  1  0
  7 16  1  0
  9 17  1  0
M  CHG 1  13   1
M  END
> <minimizedAffinity>
-8.42223

> <CNNscore>
0.9558258653

> <CNNaffinity>
5.4782290459

> <CNN_VS>
5.2362332344

> <CNNaffinity_variance>
0.6066713929

$$$$



 20 21  0  0  0  0  0  0  0  0999 V2000
   29.9922   65.3326    9.8971 C   0  0  0  0  0  0  0  0  0  0  0  0
   31.4024   65.9536    9.6730 C   0  0  0  0  0  0  0  0  0  0  0  0
   32.3842   65.1965   10.3836 O   0  0  0  0  0  0  0  0  0  0  0  0
   31.7812   65.9974    8.1826 C   0  0  0  0  0  0  0  0  0  0  0  0
   33.1049   66.5299    8.0224 O   0  0  0  0  0  0  0  0  0  0  0  0
   30.7790   66.8361    7.3863 C   0  0  0  0  0  0  0  0  0  0  0  0
   30.9995   66.7110    5.9825 O   0  0  0  0  0  0  0  0  0  0  0  0
   29.3727   66.4383    7.7372 C   0  0  0  0  0  0  0  0  0  0  0  0
   28.2691   66.6072    7.0056 N   0  0  0  0  0  0  0  0  0  0  0  0
   27.1888   66.0508    7.6297 C   0  0  0  0  0  0  0  0  0  0  0  0
   25.9441   66.0104    7.1560 F   0  0  0  0  0  0  0  0  0  0  0  0
   27.6475   65.5166    8.8027 C   0  0  0  0  0  0  0  0  0  0  0  0
   29.0152   65.7991    8.8667 N   0  0  0  0  0  0  0  0  0  0  0  0
   32.4016   64.2886   10.0425 H   0  0  0  0  0  0  0  0  0  0  0  0
   33.1319   67.4373    8.3641 H   0  0  0  0  0  0  0  0  0  0  0  0
   30.8750   65.7865    5.7168 H   0  0  0  0  0  0  0  0  0  0  0  0
   28.2379   67.0688    6.1366 H   0  0  0  0  0  0  0  0  0  0  0  0
   29.3960   64.4156   12.0918 O   0  0  0  0  0  0  0  0  0  0  0  0
   29.5331   65.6240   11.3449 C   0  0  0  0  0  0  0  0  0  0  0  0
   29.1079   64.6243   12.9942 H   0  0  0  0  0  0  0  0  0  0  0  0
 18 19  1  0
  1 19  1  0
  1  2  1  0
  2  3  1  0
  2  4  1  0
  4  5  1  0
  4  6  1  0
  6  7  1  0
  6  8  1  0
  8  9  1  0
  9 10  1  0
 10 11  1  0
 10 12  2  0
 12 13  1  0
 13  1  1  0
 13  8  2  0
 18 20  1  0
  3 14  1  0
  5 15  1  0
  7 16  1  0
  9 17  1  0
M  CHG 1  13   1
M  END
> <minimizedAffinity>
-7.52908

> <CNNscore>
0.7773144841

> <CNNaffinity>
5.4288077354

> <CNN_VS>
4.2198910713

> <CNNaffinity_variance>
0.3678508103

$$$$



 20 21  0  0  0  0  0  0  0  0999 V2000
   31.1572   65.4357    9.1707 C   0  0  0  0  0  0  0  0  0  0  0  0
   31.7182   66.3727    8.0608 C   0  0  0  0  0  0  0  0  0  0  0  0
   33.0067   65.9151    7.6456 O   0  0  0  0  0  0  0  0  0  0  0  0
   30.7876   66.4364    6.8375 C   0  0  0  0  0  0  0  0  0  0  0  0
   31.3626   67.2695    5.8193 O   0  0  0  0  0  0  0  0  0  0  0  0
   29.4048   66.9639    7.2271 C   0  0  0  0  0  0  0  0  0  0  0  0
   28.4777   66.8295    6.1512 O   0  0  0  0  0  0  0  0  0  0  0  0
   28.9012   66.2502    8.4501 C   0  0  0  0  0  0  0  0  0  0  0  0
   27.6357   66.1073    8.8498 N   0  0  0  0  0  0  0  0  0  0  0  0
   27.5710   65.3332    9.9735 C   0  0  0  0  0  0  0  0  0  0  0  0
   26.4594   64.9654   10.6096 F   0  0  0  0  0  0  0  0  0  0  0  0
   28.8573   64.9852   10.2829 C   0  0  0  0  0  0  0  0  0  0  0  0
   29.6803   65.5978    9.3332 N   0  0  0  0  0  0  0  0  0  0  0  0
   32.9280   65.0240    7.2705 H   0  0  0  0  0  0  0  0  0  0  0  0
   31.4688   68.1711    6.1610 H   0  0  0  0  0  0  0  0  0  0  0  0
   28.3746   65.8910    5.9287 H   0  0  0  0  0  0  0  0  0  0  0  0
   26.8568   66.5048    8.3974 H   0  0  0  0  0  0  0  0  0  0  0  0
   33.0546   64.7866   10.5819 O   0  0  0  0  0  0  0  0  0  0  0  0
   31.9419   65.6748   10.4817 C   0  0  0  0  0  0  0  0  0  0  0  0
   33.5297   64.9556   11.4105 H   0  0  0  0  0  0  0  0  0  0  0  0
 18 19  1  0
  1 19  1  0
  1  2  1  0
  2  3  1  0
  2  4  1  0
  4  5  1  0
  4  6  1  0
  6  7  1  0
  6  8  1  0
  8  9  1  0
  9 10  1  0
 10 11  1  0
 10 12  2  0
 12 13  1  0
 13  1  1  0
 13  8  2  0
 18 20  1  0
  3 14  1  0
  5 15  1  0
  7 16  1  0
  9 17  1  0
M  CHG 1  13   1
M  END
> <minimizedAffinity>
-6.62853

> <CNNscore>
0.5430417657

> <CNNaffinity>
4.9755482674

> <CNN_VS>
2.7019305229

> <CNNaffinity_variance>
0.7310712934

$$$$



 20 21  0  0  0  0  0  0  0  0999 V2000
   33.2872   70.7932   15.5227 C   0  0  0  0  0  0  0  0  0  0  0  0
   34.7409   71.3491   15.5710 C   0  0  0  0  0  0  0  0  0  0  0  0
   34.7417   72.7353   15.2235 O   0  0  0  0  0  0  0  0  0  0  0  0
   35.3761   71.1777   16.9616 C   0  0  0  0  0  0  0  0  0  0  0  0
   36.6947   71.7457   16.9783 O   0  0  0  0  0  0  0  0  0  0  0  0
   35.4366   69.7010   17.3588 C   0  0  0  0  0  0  0  0  0  0  0  0
   35.8269   69.5474   18.7222 O   0  0  0  0  0  0  0  0  0  0  0  0
   34.1089   69.0411   17.1123 C   0  0  0  0  0  0  0  0  0  0  0  0
   33.6268   67.9360   17.6851 N   0  0  0  0  0  0  0  0  0  0  0  0
   32.3542   67.6877   17.2551 C   0  0  0  0  0  0  0  0  0  0  0  0
   31.5720   66.6864   17.6564 F   0  0  0  0  0  0  0  0  0  0  0  0
   32.0380   68.6849   16.3735 C   0  0  0  0  0  0  0  0  0  0  0  0
   33.1648   69.5062   16.2728 N   0  0  0  0  0  0  0  0  0  0  0  0
   34.2124   73.2305   15.8681 H   0  0  0  0  0  0  0  0  0  0  0  0
   37.2543   71.2828   16.3352 H   0  0  0  0  0  0  0  0  0  0  0  0
   35.1705   69.9723   19.2963 H   0  0  0  0  0  0  0  0  0  0  0  0
   34.1201   67.3772   18.3283 H   0  0  0  0  0  0  0  0  0  0  0  0
   33.8826   71.0699   13.1601 O   0  0  0  0  0  0  0  0  0  0  0  0
   32.8349   70.6816   14.0480 C   0  0  0  0  0  0  0  0  0  0  0  0
   33.5753   70.9915   12.2434 H   0  0  0  0  0  0  0  0  0  0  0  0
 18 19  1  0
  1 19  1  0
  1  2  1  0
  2  3  1  0
  2  4  1  0
  4  5  1  0
  4  6  1  0
  6  7  1  0
  6  8  1  0
  8  9  1  0
  9 10  1  0
 10 11  1  0
 10 12  2  0
 12 13  1  0
 13  1  1  0
 13  8  2  0
 18 20  1  0
  3 14  1  0
  5 15  1  0
  7 16  1  0
  9 17  1  0
M  CHG 1  13   1
M  END
> <minimizedAffinity>
-5.41195

> <CNNscore>
0.3351305127

> <CNNaffinity>
2.7508811951

> <CNN_VS>
0.9219042063

> <CNNaffinity_variance>
1.3241652250

$$$$



 20 21  0  0  0  0  0  0  0  0999 V2000
   26.1509   63.3495   11.1214 C   0  0  0  0  0  0  0  0  0  0  0  0
   27.6240   63.1342   11.5777 C   0  0  0  0  0  0  0  0  0  0  0  0
   28.5161   63.4859   10.5181 O   0  0  0  0  0  0  0  0  0  0  0  0
   27.9678   63.9682   12.8238 C   0  0  0  0  0  0  0  0  0  0  0  0
   29.3452   63.7800   13.1824 O   0  0  0  0  0  0  0  0  0  0  0  0
   27.0639   63.5941   14.0007 C   0  0  0  0  0  0  0  0  0  0  0  0
   27.2310   64.5001   15.0899 O   0  0  0  0  0  0  0  0  0  0  0  0
   25.6271   63.5558   13.5617 C   0  0  0  0  0  0  0  0  0  0  0  0
   24.5369   63.6857   14.3210 N   0  0  0  0  0  0  0  0  0  0  0  0
   23.4093   63.6670   13.5502 C   0  0  0  0  0  0  0  0  0  0  0  0
   22.1584   63.8097   13.9866 F   0  0  0  0  0  0  0  0  0  0  0  0
   23.8235   63.5153   12.2552 C   0  0  0  0  0  0  0  0  0  0  0  0
   25.2176   63.4147   12.2871 N   0  0  0  0  0  0  0  0  0  0  0  0
   28.4063   64.4249   10.3013 H   0  0  0  0  0  0  0  0  0  0  0  0
   29.4990   62.8464   13.3963 H   0  0  0  0  0  0  0  0  0  0  0  0
   26.9803   65.3938   14.8084 H   0  0  0  0  0  0  0  0  0  0  0  0
   24.5445   63.7816   15.3008 H   0  0  0  0  0  0  0  0  0  0  0  0
   26.7614   61.2269   10.0562 O   0  0  0  0  0  0  0  0  0  0  0  0
   25.7702   62.2528   10.0996 C   0  0  0  0  0  0  0  0  0  0  0  0
   26.5006   60.5525    9.4096 H   0  0  0  0  0  0  0  0  0  0  0  0
 18 19  1  0
  1 19  1  0
  1  2  1  0
  2  3  1  0
  2  4  1  0
  4  5  1  0
  4  6  1  0
  6  7  1  0
  6  8  1  0
  8  9  1  0
  9 10  1  0
 10 11  1  0
 10 12  2  0
 12 13  1  0
 13  1  1  0
 13  8  2  0
 18 20  1  0
  3 14  1  0
  5 15  1  0
  7 16  1  0
  9 17  1  0
M  CHG 1  13   1
M  END
> <minimizedAffinity>
-6.28348

> <CNNscore>
0.2717823386

> <CNNaffinity>
3.0221550465

> <CNN_VS>
0.8213683367

> <CNNaffinity_variance>
0.5867204070

$$$$



 20 21  0  0  0  0  0  0  0  0999 V2000
   33.2072   69.6972   15.8877 C   0  0  0  0  0  0  0  0  0  0  0  0
   33.8911   70.7310   14.9453 C   0  0  0  0  0  0  0  0  0  0  0  0
   32.9051   71.3773   14.1377 O   0  0  0  0  0  0  0  0  0  0  0  0
   34.6750   71.7955   15.7320 C   0  0  0  0  0  0  0  0  0  0  0  0
   35.2483   72.7559   14.8317 O   0  0  0  0  0  0  0  0  0  0  0  0
   35.7738   71.1518   16.5808 C   0  0  0  0  0  0  0  0  0  0  0  0
   36.3645   72.0999   17.4681 O   0  0  0  0  0  0  0  0  0  0  0  0
   35.2213   69.9836   17.3482 C   0  0  0  0  0  0  0  0  0  0  0  0
   35.7037   69.4396   18.4677 N   0  0  0  0  0  0  0  0  0  0  0  0
   34.8860   68.4369   18.9058 C   0  0  0  0  0  0  0  0  0  0  0  0
   35.0556   67.7133   20.0118 F   0  0  0  0  0  0  0  0  0  0  0  0
   33.8527   68.3568   18.0128 C   0  0  0  0  0  0  0  0  0  0  0  0
   34.0989   69.3145   17.0245 N   0  0  0  0  0  0  0  0  0  0  0  0
   32.2854   71.8590   14.7076 H   0  0  0  0  0  0  0  0  0  0  0  0
   35.8684   72.3091   14.2344 H   0  0  0  0  0  0  0  0  0  0  0  0
   35.6896   72.4353   18.0788 H   0  0  0  0  0  0  0  0  0  0  0  0
   36.5337   69.7220   18.9155 H   0  0  0  0  0  0  0  0  0  0  0  0
   33.3908   68.4465   13.7864 O   0  0  0  0  0  0  0  0  0  0  0  0
   32.7337   68.4845   15.0528 C   0  0  0  0  0  0  0  0  0  0  0  0
   33.0778   67.6790   13.2826 H   0  0  0  0  0  0  0  0  0  0  0  0
 18 19  1  0
  1 19  1  0
  1  2  1  0
  2  3  1  0
  2  4  1  0
  4  5  1  0
  4  6  1  0
  6  7  1  0
  6  8  1  0
  8  9  1  0
  9 10  1  0
 10 11  1  0
 10 12  2  0
 12 13  1  0
 13  1  1  0
 13  8  2  0
 18 20  1  0
  3 14  1  0
  5 15  1  0
  7 16  1  0
  9 17  1  0
M  CHG 1  13   1
M  END
> <minimizedAffinity>
-5.33688

> <CNNscore>
0.2373328358

> <CNNaffinity>
2.4083747864

> <CNN_VS>
0.5715864301

> <CNNaffinity_variance>
2.1490800381

$$$$



 20 21  0  0  0  0  0  0  0  0999 V2000
   26.4322   64.8259   11.1919 C   0  0  0  0  0  0  0  0  0  0  0  0
   27.8588   64.3110   11.5443 C   0  0  0  0  0  0  0  0  0  0  0  0
   28.8414   65.1914   10.9951 O   0  0  0  0  0  0  0  0  0  0  0  0
   28.0720   64.2029   13.0640 C   0  0  0  0  0  0  0  0  0  0  0  0
   29.4122   63.7730   13.3478 O   0  0  0  0  0  0  0  0  0  0  0  0
   27.0670   63.2342   13.6913 C   0  0  0  0  0  0  0  0  0  0  0  0
   27.1179   63.2864   15.1160 O   0  0  0  0  0  0  0  0  0  0  0  0
   25.6784   63.5356   13.2015 C   0  0  0  0  0  0  0  0  0  0  0  0
   24.5200   63.2287   13.7894 N   0  0  0  0  0  0  0  0  0  0  0  0
   23.4702   63.7325   13.0751 C   0  0  0  0  0  0  0  0  0  0  0  0
   22.1819   63.6387   13.4023 F   0  0  0  0  0  0  0  0  0  0  0  0
   24.0064   64.3774   11.9944 C   0  0  0  0  0  0  0  0  0  0  0  0
   25.3926   64.2143   12.0746 N   0  0  0  0  0  0  0  0  0  0  0  0
   28.7391   66.0737   11.3850 H   0  0  0  0  0  0  0  0  0  0  0  0
   29.5585   62.8949   12.9626 H   0  0  0  0  0  0  0  0  0  0  0  0
   26.8821   64.1784   15.4155 H   0  0  0  0  0  0  0  0  0  0  0  0
   24.4340   62.7110   14.6224 H   0  0  0  0  0  0  0  0  0  0  0  0
   25.8297   65.8129    9.0295 O   0  0  0  0  0  0  0  0  0  0  0  0
   26.1650   64.5912    9.6868 C   0  0  0  0  0  0  0  0  0  0  0  0
   25.6670   65.6400    8.0890 H   0  0  0  0  0  0  0  0  0  0  0  0
 18 19  1  0
  1 19  1  0
  1  2  1  0
  2  3  1  0
  2  4  1  0
  4  5  1  0
  4  6  1  0
  6  7  1  0
  6  8  1  0
  8  9  1  0
  9 10  1  0
 10 11  1  0
 10 12  2  0
 12 13  1  0
 13  1  1  0
 13  8  2  0
 18 20  1  0
  3 14  1  0
  5 15  1  0
  7 16  1  0
  9 17  1  0
M  CHG 1  13   1
M  END
> <minimizedAffinity>
-5.76514

> <CNNscore>
0.2046498358

> <CNNaffinity>
3.0432503223

> <CNN_VS>
0.6228007078

> <CNNaffinity_variance>
0.6016080379

$$$$



 20 21  0  0  0  0  0  0  0  0999 V2000
   23.6838   66.6894    9.8331 C   0  0  0  0  0  0  0  0  0  0  0  0
   23.6285   65.3266    9.0819 C   0  0  0  0  0  0  0  0  0  0  0  0
   22.4257   65.2443    8.3146 O   0  0  0  0  0  0  0  0  0  0  0  0
   24.8361   65.1354    8.1482 C   0  0  0  0  0  0  0  0  0  0  0  0
   24.7230   63.8922    7.4389 O   0  0  0  0  0  0  0  0  0  0  0  0
   26.1486   65.1727    8.9343 C   0  0  0  0  0  0  0  0  0  0  0  0
   27.2749   65.2072    8.0594 O   0  0  0  0  0  0  0  0  0  0  0  0
   26.1654   66.3541    9.8631 C   0  0  0  0  0  0  0  0  0  0  0  0
   27.2295   66.9676   10.3857 N   0  0  0  0  0  0  0  0  0  0  0  0
   26.8451   68.0483   11.1277 C   0  0  0  0  0  0  0  0  0  0  0  0
   27.6573   68.8982   11.7547 F   0  0  0  0  0  0  0  0  0  0  0  0
   25.4796   68.1016   11.0620 C   0  0  0  0  0  0  0  0  0  0  0  0
   25.0702   67.0101   10.2902 N   0  0  0  0  0  0  0  0  0  0  0  0
   22.4172   65.9508    7.6499 H   0  0  0  0  0  0  0  0  0  0  0  0
   24.7163   63.1578    8.0726 H   0  0  0  0  0  0  0  0  0  0  0  0
   27.2406   66.0125    7.5198 H   0  0  0  0  0  0  0  0  0  0  0  0
   28.1622   66.6811   10.2545 H   0  0  0  0  0  0  0  0  0  0  0  0
   22.3068   65.3400   11.3483 O   0  0  0  0  0  0  0  0  0  0  0  0
   22.6525   66.6763   10.9855 C   0  0  0  0  0  0  0  0  0  0  0  0
   21.6603   65.3582   12.0712 H   0  0  0  0  0  0  0  0  0  0  0  0
 18 19  1  0
  1 19  1  0
  1  2  1  0
  2  3  1  0
  2  4  1  0
  4  5  1  0
  4  6  1  0
  6  7  1  0
  6  8  1  0
  8  9  1  0
  9 10  1  0
 10 11  1  0
 10 12  2  0
 12 13  1  0
 13  1  1  0
 13  8  2  0
 18 20  1  0
  3 14  1  0
  5 15  1  0
  7 16  1  0
  9 17  1  0
M  CHG 1  13   1
M  END
> <minimizedAffinity>
-5.75120

> <CNNscore>
0.2000626177

> <CNNaffinity>
2.3624436855

> <CNN_VS>
0.4726366699

> <CNNaffinity_variance>
1.5174912214

$$$$



 20 21  0  0  0  0  0  0  0  0999 V2000
   28.2416   66.4219   14.3171 C   0  0  0  0  0  0  0  0  0  0  0  0
   27.8866   65.5036   15.5234 C   0  0  0  0  0  0  0  0  0  0  0  0
   27.3413   66.2883   16.5861 O   0  0  0  0  0  0  0  0  0  0  0  0
   26.8773   64.4093   15.1356 C   0  0  0  0  0  0  0  0  0  0  0  0
   26.5392   63.6166   16.2840 O   0  0  0  0  0  0  0  0  0  0  0  0
   27.4372   63.5146   14.0275 C   0  0  0  0  0  0  0  0  0  0  0  0
   26.4365   62.6349   13.5176 O   0  0  0  0  0  0  0  0  0  0  0  0
   28.0144   64.3541   12.9226 C   0  0  0  0  0  0  0  0  0  0  0  0
   28.2067   64.0074   11.6480 N   0  0  0  0  0  0  0  0  0  0  0  0
   28.6872   65.0651   10.9294 C   0  0  0  0  0  0  0  0  0  0  0  0
   28.9525   65.0704    9.6236 F   0  0  0  0  0  0  0  0  0  0  0  0
   28.7994   66.1122   11.8026 C   0  0  0  0  0  0  0  0  0  0  0  0
   28.4031   65.6362   13.0559 N   0  0  0  0  0  0  0  0  0  0  0  0
   26.5233   66.7147   16.2862 H   0  0  0  0  0  0  0  0  0  0  0  0
   27.3371   63.1806   16.6221 H   0  0  0  0  0  0  0  0  0  0  0  0
   25.7158   63.1553   13.1296 H   0  0  0  0  0  0  0  0  0  0  0  0
   28.0270   63.1132   11.2772 H   0  0  0  0  0  0  0  0  0  0  0  0
   29.9098   68.0494   13.5548 O   0  0  0  0  0  0  0  0  0  0  0  0
   29.4887   67.2654   14.6705 C   0  0  0  0  0  0  0  0  0  0  0  0
   30.6916   68.5683   13.8008 H   0  0  0  0  0  0  0  0  0  0  0  0
 18 19  1  0
  1 19  1  0
  1  2  1  0
  2  3  1  0
  2  4  1  0
  4  5  1  0
  4  6  1  0
  6  7  1  0
  6  8  1  0
  8  9  1  0
  9 10  1  0
 10 11  1  0
 10 12  2  0
 12 13  1  0
 13  1  1  0
 13  8  2  0
 18 20  1  0
  3 14  1  0
  5 15  1  0
  7 16  1  0
  9 17  1  0
M  CHG 1  13   1
M  END
> <minimizedAffinity>
-5.04461

> <CNNscore>
0.1847233623

> <CNNaffinity>
2.9893434048

> <CNN_VS>
0.5522015691

> <CNNaffinity_variance>
0.7448115945

$$$$
