


 24 27  0  0  0  0  0  0  0  0999 V2000
  -33.3749   32.5026    0.8197 C   0  0  0  0  0  0  0  0  0  0  0  0
  -33.0277   32.0116    2.0983 C   0  0  0  0  0  0  0  0  0  0  0  0
  -32.2096   32.7534    2.9551 C   0  0  0  0  0  0  0  0  0  0  0  0
  -31.7588   33.9793    2.5137 C   0  0  0  0  0  0  0  0  0  0  0  0
  -32.0861   34.4775    1.2732 C   0  0  0  0  0  0  0  0  0  0  0  0
  -32.8876   33.7571    0.4027 C   0  0  0  0  0  0  0  0  0  0  0  0
  -31.5486   35.7133    1.0696 O   0  0  0  0  0  0  0  0  0  0  0  0
  -30.8338   35.9211    2.3028 C   0  0  0  0  0  0  0  0  0  0  0  0
  -30.9682   34.8249    3.2279 O   0  0  0  0  0  0  0  0  0  0  0  0
  -36.0162   30.1127   -1.6672 O   0  0  0  0  0  0  0  0  0  0  0  0
  -34.9348   29.6789   -1.3015 C   0  0  0  0  0  0  0  0  0  0  0  0
  -34.3657   28.3169   -1.6490 C   0  0  0  0  0  0  0  0  0  0  0  0
  -33.0582   28.3034   -0.8981 C   0  0  0  0  0  0  0  0  0  0  0  0
  -32.1490   27.2538   -0.8706 C   0  0  0  0  0  0  0  0  0  0  0  0
  -30.9856   27.4025   -0.1166 C   0  0  0  0  0  0  0  0  0  0  0  0
  -30.7466   28.5851    0.5964 C   0  0  0  0  0  0  0  0  0  0  0  0
  -31.6661   29.6391    0.5656 C   0  0  0  0  0  0  0  0  0  0  0  0
  -32.8218   29.4985   -0.1875 C   0  0  0  0  0  0  0  0  0  0  0  0
  -33.9531   30.4034   -0.4191 C   0  0  0  0  0  0  0  0  0  0  0  0
  -34.2248   31.6560   -0.0232 C   0  0  0  0  0  0  0  0  0  0  0  0
  -33.2285   34.3089   -0.9157 C   0  0  0  0  0  0  0  0  0  0  0  0
  -34.2792   34.1686   -1.5102 O   0  0  0  0  0  0  0  0  0  0  0  0
  -32.1826   34.9634   -1.4508 O   0  0  0  0  0  0  0  0  0  0  0  0
  -31.3871   35.0528   -0.9639 H   0  0  0  0  0  0  0  0  0  0  0  0
 10 11  2  0
 11 12  1  0
 12 13  1  0
 13 14  2  0
 14 15  1  0
 15 16  2  0
 16 17  1  0
 17 18  2  0
 18 19  1  0
 19 20  2  0
 20  1  1  0
  1  2  2  0
  2  3  1  0
  3  4  2  0
  4  5  1  0
  5  6  2  0
  6 21  1  0
 21 22  2  0
 21 23  1  0
  5  7  1  0
  7  8  1  0
  8  9  1  0
 19 11  1  0
  6  1  1  0
 18 13  1  0
  9  4  1  0
 23 24  1  0
M  END
> <minimizedAffinity>
-9.82728

> <CNNscore>
0.9698146582

> <CNNaffinity>
5.2774600983

> <CNN_VS>
5.1181583405

> <CNNaffinity_variance>
0.1449260265

$$$$



 24 27  0  0  0  0  0  0  0  0999 V2000
  -34.9903   31.5217    0.3739 C   0  0  0  0  0  0  0  0  0  0  0  0
  -35.7447   30.3404    0.5531 C   0  0  0  0  0  0  0  0  0  0  0  0
  -36.9376   30.1368   -0.1463 C   0  0  0  0  0  0  0  0  0  0  0  0
  -37.3492   31.1222   -1.0183 C   0  0  0  0  0  0  0  0  0  0  0  0
  -36.6292   32.2794   -1.2094 C   0  0  0  0  0  0  0  0  0  0  0  0
  -35.4488   32.5084   -0.5212 C   0  0  0  0  0  0  0  0  0  0  0  0
  -37.2159   33.0900   -2.1347 O   0  0  0  0  0  0  0  0  0  0  0  0
  -38.3876   32.3271   -2.4813 C   0  0  0  0  0  0  0  0  0  0  0  0
  -38.4753   31.0721   -1.7794 O   0  0  0  0  0  0  0  0  0  0  0  0
  -31.3942   32.0985    2.7421 O   0  0  0  0  0  0  0  0  0  0  0  0
  -31.5270   31.1146    2.0310 C   0  0  0  0  0  0  0  0  0  0  0  0
  -30.5196   29.9913    1.8794 C   0  0  0  0  0  0  0  0  0  0  0  0
  -31.1740   29.0957    0.8580 C   0  0  0  0  0  0  0  0  0  0  0  0
  -30.6405   27.9176    0.3513 C   0  0  0  0  0  0  0  0  0  0  0  0
  -31.3766   27.2097   -0.5979 C   0  0  0  0  0  0  0  0  0  0  0  0
  -32.6239   27.6826   -1.0281 C   0  0  0  0  0  0  0  0  0  0  0  0
  -33.1562   28.8701   -0.5147 C   0  0  0  0  0  0  0  0  0  0  0  0
  -32.4308   29.5748    0.4339 C   0  0  0  0  0  0  0  0  0  0  0  0
  -32.7125   30.8244    1.1492 C   0  0  0  0  0  0  0  0  0  0  0  0
  -33.7587   31.6640    1.1565 C   0  0  0  0  0  0  0  0  0  0  0  0
  -34.6932   33.7488   -0.7428 C   0  0  0  0  0  0  0  0  0  0  0  0
  -33.8453   33.9387   -1.5926 O   0  0  0  0  0  0  0  0  0  0  0  0
  -35.0065   34.6768    0.1788 O   0  0  0  0  0  0  0  0  0  0  0  0
  -35.6657   34.4966    0.8198 H   0  0  0  0  0  0  0  0  0  0  0  0
 10 11  2  0
 11 12  1  0
 12 13  1  0
 13 14  2  0
 14 15  1  0
 15 16  2  0
 16 17  1  0
 17 18  2  0
 18 19  1  0
 19 20  2  0
 20  1  1  0
  1  2  2  0
  2  3  1  0
  3  4  2  0
  4  5  1  0
  5  6  2  0
  6 21  1  0
 21 22  2  0
 21 23  1  0
  5  7  1  0
  7  8  1  0
  8  9  1  0
 19 11  1  0
  6  1  1  0
 18 13  1  0
  9  4  1  0
 23 24  1  0
M  END
> <minimizedAffinity>
-8.11301

> <CNNscore>
0.6782169342

> <CNNaffinity>
4.4423632622

> <CNN_VS>
3.0128860474

> <CNNaffinity_variance>
0.4897420108

$$$$



 24 27  0  0  0  0  0  0  0  0999 V2000
  -34.5366   31.6923    0.4980 C   0  0  0  0  0  0  0  0  0  0  0  0
  -33.8177   30.6824    1.1762 C   0  0  0  0  0  0  0  0  0  0  0  0
  -32.6714   30.9891    1.9148 C   0  0  0  0  0  0  0  0  0  0  0  0
  -32.2701   32.3072    1.9633 C   0  0  0  0  0  0  0  0  0  0  0  0
  -32.9561   33.3068    1.3119 C   0  0  0  0  0  0  0  0  0  0  0  0
  -34.0896   33.0266    0.5662 C   0  0  0  0  0  0  0  0  0  0  0  0
  -32.3893   34.5277    1.5254 O   0  0  0  0  0  0  0  0  0  0  0  0
  -31.2661   34.1799    2.3577 C   0  0  0  0  0  0  0  0  0  0  0  0
  -31.1880   32.7703    2.6448 O   0  0  0  0  0  0  0  0  0  0  0  0
  -38.1232   30.6228   -1.7076 O   0  0  0  0  0  0  0  0  0  0  0  0
  -37.1569   29.8767   -1.6801 C   0  0  0  0  0  0  0  0  0  0  0  0
  -37.0540   28.5375   -2.3840 C   0  0  0  0  0  0  0  0  0  0  0  0
  -35.6913   28.0470   -1.9644 C   0  0  0  0  0  0  0  0  0  0  0  0
  -35.1159   26.8372   -2.3310 C   0  0  0  0  0  0  0  0  0  0  0  0
  -33.8443   26.5329   -1.8469 C   0  0  0  0  0  0  0  0  0  0  0  0
  -33.1690   27.4302   -1.0084 C   0  0  0  0  0  0  0  0  0  0  0  0
  -33.7535   28.6473   -0.6419 C   0  0  0  0  0  0  0  0  0  0  0  0
  -35.0155   28.9573   -1.1255 C   0  0  0  0  0  0  0  0  0  0  0  0
  -35.8762   30.1292   -0.9296 C   0  0  0  0  0  0  0  0  0  0  0  0
  -35.7194   31.2846   -0.2663 C   0  0  0  0  0  0  0  0  0  0  0  0
  -34.8097   34.1091   -0.1183 C   0  0  0  0  0  0  0  0  0  0  0  0
  -35.7118   34.7823    0.3401 O   0  0  0  0  0  0  0  0  0  0  0  0
  -34.3900   34.2407   -1.3891 O   0  0  0  0  0  0  0  0  0  0  0  0
  -33.6914   33.7048   -1.7097 H   0  0  0  0  0  0  0  0  0  0  0  0
 10 11  2  0
 11 12  1  0
 12 13  1  0
 13 14  2  0
 14 15  1  0
 15 16  2  0
 16 17  1  0
 17 18  2  0
 18 19  1  0
 19 20  2  0
 20  1  1  0
  1  2  2  0
  2  3  1  0
  3  4  2  0
  4  5  1  0
  5  6  2  0
  6 21  1  0
 21 22  2  0
 21 23  1  0
  5  7  1  0
  7  8  1  0
  8  9  1  0
 19 11  1  0
  6  1  1  0
 18 13  1  0
  9  4  1  0
 23 24  1  0
M  END
> <minimizedAffinity>
-7.60540

> <CNNscore>
0.6515392661

> <CNNaffinity>
4.4125027657

> <CNN_VS>
2.8749186993

> <CNNaffinity_variance>
0.2039948702

$$$$



 24 27  0  0  0  0  0  0  0  0999 V2000
  -38.5247   24.1335   -2.5820 C   0  0  0  0  0  0  0  0  0  0  0  0
  -38.0403   22.8521   -2.2353 C   0  0  0  0  0  0  0  0  0  0  0  0
  -38.2343   22.3337   -0.9518 C   0  0  0  0  0  0  0  0  0  0  0  0
  -38.9169   23.1103   -0.0400 C   0  0  0  0  0  0  0  0  0  0  0  0
  -39.3988   24.3600   -0.3567 C   0  0  0  0  0  0  0  0  0  0  0  0
  -39.2112   24.8992   -1.6190 C   0  0  0  0  0  0  0  0  0  0  0  0
  -40.0599   24.9251    0.6926 O   0  0  0  0  0  0  0  0  0  0  0  0
  -39.9183   23.9070    1.7017 C   0  0  0  0  0  0  0  0  0  0  0  0
  -39.1977   22.7478    1.2405 O   0  0  0  0  0  0  0  0  0  0  0  0
  -37.8902   25.4480   -6.6736 O   0  0  0  0  0  0  0  0  0  0  0  0
  -37.1189   25.7706   -5.7835 C   0  0  0  0  0  0  0  0  0  0  0  0
  -35.8913   26.6448   -5.9515 C   0  0  0  0  0  0  0  0  0  0  0  0
  -35.3050   26.6623   -4.5624 C   0  0  0  0  0  0  0  0  0  0  0  0
  -34.1429   27.3202   -4.1804 C   0  0  0  0  0  0  0  0  0  0  0  0
  -33.7343   27.2280   -2.8505 C   0  0  0  0  0  0  0  0  0  0  0  0
  -34.4819   26.4851   -1.9266 C   0  0  0  0  0  0  0  0  0  0  0  0
  -35.6513   25.8239   -2.3171 C   0  0  0  0  0  0  0  0  0  0  0  0
  -36.0653   25.9174   -3.6371 C   0  0  0  0  0  0  0  0  0  0  0  0
  -37.2227   25.3534   -4.3404 C   0  0  0  0  0  0  0  0  0  0  0  0
  -38.2664   24.6094   -3.9444 C   0  0  0  0  0  0  0  0  0  0  0  0
  -39.7372   26.2335   -1.9379 C   0  0  0  0  0  0  0  0  0  0  0  0
  -40.7999   26.4850   -2.4713 O   0  0  0  0  0  0  0  0  0  0  0  0
  -38.8484   27.1918   -1.6212 O   0  0  0  0  0  0  0  0  0  0  0  0
  -38.0382   26.9620   -1.2103 H   0  0  0  0  0  0  0  0  0  0  0  0
 10 11  2  0
 11 12  1  0
 12 13  1  0
 13 14  2  0
 14 15  1  0
 15 16  2  0
 16 17  1  0
 17 18  2  0
 18 19  1  0
 19 20  2  0
 20  1  1  0
  1  2  2  0
  2  3  1  0
  3  4  2  0
  4  5  1  0
  5  6  2  0
  6 21  1  0
 21 22  2  0
 21 23  1  0
  5  7  1  0
  7  8  1  0
  8  9  1  0
 19 11  1  0
  6  1  1  0
 18 13  1  0
  9  4  1  0
 23 24  1  0
M  END
> <minimizedAffinity>
-6.12780

> <CNNscore>
0.6165047884

> <CNNaffinity>
3.7993233204

> <CNN_VS>
2.3423011303

> <CNNaffinity_variance>
0.6064681411

$$$$



 24 27  0  0  0  0  0  0  0  0999 V2000
  -35.1140   29.7997    0.3345 C   0  0  0  0  0  0  0  0  0  0  0  0
  -34.4152   28.6525    0.7731 C   0  0  0  0  0  0  0  0  0  0  0  0
  -33.1544   28.7622    1.3662 C   0  0  0  0  0  0  0  0  0  0  0  0
  -32.6195   30.0243    1.5133 C   0  0  0  0  0  0  0  0  0  0  0  0
  -33.2832   31.1551    1.0950 C   0  0  0  0  0  0  0  0  0  0  0  0
  -34.5297   31.0716    0.4962 C   0  0  0  0  0  0  0  0  0  0  0  0
  -32.5726   32.2856    1.3680 O   0  0  0  0  0  0  0  0  0  0  0  0
  -31.3877   31.7384    1.9778 C   0  0  0  0  0  0  0  0  0  0  0  0
  -31.4138   30.3015    2.0787 O   0  0  0  0  0  0  0  0  0  0  0  0
  -39.0706   29.2604   -1.3761 O   0  0  0  0  0  0  0  0  0  0  0  0
  -38.0741   28.8662   -1.9616 C   0  0  0  0  0  0  0  0  0  0  0  0
  -38.0574   28.1758   -3.3117 C   0  0  0  0  0  0  0  0  0  0  0  0
  -36.5935   27.8741   -3.5108 C   0  0  0  0  0  0  0  0  0  0  0  0
  -36.0412   27.2205   -4.6049 C   0  0  0  0  0  0  0  0  0  0  0  0
  -34.6624   27.0144   -4.6288 C   0  0  0  0  0  0  0  0  0  0  0  0
  -33.8588   27.4568   -3.5692 C   0  0  0  0  0  0  0  0  0  0  0  0
  -34.4204   28.1141   -2.4694 C   0  0  0  0  0  0  0  0  0  0  0  0
  -35.7904   28.3268   -2.4436 C   0  0  0  0  0  0  0  0  0  0  0  0
  -36.6603   28.9733   -1.4547 C   0  0  0  0  0  0  0  0  0  0  0  0
  -36.4245   29.5968   -0.2906 C   0  0  0  0  0  0  0  0  0  0  0  0
  -35.2232   32.2914    0.0604 C   0  0  0  0  0  0  0  0  0  0  0  0
  -36.1831   32.8097    0.5961 O   0  0  0  0  0  0  0  0  0  0  0  0
  -34.6997   32.7617   -1.0856 O   0  0  0  0  0  0  0  0  0  0  0  0
  -33.9588   32.3371   -1.4712 H   0  0  0  0  0  0  0  0  0  0  0  0
 10 11  2  0
 11 12  1  0
 12 13  1  0
 13 14  2  0
 14 15  1  0
 15 16  2  0
 16 17  1  0
 17 18  2  0
 18 19  1  0
 19 20  2  0
 20  1  1  0
  1  2  2  0
  2  3  1  0
  3  4  2  0
  4  5  1  0
  5  6  2  0
  6 21  1  0
 21 22  2  0
 21 23  1  0
  5  7  1  0
  7  8  1  0
  8  9  1  0
 19 11  1  0
  6  1  1  0
 18 13  1  0
  9  4  1  0
 23 24  1  0
M  END
> <minimizedAffinity>
-6.66438

> <CNNscore>
0.5533616543

> <CNNaffinity>
4.5037636757

> <CNN_VS>
2.4922101498

> <CNNaffinity_variance>
0.0605000369

$$$$



 24 27  0  0  0  0  0  0  0  0999 V2000
  -35.7860   29.9617   -0.5797 C   0  0  0  0  0  0  0  0  0  0  0  0
  -35.1857   29.4980   -1.7719 C   0  0  0  0  0  0  0  0  0  0  0  0
  -35.8948   28.6919   -2.6670 C   0  0  0  0  0  0  0  0  0  0  0  0
  -37.1976   28.3701   -2.3508 C   0  0  0  0  0  0  0  0  0  0  0  0
  -37.8023   28.8122   -1.1962 C   0  0  0  0  0  0  0  0  0  0  0  0
  -37.1176   29.6045   -0.2892 C   0  0  0  0  0  0  0  0  0  0  0  0
  -39.0956   28.3905   -1.1124 O   0  0  0  0  0  0  0  0  0  0  0  0
  -39.2245   27.6206   -2.3231 C   0  0  0  0  0  0  0  0  0  0  0  0
  -38.0230   27.6086   -3.1180 O   0  0  0  0  0  0  0  0  0  0  0  0
  -33.4864   32.5367    2.0572 O   0  0  0  0  0  0  0  0  0  0  0  0
  -33.0228   31.4846    1.6455 C   0  0  0  0  0  0  0  0  0  0  0  0
  -31.6512   30.9319    1.9811 C   0  0  0  0  0  0  0  0  0  0  0  0
  -31.5984   29.6624    1.1691 C   0  0  0  0  0  0  0  0  0  0  0  0
  -30.5268   28.7807    1.1104 C   0  0  0  0  0  0  0  0  0  0  0  0
  -30.6396   27.6515    0.3002 C   0  0  0  0  0  0  0  0  0  0  0  0
  -31.8087   27.4190   -0.4369 C   0  0  0  0  0  0  0  0  0  0  0  0
  -32.8849   28.3108   -0.3745 C   0  0  0  0  0  0  0  0  0  0  0  0
  -32.7800   29.4322    0.4343 C   0  0  0  0  0  0  0  0  0  0  0  0
  -33.7143   30.5294    0.7092 C   0  0  0  0  0  0  0  0  0  0  0  0
  -34.9689   30.7901    0.3122 C   0  0  0  0  0  0  0  0  0  0  0  0
  -37.7829   30.0693    0.9355 C   0  0  0  0  0  0  0  0  0  0  0  0
  -37.8451   31.2150    1.3362 O   0  0  0  0  0  0  0  0  0  0  0  0
  -38.2852   29.0360    1.6346 O   0  0  0  0  0  0  0  0  0  0  0  0
  -38.2197   28.1650    1.2954 H   0  0  0  0  0  0  0  0  0  0  0  0
 10 11  2  0
 11 12  1  0
 12 13  1  0
 13 14  2  0
 14 15  1  0
 15 16  2  0
 16 17  1  0
 17 18  2  0
 18 19  1  0
 19 20  2  0
 20  1  1  0
  1  2  2  0
  2  3  1  0
  3  4  2  0
  4  5  1  0
  5  6  2  0
  6 21  1  0
 21 22  2  0
 21 23  1  0
  5  7  1  0
  7  8  1  0
  8  9  1  0
 19 11  1  0
  6  1  1  0
 18 13  1  0
  9  4  1  0
 23 24  1  0
M  END
> <minimizedAffinity>
-7.50340

> <CNNscore>
0.5365385413

> <CNNaffinity>
4.4482150078

> <CNN_VS>
2.3866388798

> <CNNaffinity_variance>
0.2952122390

$$$$



 24 27  0  0  0  0  0  0  0  0999 V2000
  -33.4700   29.9990   -0.3251 C   0  0  0  0  0  0  0  0  0  0  0  0
  -32.8528   29.1669    0.6359 C   0  0  0  0  0  0  0  0  0  0  0  0
  -32.2457   29.7093    1.7720 C   0  0  0  0  0  0  0  0  0  0  0  0
  -32.2742   31.0791    1.9256 C   0  0  0  0  0  0  0  0  0  0  0  0
  -32.8712   31.9079    1.0032 C   0  0  0  0  0  0  0  0  0  0  0  0
  -33.4713   31.3951   -0.1352 C   0  0  0  0  0  0  0  0  0  0  0  0
  -32.7978   33.2156    1.3801 O   0  0  0  0  0  0  0  0  0  0  0  0
  -32.0724   33.1155    2.6206 C   0  0  0  0  0  0  0  0  0  0  0  0
  -31.7416   31.7592    2.9762 O   0  0  0  0  0  0  0  0  0  0  0  0
  -35.1019   28.1017   -3.8761 O   0  0  0  0  0  0  0  0  0  0  0  0
  -35.8081   28.3345   -2.9074 C   0  0  0  0  0  0  0  0  0  0  0  0
  -37.2835   28.0043   -2.7897 C   0  0  0  0  0  0  0  0  0  0  0  0
  -37.6381   28.5543   -1.4312 C   0  0  0  0  0  0  0  0  0  0  0  0
  -38.8975   28.5222   -0.8463 C   0  0  0  0  0  0  0  0  0  0  0  0
  -39.0563   29.0850    0.4195 C   0  0  0  0  0  0  0  0  0  0  0  0
  -37.9670   29.6700    1.0795 C   0  0  0  0  0  0  0  0  0  0  0  0
  -36.7008   29.7000    0.4853 C   0  0  0  0  0  0  0  0  0  0  0  0
  -36.5363   29.1364   -0.7708 C   0  0  0  0  0  0  0  0  0  0  0  0
  -35.3600   29.0099   -1.6385 C   0  0  0  0  0  0  0  0  0  0  0  0
  -34.0708   29.3519   -1.4954 C   0  0  0  0  0  0  0  0  0  0  0  0
  -34.1067   32.2970   -1.1055 C   0  0  0  0  0  0  0  0  0  0  0  0
  -35.2425   32.2193   -1.5311 O   0  0  0  0  0  0  0  0  0  0  0  0
  -33.2376   33.2249   -1.5440 O   0  0  0  0  0  0  0  0  0  0  0  0
  -32.3691   33.2560   -1.1937 H   0  0  0  0  0  0  0  0  0  0  0  0
 10 11  2  0
 11 12  1  0
 12 13  1  0
 13 14  2  0
 14 15  1  0
 15 16  2  0
 16 17  1  0
 17 18  2  0
 18 19  1  0
 19 20  2  0
 20  1  1  0
  1  2  2  0
  2  3  1  0
  3  4  2  0
  4  5  1  0
  5  6  2  0
  6 21  1  0
 21 22  2  0
 21 23  1  0
  5  7  1  0
  7  8  1  0
  8  9  1  0
 19 11  1  0
  6  1  1  0
 18 13  1  0
  9  4  1  0
 23 24  1  0
M  END
> <minimizedAffinity>
-6.53583

> <CNNscore>
0.5348291397

> <CNNaffinity>
4.3373332024

> <CNN_VS>
2.3197321892

> <CNNaffinity_variance>
0.1795945913

$$$$



 24 27  0  0  0  0  0  0  0  0999 V2000
  -34.0675   32.6605    0.7536 C   0  0  0  0  0  0  0  0  0  0  0  0
  -35.2841   31.9576    0.9037 C   0  0  0  0  0  0  0  0  0  0  0  0
  -36.4956   32.5229    0.4957 C   0  0  0  0  0  0  0  0  0  0  0  0
  -36.4627   33.7836   -0.0614 C   0  0  0  0  0  0  0  0  0  0  0  0
  -35.2891   34.4852   -0.2186 C   0  0  0  0  0  0  0  0  0  0  0  0
  -34.0771   33.9501    0.1862 C   0  0  0  0  0  0  0  0  0  0  0  0
  -35.5008   35.6927   -0.8140 O   0  0  0  0  0  0  0  0  0  0  0  0
  -36.9306   35.6788   -0.9888 C   0  0  0  0  0  0  0  0  0  0  0  0
  -37.5477   34.4652   -0.5178 O   0  0  0  0  0  0  0  0  0  0  0  0
  -30.3941   30.8583    2.2131 O   0  0  0  0  0  0  0  0  0  0  0  0
  -31.1394   30.2465    1.4637 C   0  0  0  0  0  0  0  0  0  0  0  0
  -30.9213   28.8325    0.9611 C   0  0  0  0  0  0  0  0  0  0  0  0
  -32.1028   28.6199    0.0488 C   0  0  0  0  0  0  0  0  0  0  0  0
  -32.3644   27.4703   -0.6857 C   0  0  0  0  0  0  0  0  0  0  0  0
  -33.5029   27.4409   -1.4900 C   0  0  0  0  0  0  0  0  0  0  0  0
  -34.3579   28.5497   -1.5532 C   0  0  0  0  0  0  0  0  0  0  0  0
  -34.0893   29.7052   -0.8116 C   0  0  0  0  0  0  0  0  0  0  0  0
  -32.9615   29.7373   -0.0057 C   0  0  0  0  0  0  0  0  0  0  0  0
  -32.4194   30.7778    0.8753 C   0  0  0  0  0  0  0  0  0  0  0  0
  -32.8433   32.0029    1.2206 C   0  0  0  0  0  0  0  0  0  0  0  0
  -32.8352   34.7141    0.0057 C   0  0  0  0  0  0  0  0  0  0  0  0
  -32.1556   35.2102    0.8828 O   0  0  0  0  0  0  0  0  0  0  0  0
  -32.5490   34.8702   -1.2990 O   0  0  0  0  0  0  0  0  0  0  0  0
  -33.0949   34.4734   -1.9491 H   0  0  0  0  0  0  0  0  0  0  0  0
 10 11  2  0
 11 12  1  0
 12 13  1  0
 13 14  2  0
 14 15  1  0
 15 16  2  0
 16 17  1  0
 17 18  2  0
 18 19  1  0
 19 20  2  0
 20  1  1  0
  1  2  2  0
  2  3  1  0
  3  4  2  0
  4  5  1  0
  5  6  2  0
  6 21  1  0
 21 22  2  0
 21 23  1  0
  5  7  1  0
  7  8  1  0
  8  9  1  0
 19 11  1  0
  6  1  1  0
 18 13  1  0
  9  4  1  0
 23 24  1  0
M  END
> <minimizedAffinity>
-8.48227

> <CNNscore>
0.5217520595

> <CNNaffinity>
4.3600578308

> <CNN_VS>
2.2748692036

> <CNNaffinity_variance>
0.5558354855

$$$$



 24 27  0  0  0  0  0  0  0  0999 V2000
  -38.5096   24.0284   -1.2668 C   0  0  0  0  0  0  0  0  0  0  0  0
  -37.8326   22.8648   -0.8375 C   0  0  0  0  0  0  0  0  0  0  0  0
  -38.1996   22.2146    0.3441 C   0  0  0  0  0  0  0  0  0  0  0  0
  -39.2452   22.7424    1.0715 C   0  0  0  0  0  0  0  0  0  0  0  0
  -39.9195   23.8734    0.6711 C   0  0  0  0  0  0  0  0  0  0  0  0
  -39.5684   24.5407   -0.4911 C   0  0  0  0  0  0  0  0  0  0  0  0
  -40.9275   24.1895    1.5322 O   0  0  0  0  0  0  0  0  0  0  0  0
  -40.7943   23.1513    2.5219 C   0  0  0  0  0  0  0  0  0  0  0  0
  -39.7303   22.2243    2.2318 O   0  0  0  0  0  0  0  0  0  0  0  0
  -37.1525   26.0450   -4.8673 O   0  0  0  0  0  0  0  0  0  0  0  0
  -37.4617   24.8638   -4.8875 C   0  0  0  0  0  0  0  0  0  0  0  0
  -37.4112   23.9578   -6.1025 C   0  0  0  0  0  0  0  0  0  0  0  0
  -37.9435   22.6535   -5.5648 C   0  0  0  0  0  0  0  0  0  0  0  0
  -38.1188   21.4855   -6.2958 C   0  0  0  0  0  0  0  0  0  0  0  0
  -38.6316   20.3647   -5.6439 C   0  0  0  0  0  0  0  0  0  0  0  0
  -38.9626   20.4229   -4.2832 C   0  0  0  0  0  0  0  0  0  0  0  0
  -38.7845   21.6021   -3.5518 C   0  0  0  0  0  0  0  0  0  0  0  0
  -38.2693   22.7178   -4.1941 C   0  0  0  0  0  0  0  0  0  0  0  0
  -37.9697   24.0709   -3.7126 C   0  0  0  0  0  0  0  0  0  0  0  0
  -38.0530   24.6582   -2.5094 C   0  0  0  0  0  0  0  0  0  0  0  0
  -40.3039   25.7441   -0.9028 C   0  0  0  0  0  0  0  0  0  0  0  0
  -41.2456   25.7909   -1.6697 O   0  0  0  0  0  0  0  0  0  0  0  0
  -39.7589   26.8506   -0.3668 O   0  0  0  0  0  0  0  0  0  0  0  0
  -39.0331   26.7776    0.2213 H   0  0  0  0  0  0  0  0  0  0  0  0
 10 11  2  0
 11 12  1  0
 12 13  1  0
 13 14  2  0
 14 15  1  0
 15 16  2  0
 16 17  1  0
 17 18  2  0
 18 19  1  0
 19 20  2  0
 20  1  1  0
  1  2  2  0
  2  3  1  0
  3  4  2  0
  4  5  1  0
  5  6  2  0
  6 21  1  0
 21 22  2  0
 21 23  1  0
  5  7  1  0
  7  8  1  0
  8  9  1  0
 19 11  1  0
  6  1  1  0
 18 13  1  0
  9  4  1  0
 23 24  1  0
M  END
> <minimizedAffinity>
-5.55520

> <CNNscore>
0.5030782223

> <CNNaffinity>
3.4983613491

> <CNN_VS>
1.7599494457

> <CNNaffinity_variance>
0.5846803784

$$$$
