


 29 30  0  0  0  0  0  0  0  0999 V2000
    7.2778   32.2371   74.1559 C   0  0  0  0  0  0  0  0  0  0  0  0
    7.8302   31.6582   75.2982 C   0  0  0  0  0  0  0  0  0  0  0  0
    9.3715   30.9693   74.9696 S   0  0  0  0  0  0  0  0  0  0  0  0
    9.2719   31.3136   73.3080 C   0  0  0  0  0  0  0  0  0  0  0  0
    8.0997   31.9656   73.0057 C   0  0  0  0  0  0  0  0  0  0  0  0
    7.6434   32.5343   71.2471 Br  0  0  0  0  0  0  0  0  0  0  0  0
    7.2578   31.5594   76.6270 C   0  0  0  0  0  0  0  0  0  0  0  0
    7.0429   32.4650   77.4189 O   0  0  0  0  0  0  0  0  0  0  0  0
    6.9557   30.2928   76.9937 O   0  0  0  0  0  0  0  0  0  0  0  0
    7.1125   29.5837   76.4016 H   0  0  0  0  0  0  0  0  0  0  0  0
    6.0121   32.8527   74.1170 N   0  0  0  0  0  0  0  0  0  0  0  0
    5.7743   34.2255   74.3127 C   0  0  0  0  0  0  0  0  0  0  0  0
    4.6901   34.6674   74.7213 O   0  0  0  0  0  0  0  0  0  0  0  0
    6.8301   35.2625   73.8772 C   0  0  0  0  0  0  0  0  0  0  0  0
    6.3180   36.6354   73.4509 C   0  0  0  0  0  0  0  0  0  0  0  0
    7.4389   37.4585   72.8103 C   0  0  0  0  0  0  0  0  0  0  0  0
    8.6486   37.5891   73.7487 C   0  0  0  0  0  0  0  0  0  0  0  0
    9.7750   38.3663   73.0704 C   0  0  0  0  0  0  0  0  0  0  0  0
    9.1442   36.2104   74.2116 C   0  0  0  0  0  0  0  0  0  0  0  0
    8.0172   35.3868   74.8382 C   0  0  0  0  0  0  0  0  0  0  0  0
    5.3141   30.5876   73.6310 C   0  0  0  0  0  0  0  0  0  0  0  0
    4.9191   31.9154   74.1074 N   0  0  0  0  0  0  0  0  0  0  0  0
    4.2303   31.8207   75.3970 C   0  0  0  0  0  0  0  0  0  0  0  0
   10.3036   30.9500   72.3917 C   0  0  0  0  0  0  0  0  0  0  0  0
   11.1761   30.6403   71.6264 C   0  0  0  0  0  0  0  0  0  0  0  0
   12.2563   30.2558   70.6914 C   0  0  0  0  0  0  0  0  0  0  0  0
   11.8832   30.7009   69.2706 C   0  0  0  0  0  0  0  0  0  0  0  0
   12.4364   28.7316   70.7226 C   0  0  0  0  0  0  0  0  0  0  0  0
   13.5646   30.9368   71.1170 C   0  0  0  0  0  0  0  0  0  0  0  0
 21 22  1  0
 22 23  1  0
 22 11  1  0
 11  1  1  0
  1  2  2  0
  2  7  1  0
  7  8  2  0
  7  9  1  0
  2  3  1  0
  3  4  1  0
  4 24  1  0
 24 25  3  0
 25 26  1  0
 26 27  1  0
 26 28  1  0
 26 29  1  0
  4  5  2  0
  5  6  1  0
 11 12  1  0
 12 13  2  0
 14 12  1  0
 14 15  1  0
 15 16  1  0
 16 17  1  0
 17 18  1  0
 17 19  1  0
 19 20  1  0
  5  1  1  0
 20 14  1  0
  9 10  1  0
M  END
> <minimizedAffinity>
-5.77963

> <CNNscore>
0.7399099469

> <CNNaffinity>
6.5474281311

> <CNN_VS>
4.8445072174

> <CNNaffinity_variance>
0.1739497781

$$$$



 29 30  0  0  0  0  0  0  0  0999 V2000
    7.5910   35.4199   74.7693 C   0  0  0  0  0  0  0  0  0  0  0  0
    6.6715   34.3715   74.7892 C   0  0  0  0  0  0  0  0  0  0  0  0
    7.3289   32.9471   74.0842 S   0  0  0  0  0  0  0  0  0  0  0  0
    8.7725   33.7254   73.6376 C   0  0  0  0  0  0  0  0  0  0  0  0
    8.7720   35.0405   74.0389 C   0  0  0  0  0  0  0  0  0  0  0  0
   10.2298   36.2266   73.7353 Br  0  0  0  0  0  0  0  0  0  0  0  0
    5.3066   34.3772   75.2795 C   0  0  0  0  0  0  0  0  0  0  0  0
    4.8941   34.8206   76.3409 O   0  0  0  0  0  0  0  0  0  0  0  0
    4.4245   33.7992   74.4322 O   0  0  0  0  0  0  0  0  0  0  0  0
    4.7198   33.4527   73.6132 H   0  0  0  0  0  0  0  0  0  0  0  0
    7.3219   36.7144   75.2534 N   0  0  0  0  0  0  0  0  0  0  0  0
    7.2113   37.0627   76.6121 C   0  0  0  0  0  0  0  0  0  0  0  0
    6.5519   38.0371   77.0037 O   0  0  0  0  0  0  0  0  0  0  0  0
    8.0444   36.3134   77.6724 C   0  0  0  0  0  0  0  0  0  0  0  0
    9.5514   36.5538   77.6663 C   0  0  0  0  0  0  0  0  0  0  0  0
   10.2635   35.5620   78.5900 C   0  0  0  0  0  0  0  0  0  0  0  0
    9.7023   35.6207   80.0192 C   0  0  0  0  0  0  0  0  0  0  0  0
   10.3882   34.5867   80.9100 C   0  0  0  0  0  0  0  0  0  0  0  0
    8.1794   35.4174   80.0270 C   0  0  0  0  0  0  0  0  0  0  0  0
    7.4740   36.4018   79.0919 C   0  0  0  0  0  0  0  0  0  0  0  0
    7.9080   38.6782   73.9674 C   0  0  0  0  0  0  0  0  0  0  0  0
    6.9113   37.6363   74.2265 N   0  0  0  0  0  0  0  0  0  0  0  0
    6.5176   36.9732   72.9809 C   0  0  0  0  0  0  0  0  0  0  0  0
    9.8170   33.0499   72.9385 C   0  0  0  0  0  0  0  0  0  0  0  0
   10.6991   32.4784   72.3569 C   0  0  0  0  0  0  0  0  0  0  0  0
   11.7900   31.7724   71.6493 C   0  0  0  0  0  0  0  0  0  0  0  0
   12.3736   32.6908   70.5668 C   0  0  0  0  0  0  0  0  0  0  0  0
   11.2322   30.4990   70.9981 C   0  0  0  0  0  0  0  0  0  0  0  0
   12.8891   31.3973   72.6532 C   0  0  0  0  0  0  0  0  0  0  0  0
 21 22  1  0
 22 23  1  0
 22 11  1  0
 11  1  1  0
  1  2  2  0
  2  7  1  0
  7  8  2  0
  7  9  1  0
  2  3  1  0
  3  4  1  0
  4 24  1  0
 24 25  3  0
 25 26  1  0
 26 27  1  0
 26 28  1  0
 26 29  1  0
  4  5  2  0
  5  6  1  0
 11 12  1  0
 12 13  2  0
 14 12  1  0
 14 15  1  0
 15 16  1  0
 16 17  1  0
 17 18  1  0
 17 19  1  0
 19 20  1  0
  5  1  1  0
 20 14  1  0
  9 10  1  0
M  END
> <minimizedAffinity>
-6.11423

> <CNNscore>
0.7039734721

> <CNNaffinity>
6.8559088707

> <CNN_VS>
4.8263778687

> <CNNaffinity_variance>
0.1727250814

$$$$



 29 30  0  0  0  0  0  0  0  0999 V2000
    7.5986   31.4705   73.7633 C   0  0  0  0  0  0  0  0  0  0  0  0
    7.0271   32.0695   72.6410 C   0  0  0  0  0  0  0  0  0  0  0  0
    8.1407   32.1404   71.3322 S   0  0  0  0  0  0  0  0  0  0  0  0
    9.4130   31.5024   72.2616 C   0  0  0  0  0  0  0  0  0  0  0  0
    8.9972   31.2132   73.5398 C   0  0  0  0  0  0  0  0  0  0  0  0
   10.1386   30.4621   74.8655 Br  0  0  0  0  0  0  0  0  0  0  0  0
    5.6960   32.6263   72.4943 C   0  0  0  0  0  0  0  0  0  0  0  0
    4.6883   32.0622   72.0946 O   0  0  0  0  0  0  0  0  0  0  0  0
    5.6140   33.9316   72.8399 O   0  0  0  0  0  0  0  0  0  0  0  0
    6.3747   34.3831   73.1488 H   0  0  0  0  0  0  0  0  0  0  0  0
    6.9325   31.3008   74.9921 N   0  0  0  0  0  0  0  0  0  0  0  0
    7.0750   32.1406   76.1119 C   0  0  0  0  0  0  0  0  0  0  0  0
    6.8687   31.7535   77.2717 O   0  0  0  0  0  0  0  0  0  0  0  0
    7.3578   33.6447   75.9189 C   0  0  0  0  0  0  0  0  0  0  0  0
    6.2190   34.6099   76.2353 C   0  0  0  0  0  0  0  0  0  0  0  0
    6.5574   36.0247   75.7577 C   0  0  0  0  0  0  0  0  0  0  0  0
    7.8820   36.5202   76.3584 C   0  0  0  0  0  0  0  0  0  0  0  0
    8.2279   37.9098   75.8271 C   0  0  0  0  0  0  0  0  0  0  0  0
    9.0243   35.5324   76.0754 C   0  0  0  0  0  0  0  0  0  0  0  0
    8.6755   34.1176   76.5419 C   0  0  0  0  0  0  0  0  0  0  0  0
    4.8043   30.1562   75.1126 C   0  0  0  0  0  0  0  0  0  0  0  0
    6.2639   30.0311   75.1108 N   0  0  0  0  0  0  0  0  0  0  0  0
    6.7001   29.0545   74.1096 C   0  0  0  0  0  0  0  0  0  0  0  0
   10.7234   31.3122   71.7299 C   0  0  0  0  0  0  0  0  0  0  0  0
   11.8296   31.1570   71.2881 C   0  0  0  0  0  0  0  0  0  0  0  0
   13.1954   30.9730   70.7498 C   0  0  0  0  0  0  0  0  0  0  0  0
   14.1411   31.9924   71.3999 C   0  0  0  0  0  0  0  0  0  0  0  0
   13.1753   31.1862   69.2297 C   0  0  0  0  0  0  0  0  0  0  0  0
   13.6788   29.5501   71.0631 C   0  0  0  0  0  0  0  0  0  0  0  0
 21 22  1  0
 22 23  1  0
 22 11  1  0
 11  1  1  0
  1  2  2  0
  2  7  1  0
  7  8  2  0
  7  9  1  0
  2  3  1  0
  3  4  1  0
  4 24  1  0
 24 25  3  0
 25 26  1  0
 26 27  1  0
 26 28  1  0
 26 29  1  0
  4  5  2  0
  5  6  1  0
 11 12  1  0
 12 13  2  0
 14 12  1  0
 14 15  1  0
 15 16  1  0
 16 17  1  0
 17 18  1  0
 17 19  1  0
 19 20  1  0
  5  1  1  0
 20 14  1  0
  9 10  1  0
M  END
> <minimizedAffinity>
-5.18407

> <CNNscore>
0.6262367964

> <CNNaffinity>
6.0485076904

> <CNN_VS>
3.7877981663

> <CNNaffinity_variance>
0.0225874316

$$$$



 29 30  0  0  0  0  0  0  0  0999 V2000
    6.9313   33.0021   74.9651 C   0  0  0  0  0  0  0  0  0  0  0  0
    6.6856   32.7018   73.6255 C   0  0  0  0  0  0  0  0  0  0  0  0
    7.8011   31.5363   73.0292 S   0  0  0  0  0  0  0  0  0  0  0  0
    8.6871   31.5091   74.4796 C   0  0  0  0  0  0  0  0  0  0  0  0
    8.1333   32.3506   75.4153 C   0  0  0  0  0  0  0  0  0  0  0  0
    8.8368   32.5696   77.1707 Br  0  0  0  0  0  0  0  0  0  0  0  0
    5.6778   33.2609   72.7452 C   0  0  0  0  0  0  0  0  0  0  0  0
    5.3219   34.4268   72.6595 O   0  0  0  0  0  0  0  0  0  0  0  0
    5.0789   32.3409   71.9546 O   0  0  0  0  0  0  0  0  0  0  0  0
    5.3367   31.4414   72.0043 H   0  0  0  0  0  0  0  0  0  0  0  0
    6.1945   33.9423   75.7105 N   0  0  0  0  0  0  0  0  0  0  0  0
    6.6034   35.2618   75.9777 C   0  0  0  0  0  0  0  0  0  0  0  0
    6.2062   35.9011   76.9632 O   0  0  0  0  0  0  0  0  0  0  0  0
    7.4656   36.0263   74.9521 C   0  0  0  0  0  0  0  0  0  0  0  0
    6.8141   37.2121   74.2463 C   0  0  0  0  0  0  0  0  0  0  0  0
    7.6887   37.7033   73.0896 C   0  0  0  0  0  0  0  0  0  0  0  0
    9.1061   38.0570   73.5660 C   0  0  0  0  0  0  0  0  0  0  0  0
    9.9770   38.4922   72.3891 C   0  0  0  0  0  0  0  0  0  0  0  0
    9.7520   36.8788   74.3112 C   0  0  0  0  0  0  0  0  0  0  0  0
    8.8677   36.3830   75.4571 C   0  0  0  0  0  0  0  0  0  0  0  0
    5.2482   33.3768   77.8643 C   0  0  0  0  0  0  0  0  0  0  0  0
    5.0743   33.3683   76.4097 N   0  0  0  0  0  0  0  0  0  0  0  0
    3.7921   33.9709   76.0366 C   0  0  0  0  0  0  0  0  0  0  0  0
    9.8479   30.6964   74.6477 C   0  0  0  0  0  0  0  0  0  0  0  0
   10.8226   30.0075   74.7832 C   0  0  0  0  0  0  0  0  0  0  0  0
   12.0191   29.1523   74.9439 C   0  0  0  0  0  0  0  0  0  0  0  0
   13.1791   29.7400   74.1284 C   0  0  0  0  0  0  0  0  0  0  0  0
   11.7026   27.7365   74.4420 C   0  0  0  0  0  0  0  0  0  0  0  0
   12.4096   29.0965   76.4274 C   0  0  0  0  0  0  0  0  0  0  0  0
 21 22  1  0
 22 23  1  0
 22 11  1  0
 11  1  1  0
  1  2  2  0
  2  7  1  0
  7  8  2  0
  7  9  1  0
  2  3  1  0
  3  4  1  0
  4 24  1  0
 24 25  3  0
 25 26  1  0
 26 27  1  0
 26 28  1  0
 26 29  1  0
  4  5  2  0
  5  6  1  0
 11 12  1  0
 12 13  2  0
 14 12  1  0
 14 15  1  0
 15 16  1  0
 16 17  1  0
 17 18  1  0
 17 19  1  0
 19 20  1  0
  5  1  1  0
 20 14  1  0
  9 10  1  0
M  END
> <minimizedAffinity>
-5.69337

> <CNNscore>
0.5411784649

> <CNNaffinity>
6.0132546425

> <CNN_VS>
3.2542438507

> <CNNaffinity_variance>
0.0301166382

$$$$



 29 30  0  0  0  0  0  0  0  0999 V2000
    6.7538   33.9623   76.6307 C   0  0  0  0  0  0  0  0  0  0  0  0
    6.1164   33.4382   75.5064 C   0  0  0  0  0  0  0  0  0  0  0  0
    6.8809   31.9947   74.9678 S   0  0  0  0  0  0  0  0  0  0  0  0
    8.1216   32.1130   76.1237 C   0  0  0  0  0  0  0  0  0  0  0  0
    7.9485   33.2157   76.9265 C   0  0  0  0  0  0  0  0  0  0  0  0
    9.1276   33.6668   78.3514 Br  0  0  0  0  0  0  0  0  0  0  0  0
    4.9782   33.9718   74.7832 C   0  0  0  0  0  0  0  0  0  0  0  0
    3.8017   33.9431   75.1122 O   0  0  0  0  0  0  0  0  0  0  0  0
    5.3074   34.5471   73.6038 O   0  0  0  0  0  0  0  0  0  0  0  0
    6.2036   34.5797   73.3325 H   0  0  0  0  0  0  0  0  0  0  0  0
    6.3654   35.1529   77.2743 N   0  0  0  0  0  0  0  0  0  0  0  0
    7.0274   36.3888   77.1566 C   0  0  0  0  0  0  0  0  0  0  0  0
    6.9727   37.2655   78.0317 O   0  0  0  0  0  0  0  0  0  0  0  0
    7.7407   36.7611   75.8405 C   0  0  0  0  0  0  0  0  0  0  0  0
    7.2707   38.0285   75.1322 C   0  0  0  0  0  0  0  0  0  0  0  0
    7.8828   38.1274   73.7323 C   0  0  0  0  0  0  0  0  0  0  0  0
    9.4171   38.0614   73.7825 C   0  0  0  0  0  0  0  0  0  0  0  0
   10.0045   38.1067   72.3733 C   0  0  0  0  0  0  0  0  0  0  0  0
    9.8952   36.8062   74.5285 C   0  0  0  0  0  0  0  0  0  0  0  0
    9.2699   36.7050   75.9212 C   0  0  0  0  0  0  0  0  0  0  0  0
    5.8998   35.0263   79.6452 C   0  0  0  0  0  0  0  0  0  0  0  0
    5.3594   34.9557   78.2854 N   0  0  0  0  0  0  0  0  0  0  0  0
    4.2096   35.8513   78.1364 C   0  0  0  0  0  0  0  0  0  0  0  0
    9.1806   31.1600   76.2044 C   0  0  0  0  0  0  0  0  0  0  0  0
   10.0686   30.3544   76.2788 C   0  0  0  0  0  0  0  0  0  0  0  0
   11.1589   29.3594   76.3794 C   0  0  0  0  0  0  0  0  0  0  0  0
   10.5567   27.9624   76.5839 C   0  0  0  0  0  0  0  0  0  0  0  0
   12.0592   29.7113   77.5719 C   0  0  0  0  0  0  0  0  0  0  0  0
   11.9868   29.3787   75.0869 C   0  0  0  0  0  0  0  0  0  0  0  0
 21 22  1  0
 22 23  1  0
 22 11  1  0
 11  1  1  0
  1  2  2  0
  2  7  1  0
  7  8  2  0
  7  9  1  0
  2  3  1  0
  3  4  1  0
  4 24  1  0
 24 25  3  0
 25 26  1  0
 26 27  1  0
 26 28  1  0
 26 29  1  0
  4  5  2  0
  5  6  1  0
 11 12  1  0
 12 13  2  0
 14 12  1  0
 14 15  1  0
 15 16  1  0
 16 17  1  0
 17 18  1  0
 17 19  1  0
 19 20  1  0
  5  1  1  0
 20 14  1  0
  9 10  1  0
M  END
> <minimizedAffinity>
-5.27727

> <CNNscore>
0.4358232617

> <CNNaffinity>
5.6759839058

> <CNN_VS>
2.4737257957

> <CNNaffinity_variance>
0.0509707294

$$$$



 29 30  0  0  0  0  0  0  0  0999 V2000
    7.9403   31.2913   74.8100 C   0  0  0  0  0  0  0  0  0  0  0  0
    8.5642   31.4759   76.0435 C   0  0  0  0  0  0  0  0  0  0  0  0
    8.7850   33.1458   76.3912 S   0  0  0  0  0  0  0  0  0  0  0  0
    8.1801   33.6335   74.8793 C   0  0  0  0  0  0  0  0  0  0  0  0
    7.7899   32.5501   74.1280 C   0  0  0  0  0  0  0  0  0  0  0  0
    7.0406   32.7024   72.3846 Br  0  0  0  0  0  0  0  0  0  0  0  0
    9.0387   30.4702   76.9745 C   0  0  0  0  0  0  0  0  0  0  0  0
    8.4434   29.9933   77.9292 O   0  0  0  0  0  0  0  0  0  0  0  0
   10.3006   30.0523   76.7233 O   0  0  0  0  0  0  0  0  0  0  0  0
   10.7750   30.4051   75.9963 H   0  0  0  0  0  0  0  0  0  0  0  0
    7.6554   30.0308   74.2509 N   0  0  0  0  0  0  0  0  0  0  0  0
    8.2380   29.5160   73.0783 C   0  0  0  0  0  0  0  0  0  0  0  0
    7.6808   28.6642   72.3700 O   0  0  0  0  0  0  0  0  0  0  0  0
    9.6857   29.8950   72.7040 C   0  0  0  0  0  0  0  0  0  0  0  0
    9.8771   31.1553   71.8651 C   0  0  0  0  0  0  0  0  0  0  0  0
   11.3195   31.2594   71.3623 C   0  0  0  0  0  0  0  0  0  0  0  0
   12.3254   31.2125   72.5230 C   0  0  0  0  0  0  0  0  0  0  0  0
   13.7582   31.2628   71.9963 C   0  0  0  0  0  0  0  0  0  0  0  0
   12.1117   29.9646   73.3933 C   0  0  0  0  0  0  0  0  0  0  0  0
   10.6655   29.8580   73.8816 C   0  0  0  0  0  0  0  0  0  0  0  0
    6.8691   28.2043   75.6291 C   0  0  0  0  0  0  0  0  0  0  0  0
    6.5112   29.3871   74.8423 N   0  0  0  0  0  0  0  0  0  0  0  0
    5.6782   30.3009   75.6280 C   0  0  0  0  0  0  0  0  0  0  0  0
    8.1087   35.0056   74.4943 C   0  0  0  0  0  0  0  0  0  0  0  0
    8.0535   36.1627   74.1764 C   0  0  0  0  0  0  0  0  0  0  0  0
    7.9899   37.5903   73.7933 C   0  0  0  0  0  0  0  0  0  0  0  0
    9.3429   38.0228   73.2115 C   0  0  0  0  0  0  0  0  0  0  0  0
    7.6695   38.4354   75.0343 C   0  0  0  0  0  0  0  0  0  0  0  0
    6.8905   37.7865   72.7401 C   0  0  0  0  0  0  0  0  0  0  0  0
 21 22  1  0
 22 23  1  0
 22 11  1  0
 11  1  1  0
  1  2  2  0
  2  7  1  0
  7  8  2  0
  7  9  1  0
  2  3  1  0
  3  4  1  0
  4 24  1  0
 24 25  3  0
 25 26  1  0
 26 27  1  0
 26 28  1  0
 26 29  1  0
  4  5  2  0
  5  6  1  0
 11 12  1  0
 12 13  2  0
 14 12  1  0
 14 15  1  0
 15 16  1  0
 16 17  1  0
 17 18  1  0
 17 19  1  0
 19 20  1  0
  5  1  1  0
 20 14  1  0
  9 10  1  0
M  END
> <minimizedAffinity>
-4.66369

> <CNNscore>
0.3263448477

> <CNNaffinity>
5.7504024506

> <CNN_VS>
1.8766142130

> <CNNaffinity_variance>
0.3907132447

$$$$



 29 30  0  0  0  0  0  0  0  0999 V2000
   14.1477   28.8015   72.5206 C   0  0  0  0  0  0  0  0  0  0  0  0
   14.3096   28.7649   73.9053 C   0  0  0  0  0  0  0  0  0  0  0  0
   13.0482   29.6159   74.7071 S   0  0  0  0  0  0  0  0  0  0  0  0
   12.3522   30.1413   73.2480 C   0  0  0  0  0  0  0  0  0  0  0  0
   13.0475   29.6588   72.1644 C   0  0  0  0  0  0  0  0  0  0  0  0
   12.5534   30.0174   70.3613 Br  0  0  0  0  0  0  0  0  0  0  0  0
   15.3769   28.1533   74.6734 C   0  0  0  0  0  0  0  0  0  0  0  0
   15.2878   27.2506   75.4923 O   0  0  0  0  0  0  0  0  0  0  0  0
   16.5949   28.6895   74.4302 O   0  0  0  0  0  0  0  0  0  0  0  0
   16.6856   29.3825   73.8061 H   0  0  0  0  0  0  0  0  0  0  0  0
   15.0423   28.2136   71.6060 N   0  0  0  0  0  0  0  0  0  0  0  0
   15.0998   26.8416   71.2994 C   0  0  0  0  0  0  0  0  0  0  0  0
   16.1279   26.2903   70.8791 O   0  0  0  0  0  0  0  0  0  0  0  0
   13.8164   25.9866   71.3381 C   0  0  0  0  0  0  0  0  0  0  0  0
   12.7240   26.3308   70.3297 C   0  0  0  0  0  0  0  0  0  0  0  0
   11.4297   25.5796   70.6533 C   0  0  0  0  0  0  0  0  0  0  0  0
   11.6606   24.0619   70.7184 C   0  0  0  0  0  0  0  0  0  0  0  0
   10.3704   23.3365   71.0956 C   0  0  0  0  0  0  0  0  0  0  0  0
   12.7862   23.7128   71.7041 C   0  0  0  0  0  0  0  0  0  0  0  0
   14.0730   24.4766   71.3847 C   0  0  0  0  0  0  0  0  0  0  0  0
   16.2347   29.1483   69.7197 C   0  0  0  0  0  0  0  0  0  0  0  0
   16.0899   29.1032   71.1767 N   0  0  0  0  0  0  0  0  0  0  0  0
   15.9599   30.4545   71.7277 C   0  0  0  0  0  0  0  0  0  0  0  0
   11.1939   30.9740   73.2132 C   0  0  0  0  0  0  0  0  0  0  0  0
   10.2216   31.6789   73.1905 C   0  0  0  0  0  0  0  0  0  0  0  0
    9.0264   32.5508   73.1714 C   0  0  0  0  0  0  0  0  0  0  0  0
    9.4579   34.0115   73.3618 C   0  0  0  0  0  0  0  0  0  0  0  0
    8.0806   32.1410   74.3091 C   0  0  0  0  0  0  0  0  0  0  0  0
    8.3063   32.3984   71.8242 C   0  0  0  0  0  0  0  0  0  0  0  0
 21 22  1  0
 22 23  1  0
 22 11  1  0
 11  1  1  0
  1  2  2  0
  2  7  1  0
  7  8  2  0
  7  9  1  0
  2  3  1  0
  3  4  1  0
  4 24  1  0
 24 25  3  0
 25 26  1  0
 26 27  1  0
 26 28  1  0
 26 29  1  0
  4  5  2  0
  5  6  1  0
 11 12  1  0
 12 13  2  0
 14 12  1  0
 14 15  1  0
 15 16  1  0
 16 17  1  0
 17 18  1  0
 17 19  1  0
 19 20  1  0
  5  1  1  0
 20 14  1  0
  9 10  1  0
M  END
> <minimizedAffinity>
-4.46545

> <CNNscore>
0.2634724975

> <CNNaffinity>
5.8180556297

> <CNN_VS>
1.5328975916

> <CNNaffinity_variance>
0.2777143419

$$$$



 29 30  0  0  0  0  0  0  0  0999 V2000
    5.8146   33.6938   76.4186 C   0  0  0  0  0  0  0  0  0  0  0  0
    4.7828   32.9691   75.8227 C   0  0  0  0  0  0  0  0  0  0  0  0
    3.2558   33.7127   76.0944 S   0  0  0  0  0  0  0  0  0  0  0  0
    3.9184   34.9164   77.0951 C   0  0  0  0  0  0  0  0  0  0  0  0
    5.2819   34.7766   77.2035 C   0  0  0  0  0  0  0  0  0  0  0  0
    6.3756   35.9541   78.2240 Br  0  0  0  0  0  0  0  0  0  0  0  0
    4.8645   31.7255   75.0812 C   0  0  0  0  0  0  0  0  0  0  0  0
    4.8532   31.5745   73.8686 O   0  0  0  0  0  0  0  0  0  0  0  0
    4.9471   30.6294   75.8698 O   0  0  0  0  0  0  0  0  0  0  0  0
    4.9572   30.7226   76.8021 H   0  0  0  0  0  0  0  0  0  0  0  0
    7.1690   33.3105   76.3856 N   0  0  0  0  0  0  0  0  0  0  0  0
    8.1136   33.7591   75.4443 C   0  0  0  0  0  0  0  0  0  0  0  0
    9.1236   33.1057   75.1431 O   0  0  0  0  0  0  0  0  0  0  0  0
    7.9979   35.1775   74.8490 C   0  0  0  0  0  0  0  0  0  0  0  0
    9.2690   36.0212   74.8169 C   0  0  0  0  0  0  0  0  0  0  0  0
    8.9493   37.4714   74.4440 C   0  0  0  0  0  0  0  0  0  0  0  0
    8.1980   37.5564   73.1063 C   0  0  0  0  0  0  0  0  0  0  0  0
    7.8412   39.0053   72.7802 C   0  0  0  0  0  0  0  0  0  0  0  0
    6.9374   36.6782   73.1202 C   0  0  0  0  0  0  0  0  0  0  0  0
    7.2604   35.2335   73.5069 C   0  0  0  0  0  0  0  0  0  0  0  0
    8.1955   31.1278   76.5755 C   0  0  0  0  0  0  0  0  0  0  0  0
    7.4730   32.2049   77.2566 N   0  0  0  0  0  0  0  0  0  0  0  0
    8.1744   32.6095   78.4776 C   0  0  0  0  0  0  0  0  0  0  0  0
    3.1142   35.9188   77.7154 C   0  0  0  0  0  0  0  0  0  0  0  0
    2.4341   36.7570   78.2424 C   0  0  0  0  0  0  0  0  0  0  0  0
    1.5914   37.7823   78.8964 C   0  0  0  0  0  0  0  0  0  0  0  0
    1.9710   37.8833   80.3802 C   0  0  0  0  0  0  0  0  0  0  0  0
    0.1147   37.3827   78.7690 C   0  0  0  0  0  0  0  0  0  0  0  0
    1.8178   39.1385   78.2139 C   0  0  0  0  0  0  0  0  0  0  0  0
 21 22  1  0
 22 23  1  0
 22 11  1  0
 11  1  1  0
  1  2  2  0
  2  7  1  0
  7  8  2  0
  7  9  1  0
  2  3  1  0
  3  4  1  0
  4 24  1  0
 24 25  3  0
 25 26  1  0
 26 27  1  0
 26 28  1  0
 26 29  1  0
  4  5  2  0
  5  6  1  0
 11 12  1  0
 12 13  2  0
 14 12  1  0
 14 15  1  0
 15 16  1  0
 16 17  1  0
 17 18  1  0
 17 19  1  0
 19 20  1  0
  5  1  1  0
 20 14  1  0
  9 10  1  0
M  END
> <minimizedAffinity>
-5.02449

> <CNNscore>
0.2191255540

> <CNNaffinity>
5.0056915283

> <CNN_VS>
1.0968749523

> <CNNaffinity_variance>
0.1500839740

$$$$



 29 30  0  0  0  0  0  0  0  0999 V2000
    8.0158   35.9050   75.3243 C   0  0  0  0  0  0  0  0  0  0  0  0
    6.6408   35.6743   75.3589 C   0  0  0  0  0  0  0  0  0  0  0  0
    5.9978   35.9503   76.9301 S   0  0  0  0  0  0  0  0  0  0  0  0
    7.5294   36.2523   77.6027 C   0  0  0  0  0  0  0  0  0  0  0  0
    8.5153   36.1723   76.6477 C   0  0  0  0  0  0  0  0  0  0  0  0
   10.3581   36.4719   77.0200 Br  0  0  0  0  0  0  0  0  0  0  0  0
    5.7736   35.2256   74.2866 C   0  0  0  0  0  0  0  0  0  0  0  0
    5.7753   35.5897   73.1201 O   0  0  0  0  0  0  0  0  0  0  0  0
    4.8620   34.3053   74.6767 O   0  0  0  0  0  0  0  0  0  0  0  0
    4.8433   34.0123   75.5666 H   0  0  0  0  0  0  0  0  0  0  0  0
    8.8159   35.7328   74.1786 N   0  0  0  0  0  0  0  0  0  0  0  0
    9.5164   34.5575   73.8507 C   0  0  0  0  0  0  0  0  0  0  0  0
   10.5312   34.5576   73.1381 O   0  0  0  0  0  0  0  0  0  0  0  0
    8.9491   33.1813   74.2557 C   0  0  0  0  0  0  0  0  0  0  0  0
    8.6519   32.9630   75.7365 C   0  0  0  0  0  0  0  0  0  0  0  0
    8.3440   31.4897   76.0174 C   0  0  0  0  0  0  0  0  0  0  0  0
    7.1884   30.9791   75.1427 C   0  0  0  0  0  0  0  0  0  0  0  0
    6.9339   29.4951   75.3992 C   0  0  0  0  0  0  0  0  0  0  0  0
    7.4658   31.2316   73.6528 C   0  0  0  0  0  0  0  0  0  0  0  0
    7.7865   32.7025   73.3798 C   0  0  0  0  0  0  0  0  0  0  0  0
    8.2439   38.0715   73.9395 C   0  0  0  0  0  0  0  0  0  0  0  0
    9.0745   36.9597   73.4706 N   0  0  0  0  0  0  0  0  0  0  0  0
   10.4906   37.3350   73.4668 C   0  0  0  0  0  0  0  0  0  0  0  0
    7.7084   36.5471   78.9873 C   0  0  0  0  0  0  0  0  0  0  0  0
    7.8667   36.7974   80.1514 C   0  0  0  0  0  0  0  0  0  0  0  0
    8.0716   37.1066   81.5837 C   0  0  0  0  0  0  0  0  0  0  0  0
    6.8033   37.7594   82.1507 C   0  0  0  0  0  0  0  0  0  0  0  0
    9.2567   38.0713   81.7306 C   0  0  0  0  0  0  0  0  0  0  0  0
    8.3676   35.8085   82.3476 C   0  0  0  0  0  0  0  0  0  0  0  0
 21 22  1  0
 22 23  1  0
 22 11  1  0
 11  1  1  0
  1  2  2  0
  2  7  1  0
  7  8  2  0
  7  9  1  0
  2  3  1  0
  3  4  1  0
  4 24  1  0
 24 25  3  0
 25 26  1  0
 26 27  1  0
 26 28  1  0
 26 29  1  0
  4  5  2  0
  5  6  1  0
 11 12  1  0
 12 13  2  0
 14 12  1  0
 14 15  1  0
 15 16  1  0
 16 17  1  0
 17 18  1  0
 17 19  1  0
 19 20  1  0
  5  1  1  0
 20 14  1  0
  9 10  1  0
M  END
> <minimizedAffinity>
-5.36687

> <CNNscore>
0.2149236649

> <CNNaffinity>
5.5359883308

> <CNN_VS>
1.1898149252

> <CNNaffinity_variance>
0.1078953072

$$$$
