


 27 27  0  0  0  0  0  0  0  0999 V2000
   17.3045   -4.8364   21.0032 C   0  0  0  0  0  0  0  0  0  0  0  0
   18.1292   -3.6879   20.3903 C   0  0  0  0  0  0  0  0  0  0  0  0
   19.5056   -3.7842   20.9702 N   0  0  0  0  0  0  0  0  0  0  0  0
   19.4956   -4.9579   21.8620 C   0  0  0  0  0  0  0  0  0  0  0  0
   18.0328   -5.0700   22.3537 C   0  0  0  0  0  0  0  0  0  0  0  0
   19.7263   -2.9403   21.4990 H   0  0  0  0  0  0  0  0  0  0  0  0
   15.1631   -3.6411   20.4672 C   0  0  0  0  0  0  0  0  0  0  0  0
   15.7961   -4.7040   20.9966 C   0  0  0  0  0  0  0  0  0  0  0  0
   14.9954   -5.7694   21.7074 C   0  0  0  0  0  0  0  0  0  0  0  0
   20.6203   -4.9760   22.9362 C   0  0  0  0  0  0  0  0  0  0  0  0
   21.7745   -6.0295   22.7044 N   0  0  0  0  0  0  0  0  0  0  0  0
   21.7386   -7.0394   23.9136 C   0  0  0  0  0  0  0  0  0  0  0  0
   21.3514   -6.8886   21.5063 C   0  0  0  0  0  0  0  0  0  0  0  0
   23.1941   -5.4897   22.6791 C   0  0  0  0  0  0  0  0  0  0  0  0
   23.9043   -5.0010   21.3756 N   0  0  0  0  0  0  0  0  0  0  0  0
   24.5053   -6.1900   20.6470 C   0  0  0  0  0  0  0  0  0  0  0  0
   22.9485   -4.2647   20.4530 C   0  0  0  0  0  0  0  0  0  0  0  0
   25.0090   -4.0312   21.8885 C   0  0  0  0  0  0  0  0  0  0  0  0
   25.2593   -3.7534   23.3654 N   0  0  0  0  0  0  0  0  0  0  0  0
   26.5068   -2.7879   23.4058 C   0  0  0  0  0  0  0  0  0  0  0  0
   25.6597   -4.9389   24.2388 C   0  0  0  0  0  0  0  0  0  0  0  0
   24.1498   -2.9569   24.0686 C   0  0  0  0  0  0  0  0  0  0  0  0
   17.6474   -4.0583   23.4640 C   0  0  0  0  0  0  0  0  0  0  0  0
   16.9626   -2.8493   22.8788 C   0  0  0  0  0  0  0  0  0  0  0  0
   15.7666   -2.6076   22.9983 O   0  0  0  0  0  0  0  0  0  0  0  0
   17.8134   -2.0243   22.2572 O   0  0  0  0  0  0  0  0  0  0  0  0
   18.7203   -2.2503   22.1897 H   0  0  0  0  0  0  0  0  0  0  0  0
  7  8  2  0
  8  9  1  0
  1  8  1  0
  1  2  1  0
  2  3  1  0
  3  4  1  0
  4 10  1  0
 10 11  1  0
 11 12  1  0
 11 13  1  0
 11 14  1  0
 14 15  1  0
 15 16  1  0
 15 17  1  0
 15 18  1  0
 18 19  1  0
 19 20  1  0
 19 21  1  0
 19 22  1  0
  4  5  1  0
  5 23  1  0
 23 24  1  0
 24 25  2  0
 24 26  1  0
  5  1  1  0
  3  6  1  0
 26 27  1  0
M  CHG 1  11   1
M  CHG 1  15   1
M  CHG 1  19   1
M  END
> <minimizedAffinity>
-4.51858

> <CNNscore>
0.2342628390

> <CNNaffinity>
4.1747670174

> <CNN_VS>
0.9779927731

> <CNNaffinity_variance>
1.1605688334

$$$$



 27 27  0  0  0  0  0  0  0  0999 V2000
   22.0944    9.0162   15.7320 C   0  0  0  0  0  0  0  0  0  0  0  0
   21.0343    8.7273   16.8124 C   0  0  0  0  0  0  0  0  0  0  0  0
   20.1418    7.6555   16.2694 N   0  0  0  0  0  0  0  0  0  0  0  0
   20.6752    7.3102   14.9393 C   0  0  0  0  0  0  0  0  0  0  0  0
   21.3494    8.6076   14.4332 C   0  0  0  0  0  0  0  0  0  0  0  0
   19.1851    7.9997   16.1881 H   0  0  0  0  0  0  0  0  0  0  0  0
   23.9744   10.5751   15.1517 C   0  0  0  0  0  0  0  0  0  0  0  0
   22.8057   10.3521   15.7802 C   0  0  0  0  0  0  0  0  0  0  0  0
   22.2140   11.4306   16.6566 C   0  0  0  0  0  0  0  0  0  0  0  0
   19.6652    6.6052   13.9895 C   0  0  0  0  0  0  0  0  0  0  0  0
   19.2580    5.1325   14.3909 N   0  0  0  0  0  0  0  0  0  0  0  0
   19.4997    4.2181   13.1305 C   0  0  0  0  0  0  0  0  0  0  0  0
   20.3089    4.6442   15.3957 C   0  0  0  0  0  0  0  0  0  0  0  0
   17.8050    4.9078   14.7725 C   0  0  0  0  0  0  0  0  0  0  0  0
   17.0905    3.5228   14.6565 N   0  0  0  0  0  0  0  0  0  0  0  0
   16.4242    3.4060   13.2971 C   0  0  0  0  0  0  0  0  0  0  0  0
   18.0584    2.3690   14.8533 C   0  0  0  0  0  0  0  0  0  0  0  0
   16.0391    3.5431   15.8047 C   0  0  0  0  0  0  0  0  0  0  0  0
   15.6871    2.3181   16.6392 N   0  0  0  0  0  0  0  0  0  0  0  0
   14.4019    2.7240   17.4600 C   0  0  0  0  0  0  0  0  0  0  0  0
   16.6981    1.8809   17.6952 C   0  0  0  0  0  0  0  0  0  0  0  0
   15.2384    1.0929   15.8282 C   0  0  0  0  0  0  0  0  0  0  0  0
   20.3636    9.6815   13.9044 C   0  0  0  0  0  0  0  0  0  0  0  0
   20.4333    9.7856   12.4020 C   0  0  0  0  0  0  0  0  0  0  0  0
   21.0772    9.0264   11.6862 O   0  0  0  0  0  0  0  0  0  0  0  0
   19.6643   10.7671   11.9160 O   0  0  0  0  0  0  0  0  0  0  0  0
   19.1895   11.3237   12.5014 H   0  0  0  0  0  0  0  0  0  0  0  0
  7  8  2  0
  8  9  1  0
  1  8  1  0
  1  2  1  0
  2  3  1  0
  3  4  1  0
  4 10  1  0
 10 11  1  0
 11 12  1  0
 11 13  1  0
 11 14  1  0
 14 15  1  0
 15 16  1  0
 15 17  1  0
 15 18  1  0
 18 19  1  0
 19 20  1  0
 19 21  1  0
 19 22  1  0
  4  5  1  0
  5 23  1  0
 23 24  1  0
 24 25  2  0
 24 26  1  0
  5  1  1  0
  3  6  1  0
 26 27  1  0
M  CHG 1  11   1
M  CHG 1  15   1
M  CHG 1  19   1
M  END
> <minimizedAffinity>
-4.86627

> <CNNscore>
0.2332807630

> <CNNaffinity>
5.3253154755

> <CNN_VS>
1.2422937155

> <CNNaffinity_variance>
0.6091466546

$$$$



 27 27  0  0  0  0  0  0  0  0999 V2000
   12.0270   -7.4165   20.1904 C   0  0  0  0  0  0  0  0  0  0  0  0
   11.7414   -7.0542   18.7201 C   0  0  0  0  0  0  0  0  0  0  0  0
   10.3798   -7.5859   18.3984 N   0  0  0  0  0  0  0  0  0  0  0  0
    9.8770   -8.2068   19.6371 C   0  0  0  0  0  0  0  0  0  0  0  0
   11.1452   -8.6785   20.3876 C   0  0  0  0  0  0  0  0  0  0  0  0
   10.4383   -8.2802   17.6535 H   0  0  0  0  0  0  0  0  0  0  0  0
   13.8283   -7.6591   21.9218 C   0  0  0  0  0  0  0  0  0  0  0  0
   13.4723   -7.4541   20.6404 C   0  0  0  0  0  0  0  0  0  0  0  0
   14.5352   -7.1461   19.6125 C   0  0  0  0  0  0  0  0  0  0  0  0
    8.7324   -9.2407   19.4357 C   0  0  0  0  0  0  0  0  0  0  0  0
    7.6347   -8.8508   18.3687 N   0  0  0  0  0  0  0  0  0  0  0  0
    7.1802  -10.1802   17.6550 C   0  0  0  0  0  0  0  0  0  0  0  0
    6.3899   -8.4217   19.1552 C   0  0  0  0  0  0  0  0  0  0  0  0
    8.0743   -7.9270   17.2459 C   0  0  0  0  0  0  0  0  0  0  0  0
    7.2147   -6.7261   16.7351 N   0  0  0  0  0  0  0  0  0  0  0  0
    7.8419   -6.1493   15.4782 C   0  0  0  0  0  0  0  0  0  0  0  0
    5.7810   -7.1381   16.4493 C   0  0  0  0  0  0  0  0  0  0  0  0
    7.2557   -5.7056   17.9103 C   0  0  0  0  0  0  0  0  0  0  0  0
    6.9502   -6.0800   19.3551 N   0  0  0  0  0  0  0  0  0  0  0  0
    7.3219   -4.8049   20.2071 C   0  0  0  0  0  0  0  0  0  0  0  0
    7.7717   -7.2091   19.9705 C   0  0  0  0  0  0  0  0  0  0  0  0
    5.4623   -6.3103   19.6605 C   0  0  0  0  0  0  0  0  0  0  0  0
   11.7739   -9.9830   19.8328 C   0  0  0  0  0  0  0  0  0  0  0  0
   13.2735   -9.9678   19.9872 C   0  0  0  0  0  0  0  0  0  0  0  0
   13.8602  -10.1417   21.0497 O   0  0  0  0  0  0  0  0  0  0  0  0
   13.9110   -9.8018   18.8223 O   0  0  0  0  0  0  0  0  0  0  0  0
   13.4208   -9.6718   18.0344 H   0  0  0  0  0  0  0  0  0  0  0  0
  7  8  2  0
  8  9  1  0
  1  8  1  0
  1  2  1  0
  2  3  1  0
  3  4  1  0
  4 10  1  0
 10 11  1  0
 11 12  1  0
 11 13  1  0
 11 14  1  0
 14 15  1  0
 15 16  1  0
 15 17  1  0
 15 18  1  0
 18 19  1  0
 19 20  1  0
 19 21  1  0
 19 22  1  0
  4  5  1  0
  5 23  1  0
 23 24  1  0
 24 25  2  0
 24 26  1  0
  5  1  1  0
  3  6  1  0
 26 27  1  0
M  CHG 1  11   1
M  CHG 1  15   1
M  CHG 1  19   1
M  END
> <minimizedAffinity>
-0.76247

> <CNNscore>
0.1792746484

> <CNNaffinity>
3.8953406811

> <CNN_VS>
0.6983358264

> <CNNaffinity_variance>
0.6991903782

$$$$



 27 27  0  0  0  0  0  0  0  0999 V2000
   20.0297   -5.4315   23.9886 C   0  0  0  0  0  0  0  0  0  0  0  0
   20.4916   -6.8903   23.8068 C   0  0  0  0  0  0  0  0  0  0  0  0
   21.5619   -6.8797   22.7605 N   0  0  0  0  0  0  0  0  0  0  0  0
   21.7402   -5.4701   22.3681 C   0  0  0  0  0  0  0  0  0  0  0  0
   20.3580   -4.8152   22.6024 C   0  0  0  0  0  0  0  0  0  0  0  0
   21.2752   -7.4371   21.9559 H   0  0  0  0  0  0  0  0  0  0  0  0
   17.9347   -4.0916   24.3309 C   0  0  0  0  0  0  0  0  0  0  0  0
   18.6609   -5.1942   24.5911 C   0  0  0  0  0  0  0  0  0  0  0  0
   18.1547   -6.1984   25.5993 C   0  0  0  0  0  0  0  0  0  0  0  0
   22.4143   -5.2543   20.9830 C   0  0  0  0  0  0  0  0  0  0  0  0
   23.8888   -4.6884   21.0176 N   0  0  0  0  0  0  0  0  0  0  0  0
   24.6353   -5.2443   19.7460 C   0  0  0  0  0  0  0  0  0  0  0  0
   23.7881   -3.1823   20.7452 C   0  0  0  0  0  0  0  0  0  0  0  0
   24.7501   -5.1039   22.1978 C   0  0  0  0  0  0  0  0  0  0  0  0
   25.4058   -4.0843   23.1841 N   0  0  0  0  0  0  0  0  0  0  0  0
   26.3553   -3.1772   22.4216 C   0  0  0  0  0  0  0  0  0  0  0  0
   24.3648   -3.2458   23.9052 C   0  0  0  0  0  0  0  0  0  0  0  0
   26.1707   -4.9814   24.2011 C   0  0  0  0  0  0  0  0  0  0  0  0
   27.2032   -6.0225   23.7877 N   0  0  0  0  0  0  0  0  0  0  0  0
   28.0720   -6.2880   25.0780 C   0  0  0  0  0  0  0  0  0  0  0  0
   28.2132   -5.6154   22.7188 C   0  0  0  0  0  0  0  0  0  0  0  0
   26.6240   -7.4021   23.4392 C   0  0  0  0  0  0  0  0  0  0  0  0
   19.3049   -5.1243   21.5068 C   0  0  0  0  0  0  0  0  0  0  0  0
   18.9829   -3.8896   20.7038 C   0  0  0  0  0  0  0  0  0  0  0  0
   19.7933   -3.0100   20.4344 O   0  0  0  0  0  0  0  0  0  0  0  0
   17.7210   -3.8781   20.2581 O   0  0  0  0  0  0  0  0  0  0  0  0
   17.1360   -4.5724   20.4897 H   0  0  0  0  0  0  0  0  0  0  0  0
  7  8  2  0
  8  9  1  0
  1  8  1  0
  1  2  1  0
  2  3  1  0
  3  4  1  0
  4 10  1  0
 10 11  1  0
 11 12  1  0
 11 13  1  0
 11 14  1  0
 14 15  1  0
 15 16  1  0
 15 17  1  0
 15 18  1  0
 18 19  1  0
 19 20  1  0
 19 21  1  0
 19 22  1  0
  4  5  1  0
  5 23  1  0
 23 24  1  0
 24 25  2  0
 24 26  1  0
  5  1  1  0
  3  6  1  0
 26 27  1  0
M  CHG 1  11   1
M  CHG 1  15   1
M  CHG 1  19   1
M  END
> <minimizedAffinity>
-4.94340

> <CNNscore>
0.1610412300

> <CNNaffinity>
3.9958419800

> <CNN_VS>
0.6434953213

> <CNNaffinity_variance>
0.7087926269

$$$$



 27 27  0  0  0  0  0  0  0  0999 V2000
   21.9394    9.2530   15.6694 C   0  0  0  0  0  0  0  0  0  0  0  0
   20.8414    9.1416   16.7448 C   0  0  0  0  0  0  0  0  0  0  0  0
   19.9571    8.0018   16.3460 N   0  0  0  0  0  0  0  0  0  0  0  0
   20.5309    7.4500   15.1054 C   0  0  0  0  0  0  0  0  0  0  0  0
   21.2339    8.6491   14.4258 C   0  0  0  0  0  0  0  0  0  0  0  0
   19.0069    8.3332   16.1792 H   0  0  0  0  0  0  0  0  0  0  0  0
   22.6858   11.4956   16.5151 C   0  0  0  0  0  0  0  0  0  0  0  0
   22.6616   10.5769   15.5322 C   0  0  0  0  0  0  0  0  0  0  0  0
   23.2860   10.9000   14.1954 C   0  0  0  0  0  0  0  0  0  0  0  0
   19.5461    6.6092   14.2437 C   0  0  0  0  0  0  0  0  0  0  0  0
   19.4524    5.0749   14.6081 N   0  0  0  0  0  0  0  0  0  0  0  0
   19.9177    4.2618   13.3410 C   0  0  0  0  0  0  0  0  0  0  0  0
   20.5560    4.7993   15.6369 C   0  0  0  0  0  0  0  0  0  0  0  0
   18.0712    4.5372   14.9405 C   0  0  0  0  0  0  0  0  0  0  0  0
   17.8223    3.1066   15.5182 N   0  0  0  0  0  0  0  0  0  0  0  0
   19.0020    2.6935   16.3804 C   0  0  0  0  0  0  0  0  0  0  0  0
   16.5434    3.0412   16.3349 C   0  0  0  0  0  0  0  0  0  0  0  0
   17.6988    2.2055   14.2546 C   0  0  0  0  0  0  0  0  0  0  0  0
   16.5343    2.2910   13.2760 N   0  0  0  0  0  0  0  0  0  0  0  0
   16.1132    0.7969   12.9924 C   0  0  0  0  0  0  0  0  0  0  0  0
   16.8245    2.8788   11.8980 C   0  0  0  0  0  0  0  0  0  0  0  0
   15.2605    2.9347   13.8443 C   0  0  0  0  0  0  0  0  0  0  0  0
   20.2765    9.6312   13.7021 C   0  0  0  0  0  0  0  0  0  0  0  0
   20.4534    9.5544   12.2068 C   0  0  0  0  0  0  0  0  0  0  0  0
   21.4183    9.0415   11.6509 O   0  0  0  0  0  0  0  0  0  0  0  0
   19.4093   10.0564   11.5368 O   0  0  0  0  0  0  0  0  0  0  0  0
   18.6931   10.4394   12.0041 H   0  0  0  0  0  0  0  0  0  0  0  0
  7  8  2  0
  8  9  1  0
  1  8  1  0
  1  2  1  0
  2  3  1  0
  3  4  1  0
  4 10  1  0
 10 11  1  0
 11 12  1  0
 11 13  1  0
 11 14  1  0
 14 15  1  0
 15 16  1  0
 15 17  1  0
 15 18  1  0
 18 19  1  0
 19 20  1  0
 19 21  1  0
 19 22  1  0
  4  5  1  0
  5 23  1  0
 23 24  1  0
 24 25  2  0
 24 26  1  0
  5  1  1  0
  3  6  1  0
 26 27  1  0
M  CHG 1  11   1
M  CHG 1  15   1
M  CHG 1  19   1
M  END
> <minimizedAffinity>
-4.67864

> <CNNscore>
0.1565253437

> <CNNaffinity>
4.7490725517

> <CNN_VS>
0.7433502078

> <CNNaffinity_variance>
1.6460299492

$$$$



 27 27  0  0  0  0  0  0  0  0999 V2000
   19.6900   -5.4027   24.0275 C   0  0  0  0  0  0  0  0  0  0  0  0
   19.9441   -6.9195   23.9300 C   0  0  0  0  0  0  0  0  0  0  0  0
   20.8954   -7.1282   22.7935 N   0  0  0  0  0  0  0  0  0  0  0  0
   21.2086   -5.7875   22.2671 C   0  0  0  0  0  0  0  0  0  0  0  0
   19.9508   -4.9387   22.5695 C   0  0  0  0  0  0  0  0  0  0  0  0
   20.4607   -7.6997   22.0690 H   0  0  0  0  0  0  0  0  0  0  0  0
   17.7146   -3.8805   24.3140 C   0  0  0  0  0  0  0  0  0  0  0  0
   18.4302   -4.9416   24.7297 C   0  0  0  0  0  0  0  0  0  0  0  0
   18.0364   -5.6526   26.0027 C   0  0  0  0  0  0  0  0  0  0  0  0
   21.7604   -5.7653   20.8130 C   0  0  0  0  0  0  0  0  0  0  0  0
   23.1325   -5.0090   20.6106 N   0  0  0  0  0  0  0  0  0  0  0  0
   23.5593   -5.2046   19.1063 C   0  0  0  0  0  0  0  0  0  0  0  0
   22.8258   -3.5092   20.7048 C   0  0  0  0  0  0  0  0  0  0  0  0
   24.3122   -5.5084   21.4269 C   0  0  0  0  0  0  0  0  0  0  0  0
   25.0929   -6.8208   21.0945 N   0  0  0  0  0  0  0  0  0  0  0  0
   24.1812   -8.0191   21.2910 C   0  0  0  0  0  0  0  0  0  0  0  0
   25.6310   -6.8142   19.6742 C   0  0  0  0  0  0  0  0  0  0  0  0
   26.2694   -6.8286   22.1142 C   0  0  0  0  0  0  0  0  0  0  0  0
   26.2720   -6.0048   23.3957 N   0  0  0  0  0  0  0  0  0  0  0  0
   27.3565   -6.6764   24.3247 C   0  0  0  0  0  0  0  0  0  0  0  0
   24.9936   -6.0088   24.2287 C   0  0  0  0  0  0  0  0  0  0  0  0
   26.7665   -4.5595   23.2320 C   0  0  0  0  0  0  0  0  0  0  0  0
   18.7614   -5.1838   21.6050 C   0  0  0  0  0  0  0  0  0  0  0  0
   18.4691   -3.9531   20.7846 C   0  0  0  0  0  0  0  0  0  0  0  0
   19.3288   -3.2197   20.3091 O   0  0  0  0  0  0  0  0  0  0  0  0
   17.1599   -3.7714   20.5747 O   0  0  0  0  0  0  0  0  0  0  0  0
   16.5380   -4.3577   20.9588 H   0  0  0  0  0  0  0  0  0  0  0  0
  7  8  2  0
  8  9  1  0
  1  8  1  0
  1  2  1  0
  2  3  1  0
  3  4  1  0
  4 10  1  0
 10 11  1  0
 11 12  1  0
 11 13  1  0
 11 14  1  0
 14 15  1  0
 15 16  1  0
 15 17  1  0
 15 18  1  0
 18 19  1  0
 19 20  1  0
 19 21  1  0
 19 22  1  0
  4  5  1  0
  5 23  1  0
 23 24  1  0
 24 25  2  0
 24 26  1  0
  5  1  1  0
  3  6  1  0
 26 27  1  0
M  CHG 1  11   1
M  CHG 1  15   1
M  CHG 1  19   1
M  END
> <minimizedAffinity>
-4.75224

> <CNNscore>
0.1318767667

> <CNNaffinity>
3.7704734802

> <CNN_VS>
0.4972378612

> <CNNaffinity_variance>
1.0020146370

$$$$



 27 27  0  0  0  0  0  0  0  0999 V2000
   19.8548   -5.9710   24.5314 C   0  0  0  0  0  0  0  0  0  0  0  0
   20.4628   -7.3043   25.0081 C   0  0  0  0  0  0  0  0  0  0  0  0
   21.3288   -7.8087   23.8964 N   0  0  0  0  0  0  0  0  0  0  0  0
   21.2548   -6.7981   22.8258 C   0  0  0  0  0  0  0  0  0  0  0  0
   19.8602   -6.1482   22.9895 C   0  0  0  0  0  0  0  0  0  0  0  0
   20.9833   -8.7071   23.5590 H   0  0  0  0  0  0  0  0  0  0  0  0
   17.9397   -4.3752   24.8265 C   0  0  0  0  0  0  0  0  0  0  0  0
   18.5897   -5.4893   25.2099 C   0  0  0  0  0  0  0  0  0  0  0  0
   18.1137   -6.2478   26.4262 C   0  0  0  0  0  0  0  0  0  0  0  0
   21.6497   -7.3101   21.4111 C   0  0  0  0  0  0  0  0  0  0  0  0
   22.8670   -6.5703   20.7281 N   0  0  0  0  0  0  0  0  0  0  0  0
   23.9433   -7.6654   20.3737 C   0  0  0  0  0  0  0  0  0  0  0  0
   22.3766   -6.0914   19.3561 C   0  0  0  0  0  0  0  0  0  0  0  0
   23.6044   -5.5475   21.5753 C   0  0  0  0  0  0  0  0  0  0  0  0
   24.0062   -4.1300   21.0545 N   0  0  0  0  0  0  0  0  0  0  0  0
   24.4380   -4.2248   19.6018 C   0  0  0  0  0  0  0  0  0  0  0  0
   22.8660   -3.1352   21.1859 C   0  0  0  0  0  0  0  0  0  0  0  0
   25.1915   -3.7122   21.9735 C   0  0  0  0  0  0  0  0  0  0  0  0
   25.1302   -3.7650   23.4949 N   0  0  0  0  0  0  0  0  0  0  0  0
   26.5233   -3.2143   23.9909 C   0  0  0  0  0  0  0  0  0  0  0  0
   25.0076   -5.1427   24.1394 C   0  0  0  0  0  0  0  0  0  0  0  0
   24.1061   -2.8136   24.1322 C   0  0  0  0  0  0  0  0  0  0  0  0
   18.6845   -7.0012   22.4463 C   0  0  0  0  0  0  0  0  0  0  0  0
   18.7279   -8.3999   23.0073 C   0  0  0  0  0  0  0  0  0  0  0  0
   18.2517   -8.7251   24.0893 O   0  0  0  0  0  0  0  0  0  0  0  0
   19.2940   -9.2755   22.1684 O   0  0  0  0  0  0  0  0  0  0  0  0
   19.6452   -8.9813   21.3510 H   0  0  0  0  0  0  0  0  0  0  0  0
  7  8  2  0
  8  9  1  0
  1  8  1  0
  1  2  1  0
  2  3  1  0
  3  4  1  0
  4 10  1  0
 10 11  1  0
 11 12  1  0
 11 13  1  0
 11 14  1  0
 14 15  1  0
 15 16  1  0
 15 17  1  0
 15 18  1  0
 18 19  1  0
 19 20  1  0
 19 21  1  0
 19 22  1  0
  4  5  1  0
  5 23  1  0
 23 24  1  0
 24 25  2  0
 24 26  1  0
  5  1  1  0
  3  6  1  0
 26 27  1  0
M  CHG 1  11   1
M  CHG 1  15   1
M  CHG 1  19   1
M  END
> <minimizedAffinity>
-4.59874

> <CNNscore>
0.1141617894

> <CNNaffinity>
3.4420797825

> <CNN_VS>
0.3929539919

> <CNNaffinity_variance>
1.4786685705

$$$$



 27 27  0  0  0  0  0  0  0  0999 V2000
   19.8574   -5.5797   24.4314 C   0  0  0  0  0  0  0  0  0  0  0  0
   20.3608   -7.0346   24.4983 C   0  0  0  0  0  0  0  0  0  0  0  0
   21.3681   -7.1964   23.4032 N   0  0  0  0  0  0  0  0  0  0  0  0
   21.4723   -5.8829   22.7423 C   0  0  0  0  0  0  0  0  0  0  0  0
   20.0831   -5.2299   22.9362 C   0  0  0  0  0  0  0  0  0  0  0  0
   21.0561   -7.9033   22.7374 H   0  0  0  0  0  0  0  0  0  0  0  0
   17.8178   -4.1557   24.7684 C   0  0  0  0  0  0  0  0  0  0  0  0
   18.5177   -5.2664   25.0638 C   0  0  0  0  0  0  0  0  0  0  0  0
   18.0148   -6.1992   26.1400 C   0  0  0  0  0  0  0  0  0  0  0  0
   22.0576   -5.9173   21.3015 C   0  0  0  0  0  0  0  0  0  0  0  0
   23.0321   -4.7315   20.9276 N   0  0  0  0  0  0  0  0  0  0  0  0
   23.8855   -5.1979   19.6877 C   0  0  0  0  0  0  0  0  0  0  0  0
   22.1580   -3.6066   20.3594 C   0  0  0  0  0  0  0  0  0  0  0  0
   24.0492   -4.3281   21.9813 C   0  0  0  0  0  0  0  0  0  0  0  0
   25.1031   -5.3143   22.5802 N   0  0  0  0  0  0  0  0  0  0  0  0
   24.8117   -5.5375   24.0537 C   0  0  0  0  0  0  0  0  0  0  0  0
   25.1085   -6.6470   21.8517 C   0  0  0  0  0  0  0  0  0  0  0  0
   26.4629   -4.5845   22.3741 C   0  0  0  0  0  0  0  0  0  0  0  0
   26.6503   -3.0877   22.5870 N   0  0  0  0  0  0  0  0  0  0  0  0
   28.2078   -2.8446   22.5131 C   0  0  0  0  0  0  0  0  0  0  0  0
   26.2343   -2.5194   23.9407 C   0  0  0  0  0  0  0  0  0  0  0  0
   26.0823   -2.2013   21.4683 C   0  0  0  0  0  0  0  0  0  0  0  0
   18.9807   -5.7673   21.9870 C   0  0  0  0  0  0  0  0  0  0  0  0
   18.3626   -4.6477   21.1887 C   0  0  0  0  0  0  0  0  0  0  0  0
   18.9458   -4.0220   20.3103 O   0  0  0  0  0  0  0  0  0  0  0  0
   17.0771   -4.4413   21.4983 O   0  0  0  0  0  0  0  0  0  0  0  0
   16.6723   -4.9437   22.1778 H   0  0  0  0  0  0  0  0  0  0  0  0
  7  8  2  0
  8  9  1  0
  1  8  1  0
  1  2  1  0
  2  3  1  0
  3  4  1  0
  4 10  1  0
 10 11  1  0
 11 12  1  0
 11 13  1  0
 11 14  1  0
 14 15  1  0
 15 16  1  0
 15 17  1  0
 15 18  1  0
 18 19  1  0
 19 20  1  0
 19 21  1  0
 19 22  1  0
  4  5  1  0
  5 23  1  0
 23 24  1  0
 24 25  2  0
 24 26  1  0
  5  1  1  0
  3  6  1  0
 26 27  1  0
M  CHG 1  11   1
M  CHG 1  15   1
M  CHG 1  19   1
M  END
> <minimizedAffinity>
-4.58535

> <CNNscore>
0.0977017134

> <CNNaffinity>
3.8438694477

> <CNN_VS>
0.3755526245

> <CNNaffinity_variance>
0.8351774216

$$$$



 27 27  0  0  0  0  0  0  0  0999 V2000
   17.5517   -4.7498   21.3433 C   0  0  0  0  0  0  0  0  0  0  0  0
   18.5588   -3.6332   21.6803 C   0  0  0  0  0  0  0  0  0  0  0  0
   19.8509   -4.3042   22.0276 N   0  0  0  0  0  0  0  0  0  0  0  0
   19.6185   -5.7513   21.8711 C   0  0  0  0  0  0  0  0  0  0  0  0
   18.1109   -5.9447   22.1609 C   0  0  0  0  0  0  0  0  0  0  0  0
   20.1128   -4.0902   22.9899 H   0  0  0  0  0  0  0  0  0  0  0  0
   15.1143   -5.3143   21.1396 C   0  0  0  0  0  0  0  0  0  0  0  0
   16.0764   -4.4223   21.4386 C   0  0  0  0  0  0  0  0  0  0  0  0
   15.6940   -3.0032   21.7868 C   0  0  0  0  0  0  0  0  0  0  0  0
   20.6216   -6.6637   22.6332 C   0  0  0  0  0  0  0  0  0  0  0  0
   21.6814   -7.4180   21.7368 N   0  0  0  0  0  0  0  0  0  0  0  0
   22.9282   -7.7327   22.6477 C   0  0  0  0  0  0  0  0  0  0  0  0
   21.0967   -8.8039   21.4371 C   0  0  0  0  0  0  0  0  0  0  0  0
   22.2391   -6.6506   20.5505 C   0  0  0  0  0  0  0  0  0  0  0  0
   23.1505   -5.3894   20.6947 N   0  0  0  0  0  0  0  0  0  0  0  0
   22.5606   -4.2410   19.8954 C   0  0  0  0  0  0  0  0  0  0  0  0
   23.3135   -4.9725   22.1461 C   0  0  0  0  0  0  0  0  0  0  0  0
   24.5199   -5.8444   20.1101 C   0  0  0  0  0  0  0  0  0  0  0  0
   25.7450   -4.9410   20.0473 N   0  0  0  0  0  0  0  0  0  0  0  0
   26.8122   -5.6139   20.9952 C   0  0  0  0  0  0  0  0  0  0  0  0
   25.5915   -3.5211   20.5847 C   0  0  0  0  0  0  0  0  0  0  0  0
   26.4412   -4.8931   18.6787 C   0  0  0  0  0  0  0  0  0  0  0  0
   17.7352   -5.9134   23.6651 C   0  0  0  0  0  0  0  0  0  0  0  0
   18.4231   -4.7719   24.3699 C   0  0  0  0  0  0  0  0  0  0  0  0
   19.5792   -4.8076   24.7768 O   0  0  0  0  0  0  0  0  0  0  0  0
   17.6546   -3.6797   24.4560 O   0  0  0  0  0  0  0  0  0  0  0  0
   16.7758   -3.6985   24.1314 H   0  0  0  0  0  0  0  0  0  0  0  0
  7  8  2  0
  8  9  1  0
  1  8  1  0
  1  2  1  0
  2  3  1  0
  3  4  1  0
  4 10  1  0
 10 11  1  0
 11 12  1  0
 11 13  1  0
 11 14  1  0
 14 15  1  0
 15 16  1  0
 15 17  1  0
 15 18  1  0
 18 19  1  0
 19 20  1  0
 19 21  1  0
 19 22  1  0
  4  5  1  0
  5 23  1  0
 23 24  1  0
 24 25  2  0
 24 26  1  0
  5  1  1  0
  3  6  1  0
 26 27  1  0
M  CHG 1  11   1
M  CHG 1  15   1
M  CHG 1  19   1
M  END
> <minimizedAffinity>
-4.71977

> <CNNscore>
0.0842172280

> <CNNaffinity>
3.6031188965

> <CNN_VS>
0.3034446836

> <CNNaffinity_variance>
1.2372043133

$$$$
