


 52 54  0  0  0  0  0  0  0  0999 V2000
   41.5746   -4.2208   10.9310 N   0  0  0  0  0  0  0  0  0  0  0  0
   41.5341   -3.8765   12.2662 C   0  0  0  0  0  0  0  0  0  0  0  0
   42.5322   -3.6839   12.9497 O   0  0  0  0  0  0  0  0  0  0  0  0
   40.7285   -4.4423   10.4790 H   0  0  0  0  0  0  0  0  0  0  0  0
   40.1868   -3.7068   12.8750 C   0  0  0  0  0  0  0  0  0  0  0  0
   39.0918   -4.4598   12.4408 C   0  0  0  0  0  0  0  0  0  0  0  0
   37.8082   -4.1968   12.9371 C   0  0  0  0  0  0  0  0  0  0  0  0
   37.6232   -3.1577   13.8549 C   0  0  0  0  0  0  0  0  0  0  0  0
   38.7184   -2.4144   14.2985 C   0  0  0  0  0  0  0  0  0  0  0  0
   39.9996   -2.6876   13.8142 C   0  0  0  0  0  0  0  0  0  0  0  0
   36.6754   -4.9993   12.3928 C   0  0  0  0  0  0  0  0  0  0  0  0
   35.8842   -5.5086   13.1768 O   0  0  0  0  0  0  0  0  0  0  0  0
   36.5860   -5.0927   11.0221 N   0  0  0  0  0  0  0  0  0  0  0  0
   37.1473   -4.4883   10.4847 H   0  0  0  0  0  0  0  0  0  0  0  0
   35.7176   -6.0248   10.3097 C   0  0  0  0  0  0  0  0  0  0  0  0
   36.4192   -7.2715    9.7736 C   0  0  0  0  0  0  0  0  0  0  0  0
   34.8733   -5.2958    9.2795 C   0  0  0  0  0  0  0  0  0  0  0  0
   33.5066   -5.0512    9.4948 C   0  0  0  0  0  0  0  0  0  0  0  0
   32.7336   -4.4111    8.5216 C   0  0  0  0  0  0  0  0  0  0  0  0
   33.3117   -4.0045    7.3200 C   0  0  0  0  0  0  0  0  0  0  0  0
   34.6671   -4.2388    7.0905 C   0  0  0  0  0  0  0  0  0  0  0  0
   35.4414   -4.8856    8.0591 C   0  0  0  0  0  0  0  0  0  0  0  0
   38.4826   -1.3461   15.2295 N   0  0  0  0  0  0  0  0  0  0  0  0
   39.3538   -1.3389   16.4238 C   0  0  0  0  0  0  0  0  0  0  0  0
   36.8373   -0.9551   15.4676 S   0  0  0  0  0  0  0  0  0  0  0  0
   36.3291   -2.2976   16.5156 C   0  0  0  0  0  0  0  0  0  0  0  0
   36.1494   -1.0710   14.1986 O   0  0  0  0  0  0  0  0  0  0  0  0
   36.7552    0.2486   16.2706 O   0  0  0  0  0  0  0  0  0  0  0  0
   42.8191   -4.2734   10.1495 C   0  0  0  0  0  0  0  0  0  0  0  0
   42.7461   -5.3440    9.0339 C   0  0  0  0  0  0  0  0  0  0  0  0
   41.8331   -6.4950    9.4042 C   0  0  0  0  0  0  0  0  0  0  0  0
   42.0270   -7.1987   10.6018 C   0  0  0  0  0  0  0  0  0  0  0  0
   41.1564   -8.2250   10.9642 C   0  0  0  0  0  0  0  0  0  0  0  0
   40.0862   -8.5631   10.1366 C   0  0  0  0  0  0  0  0  0  0  0  0
   39.8828   -7.8703    8.9474 C   0  0  0  0  0  0  0  0  0  0  0  0
   40.7568   -6.8488    8.5768 C   0  0  0  0  0  0  0  0  0  0  0  0
   43.2135   -2.8809    9.5789 C   0  0  0  0  0  0  0  0  0  0  0  0
   43.4823   -1.8648   10.6258 N   0  0  0  0  0  0  0  0  0  0  0  0
   42.7001   -1.2116   10.6700 H   0  0  0  0  0  0  0  0  0  0  0  0
   44.7531   -1.1034   10.3026 C   0  0  0  0  0  0  0  0  0  0  0  0
   45.9693   -1.9912   10.6628 C   0  0  0  0  0  0  0  0  0  0  0  0
   45.9231   -2.8758   11.5131 O   0  0  0  0  0  0  0  0  0  0  0  0
   47.0806   -1.7618    9.8757 N   0  0  0  0  0  0  0  0  0  0  0  0
   47.0460   -1.0548    9.1915 H   0  0  0  0  0  0  0  0  0  0  0  0
   48.2961   -2.5349   10.0310 C   0  0  0  0  0  0  0  0  0  0  0  0
   48.7300   -3.1915    8.7115 C   0  0  0  0  0  0  0  0  0  0  0  0
   49.7717   -2.3500    7.9765 C   0  0  0  0  0  0  0  0  0  0  0  0
   49.2818   -4.5934    8.9815 C   0  0  0  0  0  0  0  0  0  0  0  0
   44.8478    0.2715   11.0486 C   0  0  0  0  0  0  0  0  0  0  0  0
   43.5480    0.8154   11.6405 C   0  0  0  0  0  0  0  0  0  0  0  0
   46.8016    1.4690   11.8465 C   0  0  0  0  0  0  0  0  0  0  0  0
   45.9376    0.3510   11.9820 O   0  0  0  0  0  0  0  0  0  0  0  0
 51 52  1  0
 52 49  1  0
 49 50  1  0
 49 40  1  0
 40 38  1  0
 38 37  1  0
 29 37  1  0
 29 30  1  0
 30 31  1  0
 31 32  2  0
 32 33  1  0
 33 34  2  0
 34 35  1  0
 35 36  2  0
 29  1  1  0
  1  2  1  0
  2  3  2  0
  2  5  1  0
  5  6  2  0
  6  7  1  0
  7 11  1  0
 11 12  2  0
 11 13  1  0
 13 15  1  0
 15 16  1  0
 15 17  1  0
 17 18  2  0
 18 19  1  0
 19 20  2  0
 20 21  1  0
 21 22  2  0
  7  8  2  0
  8  9  1  0
  9 23  1  0
 23 24  1  0
 23 25  1  0
 25 26  1  0
 25 27  2  0
 25 28  2  0
  9 10  2  0
 40 41  1  0
 41 42  2  0
 41 43  1  0
 43 45  1  0
 45 46  1  0
 46 47  1  0
 46 48  1  0
 36 31  1  0
 10  5  1  0
 22 17  1  0
 38 39  1  0
  1  4  1  0
 13 14  1  0
 43 44  1  0
M  END
> <minimizedAffinity>
-12.24128

> <CNNscore>
0.9975908399

> <CNNaffinity>
8.7720880508

> <CNN_VS>
8.7509546280

> <CNNaffinity_variance>
2.2355191708

$$$$



 52 54  0  0  0  0  0  0  0  0999 V2000
   41.5115   -4.4424   10.8085 N   0  0  0  0  0  0  0  0  0  0  0  0
   41.4964   -4.0134   12.1196 C   0  0  0  0  0  0  0  0  0  0  0  0
   42.5070   -3.7667   12.7663 O   0  0  0  0  0  0  0  0  0  0  0  0
   40.6583   -4.7014   10.3911 H   0  0  0  0  0  0  0  0  0  0  0  0
   40.1609   -3.8193   12.7470 C   0  0  0  0  0  0  0  0  0  0  0  0
   39.0477   -4.5563   12.3320 C   0  0  0  0  0  0  0  0  0  0  0  0
   37.7759   -4.2705   12.8455 C   0  0  0  0  0  0  0  0  0  0  0  0
   37.6210   -3.2245   13.7612 C   0  0  0  0  0  0  0  0  0  0  0  0
   38.7344   -2.4971   14.1856 C   0  0  0  0  0  0  0  0  0  0  0  0
   40.0038   -2.7931   13.6841 C   0  0  0  0  0  0  0  0  0  0  0  0
   36.6226   -5.0569   12.3213 C   0  0  0  0  0  0  0  0  0  0  0  0
   35.8607   -5.5884   13.1195 O   0  0  0  0  0  0  0  0  0  0  0  0
   36.4817   -5.1109   10.9529 N   0  0  0  0  0  0  0  0  0  0  0  0
   37.0232   -4.4914   10.4123 H   0  0  0  0  0  0  0  0  0  0  0  0
   35.5861   -6.0220   10.2471 C   0  0  0  0  0  0  0  0  0  0  0  0
   36.2536   -7.2856    9.7071 C   0  0  0  0  0  0  0  0  0  0  0  0
   34.7527   -5.2733    9.2221 C   0  0  0  0  0  0  0  0  0  0  0  0
   33.3979   -4.9814    9.4537 C   0  0  0  0  0  0  0  0  0  0  0  0
   32.6335   -4.3235    8.4856 C   0  0  0  0  0  0  0  0  0  0  0  0
   33.2085   -3.9460    7.2730 C   0  0  0  0  0  0  0  0  0  0  0  0
   34.5521   -4.2273    7.0274 C   0  0  0  0  0  0  0  0  0  0  0  0
   35.3175   -4.8921    7.9909 C   0  0  0  0  0  0  0  0  0  0  0  0
   38.5293   -1.4211   15.1149 N   0  0  0  0  0  0  0  0  0  0  0  0
   39.4319   -1.4107   16.2856 C   0  0  0  0  0  0  0  0  0  0  0  0
   36.8931   -1.0190   15.3938 S   0  0  0  0  0  0  0  0  0  0  0  0
   36.3951   -2.3720   16.4331 C   0  0  0  0  0  0  0  0  0  0  0  0
   36.1773   -1.1104   14.1383 O   0  0  0  0  0  0  0  0  0  0  0  0
   36.8392    0.1735   16.2157 O   0  0  0  0  0  0  0  0  0  0  0  0
   42.7388   -4.5318   10.0038 C   0  0  0  0  0  0  0  0  0  0  0  0
   42.7333   -5.7843    9.0942 C   0  0  0  0  0  0  0  0  0  0  0  0
   41.7699   -6.8449    9.5866 C   0  0  0  0  0  0  0  0  0  0  0  0
   41.9557   -7.4467   10.8397 C   0  0  0  0  0  0  0  0  0  0  0  0
   41.0411   -8.3863   11.3120 C   0  0  0  0  0  0  0  0  0  0  0  0
   39.9344   -8.7387   10.5403 C   0  0  0  0  0  0  0  0  0  0  0  0
   39.7387   -8.1465    9.2967 C   0  0  0  0  0  0  0  0  0  0  0  0
   40.6563   -7.2125    8.8167 C   0  0  0  0  0  0  0  0  0  0  0  0
   43.0010   -3.2344    9.1864 C   0  0  0  0  0  0  0  0  0  0  0  0
   44.4202   -2.8025    9.1974 N   0  0  0  0  0  0  0  0  0  0  0  0
   45.0175   -3.6028    8.9897 H   0  0  0  0  0  0  0  0  0  0  0  0
   44.7870   -2.2436   10.5584 C   0  0  0  0  0  0  0  0  0  0  0  0
   44.7175   -0.6982   10.4960 C   0  0  0  0  0  0  0  0  0  0  0  0
   44.7952   -0.0672    9.4455 O   0  0  0  0  0  0  0  0  0  0  0  0
   44.4650   -0.1010   11.7152 N   0  0  0  0  0  0  0  0  0  0  0  0
   44.3865   -0.6649   12.5184 H   0  0  0  0  0  0  0  0  0  0  0  0
   44.3126    1.3343   11.8428 C   0  0  0  0  0  0  0  0  0  0  0  0
   45.5403    1.9847   12.4985 C   0  0  0  0  0  0  0  0  0  0  0  0
   46.8435    1.3587   12.0053 C   0  0  0  0  0  0  0  0  0  0  0  0
   45.5436    3.4906   12.2243 C   0  0  0  0  0  0  0  0  0  0  0  0
   46.2045   -2.7016   11.0450 C   0  0  0  0  0  0  0  0  0  0  0  0
   47.3382   -2.6048   10.0247 C   0  0  0  0  0  0  0  0  0  0  0  0
   47.9719   -2.1462   12.6121 C   0  0  0  0  0  0  0  0  0  0  0  0
   46.5827   -2.1597   12.3211 O   0  0  0  0  0  0  0  0  0  0  0  0
 51 52  1  0
 52 49  1  0
 49 50  1  0
 49 40  1  0
 40 38  1  0
 38 37  1  0
 29 37  1  0
 29 30  1  0
 30 31  1  0
 31 32  2  0
 32 33  1  0
 33 34  2  0
 34 35  1  0
 35 36  2  0
 29  1  1  0
  1  2  1  0
  2  3  2  0
  2  5  1  0
  5  6  2  0
  6  7  1  0
  7 11  1  0
 11 12  2  0
 11 13  1  0
 13 15  1  0
 15 16  1  0
 15 17  1  0
 17 18  2  0
 18 19  1  0
 19 20  2  0
 20 21  1  0
 21 22  2  0
  7  8  2  0
  8  9  1  0
  9 23  1  0
 23 24  1  0
 23 25  1  0
 25 26  1  0
 25 27  2  0
 25 28  2  0
  9 10  2  0
 40 41  1  0
 41 42  2  0
 41 43  1  0
 43 45  1  0
 45 46  1  0
 46 47  1  0
 46 48  1  0
 36 31  1  0
 10  5  1  0
 22 17  1  0
 38 39  1  0
  1  4  1  0
 13 14  1  0
 43 44  1  0
M  END
> <minimizedAffinity>
-12.51912

> <CNNscore>
0.9925667048

> <CNNaffinity>
8.6132116318

> <CNN_VS>
8.5491867065

> <CNNaffinity_variance>
1.6598991156

$$$$



 52 54  0  0  0  0  0  0  0  0999 V2000
   41.1030   -4.3354   11.1499 N   0  0  0  0  0  0  0  0  0  0  0  0
   40.8308   -3.8839   12.4246 C   0  0  0  0  0  0  0  0  0  0  0  0
   41.6931   -3.5329   13.2207 O   0  0  0  0  0  0  0  0  0  0  0  0
   40.3579   -4.6797   10.6063 H   0  0  0  0  0  0  0  0  0  0  0  0
   39.3972   -3.8006   12.8153 C   0  0  0  0  0  0  0  0  0  0  0  0
   38.9485   -2.8522   13.7394 C   0  0  0  0  0  0  0  0  0  0  0  0
   37.6216   -2.8718   14.1888 C   0  0  0  0  0  0  0  0  0  0  0  0
   36.7509   -3.8632   13.7246 C   0  0  0  0  0  0  0  0  0  0  0  0
   37.1951   -4.8022   12.7921 C   0  0  0  0  0  0  0  0  0  0  0  0
   38.5140   -4.7722   12.3336 C   0  0  0  0  0  0  0  0  0  0  0  0
   37.2212   -1.8670   15.2152 C   0  0  0  0  0  0  0  0  0  0  0  0
   36.4237   -0.9916   14.9027 O   0  0  0  0  0  0  0  0  0  0  0  0
   37.7697   -2.0119   16.4696 N   0  0  0  0  0  0  0  0  0  0  0  0
   38.2370   -2.8549   16.6702 H   0  0  0  0  0  0  0  0  0  0  0  0
   37.7072   -1.0037   17.5231 C   0  0  0  0  0  0  0  0  0  0  0  0
   39.0629   -0.5839   18.0889 C   0  0  0  0  0  0  0  0  0  0  0  0
   36.6860   -1.3888   18.5788 C   0  0  0  0  0  0  0  0  0  0  0  0
   36.8767   -2.5078   19.4069 C   0  0  0  0  0  0  0  0  0  0  0  0
   35.9107   -2.8714   20.3497 C   0  0  0  0  0  0  0  0  0  0  0  0
   34.7410   -2.1246   20.4816 C   0  0  0  0  0  0  0  0  0  0  0  0
   34.5362   -1.0105   19.6682 C   0  0  0  0  0  0  0  0  0  0  0  0
   35.4974   -0.6485   18.7189 C   0  0  0  0  0  0  0  0  0  0  0  0
   36.2733   -5.8127   12.3531 N   0  0  0  0  0  0  0  0  0  0  0  0
   35.8577   -5.7231   10.9373 C   0  0  0  0  0  0  0  0  0  0  0  0
   35.0676   -6.2236   13.4906 S   0  0  0  0  0  0  0  0  0  0  0  0
   35.3203   -4.9552   14.7096 C   0  0  0  0  0  0  0  0  0  0  0  0
   35.4059   -7.5041   14.0763 O   0  0  0  0  0  0  0  0  0  0  0  0
   33.7667   -5.9760   12.9017 O   0  0  0  0  0  0  0  0  0  0  0  0
   42.4511   -4.3279   10.5628 C   0  0  0  0  0  0  0  0  0  0  0  0
   42.6245   -5.4589    9.5203 C   0  0  0  0  0  0  0  0  0  0  0  0
   41.7044   -6.6319    9.7902 C   0  0  0  0  0  0  0  0  0  0  0  0
   41.8215   -7.3682   10.9781 C   0  0  0  0  0  0  0  0  0  0  0  0
   40.9423   -8.4157   11.2467 C   0  0  0  0  0  0  0  0  0  0  0  0
   39.9401   -8.7430   10.3341 C   0  0  0  0  0  0  0  0  0  0  0  0
   39.8130   -8.0181    9.1535 C   0  0  0  0  0  0  0  0  0  0  0  0
   40.6963   -6.9749    8.8768 C   0  0  0  0  0  0  0  0  0  0  0  0
   42.8243   -2.9403    9.9666 C   0  0  0  0  0  0  0  0  0  0  0  0
   43.4647   -2.0269   10.9444 N   0  0  0  0  0  0  0  0  0  0  0  0
   42.7843   -1.3320   11.2521 H   0  0  0  0  0  0  0  0  0  0  0  0
   44.6465   -1.3225   10.3068 C   0  0  0  0  0  0  0  0  0  0  0  0
   45.9472   -2.0385   10.7454 C   0  0  0  0  0  0  0  0  0  0  0  0
   46.0347   -2.6905   11.7821 O   0  0  0  0  0  0  0  0  0  0  0  0
   46.9689   -1.9566    9.8198 N   0  0  0  0  0  0  0  0  0  0  0  0
   46.8274   -1.4400    8.9938 H   0  0  0  0  0  0  0  0  0  0  0  0
   48.2436   -2.6116   10.0332 C   0  0  0  0  0  0  0  0  0  0  0  0
   48.7333   -3.3372    8.7707 C   0  0  0  0  0  0  0  0  0  0  0  0
   49.5995   -2.4314    7.8975 C   0  0  0  0  0  0  0  0  0  0  0  0
   49.5138   -4.5951    9.1599 C   0  0  0  0  0  0  0  0  0  0  0  0
   44.7188    0.2001   10.6703 C   0  0  0  0  0  0  0  0  0  0  0  0
   43.6987    0.7054   11.6900 C   0  0  0  0  0  0  0  0  0  0  0  0
   46.1906    1.4645   12.1275 C   0  0  0  0  0  0  0  0  0  0  0  0
   46.0469    0.6637   10.9644 O   0  0  0  0  0  0  0  0  0  0  0  0
 51 52  1  0
 52 49  1  0
 49 50  1  0
 49 40  1  0
 40 38  1  0
 38 37  1  0
 29 37  1  0
 29 30  1  0
 30 31  1  0
 31 32  2  0
 32 33  1  0
 33 34  2  0
 34 35  1  0
 35 36  2  0
 29  1  1  0
  1  2  1  0
  2  3  2  0
  2  5  1  0
  5  6  2  0
  6  7  1  0
  7 11  1  0
 11 12  2  0
 11 13  1  0
 13 15  1  0
 15 16  1  0
 15 17  1  0
 17 18  2  0
 18 19  1  0
 19 20  2  0
 20 21  1  0
 21 22  2  0
  7  8  2  0
  8  9  1  0
  9 23  1  0
 23 24  1  0
 23 25  1  0
 25 26  1  0
 25 27  2  0
 25 28  2  0
  9 10  2  0
 40 41  1  0
 41 42  2  0
 41 43  1  0
 43 45  1  0
 45 46  1  0
 46 47  1  0
 46 48  1  0
 36 31  1  0
 10  5  1  0
 22 17  1  0
 38 39  1  0
  1  4  1  0
 13 14  1  0
 43 44  1  0
M  END
> <minimizedAffinity>
-8.97007

> <CNNscore>
0.7747522593

> <CNNaffinity>
7.8914322853

> <CNN_VS>
6.1139049530

> <CNNaffinity_variance>
1.2614763975

$$$$



 52 54  0  0  0  0  0  0  0  0999 V2000
   41.6376   -4.1818   11.6912 N   0  0  0  0  0  0  0  0  0  0  0  0
   41.1164   -3.1747   12.4767 C   0  0  0  0  0  0  0  0  0  0  0  0
   41.7007   -2.1241   12.7121 O   0  0  0  0  0  0  0  0  0  0  0  0
   41.1396   -5.0285   11.6246 H   0  0  0  0  0  0  0  0  0  0  0  0
   39.7524   -3.3930   13.0303 C   0  0  0  0  0  0  0  0  0  0  0  0
   38.8470   -4.2618   12.4138 C   0  0  0  0  0  0  0  0  0  0  0  0
   37.5280   -4.3573   12.8763 C   0  0  0  0  0  0  0  0  0  0  0  0
   37.1131   -3.5586   13.9470 C   0  0  0  0  0  0  0  0  0  0  0  0
   38.0204   -2.7007   14.5711 C   0  0  0  0  0  0  0  0  0  0  0  0
   39.3391   -2.6177   14.1185 C   0  0  0  0  0  0  0  0  0  0  0  0
   36.5980   -5.2617   12.1409 C   0  0  0  0  0  0  0  0  0  0  0  0
   35.9160   -6.0522   12.7813 O   0  0  0  0  0  0  0  0  0  0  0  0
   36.5559   -5.1248   10.7717 N   0  0  0  0  0  0  0  0  0  0  0  0
   36.9886   -4.3333   10.3774 H   0  0  0  0  0  0  0  0  0  0  0  0
   35.9147   -6.0705    9.8635 C   0  0  0  0  0  0  0  0  0  0  0  0
   36.8762   -6.9931    9.1162 C   0  0  0  0  0  0  0  0  0  0  0  0
   34.9108   -5.3643    8.9695 C   0  0  0  0  0  0  0  0  0  0  0  0
   35.2730   -4.8849    7.6994 C   0  0  0  0  0  0  0  0  0  0  0  0
   34.3478   -4.2044    6.9023 C   0  0  0  0  0  0  0  0  0  0  0  0
   33.0479   -3.9926    7.3591 C   0  0  0  0  0  0  0  0  0  0  0  0
   32.6716   -4.4626    8.6169 C   0  0  0  0  0  0  0  0  0  0  0  0
   33.5970   -5.1373    9.4198 C   0  0  0  0  0  0  0  0  0  0  0  0
   37.5494   -1.8866   15.6569 N   0  0  0  0  0  0  0  0  0  0  0  0
   36.3719   -1.0448   15.3568 C   0  0  0  0  0  0  0  0  0  0  0  0
   38.7800   -1.1865   16.6119 S   0  0  0  0  0  0  0  0  0  0  0  0
   39.1608   -2.5391   17.7001 C   0  0  0  0  0  0  0  0  0  0  0  0
   38.2011   -0.1123   17.3918 O   0  0  0  0  0  0  0  0  0  0  0  0
   39.9521   -0.9803   15.7848 O   0  0  0  0  0  0  0  0  0  0  0  0
   42.9000   -4.0533   10.9484 C   0  0  0  0  0  0  0  0  0  0  0  0
   42.8794   -4.8839    9.6424 C   0  0  0  0  0  0  0  0  0  0  0  0
   41.9606   -6.0844    9.7421 C   0  0  0  0  0  0  0  0  0  0  0  0
   41.1151   -6.4226    8.6755 C   0  0  0  0  0  0  0  0  0  0  0  0
   40.3067   -7.5555    8.7497 C   0  0  0  0  0  0  0  0  0  0  0  0
   40.3295   -8.3611    9.8876 C   0  0  0  0  0  0  0  0  0  0  0  0
   41.1661   -8.0368   10.9508 C   0  0  0  0  0  0  0  0  0  0  0  0
   41.9699   -6.8990   10.8842 C   0  0  0  0  0  0  0  0  0  0  0  0
   43.2713   -2.5677   10.6740 C   0  0  0  0  0  0  0  0  0  0  0  0
   44.3087   -2.0358   11.5913 N   0  0  0  0  0  0  0  0  0  0  0  0
   43.8564   -1.5506   12.3662 H   0  0  0  0  0  0  0  0  0  0  0  0
   45.2134   -1.0679   10.8539 C   0  0  0  0  0  0  0  0  0  0  0  0
   46.6854   -1.4855   11.0903 C   0  0  0  0  0  0  0  0  0  0  0  0
   47.5576   -1.3756   10.2331 O   0  0  0  0  0  0  0  0  0  0  0  0
   46.9470   -1.9025   12.3805 N   0  0  0  0  0  0  0  0  0  0  0  0
   46.2086   -1.9436   13.0303 H   0  0  0  0  0  0  0  0  0  0  0  0
   48.2805   -2.2813   12.8024 C   0  0  0  0  0  0  0  0  0  0  0  0
   48.4596   -2.1488   14.3225 C   0  0  0  0  0  0  0  0  0  0  0  0
   49.7982   -2.7200   14.7864 C   0  0  0  0  0  0  0  0  0  0  0  0
   48.3427   -0.6800   14.7369 C   0  0  0  0  0  0  0  0  0  0  0  0
   44.9978    0.4220   11.2891 C   0  0  0  0  0  0  0  0  0  0  0  0
   43.5964    0.7937   11.7725 C   0  0  0  0  0  0  0  0  0  0  0  0
   45.9833    2.3152   12.4436 C   0  0  0  0  0  0  0  0  0  0  0  0
   46.0193    0.9234   12.1668 O   0  0  0  0  0  0  0  0  0  0  0  0
 51 52  1  0
 52 49  1  0
 49 50  1  0
 49 40  1  0
 40 38  1  0
 38 37  1  0
 29 37  1  0
 29 30  1  0
 30 31  1  0
 31 32  2  0
 32 33  1  0
 33 34  2  0
 34 35  1  0
 35 36  2  0
 29  1  1  0
  1  2  1  0
  2  3  2  0
  2  5  1  0
  5  6  2  0
  6  7  1  0
  7 11  1  0
 11 12  2  0
 11 13  1  0
 13 15  1  0
 15 16  1  0
 15 17  1  0
 17 18  2  0
 18 19  1  0
 19 20  2  0
 20 21  1  0
 21 22  2  0
  7  8  2  0
  8  9  1  0
  9 23  1  0
 23 24  1  0
 23 25  1  0
 25 26  1  0
 25 27  2  0
 25 28  2  0
  9 10  2  0
 40 41  1  0
 41 42  2  0
 41 43  1  0
 43 45  1  0
 45 46  1  0
 46 47  1  0
 46 48  1  0
 36 31  1  0
 10  5  1  0
 22 17  1  0
 38 39  1  0
  1  4  1  0
 13 14  1  0
 43 44  1  0
M  END
> <minimizedAffinity>
-10.91284

> <CNNscore>
0.6431498528

> <CNNaffinity>
7.8846116066

> <CNN_VS>
5.0709867477

> <CNNaffinity_variance>
0.7698734403

$$$$



 52 54  0  0  0  0  0  0  0  0999 V2000
   41.1328   -4.3727   10.7560 N   0  0  0  0  0  0  0  0  0  0  0  0
   40.9820   -4.1203   12.1038 C   0  0  0  0  0  0  0  0  0  0  0  0
   41.9153   -4.0742   12.8959 O   0  0  0  0  0  0  0  0  0  0  0  0
   40.3229   -4.4785   10.2063 H   0  0  0  0  0  0  0  0  0  0  0  0
   39.5984   -3.8630   12.5879 C   0  0  0  0  0  0  0  0  0  0  0  0
   39.3367   -2.8971   13.5641 C   0  0  0  0  0  0  0  0  0  0  0  0
   38.0485   -2.7578   14.0971 C   0  0  0  0  0  0  0  0  0  0  0  0
   37.0269   -3.6091   13.6632 C   0  0  0  0  0  0  0  0  0  0  0  0
   37.2850   -4.5648   12.6790 C   0  0  0  0  0  0  0  0  0  0  0  0
   38.5662   -4.6923   12.1377 C   0  0  0  0  0  0  0  0  0  0  0  0
   37.8481   -1.7460   15.1739 C   0  0  0  0  0  0  0  0  0  0  0  0
   37.2419   -0.7155   14.9083 O   0  0  0  0  0  0  0  0  0  0  0  0
   38.3486   -2.0590   16.4177 N   0  0  0  0  0  0  0  0  0  0  0  0
   38.6382   -2.9868   16.5742 H   0  0  0  0  0  0  0  0  0  0  0  0
   38.4799   -1.1121   17.5206 C   0  0  0  0  0  0  0  0  0  0  0  0
   39.8764   -1.0349   18.1353 C   0  0  0  0  0  0  0  0  0  0  0  0
   37.3653   -1.3055   18.5335 C   0  0  0  0  0  0  0  0  0  0  0  0
   36.0221   -1.0667   18.1972 C   0  0  0  0  0  0  0  0  0  0  0  0
   35.0102   -1.2138   19.1505 C   0  0  0  0  0  0  0  0  0  0  0  0
   35.3221   -1.6019   20.4526 C   0  0  0  0  0  0  0  0  0  0  0  0
   36.6501   -1.8437   20.8029 C   0  0  0  0  0  0  0  0  0  0  0  0
   37.6655   -1.6901   19.8534 C   0  0  0  0  0  0  0  0  0  0  0  0
   36.2119   -5.4292   12.2729 N   0  0  0  0  0  0  0  0  0  0  0  0
   35.9269   -6.5598   13.1817 C   0  0  0  0  0  0  0  0  0  0  0  0
   36.1442   -5.7461   10.5962 S   0  0  0  0  0  0  0  0  0  0  0  0
   34.6575   -6.7158   10.5051 C   0  0  0  0  0  0  0  0  0  0  0  0
   37.2689   -6.5867   10.2419 O   0  0  0  0  0  0  0  0  0  0  0  0
   35.8710   -4.5061    9.8976 O   0  0  0  0  0  0  0  0  0  0  0  0
   42.4433   -4.4916   10.0999 C   0  0  0  0  0  0  0  0  0  0  0  0
   42.5474   -5.7925    9.2675 C   0  0  0  0  0  0  0  0  0  0  0  0
   41.6096   -6.8707    9.7711 C   0  0  0  0  0  0  0  0  0  0  0  0
   40.5948   -7.3730    8.9435 C   0  0  0  0  0  0  0  0  0  0  0  0
   39.7647   -8.3992    9.3911 C   0  0  0  0  0  0  0  0  0  0  0  0
   39.9343   -8.9332   10.6680 C   0  0  0  0  0  0  0  0  0  0  0  0
   40.9392   -8.4444   11.4968 C   0  0  0  0  0  0  0  0  0  0  0  0
   41.7662   -7.4116   11.0560 C   0  0  0  0  0  0  0  0  0  0  0  0
   42.7880   -3.2383    9.2452 C   0  0  0  0  0  0  0  0  0  0  0  0
   44.1933   -2.7868    9.3935 N   0  0  0  0  0  0  0  0  0  0  0  0
   44.8156   -3.4807    8.9792 H   0  0  0  0  0  0  0  0  0  0  0  0
   44.5371   -2.6183   10.8607 C   0  0  0  0  0  0  0  0  0  0  0  0
   44.0068   -1.2452   11.3406 C   0  0  0  0  0  0  0  0  0  0  0  0
   42.8790   -1.0872   11.7999 O   0  0  0  0  0  0  0  0  0  0  0  0
   44.9481   -0.2359   11.2938 N   0  0  0  0  0  0  0  0  0  0  0  0
   45.8451   -0.4327   10.9390 H   0  0  0  0  0  0  0  0  0  0  0  0
   44.6495    1.1054   11.7537 C   0  0  0  0  0  0  0  0  0  0  0  0
   45.8890    2.0125   11.7178 C   0  0  0  0  0  0  0  0  0  0  0  0
   45.5772    3.4171   12.2307 C   0  0  0  0  0  0  0  0  0  0  0  0
   47.0172    1.3895   12.5436 C   0  0  0  0  0  0  0  0  0  0  0  0
   46.0738   -2.7336   11.1451 C   0  0  0  0  0  0  0  0  0  0  0  0
   47.0083   -2.3737    9.9905 C   0  0  0  0  0  0  0  0  0  0  0  0
   47.8728   -2.1504   12.6656 C   0  0  0  0  0  0  0  0  0  0  0  0
   46.4830   -2.1199   12.3784 O   0  0  0  0  0  0  0  0  0  0  0  0
 51 52  1  0
 52 49  1  0
 49 50  1  0
 49 40  1  0
 40 38  1  0
 38 37  1  0
 29 37  1  0
 29 30  1  0
 30 31  1  0
 31 32  2  0
 32 33  1  0
 33 34  2  0
 34 35  1  0
 35 36  2  0
 29  1  1  0
  1  2  1  0
  2  3  2  0
  2  5  1  0
  5  6  2  0
  6  7  1  0
  7 11  1  0
 11 12  2  0
 11 13  1  0
 13 15  1  0
 15 16  1  0
 15 17  1  0
 17 18  2  0
 18 19  1  0
 19 20  2  0
 20 21  1  0
 21 22  2  0
  7  8  2  0
  8  9  1  0
  9 23  1  0
 23 24  1  0
 23 25  1  0
 25 26  1  0
 25 27  2  0
 25 28  2  0
  9 10  2  0
 40 41  1  0
 41 42  2  0
 41 43  1  0
 43 45  1  0
 45 46  1  0
 46 47  1  0
 46 48  1  0
 36 31  1  0
 10  5  1  0
 22 17  1  0
 38 39  1  0
  1  4  1  0
 13 14  1  0
 43 44  1  0
M  END
> <minimizedAffinity>
-9.75989

> <CNNscore>
0.6049762964

> <CNNaffinity>
7.6691584587

> <CNN_VS>
4.6396589279

> <CNNaffinity_variance>
1.3580174446

$$$$



 52 54  0  0  0  0  0  0  0  0999 V2000
   41.8580   -3.1323   12.6247 N   0  0  0  0  0  0  0  0  0  0  0  0
   41.2248   -2.0060   13.1079 C   0  0  0  0  0  0  0  0  0  0  0  0
   41.5317   -0.8636   12.7897 O   0  0  0  0  0  0  0  0  0  0  0  0
   41.6062   -4.0075   12.9988 H   0  0  0  0  0  0  0  0  0  0  0  0
   40.0884   -2.2242   14.0436 C   0  0  0  0  0  0  0  0  0  0  0  0
   38.9524   -2.9404   13.6545 C   0  0  0  0  0  0  0  0  0  0  0  0
   37.8422   -3.0266   14.5048 C   0  0  0  0  0  0  0  0  0  0  0  0
   37.8668   -2.3704   15.7398 C   0  0  0  0  0  0  0  0  0  0  0  0
   39.0059   -1.6663   16.1341 C   0  0  0  0  0  0  0  0  0  0  0  0
   40.1176   -1.5938   15.2917 C   0  0  0  0  0  0  0  0  0  0  0  0
   36.6422   -3.7591   14.0079 C   0  0  0  0  0  0  0  0  0  0  0  0
   35.5663   -3.5714   14.5622 O   0  0  0  0  0  0  0  0  0  0  0  0
   36.8292   -4.5917   12.9276 N   0  0  0  0  0  0  0  0  0  0  0  0
   37.6790   -4.5194   12.4357 H   0  0  0  0  0  0  0  0  0  0  0  0
   35.8563   -5.5742   12.4601 C   0  0  0  0  0  0  0  0  0  0  0  0
   35.2827   -6.4767   13.5513 C   0  0  0  0  0  0  0  0  0  0  0  0
   36.3845   -6.3227   11.2491 C   0  0  0  0  0  0  0  0  0  0  0  0
   35.5976   -6.5000   10.0986 C   0  0  0  0  0  0  0  0  0  0  0  0
   36.0838   -7.2227    9.0051 C   0  0  0  0  0  0  0  0  0  0  0  0
   37.3618   -7.7784    9.0420 C   0  0  0  0  0  0  0  0  0  0  0  0
   38.1563   -7.6112   10.1759 C   0  0  0  0  0  0  0  0  0  0  0  0
   37.6698   -6.8951   11.2743 C   0  0  0  0  0  0  0  0  0  0  0  0
   38.9839   -0.9938   17.4033 N   0  0  0  0  0  0  0  0  0  0  0  0
   39.7341   -1.6596   18.4892 C   0  0  0  0  0  0  0  0  0  0  0  0
   37.4822   -0.2926   17.8151 S   0  0  0  0  0  0  0  0  0  0  0  0
   37.9662    0.7450   19.1746 C   0  0  0  0  0  0  0  0  0  0  0  0
   36.6100   -1.3351   18.3147 O   0  0  0  0  0  0  0  0  0  0  0  0
   37.0724    0.5947   16.7450 O   0  0  0  0  0  0  0  0  0  0  0  0
   42.8904   -3.0903   11.5786 C   0  0  0  0  0  0  0  0  0  0  0  0
   42.3039   -3.4260   10.1859 C   0  0  0  0  0  0  0  0  0  0  0  0
   42.0888   -4.9140    9.9991 C   0  0  0  0  0  0  0  0  0  0  0  0
   41.9234   -5.7531   11.1107 C   0  0  0  0  0  0  0  0  0  0  0  0
   41.6766   -7.1135   10.9353 C   0  0  0  0  0  0  0  0  0  0  0  0
   41.5954   -7.6528    9.6520 C   0  0  0  0  0  0  0  0  0  0  0  0
   41.7555   -6.8296    8.5419 C   0  0  0  0  0  0  0  0  0  0  0  0
   42.0115   -5.4694    8.7132 C   0  0  0  0  0  0  0  0  0  0  0  0
   43.6566   -1.7365   11.5636 C   0  0  0  0  0  0  0  0  0  0  0  0
   44.1370   -1.3410   10.2170 N   0  0  0  0  0  0  0  0  0  0  0  0
   44.2299   -2.1733    9.6346 H   0  0  0  0  0  0  0  0  0  0  0  0
   45.4831   -0.6510   10.3229 C   0  0  0  0  0  0  0  0  0  0  0  0
   46.5534   -1.7050   10.6979 C   0  0  0  0  0  0  0  0  0  0  0  0
   46.3766   -2.5594   11.5618 O   0  0  0  0  0  0  0  0  0  0  0  0
   47.6853   -1.6566    9.9083 N   0  0  0  0  0  0  0  0  0  0  0  0
   47.7558   -0.9631    9.2131 H   0  0  0  0  0  0  0  0  0  0  0  0
   48.7718   -2.6003   10.0767 C   0  0  0  0  0  0  0  0  0  0  0  0
   48.9979   -3.4450    8.8134 C   0  0  0  0  0  0  0  0  0  0  0  0
   49.6951   -2.6446    7.7149 C   0  0  0  0  0  0  0  0  0  0  0  0
   49.8177   -4.6910    9.1572 C   0  0  0  0  0  0  0  0  0  0  0  0
   45.4890    0.5196   11.3646 C   0  0  0  0  0  0  0  0  0  0  0  0
   44.1496    1.2099   11.6202 C   0  0  0  0  0  0  0  0  0  0  0  0
   47.0524    1.1964   13.0927 C   0  0  0  0  0  0  0  0  0  0  0  0
   46.1724    0.2032   12.5886 O   0  0  0  0  0  0  0  0  0  0  0  0
 51 52  1  0
 52 49  1  0
 49 50  1  0
 49 40  1  0
 40 38  1  0
 38 37  1  0
 29 37  1  0
 29 30  1  0
 30 31  1  0
 31 32  2  0
 32 33  1  0
 33 34  2  0
 34 35  1  0
 35 36  2  0
 29  1  1  0
  1  2  1  0
  2  3  2  0
  2  5  1  0
  5  6  2  0
  6  7  1  0
  7 11  1  0
 11 12  2  0
 11 13  1  0
 13 15  1  0
 15 16  1  0
 15 17  1  0
 17 18  2  0
 18 19  1  0
 19 20  2  0
 20 21  1  0
 21 22  2  0
  7  8  2  0
  8  9  1  0
  9 23  1  0
 23 24  1  0
 23 25  1  0
 25 26  1  0
 25 27  2  0
 25 28  2  0
  9 10  2  0
 40 41  1  0
 41 42  2  0
 41 43  1  0
 43 45  1  0
 45 46  1  0
 46 47  1  0
 46 48  1  0
 36 31  1  0
 10  5  1  0
 22 17  1  0
 38 39  1  0
  1  4  1  0
 13 14  1  0
 43 44  1  0
M  END
> <minimizedAffinity>
-10.11995

> <CNNscore>
0.5502293706

> <CNNaffinity>
7.3002791405

> <CNN_VS>
4.0168280602

> <CNNaffinity_variance>
1.7362765074

$$$$



 52 54  0  0  0  0  0  0  0  0999 V2000
   42.2307   -3.6913   10.4307 N   0  0  0  0  0  0  0  0  0  0  0  0
   43.0938   -3.4047   11.4680 C   0  0  0  0  0  0  0  0  0  0  0  0
   43.0917   -3.9994   12.5389 O   0  0  0  0  0  0  0  0  0  0  0  0
   42.2418   -3.1077    9.6379 H   0  0  0  0  0  0  0  0  0  0  0  0
   44.0930   -2.3274   11.2316 C   0  0  0  0  0  0  0  0  0  0  0  0
   45.3926   -2.6203   10.8074 C   0  0  0  0  0  0  0  0  0  0  0  0
   46.3538   -1.6054   10.7128 C   0  0  0  0  0  0  0  0  0  0  0  0
   46.0120   -0.2966   11.0687 C   0  0  0  0  0  0  0  0  0  0  0  0
   44.7110   -0.0016   11.4797 C   0  0  0  0  0  0  0  0  0  0  0  0
   43.7498   -1.0118   11.5592 C   0  0  0  0  0  0  0  0  0  0  0  0
   47.7352   -1.9930   10.3067 C   0  0  0  0  0  0  0  0  0  0  0  0
   48.6833   -1.3885   10.7923 O   0  0  0  0  0  0  0  0  0  0  0  0
   47.8482   -3.0366    9.4159 N   0  0  0  0  0  0  0  0  0  0  0  0
   47.0454   -3.5796    9.2430 H   0  0  0  0  0  0  0  0  0  0  0  0
   49.0744   -3.3946    8.7098 C   0  0  0  0  0  0  0  0  0  0  0  0
   49.2846   -4.8949    8.5121 C   0  0  0  0  0  0  0  0  0  0  0  0
   50.2704   -2.6731    9.3054 C   0  0  0  0  0  0  0  0  0  0  0  0
   51.0090   -1.7409    8.5572 C   0  0  0  0  0  0  0  0  0  0  0  0
   52.1297   -1.1113    9.1068 C   0  0  0  0  0  0  0  0  0  0  0  0
   52.5300   -1.4008   10.4103 C   0  0  0  0  0  0  0  0  0  0  0  0
   51.8076   -2.3229   11.1671 C   0  0  0  0  0  0  0  0  0  0  0  0
   50.6904   -2.9600   10.6175 C   0  0  0  0  0  0  0  0  0  0  0  0
   44.4060    1.3522   11.8512 N   0  0  0  0  0  0  0  0  0  0  0  0
   43.7016    2.1501   10.8254 C   0  0  0  0  0  0  0  0  0  0  0  0
   45.6297    2.1421   12.7428 S   0  0  0  0  0  0  0  0  0  0  0  0
   46.9216    2.2250   11.5250 C   0  0  0  0  0  0  0  0  0  0  0  0
   46.0567    1.2653   13.8133 O   0  0  0  0  0  0  0  0  0  0  0  0
   45.2146    3.5072   12.9969 O   0  0  0  0  0  0  0  0  0  0  0  0
   41.2950   -4.8254   10.4507 C   0  0  0  0  0  0  0  0  0  0  0  0
   42.0089   -6.1585   10.1201 C   0  0  0  0  0  0  0  0  0  0  0  0
   41.1378   -7.3625   10.4148 C   0  0  0  0  0  0  0  0  0  0  0  0
   40.3341   -7.9210    9.4103 C   0  0  0  0  0  0  0  0  0  0  0  0
   39.5712   -9.0581    9.6699 C   0  0  0  0  0  0  0  0  0  0  0  0
   39.5981   -9.6486   10.9328 C   0  0  0  0  0  0  0  0  0  0  0  0
   40.3935   -9.1047   11.9363 C   0  0  0  0  0  0  0  0  0  0  0  0
   41.1514   -7.9617   11.6832 C   0  0  0  0  0  0  0  0  0  0  0  0
   40.5101   -4.9157   11.7908 C   0  0  0  0  0  0  0  0  0  0  0  0
   39.7731   -3.6743   12.1318 N   0  0  0  0  0  0  0  0  0  0  0  0
   40.4410   -2.9356   12.3523 H   0  0  0  0  0  0  0  0  0  0  0  0
   38.8747   -3.9111   13.3302 C   0  0  0  0  0  0  0  0  0  0  0  0
   37.4513   -4.2506   12.8246 C   0  0  0  0  0  0  0  0  0  0  0  0
   36.4338   -3.9668   13.4506 O   0  0  0  0  0  0  0  0  0  0  0  0
   37.4263   -4.8145   11.5643 N   0  0  0  0  0  0  0  0  0  0  0  0
   38.2769   -4.9934   11.1019 H   0  0  0  0  0  0  0  0  0  0  0  0
   36.1803   -5.1499   10.9049 C   0  0  0  0  0  0  0  0  0  0  0  0
   36.1525   -6.6151   10.4439 C   0  0  0  0  0  0  0  0  0  0  0  0
   36.5564   -6.7546    8.9774 C   0  0  0  0  0  0  0  0  0  0  0  0
   37.0758   -7.4588   11.3262 C   0  0  0  0  0  0  0  0  0  0  0  0
   38.8236   -2.6866   14.3068 C   0  0  0  0  0  0  0  0  0  0  0  0
   37.9273   -1.5210   13.8902 C   0  0  0  0  0  0  0  0  0  0  0  0
   39.6190   -2.6107   16.5980 C   0  0  0  0  0  0  0  0  0  0  0  0
   38.6268   -3.0502   15.6831 O   0  0  0  0  0  0  0  0  0  0  0  0
 51 52  1  0
 52 49  1  0
 49 50  1  0
 49 40  1  0
 40 38  1  0
 38 37  1  0
 29 37  1  0
 29 30  1  0
 30 31  1  0
 31 32  2  0
 32 33  1  0
 33 34  2  0
 34 35  1  0
 35 36  2  0
 29  1  1  0
  1  2  1  0
  2  3  2  0
  2  5  1  0
  5  6  2  0
  6  7  1  0
  7 11  1  0
 11 12  2  0
 11 13  1  0
 13 15  1  0
 15 16  1  0
 15 17  1  0
 17 18  2  0
 18 19  1  0
 19 20  2  0
 20 21  1  0
 21 22  2  0
  7  8  2  0
  8  9  1  0
  9 23  1  0
 23 24  1  0
 23 25  1  0
 25 26  1  0
 25 27  2  0
 25 28  2  0
  9 10  2  0
 40 41  1  0
 41 42  2  0
 41 43  1  0
 43 45  1  0
 45 46  1  0
 46 47  1  0
 46 48  1  0
 36 31  1  0
 10  5  1  0
 22 17  1  0
 38 39  1  0
  1  4  1  0
 13 14  1  0
 43 44  1  0
M  END
> <minimizedAffinity>
-7.50396

> <CNNscore>
0.2620914876

> <CNNaffinity>
7.2381081581

> <CNN_VS>
1.8970465660

> <CNNaffinity_variance>
0.9284933209

$$$$



 52 54  0  0  0  0  0  0  0  0999 V2000
   44.5896   -3.0762   10.7377 N   0  0  0  0  0  0  0  0  0  0  0  0
   45.4833   -2.0570   10.4813 C   0  0  0  0  0  0  0  0  0  0  0  0
   45.1622   -0.9734   10.0089 O   0  0  0  0  0  0  0  0  0  0  0  0
   44.9437   -3.9450   11.0360 H   0  0  0  0  0  0  0  0  0  0  0  0
   46.9064   -2.3067   10.8378 C   0  0  0  0  0  0  0  0  0  0  0  0
   47.3686   -2.1415   12.1469 C   0  0  0  0  0  0  0  0  0  0  0  0
   48.7342   -2.2579   12.4373 C   0  0  0  0  0  0  0  0  0  0  0  0
   49.6394   -2.5180   11.4031 C   0  0  0  0  0  0  0  0  0  0  0  0
   49.1767   -2.6960   10.0981 C   0  0  0  0  0  0  0  0  0  0  0  0
   47.8132   -2.5945    9.8128 C   0  0  0  0  0  0  0  0  0  0  0  0
   49.1683   -2.0164   13.8432 C   0  0  0  0  0  0  0  0  0  0  0  0
   49.7898   -0.9928   14.1001 O   0  0  0  0  0  0  0  0  0  0  0  0
   48.8130   -2.9681   14.7724 N   0  0  0  0  0  0  0  0  0  0  0  0
   48.1495   -3.6442   14.5043 H   0  0  0  0  0  0  0  0  0  0  0  0
   49.3508   -3.0453   16.1271 C   0  0  0  0  0  0  0  0  0  0  0  0
   49.4039   -4.4541   16.7157 C   0  0  0  0  0  0  0  0  0  0  0  0
   48.6885   -2.0196   17.0299 C   0  0  0  0  0  0  0  0  0  0  0  0
   49.3175   -1.5600   18.1992 C   0  0  0  0  0  0  0  0  0  0  0  0
   48.6801   -0.6428   19.0399 C   0  0  0  0  0  0  0  0  0  0  0  0
   47.4068   -0.1694   18.7268 C   0  0  0  0  0  0  0  0  0  0  0  0
   46.7685   -0.6146   17.5696 C   0  0  0  0  0  0  0  0  0  0  0  0
   47.4006   -1.5379   16.7305 C   0  0  0  0  0  0  0  0  0  0  0  0
   50.1411   -2.9459    9.0632 N   0  0  0  0  0  0  0  0  0  0  0  0
   50.6593   -1.7457    8.3731 C   0  0  0  0  0  0  0  0  0  0  0  0
   49.8144   -4.3155    8.0969 S   0  0  0  0  0  0  0  0  0  0  0  0
   51.2425   -5.3135    8.4483 C   0  0  0  0  0  0  0  0  0  0  0  0
   49.8579   -3.9168    6.7053 O   0  0  0  0  0  0  0  0  0  0  0  0
   48.6745   -5.0173    8.6522 O   0  0  0  0  0  0  0  0  0  0  0  0
   43.1343   -2.9289   10.5875 C   0  0  0  0  0  0  0  0  0  0  0  0
   42.6281   -3.5812    9.2782 C   0  0  0  0  0  0  0  0  0  0  0  0
   42.1764   -5.0119    9.4891 C   0  0  0  0  0  0  0  0  0  0  0  0
   41.5526   -5.7203    8.4518 C   0  0  0  0  0  0  0  0  0  0  0  0
   41.1823   -7.0518    8.6319 C   0  0  0  0  0  0  0  0  0  0  0  0
   41.4263   -7.6904    9.8472 C   0  0  0  0  0  0  0  0  0  0  0  0
   42.0466   -6.9983   10.8825 C   0  0  0  0  0  0  0  0  0  0  0  0
   42.4106   -5.6632   10.7094 C   0  0  0  0  0  0  0  0  0  0  0  0
   42.3592   -3.4612   11.8268 C   0  0  0  0  0  0  0  0  0  0  0  0
   40.9824   -2.9213   11.9428 N   0  0  0  0  0  0  0  0  0  0  0  0
   41.0273   -1.9134   12.0930 H   0  0  0  0  0  0  0  0  0  0  0  0
   40.2619   -3.5699   13.1087 C   0  0  0  0  0  0  0  0  0  0  0  0
   38.8742   -4.0579   12.6258 C   0  0  0  0  0  0  0  0  0  0  0  0
   37.8782   -3.3399   12.6185 O   0  0  0  0  0  0  0  0  0  0  0  0
   38.8800   -5.3413   12.1161 N   0  0  0  0  0  0  0  0  0  0  0  0
   39.7184   -5.8574   12.1257 H   0  0  0  0  0  0  0  0  0  0  0  0
   37.6840   -5.9479   11.5675 C   0  0  0  0  0  0  0  0  0  0  0  0
   38.0155   -7.0868   10.5910 C   0  0  0  0  0  0  0  0  0  0  0  0
   38.3944   -8.3706   11.3268 C   0  0  0  0  0  0  0  0  0  0  0  0
   36.8251   -7.3438    9.6637 C   0  0  0  0  0  0  0  0  0  0  0  0
   40.1000   -2.6102   14.3369 C   0  0  0  0  0  0  0  0  0  0  0  0
   40.2814   -1.1177   14.0627 C   0  0  0  0  0  0  0  0  0  0  0  0
   38.4632   -1.8029   15.9362 C   0  0  0  0  0  0  0  0  0  0  0  0
   38.9290   -2.8726   15.1275 O   0  0  0  0  0  0  0  0  0  0  0  0
 51 52  1  0
 52 49  1  0
 49 50  1  0
 49 40  1  0
 40 38  1  0
 38 37  1  0
 29 37  1  0
 29 30  1  0
 30 31  1  0
 31 32  2  0
 32 33  1  0
 33 34  2  0
 34 35  1  0
 35 36  2  0
 29  1  1  0
  1  2  1  0
  2  3  2  0
  2  5  1  0
  5  6  2  0
  6  7  1  0
  7 11  1  0
 11 12  2  0
 11 13  1  0
 13 15  1  0
 15 16  1  0
 15 17  1  0
 17 18  2  0
 18 19  1  0
 19 20  2  0
 20 21  1  0
 21 22  2  0
  7  8  2  0
  8  9  1  0
  9 23  1  0
 23 24  1  0
 23 25  1  0
 25 26  1  0
 25 27  2  0
 25 28  2  0
  9 10  2  0
 40 41  1  0
 41 42  2  0
 41 43  1  0
 43 45  1  0
 45 46  1  0
 46 47  1  0
 46 48  1  0
 36 31  1  0
 10  5  1  0
 22 17  1  0
 38 39  1  0
  1  4  1  0
 13 14  1  0
 43 44  1  0
M  END
> <minimizedAffinity>
-8.84133

> <CNNscore>
0.1260809004

> <CNNaffinity>
6.8308262825

> <CNN_VS>
0.8612367511

> <CNNaffinity_variance>
0.7297957540

$$$$



 52 54  0  0  0  0  0  0  0  0999 V2000
   44.0565   -3.2785   10.6111 N   0  0  0  0  0  0  0  0  0  0  0  0
   44.8872   -2.2170   10.3174 C   0  0  0  0  0  0  0  0  0  0  0  0
   44.5155   -1.2007    9.7434 O   0  0  0  0  0  0  0  0  0  0  0  0
   44.4552   -4.0922   10.9959 H   0  0  0  0  0  0  0  0  0  0  0  0
   46.3027   -2.3292   10.7630 C   0  0  0  0  0  0  0  0  0  0  0  0
   46.6539   -2.2030   12.1104 C   0  0  0  0  0  0  0  0  0  0  0  0
   48.0013   -2.1851   12.4938 C   0  0  0  0  0  0  0  0  0  0  0  0
   48.9977   -2.2706   11.5159 C   0  0  0  0  0  0  0  0  0  0  0  0
   48.6473   -2.4099   10.1718 C   0  0  0  0  0  0  0  0  0  0  0  0
   47.3035   -2.4427    9.7926 C   0  0  0  0  0  0  0  0  0  0  0  0
   48.3092   -1.9930   13.9401 C   0  0  0  0  0  0  0  0  0  0  0  0
   47.8311   -1.0264   14.5207 O   0  0  0  0  0  0  0  0  0  0  0  0
   49.1050   -2.9460   14.5349 N   0  0  0  0  0  0  0  0  0  0  0  0
   49.2701   -3.7795   14.0378 H   0  0  0  0  0  0  0  0  0  0  0  0
   49.7213   -2.8075   15.8508 C   0  0  0  0  0  0  0  0  0  0  0  0
   51.2120   -3.1385   15.8977 C   0  0  0  0  0  0  0  0  0  0  0  0
   48.8946   -3.5135   16.9108 C   0  0  0  0  0  0  0  0  0  0  0  0
   47.8094   -2.8767   17.5362 C   0  0  0  0  0  0  0  0  0  0  0  0
   47.0799   -3.5261   18.5364 C   0  0  0  0  0  0  0  0  0  0  0  0
   47.4207   -4.8201   18.9273 C   0  0  0  0  0  0  0  0  0  0  0  0
   48.4944   -5.4670   18.3163 C   0  0  0  0  0  0  0  0  0  0  0  0
   49.2309   -4.8171   17.3205 C   0  0  0  0  0  0  0  0  0  0  0  0
   49.7013   -2.4787    9.1982 N   0  0  0  0  0  0  0  0  0  0  0  0
   49.2701   -2.7604    7.8126 C   0  0  0  0  0  0  0  0  0  0  0  0
   51.1253   -3.2506    9.7392 S   0  0  0  0  0  0  0  0  0  0  0  0
   52.3081   -1.9402    9.5318 C   0  0  0  0  0  0  0  0  0  0  0  0
   51.4486   -4.3180    8.8154 O   0  0  0  0  0  0  0  0  0  0  0  0
   51.0160   -3.4852   11.1652 O   0  0  0  0  0  0  0  0  0  0  0  0
   42.6050   -3.2546   10.3776 C   0  0  0  0  0  0  0  0  0  0  0  0
   42.2244   -4.0079    9.0800 C   0  0  0  0  0  0  0  0  0  0  0  0
   41.8092   -5.4397    9.3503 C   0  0  0  0  0  0  0  0  0  0  0  0
   40.9966   -6.1282    8.4378 C   0  0  0  0  0  0  0  0  0  0  0  0
   40.6564   -7.4606    8.6640 C   0  0  0  0  0  0  0  0  0  0  0  0
   41.1188   -8.1200    9.8024 C   0  0  0  0  0  0  0  0  0  0  0  0
   41.9274   -7.4478   10.7133 C   0  0  0  0  0  0  0  0  0  0  0  0
   42.2628   -6.1118   10.4951 C   0  0  0  0  0  0  0  0  0  0  0  0
   41.8045   -3.7859   11.6012 C   0  0  0  0  0  0  0  0  0  0  0  0
   40.4614   -3.1724   11.7437 N   0  0  0  0  0  0  0  0  0  0  0  0
   40.5616   -2.1627   11.8485 H   0  0  0  0  0  0  0  0  0  0  0  0
   39.7554   -3.7348   12.9621 C   0  0  0  0  0  0  0  0  0  0  0  0
   38.2862   -4.0455   12.5855 C   0  0  0  0  0  0  0  0  0  0  0  0
   37.3507   -3.3044   12.8741 O   0  0  0  0  0  0  0  0  0  0  0  0
   38.1358   -5.1813   11.8146 N   0  0  0  0  0  0  0  0  0  0  0  0
   38.9298   -5.7200   11.5941 H   0  0  0  0  0  0  0  0  0  0  0  0
   36.8393   -5.6006   11.3218 C   0  0  0  0  0  0  0  0  0  0  0  0
   36.8797   -7.0222   10.7405 C   0  0  0  0  0  0  0  0  0  0  0  0
   36.9824   -7.0076    9.2165 C   0  0  0  0  0  0  0  0  0  0  0  0
   38.0549   -7.7989   11.3393 C   0  0  0  0  0  0  0  0  0  0  0  0
   39.8046   -2.7701   14.1961 C   0  0  0  0  0  0  0  0  0  0  0  0
   40.2319   -1.3295   13.9169 C   0  0  0  0  0  0  0  0  0  0  0  0
   38.5568   -1.8789   16.0768 C   0  0  0  0  0  0  0  0  0  0  0  0
   38.6339   -2.8315   15.0273 O   0  0  0  0  0  0  0  0  0  0  0  0
 51 52  1  0
 52 49  1  0
 49 50  1  0
 49 40  1  0
 40 38  1  0
 38 37  1  0
 29 37  1  0
 29 30  1  0
 30 31  1  0
 31 32  2  0
 32 33  1  0
 33 34  2  0
 34 35  1  0
 35 36  2  0
 29  1  1  0
  1  2  1  0
  2  3  2  0
  2  5  1  0
  5  6  2  0
  6  7  1  0
  7 11  1  0
 11 12  2  0
 11 13  1  0
 13 15  1  0
 15 16  1  0
 15 17  1  0
 17 18  2  0
 18 19  1  0
 19 20  2  0
 20 21  1  0
 21 22  2  0
  7  8  2  0
  8  9  1  0
  9 23  1  0
 23 24  1  0
 23 25  1  0
 25 26  1  0
 25 27  2  0
 25 28  2  0
  9 10  2  0
 40 41  1  0
 41 42  2  0
 41 43  1  0
 43 45  1  0
 45 46  1  0
 46 47  1  0
 46 48  1  0
 36 31  1  0
 10  5  1  0
 22 17  1  0
 38 39  1  0
  1  4  1  0
 13 14  1  0
 43 44  1  0
M  END
> <minimizedAffinity>
-9.85197

> <CNNscore>
0.1240363866

> <CNNaffinity>
6.5779442787

> <CNN_VS>
0.8159044385

> <CNNaffinity_variance>
1.4076420069

$$$$
