


 27 30  0  0  0  0  0  0  0  0999 V2000
   -6.1834    7.2750   25.0741 C   0  0  0  0  0  0  0  0  0  0  0  0
   -5.9930    8.4080   25.8784 C   0  0  0  0  0  0  0  0  0  0  0  0
   -6.6070    8.4948   27.1214 C   0  0  0  0  0  0  0  0  0  0  0  0
   -6.3924    9.6235   27.8555 O   0  0  0  0  0  0  0  0  0  0  0  0
   -7.4090    7.4625   27.5959 C   0  0  0  0  0  0  0  0  0  0  0  0
   -7.6033    6.3106   26.8167 C   0  0  0  0  0  0  0  0  0  0  0  0
   -7.0048    6.2391   25.5485 C   0  0  0  0  0  0  0  0  0  0  0  0
   -7.1591    5.1426   24.7398 O   0  0  0  0  0  0  0  0  0  0  0  0
   -8.4223    4.4918   24.9141 C   0  0  0  0  0  0  0  0  0  0  0  0
   -8.5932    4.0106   26.3563 C   0  0  0  0  0  0  0  0  0  0  0  0
   -7.5590    2.9872   26.8381 C   0  0  0  0  0  0  0  0  0  0  0  0
   -7.7010    3.0612   28.3473 C   0  0  0  0  0  0  0  0  0  0  0  0
   -7.8490    4.5513   28.6296 C   0  0  0  0  0  0  0  0  0  0  0  0
   -8.4480    5.1763   27.3514 C   0  0  0  0  0  0  0  0  0  0  0  0
   -5.8483   10.3066   27.5162 H   0  0  0  0  0  0  0  0  0  0  0  0
   -8.5658    3.3520   23.9156 C   0  0  0  0  0  0  0  0  0  0  0  0
   -9.7644    2.6214   23.8608 C   0  0  0  0  0  0  0  0  0  0  0  0
   -9.9155    1.5574   22.9670 C   0  0  0  0  0  0  0  0  0  0  0  0
   -8.8650    1.2093   22.1196 C   0  0  0  0  0  0  0  0  0  0  0  0
   -9.0138    0.1660   21.2484 O   0  0  0  0  0  0  0  0  0  0  0  0
   -7.6657    1.9217   22.1625 C   0  0  0  0  0  0  0  0  0  0  0  0
   -6.2082    1.4790   21.0327 Br  0  0  0  0  0  0  0  0  0  0  0  0
   -7.5171    2.9869   23.0549 C   0  0  0  0  0  0  0  0  0  0  0  0
   -9.8201   -0.3106   21.2217 H   0  0  0  0  0  0  0  0  0  0  0  0
   -5.5380    7.2077   23.7115 C   0  0  0  0  0  0  0  0  0  0  0  0
   -6.2456    7.9128   21.5533 C   0  0  0  0  0  0  0  0  0  0  0  0
   -5.9208    8.3038   22.8790 O   0  0  0  0  0  0  0  0  0  0  0  0
 26 27  1  0
 27 25  1  0
 25  1  1  0
  1  2  2  0
  2  3  1  0
  3  4  1  0
  3  5  2  0
  5  6  1  0
  6  7  2  0
  7  8  1  0
  8  9  1  0
  9 16  1  0
 16 17  2  0
 17 18  1  0
 18 19  2  0
 19 20  1  0
 19 21  1  0
 21 22  1  0
 21 23  2  0
  9 10  1  0
 10 11  1  0
 11 12  1  0
 12 13  1  0
 14 13  1  0
  7  1  1  0
 23 16  1  0
 14 10  1  0
 14  6  1  0
  4 15  1  0
 20 24  1  0
M  END
> <minimizedAffinity>
-8.89272

> <CNNscore>
0.9190135002

> <CNNaffinity>
8.0174407959

> <CNN_VS>
7.3681364059

> <CNNaffinity_variance>
0.3419939280

$$$$



 27 30  0  0  0  0  0  0  0  0999 V2000
   -7.8583    6.3724   26.5649 C   0  0  0  0  0  0  0  0  0  0  0  0
   -7.5913    7.4592   27.4101 C   0  0  0  0  0  0  0  0  0  0  0  0
   -6.6205    8.3911   27.0659 C   0  0  0  0  0  0  0  0  0  0  0  0
   -6.3984    9.4219   27.9302 O   0  0  0  0  0  0  0  0  0  0  0  0
   -5.9054    8.2730   25.8790 C   0  0  0  0  0  0  0  0  0  0  0  0
   -6.1644    7.2025   25.0079 C   0  0  0  0  0  0  0  0  0  0  0  0
   -7.1258    6.2465   25.3732 C   0  0  0  0  0  0  0  0  0  0  0  0
   -7.4216    5.1777   24.5667 O   0  0  0  0  0  0  0  0  0  0  0  0
   -6.3003    4.7296   23.7976 C   0  0  0  0  0  0  0  0  0  0  0  0
   -5.7824    5.8454   22.8880 C   0  0  0  0  0  0  0  0  0  0  0  0
   -6.7814    6.3687   21.8501 C   0  0  0  0  0  0  0  0  0  0  0  0
   -6.1727    7.6999   21.4493 C   0  0  0  0  0  0  0  0  0  0  0  0
   -5.6866    8.2928   22.7663 C   0  0  0  0  0  0  0  0  0  0  0  0
   -5.4088    7.0973   23.7025 C   0  0  0  0  0  0  0  0  0  0  0  0
   -6.8919    9.4819   28.7245 H   0  0  0  0  0  0  0  0  0  0  0  0
   -6.6719    3.4820   23.0088 C   0  0  0  0  0  0  0  0  0  0  0  0
   -5.7519    2.9334   22.0999 C   0  0  0  0  0  0  0  0  0  0  0  0
   -6.0751    1.7999   21.3485 C   0  0  0  0  0  0  0  0  0  0  0  0
   -7.3267    1.2044   21.4954 C   0  0  0  0  0  0  0  0  0  0  0  0
   -7.6419    0.0977   20.7569 O   0  0  0  0  0  0  0  0  0  0  0  0
   -8.2547    1.7377   22.3911 C   0  0  0  0  0  0  0  0  0  0  0  0
   -9.9713    0.9641   22.6186 Br  0  0  0  0  0  0  0  0  0  0  0  0
   -7.9291    2.8695   23.1436 C   0  0  0  0  0  0  0  0  0  0  0  0
   -7.0170   -0.2582   20.1563 H   0  0  0  0  0  0  0  0  0  0  0  0
   -8.8918    5.3485   26.9666 C   0  0  0  0  0  0  0  0  0  0  0  0
   -8.0508    3.9929   28.7303 C   0  0  0  0  0  0  0  0  0  0  0  0
   -8.3003    4.1020   27.3368 O   0  0  0  0  0  0  0  0  0  0  0  0
 26 27  1  0
 27 25  1  0
 25  1  1  0
  1  2  2  0
  2  3  1  0
  3  4  1  0
  3  5  2  0
  5  6  1  0
  6  7  2  0
  7  8  1  0
  8  9  1  0
  9 16  1  0
 16 17  2  0
 17 18  1  0
 18 19  2  0
 19 20  1  0
 19 21  1  0
 21 22  1  0
 21 23  2  0
  9 10  1  0
 10 11  1  0
 11 12  1  0
 12 13  1  0
 14 13  1  0
  7  1  1  0
 23 16  1  0
 14 10  1  0
 14  6  1  0
  4 15  1  0
 20 24  1  0
M  END
> <minimizedAffinity>
-9.45398

> <CNNscore>
0.8825438023

> <CNNaffinity>
7.9922389984

> <CNN_VS>
7.0535011292

> <CNNaffinity_variance>
0.3076943159

$$$$



 27 30  0  0  0  0  0  0  0  0999 V2000
   -7.7839    6.7254   26.4176 C   0  0  0  0  0  0  0  0  0  0  0  0
   -7.0910    7.7042   27.1448 C   0  0  0  0  0  0  0  0  0  0  0  0
   -5.8458    8.1446   26.7146 C   0  0  0  0  0  0  0  0  0  0  0  0
   -5.2155    9.0915   27.4662 O   0  0  0  0  0  0  0  0  0  0  0  0
   -5.2689    7.6359   25.5560 C   0  0  0  0  0  0  0  0  0  0  0  0
   -5.9489    6.6663   24.8015 C   0  0  0  0  0  0  0  0  0  0  0  0
   -7.1941    6.2023   25.2552 C   0  0  0  0  0  0  0  0  0  0  0  0
   -7.9054    5.2552   24.5644 O   0  0  0  0  0  0  0  0  0  0  0  0
   -7.0694    4.3297   23.8614 C   0  0  0  0  0  0  0  0  0  0  0  0
   -6.1874    5.0560   22.8439 C   0  0  0  0  0  0  0  0  0  0  0  0
   -6.9366    5.8160   21.7439 C   0  0  0  0  0  0  0  0  0  0  0  0
   -5.8721    6.7569   21.2103 C   0  0  0  0  0  0  0  0  0  0  0  0
   -5.1544    7.2471   22.4620 C   0  0  0  0  0  0  0  0  0  0  0  0
   -5.3333    6.1414   23.5242 C   0  0  0  0  0  0  0  0  0  0  0  0
   -5.6227    9.4203   28.2434 H   0  0  0  0  0  0  0  0  0  0  0  0
   -7.9193    3.2502   23.2063 C   0  0  0  0  0  0  0  0  0  0  0  0
   -9.2998    3.2007   23.4616 C   0  0  0  0  0  0  0  0  0  0  0  0
  -10.0999    2.2081   22.8886 C   0  0  0  0  0  0  0  0  0  0  0  0
   -9.5253    1.2495   22.0556 C   0  0  0  0  0  0  0  0  0  0  0  0
  -10.3094    0.2775   21.4989 O   0  0  0  0  0  0  0  0  0  0  0  0
   -8.1549    1.2810   21.7934 C   0  0  0  0  0  0  0  0  0  0  0  0
   -7.3299   -0.0065   20.6717 Br  0  0  0  0  0  0  0  0  0  0  0  0
   -7.3567    2.2757   22.3651 C   0  0  0  0  0  0  0  0  0  0  0  0
  -11.2292    0.2586   21.6766 H   0  0  0  0  0  0  0  0  0  0  0  0
   -9.1208    6.2311   26.9140 C   0  0  0  0  0  0  0  0  0  0  0  0
   -8.3143    4.2763   28.0022 C   0  0  0  0  0  0  0  0  0  0  0  0
   -9.1702    4.8060   27.0008 O   0  0  0  0  0  0  0  0  0  0  0  0
 26 27  1  0
 27 25  1  0
 25  1  1  0
  1  2  2  0
  2  3  1  0
  3  4  1  0
  3  5  2  0
  5  6  1  0
  6  7  2  0
  7  8  1  0
  8  9  1  0
  9 16  1  0
 16 17  2  0
 17 18  1  0
 18 19  2  0
 19 20  1  0
 19 21  1  0
 21 22  1  0
 21 23  2  0
  9 10  1  0
 10 11  1  0
 11 12  1  0
 12 13  1  0
 14 13  1  0
  7  1  1  0
 23 16  1  0
 14 10  1  0
 14  6  1  0
  4 15  1  0
 20 24  1  0
M  END
> <minimizedAffinity>
-7.37704

> <CNNscore>
0.6830715537

> <CNNaffinity>
7.3343739510

> <CNN_VS>
5.0099020004

> <CNNaffinity_variance>
0.0843763128

$$$$



 27 30  0  0  0  0  0  0  0  0999 V2000
   -5.4419    7.1610   25.8932 C   0  0  0  0  0  0  0  0  0  0  0  0
   -4.5077    8.1893   26.0855 C   0  0  0  0  0  0  0  0  0  0  0  0
   -3.9158    8.8100   24.9929 C   0  0  0  0  0  0  0  0  0  0  0  0
   -3.0088    9.7973   25.2409 O   0  0  0  0  0  0  0  0  0  0  0  0
   -4.2428    8.4351   23.6942 C   0  0  0  0  0  0  0  0  0  0  0  0
   -5.1865    7.4189   23.4744 C   0  0  0  0  0  0  0  0  0  0  0  0
   -5.7609    6.7737   24.5814 C   0  0  0  0  0  0  0  0  0  0  0  0
   -6.6861    5.7728   24.4319 O   0  0  0  0  0  0  0  0  0  0  0  0
   -6.4866    4.9991   23.2440 C   0  0  0  0  0  0  0  0  0  0  0  0
   -6.5778    5.8812   21.9972 C   0  0  0  0  0  0  0  0  0  0  0  0
   -7.9227    6.5838   21.7821 C   0  0  0  0  0  0  0  0  0  0  0  0
   -7.5670    7.6808   20.7955 C   0  0  0  0  0  0  0  0  0  0  0  0
   -6.2267    8.2049   21.2967 C   0  0  0  0  0  0  0  0  0  0  0  0
   -5.5643    7.0384   22.0606 C   0  0  0  0  0  0  0  0  0  0  0  0
   -2.8035   10.0338   26.1240 H   0  0  0  0  0  0  0  0  0  0  0  0
   -7.4803    3.8470   23.1969 C   0  0  0  0  0  0  0  0  0  0  0  0
   -8.6438    3.8988   23.9824 C   0  0  0  0  0  0  0  0  0  0  0  0
   -9.5629    2.8458   23.9730 C   0  0  0  0  0  0  0  0  0  0  0  0
   -9.3251    1.7251   23.1791 C   0  0  0  0  0  0  0  0  0  0  0  0
  -10.2240    0.6947   23.1741 O   0  0  0  0  0  0  0  0  0  0  0  0
   -8.1729    1.6546   22.3949 C   0  0  0  0  0  0  0  0  0  0  0  0
   -7.8057    0.1467   21.3048 Br  0  0  0  0  0  0  0  0  0  0  0  0
   -7.2561    2.7095   22.4035 C   0  0  0  0  0  0  0  0  0  0  0  0
  -10.9968    0.7446   23.7015 H   0  0  0  0  0  0  0  0  0  0  0  0
   -6.0526    6.4718   27.0890 C   0  0  0  0  0  0  0  0  0  0  0  0
   -6.6215    4.1955   27.4771 C   0  0  0  0  0  0  0  0  0  0  0  0
   -5.5810    5.1315   27.2378 O   0  0  0  0  0  0  0  0  0  0  0  0
 26 27  1  0
 27 25  1  0
 25  1  1  0
  1  2  2  0
  2  3  1  0
  3  4  1  0
  3  5  2  0
  5  6  1  0
  6  7  2  0
  7  8  1  0
  8  9  1  0
  9 16  1  0
 16 17  2  0
 17 18  1  0
 18 19  2  0
 19 20  1  0
 19 21  1  0
 21 22  1  0
 21 23  2  0
  9 10  1  0
 10 11  1  0
 11 12  1  0
 12 13  1  0
 14 13  1  0
  7  1  1  0
 23 16  1  0
 14 10  1  0
 14  6  1  0
  4 15  1  0
 20 24  1  0
M  END
> <minimizedAffinity>
-7.21114

> <CNNscore>
0.5044273734

> <CNNaffinity>
7.4503135681

> <CNN_VS>
3.7581419945

> <CNNaffinity_variance>
0.2577139437

$$$$



 27 30  0  0  0  0  0  0  0  0999 V2000
  -12.4652    7.1997   32.6758 C   0  0  0  0  0  0  0  0  0  0  0  0
  -12.2619    5.8576   33.0285 C   0  0  0  0  0  0  0  0  0  0  0  0
  -13.3097    5.1021   33.5393 C   0  0  0  0  0  0  0  0  0  0  0  0
  -13.0509    3.8056   33.8725 O   0  0  0  0  0  0  0  0  0  0  0  0
  -14.5762    5.6535   33.7004 C   0  0  0  0  0  0  0  0  0  0  0  0
  -14.8098    6.9904   33.3404 C   0  0  0  0  0  0  0  0  0  0  0  0
  -13.7413    7.7595   32.8519 C   0  0  0  0  0  0  0  0  0  0  0  0
  -13.9054    9.0707   32.4861 O   0  0  0  0  0  0  0  0  0  0  0  0
  -14.9106    9.7438   33.2516 C   0  0  0  0  0  0  0  0  0  0  0  0
  -16.2697    9.0608   33.0868 C   0  0  0  0  0  0  0  0  0  0  0  0
  -16.8246    9.0299   31.6585 C   0  0  0  0  0  0  0  0  0  0  0  0
  -17.8820    7.9443   31.7394 C   0  0  0  0  0  0  0  0  0  0  0  0
  -17.2308    6.8601   32.5896 C   0  0  0  0  0  0  0  0  0  0  0  0
  -16.1965    7.5754   33.4849 C   0  0  0  0  0  0  0  0  0  0  0  0
  -12.1900    3.4547   33.7557 H   0  0  0  0  0  0  0  0  0  0  0  0
  -14.9651   11.2150   32.8650 C   0  0  0  0  0  0  0  0  0  0  0  0
  -15.9436   12.0481   33.4325 C   0  0  0  0  0  0  0  0  0  0  0  0
  -16.0282   13.3980   33.0800 C   0  0  0  0  0  0  0  0  0  0  0  0
  -15.1356   13.9292   32.1505 C   0  0  0  0  0  0  0  0  0  0  0  0
  -15.2224   15.2492   31.8047 O   0  0  0  0  0  0  0  0  0  0  0  0
  -14.1592   13.1157   31.5738 C   0  0  0  0  0  0  0  0  0  0  0  0
  -12.9284   13.7943   30.3004 Br  0  0  0  0  0  0  0  0  0  0  0  0
  -14.0742   11.7667   31.9292 C   0  0  0  0  0  0  0  0  0  0  0  0
  -15.8790   15.7931   32.1935 H   0  0  0  0  0  0  0  0  0  0  0  0
  -11.3104    8.0192   32.1536 C   0  0  0  0  0  0  0  0  0  0  0  0
  -10.4747   10.1934   32.6335 C   0  0  0  0  0  0  0  0  0  0  0  0
  -10.7872    8.9058   33.1440 O   0  0  0  0  0  0  0  0  0  0  0  0
 26 27  1  0
 27 25  1  0
 25  1  1  0
  1  2  2  0
  2  3  1  0
  3  4  1  0
  3  5  2  0
  5  6  1  0
  6  7  2  0
  7  8  1  0
  8  9  1  0
  9 16  1  0
 16 17  2  0
 17 18  1  0
 18 19  2  0
 19 20  1  0
 19 21  1  0
 21 22  1  0
 21 23  2  0
  9 10  1  0
 10 11  1  0
 11 12  1  0
 12 13  1  0
 14 13  1  0
  7  1  1  0
 23 16  1  0
 14 10  1  0
 14  6  1  0
  4 15  1  0
 20 24  1  0
M  END
> <minimizedAffinity>
-3.99006

> <CNNscore>
0.4340152442

> <CNNaffinity>
4.6886248589

> <CNN_VS>
2.0349347591

> <CNNaffinity_variance>
0.0418735296

$$$$



 27 30  0  0  0  0  0  0  0  0999 V2000
   -8.6708    2.9886   25.1834 C   0  0  0  0  0  0  0  0  0  0  0  0
   -9.3882    1.7942   25.0233 C   0  0  0  0  0  0  0  0  0  0  0  0
   -9.4310    1.1643   23.7859 C   0  0  0  0  0  0  0  0  0  0  0  0
  -10.1509    0.0107   23.6880 O   0  0  0  0  0  0  0  0  0  0  0  0
   -8.7590    1.6952   22.6902 C   0  0  0  0  0  0  0  0  0  0  0  0
   -8.0209    2.8818   22.8278 C   0  0  0  0  0  0  0  0  0  0  0  0
   -8.0041    3.5312   24.0727 C   0  0  0  0  0  0  0  0  0  0  0  0
   -7.3041    4.6938   24.2694 O   0  0  0  0  0  0  0  0  0  0  0  0
   -7.2330    5.5098   23.0953 C   0  0  0  0  0  0  0  0  0  0  0  0
   -6.5438    4.7617   21.9524 C   0  0  0  0  0  0  0  0  0  0  0  0
   -5.0954    4.3375   22.2193 C   0  0  0  0  0  0  0  0  0  0  0  0
   -4.8628    3.2760   21.1598 C   0  0  0  0  0  0  0  0  0  0  0  0
   -6.1599    2.4763   21.1502 C   0  0  0  0  0  0  0  0  0  0  0  0
   -7.2638    3.4366   21.6424 C   0  0  0  0  0  0  0  0  0  0  0  0
  -10.5959   -0.3291   24.4393 H   0  0  0  0  0  0  0  0  0  0  0  0
   -6.5357    6.8249   23.4136 C   0  0  0  0  0  0  0  0  0  0  0  0
   -6.1428    7.6755   22.3669 C   0  0  0  0  0  0  0  0  0  0  0  0
   -5.4834    8.8795   22.6305 C   0  0  0  0  0  0  0  0  0  0  0  0
   -5.2053    9.2439   23.9468 C   0  0  0  0  0  0  0  0  0  0  0  0
   -4.5571   10.4205   24.2020 O   0  0  0  0  0  0  0  0  0  0  0  0
   -5.5851    8.4097   24.9992 C   0  0  0  0  0  0  0  0  0  0  0  0
   -5.2216    8.8625   26.8046 Br  0  0  0  0  0  0  0  0  0  0  0  0
   -6.2467    7.2074   24.7341 C   0  0  0  0  0  0  0  0  0  0  0  0
   -4.3033   10.9788   23.4936 H   0  0  0  0  0  0  0  0  0  0  0  0
   -8.6600    3.6807   26.5246 C   0  0  0  0  0  0  0  0  0  0  0  0
   -6.4957    3.9385   27.4759 C   0  0  0  0  0  0  0  0  0  0  0  0
   -7.6688    3.1422   27.4012 O   0  0  0  0  0  0  0  0  0  0  0  0
 26 27  1  0
 27 25  1  0
 25  1  1  0
  1  2  2  0
  2  3  1  0
  3  4  1  0
  3  5  2  0
  5  6  1  0
  6  7  2  0
  7  8  1  0
  8  9  1  0
  9 16  1  0
 16 17  2  0
 17 18  1  0
 18 19  2  0
 19 20  1  0
 19 21  1  0
 21 22  1  0
 21 23  2  0
  9 10  1  0
 10 11  1  0
 11 12  1  0
 12 13  1  0
 14 13  1  0
  7  1  1  0
 23 16  1  0
 14 10  1  0
 14  6  1  0
  4 15  1  0
 20 24  1  0
M  END
> <minimizedAffinity>
-3.61081

> <CNNscore>
0.3167934418

> <CNNaffinity>
6.9009571075

> <CNN_VS>
2.1861779690

> <CNNaffinity_variance>
0.3512053192

$$$$



 27 30  0  0  0  0  0  0  0  0999 V2000
   -7.5328    2.1799   24.8746 C   0  0  0  0  0  0  0  0  0  0  0  0
   -7.7719    1.0798   24.0383 C   0  0  0  0  0  0  0  0  0  0  0  0
   -7.8057    1.2436   22.6594 C   0  0  0  0  0  0  0  0  0  0  0  0
   -8.0508    0.1400   21.8971 O   0  0  0  0  0  0  0  0  0  0  0  0
   -7.5937    2.4910   22.0825 C   0  0  0  0  0  0  0  0  0  0  0  0
   -7.3369    3.6057   22.8969 C   0  0  0  0  0  0  0  0  0  0  0  0
   -7.3326    3.4419   24.2915 C   0  0  0  0  0  0  0  0  0  0  0  0
   -7.0907    4.4919   25.1395 O   0  0  0  0  0  0  0  0  0  0  0  0
   -7.5458    5.7464   24.6210 C   0  0  0  0  0  0  0  0  0  0  0  0
   -6.8521    6.0729   23.2971 C   0  0  0  0  0  0  0  0  0  0  0  0
   -5.3274    6.2112   23.3667 C   0  0  0  0  0  0  0  0  0  0  0  0
   -4.9174    6.0730   21.9121 C   0  0  0  0  0  0  0  0  0  0  0  0
   -5.8028    4.9497   21.3862 C   0  0  0  0  0  0  0  0  0  0  0  0
   -7.0728    4.9531   22.2638 C   0  0  0  0  0  0  0  0  0  0  0  0
   -8.1908   -0.6908   22.3071 H   0  0  0  0  0  0  0  0  0  0  0  0
   -7.3405    6.8450   25.6544 C   0  0  0  0  0  0  0  0  0  0  0  0
   -6.3159    7.7888   25.4727 C   0  0  0  0  0  0  0  0  0  0  0  0
   -6.0932    8.7959   26.4161 C   0  0  0  0  0  0  0  0  0  0  0  0
   -6.8921    8.8671   27.5560 C   0  0  0  0  0  0  0  0  0  0  0  0
   -6.6702    9.8512   28.4790 O   0  0  0  0  0  0  0  0  0  0  0  0
   -7.9125    7.9360   27.7548 C   0  0  0  0  0  0  0  0  0  0  0  0
   -9.0193    7.9911   29.2939 Br  0  0  0  0  0  0  0  0  0  0  0  0
   -8.1356    6.9311   26.8095 C   0  0  0  0  0  0  0  0  0  0  0  0
   -5.9844   10.4751   28.3431 H   0  0  0  0  0  0  0  0  0  0  0  0
   -7.5320    1.9949   26.3725 C   0  0  0  0  0  0  0  0  0  0  0  0
   -7.3399    3.4321   28.2575 C   0  0  0  0  0  0  0  0  0  0  0  0
   -6.7581    2.9939   27.0387 O   0  0  0  0  0  0  0  0  0  0  0  0
 26 27  1  0
 27 25  1  0
 25  1  1  0
  1  2  2  0
  2  3  1  0
  3  4  1  0
  3  5  2  0
  5  6  1  0
  6  7  2  0
  7  8  1  0
  8  9  1  0
  9 16  1  0
 16 17  2  0
 17 18  1  0
 18 19  2  0
 19 20  1  0
 19 21  1  0
 21 22  1  0
 21 23  2  0
  9 10  1  0
 10 11  1  0
 11 12  1  0
 12 13  1  0
 14 13  1  0
  7  1  1  0
 23 16  1  0
 14 10  1  0
 14  6  1  0
  4 15  1  0
 20 24  1  0
M  END
> <minimizedAffinity>
-4.54689

> <CNNscore>
0.2885714173

> <CNNaffinity>
6.4793848991

> <CNN_VS>
1.8697652817

> <CNNaffinity_variance>
0.1689670235

$$$$



 27 30  0  0  0  0  0  0  0  0999 V2000
   -5.5324   -4.3801   33.3898 C   0  0  0  0  0  0  0  0  0  0  0  0
   -6.6117   -5.2642   33.5325 C   0  0  0  0  0  0  0  0  0  0  0  0
   -7.8237   -4.8124   34.0389 C   0  0  0  0  0  0  0  0  0  0  0  0
   -8.8347   -5.7188   34.1631 O   0  0  0  0  0  0  0  0  0  0  0  0
   -7.9947   -3.4810   34.4023 C   0  0  0  0  0  0  0  0  0  0  0  0
   -6.9345   -2.5722   34.2547 C   0  0  0  0  0  0  0  0  0  0  0  0
   -5.7019   -3.0388   33.7701 C   0  0  0  0  0  0  0  0  0  0  0  0
   -4.6286   -2.2013   33.6061 O   0  0  0  0  0  0  0  0  0  0  0  0
   -4.6047   -1.1297   34.5551 C   0  0  0  0  0  0  0  0  0  0  0  0
   -5.8643   -0.2693   34.4375 C   0  0  0  0  0  0  0  0  0  0  0  0
   -6.0720    0.4160   33.0825 C   0  0  0  0  0  0  0  0  0  0  0  0
   -7.5442    0.7825   33.1211 C   0  0  0  0  0  0  0  0  0  0  0  0
   -8.2104   -0.4385   33.7437 C   0  0  0  0  0  0  0  0  0  0  0  0
   -7.1357   -1.1185   34.6186 C   0  0  0  0  0  0  0  0  0  0  0  0
   -8.6974   -6.6110   33.9121 H   0  0  0  0  0  0  0  0  0  0  0  0
   -3.3370   -0.3052   34.3815 C   0  0  0  0  0  0  0  0  0  0  0  0
   -2.0826   -0.9328   34.4585 C   0  0  0  0  0  0  0  0  0  0  0  0
   -0.9026   -0.1960   34.3223 C   0  0  0  0  0  0  0  0  0  0  0  0
   -0.9650    1.1804   34.1116 C   0  0  0  0  0  0  0  0  0  0  0  0
    0.1906    1.8996   33.9820 O   0  0  0  0  0  0  0  0  0  0  0  0
   -2.2024    1.8214   34.0358 C   0  0  0  0  0  0  0  0  0  0  0  0
   -2.3346    3.6926   33.7567 Br  0  0  0  0  0  0  0  0  0  0  0  0
   -3.3814    1.0829   34.1696 C   0  0  0  0  0  0  0  0  0  0  0  0
    1.0200    1.4667   34.0333 H   0  0  0  0  0  0  0  0  0  0  0  0
   -4.2107   -4.8909   32.8700 C   0  0  0  0  0  0  0  0  0  0  0  0
   -3.3600   -6.2296   31.0979 C   0  0  0  0  0  0  0  0  0  0  0  0
   -4.2632   -5.2014   31.4765 O   0  0  0  0  0  0  0  0  0  0  0  0
 26 27  1  0
 27 25  1  0
 25  1  1  0
  1  2  2  0
  2  3  1  0
  3  4  1  0
  3  5  2  0
  5  6  1  0
  6  7  2  0
  7  8  1  0
  8  9  1  0
  9 16  1  0
 16 17  2  0
 17 18  1  0
 18 19  2  0
 19 20  1  0
 19 21  1  0
 21 22  1  0
 21 23  2  0
  9 10  1  0
 10 11  1  0
 11 12  1  0
 12 13  1  0
 14 13  1  0
  7  1  1  0
 23 16  1  0
 14 10  1  0
 14  6  1  0
  4 15  1  0
 20 24  1  0
M  END
> <minimizedAffinity>
-5.47525

> <CNNscore>
0.2882443964

> <CNNaffinity>
4.6931605339

> <CNN_VS>
1.3527772427

> <CNNaffinity_variance>
0.2220680118

$$$$



 27 30  0  0  0  0  0  0  0  0999 V2000
   -5.9293   -4.6225   33.4427 C   0  0  0  0  0  0  0  0  0  0  0  0
   -5.2000   -5.7828   33.1447 C   0  0  0  0  0  0  0  0  0  0  0  0
   -3.8338   -5.7082   32.9056 C   0  0  0  0  0  0  0  0  0  0  0  0
   -3.1787   -6.8674   32.6126 O   0  0  0  0  0  0  0  0  0  0  0  0
   -3.1629   -4.4916   32.9670 C   0  0  0  0  0  0  0  0  0  0  0  0
   -3.8672   -3.3175   33.2785 C   0  0  0  0  0  0  0  0  0  0  0  0
   -5.2532   -3.3924   33.4907 C   0  0  0  0  0  0  0  0  0  0  0  0
   -5.9965   -2.2812   33.7957 O   0  0  0  0  0  0  0  0  0  0  0  0
   -5.4803   -1.0833   33.2058 C   0  0  0  0  0  0  0  0  0  0  0  0
   -4.0530   -0.8110   33.6849 C   0  0  0  0  0  0  0  0  0  0  0  0
   -3.8917   -0.6016   35.1945 C   0  0  0  0  0  0  0  0  0  0  0  0
   -2.4029   -0.8134   35.3991 C   0  0  0  0  0  0  0  0  0  0  0  0
   -2.0758   -2.0055   34.5080 C   0  0  0  0  0  0  0  0  0  0  0  0
   -3.1276   -2.0025   33.3780 C   0  0  0  0  0  0  0  0  0  0  0  0
   -3.6507   -7.6761   32.5765 H   0  0  0  0  0  0  0  0  0  0  0  0
   -6.4092    0.0865   33.4985 C   0  0  0  0  0  0  0  0  0  0  0  0
   -6.9676    0.2281   34.7797 C   0  0  0  0  0  0  0  0  0  0  0  0
   -7.8391    1.2818   35.0697 C   0  0  0  0  0  0  0  0  0  0  0  0
   -8.1655    2.2046   34.0774 C   0  0  0  0  0  0  0  0  0  0  0  0
   -9.0208    3.2326   34.3624 O   0  0  0  0  0  0  0  0  0  0  0  0
   -7.6229    2.0778   32.7978 C   0  0  0  0  0  0  0  0  0  0  0  0
   -8.0440    3.3063   31.4157 Br  0  0  0  0  0  0  0  0  0  0  0  0
   -6.7497    1.0251   32.5102 C   0  0  0  0  0  0  0  0  0  0  0  0
   -9.3836    3.3155   35.2223 H   0  0  0  0  0  0  0  0  0  0  0  0
   -7.4191   -4.7123   33.6672 C   0  0  0  0  0  0  0  0  0  0  0  0
   -9.3051   -6.0676   33.1551 C   0  0  0  0  0  0  0  0  0  0  0  0
   -7.9176   -6.0341   33.4549 O   0  0  0  0  0  0  0  0  0  0  0  0
 26 27  1  0
 27 25  1  0
 25  1  1  0
  1  2  2  0
  2  3  1  0
  3  4  1  0
  3  5  2  0
  5  6  1  0
  6  7  2  0
  7  8  1  0
  8  9  1  0
  9 16  1  0
 16 17  2  0
 17 18  1  0
 18 19  2  0
 19 20  1  0
 19 21  1  0
 21 22  1  0
 21 23  2  0
  9 10  1  0
 10 11  1  0
 11 12  1  0
 12 13  1  0
 14 13  1  0
  7  1  1  0
 23 16  1  0
 14 10  1  0
 14  6  1  0
  4 15  1  0
 20 24  1  0
M  END
> <minimizedAffinity>
-5.49731

> <CNNscore>
0.2816226184

> <CNNaffinity>
4.7668061256

> <CNN_VS>
1.3424403667

> <CNNaffinity_variance>
0.2314631939

$$$$
