


 17 17  0  0  0  0  0  0  0  0999 V2000
   30.7076   65.1234    8.9728 C   0  0  0  0  0  0  0  0  0  0  0  0
   31.8547   66.0739    9.3800 C   0  0  0  0  0  0  0  0  0  0  0  0
   32.9288   65.3852   10.1228 N   0  0  0  0  0  0  0  0  0  0  0  0
   32.3652   66.6157    8.0362 C   0  0  0  0  0  0  0  0  0  0  0  0
   33.1836   65.6319    7.3868 O   0  0  0  0  0  0  0  0  0  0  0  0
   31.0762   66.8510    7.2552 C   0  0  0  0  0  0  0  0  0  0  0  0
   31.3353   66.9002    5.8524 O   0  0  0  0  0  0  0  0  0  0  0  0
   30.1657   65.6701    7.6316 C   0  0  0  0  0  0  0  0  0  0  0  0
   30.2360   64.6748    6.5948 O   0  0  0  0  0  0  0  0  0  0  0  0
   33.3070   64.6298    9.5512 H   0  0  0  0  0  0  0  0  0  0  0  0
   32.5506   65.0000   10.9883 H   0  0  0  0  0  0  0  0  0  0  0  0
   32.6791   64.8102    7.2814 H   0  0  0  0  0  0  0  0  0  0  0  0
   31.7548   66.0718    5.5719 H   0  0  0  0  0  0  0  0  0  0  0  0
   31.1570   64.3934    6.4787 H   0  0  0  0  0  0  0  0  0  0  0  0
   28.0282   65.7293    9.1263 C   0  0  0  0  0  0  0  0  0  0  0  0
   29.3384   65.0778   10.1826 S   0  0  0  0  0  0  0  0  0  0  0  0
   29.0429   63.6379   10.4819 O   0  0  0  0  0  0  0  0  0  0  0  0
 16 15  1  0
 16 17  2  0
  1 16  1  0
  1  2  1  0
  2  3  1  0
  2  4  1  0
  4  5  1  0
  4  6  1  0
  6  7  1  0
  6  8  1  0
  8  9  1  0
  8  1  1  0
  3 10  1  0
  3 11  1  0
  5 12  1  0
  7 13  1  0
  9 14  1  0
M  END
> <minimizedAffinity>
-6.98398

> <CNNscore>
0.9440845251

> <CNNaffinity>
6.0329475403

> <CNN_VS>
5.6956124306

> <CNNaffinity_variance>
0.9181952477

$$$$



 17 17  0  0  0  0  0  0  0  0999 V2000
   30.1190   65.6885    8.0905 C   0  0  0  0  0  0  0  0  0  0  0  0
   28.9055   66.6426    8.0426 C   0  0  0  0  0  0  0  0  0  0  0  0
   28.2281   66.6375    6.7309 N   0  0  0  0  0  0  0  0  0  0  0  0
   27.9838   66.1058    9.1482 C   0  0  0  0  0  0  0  0  0  0  0  0
   27.2949   64.9334    8.6897 O   0  0  0  0  0  0  0  0  0  0  0  0
   28.9628   65.7584   10.2652 C   0  0  0  0  0  0  0  0  0  0  0  0
   28.3815   64.8267   11.1770 O   0  0  0  0  0  0  0  0  0  0  0  0
   30.1894   65.1718    9.5463 C   0  0  0  0  0  0  0  0  0  0  0  0
   30.1191   63.7355    9.5952 O   0  0  0  0  0  0  0  0  0  0  0  0
   27.9181   65.6907    6.5120 H   0  0  0  0  0  0  0  0  0  0  0  0
   28.8769   66.9577    6.0119 H   0  0  0  0  0  0  0  0  0  0  0  0
   27.9415   64.2711    8.3997 H   0  0  0  0  0  0  0  0  0  0  0  0
   28.1176   64.0262   10.6969 H   0  0  0  0  0  0  0  0  0  0  0  0
   29.2902   63.4383    9.1883 H   0  0  0  0  0  0  0  0  0  0  0  0
   32.5436   66.2591    9.2590 C   0  0  0  0  0  0  0  0  0  0  0  0
   31.7018   66.5058    7.6819 S   0  0  0  0  0  0  0  0  0  0  0  0
   32.3865   65.6758    6.6368 O   0  0  0  0  0  0  0  0  0  0  0  0
 16 15  1  0
 16 17  2  0
  1 16  1  0
  1  2  1  0
  2  3  1  0
  2  4  1  0
  4  5  1  0
  4  6  1  0
  6  7  1  0
  6  8  1  0
  8  9  1  0
  8  1  1  0
  3 10  1  0
  3 11  1  0
  5 12  1  0
  7 13  1  0
  9 14  1  0
M  END
> <minimizedAffinity>
-5.88605

> <CNNscore>
0.3810039163

> <CNNaffinity>
4.1918292046

> <CNN_VS>
1.5971033573

> <CNNaffinity_variance>
0.0616414249

$$$$



 17 17  0  0  0  0  0  0  0  0999 V2000
   24.4195   64.3804   11.2719 C   0  0  0  0  0  0  0  0  0  0  0  0
   24.1065   64.8494    9.8342 C   0  0  0  0  0  0  0  0  0  0  0  0
   24.5734   66.2247    9.5691 N   0  0  0  0  0  0  0  0  0  0  0  0
   24.8472   63.8301    8.9554 C   0  0  0  0  0  0  0  0  0  0  0  0
   26.2504   64.1296    8.9289 O   0  0  0  0  0  0  0  0  0  0  0  0
   24.5870   62.5109    9.6757 C   0  0  0  0  0  0  0  0  0  0  0  0
   25.5552   61.5304    9.3031 O   0  0  0  0  0  0  0  0  0  0  0  0
   24.6642   62.8567   11.1723 C   0  0  0  0  0  0  0  0  0  0  0  0
   25.9677   62.5031   11.6687 O   0  0  0  0  0  0  0  0  0  0  0  0
   25.5797   66.2784    9.7270 H   0  0  0  0  0  0  0  0  0  0  0  0
   24.0959   66.8726   10.1957 H   0  0  0  0  0  0  0  0  0  0  0  0
   26.5943   64.1481    9.8358 H   0  0  0  0  0  0  0  0  0  0  0  0
   26.4442   61.8592    9.5093 H   0  0  0  0  0  0  0  0  0  0  0  0
   26.6462   62.9717   11.1579 H   0  0  0  0  0  0  0  0  0  0  0  0
   23.2747   63.2224   13.4897 C   0  0  0  0  0  0  0  0  0  0  0  0
   23.0516   64.6782   12.4468 S   0  0  0  0  0  0  0  0  0  0  0  0
   23.3961   65.8996   13.2467 O   0  0  0  0  0  0  0  0  0  0  0  0
 16 15  1  0
 16 17  2  0
  1 16  1  0
  1  2  1  0
  2  3  1  0
  2  4  1  0
  4  5  1  0
  4  6  1  0
  6  7  1  0
  6  8  1  0
  8  9  1  0
  8  1  1  0
  3 10  1  0
  3 11  1  0
  5 12  1  0
  7 13  1  0
  9 14  1  0
M  END
> <minimizedAffinity>
-4.53998

> <CNNscore>
0.3524822593

> <CNNaffinity>
2.5769681931

> <CNN_VS>
0.9083355665

> <CNNaffinity_variance>
0.8178732395

$$$$



 17 17  0  0  0  0  0  0  0  0999 V2000
   26.4824   63.3505   11.3871 C   0  0  0  0  0  0  0  0  0  0  0  0
   27.8839   62.7019   11.3780 C   0  0  0  0  0  0  0  0  0  0  0  0
   28.7838   63.3039   10.3742 N   0  0  0  0  0  0  0  0  0  0  0  0
   28.3996   62.9431   12.8048 C   0  0  0  0  0  0  0  0  0  0  0  0
   28.8428   64.3007   12.9460 O   0  0  0  0  0  0  0  0  0  0  0  0
   27.1629   62.6839   13.6593 C   0  0  0  0  0  0  0  0  0  0  0  0
   27.2940   63.2994   14.9405 O   0  0  0  0  0  0  0  0  0  0  0  0
   25.9949   63.2759   12.8527 C   0  0  0  0  0  0  0  0  0  0  0  0
   25.6846   64.5832   13.3676 O   0  0  0  0  0  0  0  0  0  0  0  0
   28.8785   64.3027   10.5579 H   0  0  0  0  0  0  0  0  0  0  0  0
   28.3943   63.1651    9.4417 H   0  0  0  0  0  0  0  0  0  0  0  0
   28.1191   64.9030   12.7125 H   0  0  0  0  0  0  0  0  0  0  0  0
   27.4343   64.2526   14.8283 H   0  0  0  0  0  0  0  0  0  0  0  0
   26.4736   65.1453   13.3194 H   0  0  0  0  0  0  0  0  0  0  0  0
   24.8529   63.8553    9.2284 C   0  0  0  0  0  0  0  0  0  0  0  0
   25.2746   62.4843   10.3235 S   0  0  0  0  0  0  0  0  0  0  0  0
   26.0221   61.4510    9.5336 O   0  0  0  0  0  0  0  0  0  0  0  0
 16 15  1  0
 16 17  2  0
  1 16  1  0
  1  2  1  0
  2  3  1  0
  2  4  1  0
  4  5  1  0
  4  6  1  0
  6  7  1  0
  6  8  1  0
  8  9  1  0
  8  1  1  0
  3 10  1  0
  3 11  1  0
  5 12  1  0
  7 13  1  0
  9 14  1  0
M  END
> <minimizedAffinity>
-5.52733

> <CNNscore>
0.3131945431

> <CNNaffinity>
2.9648582935

> <CNN_VS>
0.9285774231

> <CNNaffinity_variance>
0.5277197957

$$$$



 17 17  0  0  0  0  0  0  0  0999 V2000
   28.6267   65.2810    9.8629 C   0  0  0  0  0  0  0  0  0  0  0  0
   30.0907   65.6308    9.5172 C   0  0  0  0  0  0  0  0  0  0  0  0
   31.0361   64.5609    9.8928 N   0  0  0  0  0  0  0  0  0  0  0  0
   30.0597   65.8385    7.9954 C   0  0  0  0  0  0  0  0  0  0  0  0
   30.0266   64.5699    7.3253 O   0  0  0  0  0  0  0  0  0  0  0  0
   28.7539   66.5983    7.7846 C   0  0  0  0  0  0  0  0  0  0  0  0
   28.3089   66.4762    6.4339 O   0  0  0  0  0  0  0  0  0  0  0  0
   27.7641   65.9644    8.7765 C   0  0  0  0  0  0  0  0  0  0  0  0
   26.9485   65.0069    8.0777 O   0  0  0  0  0  0  0  0  0  0  0  0
   30.7775   63.6963    9.4175 H   0  0  0  0  0  0  0  0  0  0  0  0
   31.0032   64.4170   10.9021 H   0  0  0  0  0  0  0  0  0  0  0  0
   29.2650   64.0580    7.6396 H   0  0  0  0  0  0  0  0  0  0  0  0
   28.1941   65.5383    6.2147 H   0  0  0  0  0  0  0  0  0  0  0  0
   27.5170   64.3388    7.6637 H   0  0  0  0  0  0  0  0  0  0  0  0
   26.3279   65.5984   11.3410 C   0  0  0  0  0  0  0  0  0  0  0  0
   28.1006   65.8965   11.5013 S   0  0  0  0  0  0  0  0  0  0  0  0
   28.6529   64.9629   12.5375 O   0  0  0  0  0  0  0  0  0  0  0  0
 16 15  1  0
 16 17  2  0
  1 16  1  0
  1  2  1  0
  2  3  1  0
  2  4  1  0
  4  5  1  0
  4  6  1  0
  6  7  1  0
  6  8  1  0
  8  9  1  0
  8  1  1  0
  3 10  1  0
  3 11  1  0
  5 12  1  0
  7 13  1  0
  9 14  1  0
M  END
> <minimizedAffinity>
-5.25333

> <CNNscore>
0.2398127615

> <CNNaffinity>
4.3919157982

> <CNN_VS>
1.0532374382

> <CNNaffinity_variance>
0.3588655889

$$$$



 17 17  0  0  0  0  0  0  0  0999 V2000
   27.5104   64.9920   12.5811 C   0  0  0  0  0  0  0  0  0  0  0  0
   27.9457   63.5116   12.6426 C   0  0  0  0  0  0  0  0  0  0  0  0
   29.3233   63.3432   13.1461 N   0  0  0  0  0  0  0  0  0  0  0  0
   26.9222   62.8764   13.5960 C   0  0  0  0  0  0  0  0  0  0  0  0
   27.2452   63.2039   14.9553 O   0  0  0  0  0  0  0  0  0  0  0  0
   25.6131   63.5365   13.1747 C   0  0  0  0  0  0  0  0  0  0  0  0
   24.6423   63.4478   14.2173 O   0  0  0  0  0  0  0  0  0  0  0  0
   25.9895   64.9942   12.8608 C   0  0  0  0  0  0  0  0  0  0  0  0
   25.6681   65.8166   13.9970 O   0  0  0  0  0  0  0  0  0  0  0  0
   29.3974   63.7527   14.0773 H   0  0  0  0  0  0  0  0  0  0  0  0
   29.9751   63.8109   12.5161 H   0  0  0  0  0  0  0  0  0  0  0  0
   27.2874   64.1679   15.0544 H   0  0  0  0  0  0  0  0  0  0  0  0
   24.9902   63.8674   15.0196 H   0  0  0  0  0  0  0  0  0  0  0  0
   26.1383   65.4863   14.7785 H   0  0  0  0  0  0  0  0  0  0  0  0
   26.0907   65.9605   10.4325 C   0  0  0  0  0  0  0  0  0  0  0  0
   27.8077   65.7693   10.9539 S   0  0  0  0  0  0  0  0  0  0  0  0
   28.3899   67.1299   11.1987 O   0  0  0  0  0  0  0  0  0  0  0  0
 16 15  1  0
 16 17  2  0
  1 16  1  0
  1  2  1  0
  2  3  1  0
  2  4  1  0
  4  5  1  0
  4  6  1  0
  6  7  1  0
  6  8  1  0
  8  9  1  0
  8  1  1  0
  3 10  1  0
  3 11  1  0
  5 12  1  0
  7 13  1  0
  9 14  1  0
M  END
> <minimizedAffinity>
-4.50328

> <CNNscore>
0.2149771005

> <CNNaffinity>
2.6874563694

> <CNN_VS>
0.5777415633

> <CNNaffinity_variance>
0.7479980588

$$$$



 17 17  0  0  0  0  0  0  0  0999 V2000
   26.9090   63.5407   12.4647 C   0  0  0  0  0  0  0  0  0  0  0  0
   25.9217   64.1829   13.4637 C   0  0  0  0  0  0  0  0  0  0  0  0
   24.8250   63.2717   13.8465 N   0  0  0  0  0  0  0  0  0  0  0  0
   26.8071   64.5276   14.6709 C   0  0  0  0  0  0  0  0  0  0  0  0
   27.0777   63.3450   15.4376 O   0  0  0  0  0  0  0  0  0  0  0  0
   28.0806   65.0538   14.0166 C   0  0  0  0  0  0  0  0  0  0  0  0
   29.1817   64.9841   14.9221 O   0  0  0  0  0  0  0  0  0  0  0  0
   28.2905   64.1575   12.7846 C   0  0  0  0  0  0  0  0  0  0  0  0
   29.2560   63.1396   13.1043 O   0  0  0  0  0  0  0  0  0  0  0  0
   25.2152   62.4245   14.2594 H   0  0  0  0  0  0  0  0  0  0  0  0
   24.2815   63.0272   13.0187 H   0  0  0  0  0  0  0  0  0  0  0  0
   27.4843   62.6751   14.8659 H   0  0  0  0  0  0  0  0  0  0  0  0
   29.3043   64.0666   15.2121 H   0  0  0  0  0  0  0  0  0  0  0  0
   28.9468   62.6294   13.8691 H   0  0  0  0  0  0  0  0  0  0  0  0
   27.9684   64.8510   10.2897 C   0  0  0  0  0  0  0  0  0  0  0  0
   26.5027   63.8887   10.7171 S   0  0  0  0  0  0  0  0  0  0  0  0
   26.5477   62.5880    9.9713 O   0  0  0  0  0  0  0  0  0  0  0  0
 16 15  1  0
 16 17  2  0
  1 16  1  0
  1  2  1  0
  2  3  1  0
  2  4  1  0
  4  5  1  0
  4  6  1  0
  6  7  1  0
  6  8  1  0
  8  9  1  0
  8  1  1  0
  3 10  1  0
  3 11  1  0
  5 12  1  0
  7 13  1  0
  9 14  1  0
M  END
> <minimizedAffinity>
-5.19955

> <CNNscore>
0.2147848010

> <CNNaffinity>
3.0202281475

> <CNN_VS>
0.6486991048

> <CNNaffinity_variance>
0.5739139318

$$$$



 17 17  0  0  0  0  0  0  0  0999 V2000
   27.6117   64.9978   12.1767 C   0  0  0  0  0  0  0  0  0  0  0  0
   28.3773   64.0912   13.1651 C   0  0  0  0  0  0  0  0  0  0  0  0
   28.0302   64.3635   14.5740 N   0  0  0  0  0  0  0  0  0  0  0  0
   27.9554   62.6733   12.7510 C   0  0  0  0  0  0  0  0  0  0  0  0
   26.6386   62.3868   13.2445 O   0  0  0  0  0  0  0  0  0  0  0  0
   27.9595   62.7508   11.2276 C   0  0  0  0  0  0  0  0  0  0  0  0
   27.1586   61.7118   10.6651 O   0  0  0  0  0  0  0  0  0  0  0  0
   27.4030   64.1471   10.9022 C   0  0  0  0  0  0  0  0  0  0  0  0
   26.0068   64.0307   10.5743 O   0  0  0  0  0  0  0  0  0  0  0  0
   27.0275   64.2334   14.7084 H   0  0  0  0  0  0  0  0  0  0  0  0
   28.2826   65.3240   14.8068 H   0  0  0  0  0  0  0  0  0  0  0  0
   26.0192   63.0606   12.9231 H   0  0  0  0  0  0  0  0  0  0  0  0
   26.2529   61.7817   11.0052 H   0  0  0  0  0  0  0  0  0  0  0  0
   25.5337   63.6210   11.3154 H   0  0  0  0  0  0  0  0  0  0  0  0
   28.8480   66.1253    9.9925 C   0  0  0  0  0  0  0  0  0  0  0  0
   28.5261   66.5145   11.7251 S   0  0  0  0  0  0  0  0  0  0  0  0
   27.5631   67.6628   11.7886 O   0  0  0  0  0  0  0  0  0  0  0  0
 16 15  1  0
 16 17  2  0
  1 16  1  0
  1  2  1  0
  2  3  1  0
  2  4  1  0
  4  5  1  0
  4  6  1  0
  6  7  1  0
  6  8  1  0
  8  9  1  0
  8  1  1  0
  3 10  1  0
  3 11  1  0
  5 12  1  0
  7 13  1  0
  9 14  1  0
M  END
> <minimizedAffinity>
-4.58342

> <CNNscore>
0.2113513649

> <CNNaffinity>
2.3629493713

> <CNN_VS>
0.4994125664

> <CNNaffinity_variance>
1.2408322096

$$$$



 17 17  0  0  0  0  0  0  0  0999 V2000
   26.6846   63.0107   12.3783 C   0  0  0  0  0  0  0  0  0  0  0  0
   27.1879   63.9195   13.5211 C   0  0  0  0  0  0  0  0  0  0  0  0
   27.2223   63.2285   14.8253 N   0  0  0  0  0  0  0  0  0  0  0  0
   28.5990   64.3203   13.0651 C   0  0  0  0  0  0  0  0  0  0  0  0
   29.5160   63.2401   13.2923 O   0  0  0  0  0  0  0  0  0  0  0  0
   28.4133   64.5702   11.5718 C   0  0  0  0  0  0  0  0  0  0  0  0
   29.6625   64.4914   10.8856 O   0  0  0  0  0  0  0  0  0  0  0  0
   27.4320   63.4803   11.1086 C   0  0  0  0  0  0  0  0  0  0  0  0
   28.1757   62.4030   10.5112 O   0  0  0  0  0  0  0  0  0  0  0  0
   27.8252   62.4084   14.7598 H   0  0  0  0  0  0  0  0  0  0  0  0
   26.2788   62.9373   15.0809 H   0  0  0  0  0  0  0  0  0  0  0  0
   29.1975   62.4446   12.8377 H   0  0  0  0  0  0  0  0  0  0  0  0
   30.0597   63.6193   11.0362 H   0  0  0  0  0  0  0  0  0  0  0  0
   28.8166   62.0580   11.1524 H   0  0  0  0  0  0  0  0  0  0  0  0
   24.8207   62.3376   10.4697 C   0  0  0  0  0  0  0  0  0  0  0  0
   24.8861   63.1448   12.0824 S   0  0  0  0  0  0  0  0  0  0  0  0
   24.1931   62.2708   13.0855 O   0  0  0  0  0  0  0  0  0  0  0  0
 16 15  1  0
 16 17  2  0
  1 16  1  0
  1  2  1  0
  2  3  1  0
  2  4  1  0
  4  5  1  0
  4  6  1  0
  6  7  1  0
  6  8  1  0
  8  9  1  0
  8  1  1  0
  3 10  1  0
  3 11  1  0
  5 12  1  0
  7 13  1  0
  9 14  1  0
M  END
> <minimizedAffinity>
-5.99384

> <CNNscore>
0.2112450302

> <CNNaffinity>
3.2224018574

> <CNN_VS>
0.6807163954

> <CNNaffinity_variance>
0.2632126212

$$$$
