


 42 43  0  0  0  0  0  0  0  0999 V2000
   41.6254  -10.1700   34.9317 C   0  0  0  0  0  0  0  0  0  0  0  0
   42.7913  -10.5790   35.8587 C   0  0  0  0  0  0  0  0  0  0  0  0
   42.8089   -9.9063   37.2565 C   0  0  0  0  0  0  0  0  0  0  0  0
   41.5550  -10.2317   38.0706 C   0  0  0  0  0  0  0  0  0  0  0  0
   43.0211   -8.3719   37.2223 C   0  0  0  0  0  0  0  0  0  0  0  0
   44.3559   -7.9409   36.6433 C   0  0  0  0  0  0  0  0  0  0  0  0
   44.4121   -7.6331   35.2659 C   0  0  0  0  0  0  0  0  0  0  0  0
   45.6129   -7.2937   34.6325 C   0  0  0  0  0  0  0  0  0  0  0  0
   46.7737   -7.1968   35.3983 C   0  0  0  0  0  0  0  0  0  0  0  0
   46.7321   -7.4745   36.7637 C   0  0  0  0  0  0  0  0  0  0  0  0
   47.9159   -7.3681   37.4432 O   0  0  0  0  0  0  0  0  0  0  0  0
   45.5389   -7.8584   37.3918 C   0  0  0  0  0  0  0  0  0  0  0  0
   45.5866   -8.2583   39.2529 Br  0  0  0  0  0  0  0  0  0  0  0  0
   45.7376   -7.1014   33.2394 N   0  0  0  0  0  0  0  0  0  0  0  0
   44.7395   -7.1963   32.2905 C   0  0  0  0  0  0  0  0  0  0  0  0
   43.5305   -7.2648   32.4895 O   0  0  0  0  0  0  0  0  0  0  0  0
   45.2522   -7.2494   30.8792 C   0  0  0  0  0  0  0  0  0  0  0  0
   44.4610   -6.4593   29.8851 C   0  0  0  0  0  0  0  0  0  0  0  0
   46.2243   -8.1440   30.5973 C   0  0  0  0  0  0  0  0  0  0  0  0
   46.6223   -8.6353   29.2268 C   0  0  0  0  0  0  0  0  0  0  0  0
   45.5788   -9.6046   28.6214 C   0  0  0  0  0  0  0  0  0  0  0  0
   45.0777  -10.6926   29.6076 C   0  0  0  0  0  0  0  0  0  0  0  0
   46.1493  -11.7671   29.8192 C   0  0  0  0  0  0  0  0  0  0  0  0
   43.6958  -11.2699   29.1754 C   0  0  0  0  0  0  0  0  0  0  0  0
   42.7141  -11.6280   30.3110 C   0  0  0  0  0  0  0  0  0  0  0  0
   41.2915  -11.7485   29.8228 C   0  0  0  0  0  0  0  0  0  0  0  0
   43.0648  -11.6758   31.6185 C   0  0  0  0  0  0  0  0  0  0  0  0
   42.2534  -11.7746   32.9091 C   0  0  0  0  0  0  0  0  0  0  0  0
   41.0032  -12.6502   32.8482 C   0  0  0  0  0  0  0  0  0  0  0  0
   42.0347  -10.3285   33.4391 C   0  0  0  0  0  0  0  0  0  0  0  0
   41.0951   -9.6264   32.6078 O   0  0  0  0  0  0  0  0  0  0  0  0
   48.6942   -7.1086   36.9906 H   0  0  0  0  0  0  0  0  0  0  0  0
   46.6364   -6.8745   32.9078 H   0  0  0  0  0  0  0  0  0  0  0  0
   40.2228  -10.0442   32.6818 H   0  0  0  0  0  0  0  0  0  0  0  0
   39.2668  -10.2332   35.3181 C   0  0  0  0  0  0  0  0  0  0  0  0
   40.4901  -10.9574   35.3080 O   0  0  0  0  0  0  0  0  0  0  0  0
   43.8837  -12.4407   28.3652 O   0  0  0  0  0  0  0  0  0  0  0  0
   43.4731  -12.3577   27.0833 C   0  0  0  0  0  0  0  0  0  0  0  0
   44.4128  -11.7293   26.3440 N   0  0  0  0  0  0  0  0  0  0  0  0
   42.4241  -12.7789   26.6163 O   0  0  0  0  0  0  0  0  0  0  0  0
   45.2409  -11.4090   26.7693 H   0  0  0  0  0  0  0  0  0  0  0  0
   44.2696  -11.5915   25.3797 H   0  0  0  0  0  0  0  0  0  0  0  0
 35 36  1  0
  1 36  1  0
  1  2  1  0
  2  3  1  0
  3  4  1  0
  3  5  1  0
  5  6  1  0
  6  7  2  0
  7  8  1  0
  8  9  2  0
  9 10  1  0
 10 11  1  0
 10 12  2  0
 12 13  1  0
  8 14  1  0
 14 15  1  0
 15 16  2  0
 15 17  1  0
 17 18  1  0
 17 19  2  0
 19 20  1  0
 20 21  1  0
 21 22  1  0
 22 23  1  0
 22 24  1  0
 24 37  1  0
 37 38  1  0
 38 39  1  0
 38 40  2  0
 24 25  1  0
 25 26  1  0
 25 27  2  0
 27 28  1  0
 28 29  1  0
 28 30  1  0
 30 31  1  0
 30  1  1  0
 12  6  1  0
 11 32  1  0
 14 33  1  0
 39 41  1  0
 39 42  1  0
 31 34  1  0
M  END
> <minimizedAffinity>
-7.19979

> <CNNscore>
0.4335646927

> <CNNaffinity>
6.3579449654

> <CNN_VS>
2.7565803528

> <CNNaffinity_variance>
0.3474486768

$$$$



 42 43  0  0  0  0  0  0  0  0999 V2000
   44.1179   -8.2055   32.8455 C   0  0  0  0  0  0  0  0  0  0  0  0
   44.5775   -9.6621   32.6151 C   0  0  0  0  0  0  0  0  0  0  0  0
   44.7079  -10.1012   31.1330 C   0  0  0  0  0  0  0  0  0  0  0  0
   45.7349   -9.2623   30.3697 C   0  0  0  0  0  0  0  0  0  0  0  0
   43.3693  -10.1174   30.3532 C   0  0  0  0  0  0  0  0  0  0  0  0
   42.3482  -11.1033   30.8899 C   0  0  0  0  0  0  0  0  0  0  0  0
   41.4006  -10.6322   31.8256 C   0  0  0  0  0  0  0  0  0  0  0  0
   40.4663  -11.4845   32.4248 C   0  0  0  0  0  0  0  0  0  0  0  0
   40.4321  -12.8235   32.0385 C   0  0  0  0  0  0  0  0  0  0  0  0
   41.3448  -13.3006   31.0991 C   0  0  0  0  0  0  0  0  0  0  0  0
   41.2536  -14.6292   30.7816 O   0  0  0  0  0  0  0  0  0  0  0  0
   42.3108  -12.4583   30.5308 C   0  0  0  0  0  0  0  0  0  0  0  0
   43.5427  -13.2079   29.2871 Br  0  0  0  0  0  0  0  0  0  0  0  0
   39.5865  -11.0841   33.4538 N   0  0  0  0  0  0  0  0  0  0  0  0
   39.4824   -9.8308   34.0231 C   0  0  0  0  0  0  0  0  0  0  0  0
   39.9823   -8.7868   33.6155 O   0  0  0  0  0  0  0  0  0  0  0  0
   38.6843   -9.8110   35.2959 C   0  0  0  0  0  0  0  0  0  0  0  0
   37.7714   -8.6366   35.4559 C   0  0  0  0  0  0  0  0  0  0  0  0
   39.0029  -10.7115   36.2511 C   0  0  0  0  0  0  0  0  0  0  0  0
   38.6179  -10.6479   37.7091 C   0  0  0  0  0  0  0  0  0  0  0  0
   39.4148   -9.5707   38.4834 C   0  0  0  0  0  0  0  0  0  0  0  0
   40.9381   -9.5755   38.1887 C   0  0  0  0  0  0  0  0  0  0  0  0
   41.6192  -10.7635   38.8761 C   0  0  0  0  0  0  0  0  0  0  0  0
   41.5948   -8.2026   38.5258 C   0  0  0  0  0  0  0  0  0  0  0  0
   42.7291   -7.7342   37.5902 C   0  0  0  0  0  0  0  0  0  0  0  0
   42.9944   -6.2535   37.7068 C   0  0  0  0  0  0  0  0  0  0  0  0
   43.3122   -8.5297   36.6616 C   0  0  0  0  0  0  0  0  0  0  0  0
   44.2611   -8.2460   35.4985 C   0  0  0  0  0  0  0  0  0  0  0  0
   45.3082   -7.1600   35.7386 C   0  0  0  0  0  0  0  0  0  0  0  0
   43.3960   -8.0724   34.2172 C   0  0  0  0  0  0  0  0  0  0  0  0
   42.6780   -6.8276   34.2618 O   0  0  0  0  0  0  0  0  0  0  0  0
   40.5949  -15.1623   31.1814 H   0  0  0  0  0  0  0  0  0  0  0  0
   38.9797  -11.7756   33.8043 H   0  0  0  0  0  0  0  0  0  0  0  0
   43.3073   -6.0901   34.2288 H   0  0  0  0  0  0  0  0  0  0  0  0
   45.0326   -6.1566   32.0198 C   0  0  0  0  0  0  0  0  0  0  0  0
   45.2750   -7.3719   32.7164 O   0  0  0  0  0  0  0  0  0  0  0  0
   42.1044   -8.2178   39.8684 O   0  0  0  0  0  0  0  0  0  0  0  0
   41.7187   -7.2041   40.6699 C   0  0  0  0  0  0  0  0  0  0  0  0
   42.4486   -7.2194   41.8065 N   0  0  0  0  0  0  0  0  0  0  0  0
   40.8526   -6.3716   40.4409 O   0  0  0  0  0  0  0  0  0  0  0  0
   43.1347   -7.9124   41.9416 H   0  0  0  0  0  0  0  0  0  0  0  0
   42.2945   -6.5375   42.4996 H   0  0  0  0  0  0  0  0  0  0  0  0
 35 36  1  0
  1 36  1  0
  1  2  1  0
  2  3  1  0
  3  4  1  0
  3  5  1  0
  5  6  1  0
  6  7  2  0
  7  8  1  0
  8  9  2  0
  9 10  1  0
 10 11  1  0
 10 12  2  0
 12 13  1  0
  8 14  1  0
 14 15  1  0
 15 16  2  0
 15 17  1  0
 17 18  1  0
 17 19  2  0
 19 20  1  0
 20 21  1  0
 21 22  1  0
 22 23  1  0
 22 24  1  0
 24 37  1  0
 37 38  1  0
 38 39  1  0
 38 40  2  0
 24 25  1  0
 25 26  1  0
 25 27  2  0
 27 28  1  0
 28 29  1  0
 28 30  1  0
 30 31  1  0
 30  1  1  0
 12  6  1  0
 11 32  1  0
 14 33  1  0
 39 41  1  0
 39 42  1  0
 31 34  1  0
M  END
> <minimizedAffinity>
-8.42358

> <CNNscore>
0.2707245350

> <CNNaffinity>
6.3481101990

> <CNN_VS>
1.7185891867

> <CNNaffinity_variance>
0.5328626037

$$$$



 42 43  0  0  0  0  0  0  0  0999 V2000
   44.5101  -10.2623   30.9458 C   0  0  0  0  0  0  0  0  0  0  0  0
   44.3217   -8.8611   30.3235 C   0  0  0  0  0  0  0  0  0  0  0  0
   45.6245   -8.1234   29.9173 C   0  0  0  0  0  0  0  0  0  0  0  0
   46.4208   -8.8944   28.8626 C   0  0  0  0  0  0  0  0  0  0  0  0
   46.5507   -7.7648   31.1064 C   0  0  0  0  0  0  0  0  0  0  0  0
   45.9364   -6.8019   32.1055 C   0  0  0  0  0  0  0  0  0  0  0  0
   45.2768   -7.3455   33.2300 C   0  0  0  0  0  0  0  0  0  0  0  0
   44.6226   -6.5368   34.1661 C   0  0  0  0  0  0  0  0  0  0  0  0
   44.6787   -5.1521   34.0149 C   0  0  0  0  0  0  0  0  0  0  0  0
   45.3452   -4.5974   32.9235 C   0  0  0  0  0  0  0  0  0  0  0  0
   45.3453   -3.2309   32.8403 O   0  0  0  0  0  0  0  0  0  0  0  0
   45.9630   -5.4074   31.9602 C   0  0  0  0  0  0  0  0  0  0  0  0
   46.8140   -4.5620   30.4814 Br  0  0  0  0  0  0  0  0  0  0  0  0
   43.8472   -7.0414   35.2325 N   0  0  0  0  0  0  0  0  0  0  0  0
   43.6132   -8.3665   35.5412 C   0  0  0  0  0  0  0  0  0  0  0  0
   44.1874   -9.3482   35.0803 O   0  0  0  0  0  0  0  0  0  0  0  0
   42.5014   -8.5678   36.5314 C   0  0  0  0  0  0  0  0  0  0  0  0
   42.7511   -9.6231   37.5621 C   0  0  0  0  0  0  0  0  0  0  0  0
   41.3248   -7.9501   36.2889 C   0  0  0  0  0  0  0  0  0  0  0  0
   39.9897   -8.2873   36.9069 C   0  0  0  0  0  0  0  0  0  0  0  0
   39.3953   -9.6018   36.3468 C   0  0  0  0  0  0  0  0  0  0  0  0
   39.4725   -9.7244   34.8019 C   0  0  0  0  0  0  0  0  0  0  0  0
   38.4358   -8.8151   34.1338 C   0  0  0  0  0  0  0  0  0  0  0  0
   39.3880  -11.2096   34.3367 C   0  0  0  0  0  0  0  0  0  0  0  0
   40.2470  -11.5978   33.1147 C   0  0  0  0  0  0  0  0  0  0  0  0
   40.4530  -13.0887   33.0087 C   0  0  0  0  0  0  0  0  0  0  0  0
   40.8713  -10.6960   32.3198 C   0  0  0  0  0  0  0  0  0  0  0  0
   41.9299  -10.8316   31.2268 C   0  0  0  0  0  0  0  0  0  0  0  0
   41.8175  -12.0673   30.3358 C   0  0  0  0  0  0  0  0  0  0  0  0
   43.3199  -10.6048   31.8875 C   0  0  0  0  0  0  0  0  0  0  0  0
   43.6712  -11.7271   32.7144 O   0  0  0  0  0  0  0  0  0  0  0  0
   44.9221   -2.7211   33.5028 H   0  0  0  0  0  0  0  0  0  0  0  0
   43.4266   -6.3741   35.8216 H   0  0  0  0  0  0  0  0  0  0  0  0
   43.7945  -12.5124   32.1584 H   0  0  0  0  0  0  0  0  0  0  0  0
   44.0610  -10.7697   28.6529 C   0  0  0  0  0  0  0  0  0  0  0  0
   44.6777  -11.1859   29.8643 O   0  0  0  0  0  0  0  0  0  0  0  0
   38.0246  -11.5582   34.0498 O   0  0  0  0  0  0  0  0  0  0  0  0
   37.4233  -12.3987   34.9161 C   0  0  0  0  0  0  0  0  0  0  0  0
   37.0936  -11.7313   36.0434 N   0  0  0  0  0  0  0  0  0  0  0  0
   37.1857  -13.5864   34.7468 O   0  0  0  0  0  0  0  0  0  0  0  0
   37.3077  -10.7743   36.1293 H   0  0  0  0  0  0  0  0  0  0  0  0
   36.6391  -12.2021   36.7790 H   0  0  0  0  0  0  0  0  0  0  0  0
 35 36  1  0
  1 36  1  0
  1  2  1  0
  2  3  1  0
  3  4  1  0
  3  5  1  0
  5  6  1  0
  6  7  2  0
  7  8  1  0
  8  9  2  0
  9 10  1  0
 10 11  1  0
 10 12  2  0
 12 13  1  0
  8 14  1  0
 14 15  1  0
 15 16  2  0
 15 17  1  0
 17 18  1  0
 17 19  2  0
 19 20  1  0
 20 21  1  0
 21 22  1  0
 22 23  1  0
 22 24  1  0
 24 37  1  0
 37 38  1  0
 38 39  1  0
 38 40  2  0
 24 25  1  0
 25 26  1  0
 25 27  2  0
 27 28  1  0
 28 29  1  0
 28 30  1  0
 30 31  1  0
 30  1  1  0
 12  6  1  0
 11 32  1  0
 14 33  1  0
 39 41  1  0
 39 42  1  0
 31 34  1  0
M  END
> <minimizedAffinity>
-8.11525

> <CNNscore>
0.2590680718

> <CNNaffinity>
6.0051808357

> <CNN_VS>
1.5557506084

> <CNNaffinity_variance>
0.3282779157

$$$$



 42 43  0  0  0  0  0  0  0  0999 V2000
   43.3906   -4.4636   31.0826 C   0  0  0  0  0  0  0  0  0  0  0  0
   44.7984   -4.4864   31.7179 C   0  0  0  0  0  0  0  0  0  0  0  0
   45.6803   -5.7110   31.3583 C   0  0  0  0  0  0  0  0  0  0  0  0
   45.9491   -5.8085   29.8553 C   0  0  0  0  0  0  0  0  0  0  0  0
   45.1322   -7.0646   31.8758 C   0  0  0  0  0  0  0  0  0  0  0  0
   45.0473   -7.1647   33.3876 C   0  0  0  0  0  0  0  0  0  0  0  0
   43.8238   -6.8252   34.0064 C   0  0  0  0  0  0  0  0  0  0  0  0
   43.6747   -6.8219   35.3978 C   0  0  0  0  0  0  0  0  0  0  0  0
   44.7479   -7.2259   36.1905 C   0  0  0  0  0  0  0  0  0  0  0  0
   45.9558   -7.5866   35.5955 C   0  0  0  0  0  0  0  0  0  0  0  0
   46.9644   -7.9601   36.4427 O   0  0  0  0  0  0  0  0  0  0  0  0
   46.1214   -7.5476   34.2039 C   0  0  0  0  0  0  0  0  0  0  0  0
   47.8201   -8.0180   33.4834 Br  0  0  0  0  0  0  0  0  0  0  0  0
   42.5129   -6.3706   36.0609 N   0  0  0  0  0  0  0  0  0  0  0  0
   41.3575   -5.8836   35.4834 C   0  0  0  0  0  0  0  0  0  0  0  0
   41.0409   -5.9360   34.2990 O   0  0  0  0  0  0  0  0  0  0  0  0
   40.4407   -5.1965   36.4555 C   0  0  0  0  0  0  0  0  0  0  0  0
   38.9838   -5.4771   36.2626 C   0  0  0  0  0  0  0  0  0  0  0  0
   40.9728   -4.2502   37.2592 C   0  0  0  0  0  0  0  0  0  0  0  0
   40.2152   -3.1915   38.0231 C   0  0  0  0  0  0  0  0  0  0  0  0
   39.6685   -2.0758   37.1004 C   0  0  0  0  0  0  0  0  0  0  0  0
   40.6958   -1.5519   36.0624 C   0  0  0  0  0  0  0  0  0  0  0  0
   41.7440   -0.6623   36.7390 C   0  0  0  0  0  0  0  0  0  0  0  0
   39.9932   -0.8712   34.8489 C   0  0  0  0  0  0  0  0  0  0  0  0
   40.6516   -1.0771   33.4684 C   0  0  0  0  0  0  0  0  0  0  0  0
   39.7049   -0.7812   32.3315 C   0  0  0  0  0  0  0  0  0  0  0  0
   41.8853   -1.6097   33.2976 C   0  0  0  0  0  0  0  0  0  0  0  0
   42.6387   -2.1131   32.0678 C   0  0  0  0  0  0  0  0  0  0  0  0
   42.4129   -1.3282   30.7769 C   0  0  0  0  0  0  0  0  0  0  0  0
   42.4060   -3.6481   31.9693 C   0  0  0  0  0  0  0  0  0  0  0  0
   41.0547   -3.9254   31.5639 O   0  0  0  0  0  0  0  0  0  0  0  0
   46.8177   -7.9745   37.3681 H   0  0  0  0  0  0  0  0  0  0  0  0
   42.5285   -6.4074   37.0446 H   0  0  0  0  0  0  0  0  0  0  0  0
   40.9157   -3.6026   30.6598 H   0  0  0  0  0  0  0  0  0  0  0  0
   42.4074   -4.1866   28.9210 C   0  0  0  0  0  0  0  0  0  0  0  0
   43.5350   -3.9500   29.7538 O   0  0  0  0  0  0  0  0  0  0  0  0
   39.8750    0.5416   35.0782 O   0  0  0  0  0  0  0  0  0  0  0  0
   40.9948    1.2741   34.9113 C   0  0  0  0  0  0  0  0  0  0  0  0
   41.2228    2.0157   36.0171 N   0  0  0  0  0  0  0  0  0  0  0  0
   41.7260    1.2904   33.9311 O   0  0  0  0  0  0  0  0  0  0  0  0
   40.6023    1.9659   36.7798 H   0  0  0  0  0  0  0  0  0  0  0  0
   42.0095    2.6061   36.0603 H   0  0  0  0  0  0  0  0  0  0  0  0
 35 36  1  0
  1 36  1  0
  1  2  1  0
  2  3  1  0
  3  4  1  0
  3  5  1  0
  5  6  1  0
  6  7  2  0
  7  8  1  0
  8  9  2  0
  9 10  1  0
 10 11  1  0
 10 12  2  0
 12 13  1  0
  8 14  1  0
 14 15  1  0
 15 16  2  0
 15 17  1  0
 17 18  1  0
 17 19  2  0
 19 20  1  0
 20 21  1  0
 21 22  1  0
 22 23  1  0
 22 24  1  0
 24 37  1  0
 37 38  1  0
 38 39  1  0
 38 40  2  0
 24 25  1  0
 25 26  1  0
 25 27  2  0
 27 28  1  0
 28 29  1  0
 28 30  1  0
 30 31  1  0
 30  1  1  0
 12  6  1  0
 11 32  1  0
 14 33  1  0
 39 41  1  0
 39 42  1  0
 31 34  1  0
M  END
> <minimizedAffinity>
-7.20900

> <CNNscore>
0.2437585741

> <CNNaffinity>
5.3069977760

> <CNN_VS>
1.2936261892

> <CNNaffinity_variance>
0.6308733821

$$$$



 42 43  0  0  0  0  0  0  0  0999 V2000
   40.7786   -1.8721   29.7147 C   0  0  0  0  0  0  0  0  0  0  0  0
   39.8256   -2.8578   29.0031 C   0  0  0  0  0  0  0  0  0  0  0  0
   40.1972   -3.2172   27.5404 C   0  0  0  0  0  0  0  0  0  0  0  0
   41.5685   -3.8884   27.4405 C   0  0  0  0  0  0  0  0  0  0  0  0
   40.1311   -2.0238   26.5547 C   0  0  0  0  0  0  0  0  0  0  0  0
   38.7462   -1.4246   26.3946 C   0  0  0  0  0  0  0  0  0  0  0  0
   38.4019   -0.3244   27.2108 C   0  0  0  0  0  0  0  0  0  0  0  0
   37.1253    0.2480   27.1806 C   0  0  0  0  0  0  0  0  0  0  0  0
   36.1885   -0.2444   26.2731 C   0  0  0  0  0  0  0  0  0  0  0  0
   36.5187   -1.3148   25.4435 C   0  0  0  0  0  0  0  0  0  0  0  0
   35.5405   -1.7471   24.5888 O   0  0  0  0  0  0  0  0  0  0  0  0
   37.7825   -1.9188   25.5038 C   0  0  0  0  0  0  0  0  0  0  0  0
   38.1294   -3.4021   24.3613 Br  0  0  0  0  0  0  0  0  0  0  0  0
   36.7000    1.2635   28.0643 N   0  0  0  0  0  0  0  0  0  0  0  0
   37.4371    1.8605   29.0673 C   0  0  0  0  0  0  0  0  0  0  0  0
   38.6470    1.7716   29.2523 O   0  0  0  0  0  0  0  0  0  0  0  0
   36.6085    2.6689   30.0250 C   0  0  0  0  0  0  0  0  0  0  0  0
   37.2197    3.9641   30.4581 C   0  0  0  0  0  0  0  0  0  0  0  0
   35.5164    2.0819   30.5610 C   0  0  0  0  0  0  0  0  0  0  0  0
   34.7662    2.5341   31.7902 C   0  0  0  0  0  0  0  0  0  0  0  0
   35.5430    2.2415   33.0963 C   0  0  0  0  0  0  0  0  0  0  0  0
   36.1522    0.8162   33.1655 C   0  0  0  0  0  0  0  0  0  0  0  0
   35.0608   -0.2277   33.4239 C   0  0  0  0  0  0  0  0  0  0  0  0
   37.3343    0.7432   34.1789 C   0  0  0  0  0  0  0  0  0  0  0  0
   38.5135   -0.1755   33.7956 C   0  0  0  0  0  0  0  0  0  0  0  0
   39.7658    0.1432   34.5744 C   0  0  0  0  0  0  0  0  0  0  0  0
   38.4726   -1.0606   32.7709 C   0  0  0  0  0  0  0  0  0  0  0  0
   39.5477   -1.8887   32.0695 C   0  0  0  0  0  0  0  0  0  0  0  0
   40.6598   -2.4358   32.9625 C   0  0  0  0  0  0  0  0  0  0  0  0
   40.0211   -1.0864   30.8235 C   0  0  0  0  0  0  0  0  0  0  0  0
   40.8053    0.0491   31.2266 O   0  0  0  0  0  0  0  0  0  0  0  0
   34.7070   -1.3192   24.5757 H   0  0  0  0  0  0  0  0  0  0  0  0
   35.7749    1.5813   27.9528 H   0  0  0  0  0  0  0  0  0  0  0  0
   41.6268   -0.2564   31.6422 H   0  0  0  0  0  0  0  0  0  0  0  0
   43.1552   -2.1083   29.8242 C   0  0  0  0  0  0  0  0  0  0  0  0
   41.8892   -2.6343   30.2004 O   0  0  0  0  0  0  0  0  0  0  0  0
   36.8522    0.3325   35.4679 O   0  0  0  0  0  0  0  0  0  0  0  0
   36.8834    1.2607   36.4457 C   0  0  0  0  0  0  0  0  0  0  0  0
   36.5273    0.6966   37.6204 N   0  0  0  0  0  0  0  0  0  0  0  0
   37.1882    2.4398   36.3338 O   0  0  0  0  0  0  0  0  0  0  0  0
   36.2908   -0.2584   37.6562 H   0  0  0  0  0  0  0  0  0  0  0  0
   36.5044    1.2405   38.4407 H   0  0  0  0  0  0  0  0  0  0  0  0
 35 36  1  0
  1 36  1  0
  1  2  1  0
  2  3  1  0
  3  4  1  0
  3  5  1  0
  5  6  1  0
  6  7  2  0
  7  8  1  0
  8  9  2  0
  9 10  1  0
 10 11  1  0
 10 12  2  0
 12 13  1  0
  8 14  1  0
 14 15  1  0
 15 16  2  0
 15 17  1  0
 17 18  1  0
 17 19  2  0
 19 20  1  0
 20 21  1  0
 21 22  1  0
 22 23  1  0
 22 24  1  0
 24 37  1  0
 37 38  1  0
 38 39  1  0
 38 40  2  0
 24 25  1  0
 25 26  1  0
 25 27  2  0
 27 28  1  0
 28 29  1  0
 28 30  1  0
 30 31  1  0
 30  1  1  0
 12  6  1  0
 11 32  1  0
 14 33  1  0
 39 41  1  0
 39 42  1  0
 31 34  1  0
M  END
> <minimizedAffinity>
-7.64927

> <CNNscore>
0.2293385267

> <CNNaffinity>
5.5894722939

> <CNN_VS>
1.2818813324

> <CNNaffinity_variance>
0.7335205674

$$$$



 42 43  0  0  0  0  0  0  0  0999 V2000
   44.1223   -3.6634   33.4383 C   0  0  0  0  0  0  0  0  0  0  0  0
   42.7301   -3.4314   32.8106 C   0  0  0  0  0  0  0  0  0  0  0  0
   42.0470   -2.0844   33.1651 C   0  0  0  0  0  0  0  0  0  0  0  0
   42.8689   -0.8798   32.7020 C   0  0  0  0  0  0  0  0  0  0  0  0
   41.6932   -1.9249   34.6650 C   0  0  0  0  0  0  0  0  0  0  0  0
   40.6872   -2.9383   35.1784 C   0  0  0  0  0  0  0  0  0  0  0  0
   41.1819   -4.1193   35.7749 C   0  0  0  0  0  0  0  0  0  0  0  0
   40.3300   -5.1389   36.2139 C   0  0  0  0  0  0  0  0  0  0  0  0
   38.9518   -4.9535   36.1150 C   0  0  0  0  0  0  0  0  0  0  0  0
   38.4455   -3.7840   35.5501 C   0  0  0  0  0  0  0  0  0  0  0  0
   37.0820   -3.6829   35.4786 O   0  0  0  0  0  0  0  0  0  0  0  0
   39.2981   -2.7805   35.0687 C   0  0  0  0  0  0  0  0  0  0  0  0
   38.5165   -1.2360   34.2753 Br  0  0  0  0  0  0  0  0  0  0  0  0
   40.7831   -6.3848   36.6993 N   0  0  0  0  0  0  0  0  0  0  0  0
   42.0919   -6.8021   36.8357 C   0  0  0  0  0  0  0  0  0  0  0  0
   43.1031   -6.1115   36.7552 O   0  0  0  0  0  0  0  0  0  0  0  0
   42.2322   -8.2785   37.0762 C   0  0  0  0  0  0  0  0  0  0  0  0
   43.2716   -8.6632   38.0812 C   0  0  0  0  0  0  0  0  0  0  0  0
   41.5802   -9.1158   36.2403 C   0  0  0  0  0  0  0  0  0  0  0  0
   41.8571  -10.5869   36.0470 C   0  0  0  0  0  0  0  0  0  0  0  0
   43.1629  -10.8426   35.2568 C   0  0  0  0  0  0  0  0  0  0  0  0
   43.3234   -9.9555   33.9940 C   0  0  0  0  0  0  0  0  0  0  0  0
   42.3947  -10.4348   32.8735 C   0  0  0  0  0  0  0  0  0  0  0  0
   44.8152   -9.8390   33.5573 C   0  0  0  0  0  0  0  0  0  0  0  0
   45.2605   -8.4762   32.9863 C   0  0  0  0  0  0  0  0  0  0  0  0
   46.7597   -8.3071   33.0086 C   0  0  0  0  0  0  0  0  0  0  0  0
   44.3992   -7.4866   32.6489 C   0  0  0  0  0  0  0  0  0  0  0  0
   44.5960   -6.0140   32.2934 C   0  0  0  0  0  0  0  0  0  0  0  0
   45.8473   -5.6828   31.4822 C   0  0  0  0  0  0  0  0  0  0  0  0
   44.4020   -5.1857   33.5959 C   0  0  0  0  0  0  0  0  0  0  0  0
   45.5165   -5.3784   34.4834 O   0  0  0  0  0  0  0  0  0  0  0  0
   36.5430   -4.3736   35.8107 H   0  0  0  0  0  0  0  0  0  0  0  0
   40.0884   -7.0275   36.9706 H   0  0  0  0  0  0  0  0  0  0  0  0
   46.3180   -5.0092   34.0808 H   0  0  0  0  0  0  0  0  0  0  0  0
   44.6650   -2.8327   31.2631 C   0  0  0  0  0  0  0  0  0  0  0  0
   45.0756   -2.9812   32.6159 O   0  0  0  0  0  0  0  0  0  0  0  0
   45.1233  -10.8499   32.5848 O   0  0  0  0  0  0  0  0  0  0  0  0
   46.0864  -11.7327   32.9189 C   0  0  0  0  0  0  0  0  0  0  0  0
   45.5514  -12.7361   33.6480 N   0  0  0  0  0  0  0  0  0  0  0  0
   47.2719  -11.6777   32.6231 O   0  0  0  0  0  0  0  0  0  0  0  0
   44.5897  -12.7328   33.8588 H   0  0  0  0  0  0  0  0  0  0  0  0
   46.1231  -13.4707   33.9686 H   0  0  0  0  0  0  0  0  0  0  0  0
 35 36  1  0
  1 36  1  0
  1  2  1  0
  2  3  1  0
  3  4  1  0
  3  5  1  0
  5  6  1  0
  6  7  2  0
  7  8  1  0
  8  9  2  0
  9 10  1  0
 10 11  1  0
 10 12  2  0
 12 13  1  0
  8 14  1  0
 14 15  1  0
 15 16  2  0
 15 17  1  0
 17 18  1  0
 17 19  2  0
 19 20  1  0
 20 21  1  0
 21 22  1  0
 22 23  1  0
 22 24  1  0
 24 37  1  0
 37 38  1  0
 38 39  1  0
 38 40  2  0
 24 25  1  0
 25 26  1  0
 25 27  2  0
 27 28  1  0
 28 29  1  0
 28 30  1  0
 30 31  1  0
 30  1  1  0
 12  6  1  0
 11 32  1  0
 14 33  1  0
 39 41  1  0
 39 42  1  0
 31 34  1  0
M  END
> <minimizedAffinity>
-7.95566

> <CNNscore>
0.2272761613

> <CNNaffinity>
5.4936499596

> <CNN_VS>
1.2485756874

> <CNNaffinity_variance>
0.5796427727

$$$$



 42 43  0  0  0  0  0  0  0  0999 V2000
   39.7243    0.3522   28.6737 C   0  0  0  0  0  0  0  0  0  0  0  0
   40.7339    1.4775   28.3568 C   0  0  0  0  0  0  0  0  0  0  0  0
   41.4336    1.3857   26.9753 C   0  0  0  0  0  0  0  0  0  0  0  0
   40.4359    1.4445   25.8169 C   0  0  0  0  0  0  0  0  0  0  0  0
   42.3514    0.1489   26.8070 C   0  0  0  0  0  0  0  0  0  0  0  0
   43.5281    0.1120   27.7643 C   0  0  0  0  0  0  0  0  0  0  0  0
   43.3741   -0.5968   28.9764 C   0  0  0  0  0  0  0  0  0  0  0  0
   44.3804   -0.6271   29.9483 C   0  0  0  0  0  0  0  0  0  0  0  0
   45.5918    0.0098   29.6828 C   0  0  0  0  0  0  0  0  0  0  0  0
   45.7696    0.6945   28.4817 C   0  0  0  0  0  0  0  0  0  0  0  0
   46.9828    1.3029   28.3015 O   0  0  0  0  0  0  0  0  0  0  0  0
   44.7465    0.7639   27.5257 C   0  0  0  0  0  0  0  0  0  0  0  0
   45.0657    1.7569   25.9326 Br  0  0  0  0  0  0  0  0  0  0  0  0
   44.2231   -1.2155   31.2220 N   0  0  0  0  0  0  0  0  0  0  0  0
   43.1018   -1.8519   31.7153 C   0  0  0  0  0  0  0  0  0  0  0  0
   42.1102   -2.2038   31.0837 O   0  0  0  0  0  0  0  0  0  0  0  0
   43.1438   -2.0838   33.1991 C   0  0  0  0  0  0  0  0  0  0  0  0
   42.6159   -3.4089   33.6508 C   0  0  0  0  0  0  0  0  0  0  0  0
   43.4462   -1.0320   33.9909 C   0  0  0  0  0  0  0  0  0  0  0  0
   43.1889   -0.9216   35.4741 C   0  0  0  0  0  0  0  0  0  0  0  0
   41.6903   -0.7130   35.7990 C   0  0  0  0  0  0  0  0  0  0  0  0
   40.9922    0.3526   34.9131 C   0  0  0  0  0  0  0  0  0  0  0  0
   41.4157    1.7651   35.3294 C   0  0  0  0  0  0  0  0  0  0  0  0
   39.4469    0.1517   34.8798 C   0  0  0  0  0  0  0  0  0  0  0  0
   38.7423    0.4553   33.5407 C   0  0  0  0  0  0  0  0  0  0  0  0
   37.3718   -0.1704   33.4588 C   0  0  0  0  0  0  0  0  0  0  0  0
   39.3451    1.0794   32.5005 C   0  0  0  0  0  0  0  0  0  0  0  0
   38.9489    1.2818   31.0391 C   0  0  0  0  0  0  0  0  0  0  0  0
   37.4623    1.5138   30.7747 C   0  0  0  0  0  0  0  0  0  0  0  0
   39.6078    0.1417   30.2108 C   0  0  0  0  0  0  0  0  0  0  0  0
   38.9545   -1.1116   30.4744 O   0  0  0  0  0  0  0  0  0  0  0  0
   47.6436    1.2354   28.9623 H   0  0  0  0  0  0  0  0  0  0  0  0
   44.9994   -1.1665   31.8254 H   0  0  0  0  0  0  0  0  0  0  0  0
   38.0414   -1.0749   30.1490 H   0  0  0  0  0  0  0  0  0  0  0  0
   37.8161   -0.3977   27.4438 C   0  0  0  0  0  0  0  0  0  0  0  0
   38.4883    0.7031   28.0416 O   0  0  0  0  0  0  0  0  0  0  0  0
   38.8252    0.9495   35.8994 O   0  0  0  0  0  0  0  0  0  0  0  0
   37.9677    0.3125   36.7226 C   0  0  0  0  0  0  0  0  0  0  0  0
   38.6434   -0.5720   37.4879 N   0  0  0  0  0  0  0  0  0  0  0  0
   36.7593    0.4825   36.8033 O   0  0  0  0  0  0  0  0  0  0  0  0
   39.6173   -0.6704   37.3832 H   0  0  0  0  0  0  0  0  0  0  0  0
   38.1619   -1.1183   38.1505 H   0  0  0  0  0  0  0  0  0  0  0  0
 35 36  1  0
  1 36  1  0
  1  2  1  0
  2  3  1  0
  3  4  1  0
  3  5  1  0
  5  6  1  0
  6  7  2  0
  7  8  1  0
  8  9  2  0
  9 10  1  0
 10 11  1  0
 10 12  2  0
 12 13  1  0
  8 14  1  0
 14 15  1  0
 15 16  2  0
 15 17  1  0
 17 18  1  0
 17 19  2  0
 19 20  1  0
 20 21  1  0
 21 22  1  0
 22 23  1  0
 22 24  1  0
 24 37  1  0
 37 38  1  0
 38 39  1  0
 38 40  2  0
 24 25  1  0
 25 26  1  0
 25 27  2  0
 27 28  1  0
 28 29  1  0
 28 30  1  0
 30 31  1  0
 30  1  1  0
 12  6  1  0
 11 32  1  0
 14 33  1  0
 39 41  1  0
 39 42  1  0
 31 34  1  0
M  END
> <minimizedAffinity>
-7.60429

> <CNNscore>
0.2127898335

> <CNNaffinity>
5.3403487206

> <CNN_VS>
1.1363719702

> <CNNaffinity_variance>
0.6106981635

$$$$



 42 43  0  0  0  0  0  0  0  0999 V2000
   39.6860   -0.0224   34.4038 C   0  0  0  0  0  0  0  0  0  0  0  0
   39.1368    1.4206   34.3547 C   0  0  0  0  0  0  0  0  0  0  0  0
   37.7524    1.6377   35.0201 C   0  0  0  0  0  0  0  0  0  0  0  0
   37.7677    1.2965   36.5115 C   0  0  0  0  0  0  0  0  0  0  0  0
   36.5880    0.8856   34.3281 C   0  0  0  0  0  0  0  0  0  0  0  0
   36.3274    1.3221   32.8983 C   0  0  0  0  0  0  0  0  0  0  0  0
   36.9553    0.5991   31.8600 C   0  0  0  0  0  0  0  0  0  0  0  0
   36.8278    0.9719   30.5173 C   0  0  0  0  0  0  0  0  0  0  0  0
   36.0064    2.0509   30.1936 C   0  0  0  0  0  0  0  0  0  0  0  0
   35.3605    2.7616   31.2039 C   0  0  0  0  0  0  0  0  0  0  0  0
   34.5813    3.8144   30.8052 O   0  0  0  0  0  0  0  0  0  0  0  0
   35.5227    2.4175   32.5533 C   0  0  0  0  0  0  0  0  0  0  0  0
   34.6341    3.4716   33.8667 Br  0  0  0  0  0  0  0  0  0  0  0  0
   37.5355    0.3567   29.4619 N   0  0  0  0  0  0  0  0  0  0  0  0
   38.4335   -0.6876   29.5556 C   0  0  0  0  0  0  0  0  0  0  0  0
   38.6361   -1.4070   30.5289 O   0  0  0  0  0  0  0  0  0  0  0  0
   39.2455   -0.8984   28.3091 C   0  0  0  0  0  0  0  0  0  0  0  0
   39.4685   -2.3283   27.9297 C   0  0  0  0  0  0  0  0  0  0  0  0
   39.8633    0.1765   27.7728 C   0  0  0  0  0  0  0  0  0  0  0  0
   41.0007    0.1560   26.7808 C   0  0  0  0  0  0  0  0  0  0  0  0
   42.3405   -0.2694   27.4281 C   0  0  0  0  0  0  0  0  0  0  0  0
   42.6398    0.4277   28.7815 C   0  0  0  0  0  0  0  0  0  0  0  0
   43.0568    1.8854   28.5597 C   0  0  0  0  0  0  0  0  0  0  0  0
   43.6575   -0.3865   29.6365 C   0  0  0  0  0  0  0  0  0  0  0  0
   43.4318   -0.3826   31.1632 C   0  0  0  0  0  0  0  0  0  0  0  0
   44.1555   -1.5126   31.8530 C   0  0  0  0  0  0  0  0  0  0  0  0
   42.5619    0.4446   31.7908 C   0  0  0  0  0  0  0  0  0  0  0  0
   42.0072    0.4835   33.2136 C   0  0  0  0  0  0  0  0  0  0  0  0
   42.9815    0.0909   34.3227 C   0  0  0  0  0  0  0  0  0  0  0  0
   40.6511   -0.2789   33.2108 C   0  0  0  0  0  0  0  0  0  0  0  0
   40.8709   -1.6925   33.0681 O   0  0  0  0  0  0  0  0  0  0  0  0
   34.4959    4.0155   29.8940 H   0  0  0  0  0  0  0  0  0  0  0  0
   37.3702    0.7119   28.5587 H   0  0  0  0  0  0  0  0  0  0  0  0
   41.3339   -2.0284   33.8514 H   0  0  0  0  0  0  0  0  0  0  0  0
   40.0251   -1.4648   36.2802 C   0  0  0  0  0  0  0  0  0  0  0  0
   40.2927   -0.2001   35.6886 O   0  0  0  0  0  0  0  0  0  0  0  0
   44.9933    0.0766   29.3840 O   0  0  0  0  0  0  0  0  0  0  0  0
   45.8238   -0.7891   28.7679 C   0  0  0  0  0  0  0  0  0  0  0  0
   46.9745   -0.8925   29.4679 N   0  0  0  0  0  0  0  0  0  0  0  0
   45.6076   -1.4123   27.7380 O   0  0  0  0  0  0  0  0  0  0  0  0
   47.0983   -0.3681   30.2918 H   0  0  0  0  0  0  0  0  0  0  0  0
   47.6893   -1.4924   29.1541 H   0  0  0  0  0  0  0  0  0  0  0  0
 35 36  1  0
  1 36  1  0
  1  2  1  0
  2  3  1  0
  3  4  1  0
  3  5  1  0
  5  6  1  0
  6  7  2  0
  7  8  1  0
  8  9  2  0
  9 10  1  0
 10 11  1  0
 10 12  2  0
 12 13  1  0
  8 14  1  0
 14 15  1  0
 15 16  2  0
 15 17  1  0
 17 18  1  0
 17 19  2  0
 19 20  1  0
 20 21  1  0
 21 22  1  0
 22 23  1  0
 22 24  1  0
 24 37  1  0
 37 38  1  0
 38 39  1  0
 38 40  2  0
 24 25  1  0
 25 26  1  0
 25 27  2  0
 27 28  1  0
 28 29  1  0
 28 30  1  0
 30 31  1  0
 30  1  1  0
 12  6  1  0
 11 32  1  0
 14 33  1  0
 39 41  1  0
 39 42  1  0
 31 34  1  0
M  END
> <minimizedAffinity>
-8.17993

> <CNNscore>
0.2032786459

> <CNNaffinity>
5.7988619804

> <CNN_VS>
1.1787848473

> <CNNaffinity_variance>
0.1484841853

$$$$



 42 43  0  0  0  0  0  0  0  0999 V2000
   43.1467   -4.6521   33.5938 C   0  0  0  0  0  0  0  0  0  0  0  0
   44.6414   -4.6996   33.9808 C   0  0  0  0  0  0  0  0  0  0  0  0
   45.6448   -4.6791   32.7978 C   0  0  0  0  0  0  0  0  0  0  0  0
   45.5192   -3.4082   31.9551 C   0  0  0  0  0  0  0  0  0  0  0  0
   45.5683   -5.9220   31.8761 C   0  0  0  0  0  0  0  0  0  0  0  0
   45.9127   -7.2297   32.5646 C   0  0  0  0  0  0  0  0  0  0  0  0
   44.8539   -7.9927   33.1050 C   0  0  0  0  0  0  0  0  0  0  0  0
   45.0831   -9.1758   33.8163 C   0  0  0  0  0  0  0  0  0  0  0  0
   46.3903   -9.6444   33.9397 C   0  0  0  0  0  0  0  0  0  0  0  0
   47.4454   -8.9160   33.3925 C   0  0  0  0  0  0  0  0  0  0  0  0
   48.6996   -9.4368   33.5663 O   0  0  0  0  0  0  0  0  0  0  0  0
   47.2222   -7.7073   32.7181 C   0  0  0  0  0  0  0  0  0  0  0  0
   48.7287   -6.7604   32.0401 Br  0  0  0  0  0  0  0  0  0  0  0  0
   44.0693   -9.9015   34.4787 N   0  0  0  0  0  0  0  0  0  0  0  0
   42.7238   -9.5975   34.5327 C   0  0  0  0  0  0  0  0  0  0  0  0
   42.1236   -8.7651   33.8598 O   0  0  0  0  0  0  0  0  0  0  0  0
   41.9697  -10.3808   35.5696 C   0  0  0  0  0  0  0  0  0  0  0  0
   40.6139  -10.8526   35.1484 C   0  0  0  0  0  0  0  0  0  0  0  0
   42.4726  -10.4106   36.8230 C   0  0  0  0  0  0  0  0  0  0  0  0
   41.7300  -10.7958   38.0793 C   0  0  0  0  0  0  0  0  0  0  0  0
   40.7245   -9.7081   38.5273 C   0  0  0  0  0  0  0  0  0  0  0  0
   41.2963   -8.2660   38.4983 C   0  0  0  0  0  0  0  0  0  0  0  0
   42.2622   -8.0425   39.6666 C   0  0  0  0  0  0  0  0  0  0  0  0
   40.1636   -7.1984   38.4156 C   0  0  0  0  0  0  0  0  0  0  0  0
   40.4600   -5.9451   37.5653 C   0  0  0  0  0  0  0  0  0  0  0  0
   39.2040   -5.2035   37.1793 C   0  0  0  0  0  0  0  0  0  0  0  0
   41.6902   -5.6341   37.0912 C   0  0  0  0  0  0  0  0  0  0  0  0
   42.1818   -4.6105   36.0693 C   0  0  0  0  0  0  0  0  0  0  0  0
   41.4528   -3.2681   36.0627 C   0  0  0  0  0  0  0  0  0  0  0  0
   42.2777   -5.3288   34.6927 C   0  0  0  0  0  0  0  0  0  0  0  0
   40.9638   -5.5900   34.1708 O   0  0  0  0  0  0  0  0  0  0  0  0
   48.8111  -10.2476   34.0225 H   0  0  0  0  0  0  0  0  0  0  0  0
   44.3535  -10.7149   34.9550 H   0  0  0  0  0  0  0  0  0  0  0  0
   40.5215   -4.7496   33.9732 H   0  0  0  0  0  0  0  0  0  0  0  0
   43.6364   -2.3596   34.0636 C   0  0  0  0  0  0  0  0  0  0  0  0
   42.8151   -3.2795   33.3564 O   0  0  0  0  0  0  0  0  0  0  0  0
   39.8003   -6.7638   39.7354 O   0  0  0  0  0  0  0  0  0  0  0  0
   40.1008   -5.4880   40.0528 C   0  0  0  0  0  0  0  0  0  0  0  0
   41.3461   -5.4295   40.5729 N   0  0  0  0  0  0  0  0  0  0  0  0
   39.3901   -4.5040   39.9034 O   0  0  0  0  0  0  0  0  0  0  0  0
   41.8773   -6.2524   40.6720 H   0  0  0  0  0  0  0  0  0  0  0  0
   41.7224   -4.5639   40.8530 H   0  0  0  0  0  0  0  0  0  0  0  0
 35 36  1  0
  1 36  1  0
  1  2  1  0
  2  3  1  0
  3  4  1  0
  3  5  1  0
  5  6  1  0
  6  7  2  0
  7  8  1  0
  8  9  2  0
  9 10  1  0
 10 11  1  0
 10 12  2  0
 12 13  1  0
  8 14  1  0
 14 15  1  0
 15 16  2  0
 15 17  1  0
 17 18  1  0
 17 19  2  0
 19 20  1  0
 20 21  1  0
 21 22  1  0
 22 23  1  0
 22 24  1  0
 24 37  1  0
 37 38  1  0
 38 39  1  0
 38 40  2  0
 24 25  1  0
 25 26  1  0
 25 27  2  0
 27 28  1  0
 28 29  1  0
 28 30  1  0
 30 31  1  0
 30  1  1  0
 12  6  1  0
 11 32  1  0
 14 33  1  0
 39 41  1  0
 39 42  1  0
 31 34  1  0
M  END
> <minimizedAffinity>
-7.95795

> <CNNscore>
0.1905610859

> <CNNaffinity>
5.6086907387

> <CNN_VS>
1.0687981844

> <CNNaffinity_variance>
0.5632856488

$$$$
