


 27 28  0  0  0  0  0  0  0  0999 V2000
   90.5032   96.4896  -45.0084 C   0  0  0  0  0  0  0  0  0  0  0  0
   90.6746   95.3847  -45.8603 C   0  0  0  0  0  0  0  0  0  0  0  0
   91.1793   94.1757  -45.3707 C   0  0  0  0  0  0  0  0  0  0  0  0
   91.5305   94.0645  -44.0244 C   0  0  0  0  0  0  0  0  0  0  0  0
   92.0188   92.8974  -43.5694 F   0  0  0  0  0  0  0  0  0  0  0  0
   91.3791   95.1496  -43.1598 C   0  0  0  0  0  0  0  0  0  0  0  0
   91.9189   94.9308  -41.1473 I   0  0  0  0  0  0  0  0  0  0  0  0
   90.8647   96.3555  -43.6534 C   0  0  0  0  0  0  0  0  0  0  0  0
   90.7040   97.4171  -42.8000 O   0  0  0  0  0  0  0  0  0  0  0  0
   90.9428   97.3334  -41.8979 H   0  0  0  0  0  0  0  0  0  0  0  0
   91.3371   93.0657  -46.2598 C   0  0  0  0  0  0  0  0  0  0  0  0
   91.4652   92.1322  -47.0051 C   0  0  0  0  0  0  0  0  0  0  0  0
   91.6262   90.9983  -47.9134 C   0  0  0  0  0  0  0  0  0  0  0  0
   92.9679   90.5328  -47.8687 O   0  0  0  0  0  0  0  0  0  0  0  0
   93.5668   91.2460  -48.1399 H   0  0  0  0  0  0  0  0  0  0  0  0
   90.0171   97.8015  -45.6004 C   0  0  0  0  0  0  0  0  0  0  0  0
   91.5675  100.5205  -43.9129 C   0  0  0  0  0  0  0  0  0  0  0  0
   92.7735   99.8329  -44.5697 C   0  0  0  0  0  0  0  0  0  0  0  0
   92.3321   98.5385  -45.2664 C   0  0  0  0  0  0  0  0  0  0  0  0
   91.1178   98.6496  -46.1052 N   0  0  0  0  0  0  0  0  0  0  0  0
   90.6900  100.0446  -46.2700 C   0  0  0  0  0  0  0  0  0  0  0  0
   90.4674  100.8035  -44.9591 C   0  0  0  0  0  0  0  0  0  0  0  0
   91.9080  101.6429  -43.0125 N   0  0  0  0  0  0  0  0  0  0  0  0
   90.8418  101.8885  -40.7102 C   0  0  0  0  0  0  0  0  0  0  0  0
   91.9734  101.3510  -41.5767 C   0  0  0  0  0  0  0  0  0  0  0  0
   92.9995  102.4803  -43.5292 C   0  0  0  0  0  0  0  0  0  0  0  0
   94.0440  102.8433  -42.4783 C   0  0  0  0  0  0  0  0  0  0  0  0
 24 25  1  0
 25 23  1  0
 23 26  1  0
 26 27  1  0
 23 17  1  0
 17 18  1  0
 18 19  1  0
 19 20  1  0
 20 16  1  0
 16  1  1  0
  1  2  2  0
  2  3  1  0
  3 11  1  0
 11 12  3  0
 12 13  1  0
 13 14  1  0
  3  4  2  0
  4  5  1  0
  4  6  1  0
  6  7  1  0
  6  8  2  0
  8  9  1  0
 20 21  1  0
 21 22  1  0
 22 17  1  0
  8  1  1  0
 14 15  1  0
  9 10  1  0
M  END
> <minimizedAffinity>
-6.65572

> <CNNscore>
0.8591603041

> <CNNaffinity>
5.7145576477

> <CNN_VS>
4.9097208977

> <CNNaffinity_variance>
0.1260636598

$$$$



 27 28  0  0  0  0  0  0  0  0999 V2000
   90.6823   96.2630  -44.9888 C   0  0  0  0  0  0  0  0  0  0  0  0
   90.7817   95.1807  -45.8803 C   0  0  0  0  0  0  0  0  0  0  0  0
   91.2185   93.9278  -45.4381 C   0  0  0  0  0  0  0  0  0  0  0  0
   91.5733   93.7488  -44.1000 C   0  0  0  0  0  0  0  0  0  0  0  0
   91.9959   92.5399  -43.6908 F   0  0  0  0  0  0  0  0  0  0  0  0
   91.4928   94.8098  -43.1968 C   0  0  0  0  0  0  0  0  0  0  0  0
   92.0349   94.4890  -41.1986 I   0  0  0  0  0  0  0  0  0  0  0  0
   91.0462   96.0603  -43.6430 C   0  0  0  0  0  0  0  0  0  0  0  0
   90.9548   97.0987  -42.7517 O   0  0  0  0  0  0  0  0  0  0  0  0
   91.1956   96.9694  -41.8554 H   0  0  0  0  0  0  0  0  0  0  0  0
   91.3037   92.8425  -46.3667 C   0  0  0  0  0  0  0  0  0  0  0  0
   91.3775   91.9341  -47.1494 C   0  0  0  0  0  0  0  0  0  0  0  0
   91.4647   90.8254  -48.0981 C   0  0  0  0  0  0  0  0  0  0  0  0
   92.8102   90.3789  -48.1940 O   0  0  0  0  0  0  0  0  0  0  0  0
   93.3714   91.1075  -48.5025 H   0  0  0  0  0  0  0  0  0  0  0  0
   90.2694   97.6211  -45.5300 C   0  0  0  0  0  0  0  0  0  0  0  0
   87.9233  100.0790  -46.5782 C   0  0  0  0  0  0  0  0  0  0  0  0
   87.0691   99.2125  -45.6411 C   0  0  0  0  0  0  0  0  0  0  0  0
   87.8745   97.9975  -45.1604 C   0  0  0  0  0  0  0  0  0  0  0  0
   89.2487   98.2890  -44.6946 N   0  0  0  0  0  0  0  0  0  0  0  0
   89.4988   99.7322  -44.5908 C   0  0  0  0  0  0  0  0  0  0  0  0
   89.2239  100.5220  -45.8732 C   0  0  0  0  0  0  0  0  0  0  0  0
   87.1800  101.1404  -47.2907 N   0  0  0  0  0  0  0  0  0  0  0  0
   87.3189  103.5684  -48.0545 C   0  0  0  0  0  0  0  0  0  0  0  0
   87.5161  102.5289  -46.9587 C   0  0  0  0  0  0  0  0  0  0  0  0
   87.0203  100.8631  -48.7250 C   0  0  0  0  0  0  0  0  0  0  0  0
   88.2796  100.3130  -49.3873 C   0  0  0  0  0  0  0  0  0  0  0  0
 24 25  1  0
 25 23  1  0
 23 26  1  0
 26 27  1  0
 23 17  1  0
 17 18  1  0
 18 19  1  0
 19 20  1  0
 20 16  1  0
 16  1  1  0
  1  2  2  0
  2  3  1  0
  3 11  1  0
 11 12  3  0
 12 13  1  0
 13 14  1  0
  3  4  2  0
  4  5  1  0
  4  6  1  0
  6  7  1  0
  6  8  2  0
  8  9  1  0
 20 21  1  0
 21 22  1  0
 22 17  1  0
  8  1  1  0
 14 15  1  0
  9 10  1  0
M  END
> <minimizedAffinity>
-5.34719

> <CNNscore>
0.7716270089

> <CNNaffinity>
5.4137053490

> <CNN_VS>
4.1773614883

> <CNNaffinity_variance>
0.1093233824

$$$$



 27 28  0  0  0  0  0  0  0  0999 V2000
   90.7985   95.9903  -44.9013 C   0  0  0  0  0  0  0  0  0  0  0  0
   90.7874   95.0402  -45.9373 C   0  0  0  0  0  0  0  0  0  0  0  0
   91.1903   93.7216  -45.7027 C   0  0  0  0  0  0  0  0  0  0  0  0
   91.6217   93.3435  -44.4301 C   0  0  0  0  0  0  0  0  0  0  0  0
   92.0104   92.0736  -44.2210 F   0  0  0  0  0  0  0  0  0  0  0  0
   91.6514   94.2701  -43.3868 C   0  0  0  0  0  0  0  0  0  0  0  0
   92.3051   93.6520  -41.4947 I   0  0  0  0  0  0  0  0  0  0  0  0
   91.2382   95.5873  -43.6250 C   0  0  0  0  0  0  0  0  0  0  0  0
   91.2553   96.4937  -42.5958 O   0  0  0  0  0  0  0  0  0  0  0  0
   91.5468   96.2309  -41.7449 H   0  0  0  0  0  0  0  0  0  0  0  0
   91.1625   92.7743  -46.7747 C   0  0  0  0  0  0  0  0  0  0  0  0
   91.1373   91.9822  -47.6776 C   0  0  0  0  0  0  0  0  0  0  0  0
   91.1089   91.0146  -48.7729 C   0  0  0  0  0  0  0  0  0  0  0  0
   92.2598   90.1837  -48.7108 O   0  0  0  0  0  0  0  0  0  0  0  0
   93.0575   90.7299  -48.7886 H   0  0  0  0  0  0  0  0  0  0  0  0
   90.4181   97.4259  -45.2210 C   0  0  0  0  0  0  0  0  0  0  0  0
   90.8379  100.8849  -45.9304 C   0  0  0  0  0  0  0  0  0  0  0  0
   90.6150  100.9032  -44.4110 C   0  0  0  0  0  0  0  0  0  0  0  0
   90.2885   99.4912  -43.9053 C   0  0  0  0  0  0  0  0  0  0  0  0
   91.1661   98.4141  -44.4150 N   0  0  0  0  0  0  0  0  0  0  0  0
   92.3188   98.9474  -45.1519 C   0  0  0  0  0  0  0  0  0  0  0  0
   91.9600   99.8913  -46.3028 C   0  0  0  0  0  0  0  0  0  0  0  0
   90.9204  102.2197  -46.5613 N   0  0  0  0  0  0  0  0  0  0  0  0
   92.9134  103.5537  -45.6976 C   0  0  0  0  0  0  0  0  0  0  0  0
   92.2615  102.7549  -46.8187 C   0  0  0  0  0  0  0  0  0  0  0  0
   89.9577  102.3951  -47.6576 C   0  0  0  0  0  0  0  0  0  0  0  0
   90.1354  103.7005  -48.4268 C   0  0  0  0  0  0  0  0  0  0  0  0
 24 25  1  0
 25 23  1  0
 23 26  1  0
 26 27  1  0
 23 17  1  0
 17 18  1  0
 18 19  1  0
 19 20  1  0
 20 16  1  0
 16  1  1  0
  1  2  2  0
  2  3  1  0
  3 11  1  0
 11 12  3  0
 12 13  1  0
 13 14  1  0
  3  4  2  0
  4  5  1  0
  4  6  1  0
  6  7  1  0
  6  8  2  0
  8  9  1  0
 20 21  1  0
 21 22  1  0
 22 17  1  0
  8  1  1  0
 14 15  1  0
  9 10  1  0
M  END
> <minimizedAffinity>
-5.56941

> <CNNscore>
0.7520333529

> <CNNaffinity>
5.3020186424

> <CNN_VS>
3.9872949123

> <CNNaffinity_variance>
0.1822106093

$$$$



 27 28  0  0  0  0  0  0  0  0999 V2000
   90.7875   96.3363  -44.9972 C   0  0  0  0  0  0  0  0  0  0  0  0
   90.8985   95.2393  -45.8692 C   0  0  0  0  0  0  0  0  0  0  0  0
   91.2838   93.9825  -45.3917 C   0  0  0  0  0  0  0  0  0  0  0  0
   91.5749   93.8138  -44.0371 C   0  0  0  0  0  0  0  0  0  0  0  0
   91.9485   92.6008  -43.5937 F   0  0  0  0  0  0  0  0  0  0  0  0
   91.4817   94.8892  -43.1523 C   0  0  0  0  0  0  0  0  0  0  0  0
   91.9274   94.5835  -41.1281 I   0  0  0  0  0  0  0  0  0  0  0  0
   91.0867   96.1439  -43.6341 C   0  0  0  0  0  0  0  0  0  0  0  0
   90.9827   97.1968  -42.7614 O   0  0  0  0  0  0  0  0  0  0  0  0
   91.1805   97.0743  -41.8537 H   0  0  0  0  0  0  0  0  0  0  0  0
   91.3822   92.8823  -46.3014 C   0  0  0  0  0  0  0  0  0  0  0  0
   91.4662   91.9616  -47.0685 C   0  0  0  0  0  0  0  0  0  0  0  0
   91.5669   90.8377  -47.9978 C   0  0  0  0  0  0  0  0  0  0  0  0
   92.8228   90.1927  -47.8385 O   0  0  0  0  0  0  0  0  0  0  0  0
   93.5361   90.8237  -48.0227 H   0  0  0  0  0  0  0  0  0  0  0  0
   90.4331   97.6964  -45.5739 C   0  0  0  0  0  0  0  0  0  0  0  0
   87.3795   99.4971  -45.2953 C   0  0  0  0  0  0  0  0  0  0  0  0
   87.6586   99.5882  -46.8028 C   0  0  0  0  0  0  0  0  0  0  0  0
   89.0218   98.9626  -47.1290 C   0  0  0  0  0  0  0  0  0  0  0  0
   89.2844   97.6474  -46.5033 N   0  0  0  0  0  0  0  0  0  0  0  0
   88.0877   97.1008  -45.8511 C   0  0  0  0  0  0  0  0  0  0  0  0
   87.4422   98.0293  -44.8191 C   0  0  0  0  0  0  0  0  0  0  0  0
   86.2123  100.2780  -44.8324 N   0  0  0  0  0  0  0  0  0  0  0  0
   86.8922  101.2323  -42.5686 C   0  0  0  0  0  0  0  0  0  0  0  0
   86.4849  101.4667  -44.0175 C   0  0  0  0  0  0  0  0  0  0  0  0
   85.1932  100.4573  -45.8758 C   0  0  0  0  0  0  0  0  0  0  0  0
   84.0356   99.4686  -45.7786 C   0  0  0  0  0  0  0  0  0  0  0  0
 24 25  1  0
 25 23  1  0
 23 26  1  0
 26 27  1  0
 23 17  1  0
 17 18  1  0
 18 19  1  0
 19 20  1  0
 20 16  1  0
 16  1  1  0
  1  2  2  0
  2  3  1  0
  3 11  1  0
 11 12  3  0
 12 13  1  0
 13 14  1  0
  3  4  2  0
  4  5  1  0
  4  6  1  0
  6  7  1  0
  6  8  2  0
  8  9  1  0
 20 21  1  0
 21 22  1  0
 22 17  1  0
  8  1  1  0
 14 15  1  0
  9 10  1  0
M  END
> <minimizedAffinity>
-5.91696

> <CNNscore>
0.7071067691

> <CNNaffinity>
5.6703515053

> <CNN_VS>
4.0095438957

> <CNNaffinity_variance>
0.1456987113

$$$$



 27 28  0  0  0  0  0  0  0  0999 V2000
   90.6381   96.4365  -45.1451 C   0  0  0  0  0  0  0  0  0  0  0  0
   90.8075   95.2959  -45.9492 C   0  0  0  0  0  0  0  0  0  0  0  0
   91.2288   94.0844  -45.3919 C   0  0  0  0  0  0  0  0  0  0  0  0
   91.4978   94.0054  -44.0245 C   0  0  0  0  0  0  0  0  0  0  0  0
   91.9066   92.8352  -43.5041 F   0  0  0  0  0  0  0  0  0  0  0  0
   91.3467   95.1258  -43.2061 C   0  0  0  0  0  0  0  0  0  0  0  0
   91.7613   94.9548  -41.1595 I   0  0  0  0  0  0  0  0  0  0  0  0
   90.9159   96.3347  -43.7678 C   0  0  0  0  0  0  0  0  0  0  0  0
   90.7550   97.4315  -42.9603 O   0  0  0  0  0  0  0  0  0  0  0  0
   90.9383   97.3693  -42.0435 H   0  0  0  0  0  0  0  0  0  0  0  0
   91.3866   92.9380  -46.2336 C   0  0  0  0  0  0  0  0  0  0  0  0
   91.5214   91.9781  -46.9434 C   0  0  0  0  0  0  0  0  0  0  0  0
   91.6827   90.8071  -47.8033 C   0  0  0  0  0  0  0  0  0  0  0  0
   93.0455   90.4055  -47.8186 O   0  0  0  0  0  0  0  0  0  0  0  0
   93.5923   91.1300  -48.1607 H   0  0  0  0  0  0  0  0  0  0  0  0
   90.2458   97.7465  -45.8069 C   0  0  0  0  0  0  0  0  0  0  0  0
   87.2310   98.0123  -47.6737 C   0  0  0  0  0  0  0  0  0  0  0  0
   86.7119   97.5338  -46.3098 C   0  0  0  0  0  0  0  0  0  0  0  0
   87.8875   97.2362  -45.3690 C   0  0  0  0  0  0  0  0  0  0  0  0
   88.9476   98.2681  -45.3292 N   0  0  0  0  0  0  0  0  0  0  0  0
   88.5574   99.4846  -46.0532 C   0  0  0  0  0  0  0  0  0  0  0  0
   88.1330   99.2546  -47.5061 C   0  0  0  0  0  0  0  0  0  0  0  0
   86.2033   98.0973  -48.7335 N   0  0  0  0  0  0  0  0  0  0  0  0
   85.6558   99.0100  -51.0497 C   0  0  0  0  0  0  0  0  0  0  0  0
   86.6684   98.3951  -50.0922 C   0  0  0  0  0  0  0  0  0  0  0  0
   85.1941   97.0334  -48.6388 C   0  0  0  0  0  0  0  0  0  0  0  0
   85.6271   95.7185  -49.2798 C   0  0  0  0  0  0  0  0  0  0  0  0
 24 25  1  0
 25 23  1  0
 23 26  1  0
 26 27  1  0
 23 17  1  0
 17 18  1  0
 18 19  1  0
 19 20  1  0
 20 16  1  0
 16  1  1  0
  1  2  2  0
  2  3  1  0
  3 11  1  0
 11 12  3  0
 12 13  1  0
 13 14  1  0
  3  4  2  0
  4  5  1  0
  4  6  1  0
  6  7  1  0
  6  8  2  0
  8  9  1  0
 20 21  1  0
 21 22  1  0
 22 17  1  0
  8  1  1  0
 14 15  1  0
  9 10  1  0
M  END
> <minimizedAffinity>
-5.33367

> <CNNscore>
0.6241267920

> <CNNaffinity>
5.3466281891

> <CNN_VS>
3.3369739056

> <CNNaffinity_variance>
0.1385810524

$$$$



 27 28  0  0  0  0  0  0  0  0999 V2000
   91.1624   97.3744  -42.5725 C   0  0  0  0  0  0  0  0  0  0  0  0
   90.6130   97.2432  -43.8598 C   0  0  0  0  0  0  0  0  0  0  0  0
   90.5804   96.0003  -44.5001 C   0  0  0  0  0  0  0  0  0  0  0  0
   91.1101   94.8770  -43.8630 C   0  0  0  0  0  0  0  0  0  0  0  0
   91.0759   93.6898  -44.4931 F   0  0  0  0  0  0  0  0  0  0  0  0
   91.6701   94.9823  -42.5889 C   0  0  0  0  0  0  0  0  0  0  0  0
   92.4501   93.2661  -41.6747 I   0  0  0  0  0  0  0  0  0  0  0  0
   91.6921   96.2279  -41.9483 C   0  0  0  0  0  0  0  0  0  0  0  0
   92.2306   96.3277  -40.6908 O   0  0  0  0  0  0  0  0  0  0  0  0
   92.5843   95.5683  -40.2710 H   0  0  0  0  0  0  0  0  0  0  0  0
   90.0091   95.8954  -45.8078 C   0  0  0  0  0  0  0  0  0  0  0  0
   89.5272   95.8035  -46.9044 C   0  0  0  0  0  0  0  0  0  0  0  0
   88.9434   95.6964  -48.2403 C   0  0  0  0  0  0  0  0  0  0  0  0
   89.0522   96.9424  -48.9143 O   0  0  0  0  0  0  0  0  0  0  0  0
   88.5777   97.6238  -48.4128 H   0  0  0  0  0  0  0  0  0  0  0  0
   91.2380   98.7566  -41.9466 C   0  0  0  0  0  0  0  0  0  0  0  0
   92.2748  102.1471  -41.6748 C   0  0  0  0  0  0  0  0  0  0  0  0
   92.5198  101.8648  -43.1645 C   0  0  0  0  0  0  0  0  0  0  0  0
   92.2426  100.3879  -43.4774 C   0  0  0  0  0  0  0  0  0  0  0  0
   90.9859   99.8436  -42.9164 N   0  0  0  0  0  0  0  0  0  0  0  0
   90.1418  100.8963  -42.3371 C   0  0  0  0  0  0  0  0  0  0  0  0
   90.8335  101.7592  -41.2784 C   0  0  0  0  0  0  0  0  0  0  0  0
   92.7392  103.4718  -41.2101 N   0  0  0  0  0  0  0  0  0  0  0  0
   93.4645  102.6330  -38.9148 C   0  0  0  0  0  0  0  0  0  0  0  0
   92.7758  103.6959  -39.7611 C   0  0  0  0  0  0  0  0  0  0  0  0
   93.9149  103.9568  -41.9462 C   0  0  0  0  0  0  0  0  0  0  0  0
   94.5642  105.1881  -41.3220 C   0  0  0  0  0  0  0  0  0  0  0  0
 24 25  1  0
 25 23  1  0
 23 26  1  0
 26 27  1  0
 23 17  1  0
 17 18  1  0
 18 19  1  0
 19 20  1  0
 20 16  1  0
 16  1  1  0
  1  2  2  0
  2  3  1  0
  3 11  1  0
 11 12  3  0
 12 13  1  0
 13 14  1  0
  3  4  2  0
  4  5  1  0
  4  6  1  0
  6  7  1  0
  6  8  2  0
  8  9  1  0
 20 21  1  0
 21 22  1  0
 22 17  1  0
  8  1  1  0
 14 15  1  0
  9 10  1  0
M  END
> <minimizedAffinity>
-5.36460

> <CNNscore>
0.5669983029

> <CNNaffinity>
5.1932063103

> <CNN_VS>
2.9445390701

> <CNNaffinity_variance>
0.4773602486

$$$$



 27 28  0  0  0  0  0  0  0  0999 V2000
   89.7262   98.6238  -44.0191 C   0  0  0  0  0  0  0  0  0  0  0  0
   90.4802   97.5826  -43.4503 C   0  0  0  0  0  0  0  0  0  0  0  0
   90.6598   96.3748  -44.1321 C   0  0  0  0  0  0  0  0  0  0  0  0
   90.0749   96.1918  -45.3862 C   0  0  0  0  0  0  0  0  0  0  0  0
   90.2526   95.0236  -46.0274 F   0  0  0  0  0  0  0  0  0  0  0  0
   89.3137   97.2063  -45.9686 C   0  0  0  0  0  0  0  0  0  0  0  0
   88.4585   96.8829  -47.8537 I   0  0  0  0  0  0  0  0  0  0  0  0
   89.1442   98.4175  -45.2854 C   0  0  0  0  0  0  0  0  0  0  0  0
   88.4071   99.4186  -45.8645 O   0  0  0  0  0  0  0  0  0  0  0  0
   88.0178   99.2866  -46.7066 H   0  0  0  0  0  0  0  0  0  0  0  0
   91.4376   95.3347  -43.5314 C   0  0  0  0  0  0  0  0  0  0  0  0
   92.0910   94.4641  -43.0231 C   0  0  0  0  0  0  0  0  0  0  0  0
   92.8854   93.4016  -42.4093 C   0  0  0  0  0  0  0  0  0  0  0  0
   93.1049   93.6966  -41.0368 O   0  0  0  0  0  0  0  0  0  0  0  0
   93.5825   94.5373  -40.9591 H   0  0  0  0  0  0  0  0  0  0  0  0
   89.5015   99.8904  -43.2109 C   0  0  0  0  0  0  0  0  0  0  0  0
   90.1068  102.4443  -40.8119 C   0  0  0  0  0  0  0  0  0  0  0  0
   91.4704  101.7400  -40.8681 C   0  0  0  0  0  0  0  0  0  0  0  0
   91.3931  100.5053  -41.7766 C   0  0  0  0  0  0  0  0  0  0  0  0
   90.7217  100.7146  -43.0788 N   0  0  0  0  0  0  0  0  0  0  0  0
   90.4421  102.1339  -43.3307 C   0  0  0  0  0  0  0  0  0  0  0  0
   89.6364  102.8311  -42.2311 C   0  0  0  0  0  0  0  0  0  0  0  0
   89.9965  103.5011  -39.7835 N   0  0  0  0  0  0  0  0  0  0  0  0
   90.5177  103.6986  -37.2961 C   0  0  0  0  0  0  0  0  0  0  0  0
   91.0115  103.5111  -38.7248 C   0  0  0  0  0  0  0  0  0  0  0  0
   89.6716  104.8181  -40.3487 C   0  0  0  0  0  0  0  0  0  0  0  0
   88.4062  105.4400  -39.7663 C   0  0  0  0  0  0  0  0  0  0  0  0
 24 25  1  0
 25 23  1  0
 23 26  1  0
 26 27  1  0
 23 17  1  0
 17 18  1  0
 18 19  1  0
 19 20  1  0
 20 16  1  0
 16  1  1  0
  1  2  2  0
  2  3  1  0
  3 11  1  0
 11 12  3  0
 12 13  1  0
 13 14  1  0
  3  4  2  0
  4  5  1  0
  4  6  1  0
  6  7  1  0
  6  8  2  0
  8  9  1  0
 20 21  1  0
 21 22  1  0
 22 17  1  0
  8  1  1  0
 14 15  1  0
  9 10  1  0
M  END
> <minimizedAffinity>
-4.89623

> <CNNscore>
0.4117232263

> <CNNaffinity>
4.8150024414

> <CNN_VS>
1.9824483395

> <CNNaffinity_variance>
0.2021462470

$$$$



 27 28  0  0  0  0  0  0  0  0999 V2000
   89.9623   98.6004  -44.7456 C   0  0  0  0  0  0  0  0  0  0  0  0
   90.6205   97.5400  -44.0988 C   0  0  0  0  0  0  0  0  0  0  0  0
   90.6296   96.2575  -44.6566 C   0  0  0  0  0  0  0  0  0  0  0  0
   89.9679   96.0202  -45.8625 C   0  0  0  0  0  0  0  0  0  0  0  0
   89.9814   94.7811  -46.3840 F   0  0  0  0  0  0  0  0  0  0  0  0
   89.2987   97.0537  -46.5197 C   0  0  0  0  0  0  0  0  0  0  0  0
   88.3224   96.6463  -48.3282 I   0  0  0  0  0  0  0  0  0  0  0  0
   89.3002   98.3384  -45.9612 C   0  0  0  0  0  0  0  0  0  0  0  0
   88.6536   99.3562  -46.6147 O   0  0  0  0  0  0  0  0  0  0  0  0
   88.2117   99.1875  -47.4235 H   0  0  0  0  0  0  0  0  0  0  0  0
   91.3132   95.1986  -43.9792 C   0  0  0  0  0  0  0  0  0  0  0  0
   91.8908   94.3124  -43.4097 C   0  0  0  0  0  0  0  0  0  0  0  0
   92.5892   93.2308  -42.7175 C   0  0  0  0  0  0  0  0  0  0  0  0
   91.6974   92.5745  -41.8271 O   0  0  0  0  0  0  0  0  0  0  0  0
   91.3671   93.2105  -41.1733 H   0  0  0  0  0  0  0  0  0  0  0  0
   89.9212   99.9588  -44.0667 C   0  0  0  0  0  0  0  0  0  0  0  0
   91.0196  102.4949  -41.8292 C   0  0  0  0  0  0  0  0  0  0  0  0
   89.8224  101.9056  -41.0689 C   0  0  0  0  0  0  0  0  0  0  0  0
   89.1140  100.8507  -41.9298 C   0  0  0  0  0  0  0  0  0  0  0  0
   90.0019   99.8701  -42.5932 N   0  0  0  0  0  0  0  0  0  0  0  0
   91.3887   99.9788  -42.1229 C   0  0  0  0  0  0  0  0  0  0  0  0
   91.9987  101.3773  -42.2507 C   0  0  0  0  0  0  0  0  0  0  0  0
   91.6296  103.6853  -41.1990 N   0  0  0  0  0  0  0  0  0  0  0  0
   90.0672  105.6985  -41.2613 C   0  0  0  0  0  0  0  0  0  0  0  0
   90.7337  104.5847  -40.4642 C   0  0  0  0  0  0  0  0  0  0  0  0
   92.9032  103.3889  -40.5286 C   0  0  0  0  0  0  0  0  0  0  0  0
   92.7630  103.1331  -39.0312 C   0  0  0  0  0  0  0  0  0  0  0  0
 24 25  1  0
 25 23  1  0
 23 26  1  0
 26 27  1  0
 23 17  1  0
 17 18  1  0
 18 19  1  0
 19 20  1  0
 20 16  1  0
 16  1  1  0
  1  2  2  0
  2  3  1  0
  3 11  1  0
 11 12  3  0
 12 13  1  0
 13 14  1  0
  3  4  2  0
  4  5  1  0
  4  6  1  0
  6  7  1  0
  6  8  2  0
  8  9  1  0
 20 21  1  0
 21 22  1  0
 22 17  1  0
  8  1  1  0
 14 15  1  0
  9 10  1  0
M  END
> <minimizedAffinity>
-5.01417

> <CNNscore>
0.3555515707

> <CNNaffinity>
5.0498638153

> <CNN_VS>
1.7954870462

> <CNNaffinity_variance>
0.0863420740

$$$$



 27 28  0  0  0  0  0  0  0  0999 V2000
   92.8036  104.0763  -38.7870 C   0  0  0  0  0  0  0  0  0  0  0  0
   93.4741  103.2325  -37.8845 C   0  0  0  0  0  0  0  0  0  0  0  0
   93.5809  103.5726  -36.5322 C   0  0  0  0  0  0  0  0  0  0  0  0
   93.0283  104.7688  -36.0714 C   0  0  0  0  0  0  0  0  0  0  0  0
   93.1431  105.0844  -34.7696 F   0  0  0  0  0  0  0  0  0  0  0  0
   92.3660  105.6286  -36.9489 C   0  0  0  0  0  0  0  0  0  0  0  0
   91.5522  107.4110  -36.2072 I   0  0  0  0  0  0  0  0  0  0  0  0
   92.2540  105.2789  -38.3007 C   0  0  0  0  0  0  0  0  0  0  0  0
   91.5914  106.1182  -39.1595 O   0  0  0  0  0  0  0  0  0  0  0  0
   91.2240  106.9193  -38.8414 H   0  0  0  0  0  0  0  0  0  0  0  0
   94.2636  102.6913  -35.6351 C   0  0  0  0  0  0  0  0  0  0  0  0
   94.8341  101.9478  -34.8835 C   0  0  0  0  0  0  0  0  0  0  0  0
   95.5316  101.0474  -33.9672 C   0  0  0  0  0  0  0  0  0  0  0  0
   96.1513  100.0000  -34.7005 O   0  0  0  0  0  0  0  0  0  0  0  0
   95.4754   99.5009  -35.1852 H   0  0  0  0  0  0  0  0  0  0  0  0
   92.7736  103.6980  -40.2581 C   0  0  0  0  0  0  0  0  0  0  0  0
   91.6636  100.9396  -42.2084 C   0  0  0  0  0  0  0  0  0  0  0  0
   90.4858  101.1318  -41.2417 C   0  0  0  0  0  0  0  0  0  0  0  0
   90.8163  102.2214  -40.2123 C   0  0  0  0  0  0  0  0  0  0  0  0
   91.4052  103.4614  -40.7652 N   0  0  0  0  0  0  0  0  0  0  0  0
   91.3644  103.4818  -42.2329 C   0  0  0  0  0  0  0  0  0  0  0  0
   92.0158  102.2712  -42.9068 C   0  0  0  0  0  0  0  0  0  0  0  0
   91.5569   99.7561  -43.0884 N   0  0  0  0  0  0  0  0  0  0  0  0
   90.9069   97.2918  -43.0391 C   0  0  0  0  0  0  0  0  0  0  0  0
   90.5615   98.7419  -42.7256 C   0  0  0  0  0  0  0  0  0  0  0  0
   91.6068  100.0984  -44.5166 C   0  0  0  0  0  0  0  0  0  0  0  0
   92.8843   99.6397  -45.2129 C   0  0  0  0  0  0  0  0  0  0  0  0
 24 25  1  0
 25 23  1  0
 23 26  1  0
 26 27  1  0
 23 17  1  0
 17 18  1  0
 18 19  1  0
 19 20  1  0
 20 16  1  0
 16  1  1  0
  1  2  2  0
  2  3  1  0
  3 11  1  0
 11 12  3  0
 12 13  1  0
 13 14  1  0
  3  4  2  0
  4  5  1  0
  4  6  1  0
  6  7  1  0
  6  8  2  0
  8  9  1  0
 20 21  1  0
 21 22  1  0
 22 17  1  0
  8  1  1  0
 14 15  1  0
  9 10  1  0
M  END
> <minimizedAffinity>
-4.34295

> <CNNscore>
0.2739863694

> <CNNaffinity>
4.7253212929

> <CNN_VS>
1.2946736813

> <CNNaffinity_variance>
0.0421290994

$$$$
