


 20 20  0  0  0  0  0  0  0  0999 V2000
   -7.2209    9.7681   29.3818 C   0  0  0  0  0  0  0  0  0  0  0  0
   -6.5310   10.9797   28.7818 C   0  0  0  0  0  0  0  0  0  0  0  0
   -6.9881   11.5916   27.6714 C   0  0  0  0  0  0  0  0  0  0  0  0
   -8.2126   11.1611   26.9173 C   0  0  0  0  0  0  0  0  0  0  0  0
   -8.9578   12.3524   26.6255 O   0  0  0  0  0  0  0  0  0  0  0  0
   -9.1170   10.2411   27.7483 C   0  0  0  0  0  0  0  0  0  0  0  0
   -8.3289    9.1513   28.4793 C   0  0  0  0  0  0  0  0  0  0  0  0
   -8.4100   12.9556   26.0992 H   0  0  0  0  0  0  0  0  0  0  0  0
   -7.8061   10.5031   25.5709 C   0  0  0  0  0  0  0  0  0  0  0  0
   -8.5139   10.1721   24.6330 O   0  0  0  0  0  0  0  0  0  0  0  0
   -6.4690   10.2585   25.5218 O   0  0  0  0  0  0  0  0  0  0  0  0
   -5.9201   10.5100   26.2384 H   0  0  0  0  0  0  0  0  0  0  0  0
   -7.9863    9.1569   31.5480 C   0  0  0  0  0  0  0  0  0  0  0  0
   -7.8107   10.2112   30.6118 O   0  0  0  0  0  0  0  0  0  0  0  0
   -7.7992    8.2633   27.4844 O   0  0  0  0  0  0  0  0  0  0  0  0
   -8.6763    7.1946   27.1549 C   0  0  0  0  0  0  0  0  0  0  0  0
   -5.2992   11.4861   29.4976 C   0  0  0  0  0  0  0  0  0  0  0  0
   -5.5775   12.7319   30.3367 C   0  0  0  0  0  0  0  0  0  0  0  0
   -4.5598   12.8767   31.3216 O   0  0  0  0  0  0  0  0  0  0  0  0
   -4.5517   12.0948   31.8955 H   0  0  0  0  0  0  0  0  0  0  0  0
 13 14  1  0
  1 14  1  0
  1  2  1  0
  2 17  1  0
 17 18  1  0
 18 19  1  0
  2  3  2  0
  3  4  1  0
  4  5  1  0
  4  9  1  0
  9 10  2  0
  9 11  1  0
  4  6  1  0
  6  7  1  0
  7 15  1  0
 15 16  1  0
  7  1  1  0
 19 20  1  0
  5  8  1  0
 11 12  1  0
M  END
> <minimizedAffinity>
-3.95525

> <CNNscore>
0.5013568997

> <CNNaffinity>
3.6178712845

> <CNN_VS>
1.8138446808

> <CNNaffinity_variance>
0.9112710953

$$$$



 20 20  0  0  0  0  0  0  0  0999 V2000
    3.4011   13.0177   24.8556 C   0  0  0  0  0  0  0  0  0  0  0  0
    3.4728   14.2417   23.9607 C   0  0  0  0  0  0  0  0  0  0  0  0
    2.8614   14.2925   22.7608 C   0  0  0  0  0  0  0  0  0  0  0  0
    2.0473   13.1712   22.1834 C   0  0  0  0  0  0  0  0  0  0  0  0
    0.8484   13.7596   21.6578 O   0  0  0  0  0  0  0  0  0  0  0  0
    1.6320   12.1440   23.2450 C   0  0  0  0  0  0  0  0  0  0  0  0
    2.7885   11.7609   24.1719 C   0  0  0  0  0  0  0  0  0  0  0  0
    1.0796   14.4157   20.9818 H   0  0  0  0  0  0  0  0  0  0  0  0
    2.8140   12.5051   21.0088 C   0  0  0  0  0  0  0  0  0  0  0  0
    3.8476   12.8613   20.4659 O   0  0  0  0  0  0  0  0  0  0  0  0
    2.1616   11.4022   20.5525 O   0  0  0  0  0  0  0  0  0  0  0  0
    1.3677   11.1234   20.9647 H   0  0  0  0  0  0  0  0  0  0  0  0
    2.1344   12.2653   26.7215 C   0  0  0  0  0  0  0  0  0  0  0  0
    2.5844   13.3875   25.9752 O   0  0  0  0  0  0  0  0  0  0  0  0
    3.7473   11.0376   23.3866 O   0  0  0  0  0  0  0  0  0  0  0  0
    3.1861    9.9420   22.6762 C   0  0  0  0  0  0  0  0  0  0  0  0
    4.2600   15.4222   24.4830 C   0  0  0  0  0  0  0  0  0  0  0  0
    3.3726   16.6217   24.8103 C   0  0  0  0  0  0  0  0  0  0  0  0
    3.3613   16.8324   26.2183 O   0  0  0  0  0  0  0  0  0  0  0  0
    3.0138   16.0421   26.6606 H   0  0  0  0  0  0  0  0  0  0  0  0
 13 14  1  0
  1 14  1  0
  1  2  1  0
  2 17  1  0
 17 18  1  0
 18 19  1  0
  2  3  2  0
  3  4  1  0
  4  5  1  0
  4  9  1  0
  9 10  2  0
  9 11  1  0
  4  6  1  0
  6  7  1  0
  7 15  1  0
 15 16  1  0
  7  1  1  0
 19 20  1  0
  5  8  1  0
 11 12  1  0
M  END
> <minimizedAffinity>
-4.20688

> <CNNscore>
0.4975335598

> <CNNaffinity>
4.7960839272

> <CNN_VS>
2.3862128258

> <CNNaffinity_variance>
1.6708637476

$$$$



 20 20  0  0  0  0  0  0  0  0999 V2000
    3.1468   14.2393   23.2464 C   0  0  0  0  0  0  0  0  0  0  0  0
    3.1927   14.1533   24.7612 C   0  0  0  0  0  0  0  0  0  0  0  0
    3.0515   12.9863   25.4202 C   0  0  0  0  0  0  0  0  0  0  0  0
    2.8448   11.6602   24.7478 C   0  0  0  0  0  0  0  0  0  0  0  0
    3.7205   10.7270   25.3974 O   0  0  0  0  0  0  0  0  0  0  0  0
    3.2242   11.6935   23.2613 C   0  0  0  0  0  0  0  0  0  0  0  0
    2.6771   12.9313   22.5458 C   0  0  0  0  0  0  0  0  0  0  0  0
    3.5041   10.6841   26.3420 H   0  0  0  0  0  0  0  0  0  0  0  0
    1.3837   11.1780   24.9568 C   0  0  0  0  0  0  0  0  0  0  0  0
    0.5447   11.5873   25.7433 O   0  0  0  0  0  0  0  0  0  0  0  0
    1.0861   10.1292   24.1433 O   0  0  0  0  0  0  0  0  0  0  0  0
    1.7255    9.8102   23.5373 H   0  0  0  0  0  0  0  0  0  0  0  0
    4.5236   15.5532   21.8215 C   0  0  0  0  0  0  0  0  0  0  0  0
    4.4823   14.5451   22.8219 O   0  0  0  0  0  0  0  0  0  0  0  0
    1.2479   12.8087   22.5072 O   0  0  0  0  0  0  0  0  0  0  0  0
    0.7873   11.8496   21.5648 C   0  0  0  0  0  0  0  0  0  0  0  0
    3.4180   15.4472   25.5104 C   0  0  0  0  0  0  0  0  0  0  0  0
    2.9027   16.6658   24.7468 C   0  0  0  0  0  0  0  0  0  0  0  0
    2.8366   17.7829   25.6267 O   0  0  0  0  0  0  0  0  0  0  0  0
    2.2344   17.5818   26.3600 H   0  0  0  0  0  0  0  0  0  0  0  0
 13 14  1  0
  1 14  1  0
  1  2  1  0
  2 17  1  0
 17 18  1  0
 18 19  1  0
  2  3  2  0
  3  4  1  0
  4  5  1  0
  4  9  1  0
  9 10  2  0
  9 11  1  0
  4  6  1  0
  6  7  1  0
  7 15  1  0
 15 16  1  0
  7  1  1  0
 19 20  1  0
  5  8  1  0
 11 12  1  0
M  END
> <minimizedAffinity>
-6.02028

> <CNNscore>
0.4387201667

> <CNNaffinity>
4.5440564156

> <CNN_VS>
1.9935691357

> <CNNaffinity_variance>
0.2134902626

$$$$



 20 20  0  0  0  0  0  0  0  0999 V2000
   -7.4896   16.1780   17.3968 C   0  0  0  0  0  0  0  0  0  0  0  0
   -6.4858   15.1280   17.8374 C   0  0  0  0  0  0  0  0  0  0  0  0
   -5.4691   15.4114   18.6755 C   0  0  0  0  0  0  0  0  0  0  0  0
   -5.2194   16.7686   19.2663 C   0  0  0  0  0  0  0  0  0  0  0  0
   -4.9413   16.5673   20.6598 O   0  0  0  0  0  0  0  0  0  0  0  0
   -6.4469   17.6840   19.1666 C   0  0  0  0  0  0  0  0  0  0  0  0
   -7.1023   17.6348   17.7841 C   0  0  0  0  0  0  0  0  0  0  0  0
   -4.1674   15.9903   20.7550 H   0  0  0  0  0  0  0  0  0  0  0  0
   -3.9677   17.4133   18.6117 C   0  0  0  0  0  0  0  0  0  0  0  0
   -3.3526   18.4122   18.9493 O   0  0  0  0  0  0  0  0  0  0  0  0
   -3.5891   16.7379   17.4933 O   0  0  0  0  0  0  0  0  0  0  0  0
   -4.0570   15.9705   17.2286 H   0  0  0  0  0  0  0  0  0  0  0  0
   -9.8086   16.6584   17.6053 C   0  0  0  0  0  0  0  0  0  0  0  0
   -8.7298   15.8379   18.0319 O   0  0  0  0  0  0  0  0  0  0  0  0
   -6.1859   18.2282   16.8528 O   0  0  0  0  0  0  0  0  0  0  0  0
   -6.6677   19.4339   16.2748 C   0  0  0  0  0  0  0  0  0  0  0  0
   -6.6830   13.7289   17.2990 C   0  0  0  0  0  0  0  0  0  0  0  0
   -7.2873   13.7188   15.8962 C   0  0  0  0  0  0  0  0  0  0  0  0
   -7.1585   12.4170   15.3344 O   0  0  0  0  0  0  0  0  0  0  0  0
   -6.2198   12.1779   15.2844 H   0  0  0  0  0  0  0  0  0  0  0  0
 13 14  1  0
  1 14  1  0
  1  2  1  0
  2 17  1  0
 17 18  1  0
 18 19  1  0
  2  3  2  0
  3  4  1  0
  4  5  1  0
  4  9  1  0
  9 10  2  0
  9 11  1  0
  4  6  1  0
  6  7  1  0
  7 15  1  0
 15 16  1  0
  7  1  1  0
 19 20  1  0
  5  8  1  0
 11 12  1  0
M  END
> <minimizedAffinity>
-3.58128

> <CNNscore>
0.4049737453

> <CNNaffinity>
3.5370998383

> <CNN_VS>
1.4324325323

> <CNNaffinity_variance>
0.1775840670

$$$$



 20 20  0  0  0  0  0  0  0  0999 V2000
   -7.8078   15.9877   19.7124 C   0  0  0  0  0  0  0  0  0  0  0  0
   -7.4498   17.4050   19.3036 C   0  0  0  0  0  0  0  0  0  0  0  0
   -6.3905   17.6813   18.5176 C   0  0  0  0  0  0  0  0  0  0  0  0
   -5.4638   16.6411   17.9585 C   0  0  0  0  0  0  0  0  0  0  0  0
   -5.2595   16.9701   16.5766 O   0  0  0  0  0  0  0  0  0  0  0  0
   -6.0665   15.2310   18.0146 C   0  0  0  0  0  0  0  0  0  0  0  0
   -6.7218   14.9284   19.3645 C   0  0  0  0  0  0  0  0  0  0  0  0
   -4.8779   17.8594   16.5089 H   0  0  0  0  0  0  0  0  0  0  0  0
   -4.0902   16.7075   18.6795 C   0  0  0  0  0  0  0  0  0  0  0  0
   -3.0162   16.2436   18.3308 O   0  0  0  0  0  0  0  0  0  0  0  0
   -4.1869   17.3524   19.8732 O   0  0  0  0  0  0  0  0  0  0  0  0
   -5.0083   17.7109   20.1468 H   0  0  0  0  0  0  0  0  0  0  0  0
   -9.0000   16.0803   17.6577 C   0  0  0  0  0  0  0  0  0  0  0  0
   -9.0190   15.6637   19.0159 O   0  0  0  0  0  0  0  0  0  0  0  0
   -5.6764   14.8673   20.3456 O   0  0  0  0  0  0  0  0  0  0  0  0
   -6.1535   14.9008   21.6840 C   0  0  0  0  0  0  0  0  0  0  0  0
   -8.3498   18.5085   19.8121 C   0  0  0  0  0  0  0  0  0  0  0  0
   -8.2975   18.6562   21.3316 C   0  0  0  0  0  0  0  0  0  0  0  0
   -7.6327   19.8696   21.6669 O   0  0  0  0  0  0  0  0  0  0  0  0
   -6.7301   19.8525   21.3119 H   0  0  0  0  0  0  0  0  0  0  0  0
 13 14  1  0
  1 14  1  0
  1  2  1  0
  2 17  1  0
 17 18  1  0
 18 19  1  0
  2  3  2  0
  3  4  1  0
  4  5  1  0
  4  9  1  0
  9 10  2  0
  9 11  1  0
  4  6  1  0
  6  7  1  0
  7 15  1  0
 15 16  1  0
  7  1  1  0
 19 20  1  0
  5  8  1  0
 11 12  1  0
M  END
> <minimizedAffinity>
-3.92929

> <CNNscore>
0.3667294681

> <CNNaffinity>
3.8477432728

> <CNN_VS>
1.4110808372

> <CNNaffinity_variance>
0.0070363097

$$$$



 20 20  0  0  0  0  0  0  0  0999 V2000
    2.9028   13.8450   24.4978 C   0  0  0  0  0  0  0  0  0  0  0  0
    2.6474   13.6285   23.0173 C   0  0  0  0  0  0  0  0  0  0  0  0
    3.1740   14.4310   22.0714 C   0  0  0  0  0  0  0  0  0  0  0  0
    4.0635   15.6044   22.3636 C   0  0  0  0  0  0  0  0  0  0  0  0
    5.1589   15.5324   21.4392 O   0  0  0  0  0  0  0  0  0  0  0  0
    4.6496   15.5544   23.7809 C   0  0  0  0  0  0  0  0  0  0  0  0
    3.5998   15.1951   24.8355 C   0  0  0  0  0  0  0  0  0  0  0  0
    4.8184   15.5620   20.5314 H   0  0  0  0  0  0  0  0  0  0  0  0
    3.2989   16.9309   22.1049 C   0  0  0  0  0  0  0  0  0  0  0  0
    2.2888   17.3534   22.6447 O   0  0  0  0  0  0  0  0  0  0  0  0
    3.8719   17.6460   21.0996 O   0  0  0  0  0  0  0  0  0  0  0  0
    4.6474   17.3274   20.6811 H   0  0  0  0  0  0  0  0  0  0  0  0
    3.0117   11.6859   25.4870 C   0  0  0  0  0  0  0  0  0  0  0  0
    3.7447   12.7638   24.9215 O   0  0  0  0  0  0  0  0  0  0  0  0
    2.6749   16.2896   24.9116 O   0  0  0  0  0  0  0  0  0  0  0  0
    2.6614   16.9321   26.1793 C   0  0  0  0  0  0  0  0  0  0  0  0
    1.7751   12.4520   22.6416 C   0  0  0  0  0  0  0  0  0  0  0  0
    2.5233   11.4045   21.8193 C   0  0  0  0  0  0  0  0  0  0  0  0
    1.7001   10.9718   20.7414 O   0  0  0  0  0  0  0  0  0  0  0  0
    0.8835   10.5843   21.0936 H   0  0  0  0  0  0  0  0  0  0  0  0
 13 14  1  0
  1 14  1  0
  1  2  1  0
  2 17  1  0
 17 18  1  0
 18 19  1  0
  2  3  2  0
  3  4  1  0
  4  5  1  0
  4  9  1  0
  9 10  2  0
  9 11  1  0
  4  6  1  0
  6  7  1  0
  7 15  1  0
 15 16  1  0
  7  1  1  0
 19 20  1  0
  5  8  1  0
 11 12  1  0
M  END
> <minimizedAffinity>
-5.51453

> <CNNscore>
0.2702932358

> <CNNaffinity>
4.1113486290

> <CNN_VS>
1.1112697124

> <CNNaffinity_variance>
0.0760155395

$$$$



 20 20  0  0  0  0  0  0  0  0999 V2000
   11.2701   23.9523   32.1098 C   0  0  0  0  0  0  0  0  0  0  0  0
   12.1724   22.7332   32.0483 C   0  0  0  0  0  0  0  0  0  0  0  0
   11.7744   21.5209   32.4819 C   0  0  0  0  0  0  0  0  0  0  0  0
   10.4172   21.2371   33.0571 C   0  0  0  0  0  0  0  0  0  0  0  0
    9.9571   20.0212   32.4490 O   0  0  0  0  0  0  0  0  0  0  0  0
    9.3996   22.3359   32.7228 C   0  0  0  0  0  0  0  0  0  0  0  0
    9.9668   23.7420   32.9340 C   0  0  0  0  0  0  0  0  0  0  0  0
   10.5823   19.3056   32.6437 H   0  0  0  0  0  0  0  0  0  0  0  0
   10.5253   21.0012   34.5880 C   0  0  0  0  0  0  0  0  0  0  0  0
   11.5197   20.7946   35.2652 O   0  0  0  0  0  0  0  0  0  0  0  0
    9.2996   21.0006   35.1778 O   0  0  0  0  0  0  0  0  0  0  0  0
    8.5322   21.1585   34.6637 H   0  0  0  0  0  0  0  0  0  0  0  0
   10.2138   23.2094   30.1137 C   0  0  0  0  0  0  0  0  0  0  0  0
   10.9223   24.2620   30.7532 O   0  0  0  0  0  0  0  0  0  0  0  0
   10.1714   23.9155   34.3437 O   0  0  0  0  0  0  0  0  0  0  0  0
    9.0618   24.5045   35.0085 C   0  0  0  0  0  0  0  0  0  0  0  0
   13.5514   22.9353   31.4618 C   0  0  0  0  0  0  0  0  0  0  0  0
   13.8112   22.0424   30.2499 C   0  0  0  0  0  0  0  0  0  0  0  0
   14.6803   20.9784   30.6231 O   0  0  0  0  0  0  0  0  0  0  0  0
   15.5203   21.3438   30.9422 H   0  0  0  0  0  0  0  0  0  0  0  0
 13 14  1  0
  1 14  1  0
  1  2  1  0
  2 17  1  0
 17 18  1  0
 18 19  1  0
  2  3  2  0
  3  4  1  0
  4  5  1  0
  4  9  1  0
  9 10  2  0
  9 11  1  0
  4  6  1  0
  6  7  1  0
  7 15  1  0
 15 16  1  0
  7  1  1  0
 19 20  1  0
  5  8  1  0
 11 12  1  0
M  END
> <minimizedAffinity>
-3.67766

> <CNNscore>
0.2636726499

> <CNNaffinity>
3.5577967167

> <CNN_VS>
0.9380936623

> <CNNaffinity_variance>
1.2537008524

$$$$



 20 20  0  0  0  0  0  0  0  0999 V2000
    3.2586   14.1299   24.4888 C   0  0  0  0  0  0  0  0  0  0  0  0
    3.5402   14.2637   23.0033 C   0  0  0  0  0  0  0  0  0  0  0  0
    2.9582   13.4662   22.0860 C   0  0  0  0  0  0  0  0  0  0  0  0
    1.9771   12.3795   22.4174 C   0  0  0  0  0  0  0  0  0  0  0  0
    0.8969   12.4986   21.4800 O   0  0  0  0  0  0  0  0  0  0  0  0
    1.3873   12.5345   23.8255 C   0  0  0  0  0  0  0  0  0  0  0  0
    2.4551   12.8541   24.8748 C   0  0  0  0  0  0  0  0  0  0  0  0
    1.2401   12.4045   20.5776 H   0  0  0  0  0  0  0  0  0  0  0  0
    2.6363   10.9874   22.2211 C   0  0  0  0  0  0  0  0  0  0  0  0
    2.3022    9.9073   22.6812 O   0  0  0  0  0  0  0  0  0  0  0  0
    3.7547   11.0721   21.4514 O   0  0  0  0  0  0  0  0  0  0  0  0
    4.0168   11.8981   21.0951 H   0  0  0  0  0  0  0  0  0  0  0  0
    3.1682   16.0972   25.8207 C   0  0  0  0  0  0  0  0  0  0  0  0
    2.5019   15.2907   24.8593 O   0  0  0  0  0  0  0  0  0  0  0  0
    3.2903   11.6945   25.0051 O   0  0  0  0  0  0  0  0  0  0  0  0
    4.6799   11.9922   24.9816 C   0  0  0  0  0  0  0  0  0  0  0  0
    4.5051   15.3513   22.5881 C   0  0  0  0  0  0  0  0  0  0  0  0
    3.8365   16.4437   21.7556 C   0  0  0  0  0  0  0  0  0  0  0  0
    2.7052   16.9483   22.4572 O   0  0  0  0  0  0  0  0  0  0  0  0
    2.0741   16.2284   22.6135 H   0  0  0  0  0  0  0  0  0  0  0  0
 13 14  1  0
  1 14  1  0
  1  2  1  0
  2 17  1  0
 17 18  1  0
 18 19  1  0
  2  3  2  0
  3  4  1  0
  4  5  1  0
  4  9  1  0
  9 10  2  0
  9 11  1  0
  4  6  1  0
  6  7  1  0
  7 15  1  0
 15 16  1  0
  7  1  1  0
 19 20  1  0
  5  8  1  0
 11 12  1  0
M  END
> <minimizedAffinity>
-2.84766

> <CNNscore>
0.2542756796

> <CNNaffinity>
3.9254713058

> <CNN_VS>
0.9981518984

> <CNNaffinity_variance>
0.5025764704

$$$$



 20 20  0  0  0  0  0  0  0  0999 V2000
    5.8455   16.3083   17.1697 C   0  0  0  0  0  0  0  0  0  0  0  0
    5.9059   15.0126   16.3813 C   0  0  0  0  0  0  0  0  0  0  0  0
    7.0731   14.4427   16.0219 C   0  0  0  0  0  0  0  0  0  0  0  0
    8.4231   15.0059   16.3591 C   0  0  0  0  0  0  0  0  0  0  0  0
    9.2241   13.9089   16.8224 O   0  0  0  0  0  0  0  0  0  0  0  0
    8.3583   16.0417   17.4893 C   0  0  0  0  0  0  0  0  0  0  0  0
    7.2128   17.0399   17.3028 C   0  0  0  0  0  0  0  0  0  0  0  0
    9.2835   13.2355   16.1268 H   0  0  0  0  0  0  0  0  0  0  0  0
    9.0918   15.5881   15.0843 C   0  0  0  0  0  0  0  0  0  0  0  0
    8.8300   15.3710   13.9120 O   0  0  0  0  0  0  0  0  0  0  0  0
   10.1261   16.4136   15.3994 O   0  0  0  0  0  0  0  0  0  0  0  0
   10.3323   16.5845   16.2973 H   0  0  0  0  0  0  0  0  0  0  0  0
    4.5099   16.9453   19.0304 C   0  0  0  0  0  0  0  0  0  0  0  0
    5.3710   15.9596   18.4775 O   0  0  0  0  0  0  0  0  0  0  0  0
    7.5239   17.8412   16.1538 O   0  0  0  0  0  0  0  0  0  0  0  0
    8.0710   19.1115   16.4809 C   0  0  0  0  0  0  0  0  0  0  0  0
    4.5844   14.3726   16.0205 C   0  0  0  0  0  0  0  0  0  0  0  0
    3.5554   15.3875   15.5262 C   0  0  0  0  0  0  0  0  0  0  0  0
    2.4843   15.4694   16.4604 O   0  0  0  0  0  0  0  0  0  0  0  0
    2.0646   14.5993   16.5483 H   0  0  0  0  0  0  0  0  0  0  0  0
 13 14  1  0
  1 14  1  0
  1  2  1  0
  2 17  1  0
 17 18  1  0
 18 19  1  0
  2  3  2  0
  3  4  1  0
  4  5  1  0
  4  9  1  0
  9 10  2  0
  9 11  1  0
  4  6  1  0
  6  7  1  0
  7 15  1  0
 15 16  1  0
  7  1  1  0
 19 20  1  0
  5  8  1  0
 11 12  1  0
M  END
> <minimizedAffinity>
-3.31045

> <CNNscore>
0.2433267832

> <CNNaffinity>
2.6977837086

> <CNN_VS>
0.6564430594

> <CNNaffinity_variance>
0.7450094819

$$$$
