


 26 28  0  0  0  0  0  0  0  0999 V2000
   52.5629   40.7256   17.4300 N   0  0  0  0  0  0  0  0  0  0  0  0
   53.2330   40.6191   18.6360 C   0  0  0  0  0  0  0  0  0  0  0  0
   52.7062   41.2200   19.7119 N   0  0  0  0  0  0  0  0  0  0  0  0
   53.3616   41.0980   20.8805 C   0  0  0  0  0  0  0  0  0  0  0  0
   52.6273   41.8692   22.2200 Cl  0  0  0  0  0  0  0  0  0  0  0  0
   54.4997   40.4364   21.1537 N   0  0  0  0  0  0  0  0  0  0  0  0
   55.0160   39.8476   20.0515 C   0  0  0  0  0  0  0  0  0  0  0  0
   56.1837   39.0663   19.8539 C   0  0  0  0  0  0  0  0  0  0  0  0
   56.2968   38.6754   18.5699 N   0  0  0  0  0  0  0  0  0  0  0  0
   55.2351   39.2393   17.9662 N   0  0  0  0  0  0  0  0  0  0  0  0
   54.4138   39.9240   18.8095 C   0  0  0  0  0  0  0  0  0  0  0  0
   51.7237   41.2377   17.3767 H   0  0  0  0  0  0  0  0  0  0  0  0
   52.9252   40.2892   16.6253 H   0  0  0  0  0  0  0  0  0  0  0  0
   55.0665   39.1637   16.9992 H   0  0  0  0  0  0  0  0  0  0  0  0
   57.1980   38.6578   20.8785 C   0  0  0  0  0  0  0  0  0  0  0  0
   57.1225   37.2370   21.1608 O   0  0  0  0  0  0  0  0  0  0  0  0
   57.3696   37.0326   22.5704 C   0  0  0  0  0  0  0  0  0  0  0  0
   57.7075   38.3961   23.1715 C   0  0  0  0  0  0  0  0  0  0  0  0
   59.1298   38.6370   23.1057 O   0  0  0  0  0  0  0  0  0  0  0  0
   57.0338   39.3752   22.2227 C   0  0  0  0  0  0  0  0  0  0  0  0
   57.6710   40.6525   22.2746 O   0  0  0  0  0  0  0  0  0  0  0  0
   59.4268   38.5695   22.1848 H   0  0  0  0  0  0  0  0  0  0  0  0
   58.6163   40.5503   22.0829 H   0  0  0  0  0  0  0  0  0  0  0  0
   56.1394   36.3712   23.1973 C   0  0  0  0  0  0  0  0  0  0  0  0
   55.4063   35.6056   22.2502 O   0  0  0  0  0  0  0  0  0  0  0  0
   55.0901   36.1861   21.5403 H   0  0  0  0  0  0  0  0  0  0  0  0
  1  2  1  0
  2  3  2  0
  3  4  1  0
  4  5  1  0
  4  6  2  0
  6  7  1  0
  7  8  1  0
 15  8  1  0
 15 16  1  0
 16 17  1  0
 17 24  1  0
 24 25  1  0
 17 18  1  0
 18 19  1  0
 18 20  1  0
 20 21  1  0
  8  9  2  0
  9 10  1  0
 10 11  1  0
 11  2  1  0
 11  7  2  0
 20 15  1  0
  1 12  1  0
  1 13  1  0
 25 26  1  0
 19 22  1  0
 21 23  1  0
 10 14  1  0
M  END
> <minimizedAffinity>
-8.83345

> <CNNscore>
0.8954800963

> <CNNaffinity>
6.5978736877

> <CNN_VS>
5.9082646370

> <CNNaffinity_variance>
0.0277906973

$$$$



 26 28  0  0  0  0  0  0  0  0999 V2000
   52.7498   40.5117   17.3932 N   0  0  0  0  0  0  0  0  0  0  0  0
   53.2615   40.5766   18.6773 C   0  0  0  0  0  0  0  0  0  0  0  0
   52.5988   41.2996   19.5906 N   0  0  0  0  0  0  0  0  0  0  0  0
   53.1007   41.3439   20.8381 C   0  0  0  0  0  0  0  0  0  0  0  0
   52.1976   42.2652   21.9623 Cl  0  0  0  0  0  0  0  0  0  0  0  0
   54.1983   40.7483   21.3361 N   0  0  0  0  0  0  0  0  0  0  0  0
   54.8540   40.0337   20.3941 C   0  0  0  0  0  0  0  0  0  0  0  0
   56.0415   39.2594   20.4485 C   0  0  0  0  0  0  0  0  0  0  0  0
   56.3193   38.7086   19.2511 N   0  0  0  0  0  0  0  0  0  0  0  0
   55.3400   39.1663   18.4504 N   0  0  0  0  0  0  0  0  0  0  0  0
   54.4144   39.9359   19.0870 C   0  0  0  0  0  0  0  0  0  0  0  0
   51.9215   40.9941   17.1684 H   0  0  0  0  0  0  0  0  0  0  0  0
   53.2140   39.9832   16.7045 H   0  0  0  0  0  0  0  0  0  0  0  0
   55.2964   38.9628   17.4881 H   0  0  0  0  0  0  0  0  0  0  0  0
   56.9193   39.0089   21.6369 C   0  0  0  0  0  0  0  0  0  0  0  0
   58.1434   39.7836   21.5634 O   0  0  0  0  0  0  0  0  0  0  0  0
   59.2272   38.9858   22.0913 C   0  0  0  0  0  0  0  0  0  0  0  0
   58.6188   37.6811   22.6036 C   0  0  0  0  0  0  0  0  0  0  0  0
   58.2353   37.8144   23.9894 O   0  0  0  0  0  0  0  0  0  0  0  0
   57.3430   37.5439   21.7875 C   0  0  0  0  0  0  0  0  0  0  0  0
   56.3858   36.7358   22.4737 O   0  0  0  0  0  0  0  0  0  0  0  0
   57.6185   38.5571   24.0841 H   0  0  0  0  0  0  0  0  0  0  0  0
   56.2181   37.1096   23.3530 H   0  0  0  0  0  0  0  0  0  0  0  0
   60.2752   38.7869   20.9931 C   0  0  0  0  0  0  0  0  0  0  0  0
   61.5198   39.3848   21.3309 O   0  0  0  0  0  0  0  0  0  0  0  0
   61.3994   40.3406   21.4435 H   0  0  0  0  0  0  0  0  0  0  0  0
  1  2  1  0
  2  3  2  0
  3  4  1  0
  4  5  1  0
  4  6  2  0
  6  7  1  0
  7  8  1  0
 15  8  1  0
 15 16  1  0
 16 17  1  0
 17 24  1  0
 24 25  1  0
 17 18  1  0
 18 19  1  0
 18 20  1  0
 20 21  1  0
  8  9  2  0
  9 10  1  0
 10 11  1  0
 11  2  1  0
 11  7  2  0
 20 15  1  0
  1 12  1  0
  1 13  1  0
 25 26  1  0
 19 22  1  0
 21 23  1  0
 10 14  1  0
M  END
> <minimizedAffinity>
-8.23468

> <CNNscore>
0.6423067451

> <CNNaffinity>
6.7775154114

> <CNN_VS>
4.3532438278

> <CNNaffinity_variance>
0.1851664782

$$$$



 26 28  0  0  0  0  0  0  0  0999 V2000
   59.6797   37.5702   23.7319 N   0  0  0  0  0  0  0  0  0  0  0  0
   58.4940   37.6420   23.0222 C   0  0  0  0  0  0  0  0  0  0  0  0
   57.5285   36.7567   23.3050 N   0  0  0  0  0  0  0  0  0  0  0  0
   56.3763   36.8458   22.6161 C   0  0  0  0  0  0  0  0  0  0  0  0
   55.1761   35.7016   23.0384 Cl  0  0  0  0  0  0  0  0  0  0  0  0
   56.0219   37.7206   21.6587 N   0  0  0  0  0  0  0  0  0  0  0  0
   57.0152   38.5962   21.3849 C   0  0  0  0  0  0  0  0  0  0  0  0
   57.1031   39.6707   20.4627 C   0  0  0  0  0  0  0  0  0  0  0  0
   58.2990   40.2852   20.5433 N   0  0  0  0  0  0  0  0  0  0  0  0
   58.9632   39.5778   21.4750 N   0  0  0  0  0  0  0  0  0  0  0  0
   58.2329   38.5762   22.0389 C   0  0  0  0  0  0  0  0  0  0  0  0
   59.7998   36.8775   24.4210 H   0  0  0  0  0  0  0  0  0  0  0  0
   60.4033   38.2119   23.5477 H   0  0  0  0  0  0  0  0  0  0  0  0
   59.8957   39.7676   21.7272 H   0  0  0  0  0  0  0  0  0  0  0  0
   56.0516   40.1481   19.5078 C   0  0  0  0  0  0  0  0  0  0  0  0
   55.1343   41.0710   20.1488 O   0  0  0  0  0  0  0  0  0  0  0  0
   53.8051   40.8347   19.6319 C   0  0  0  0  0  0  0  0  0  0  0  0
   53.9271   39.7687   18.5440 C   0  0  0  0  0  0  0  0  0  0  0  0
   54.1597   40.3850   17.2590 O   0  0  0  0  0  0  0  0  0  0  0  0
   55.1936   39.0189   18.9271 C   0  0  0  0  0  0  0  0  0  0  0  0
   55.7730   38.3848   17.7859 O   0  0  0  0  0  0  0  0  0  0  0  0
   54.9539   40.9399   17.3055 H   0  0  0  0  0  0  0  0  0  0  0  0
   55.9355   39.0469   17.0958 H   0  0  0  0  0  0  0  0  0  0  0  0
   52.8890   40.4304   20.7899 C   0  0  0  0  0  0  0  0  0  0  0  0
   52.4768   41.5526   21.5590 O   0  0  0  0  0  0  0  0  0  0  0  0
   53.2554   41.9833   21.9454 H   0  0  0  0  0  0  0  0  0  0  0  0
  1  2  1  0
  2  3  2  0
  3  4  1  0
  4  5  1  0
  4  6  2  0
  6  7  1  0
  7  8  1  0
 15  8  1  0
 15 16  1  0
 16 17  1  0
 17 24  1  0
 24 25  1  0
 17 18  1  0
 18 19  1  0
 18 20  1  0
 20 21  1  0
  8  9  2  0
  9 10  1  0
 10 11  1  0
 11  2  1  0
 11  7  2  0
 20 15  1  0
  1 12  1  0
  1 13  1  0
 25 26  1  0
 19 22  1  0
 21 23  1  0
 10 14  1  0
M  END
> <minimizedAffinity>
-7.05216

> <CNNscore>
0.5630249977

> <CNNaffinity>
6.1574158669

> <CNN_VS>
3.4667789936

> <CNNaffinity_variance>
0.6682078242

$$$$



 26 28  0  0  0  0  0  0  0  0999 V2000
   63.3262   33.3000   28.0719 N   0  0  0  0  0  0  0  0  0  0  0  0
   62.5485   32.3456   27.4402 C   0  0  0  0  0  0  0  0  0  0  0  0
   62.8455   32.0183   26.1750 N   0  0  0  0  0  0  0  0  0  0  0  0
   62.0890   31.0800   25.5772 C   0  0  0  0  0  0  0  0  0  0  0  0
   62.5321   30.6913   23.9707 Cl  0  0  0  0  0  0  0  0  0  0  0  0
   61.0482   30.3850   26.0684 N   0  0  0  0  0  0  0  0  0  0  0  0
   60.7624   30.7398   27.3414 C   0  0  0  0  0  0  0  0  0  0  0  0
   59.7656   30.2950   28.2476 C   0  0  0  0  0  0  0  0  0  0  0  0
   59.8642   30.9309   29.4309 N   0  0  0  0  0  0  0  0  0  0  0  0
   60.8836   31.7902   29.2515 N   0  0  0  0  0  0  0  0  0  0  0  0
   61.4825   31.6967   28.0321 C   0  0  0  0  0  0  0  0  0  0  0  0
   64.0728   33.7241   27.5903 H   0  0  0  0  0  0  0  0  0  0  0  0
   63.1329   33.5550   29.0030 H   0  0  0  0  0  0  0  0  0  0  0  0
   61.1715   32.4307   29.9415 H   0  0  0  0  0  0  0  0  0  0  0  0
   58.7197   29.2467   28.0182 C   0  0  0  0  0  0  0  0  0  0  0  0
   57.7903   29.1743   29.1295 O   0  0  0  0  0  0  0  0  0  0  0  0
   57.4306   27.7902   29.3412 C   0  0  0  0  0  0  0  0  0  0  0  0
   58.1054   26.9751   28.2389 C   0  0  0  0  0  0  0  0  0  0  0  0
   57.2402   26.8724   27.0873 O   0  0  0  0  0  0  0  0  0  0  0  0
   59.2940   27.8368   27.8421 C   0  0  0  0  0  0  0  0  0  0  0  0
   59.7077   27.5469   26.5061 O   0  0  0  0  0  0  0  0  0  0  0  0
   57.0042   27.7616   26.7800 H   0  0  0  0  0  0  0  0  0  0  0  0
   58.9566   27.6612   25.9030 H   0  0  0  0  0  0  0  0  0  0  0  0
   57.8516   27.3807   30.7551 C   0  0  0  0  0  0  0  0  0  0  0  0
   58.8533   28.2407   31.2821 O   0  0  0  0  0  0  0  0  0  0  0  0
   59.6444   28.1966   30.7225 H   0  0  0  0  0  0  0  0  0  0  0  0
  1  2  1  0
  2  3  2  0
  3  4  1  0
  4  5  1  0
  4  6  2  0
  6  7  1  0
  7  8  1  0
 15  8  1  0
 15 16  1  0
 16 17  1  0
 17 24  1  0
 24 25  1  0
 17 18  1  0
 18 19  1  0
 18 20  1  0
 20 21  1  0
  8  9  2  0
  9 10  1  0
 10 11  1  0
 11  2  1  0
 11  7  2  0
 20 15  1  0
  1 12  1  0
  1 13  1  0
 25 26  1  0
 19 22  1  0
 21 23  1  0
 10 14  1  0
M  END
> <minimizedAffinity>
-4.96901

> <CNNscore>
0.4199365675

> <CNNaffinity>
3.6245739460

> <CNN_VS>
1.5220911503

> <CNNaffinity_variance>
0.3273881674

$$$$



 26 28  0  0  0  0  0  0  0  0999 V2000
   63.9161   35.2869   18.5432 N   0  0  0  0  0  0  0  0  0  0  0  0
   63.5775   36.1893   19.5361 C   0  0  0  0  0  0  0  0  0  0  0  0
   64.5654   36.8071   20.1983 N   0  0  0  0  0  0  0  0  0  0  0  0
   64.2218   37.6911   21.1525 C   0  0  0  0  0  0  0  0  0  0  0  0
   65.5274   38.4618   21.9460 Cl  0  0  0  0  0  0  0  0  0  0  0  0
   62.9986   38.0751   21.5572 N   0  0  0  0  0  0  0  0  0  0  0  0
   62.0203   37.4313   20.8817 C   0  0  0  0  0  0  0  0  0  0  0  0
   60.6059   37.5007   20.9681 C   0  0  0  0  0  0  0  0  0  0  0  0
   60.0224   36.6734   20.0796 N   0  0  0  0  0  0  0  0  0  0  0  0
   61.0592   36.0660   19.4749 N   0  0  0  0  0  0  0  0  0  0  0  0
   62.2800   36.5045   19.8893 C   0  0  0  0  0  0  0  0  0  0  0  0
   64.8632   35.1086   18.3422 H   0  0  0  0  0  0  0  0  0  0  0  0
   63.2099   34.8233   18.0377 H   0  0  0  0  0  0  0  0  0  0  0  0
   60.9454   35.3656   18.7925 H   0  0  0  0  0  0  0  0  0  0  0  0
   59.7838   38.3657   21.8745 C   0  0  0  0  0  0  0  0  0  0  0  0
   59.3504   37.6372   23.0515 O   0  0  0  0  0  0  0  0  0  0  0  0
   58.0121   38.0646   23.3921 C   0  0  0  0  0  0  0  0  0  0  0  0
   57.6366   39.1860   22.4245 C   0  0  0  0  0  0  0  0  0  0  0  0
   58.0265   40.4676   22.9635 O   0  0  0  0  0  0  0  0  0  0  0  0
   58.5146   38.9135   21.2130 C   0  0  0  0  0  0  0  0  0  0  0  0
   58.7278   40.1092   20.4613 O   0  0  0  0  0  0  0  0  0  0  0  0
   58.9778   40.4630   23.1525 H   0  0  0  0  0  0  0  0  0  0  0  0
   59.1044   40.7914   21.0390 H   0  0  0  0  0  0  0  0  0  0  0  0
   57.0752   36.8554   23.3264 C   0  0  0  0  0  0  0  0  0  0  0  0
   56.0060   37.0599   22.4123 O   0  0  0  0  0  0  0  0  0  0  0  0
   55.4754   37.8192   22.7000 H   0  0  0  0  0  0  0  0  0  0  0  0
  1  2  1  0
  2  3  2  0
  3  4  1  0
  4  5  1  0
  4  6  2  0
  6  7  1  0
  7  8  1  0
 15  8  1  0
 15 16  1  0
 16 17  1  0
 17 24  1  0
 24 25  1  0
 17 18  1  0
 18 19  1  0
 18 20  1  0
 20 21  1  0
  8  9  2  0
  9 10  1  0
 10 11  1  0
 11  2  1  0
 11  7  2  0
 20 15  1  0
  1 12  1  0
  1 13  1  0
 25 26  1  0
 19 22  1  0
 21 23  1  0
 10 14  1  0
M  END
> <minimizedAffinity>
-7.05877

> <CNNscore>
0.3991355896

> <CNNaffinity>
5.3543305397

> <CNN_VS>
2.1371037960

> <CNNaffinity_variance>
0.1882624775

$$$$



 26 28  0  0  0  0  0  0  0  0999 V2000
   56.3804   29.4812   20.8161 N   0  0  0  0  0  0  0  0  0  0  0  0
   56.6647   30.3529   21.8525 C   0  0  0  0  0  0  0  0  0  0  0  0
   56.1372   31.5842   21.8111 N   0  0  0  0  0  0  0  0  0  0  0  0
   56.4117   32.4172   22.8313 C   0  0  0  0  0  0  0  0  0  0  0  0
   55.6917   33.9663   22.7306 Cl  0  0  0  0  0  0  0  0  0  0  0  0
   57.1519   32.2003   23.9325 N   0  0  0  0  0  0  0  0  0  0  0  0
   57.6804   30.9558   23.9460 C   0  0  0  0  0  0  0  0  0  0  0  0
   58.5183   30.2927   24.8793 C   0  0  0  0  0  0  0  0  0  0  0  0
   58.7922   29.0356   24.4807 N   0  0  0  0  0  0  0  0  0  0  0  0
   58.1665   28.9296   23.2945 N   0  0  0  0  0  0  0  0  0  0  0  0
   57.4559   30.0356   22.9392 C   0  0  0  0  0  0  0  0  0  0  0  0
   55.8077   29.7731   20.0704 H   0  0  0  0  0  0  0  0  0  0  0  0
   56.7507   28.5690   20.8245 H   0  0  0  0  0  0  0  0  0  0  0  0
   58.2178   28.1229   22.7325 H   0  0  0  0  0  0  0  0  0  0  0  0
   59.0542   30.8277   26.1724 C   0  0  0  0  0  0  0  0  0  0  0  0
   60.2805   31.5751   25.9682 O   0  0  0  0  0  0  0  0  0  0  0  0
   61.1670   31.3207   27.0815 C   0  0  0  0  0  0  0  0  0  0  0  0
   60.4063   30.4400   28.0717 C   0  0  0  0  0  0  0  0  0  0  0  0
   59.6853   31.2557   29.0203 O   0  0  0  0  0  0  0  0  0  0  0  0
   59.3781   29.7371   27.1991 C   0  0  0  0  0  0  0  0  0  0  0  0
   58.2518   29.3240   27.9742 O   0  0  0  0  0  0  0  0  0  0  0  0
   59.0890   31.8546   28.5443 H   0  0  0  0  0  0  0  0  0  0  0  0
   57.8767   30.0914   28.4340 H   0  0  0  0  0  0  0  0  0  0  0  0
   62.4542   30.6825   26.5527 C   0  0  0  0  0  0  0  0  0  0  0  0
   63.0137   31.4253   25.4777 O   0  0  0  0  0  0  0  0  0  0  0  0
   62.3831   31.4531   24.7412 H   0  0  0  0  0  0  0  0  0  0  0  0
  1  2  1  0
  2  3  2  0
  3  4  1  0
  4  5  1  0
  4  6  2  0
  6  7  1  0
  7  8  1  0
 15  8  1  0
 15 16  1  0
 16 17  1  0
 17 24  1  0
 24 25  1  0
 17 18  1  0
 18 19  1  0
 18 20  1  0
 20 21  1  0
  8  9  2  0
  9 10  1  0
 10 11  1  0
 11  2  1  0
 11  7  2  0
 20 15  1  0
  1 12  1  0
  1 13  1  0
 25 26  1  0
 19 22  1  0
 21 23  1  0
 10 14  1  0
M  END
> <minimizedAffinity>
-5.54765

> <CNNscore>
0.3214910626

> <CNNaffinity>
3.9367535114

> <CNN_VS>
1.2656310797

> <CNNaffinity_variance>
0.3529291153

$$$$



 26 28  0  0  0  0  0  0  0  0999 V2000
   56.8680   29.4445   20.6006 N   0  0  0  0  0  0  0  0  0  0  0  0
   57.1694   29.9333   21.8596 C   0  0  0  0  0  0  0  0  0  0  0  0
   56.3045   30.7779   22.4382 N   0  0  0  0  0  0  0  0  0  0  0  0
   56.6040   31.2356   23.6674 C   0  0  0  0  0  0  0  0  0  0  0  0
   55.4503   32.2926   24.3603 Cl  0  0  0  0  0  0  0  0  0  0  0  0
   57.6690   30.9635   24.4414 N   0  0  0  0  0  0  0  0  0  0  0  0
   58.5305   30.1179   23.8323 C   0  0  0  0  0  0  0  0  0  0  0  0
   59.7697   29.5663   24.2481 C   0  0  0  0  0  0  0  0  0  0  0  0
   60.2815   28.7522   23.3049 N   0  0  0  0  0  0  0  0  0  0  0  0
   59.3930   28.8268   22.2976 N   0  0  0  0  0  0  0  0  0  0  0  0
   58.3068   29.6018   22.5695 C   0  0  0  0  0  0  0  0  0  0  0  0
   56.0380   29.7229   20.1502 H   0  0  0  0  0  0  0  0  0  0  0  0
   57.4836   28.8185   20.1553 H   0  0  0  0  0  0  0  0  0  0  0  0
   59.5172   28.3617   21.4388 H   0  0  0  0  0  0  0  0  0  0  0  0
   60.4781   29.7812   25.5509 C   0  0  0  0  0  0  0  0  0  0  0  0
   60.0198   28.8484   26.5628 O   0  0  0  0  0  0  0  0  0  0  0  0
   59.9808   29.5311   27.8364 C   0  0  0  0  0  0  0  0  0  0  0  0
   60.5346   30.9374   27.6116 C   0  0  0  0  0  0  0  0  0  0  0  0
   61.9646   30.9533   27.8113 O   0  0  0  0  0  0  0  0  0  0  0  0
   60.2769   31.1844   26.1333 C   0  0  0  0  0  0  0  0  0  0  0  0
   61.1848   32.1578   25.6154 O   0  0  0  0  0  0  0  0  0  0  0  0
   62.3809   30.3070   27.2197 H   0  0  0  0  0  0  0  0  0  0  0  0
   62.0962   31.8720   25.7842 H   0  0  0  0  0  0  0  0  0  0  0  0
   58.5436   29.5124   28.3636 C   0  0  0  0  0  0  0  0  0  0  0  0
   58.4709   29.0139   29.6928 O   0  0  0  0  0  0  0  0  0  0  0  0
   58.7967   28.1005   29.7138 H   0  0  0  0  0  0  0  0  0  0  0  0
  1  2  1  0
  2  3  2  0
  3  4  1  0
  4  5  1  0
  4  6  2  0
  6  7  1  0
  7  8  1  0
 15  8  1  0
 15 16  1  0
 16 17  1  0
 17 24  1  0
 24 25  1  0
 17 18  1  0
 18 19  1  0
 18 20  1  0
 20 21  1  0
  8  9  2  0
  9 10  1  0
 10 11  1  0
 11  2  1  0
 11  7  2  0
 20 15  1  0
  1 12  1  0
  1 13  1  0
 25 26  1  0
 19 22  1  0
 21 23  1  0
 10 14  1  0
M  END
> <minimizedAffinity>
-4.87842

> <CNNscore>
0.3157202005

> <CNNaffinity>
4.0660624504

> <CNN_VS>
1.2837380171

> <CNNaffinity_variance>
0.1554212719

$$$$



 26 28  0  0  0  0  0  0  0  0999 V2000
   61.7912   33.6858   33.0394 N   0  0  0  0  0  0  0  0  0  0  0  0
   62.4162   33.4129   31.8353 C   0  0  0  0  0  0  0  0  0  0  0  0
   63.7545   33.4644   31.7870 N   0  0  0  0  0  0  0  0  0  0  0  0
   64.3496   33.1847   30.6132 C   0  0  0  0  0  0  0  0  0  0  0  0
   66.0596   33.2465   30.6221 Cl  0  0  0  0  0  0  0  0  0  0  0  0
   63.7951   32.8397   29.4381 N   0  0  0  0  0  0  0  0  0  0  0  0
   62.4454   32.8041   29.5101 C   0  0  0  0  0  0  0  0  0  0  0  0
   61.4527   32.5063   28.5413 C   0  0  0  0  0  0  0  0  0  0  0  0
   60.2164   32.5866   29.0699 N   0  0  0  0  0  0  0  0  0  0  0  0
   60.4333   32.9690   30.3413 N   0  0  0  0  0  0  0  0  0  0  0  0
   61.7495   33.0813   30.6720 C   0  0  0  0  0  0  0  0  0  0  0  0
   62.3282   33.9160   33.8317 H   0  0  0  0  0  0  0  0  0  0  0  0
   60.8094   33.6496   33.1037 H   0  0  0  0  0  0  0  0  0  0  0  0
   59.7042   33.1517   30.9771 H   0  0  0  0  0  0  0  0  0  0  0  0
   61.6569   32.1192   27.1081 C   0  0  0  0  0  0  0  0  0  0  0  0
   60.4177   32.1938   26.3579 O   0  0  0  0  0  0  0  0  0  0  0  0
   60.3876   31.1057   25.4067 C   0  0  0  0  0  0  0  0  0  0  0  0
   61.7253   30.3752   25.5144 C   0  0  0  0  0  0  0  0  0  0  0  0
   62.6881   30.9510   24.6052 O   0  0  0  0  0  0  0  0  0  0  0  0
   62.1860   30.6921   26.9287 C   0  0  0  0  0  0  0  0  0  0  0  0
   63.6064   30.5876   27.0354 O   0  0  0  0  0  0  0  0  0  0  0  0
   62.7828   31.8982   24.7917 H   0  0  0  0  0  0  0  0  0  0  0  0
   64.0235   31.1657   26.3776 H   0  0  0  0  0  0  0  0  0  0  0  0
   59.1761   30.2193   25.7075 C   0  0  0  0  0  0  0  0  0  0  0  0
   57.9618   30.8090   25.2623 O   0  0  0  0  0  0  0  0  0  0  0  0
   57.8232   31.6511   25.7232 H   0  0  0  0  0  0  0  0  0  0  0  0
  1  2  1  0
  2  3  2  0
  3  4  1  0
  4  5  1  0
  4  6  2  0
  6  7  1  0
  7  8  1  0
 15  8  1  0
 15 16  1  0
 16 17  1  0
 17 24  1  0
 24 25  1  0
 17 18  1  0
 18 19  1  0
 18 20  1  0
 20 21  1  0
  8  9  2  0
  9 10  1  0
 10 11  1  0
 11  2  1  0
 11  7  2  0
 20 15  1  0
  1 12  1  0
  1 13  1  0
 25 26  1  0
 19 22  1  0
 21 23  1  0
 10 14  1  0
M  END
> <minimizedAffinity>
-5.67528

> <CNNscore>
0.3001622856

> <CNNaffinity>
4.3957314491

> <CNN_VS>
1.3194328547

> <CNNaffinity_variance>
0.0387548059

$$$$



 26 28  0  0  0  0  0  0  0  0999 V2000
   65.3207   38.6033   21.4710 N   0  0  0  0  0  0  0  0  0  0  0  0
   64.1549   37.9351   21.1405 C   0  0  0  0  0  0  0  0  0  0  0  0
   64.2446   36.8411   20.3716 N   0  0  0  0  0  0  0  0  0  0  0  0
   63.1046   36.1942   20.0683 C   0  0  0  0  0  0  0  0  0  0  0  0
   63.2880   34.7937   19.1022 Cl  0  0  0  0  0  0  0  0  0  0  0  0
   61.8422   36.4757   20.4349 N   0  0  0  0  0  0  0  0  0  0  0  0
   61.7771   37.5879   21.2009 C   0  0  0  0  0  0  0  0  0  0  0  0
   60.6825   38.2619   21.8013 C   0  0  0  0  0  0  0  0  0  0  0  0
   61.0954   39.3403   22.4947 N   0  0  0  0  0  0  0  0  0  0  0  0
   62.4257   39.3618   22.2959 N   0  0  0  0  0  0  0  0  0  0  0  0
   62.8953   38.3180   21.5583 C   0  0  0  0  0  0  0  0  0  0  0  0
   66.1873   38.2753   21.1383 H   0  0  0  0  0  0  0  0  0  0  0  0
   65.2835   39.4066   22.0389 H   0  0  0  0  0  0  0  0  0  0  0  0
   63.0088   40.0704   22.6526 H   0  0  0  0  0  0  0  0  0  0  0  0
   59.2331   37.8852   21.7486 C   0  0  0  0  0  0  0  0  0  0  0  0
   58.6486   38.2088   20.4611 O   0  0  0  0  0  0  0  0  0  0  0  0
   57.2944   38.6688   20.6712 C   0  0  0  0  0  0  0  0  0  0  0  0
   56.9984   38.5328   22.1641 C   0  0  0  0  0  0  0  0  0  0  0  0
   56.4457   37.2301   22.4512 O   0  0  0  0  0  0  0  0  0  0  0  0
   58.3771   38.5952   22.8029 C   0  0  0  0  0  0  0  0  0  0  0  0
   58.3767   37.9467   24.0756 O   0  0  0  0  0  0  0  0  0  0  0  0
   57.0592   36.5439   22.1452 H   0  0  0  0  0  0  0  0  0  0  0  0
   58.0627   37.0346   23.9736 H   0  0  0  0  0  0  0  0  0  0  0  0
   57.1723   40.1022   20.1475 C   0  0  0  0  0  0  0  0  0  0  0  0
   55.9708   40.3001   19.4141 O   0  0  0  0  0  0  0  0  0  0  0  0
   55.9615   39.7108   18.6437 H   0  0  0  0  0  0  0  0  0  0  0  0
  1  2  1  0
  2  3  2  0
  3  4  1  0
  4  5  1  0
  4  6  2  0
  6  7  1  0
  7  8  1  0
 15  8  1  0
 15 16  1  0
 16 17  1  0
 17 24  1  0
 24 25  1  0
 17 18  1  0
 18 19  1  0
 18 20  1  0
 20 21  1  0
  8  9  2  0
  9 10  1  0
 10 11  1  0
 11  2  1  0
 11  7  2  0
 20 15  1  0
  1 12  1  0
  1 13  1  0
 25 26  1  0
 19 22  1  0
 21 23  1  0
 10 14  1  0
M  END
> <minimizedAffinity>
-7.41808

> <CNNscore>
0.2542701066

> <CNNaffinity>
5.4639492035

> <CNN_VS>
1.3893189430

> <CNNaffinity_variance>
0.0475642681

$$$$
