


 21 22  0  0  0  0  0  0  0  0999 V2000
   -3.2966   31.3906   -4.3916 C   0  0  0  0  0  0  0  0  0  0  0  0
   -2.7484   31.3927   -5.8087 C   0  0  0  0  0  0  0  0  0  0  0  0
   -3.9301   30.8028   -6.5888 C   0  0  0  0  0  0  0  0  0  0  0  0
   -5.1813   31.2170   -5.7703 C   0  0  0  0  0  0  0  0  0  0  0  0
   -4.6827   31.8468   -4.5451 N   0  0  0  0  0  0  0  0  0  0  0  0
   -4.9293   33.2263   -4.4823 C   0  0  0  0  0  0  0  0  0  0  0  0
   -4.0436   34.0763   -4.5152 O   0  0  0  0  0  0  0  0  0  0  0  0
   -2.3473   32.7256   -0.9557 C   0  0  0  0  0  0  0  0  0  0  0  0
   -2.9996   32.0734   -2.0599 N   0  0  0  0  0  0  0  0  0  0  0  0
   -2.4105   32.0365   -3.3119 C   0  0  0  0  0  0  0  0  0  0  0  0
   -1.2345   32.3335   -3.5113 O   0  0  0  0  0  0  0  0  0  0  0  0
   -3.8767   31.6477   -1.9232 H   0  0  0  0  0  0  0  0  0  0  0  0
   -3.8596   29.3727   -6.6099 O   0  0  0  0  0  0  0  0  0  0  0  0
   -5.0586   28.7660   -7.0789 C   0  0  0  0  0  0  0  0  0  0  0  0
   -6.3904   33.5931   -4.2709 C   0  0  0  0  0  0  0  0  0  0  0  0
   -6.7599   33.1749   -2.9017 C   0  0  0  0  0  0  0  0  0  0  0  0
   -7.9469   33.0193   -2.2291 C   0  0  0  0  0  0  0  0  0  0  0  0
   -7.5598   32.6433   -0.9233 C   0  0  0  0  0  0  0  0  0  0  0  0
   -8.4205   32.3507    0.2438 C   0  0  0  0  0  0  0  0  0  0  0  0
   -6.2274   32.5701   -0.8130 N   0  0  0  0  0  0  0  0  0  0  0  0
   -5.7284   32.8981   -2.0588 O   0  0  0  0  0  0  0  0  0  0  0  0
  8  9  1  0
  9 10  1  0
 10 11  2  0
  1 10  1  0
  1  2  1  0
  2  3  1  0
  3 13  1  0
 13 14  1  0
  3  4  1  0
  4  5  1  0
  5  6  1  0
  6  7  2  0
  6 15  1  0
 15 16  1  0
 16 17  2  0
 17 18  1  0
 18 19  1  0
 18 20  2  0
 20 21  1  0
  5  1  1  0
 21 16  1  0
  9 12  1  0
M  END
> <minimizedAffinity>
-4.51701

> <CNNscore>
0.3841228187

> <CNNaffinity>
3.8643968105

> <CNN_VS>
1.4844030142

> <CNNaffinity_variance>
1.0533818007

$$$$



 21 22  0  0  0  0  0  0  0  0999 V2000
   -9.2634   36.4879   -4.5011 C   0  0  0  0  0  0  0  0  0  0  0  0
  -10.5504   37.2410   -4.7925 C   0  0  0  0  0  0  0  0  0  0  0  0
  -10.0053   38.5773   -5.3123 C   0  0  0  0  0  0  0  0  0  0  0  0
   -8.6380   38.2170   -5.9509 C   0  0  0  0  0  0  0  0  0  0  0  0
   -8.3986   36.8047   -5.6433 N   0  0  0  0  0  0  0  0  0  0  0  0
   -8.4629   35.9666   -6.7663 C   0  0  0  0  0  0  0  0  0  0  0  0
   -9.3362   35.1193   -6.9317 O   0  0  0  0  0  0  0  0  0  0  0  0
   -8.1993   33.1106   -3.1046 C   0  0  0  0  0  0  0  0  0  0  0  0
   -8.2640   34.4952   -3.4903 N   0  0  0  0  0  0  0  0  0  0  0  0
   -9.4115   35.0217   -4.0576 C   0  0  0  0  0  0  0  0  0  0  0  0
  -10.4927   34.4368   -4.0557 O   0  0  0  0  0  0  0  0  0  0  0  0
   -7.4817   35.0759   -3.3489 H   0  0  0  0  0  0  0  0  0  0  0  0
   -9.7706   39.4843   -4.2292 O   0  0  0  0  0  0  0  0  0  0  0  0
  -10.9116   40.2727   -3.9099 C   0  0  0  0  0  0  0  0  0  0  0  0
   -7.2984   36.1224   -7.7325 C   0  0  0  0  0  0  0  0  0  0  0  0
   -6.5322   34.8579   -7.7126 C   0  0  0  0  0  0  0  0  0  0  0  0
   -6.6497   33.6500   -8.3550 C   0  0  0  0  0  0  0  0  0  0  0  0
   -5.6018   32.8682   -7.8193 C   0  0  0  0  0  0  0  0  0  0  0  0
   -5.2451   31.4672   -8.1333 C   0  0  0  0  0  0  0  0  0  0  0  0
   -4.8928   33.5578   -6.9167 N   0  0  0  0  0  0  0  0  0  0  0  0
   -5.4756   34.8089   -6.8570 O   0  0  0  0  0  0  0  0  0  0  0  0
  8  9  1  0
  9 10  1  0
 10 11  2  0
  1 10  1  0
  1  2  1  0
  2  3  1  0
  3 13  1  0
 13 14  1  0
  3  4  1  0
  4  5  1  0
  5  6  1  0
  6  7  2  0
  6 15  1  0
 15 16  1  0
 16 17  2  0
 17 18  1  0
 18 19  1  0
 18 20  2  0
 20 21  1  0
  5  1  1  0
 21 16  1  0
  9 12  1  0
M  END
> <minimizedAffinity>
-3.89951

> <CNNscore>
0.3763848543

> <CNNaffinity>
3.7686469555

> <CNN_VS>
1.4184616804

> <CNNaffinity_variance>
0.5465182066

$$$$



 21 22  0  0  0  0  0  0  0  0999 V2000
   -5.4579   33.6556   -5.4541 C   0  0  0  0  0  0  0  0  0  0  0  0
   -4.6459   34.8885   -5.0949 C   0  0  0  0  0  0  0  0  0  0  0  0
   -5.7356   35.9676   -5.0648 C   0  0  0  0  0  0  0  0  0  0  0  0
   -7.0264   35.2051   -4.6656 C   0  0  0  0  0  0  0  0  0  0  0  0
   -6.6756   33.7827   -4.6455 N   0  0  0  0  0  0  0  0  0  0  0  0
   -6.6690   33.2241   -3.3588 C   0  0  0  0  0  0  0  0  0  0  0  0
   -5.6525   32.8243   -2.7976 O   0  0  0  0  0  0  0  0  0  0  0  0
   -4.8800   29.9482   -6.0945 C   0  0  0  0  0  0  0  0  0  0  0  0
   -5.4006   31.2894   -6.0779 N   0  0  0  0  0  0  0  0  0  0  0  0
   -4.7022   32.3151   -5.4647 C   0  0  0  0  0  0  0  0  0  0  0  0
   -3.5285   32.2141   -5.1135 O   0  0  0  0  0  0  0  0  0  0  0  0
   -6.2652   31.4801   -6.5084 H   0  0  0  0  0  0  0  0  0  0  0  0
   -5.9294   36.5282   -6.3683 O   0  0  0  0  0  0  0  0  0  0  0  0
   -7.2960   36.8020   -6.6558 C   0  0  0  0  0  0  0  0  0  0  0  0
   -8.0486   33.0602   -2.7392 C   0  0  0  0  0  0  0  0  0  0  0  0
   -7.8858   33.1172   -1.2707 C   0  0  0  0  0  0  0  0  0  0  0  0
   -8.0926   32.2299   -0.2433 C   0  0  0  0  0  0  0  0  0  0  0  0
   -7.7839   32.9684    0.9210 C   0  0  0  0  0  0  0  0  0  0  0  0
   -7.8363   32.5271    2.3321 C   0  0  0  0  0  0  0  0  0  0  0  0
   -7.4094   34.2181    0.6194 N   0  0  0  0  0  0  0  0  0  0  0  0
   -7.4681   34.3061   -0.7580 O   0  0  0  0  0  0  0  0  0  0  0  0
  8  9  1  0
  9 10  1  0
 10 11  2  0
  1 10  1  0
  1  2  1  0
  2  3  1  0
  3 13  1  0
 13 14  1  0
  3  4  1  0
  4  5  1  0
  5  6  1  0
  6  7  2  0
  6 15  1  0
 15 16  1  0
 16 17  2  0
 17 18  1  0
 18 19  1  0
 18 20  2  0
 20 21  1  0
  5  1  1  0
 21 16  1  0
  9 12  1  0
M  END
> <minimizedAffinity>
-4.42499

> <CNNscore>
0.3545642197

> <CNNaffinity>
4.0238528252

> <CNN_VS>
1.4267141819

> <CNNaffinity_variance>
0.3348661363

$$$$



 21 22  0  0  0  0  0  0  0  0999 V2000
   -5.1793   36.8320    3.8065 C   0  0  0  0  0  0  0  0  0  0  0  0
   -6.3844   37.0643    2.9108 C   0  0  0  0  0  0  0  0  0  0  0  0
   -6.4027   35.7687    2.0898 C   0  0  0  0  0  0  0  0  0  0  0  0
   -5.7745   34.7051    3.0286 C   0  0  0  0  0  0  0  0  0  0  0  0
   -5.3026   35.4275    4.2127 N   0  0  0  0  0  0  0  0  0  0  0  0
   -6.0367   35.1431    5.3736 C   0  0  0  0  0  0  0  0  0  0  0  0
   -6.7468   35.9653    5.9461 O   0  0  0  0  0  0  0  0  0  0  0  0
   -5.8471   39.8803    5.9862 C   0  0  0  0  0  0  0  0  0  0  0  0
   -5.9666   38.7653    5.0847 N   0  0  0  0  0  0  0  0  0  0  0  0
   -4.9053   37.9008    4.8793 C   0  0  0  0  0  0  0  0  0  0  0  0
   -3.9072   37.8783    5.5963 O   0  0  0  0  0  0  0  0  0  0  0  0
   -6.8146   38.6152    4.6075 H   0  0  0  0  0  0  0  0  0  0  0  0
   -5.5714   35.8921    0.9302 O   0  0  0  0  0  0  0  0  0  0  0  0
   -6.2151   36.5695   -0.1432 C   0  0  0  0  0  0  0  0  0  0  0  0
   -5.8091   33.7470    5.9332 C   0  0  0  0  0  0  0  0  0  0  0  0
   -4.8045   33.8591    7.0123 C   0  0  0  0  0  0  0  0  0  0  0  0
   -4.0334   34.8813    7.5085 C   0  0  0  0  0  0  0  0  0  0  0  0
   -3.2491   34.2694    8.5119 C   0  0  0  0  0  0  0  0  0  0  0  0
   -2.2233   34.8852    9.3820 C   0  0  0  0  0  0  0  0  0  0  0  0
   -3.5298   32.9647    8.6207 N   0  0  0  0  0  0  0  0  0  0  0  0
   -4.5116   32.7118    7.6823 O   0  0  0  0  0  0  0  0  0  0  0  0
  8  9  1  0
  9 10  1  0
 10 11  2  0
  1 10  1  0
  1  2  1  0
  2  3  1  0
  3 13  1  0
 13 14  1  0
  3  4  1  0
  4  5  1  0
  5  6  1  0
  6  7  2  0
  6 15  1  0
 15 16  1  0
 16 17  2  0
 17 18  1  0
 18 19  1  0
 18 20  2  0
 20 21  1  0
  5  1  1  0
 21 16  1  0
  9 12  1  0
M  END
> <minimizedAffinity>
-4.52820

> <CNNscore>
0.3440818191

> <CNNaffinity>
4.0381283760

> <CNN_VS>
1.3894466162

> <CNNaffinity_variance>
0.1916747093

$$$$



 21 22  0  0  0  0  0  0  0  0999 V2000
   -5.6135   37.0487    8.0242 C   0  0  0  0  0  0  0  0  0  0  0  0
   -5.1871   38.4834    8.2854 C   0  0  0  0  0  0  0  0  0  0  0  0
   -4.6842   38.3888    9.7314 C   0  0  0  0  0  0  0  0  0  0  0  0
   -4.1818   36.9278    9.8731 C   0  0  0  0  0  0  0  0  0  0  0  0
   -4.5466   36.2439    8.6298 N   0  0  0  0  0  0  0  0  0  0  0  0
   -3.4446   35.9078    7.8295 C   0  0  0  0  0  0  0  0  0  0  0  0
   -3.2228   36.4138    6.7328 O   0  0  0  0  0  0  0  0  0  0  0  0
   -6.0935   37.5418    4.2805 C   0  0  0  0  0  0  0  0  0  0  0  0
   -5.6683   37.6458    5.6511 N   0  0  0  0  0  0  0  0  0  0  0  0
   -6.0798   36.7206    6.5948 C   0  0  0  0  0  0  0  0  0  0  0  0
   -6.6184   35.6551    6.3024 O   0  0  0  0  0  0  0  0  0  0  0  0
   -5.0768   38.3849    5.9213 H   0  0  0  0  0  0  0  0  0  0  0  0
   -5.7601   38.5860   10.6557 O   0  0  0  0  0  0  0  0  0  0  0  0
   -5.7924   39.9025   11.1954 C   0  0  0  0  0  0  0  0  0  0  0  0
   -2.5842   34.7841    8.3870 C   0  0  0  0  0  0  0  0  0  0  0  0
   -3.3887   33.5443    8.3423 C   0  0  0  0  0  0  0  0  0  0  0  0
   -4.3210   33.0315    7.4743 C   0  0  0  0  0  0  0  0  0  0  0  0
   -4.7283   31.8205    8.0774 C   0  0  0  0  0  0  0  0  0  0  0  0
   -5.7273   30.8419    7.5947 C   0  0  0  0  0  0  0  0  0  0  0  0
   -4.0821   31.6102    9.2312 N   0  0  0  0  0  0  0  0  0  0  0  0
   -3.2370   32.6913    9.3912 O   0  0  0  0  0  0  0  0  0  0  0  0
  8  9  1  0
  9 10  1  0
 10 11  2  0
  1 10  1  0
  1  2  1  0
  2  3  1  0
  3 13  1  0
 13 14  1  0
  3  4  1  0
  4  5  1  0
  5  6  1  0
  6  7  2  0
  6 15  1  0
 15 16  1  0
 16 17  2  0
 17 18  1  0
 18 19  1  0
 18 20  2  0
 20 21  1  0
  5  1  1  0
 21 16  1  0
  9 12  1  0
M  END
> <minimizedAffinity>
-5.28814

> <CNNscore>
0.3217788935

> <CNNaffinity>
3.8229534626

> <CNN_VS>
1.2301456928

> <CNNaffinity_variance>
0.5697082281

$$$$



 21 22  0  0  0  0  0  0  0  0999 V2000
   -5.1190   34.8790    2.0120 C   0  0  0  0  0  0  0  0  0  0  0  0
   -6.3024   35.2581    1.1377 C   0  0  0  0  0  0  0  0  0  0  0  0
   -7.2103   34.0343    1.3140 C   0  0  0  0  0  0  0  0  0  0  0  0
   -6.8686   33.4979    2.7291 C   0  0  0  0  0  0  0  0  0  0  0  0
   -5.7332   34.2906    3.2075 N   0  0  0  0  0  0  0  0  0  0  0  0
   -6.0552   35.1493    4.2689 C   0  0  0  0  0  0  0  0  0  0  0  0
   -6.0469   36.3739    4.1777 O   0  0  0  0  0  0  0  0  0  0  0  0
   -1.9017   36.4384    3.3182 C   0  0  0  0  0  0  0  0  0  0  0  0
   -2.9687   35.5341    2.9807 N   0  0  0  0  0  0  0  0  0  0  0  0
   -4.0213   35.9442    2.1807 C   0  0  0  0  0  0  0  0  0  0  0  0
   -4.0061   36.9877    1.5313 O   0  0  0  0  0  0  0  0  0  0  0  0
   -2.9500   34.6113    3.3233 H   0  0  0  0  0  0  0  0  0  0  0  0
   -6.8841   33.0196    0.3575 O   0  0  0  0  0  0  0  0  0  0  0  0
   -7.9917   32.1864    0.0345 C   0  0  0  0  0  0  0  0  0  0  0  0
   -6.3270   34.4416    5.5878 C   0  0  0  0  0  0  0  0  0  0  0  0
   -5.0343   34.3026    6.2920 C   0  0  0  0  0  0  0  0  0  0  0  0
   -3.8917   35.0604    6.3673 C   0  0  0  0  0  0  0  0  0  0  0  0
   -3.0235   34.3002    7.1826 C   0  0  0  0  0  0  0  0  0  0  0  0
   -1.6407   34.6177    7.6017 C   0  0  0  0  0  0  0  0  0  0  0  0
   -3.6029   33.1603    7.5797 N   0  0  0  0  0  0  0  0  0  0  0  0
   -4.8678   33.1680    7.0242 O   0  0  0  0  0  0  0  0  0  0  0  0
  8  9  1  0
  9 10  1  0
 10 11  2  0
  1 10  1  0
  1  2  1  0
  2  3  1  0
  3 13  1  0
 13 14  1  0
  3  4  1  0
  4  5  1  0
  5  6  1  0
  6  7  2  0
  6 15  1  0
 15 16  1  0
 16 17  2  0
 17 18  1  0
 18 19  1  0
 18 20  2  0
 20 21  1  0
  5  1  1  0
 21 16  1  0
  9 12  1  0
M  END
> <minimizedAffinity>
-4.34042

> <CNNscore>
0.3068631589

> <CNNaffinity>
4.2176079750

> <CNN_VS>
1.2942285538

> <CNNaffinity_variance>
0.5843335986

$$$$



 21 22  0  0  0  0  0  0  0  0999 V2000
   -7.7016   33.4379   -0.1367 C   0  0  0  0  0  0  0  0  0  0  0  0
   -7.2577   32.7448   -1.4138 C   0  0  0  0  0  0  0  0  0  0  0  0
   -7.3641   33.8894   -2.4294 C   0  0  0  0  0  0  0  0  0  0  0  0
   -7.1148   35.1734   -1.5950 C   0  0  0  0  0  0  0  0  0  0  0  0
   -7.0433   34.7479   -0.1948 N   0  0  0  0  0  0  0  0  0  0  0  0
   -5.7610   34.8622    0.3621 C   0  0  0  0  0  0  0  0  0  0  0  0
   -5.0809   33.8983    0.7034 O   0  0  0  0  0  0  0  0  0  0  0  0
   -7.4944   32.7764    3.6061 C   0  0  0  0  0  0  0  0  0  0  0  0
   -7.6574   33.3793    2.3099 N   0  0  0  0  0  0  0  0  0  0  0  0
   -7.6134   32.6119    1.1588 C   0  0  0  0  0  0  0  0  0  0  0  0
   -7.6691   31.3840    1.1660 O   0  0  0  0  0  0  0  0  0  0  0  0
   -7.8022   34.3507    2.2408 H   0  0  0  0  0  0  0  0  0  0  0  0
   -8.6853   33.9588   -2.9776 O   0  0  0  0  0  0  0  0  0  0  0  0
   -8.7081   34.4737   -4.3042 C   0  0  0  0  0  0  0  0  0  0  0  0
   -5.3076   36.2939    0.6037 C   0  0  0  0  0  0  0  0  0  0  0  0
   -5.3009   36.5173    2.0654 C   0  0  0  0  0  0  0  0  0  0  0  0
   -6.2665   36.7905    3.0027 C   0  0  0  0  0  0  0  0  0  0  0  0
   -5.5473   36.9371    4.2100 C   0  0  0  0  0  0  0  0  0  0  0  0
   -6.0673   37.2495    5.5593 C   0  0  0  0  0  0  0  0  0  0  0  0
   -4.2341   36.7590    4.0186 N   0  0  0  0  0  0  0  0  0  0  0  0
   -4.0836   36.4891    2.6721 O   0  0  0  0  0  0  0  0  0  0  0  0
  8  9  1  0
  9 10  1  0
 10 11  2  0
  1 10  1  0
  1  2  1  0
  2  3  1  0
  3 13  1  0
 13 14  1  0
  3  4  1  0
  4  5  1  0
  5  6  1  0
  6  7  2  0
  6 15  1  0
 15 16  1  0
 16 17  2  0
 17 18  1  0
 18 19  1  0
 18 20  2  0
 20 21  1  0
  5  1  1  0
 21 16  1  0
  9 12  1  0
M  END
> <minimizedAffinity>
-4.60642

> <CNNscore>
0.2925581634

> <CNNaffinity>
4.4531683922

> <CNN_VS>
1.3028107882

> <CNNaffinity_variance>
0.2907628715

$$$$



 21 22  0  0  0  0  0  0  0  0999 V2000
   -7.7111   36.4795   -5.3769 C   0  0  0  0  0  0  0  0  0  0  0  0
   -7.1945   37.2400   -6.5866 C   0  0  0  0  0  0  0  0  0  0  0  0
   -5.7867   37.6292   -6.1180 C   0  0  0  0  0  0  0  0  0  0  0  0
   -5.3831   36.5063   -5.1264 C   0  0  0  0  0  0  0  0  0  0  0  0
   -6.5681   35.6619   -4.9551 N   0  0  0  0  0  0  0  0  0  0  0  0
   -6.4333   34.3841   -5.5179 C   0  0  0  0  0  0  0  0  0  0  0  0
   -7.0859   33.9951   -6.4827 O   0  0  0  0  0  0  0  0  0  0  0  0
  -10.9308   34.7805   -4.2652 C   0  0  0  0  0  0  0  0  0  0  0  0
   -9.6794   35.4891   -4.3111 N   0  0  0  0  0  0  0  0  0  0  0  0
   -9.0930   35.8178   -5.5210 C   0  0  0  0  0  0  0  0  0  0  0  0
   -9.6835   35.7459   -6.5966 O   0  0  0  0  0  0  0  0  0  0  0  0
   -9.2344   35.7437   -3.4706 H   0  0  0  0  0  0  0  0  0  0  0  0
   -5.8156   38.8704   -5.4042 O   0  0  0  0  0  0  0  0  0  0  0  0
   -4.9008   38.9041   -4.3146 C   0  0  0  0  0  0  0  0  0  0  0  0
   -5.4726   33.4692   -4.7736 C   0  0  0  0  0  0  0  0  0  0  0  0
   -6.0647   33.1866   -3.4485 C   0  0  0  0  0  0  0  0  0  0  0  0
   -7.3442   33.1609   -2.9506 C   0  0  0  0  0  0  0  0  0  0  0  0
   -7.1774   32.8672   -1.5787 C   0  0  0  0  0  0  0  0  0  0  0  0
   -8.2159   32.7244   -0.5348 C   0  0  0  0  0  0  0  0  0  0  0  0
   -5.8837   32.7192   -1.2667 N   0  0  0  0  0  0  0  0  0  0  0  0
   -5.1882   32.9138   -2.4444 O   0  0  0  0  0  0  0  0  0  0  0  0
  8  9  1  0
  9 10  1  0
 10 11  2  0
  1 10  1  0
  1  2  1  0
  2  3  1  0
  3 13  1  0
 13 14  1  0
  3  4  1  0
  4  5  1  0
  5  6  1  0
  6  7  2  0
  6 15  1  0
 15 16  1  0
 16 17  2  0
 17 18  1  0
 18 19  1  0
 18 20  2  0
 20 21  1  0
  5  1  1  0
 21 16  1  0
  9 12  1  0
M  END
> <minimizedAffinity>
-4.04161

> <CNNscore>
0.2915569544

> <CNNaffinity>
3.6818492413

> <CNN_VS>
1.0734688044

> <CNNaffinity_variance>
0.5463723540

$$$$



 21 22  0  0  0  0  0  0  0  0999 V2000
   -4.2109   41.0167    6.6262 C   0  0  0  0  0  0  0  0  0  0  0  0
   -4.0904   42.4406    6.1098 C   0  0  0  0  0  0  0  0  0  0  0  0
   -3.2722   42.2277    4.8299 C   0  0  0  0  0  0  0  0  0  0  0  0
   -3.6439   40.7949    4.3651 C   0  0  0  0  0  0  0  0  0  0  0  0
   -4.4815   40.2227    5.4223 N   0  0  0  0  0  0  0  0  0  0  0  0
   -5.8199   40.0430    5.0430 C   0  0  0  0  0  0  0  0  0  0  0  0
   -6.7540   40.6739    5.5302 O   0  0  0  0  0  0  0  0  0  0  0  0
   -6.7530   41.8901    9.3213 C   0  0  0  0  0  0  0  0  0  0  0  0
   -5.9299   41.8774    8.1413 N   0  0  0  0  0  0  0  0  0  0  0  0
   -5.0897   40.8107    7.8726 C   0  0  0  0  0  0  0  0  0  0  0  0
   -5.1552   39.7363    8.4660 O   0  0  0  0  0  0  0  0  0  0  0  0
   -5.9648   42.6375    7.5166 H   0  0  0  0  0  0  0  0  0  0  0  0
   -1.8691   42.2583    5.1147 O   0  0  0  0  0  0  0  0  0  0  0  0
   -1.1209   41.3534    4.3106 C   0  0  0  0  0  0  0  0  0  0  0  0
   -6.0416   38.9244    4.0363 C   0  0  0  0  0  0  0  0  0  0  0  0
   -6.0667   37.6503    4.7862 C   0  0  0  0  0  0  0  0  0  0  0  0
   -5.7199   36.3539    4.4951 C   0  0  0  0  0  0  0  0  0  0  0  0
   -6.0576   35.6333    5.6626 C   0  0  0  0  0  0  0  0  0  0  0  0
   -5.9149   34.1841    5.9236 C   0  0  0  0  0  0  0  0  0  0  0  0
   -6.5697   36.4396    6.6009 N   0  0  0  0  0  0  0  0  0  0  0  0
   -6.5678   37.7065    6.0498 O   0  0  0  0  0  0  0  0  0  0  0  0
  8  9  1  0
  9 10  1  0
 10 11  2  0
  1 10  1  0
  1  2  1  0
  2  3  1  0
  3 13  1  0
 13 14  1  0
  3  4  1  0
  4  5  1  0
  5  6  1  0
  6  7  2  0
  6 15  1  0
 15 16  1  0
 16 17  2  0
 17 18  1  0
 18 19  1  0
 18 20  2  0
 20 21  1  0
  5  1  1  0
 21 16  1  0
  9 12  1  0
M  END
> <minimizedAffinity>
-4.32558

> <CNNscore>
0.2579160035

> <CNNaffinity>
3.4008805752

> <CNN_VS>
0.8771415353

> <CNNaffinity_variance>
0.4683802426

$$$$
