


 19 19  0  0  0  0  0  0  0  0999 V2000
   20.6819   61.7515   28.8087 N   0  0  0  0  0  0  0  0  0  0  0  0
   21.4537   61.8125   29.9542 C   0  0  0  0  0  0  0  0  0  0  0  0
   22.7785   61.6761   29.9123 C   0  0  0  0  0  0  0  0  0  0  0  0
   23.5451   61.7280   31.0167 F   0  0  0  0  0  0  0  0  0  0  0  0
   23.4521   61.4589   28.6183 C   0  0  0  0  0  0  0  0  0  0  0  0
   24.6653   61.3186   28.5167 O   0  0  0  0  0  0  0  0  0  0  0  0
   22.6167   61.4235   27.5320 N   0  0  0  0  0  0  0  0  0  0  0  0
   21.2507   61.5531   27.5520 C   0  0  0  0  0  0  0  0  0  0  0  0
   20.6009   61.4821   26.5119 O   0  0  0  0  0  0  0  0  0  0  0  0
   23.0377   61.2923   26.6517 H   0  0  0  0  0  0  0  0  0  0  0  0
   19.2240   61.9219   28.8987 C   0  0  0  0  0  0  0  0  0  0  0  0
   18.8751   64.3002   29.4901 N   0  0  0  0  0  0  0  0  0  0  0  0
   18.7247   63.2966   28.4038 C   0  0  0  0  0  0  0  0  0  0  0  0
   19.8487   64.3305   29.7926 H   0  0  0  0  0  0  0  0  0  0  0  0
   18.2821   64.0397   30.2781 H   0  0  0  0  0  0  0  0  0  0  0  0
   17.2543   63.2687   27.9655 C   0  0  0  0  0  0  0  0  0  0  0  0
   16.7929   62.5915   27.0563 O   0  0  0  0  0  0  0  0  0  0  0  0
   16.4202   64.0023   28.7255 O   0  0  0  0  0  0  0  0  0  0  0  0
   16.7609   64.5250   29.4246 H   0  0  0  0  0  0  0  0  0  0  0  0
 13 12  1  0
 13 11  1  0
 11  1  1  0
  1  2  1  0
  2  3  2  0
  3  4  1  0
  3  5  1  0
  5  6  2  0
  5  7  1  0
  7  8  1  0
  8  9  2  0
 13 16  1  0
 16 17  2  0
 16 18  1  0
  8  1  1  0
 12 14  1  0
 12 15  1  0
  7 10  1  0
 18 19  1  0
M  END
> <minimizedAffinity>
-8.97583

> <CNNscore>
0.9956278205

> <CNNaffinity>
6.5673470497

> <CNN_VS>
6.5386333466

> <CNNaffinity_variance>
0.0944625139

$$$$



 19 19  0  0  0  0  0  0  0  0999 V2000
   20.6207   61.5706   28.4467 N   0  0  0  0  0  0  0  0  0  0  0  0
   20.4634   60.8588   27.2719 C   0  0  0  0  0  0  0  0  0  0  0  0
   21.5054   60.3364   26.6265 C   0  0  0  0  0  0  0  0  0  0  0  0
   21.3722   59.6449   25.4802 F   0  0  0  0  0  0  0  0  0  0  0  0
   22.8657   60.5098   27.1698 C   0  0  0  0  0  0  0  0  0  0  0  0
   23.8632   60.0598   26.6181 O   0  0  0  0  0  0  0  0  0  0  0  0
   22.9326   61.2166   28.3425 N   0  0  0  0  0  0  0  0  0  0  0  0
   21.8752   61.7703   29.0197 C   0  0  0  0  0  0  0  0  0  0  0  0
   22.0598   62.4048   30.0553 O   0  0  0  0  0  0  0  0  0  0  0  0
   23.8261   61.3389   28.7372 H   0  0  0  0  0  0  0  0  0  0  0  0
   19.4414   62.1178   29.1343 C   0  0  0  0  0  0  0  0  0  0  0  0
   18.8881   64.5235   29.3174 N   0  0  0  0  0  0  0  0  0  0  0  0
   18.8151   63.3374   28.4243 C   0  0  0  0  0  0  0  0  0  0  0  0
   19.8587   64.6896   29.5835 H   0  0  0  0  0  0  0  0  0  0  0  0
   18.3304   64.3537   30.1544 H   0  0  0  0  0  0  0  0  0  0  0  0
   17.3480   63.1073   28.0377 C   0  0  0  0  0  0  0  0  0  0  0  0
   16.9162   62.1473   27.4134 O   0  0  0  0  0  0  0  0  0  0  0  0
   16.4833   64.0204   28.5176 O   0  0  0  0  0  0  0  0  0  0  0  0
   16.8012   64.7599   28.9972 H   0  0  0  0  0  0  0  0  0  0  0  0
 13 12  1  0
 13 11  1  0
 11  1  1  0
  1  2  1  0
  2  3  2  0
  3  4  1  0
  3  5  1  0
  5  6  2  0
  5  7  1  0
  7  8  1  0
  8  9  2  0
 13 16  1  0
 16 17  2  0
 16 18  1  0
  8  1  1  0
 12 14  1  0
 12 15  1  0
  7 10  1  0
 18 19  1  0
M  END
> <minimizedAffinity>
-6.63626

> <CNNscore>
0.8729648590

> <CNNaffinity>
5.7817702293

> <CNN_VS>
5.0472822189

> <CNNaffinity_variance>
0.1441191137

$$$$



 19 19  0  0  0  0  0  0  0  0999 V2000
   17.0504   53.9610   38.4965 N   0  0  0  0  0  0  0  0  0  0  0  0
   18.0816   53.0969   38.1777 C   0  0  0  0  0  0  0  0  0  0  0  0
   19.1410   53.5013   37.4780 C   0  0  0  0  0  0  0  0  0  0  0  0
   20.1514   52.6739   37.1546 F   0  0  0  0  0  0  0  0  0  0  0  0
   19.2316   54.9036   37.0303 C   0  0  0  0  0  0  0  0  0  0  0  0
   20.1761   55.3325   36.3779 O   0  0  0  0  0  0  0  0  0  0  0  0
   18.1750   55.6959   37.3981 N   0  0  0  0  0  0  0  0  0  0  0  0
   17.0708   55.2998   38.1102 C   0  0  0  0  0  0  0  0  0  0  0  0
   16.1714   56.0973   38.3635 O   0  0  0  0  0  0  0  0  0  0  0  0
   18.2118   56.6409   37.1246 H   0  0  0  0  0  0  0  0  0  0  0  0
   15.9064   53.4762   39.2833 C   0  0  0  0  0  0  0  0  0  0  0  0
   13.4488   53.1885   39.2113 N   0  0  0  0  0  0  0  0  0  0  0  0
   14.7012   53.0348   38.4251 C   0  0  0  0  0  0  0  0  0  0  0  0
   13.3626   54.1542   39.5280 H   0  0  0  0  0  0  0  0  0  0  0  0
   13.4763   52.5667   40.0194 H   0  0  0  0  0  0  0  0  0  0  0  0
   14.8093   51.5765   37.9598 C   0  0  0  0  0  0  0  0  0  0  0  0
   15.5277   50.7196   38.4574 O   0  0  0  0  0  0  0  0  0  0  0  0
   13.9636   51.2305   36.9715 O   0  0  0  0  0  0  0  0  0  0  0  0
   13.4083   51.8771   36.5822 H   0  0  0  0  0  0  0  0  0  0  0  0
 13 12  1  0
 13 11  1  0
 11  1  1  0
  1  2  1  0
  2  3  2  0
  3  4  1  0
  3  5  1  0
  5  6  2  0
  5  7  1  0
  7  8  1  0
  8  9  2  0
 13 16  1  0
 16 17  2  0
 16 18  1  0
  8  1  1  0
 12 14  1  0
 12 15  1  0
  7 10  1  0
 18 19  1  0
M  END
> <minimizedAffinity>
-4.34806

> <CNNscore>
0.8542127013

> <CNNaffinity>
3.5100286007

> <CNN_VS>
2.9983110428

> <CNNaffinity_variance>
0.4445334971

$$$$



 19 19  0  0  0  0  0  0  0  0999 V2000
   15.9125   65.1121   19.2341 N   0  0  0  0  0  0  0  0  0  0  0  0
   16.6818   65.9605   18.4596 C   0  0  0  0  0  0  0  0  0  0  0  0
   17.8991   66.3444   18.8419 C   0  0  0  0  0  0  0  0  0  0  0  0
   18.6600   67.1729   18.1038 F   0  0  0  0  0  0  0  0  0  0  0  0
   18.4543   65.8561   20.1181 C   0  0  0  0  0  0  0  0  0  0  0  0
   19.5634   66.1797   20.5266 O   0  0  0  0  0  0  0  0  0  0  0  0
   17.6332   65.0106   20.8184 N   0  0  0  0  0  0  0  0  0  0  0  0
   16.3742   64.6086   20.4488 C   0  0  0  0  0  0  0  0  0  0  0  0
   15.7195   63.8617   21.1716 O   0  0  0  0  0  0  0  0  0  0  0  0
   17.9806   64.6575   21.6692 H   0  0  0  0  0  0  0  0  0  0  0  0
   14.5796   64.7018   18.7672 C   0  0  0  0  0  0  0  0  0  0  0  0
   13.9205   64.0483   16.4724 N   0  0  0  0  0  0  0  0  0  0  0  0
   14.6081   63.5816   17.7050 C   0  0  0  0  0  0  0  0  0  0  0  0
   14.3629   64.9052   16.1400 H   0  0  0  0  0  0  0  0  0  0  0  0
   12.9385   64.2308   16.6792 H   0  0  0  0  0  0  0  0  0  0  0  0
   13.9265   62.2936   18.1859 C   0  0  0  0  0  0  0  0  0  0  0  0
   13.5538   62.0670   19.3295 O   0  0  0  0  0  0  0  0  0  0  0  0
   13.6590   61.3963   17.2189 O   0  0  0  0  0  0  0  0  0  0  0  0
   13.9389   61.5580   16.3394 H   0  0  0  0  0  0  0  0  0  0  0  0
 13 12  1  0
 13 11  1  0
 11  1  1  0
  1  2  1  0
  2  3  2  0
  3  4  1  0
  3  5  1  0
  5  6  2  0
  5  7  1  0
  7  8  1  0
  8  9  2  0
 13 16  1  0
 16 17  2  0
 16 18  1  0
  8  1  1  0
 12 14  1  0
 12 15  1  0
  7 10  1  0
 18 19  1  0
M  END
> <minimizedAffinity>
-5.45740

> <CNNscore>
0.7231416702

> <CNNaffinity>
4.1343116760

> <CNN_VS>
2.9896931648

> <CNNaffinity_variance>
0.1198490933

$$$$



 19 19  0  0  0  0  0  0  0  0999 V2000
   22.4441   61.2543   28.1661 N   0  0  0  0  0  0  0  0  0  0  0  0
   22.6750   61.6960   29.4558 C   0  0  0  0  0  0  0  0  0  0  0  0
   23.7534   61.3182   30.1412 C   0  0  0  0  0  0  0  0  0  0  0  0
   23.9922   61.7339   31.3982 F   0  0  0  0  0  0  0  0  0  0  0  0
   24.7359   60.4107   29.5196 C   0  0  0  0  0  0  0  0  0  0  0  0
   25.7420   60.0224   30.1016 O   0  0  0  0  0  0  0  0  0  0  0  0
   24.4384   60.0301   28.2366 N   0  0  0  0  0  0  0  0  0  0  0  0
   23.3311   60.3993   27.5149 C   0  0  0  0  0  0  0  0  0  0  0  0
   23.1585   59.9755   26.3748 O   0  0  0  0  0  0  0  0  0  0  0  0
   25.0818   59.4339   27.7895 H   0  0  0  0  0  0  0  0  0  0  0  0
   21.2480   61.7079   27.4405 C   0  0  0  0  0  0  0  0  0  0  0  0
   20.4087   62.0083   29.7497 N   0  0  0  0  0  0  0  0  0  0  0  0
   20.2069   62.4156   28.3343 C   0  0  0  0  0  0  0  0  0  0  0  0
   21.3657   62.2208   30.0315 H   0  0  0  0  0  0  0  0  0  0  0  0
   20.2415   61.0064   29.8424 H   0  0  0  0  0  0  0  0  0  0  0  0
   18.7626   62.0869   27.9333 C   0  0  0  0  0  0  0  0  0  0  0  0
   17.9291   62.8931   27.5417 O   0  0  0  0  0  0  0  0  0  0  0  0
   18.4520   60.7773   27.9484 O   0  0  0  0  0  0  0  0  0  0  0  0
   19.0812   60.1500   28.2459 H   0  0  0  0  0  0  0  0  0  0  0  0
 13 12  1  0
 13 11  1  0
 11  1  1  0
  1  2  1  0
  2  3  2  0
  3  4  1  0
  3  5  1  0
  5  6  2  0
  5  7  1  0
  7  8  1  0
  8  9  2  0
 13 16  1  0
 16 17  2  0
 16 18  1  0
  8  1  1  0
 12 14  1  0
 12 15  1  0
  7 10  1  0
 18 19  1  0
M  END
> <minimizedAffinity>
-5.35844

> <CNNscore>
0.6138304472

> <CNNaffinity>
5.1876239777

> <CNN_VS>
3.1843216419

> <CNNaffinity_variance>
0.2271317095

$$$$



 19 19  0  0  0  0  0  0  0  0999 V2000
   21.7308   61.7167   29.2381 N   0  0  0  0  0  0  0  0  0  0  0  0
   22.4003   61.4779   28.0522 C   0  0  0  0  0  0  0  0  0  0  0  0
   23.5688   60.8382   28.0260 C   0  0  0  0  0  0  0  0  0  0  0  0
   24.2367   60.6009   26.8825 F   0  0  0  0  0  0  0  0  0  0  0  0
   24.1724   60.3631   29.2851 C   0  0  0  0  0  0  0  0  0  0  0  0
   25.2474   59.7762   29.3260 O   0  0  0  0  0  0  0  0  0  0  0  0
   23.4395   60.6294   30.4126 N   0  0  0  0  0  0  0  0  0  0  0  0
   22.2394   61.2932   30.4645 C   0  0  0  0  0  0  0  0  0  0  0  0
   21.6825   61.4940   31.5409 O   0  0  0  0  0  0  0  0  0  0  0  0
   23.8101   60.3138   31.2683 H   0  0  0  0  0  0  0  0  0  0  0  0
   20.4360   62.4138   29.2199 C   0  0  0  0  0  0  0  0  0  0  0  0
   20.2705   62.4226   26.7501 N   0  0  0  0  0  0  0  0  0  0  0  0
   19.5548   62.0616   28.0021 C   0  0  0  0  0  0  0  0  0  0  0  0
   21.1717   61.9455   26.7240 H   0  0  0  0  0  0  0  0  0  0  0  0
   20.4190   63.4314   26.7221 H   0  0  0  0  0  0  0  0  0  0  0  0
   18.2042   62.7899   28.0192 C   0  0  0  0  0  0  0  0  0  0  0  0
   17.2016   62.4496   27.4053 O   0  0  0  0  0  0  0  0  0  0  0  0
   18.1346   63.8397   28.8587 O   0  0  0  0  0  0  0  0  0  0  0  0
   18.8951   64.1102   29.3346 H   0  0  0  0  0  0  0  0  0  0  0  0
 13 12  1  0
 13 11  1  0
 11  1  1  0
  1  2  1  0
  2  3  2  0
  3  4  1  0
  3  5  1  0
  5  6  2  0
  5  7  1  0
  7  8  1  0
  8  9  2  0
 13 16  1  0
 16 17  2  0
 16 18  1  0
  8  1  1  0
 12 14  1  0
 12 15  1  0
  7 10  1  0
 18 19  1  0
M  END
> <minimizedAffinity>
-8.02312

> <CNNscore>
0.6098964214

> <CNNaffinity>
5.3354830742

> <CNN_VS>
3.2540919781

> <CNNaffinity_variance>
0.0722028315

$$$$



 19 19  0  0  0  0  0  0  0  0999 V2000
   12.2305   60.7570   20.7240 N   0  0  0  0  0  0  0  0  0  0  0  0
   13.0573   61.4082   19.8274 C   0  0  0  0  0  0  0  0  0  0  0  0
   12.8768   61.3084   18.5110 C   0  0  0  0  0  0  0  0  0  0  0  0
   13.6737   61.9309   17.6236 F   0  0  0  0  0  0  0  0  0  0  0  0
   11.7688   60.4904   17.9833 C   0  0  0  0  0  0  0  0  0  0  0  0
   11.5569   60.3540   16.7840 O   0  0  0  0  0  0  0  0  0  0  0  0
   10.9902   59.8892   18.9381 N   0  0  0  0  0  0  0  0  0  0  0  0
   11.1620   59.9709   20.2972 C   0  0  0  0  0  0  0  0  0  0  0  0
   10.4107   59.3676   21.0594 O   0  0  0  0  0  0  0  0  0  0  0  0
   10.2342   59.3459   18.6176 H   0  0  0  0  0  0  0  0  0  0  0  0
   12.4567   60.9064   22.1695 C   0  0  0  0  0  0  0  0  0  0  0  0
   14.2241   60.6712   23.8866 N   0  0  0  0  0  0  0  0  0  0  0  0
   13.9202   61.2278   22.5420 C   0  0  0  0  0  0  0  0  0  0  0  0
   14.0376   59.6684   23.8895 H   0  0  0  0  0  0  0  0  0  0  0  0
   13.6372   61.1282   24.5844 H   0  0  0  0  0  0  0  0  0  0  0  0
   14.2079   62.7350   22.5616 C   0  0  0  0  0  0  0  0  0  0  0  0
   15.1836   63.2822   22.0652 O   0  0  0  0  0  0  0  0  0  0  0  0
   13.2384   63.4922   23.1079 O   0  0  0  0  0  0  0  0  0  0  0  0
   12.4863   63.0854   23.4911 H   0  0  0  0  0  0  0  0  0  0  0  0
 13 12  1  0
 13 11  1  0
 11  1  1  0
  1  2  1  0
  2  3  2  0
  3  4  1  0
  3  5  1  0
  5  6  2  0
  5  7  1  0
  7  8  1  0
  8  9  2  0
 13 16  1  0
 16 17  2  0
 16 18  1  0
  8  1  1  0
 12 14  1  0
 12 15  1  0
  7 10  1  0
 18 19  1  0
M  END
> <minimizedAffinity>
-5.84889

> <CNNscore>
0.5808423758

> <CNNaffinity>
3.4681746960

> <CNN_VS>
2.0144629478

> <CNNaffinity_variance>
0.4565943778

$$$$



 19 19  0  0  0  0  0  0  0  0999 V2000
   13.2088   54.0588   22.1901 N   0  0  0  0  0  0  0  0  0  0  0  0
   12.3522   53.8013   21.1359 C   0  0  0  0  0  0  0  0  0  0  0  0
   12.6014   54.2520   19.9070 C   0  0  0  0  0  0  0  0  0  0  0  0
   11.7774   54.0154   18.8701 F   0  0  0  0  0  0  0  0  0  0  0  0
   13.8198   55.0422   19.6494 C   0  0  0  0  0  0  0  0  0  0  0  0
   14.0992   55.4901   18.5435 O   0  0  0  0  0  0  0  0  0  0  0  0
   14.6202   55.2415   20.7444 N   0  0  0  0  0  0  0  0  0  0  0  0
   14.3799   54.7946   22.0195 C   0  0  0  0  0  0  0  0  0  0  0  0
   15.1619   55.0547   22.9306 O   0  0  0  0  0  0  0  0  0  0  0  0
   15.4480   55.7552   20.6022 H   0  0  0  0  0  0  0  0  0  0  0  0
   12.9027   53.5296   23.5277 C   0  0  0  0  0  0  0  0  0  0  0  0
   12.8067   51.0624   23.3505 N   0  0  0  0  0  0  0  0  0  0  0  0
   13.6197   52.2014   23.8524 C   0  0  0  0  0  0  0  0  0  0  0  0
   12.6424   51.1766   22.3504 H   0  0  0  0  0  0  0  0  0  0  0  0
   11.9129   51.0403   23.8416 H   0  0  0  0  0  0  0  0  0  0  0  0
   13.8538   52.0082   25.3566 C   0  0  0  0  0  0  0  0  0  0  0  0
   14.9402   52.0354   25.9195 O   0  0  0  0  0  0  0  0  0  0  0  0
   12.7353   51.8845   26.0951 O   0  0  0  0  0  0  0  0  0  0  0  0
   11.8974   51.8625   25.6762 H   0  0  0  0  0  0  0  0  0  0  0  0
 13 12  1  0
 13 11  1  0
 11  1  1  0
  1  2  1  0
  2  3  2  0
  3  4  1  0
  3  5  1  0
  5  6  2  0
  5  7  1  0
  7  8  1  0
  8  9  2  0
 13 16  1  0
 16 17  2  0
 16 18  1  0
  8  1  1  0
 12 14  1  0
 12 15  1  0
  7 10  1  0
 18 19  1  0
M  END
> <minimizedAffinity>
-4.39569

> <CNNscore>
0.4491975605

> <CNNaffinity>
3.1580390930

> <CNN_VS>
1.4185835123

> <CNNaffinity_variance>
0.3135352135

$$$$



 19 19  0  0  0  0  0  0  0  0999 V2000
   11.7061   59.5186   20.8594 N   0  0  0  0  0  0  0  0  0  0  0  0
   10.6106   60.3565   20.7629 C   0  0  0  0  0  0  0  0  0  0  0  0
    9.5843   60.0752   19.9611 C   0  0  0  0  0  0  0  0  0  0  0  0
    8.5123   60.8806   19.8507 F   0  0  0  0  0  0  0  0  0  0  0  0
    9.6015   58.8405   19.1545 C   0  0  0  0  0  0  0  0  0  0  0  0
    8.6917   58.5317   18.3938 O   0  0  0  0  0  0  0  0  0  0  0  0
   10.7170   58.0605   19.3177 N   0  0  0  0  0  0  0  0  0  0  0  0
   11.7886   58.3339   20.1303 C   0  0  0  0  0  0  0  0  0  0  0  0
   12.7475   57.5675   20.1788 O   0  0  0  0  0  0  0  0  0  0  0  0
   10.7528   57.2228   18.8019 H   0  0  0  0  0  0  0  0  0  0  0  0
   12.8108   59.8601   21.7681 C   0  0  0  0  0  0  0  0  0  0  0  0
   13.6632   61.9186   20.6893 N   0  0  0  0  0  0  0  0  0  0  0  0
   13.0413   61.3785   21.9269 C   0  0  0  0  0  0  0  0  0  0  0  0
   13.0705   61.7010   19.8882 H   0  0  0  0  0  0  0  0  0  0  0  0
   14.5817   61.4952   20.5577 H   0  0  0  0  0  0  0  0  0  0  0  0
   13.9491   61.7174   23.1169 C   0  0  0  0  0  0  0  0  0  0  0  0
   14.2932   62.8422   23.4550 O   0  0  0  0  0  0  0  0  0  0  0  0
   14.3073   60.6656   23.8767 O   0  0  0  0  0  0  0  0  0  0  0  0
   14.0502   59.7994   23.6288 H   0  0  0  0  0  0  0  0  0  0  0  0
 13 12  1  0
 13 11  1  0
 11  1  1  0
  1  2  1  0
  2  3  2  0
  3  4  1  0
  3  5  1  0
  5  6  2  0
  5  7  1  0
  7  8  1  0
  8  9  2  0
 13 16  1  0
 16 17  2  0
 16 18  1  0
  8  1  1  0
 12 14  1  0
 12 15  1  0
  7 10  1  0
 18 19  1  0
M  END
> <minimizedAffinity>
-5.83470

> <CNNscore>
0.4257685542

> <CNNaffinity>
3.6880018711

> <CNN_VS>
1.5702352524

> <CNNaffinity_variance>
0.4647686481

$$$$
