


 25 27  0  0  0  0  0  0  0  0999 V2000
   88.6706   97.3746  -44.5661 N   0  0  0  0  0  0  0  0  0  0  0  0
   88.6199   98.6525  -43.8517 C   0  0  0  0  0  0  0  0  0  0  0  0
   87.2619   98.8311  -43.1590 C   0  0  0  0  0  0  0  0  0  0  0  0
   86.0986   98.1903  -43.9472 C   0  0  0  0  0  0  0  0  0  0  0  0
   86.4366   98.1577  -45.4429 C   0  0  0  0  0  0  0  0  0  0  0  0
   87.7247   97.3582  -45.6942 C   0  0  0  0  0  0  0  0  0  0  0  0
   84.8063   98.8135  -43.5772 N   0  0  0  0  0  0  0  0  0  0  0  0
   83.7946   98.6375  -44.6289 C   0  0  0  0  0  0  0  0  0  0  0  0
   82.4210   99.1084  -44.1539 C   0  0  0  0  0  0  0  0  0  0  0  0
   82.4734  100.5562  -43.6832 C   0  0  0  0  0  0  0  0  0  0  0  0
   81.2235  100.9389  -43.1178 O   0  0  0  0  0  0  0  0  0  0  0  0
   83.5677  100.7343  -42.6398 C   0  0  0  0  0  0  0  0  0  0  0  0
   84.9067  100.2219  -43.1668 C   0  0  0  0  0  0  0  0  0  0  0  0
   81.0310  100.3786  -42.3497 H   0  0  0  0  0  0  0  0  0  0  0  0
   90.0317   97.0475  -45.0302 C   0  0  0  0  0  0  0  0  0  0  0  0
   90.9310   96.3524  -42.4028 O   0  0  0  0  0  0  0  0  0  0  0  0
   90.9140   95.3523  -43.3388 C   0  0  0  0  0  0  0  0  0  0  0  0
   91.3253   94.0538  -43.0097 C   0  0  0  0  0  0  0  0  0  0  0  0
   91.9168   93.6420  -41.2558 Br  0  0  0  0  0  0  0  0  0  0  0  0
   91.3077   93.0415  -43.9673 C   0  0  0  0  0  0  0  0  0  0  0  0
   90.8770   93.3350  -45.2579 C   0  0  0  0  0  0  0  0  0  0  0  0
   90.8539   92.0945  -46.4502 Cl  0  0  0  0  0  0  0  0  0  0  0  0
   90.4661   94.6246  -45.5936 C   0  0  0  0  0  0  0  0  0  0  0  0
   90.4725   95.6534  -44.6334 C   0  0  0  0  0  0  0  0  0  0  0  0
   91.2226   96.1729  -41.5306 H   0  0  0  0  0  0  0  0  0  0  0  0
 16 17  1  0
 17 18  2  0
 18 19  1  0
 18 20  1  0
 20 21  2  0
 21 22  1  0
 21 23  1  0
 23 24  2  0
 24 15  1  0
 15  1  1  0
  1  2  1  0
  2  3  1  0
  3  4  1  0
  4  7  1  0
  7  8  1  0
  8  9  1  0
  9 10  1  0
 10 11  1  0
 10 12  1  0
 12 13  1  0
  4  5  1  0
  5  6  1  0
 24 17  1  0
  6  1  1  0
 13  7  1  0
 16 25  1  0
 11 14  1  0
M  END
> <minimizedAffinity>
-6.39957

> <CNNscore>
0.8378765583

> <CNNaffinity>
4.1244993210

> <CNN_VS>
3.4558212757

> <CNNaffinity_variance>
1.3280142546

$$$$



 25 27  0  0  0  0  0  0  0  0999 V2000
   90.4022   98.1574  -44.6109 N   0  0  0  0  0  0  0  0  0  0  0  0
   91.5927   98.5956  -45.3435 C   0  0  0  0  0  0  0  0  0  0  0  0
   92.3605   99.6561  -44.5423 C   0  0  0  0  0  0  0  0  0  0  0  0
   91.4322  100.5615  -43.7035 C   0  0  0  0  0  0  0  0  0  0  0  0
   90.0494  100.6447  -44.3620 C   0  0  0  0  0  0  0  0  0  0  0  0
   89.4208   99.2483  -44.4900 C   0  0  0  0  0  0  0  0  0  0  0  0
   92.0935  101.8509  -43.3947 N   0  0  0  0  0  0  0  0  0  0  0  0
   92.3936  102.6159  -44.6134 C   0  0  0  0  0  0  0  0  0  0  0  0
   92.8912  104.0194  -44.2722 C   0  0  0  0  0  0  0  0  0  0  0  0
   94.1041  103.9596  -43.3525 C   0  0  0  0  0  0  0  0  0  0  0  0
   94.4734  105.2696  -42.9335 O   0  0  0  0  0  0  0  0  0  0  0  0
   93.7966  103.1122  -42.1256 C   0  0  0  0  0  0  0  0  0  0  0  0
   93.2806  101.7341  -42.5350 C   0  0  0  0  0  0  0  0  0  0  0  0
   93.7403  105.6702  -42.4406 H   0  0  0  0  0  0  0  0  0  0  0  0
   89.7780   96.9679  -45.2195 C   0  0  0  0  0  0  0  0  0  0  0  0
   90.7121   96.6224  -42.5356 O   0  0  0  0  0  0  0  0  0  0  0  0
   90.7958   95.5371  -43.3675 C   0  0  0  0  0  0  0  0  0  0  0  0
   91.3213   94.3211  -42.9107 C   0  0  0  0  0  0  0  0  0  0  0  0
   91.9313   94.1413  -41.1243 Br  0  0  0  0  0  0  0  0  0  0  0  0
   91.4056   93.2217  -43.7628 C   0  0  0  0  0  0  0  0  0  0  0  0
   90.9621   93.3449  -45.0764 C   0  0  0  0  0  0  0  0  0  0  0  0
   91.0641   91.9957  -46.1393 Cl  0  0  0  0  0  0  0  0  0  0  0  0
   90.4379   94.5516  -45.5388 C   0  0  0  0  0  0  0  0  0  0  0  0
   90.3409   95.6665  -44.6858 C   0  0  0  0  0  0  0  0  0  0  0  0
   91.0107   96.5578  -41.6498 H   0  0  0  0  0  0  0  0  0  0  0  0
 16 17  1  0
 17 18  2  0
 18 19  1  0
 18 20  1  0
 20 21  2  0
 21 22  1  0
 21 23  1  0
 23 24  2  0
 24 15  1  0
 15  1  1  0
  1  2  1  0
  2  3  1  0
  3  4  1  0
  4  7  1  0
  7  8  1  0
  8  9  1  0
  9 10  1  0
 10 11  1  0
 10 12  1  0
 12 13  1  0
  4  5  1  0
  5  6  1  0
 24 17  1  0
  6  1  1  0
 13  7  1  0
 16 25  1  0
 11 14  1  0
M  END
> <minimizedAffinity>
-5.49533

> <CNNscore>
0.8271072507

> <CNNaffinity>
4.4873881340

> <CNN_VS>
3.7115511894

> <CNNaffinity_variance>
0.6462466717

$$$$



 25 27  0  0  0  0  0  0  0  0999 V2000
   90.2574   97.7840  -43.9463 N   0  0  0  0  0  0  0  0  0  0  0  0
   91.1513   98.8231  -44.4632 C   0  0  0  0  0  0  0  0  0  0  0  0
   91.7094   99.6760  -43.3156 C   0  0  0  0  0  0  0  0  0  0  0  0
   90.7081   99.8432  -42.1517 C   0  0  0  0  0  0  0  0  0  0  0  0
   89.2718   99.7318  -42.6784 C   0  0  0  0  0  0  0  0  0  0  0  0
   89.0431   98.3722  -43.3570 C   0  0  0  0  0  0  0  0  0  0  0  0
   91.0255  101.0508  -41.3540 N   0  0  0  0  0  0  0  0  0  0  0  0
   92.0141  100.7669  -40.3040 C   0  0  0  0  0  0  0  0  0  0  0  0
   92.4766  102.0538  -39.6227 C   0  0  0  0  0  0  0  0  0  0  0  0
   91.2920  102.8303  -39.0620 C   0  0  0  0  0  0  0  0  0  0  0  0
   91.7210  104.0889  -38.5521 O   0  0  0  0  0  0  0  0  0  0  0  0
   90.2494  103.0615  -40.1471 C   0  0  0  0  0  0  0  0  0  0  0  0
   89.8498  101.7418  -40.8041 C   0  0  0  0  0  0  0  0  0  0  0  0
   92.1125  104.6118  -39.2691 H   0  0  0  0  0  0  0  0  0  0  0  0
   89.9010   96.7905  -44.9762 C   0  0  0  0  0  0  0  0  0  0  0  0
   90.9843   96.0360  -42.4361 O   0  0  0  0  0  0  0  0  0  0  0  0
   90.9466   95.0706  -43.4073 C   0  0  0  0  0  0  0  0  0  0  0  0
   91.4246   93.7780  -43.1537 C   0  0  0  0  0  0  0  0  0  0  0  0
   92.1371   93.3262  -41.4555 Br  0  0  0  0  0  0  0  0  0  0  0  0
   91.3854   92.8012  -44.1468 C   0  0  0  0  0  0  0  0  0  0  0  0
   90.8660   93.1244  -45.3971 C   0  0  0  0  0  0  0  0  0  0  0  0
   90.8153   91.9280  -46.6328 Cl  0  0  0  0  0  0  0  0  0  0  0  0
   90.3884   94.4084  -45.6576 C   0  0  0  0  0  0  0  0  0  0  0  0
   90.4159   95.4011  -44.6605 C   0  0  0  0  0  0  0  0  0  0  0  0
   91.3353   95.8365  -41.5905 H   0  0  0  0  0  0  0  0  0  0  0  0
 16 17  1  0
 17 18  2  0
 18 19  1  0
 18 20  1  0
 20 21  2  0
 21 22  1  0
 21 23  1  0
 23 24  2  0
 24 15  1  0
 15  1  1  0
  1  2  1  0
  2  3  1  0
  3  4  1  0
  4  7  1  0
  7  8  1  0
  8  9  1  0
  9 10  1  0
 10 11  1  0
 10 12  1  0
 12 13  1  0
  4  5  1  0
  5  6  1  0
 24 17  1  0
  6  1  1  0
 13  7  1  0
 16 25  1  0
 11 14  1  0
M  END
> <minimizedAffinity>
-6.76089

> <CNNscore>
0.7387427688

> <CNNaffinity>
4.2345032692

> <CNN_VS>
3.1282086372

> <CNNaffinity_variance>
1.5261911154

$$$$



 25 27  0  0  0  0  0  0  0  0999 V2000
   90.4013   98.0970  -43.6956 N   0  0  0  0  0  0  0  0  0  0  0  0
   91.0573   99.1887  -44.4193 C   0  0  0  0  0  0  0  0  0  0  0  0
   91.8135  100.1044  -43.4468 C   0  0  0  0  0  0  0  0  0  0  0  0
   91.1202  100.2207  -42.0717 C   0  0  0  0  0  0  0  0  0  0  0  0
   89.6114   99.9920  -42.2266 C   0  0  0  0  0  0  0  0  0  0  0  0
   89.3281   98.6054  -42.8253 C   0  0  0  0  0  0  0  0  0  0  0  0
   91.5302  101.4648  -41.3794 N   0  0  0  0  0  0  0  0  0  0  0  0
   92.7009  102.0838  -42.0172 C   0  0  0  0  0  0  0  0  0  0  0  0
   92.9893  103.4595  -41.4185 C   0  0  0  0  0  0  0  0  0  0  0  0
   93.1735  103.3697  -39.9090 C   0  0  0  0  0  0  0  0  0  0  0  0
   93.3054  104.6719  -39.3475 O   0  0  0  0  0  0  0  0  0  0  0  0
   91.9810  102.6705  -39.2710 C   0  0  0  0  0  0  0  0  0  0  0  0
   91.7315  101.3156  -39.9305 C   0  0  0  0  0  0  0  0  0  0  0  0
   92.5000  105.1830  -39.5235 H   0  0  0  0  0  0  0  0  0  0  0  0
   89.8798   97.0585  -44.6037 C   0  0  0  0  0  0  0  0  0  0  0  0
   89.8776   94.9139  -46.4999 O   0  0  0  0  0  0  0  0  0  0  0  0
   90.4248   94.6562  -45.2706 C   0  0  0  0  0  0  0  0  0  0  0  0
   90.9517   93.3931  -44.9697 C   0  0  0  0  0  0  0  0  0  0  0  0
   90.9244   92.0019  -46.2579 Br  0  0  0  0  0  0  0  0  0  0  0  0
   91.5048   93.1371  -43.7166 C   0  0  0  0  0  0  0  0  0  0  0  0
   91.5275   94.1517  -42.7640 C   0  0  0  0  0  0  0  0  0  0  0  0
   92.2045   93.8469  -41.2118 Cl  0  0  0  0  0  0  0  0  0  0  0  0
   91.0050   95.4113  -43.0555 C   0  0  0  0  0  0  0  0  0  0  0  0
   90.4505   95.6841  -44.3197 C   0  0  0  0  0  0  0  0  0  0  0  0
   89.8501   94.2405  -47.1509 H   0  0  0  0  0  0  0  0  0  0  0  0
 16 17  1  0
 17 18  2  0
 18 19  1  0
 18 20  1  0
 20 21  2  0
 21 22  1  0
 21 23  1  0
 23 24  2  0
 24 15  1  0
 15  1  1  0
  1  2  1  0
  2  3  1  0
  3  4  1  0
  4  7  1  0
  7  8  1  0
  8  9  1  0
  9 10  1  0
 10 11  1  0
 10 12  1  0
 12 13  1  0
  4  5  1  0
  5  6  1  0
 24 17  1  0
  6  1  1  0
 13  7  1  0
 16 25  1  0
 11 14  1  0
M  END
> <minimizedAffinity>
-6.18493

> <CNNscore>
0.6013185382

> <CNNaffinity>
4.7744293213

> <CNN_VS>
2.8709528446

> <CNNaffinity_variance>
0.8771736026

$$$$



 25 27  0  0  0  0  0  0  0  0999 V2000
   90.5551  100.6847  -45.0378 N   0  0  0  0  0  0  0  0  0  0  0  0
   90.3182   99.7608  -43.9259 C   0  0  0  0  0  0  0  0  0  0  0  0
   89.0975   98.8746  -44.2101 C   0  0  0  0  0  0  0  0  0  0  0  0
   88.0077   99.6008  -45.0288 C   0  0  0  0  0  0  0  0  0  0  0  0
   88.0812  101.1112  -44.7720 C   0  0  0  0  0  0  0  0  0  0  0  0
   89.4622  101.6639  -45.1574 C   0  0  0  0  0  0  0  0  0  0  0  0
   86.6860   98.9620  -44.8283 N   0  0  0  0  0  0  0  0  0  0  0  0
   85.9990   99.4901  -43.6411 C   0  0  0  0  0  0  0  0  0  0  0  0
   84.5648   98.9699  -43.5596 C   0  0  0  0  0  0  0  0  0  0  0  0
   84.5352   97.4469  -43.5753 C   0  0  0  0  0  0  0  0  0  0  0  0
   83.1919   96.9779  -43.6366 O   0  0  0  0  0  0  0  0  0  0  0  0
   85.3041   96.9150  -44.7770 C   0  0  0  0  0  0  0  0  0  0  0  0
   86.7179   97.4920  -44.8137 C   0  0  0  0  0  0  0  0  0  0  0  0
   82.7752   97.2963  -44.4527 H   0  0  0  0  0  0  0  0  0  0  0  0
   91.8541  101.3736  -44.9248 C   0  0  0  0  0  0  0  0  0  0  0  0
   92.2605   99.5884  -47.1256 O   0  0  0  0  0  0  0  0  0  0  0  0
   92.6054  100.9003  -47.3174 C   0  0  0  0  0  0  0  0  0  0  0  0
   93.1358  101.3318  -48.5406 C   0  0  0  0  0  0  0  0  0  0  0  0
   93.3902  100.1108  -49.9689 Br  0  0  0  0  0  0  0  0  0  0  0  0
   93.4867  102.6673  -48.7283 C   0  0  0  0  0  0  0  0  0  0  0  0
   93.3052  103.5703  -47.6848 C   0  0  0  0  0  0  0  0  0  0  0  0
   93.7379  105.2214  -47.9030 Cl  0  0  0  0  0  0  0  0  0  0  0  0
   92.7782  103.1490  -46.4644 C   0  0  0  0  0  0  0  0  0  0  0  0
   92.4133  101.8046  -46.2653 C   0  0  0  0  0  0  0  0  0  0  0  0
   92.3807   98.9666  -47.8161 H   0  0  0  0  0  0  0  0  0  0  0  0
 16 17  1  0
 17 18  2  0
 18 19  1  0
 18 20  1  0
 20 21  2  0
 21 22  1  0
 21 23  1  0
 23 24  2  0
 24 15  1  0
 15  1  1  0
  1  2  1  0
  2  3  1  0
  3  4  1  0
  4  7  1  0
  7  8  1  0
  8  9  1  0
  9 10  1  0
 10 11  1  0
 10 12  1  0
 12 13  1  0
  4  5  1  0
  5  6  1  0
 24 17  1  0
  6  1  1  0
 13  7  1  0
 16 25  1  0
 11 14  1  0
M  END
> <minimizedAffinity>
-4.24983

> <CNNscore>
0.4471126199

> <CNNaffinity>
4.4236845970

> <CNN_VS>
1.9778852463

> <CNNaffinity_variance>
0.0281322505

$$$$



 25 27  0  0  0  0  0  0  0  0999 V2000
   88.9336   97.5888  -44.5772 N   0  0  0  0  0  0  0  0  0  0  0  0
   88.3841   98.5056  -43.5754 C   0  0  0  0  0  0  0  0  0  0  0  0
   86.8504   98.5154  -43.6351 C   0  0  0  0  0  0  0  0  0  0  0  0
   86.3052   98.3082  -45.0652 C   0  0  0  0  0  0  0  0  0  0  0  0
   87.3270   98.8127  -46.0918 C   0  0  0  0  0  0  0  0  0  0  0  0
   88.6636   98.0692  -45.9425 C   0  0  0  0  0  0  0  0  0  0  0  0
   84.9295   98.8446  -45.1865 N   0  0  0  0  0  0  0  0  0  0  0  0
   84.8361  100.2249  -44.6898 C   0  0  0  0  0  0  0  0  0  0  0  0
   83.4681  100.8294  -45.0014 C   0  0  0  0  0  0  0  0  0  0  0  0
   82.3484   99.9673  -44.4324 C   0  0  0  0  0  0  0  0  0  0  0  0
   81.0801  100.4665  -44.8452 O   0  0  0  0  0  0  0  0  0  0  0  0
   82.4957   98.5280  -44.9064 C   0  0  0  0  0  0  0  0  0  0  0  0
   83.8906   97.9933  -44.5882 C   0  0  0  0  0  0  0  0  0  0  0  0
   81.0208  100.4381  -45.8130 H   0  0  0  0  0  0  0  0  0  0  0  0
   90.3777   97.3559  -44.3891 C   0  0  0  0  0  0  0  0  0  0  0  0
   90.2697   95.2719  -46.3489 O   0  0  0  0  0  0  0  0  0  0  0  0
   90.6379   94.9128  -45.0792 C   0  0  0  0  0  0  0  0  0  0  0  0
   90.9410   93.5801  -44.7694 C   0  0  0  0  0  0  0  0  0  0  0  0
   90.8518   92.2333  -46.1011 Br  0  0  0  0  0  0  0  0  0  0  0  0
   91.3127   93.2212  -43.4752 C   0  0  0  0  0  0  0  0  0  0  0  0
   91.3790   94.2028  -42.4907 C   0  0  0  0  0  0  0  0  0  0  0  0
   91.8334   93.7717  -40.8880 Cl  0  0  0  0  0  0  0  0  0  0  0  0
   91.0789   95.5312  -42.7907 C   0  0  0  0  0  0  0  0  0  0  0  0
   90.7094   95.9071  -44.0955 C   0  0  0  0  0  0  0  0  0  0  0  0
   90.2155   94.6227  -47.0223 H   0  0  0  0  0  0  0  0  0  0  0  0
 16 17  1  0
 17 18  2  0
 18 19  1  0
 18 20  1  0
 20 21  2  0
 21 22  1  0
 21 23  1  0
 23 24  2  0
 24 15  1  0
 15  1  1  0
  1  2  1  0
  2  3  1  0
  3  4  1  0
  4  7  1  0
  7  8  1  0
  8  9  1  0
  9 10  1  0
 10 11  1  0
 10 12  1  0
 12 13  1  0
  4  5  1  0
  5  6  1  0
 24 17  1  0
  6  1  1  0
 13  7  1  0
 16 25  1  0
 11 14  1  0
M  END
> <minimizedAffinity>
-5.57060

> <CNNscore>
0.4347126484

> <CNNaffinity>
4.0061569214

> <CNN_VS>
1.7415270805

> <CNNaffinity_variance>
1.2254127264

$$$$



 25 27  0  0  0  0  0  0  0  0999 V2000
   88.4358  100.8148  -43.4163 N   0  0  0  0  0  0  0  0  0  0  0  0
   89.1911  101.9911  -43.8542 C   0  0  0  0  0  0  0  0  0  0  0  0
   90.6763  101.8441  -43.4957 C   0  0  0  0  0  0  0  0  0  0  0  0
   90.9011  101.0643  -42.1818 C   0  0  0  0  0  0  0  0  0  0  0  0
   89.6848  101.2293  -41.2620 C   0  0  0  0  0  0  0  0  0  0  0  0
   88.4085  100.7170  -41.9475 C   0  0  0  0  0  0  0  0  0  0  0  0
   92.2209  101.3930  -41.5942 N   0  0  0  0  0  0  0  0  0  0  0  0
   92.1445  101.5510  -40.1348 C   0  0  0  0  0  0  0  0  0  0  0  0
   93.5377  101.6928  -39.5241 C   0  0  0  0  0  0  0  0  0  0  0  0
   94.2967  102.8506  -40.1597 C   0  0  0  0  0  0  0  0  0  0  0  0
   95.6374  102.8867  -39.6807 O   0  0  0  0  0  0  0  0  0  0  0  0
   94.3128  102.7044  -41.6751 C   0  0  0  0  0  0  0  0  0  0  0  0
   92.8946  102.5414  -42.2183 C   0  0  0  0  0  0  0  0  0  0  0  0
   96.0887  102.0622  -39.9202 H   0  0  0  0  0  0  0  0  0  0  0  0
   87.0648  100.7970  -43.9594 C   0  0  0  0  0  0  0  0  0  0  0  0
   84.3655   99.8482  -43.8653 O   0  0  0  0  0  0  0  0  0  0  0  0
   85.3077   98.9930  -44.3728 C   0  0  0  0  0  0  0  0  0  0  0  0
   84.9502   97.7132  -44.8179 C   0  0  0  0  0  0  0  0  0  0  0  0
   83.1487   97.1276  -44.7321 Br  0  0  0  0  0  0  0  0  0  0  0  0
   85.9140   96.8473  -45.3311 C   0  0  0  0  0  0  0  0  0  0  0  0
   87.2392   97.2679  -45.3961 C   0  0  0  0  0  0  0  0  0  0  0  0
   88.4391   96.2067  -46.0244 Cl  0  0  0  0  0  0  0  0  0  0  0  0
   87.6032   98.5398  -44.9551 C   0  0  0  0  0  0  0  0  0  0  0  0
   86.6379   99.4257  -44.4418 C   0  0  0  0  0  0  0  0  0  0  0  0
   83.4697   99.5790  -43.8100 H   0  0  0  0  0  0  0  0  0  0  0  0
 16 17  1  0
 17 18  2  0
 18 19  1  0
 18 20  1  0
 20 21  2  0
 21 22  1  0
 21 23  1  0
 23 24  2  0
 24 15  1  0
 15  1  1  0
  1  2  1  0
  2  3  1  0
  3  4  1  0
  4  7  1  0
  7  8  1  0
  8  9  1  0
  9 10  1  0
 10 11  1  0
 10 12  1  0
 12 13  1  0
  4  5  1  0
  5  6  1  0
 24 17  1  0
  6  1  1  0
 13  7  1  0
 16 25  1  0
 11 14  1  0
M  END
> <minimizedAffinity>
-5.01816

> <CNNscore>
0.3678992689

> <CNNaffinity>
3.8884067535

> <CNN_VS>
1.4305419922

> <CNNaffinity_variance>
0.8663849831

$$$$



 25 27  0  0  0  0  0  0  0  0999 V2000
   88.3008   99.1706  -43.9042 N   0  0  0  0  0  0  0  0  0  0  0  0
   88.9639   99.3102  -42.6055 C   0  0  0  0  0  0  0  0  0  0  0  0
   88.5323  100.6113  -41.9151 C   0  0  0  0  0  0  0  0  0  0  0  0
   88.2533  101.7555  -42.9142 C   0  0  0  0  0  0  0  0  0  0  0  0
   89.0865  101.5531  -44.1860 C   0  0  0  0  0  0  0  0  0  0  0  0
   88.7551  100.2061  -44.8471 C   0  0  0  0  0  0  0  0  0  0  0  0
   88.3740  103.0746  -42.2505 N   0  0  0  0  0  0  0  0  0  0  0  0
   87.1031  103.8127  -42.2677 C   0  0  0  0  0  0  0  0  0  0  0  0
   87.1898  105.0758  -41.4127 C   0  0  0  0  0  0  0  0  0  0  0  0
   88.3426  105.9628  -41.8653 C   0  0  0  0  0  0  0  0  0  0  0  0
   88.4971  107.0659  -40.9778 O   0  0  0  0  0  0  0  0  0  0  0  0
   89.6400  105.1670  -41.9017 C   0  0  0  0  0  0  0  0  0  0  0  0
   89.4786  103.9069  -42.7498 C   0  0  0  0  0  0  0  0  0  0  0  0
   88.6997  106.7386  -40.0875 H   0  0  0  0  0  0  0  0  0  0  0  0
   88.4863   97.8278  -44.4850 C   0  0  0  0  0  0  0  0  0  0  0  0
   85.8055   97.9803  -43.4925 O   0  0  0  0  0  0  0  0  0  0  0  0
   85.9781   97.4289  -44.7346 C   0  0  0  0  0  0  0  0  0  0  0  0
   84.8815   96.9616  -45.4714 C   0  0  0  0  0  0  0  0  0  0  0  0
   83.1237   97.0808  -44.7702 Br  0  0  0  0  0  0  0  0  0  0  0  0
   85.0642   96.3997  -46.7334 C   0  0  0  0  0  0  0  0  0  0  0  0
   86.3512   96.3063  -47.2554 C   0  0  0  0  0  0  0  0  0  0  0  0
   86.5903   95.6112  -48.8112 Cl  0  0  0  0  0  0  0  0  0  0  0  0
   87.4477   96.7688  -46.5285 C   0  0  0  0  0  0  0  0  0  0  0  0
   87.2751   97.3448  -45.2563 C   0  0  0  0  0  0  0  0  0  0  0  0
   84.9463   98.0464  -43.1244 H   0  0  0  0  0  0  0  0  0  0  0  0
 16 17  1  0
 17 18  2  0
 18 19  1  0
 18 20  1  0
 20 21  2  0
 21 22  1  0
 21 23  1  0
 23 24  2  0
 24 15  1  0
 15  1  1  0
  1  2  1  0
  2  3  1  0
  3  4  1  0
  4  7  1  0
  7  8  1  0
  8  9  1  0
  9 10  1  0
 10 11  1  0
 10 12  1  0
 12 13  1  0
  4  5  1  0
  5  6  1  0
 24 17  1  0
  6  1  1  0
 13  7  1  0
 16 25  1  0
 11 14  1  0
M  END
> <minimizedAffinity>
-3.48659

> <CNNscore>
0.3599912822

> <CNNaffinity>
4.0065131187

> <CNN_VS>
1.4423097372

> <CNNaffinity_variance>
0.4077103138

$$$$



 25 27  0  0  0  0  0  0  0  0999 V2000
   88.8298   99.2673  -44.3644 N   0  0  0  0  0  0  0  0  0  0  0  0
   87.8078   98.7192  -45.2594 C   0  0  0  0  0  0  0  0  0  0  0  0
   86.4671   99.4375  -45.0533 C   0  0  0  0  0  0  0  0  0  0  0  0
   86.2433   99.8801  -43.5907 C   0  0  0  0  0  0  0  0  0  0  0  0
   87.0121   98.9528  -42.6411 C   0  0  0  0  0  0  0  0  0  0  0  0
   88.5159   98.9739  -42.9562 C   0  0  0  0  0  0  0  0  0  0  0  0
   84.7996  100.0598  -43.3105 N   0  0  0  0  0  0  0  0  0  0  0  0
   83.9779   99.8212  -44.5057 C   0  0  0  0  0  0  0  0  0  0  0  0
   82.4903   99.8157  -44.1574 C   0  0  0  0  0  0  0  0  0  0  0  0
   82.0869  101.1124  -43.4671 C   0  0  0  0  0  0  0  0  0  0  0  0
   80.7345  101.0394  -43.0268 O   0  0  0  0  0  0  0  0  0  0  0  0
   82.9877  101.3764  -42.2684 C   0  0  0  0  0  0  0  0  0  0  0  0
   84.4586  101.3430  -42.6788 C   0  0  0  0  0  0  0  0  0  0  0  0
   80.6411  100.3157  -42.3878 H   0  0  0  0  0  0  0  0  0  0  0  0
   90.1831   98.7879  -44.7013 C   0  0  0  0  0  0  0  0  0  0  0  0
   90.1368   96.2388  -46.0034 O   0  0  0  0  0  0  0  0  0  0  0  0
   90.4956   96.2551  -44.6814 C   0  0  0  0  0  0  0  0  0  0  0  0
   90.8187   95.0680  -44.0104 C   0  0  0  0  0  0  0  0  0  0  0  0
   90.7701   93.4020  -44.9147 Br  0  0  0  0  0  0  0  0  0  0  0  0
   91.1806   95.0914  -42.6649 C   0  0  0  0  0  0  0  0  0  0  0  0
   91.2171   96.3096  -41.9925 C   0  0  0  0  0  0  0  0  0  0  0  0
   91.6592   96.3512  -40.3301 Cl  0  0  0  0  0  0  0  0  0  0  0  0
   90.8970   97.4953  -42.6530 C   0  0  0  0  0  0  0  0  0  0  0  0
   90.5371   97.4853  -44.0133 C   0  0  0  0  0  0  0  0  0  0  0  0
   90.1026   95.4267  -46.4696 H   0  0  0  0  0  0  0  0  0  0  0  0
 16 17  1  0
 17 18  2  0
 18 19  1  0
 18 20  1  0
 20 21  2  0
 21 22  1  0
 21 23  1  0
 23 24  2  0
 24 15  1  0
 15  1  1  0
  1  2  1  0
  2  3  1  0
  3  4  1  0
  4  7  1  0
  7  8  1  0
  8  9  1  0
  9 10  1  0
 10 11  1  0
 10 12  1  0
 12 13  1  0
  4  5  1  0
  5  6  1  0
 24 17  1  0
  6  1  1  0
 13  7  1  0
 16 25  1  0
 11 14  1  0
M  END
> <minimizedAffinity>
-5.40864

> <CNNscore>
0.3441383243

> <CNNaffinity>
4.2305436134

> <CNN_VS>
1.4558922052

> <CNNaffinity_variance>
0.7552673817

$$$$
