


 29 30  0  0  0  0  0  0  0  0999 V2000
   33.2700   23.4623   27.7125 C   0  0  0  0  0  0  0  0  0  0  0  0
   32.6674   22.2041   27.9757 O   0  0  0  0  0  0  0  0  0  0  0  0
   31.7650   21.7634   26.9418 C   0  0  0  0  0  0  0  0  0  0  0  0
   32.0792   22.3501   25.5402 C   0  0  0  0  0  0  0  0  0  0  0  0
   33.5957   22.5445   25.3417 C   0  0  0  0  0  0  0  0  0  0  0  0
   34.2169   23.3967   26.4823 C   0  0  0  0  0  0  0  0  0  0  0  0
   35.9998   24.1351   30.1490 C   0  0  0  0  0  0  0  0  0  0  0  0
   35.3029   23.7333   29.0786 C   0  0  0  0  0  0  0  0  0  0  0  0
   33.9316   23.9018   28.9576 N   0  0  0  0  0  0  0  0  0  0  0  0
   33.1925   24.5340   29.9486 C   0  0  0  0  0  0  0  0  0  0  0  0
   31.9787   24.7243   29.9244 O   0  0  0  0  0  0  0  0  0  0  0  0
   33.9072   24.9487   31.0433 N   0  0  0  0  0  0  0  0  0  0  0  0
   35.2501   24.7962   31.2480 C   0  0  0  0  0  0  0  0  0  0  0  0
   35.7859   25.1825   32.2826 O   0  0  0  0  0  0  0  0  0  0  0  0
   33.4009   25.4031   31.7550 H   0  0  0  0  0  0  0  0  0  0  0  0
   38.5944   23.7710   30.2936 C   0  0  0  0  0  0  0  0  0  0  0  0
   37.4066   23.9391   30.2269 C   0  0  0  0  0  0  0  0  0  0  0  0
   40.0460   23.5552   30.3652 C   0  0  0  0  0  0  0  0  0  0  0  0
   42.0590   23.5081   31.8802 C   0  0  0  0  0  0  0  0  0  0  0  0
   40.5644   23.7719   31.7857 C   0  0  0  0  0  0  0  0  0  0  0  0
   31.3854   23.6110   25.4336 O   0  0  0  0  0  0  0  0  0  0  0  0
   30.0090   23.5357   25.7823 C   0  0  0  0  0  0  0  0  0  0  0  0
   34.1775   21.2309   25.2446 O   0  0  0  0  0  0  0  0  0  0  0  0
   33.4118   20.2131   25.8768 C   0  0  0  0  0  0  0  0  0  0  0  0
   34.4514   24.7530   26.0337 O   0  0  0  0  0  0  0  0  0  0  0  0
   35.4299   24.8351   25.0057 C   0  0  0  0  0  0  0  0  0  0  0  0
   31.8067   20.2247   26.9405 C   0  0  0  0  0  0  0  0  0  0  0  0
   32.2438   19.7643   28.2289 O   0  0  0  0  0  0  0  0  0  0  0  0
   31.6380   18.5267   28.5744 C   0  0  0  0  0  0  0  0  0  0  0  0
 19 20  1  0
 20 18  1  0
 18 16  1  0
 16 17  3  0
 17  7  1  0
  7  8  2  0
  8  9  1  0
  1  9  1  0
  1  2  1  0
  2  3  1  0
  3 27  1  0
 27 28  1  0
 28 29  1  0
  3  4  1  0
  4 21  1  0
 21 22  1  0
  4  5  1  0
  5 23  1  0
 23 24  1  0
  5  6  1  0
  6 25  1  0
 25 26  1  0
  9 10  1  0
 10 11  2  0
 10 12  1  0
 12 13  1  0
 13 14  2  0
 13  7  1  0
  6  1  1  0
 12 15  1  0
M  END
> <minimizedAffinity>
-8.60342

> <CNNscore>
0.5007654428

> <CNNaffinity>
4.6547541618

> <CNN_VS>
2.3309400082

> <CNNaffinity_variance>
1.2673821449

$$$$



 29 30  0  0  0  0  0  0  0  0999 V2000
   33.5515   23.3818   27.7300 C   0  0  0  0  0  0  0  0  0  0  0  0
   32.4885   24.2678   27.4128 O   0  0  0  0  0  0  0  0  0  0  0  0
   32.0047   24.1362   26.0616 C   0  0  0  0  0  0  0  0  0  0  0  0
   32.2388   22.7324   25.4433 C   0  0  0  0  0  0  0  0  0  0  0  0
   32.1366   21.6258   26.5120 C   0  0  0  0  0  0  0  0  0  0  0  0
   33.0856   21.8997   27.7110 C   0  0  0  0  0  0  0  0  0  0  0  0
   36.0985   24.1351   30.3350 C   0  0  0  0  0  0  0  0  0  0  0  0
   35.4868   23.7285   29.2155 C   0  0  0  0  0  0  0  0  0  0  0  0
   34.1162   23.8180   29.0230 N   0  0  0  0  0  0  0  0  0  0  0  0
   33.2867   24.3705   29.9899 C   0  0  0  0  0  0  0  0  0  0  0  0
   32.0666   24.4880   29.9035 O   0  0  0  0  0  0  0  0  0  0  0  0
   33.9141   24.7902   31.1350 N   0  0  0  0  0  0  0  0  0  0  0  0
   35.2508   24.7121   31.4100 C   0  0  0  0  0  0  0  0  0  0  0  0
   35.7049   25.0948   32.4843 O   0  0  0  0  0  0  0  0  0  0  0  0
   33.3429   25.1889   31.8307 H   0  0  0  0  0  0  0  0  0  0  0  0
   38.6995   23.9287   30.6140 C   0  0  0  0  0  0  0  0  0  0  0  0
   37.5085   24.0218   30.4856 C   0  0  0  0  0  0  0  0  0  0  0  0
   40.1543   23.8152   30.7853 C   0  0  0  0  0  0  0  0  0  0  0  0
   42.0184   23.5347   32.4574 C   0  0  0  0  0  0  0  0  0  0  0  0
   40.5344   23.8046   32.2648 C   0  0  0  0  0  0  0  0  0  0  0  0
   33.5495   22.7386   24.8397 O   0  0  0  0  0  0  0  0  0  0  0  0
   34.2509   23.9634   25.0122 C   0  0  0  0  0  0  0  0  0  0  0  0
   30.7526   21.5455   26.9012 O   0  0  0  0  0  0  0  0  0  0  0  0
   30.2211   20.2270   26.8722 C   0  0  0  0  0  0  0  0  0  0  0  0
   34.2669   21.0673   27.6248 O   0  0  0  0  0  0  0  0  0  0  0  0
   34.1453   20.0312   26.6591 C   0  0  0  0  0  0  0  0  0  0  0  0
   30.5115   24.5094   26.0849 C   0  0  0  0  0  0  0  0  0  0  0  0
   29.9031   24.0945   24.8517 O   0  0  0  0  0  0  0  0  0  0  0  0
   28.5758   24.5865   24.7328 C   0  0  0  0  0  0  0  0  0  0  0  0
 19 20  1  0
 20 18  1  0
 18 16  1  0
 16 17  3  0
 17  7  1  0
  7  8  2  0
  8  9  1  0
  1  9  1  0
  1  2  1  0
  2  3  1  0
  3 27  1  0
 27 28  1  0
 28 29  1  0
  3  4  1  0
  4 21  1  0
 21 22  1  0
  4  5  1  0
  5 23  1  0
 23 24  1  0
  5  6  1  0
  6 25  1  0
 25 26  1  0
  9 10  1  0
 10 11  2  0
 10 12  1  0
 12 13  1  0
 13 14  2  0
 13  7  1  0
  6  1  1  0
 12 15  1  0
M  END
> <minimizedAffinity>
-8.12297

> <CNNscore>
0.4859453440

> <CNNaffinity>
4.6009593010

> <CNN_VS>
2.2358148098

> <CNNaffinity_variance>
1.1745280027

$$$$



 29 30  0  0  0  0  0  0  0  0999 V2000
   33.6845   23.0400   26.9956 C   0  0  0  0  0  0  0  0  0  0  0  0
   32.5348   23.8655   27.1066 O   0  0  0  0  0  0  0  0  0  0  0  0
   31.5407   23.6183   26.0927 C   0  0  0  0  0  0  0  0  0  0  0  0
   31.5799   22.1806   25.5103 C   0  0  0  0  0  0  0  0  0  0  0  0
   31.9992   21.1539   26.5813 C   0  0  0  0  0  0  0  0  0  0  0  0
   33.3432   21.5464   27.2543 C   0  0  0  0  0  0  0  0  0  0  0  0
   35.2312   24.2918   30.1391 C   0  0  0  0  0  0  0  0  0  0  0  0
   34.3643   23.8337   29.2272 C   0  0  0  0  0  0  0  0  0  0  0  0
   34.7092   23.5890   27.9064 N   0  0  0  0  0  0  0  0  0  0  0  0
   36.0068   23.7838   27.4520 C   0  0  0  0  0  0  0  0  0  0  0  0
   36.3986   23.5937   26.3029 O   0  0  0  0  0  0  0  0  0  0  0  0
   36.8954   24.2496   28.3872 N   0  0  0  0  0  0  0  0  0  0  0  0
   36.6274   24.5390   29.6960 C   0  0  0  0  0  0  0  0  0  0  0  0
   37.4962   24.9794   30.4431 O   0  0  0  0  0  0  0  0  0  0  0  0
   37.8217   24.3898   28.0848 H   0  0  0  0  0  0  0  0  0  0  0  0
   34.4903   24.7304   32.6179 C   0  0  0  0  0  0  0  0  0  0  0  0
   34.8290   24.5282   31.4830 C   0  0  0  0  0  0  0  0  0  0  0  0
   34.0669   24.9876   34.0011 C   0  0  0  0  0  0  0  0  0  0  0  0
   36.3646   25.9815   34.2878 C   0  0  0  0  0  0  0  0  0  0  0  0
   34.8882   26.1133   34.6270 C   0  0  0  0  0  0  0  0  0  0  0  0
   32.5169   22.1839   24.4128 O   0  0  0  0  0  0  0  0  0  0  0  0
   33.4496   23.2560   24.4625 C   0  0  0  0  0  0  0  0  0  0  0  0
   30.9109   21.0586   27.5194 O   0  0  0  0  0  0  0  0  0  0  0  0
   30.2104   19.8224   27.4660 C   0  0  0  0  0  0  0  0  0  0  0  0
   34.4289   20.7482   26.7254 O   0  0  0  0  0  0  0  0  0  0  0  0
   33.9805   19.5744   26.0603 C   0  0  0  0  0  0  0  0  0  0  0  0
   30.1736   23.9443   26.7205 C   0  0  0  0  0  0  0  0  0  0  0  0
   30.1220   25.3446   27.0356 O   0  0  0  0  0  0  0  0  0  0  0  0
   28.8438   25.7227   27.5268 C   0  0  0  0  0  0  0  0  0  0  0  0
 19 20  1  0
 20 18  1  0
 18 16  1  0
 16 17  3  0
 17  7  1  0
  7  8  2  0
  8  9  1  0
  1  9  1  0
  1  2  1  0
  2  3  1  0
  3 27  1  0
 27 28  1  0
 28 29  1  0
  3  4  1  0
  4 21  1  0
 21 22  1  0
  4  5  1  0
  5 23  1  0
 23 24  1  0
  5  6  1  0
  6 25  1  0
 25 26  1  0
  9 10  1  0
 10 11  2  0
 10 12  1  0
 12 13  1  0
 13 14  2  0
 13  7  1  0
  6  1  1  0
 12 15  1  0
M  END
> <minimizedAffinity>
-1.92320

> <CNNscore>
0.3266694546

> <CNNaffinity>
4.0877203941

> <CNN_VS>
1.3353333473

> <CNNaffinity_variance>
1.0274666548

$$$$



 29 30  0  0  0  0  0  0  0  0999 V2000
   43.4293   30.7760   18.0741 C   0  0  0  0  0  0  0  0  0  0  0  0
   43.6517   30.5941   19.4644 O   0  0  0  0  0  0  0  0  0  0  0  0
   44.3772   31.6744   20.0840 C   0  0  0  0  0  0  0  0  0  0  0  0
   44.2247   33.0350   19.3539 C   0  0  0  0  0  0  0  0  0  0  0  0
   42.8240   33.1797   18.7261 C   0  0  0  0  0  0  0  0  0  0  0  0
   42.4867   31.9802   17.7985 C   0  0  0  0  0  0  0  0  0  0  0  0
   43.0750   27.0994   17.6295 C   0  0  0  0  0  0  0  0  0  0  0  0
   43.4814   28.3129   18.0232 C   0  0  0  0  0  0  0  0  0  0  0  0
   42.9370   29.4918   17.5360 N   0  0  0  0  0  0  0  0  0  0  0  0
   41.8997   29.4797   16.6130 C   0  0  0  0  0  0  0  0  0  0  0  0
   41.3607   30.4726   16.1294 O   0  0  0  0  0  0  0  0  0  0  0  0
   41.4812   28.2365   16.2126 N   0  0  0  0  0  0  0  0  0  0  0  0
   41.9829   27.0335   16.6245 C   0  0  0  0  0  0  0  0  0  0  0  0
   41.5501   25.9750   16.1783 O   0  0  0  0  0  0  0  0  0  0  0  0
   40.7434   28.2075   15.5614 H   0  0  0  0  0  0  0  0  0  0  0  0
   44.1619   24.9192   18.6047 C   0  0  0  0  0  0  0  0  0  0  0  0
   43.6655   25.9183   18.1584 C   0  0  0  0  0  0  0  0  0  0  0  0
   44.7680   23.6914   19.1374 C   0  0  0  0  0  0  0  0  0  0  0  0
   44.2588   21.4744   20.2213 C   0  0  0  0  0  0  0  0  0  0  0  0
   43.7095   22.6176   19.3827 C   0  0  0  0  0  0  0  0  0  0  0  0
   45.2476   33.0979   18.3380 O   0  0  0  0  0  0  0  0  0  0  0  0
   46.3269   32.1989   18.5591 C   0  0  0  0  0  0  0  0  0  0  0  0
   41.8907   33.3260   19.8128 O   0  0  0  0  0  0  0  0  0  0  0  0
   40.5399   33.0686   19.4513 C   0  0  0  0  0  0  0  0  0  0  0  0
   42.6426   32.3528   16.4084 O   0  0  0  0  0  0  0  0  0  0  0  0
   43.9592   32.7890   16.0961 C   0  0  0  0  0  0  0  0  0  0  0  0
   43.8986   31.7520   21.5449 C   0  0  0  0  0  0  0  0  0  0  0  0
   42.7867   30.8607   21.7242 O   0  0  0  0  0  0  0  0  0  0  0  0
   43.1738   29.5036   21.5623 C   0  0  0  0  0  0  0  0  0  0  0  0
 19 20  1  0
 20 18  1  0
 18 16  1  0
 16 17  3  0
 17  7  1  0
  7  8  2  0
  8  9  1  0
  1  9  1  0
  1  2  1  0
  2  3  1  0
  3 27  1  0
 27 28  1  0
 28 29  1  0
  3  4  1  0
  4 21  1  0
 21 22  1  0
  4  5  1  0
  5 23  1  0
 23 24  1  0
  5  6  1  0
  6 25  1  0
 25 26  1  0
  9 10  1  0
 10 11  2  0
 10 12  1  0
 12 13  1  0
 13 14  2  0
 13  7  1  0
  6  1  1  0
 12 15  1  0
M  END
> <minimizedAffinity>
7.52755

> <CNNscore>
0.3233445287

> <CNNaffinity>
4.8288464546

> <CNN_VS>
1.5613811016

> <CNNaffinity_variance>
0.1850863546

$$$$



 29 30  0  0  0  0  0  0  0  0999 V2000
   32.9323   23.9043   29.5155 C   0  0  0  0  0  0  0  0  0  0  0  0
   33.5826   22.7146   29.0945 O   0  0  0  0  0  0  0  0  0  0  0  0
   32.9718   22.0923   27.9469 C   0  0  0  0  0  0  0  0  0  0  0  0
   32.1926   23.0783   27.0367 C   0  0  0  0  0  0  0  0  0  0  0  0
   32.8599   24.4680   27.0163 C   0  0  0  0  0  0  0  0  0  0  0  0
   33.0542   25.0300   28.4514 C   0  0  0  0  0  0  0  0  0  0  0  0
   35.4452   24.8288   32.0984 C   0  0  0  0  0  0  0  0  0  0  0  0
   34.8531   24.4618   30.9549 C   0  0  0  0  0  0  0  0  0  0  0  0
   33.4855   24.2636   30.8368 N   0  0  0  0  0  0  0  0  0  0  0  0
   32.6321   24.4649   31.9135 C   0  0  0  0  0  0  0  0  0  0  0  0
   31.4128   24.3125   31.8983 O   0  0  0  0  0  0  0  0  0  0  0  0
   33.2385   24.8443   33.0837 N   0  0  0  0  0  0  0  0  0  0  0  0
   34.5770   25.0337   33.2863 C   0  0  0  0  0  0  0  0  0  0  0  0
   35.0176   25.3483   34.3881 O   0  0  0  0  0  0  0  0  0  0  0  0
   32.6491   24.9960   33.8575 H   0  0  0  0  0  0  0  0  0  0  0  0
   38.0420   25.1810   32.2324 C   0  0  0  0  0  0  0  0  0  0  0  0
   36.8531   25.0192   32.1697 C   0  0  0  0  0  0  0  0  0  0  0  0
   39.4965   25.3698   32.3202 C   0  0  0  0  0  0  0  0  0  0  0  0
   39.5016   23.6076   30.5191 C   0  0  0  0  0  0  0  0  0  0  0  0
   40.2424   24.1812   31.7168 C   0  0  0  0  0  0  0  0  0  0  0  0
   30.8461   23.1669   27.5480 O   0  0  0  0  0  0  0  0  0  0  0  0
   29.8489   22.8451   26.5868 C   0  0  0  0  0  0  0  0  0  0  0  0
   34.1001   24.3269   26.2983 O   0  0  0  0  0  0  0  0  0  0  0  0
   33.9670   23.6797   25.0392 C   0  0  0  0  0  0  0  0  0  0  0  0
   32.0476   26.0273   28.7475 O   0  0  0  0  0  0  0  0  0  0  0  0
   31.1871   26.2897   27.6467 C   0  0  0  0  0  0  0  0  0  0  0  0
   34.0955   21.3720   27.1802 C   0  0  0  0  0  0  0  0  0  0  0  0
   33.7155   20.0040   26.9631 O   0  0  0  0  0  0  0  0  0  0  0  0
   32.5026   19.6866   27.6310 C   0  0  0  0  0  0  0  0  0  0  0  0
 19 20  1  0
 20 18  1  0
 18 16  1  0
 16 17  3  0
 17  7  1  0
  7  8  2  0
  8  9  1  0
  1  9  1  0
  1  2  1  0
  2  3  1  0
  3 27  1  0
 27 28  1  0
 28 29  1  0
  3  4  1  0
  4 21  1  0
 21 22  1  0
  4  5  1  0
  5 23  1  0
 23 24  1  0
  5  6  1  0
  6 25  1  0
 25 26  1  0
  9 10  1  0
 10 11  2  0
 10 12  1  0
 12 13  1  0
 13 14  2  0
 13  7  1  0
  6  1  1  0
 12 15  1  0
M  END
> <minimizedAffinity>
-5.45307

> <CNNscore>
0.3186141849

> <CNNaffinity>
4.8656573296

> <CNN_VS>
1.5502674580

> <CNNaffinity_variance>
0.7655181885

$$$$



 29 30  0  0  0  0  0  0  0  0999 V2000
   43.5848   29.9629   17.9580 C   0  0  0  0  0  0  0  0  0  0  0  0
   44.7117   29.9981   18.8208 O   0  0  0  0  0  0  0  0  0  0  0  0
   45.2859   31.3111   18.9747 C   0  0  0  0  0  0  0  0  0  0  0  0
   44.2809   32.4692   18.7373 C   0  0  0  0  0  0  0  0  0  0  0  0
   42.8624   32.0839   19.2024 C   0  0  0  0  0  0  0  0  0  0  0  0
   42.3871   30.7572   18.5487 C   0  0  0  0  0  0  0  0  0  0  0  0
   43.7358   26.2573   18.2527 C   0  0  0  0  0  0  0  0  0  0  0  0
   43.9635   27.5685   18.4004 C   0  0  0  0  0  0  0  0  0  0  0  0
   43.2868   28.5430   17.6821 N   0  0  0  0  0  0  0  0  0  0  0  0
   42.2954   28.2080   16.7694 C   0  0  0  0  0  0  0  0  0  0  0  0
   41.6484   29.0033   16.0918 O   0  0  0  0  0  0  0  0  0  0  0  0
   42.0599   26.8650   16.6210 N   0  0  0  0  0  0  0  0  0  0  0  0
   42.7002   25.8466   17.2699 C   0  0  0  0  0  0  0  0  0  0  0  0
   42.4279   24.6720   17.0396 O   0  0  0  0  0  0  0  0  0  0  0  0
   41.3572   26.6080   15.9811 H   0  0  0  0  0  0  0  0  0  0  0  0
   45.0644   24.4805   19.6539 C   0  0  0  0  0  0  0  0  0  0  0  0
   44.4569   25.2952   19.0129 C   0  0  0  0  0  0  0  0  0  0  0  0
   45.8122   23.4784   20.4255 C   0  0  0  0  0  0  0  0  0  0  0  0
   45.1865   21.1572   21.1802 C   0  0  0  0  0  0  0  0  0  0  0  0
   45.4471   22.0617   19.9861 C   0  0  0  0  0  0  0  0  0  0  0  0
   44.2908   32.7680   17.3255 O   0  0  0  0  0  0  0  0  0  0  0  0
   44.8985   31.7560   16.5328 C   0  0  0  0  0  0  0  0  0  0  0  0
   42.8964   32.0179   20.6405 O   0  0  0  0  0  0  0  0  0  0  0  0
   41.7682   31.3705   21.2148 C   0  0  0  0  0  0  0  0  0  0  0  0
   41.4608   31.0257   17.4691 O   0  0  0  0  0  0  0  0  0  0  0  0
   40.8202   32.2891   17.5902 C   0  0  0  0  0  0  0  0  0  0  0  0
   45.8996   31.3662   20.3853 C   0  0  0  0  0  0  0  0  0  0  0  0
   46.8832   30.3272   20.5118 O   0  0  0  0  0  0  0  0  0  0  0  0
   47.1068   29.6662   19.2745 C   0  0  0  0  0  0  0  0  0  0  0  0
 19 20  1  0
 20 18  1  0
 18 16  1  0
 16 17  3  0
 17  7  1  0
  7  8  2  0
  8  9  1  0
  1  9  1  0
  1  2  1  0
  2  3  1  0
  3 27  1  0
 27 28  1  0
 28 29  1  0
  3  4  1  0
  4 21  1  0
 21 22  1  0
  4  5  1  0
  5 23  1  0
 23 24  1  0
  5  6  1  0
  6 25  1  0
 25 26  1  0
  9 10  1  0
 10 11  2  0
 10 12  1  0
 12 13  1  0
 13 14  2  0
 13  7  1  0
  6  1  1  0
 12 15  1  0
M  END
> <minimizedAffinity>
1.45310

> <CNNscore>
0.2766184211

> <CNNaffinity>
4.9667987823

> <CNN_VS>
1.3739080429

> <CNNaffinity_variance>
0.2879051268

$$$$



 29 30  0  0  0  0  0  0  0  0999 V2000
   34.3814   23.2987   28.0395 C   0  0  0  0  0  0  0  0  0  0  0  0
   35.0186   24.1262   27.0777 O   0  0  0  0  0  0  0  0  0  0  0  0
   34.9677   23.6038   25.7354 C   0  0  0  0  0  0  0  0  0  0  0  0
   33.7660   22.6578   25.4735 C   0  0  0  0  0  0  0  0  0  0  0  0
   32.5268   23.0895   26.2828 C   0  0  0  0  0  0  0  0  0  0  0  0
   32.8488   23.2162   27.7972 C   0  0  0  0  0  0  0  0  0  0  0  0
   36.5157   24.1709   30.9592 C   0  0  0  0  0  0  0  0  0  0  0  0
   36.0723   23.7020   29.7860 C   0  0  0  0  0  0  0  0  0  0  0  0
   34.7524   23.8104   29.3742 N   0  0  0  0  0  0  0  0  0  0  0  0
   33.8019   24.4485   30.1600 C   0  0  0  0  0  0  0  0  0  0  0  0
   32.6149   24.5888   29.8747 O   0  0  0  0  0  0  0  0  0  0  0  0
   34.2573   24.9321   31.3601 N   0  0  0  0  0  0  0  0  0  0  0  0
   35.5313   24.8415   31.8470 C   0  0  0  0  0  0  0  0  0  0  0  0
   35.8254   25.2872   32.9523 O   0  0  0  0  0  0  0  0  0  0  0  0
   33.5987   25.3917   31.9294 H   0  0  0  0  0  0  0  0  0  0  0  0
   39.0329   23.9227   31.6577 C   0  0  0  0  0  0  0  0  0  0  0  0
   37.8803   24.0349   31.3374 C   0  0  0  0  0  0  0  0  0  0  0  0
   40.4388   23.7886   32.0628 C   0  0  0  0  0  0  0  0  0  0  0  0
   42.7660   23.2688   31.2485 C   0  0  0  0  0  0  0  0  0  0  0  0
   41.3512   23.6529   30.8451 C   0  0  0  0  0  0  0  0  0  0  0  0
   34.1765   21.3245   25.8423 O   0  0  0  0  0  0  0  0  0  0  0  0
   33.2873   20.3095   25.3940 C   0  0  0  0  0  0  0  0  0  0  0  0
   32.0580   24.3227   25.7057 O   0  0  0  0  0  0  0  0  0  0  0  0
   31.3196   25.1372   26.6074 C   0  0  0  0  0  0  0  0  0  0  0  0
   32.3495   22.0663   28.5211 O   0  0  0  0  0  0  0  0  0  0  0  0
   33.2684   20.9817   28.5401 C   0  0  0  0  0  0  0  0  0  0  0  0
   34.9598   24.8154   24.7860 C   0  0  0  0  0  0  0  0  0  0  0  0
   36.2567   24.9501   24.1836 O   0  0  0  0  0  0  0  0  0  0  0  0
   36.7797   26.2593   24.3572 C   0  0  0  0  0  0  0  0  0  0  0  0
 19 20  1  0
 20 18  1  0
 18 16  1  0
 16 17  3  0
 17  7  1  0
  7  8  2  0
  8  9  1  0
  1  9  1  0
  1  2  1  0
  2  3  1  0
  3 27  1  0
 27 28  1  0
 28 29  1  0
  3  4  1  0
  4 21  1  0
 21 22  1  0
  4  5  1  0
  5 23  1  0
 23 24  1  0
  5  6  1  0
  6 25  1  0
 25 26  1  0
  9 10  1  0
 10 11  2  0
 10 12  1  0
 12 13  1  0
 13 14  2  0
 13  7  1  0
  6  1  1  0
 12 15  1  0
M  END
> <minimizedAffinity>
-6.58204

> <CNNscore>
0.2756837308

> <CNNaffinity>
4.3862848282

> <CNN_VS>
1.2092273235

> <CNNaffinity_variance>
1.2145067453

$$$$



 29 30  0  0  0  0  0  0  0  0999 V2000
   34.9209   24.1671   30.0845 C   0  0  0  0  0  0  0  0  0  0  0  0
   35.4790   23.3116   31.0706 O   0  0  0  0  0  0  0  0  0  0  0  0
   36.5250   23.9255   31.8492 C   0  0  0  0  0  0  0  0  0  0  0  0
   36.4214   25.4714   31.9342 C   0  0  0  0  0  0  0  0  0  0  0  0
   34.9508   25.9345   31.9405 C   0  0  0  0  0  0  0  0  0  0  0  0
   34.1668   25.3643   30.7267 C   0  0  0  0  0  0  0  0  0  0  0  0
   32.0870   23.1986   27.8774 C   0  0  0  0  0  0  0  0  0  0  0  0
   32.8956   23.8601   28.7149 C   0  0  0  0  0  0  0  0  0  0  0  0
   34.0819   23.3318   29.2019 N   0  0  0  0  0  0  0  0  0  0  0  0
   34.5205   22.0711   28.8193 C   0  0  0  0  0  0  0  0  0  0  0  0
   35.5541   21.5268   29.2007 O   0  0  0  0  0  0  0  0  0  0  0  0
   33.6937   21.3952   27.9585 N   0  0  0  0  0  0  0  0  0  0  0  0
   32.5007   21.8352   27.4569 C   0  0  0  0  0  0  0  0  0  0  0  0
   31.8241   21.1332   26.7110 O   0  0  0  0  0  0  0  0  0  0  0  0
   33.9901   20.5010   27.6724 H   0  0  0  0  0  0  0  0  0  0  0  0
   29.8598   24.2798   27.0076 C   0  0  0  0  0  0  0  0  0  0  0  0
   30.8791   23.7833   27.4056 C   0  0  0  0  0  0  0  0  0  0  0  0
   28.6208   24.8931   26.5103 C   0  0  0  0  0  0  0  0  0  0  0  0
   27.1876   25.2965   24.4774 C   0  0  0  0  0  0  0  0  0  0  0  0
   28.4005   24.5677   25.0341 C   0  0  0  0  0  0  0  0  0  0  0  0
   37.1222   26.0152   30.7960 O   0  0  0  0  0  0  0  0  0  0  0  0
   38.3404   25.3432   30.5021 C   0  0  0  0  0  0  0  0  0  0  0  0
   34.3910   25.5351   33.2056 O   0  0  0  0  0  0  0  0  0  0  0  0
   34.2155   26.6074   34.1227 C   0  0  0  0  0  0  0  0  0  0  0  0
   34.0002   26.3783   29.7071 O   0  0  0  0  0  0  0  0  0  0  0  0
   33.0391   26.0211   28.7223 C   0  0  0  0  0  0  0  0  0  0  0  0
   36.4852   23.2719   33.2423 C   0  0  0  0  0  0  0  0  0  0  0  0
   35.5465   23.9793   34.0677 O   0  0  0  0  0  0  0  0  0  0  0  0
   35.4519   23.4030   35.3627 C   0  0  0  0  0  0  0  0  0  0  0  0
 19 20  1  0
 20 18  1  0
 18 16  1  0
 16 17  3  0
 17  7  1  0
  7  8  2  0
  8  9  1  0
  1  9  1  0
  1  2  1  0
  2  3  1  0
  3 27  1  0
 27 28  1  0
 28 29  1  0
  3  4  1  0
  4 21  1  0
 21 22  1  0
  4  5  1  0
  5 23  1  0
 23 24  1  0
  5  6  1  0
  6 25  1  0
 25 26  1  0
  9 10  1  0
 10 11  2  0
 10 12  1  0
 12 13  1  0
 13 14  2  0
 13  7  1  0
  6  1  1  0
 12 15  1  0
M  END
> <minimizedAffinity>
7.02232

> <CNNscore>
0.2397205830

> <CNNaffinity>
3.8971564770

> <CNN_VS>
0.9342285991

> <CNNaffinity_variance>
0.8341555595

$$$$



 29 30  0  0  0  0  0  0  0  0999 V2000
   35.1079   24.2865   25.5392 C   0  0  0  0  0  0  0  0  0  0  0  0
   35.5536   24.2250   26.8858 O   0  0  0  0  0  0  0  0  0  0  0  0
   34.4984   23.9849   27.8377 C   0  0  0  0  0  0  0  0  0  0  0  0
   33.2751   23.2361   27.2455 C   0  0  0  0  0  0  0  0  0  0  0  0
   33.7060   22.2319   26.1579 C   0  0  0  0  0  0  0  0  0  0  0  0
   34.5601   22.9154   25.0550 C   0  0  0  0  0  0  0  0  0  0  0  0
   37.8253   24.3518   22.9991 C   0  0  0  0  0  0  0  0  0  0  0  0
   36.8313   23.9635   23.8078 C   0  0  0  0  0  0  0  0  0  0  0  0
   36.2277   24.8065   24.7290 N   0  0  0  0  0  0  0  0  0  0  0  0
   36.6099   26.1361   24.8483 C   0  0  0  0  0  0  0  0  0  0  0  0
   36.1317   26.9502   25.6349 O   0  0  0  0  0  0  0  0  0  0  0  0
   37.6257   26.5345   24.0172 N   0  0  0  0  0  0  0  0  0  0  0  0
   38.2867   25.7599   23.1054 C   0  0  0  0  0  0  0  0  0  0  0  0
   39.2047   26.2138   22.4285 O   0  0  0  0  0  0  0  0  0  0  0  0
   37.9078   27.4754   24.0844 H   0  0  0  0  0  0  0  0  0  0  0  0
   38.9083   22.6875   21.2837 C   0  0  0  0  0  0  0  0  0  0  0  0
   38.4133   23.4490   22.0702 C   0  0  0  0  0  0  0  0  0  0  0  0
   39.5186   21.7674   20.3144 C   0  0  0  0  0  0  0  0  0  0  0  0
   37.7098   21.8795   18.5636 C   0  0  0  0  0  0  0  0  0  0  0  0
   39.1687   22.1666   18.8820 C   0  0  0  0  0  0  0  0  0  0  0  0
   32.3835   24.2297   26.6975 O   0  0  0  0  0  0  0  0  0  0  0  0
   31.0089   23.9580   26.9396 C   0  0  0  0  0  0  0  0  0  0  0  0
   34.4051   21.1650   26.8259 O   0  0  0  0  0  0  0  0  0  0  0  0
   33.8914   19.8706   26.5389 C   0  0  0  0  0  0  0  0  0  0  0  0
   33.7641   23.1526   23.8694 O   0  0  0  0  0  0  0  0  0  0  0  0
   32.5001   22.5032   23.9117 C   0  0  0  0  0  0  0  0  0  0  0  0
   35.1261   23.2152   29.0136 C   0  0  0  0  0  0  0  0  0  0  0  0
   35.8903   24.1266   29.8187 O   0  0  0  0  0  0  0  0  0  0  0  0
   37.2539   23.7365   29.8978 C   0  0  0  0  0  0  0  0  0  0  0  0
 19 20  1  0
 20 18  1  0
 18 16  1  0
 16 17  3  0
 17  7  1  0
  7  8  2  0
  8  9  1  0
  1  9  1  0
  1  2  1  0
  2  3  1  0
  3 27  1  0
 27 28  1  0
 28 29  1  0
  3  4  1  0
  4 21  1  0
 21 22  1  0
  4  5  1  0
  5 23  1  0
 23 24  1  0
  5  6  1  0
  6 25  1  0
 25 26  1  0
  9 10  1  0
 10 11  2  0
 10 12  1  0
 12 13  1  0
 13 14  2  0
 13  7  1  0
  6  1  1  0
 12 15  1  0
M  END
> <minimizedAffinity>
6.66897

> <CNNscore>
0.2277277410

> <CNNaffinity>
4.5340762138

> <CNN_VS>
1.0325349569

> <CNNaffinity_variance>
0.4724863470

$$$$
