


 24 25  0  0  0  0  0  0  0  0999 V2000
   33.1627   23.0639   28.2974 C   0  0  0  0  0  0  0  0  0  0  0  0
   33.1091   21.6517   28.5429 O   0  0  0  0  0  0  0  0  0  0  0  0
   32.3019   20.9547   27.5930 C   0  0  0  0  0  0  0  0  0  0  0  0
   32.9612   21.0531   26.2148 C   0  0  0  0  0  0  0  0  0  0  0  0
   32.2013   20.3343   25.2351 O   0  0  0  0  0  0  0  0  0  0  0  0
   33.0808   22.5189   25.8178 C   0  0  0  0  0  0  0  0  0  0  0  0
   33.8384   22.5573   24.6757 F   0  0  0  0  0  0  0  0  0  0  0  0
   33.7473   23.3837   26.8913 C   0  0  0  0  0  0  0  0  0  0  0  0
   33.5780   24.7570   26.5005 O   0  0  0  0  0  0  0  0  0  0  0  0
   31.3112   20.7146   25.1734 H   0  0  0  0  0  0  0  0  0  0  0  0
   32.6319   24.9578   26.4264 H   0  0  0  0  0  0  0  0  0  0  0  0
   35.9090   25.5422   32.4077 N   0  0  0  0  0  0  0  0  0  0  0  0
   35.2624   24.9289   31.3712 C   0  0  0  0  0  0  0  0  0  0  0  0
   36.0221   24.0786   30.4353 C   0  0  0  0  0  0  0  0  0  0  0  0
   35.3117   23.4930   29.4727 C   0  0  0  0  0  0  0  0  0  0  0  0
   33.9504   23.6887   29.3708 N   0  0  0  0  0  0  0  0  0  0  0  0
   33.2868   24.5580   30.2392 C   0  0  0  0  0  0  0  0  0  0  0  0
   32.0965   24.8161   30.0569 O   0  0  0  0  0  0  0  0  0  0  0  0
   33.9889   25.1414   31.2625 N   0  0  0  0  0  0  0  0  0  0  0  0
   36.8769   25.4106   32.5309 H   0  0  0  0  0  0  0  0  0  0  0  0
   35.4069   26.1156   33.0309 H   0  0  0  0  0  0  0  0  0  0  0  0
   32.1564   19.4928   28.0399 C   0  0  0  0  0  0  0  0  0  0  0  0
   33.2065   18.6737   27.5392 O   0  0  0  0  0  0  0  0  0  0  0  0
   33.1869   18.6797   26.5694 H   0  0  0  0  0  0  0  0  0  0  0  0
 12 13  1  0
 13 14  1  0
 14 15  2  0
 15 16  1  0
  1 16  1  0
  1  2  1  0
  2  3  1  0
  3 22  1  0
 22 23  1  0
  3  4  1  0
  4  5  1  0
  4  6  1  0
  6  7  1  0
  6  8  1  0
  8  9  1  0
 16 17  1  0
 17 18  2  0
 17 19  1  0
 19 13  2  0
  8  1  1  0
 12 20  1  0
 12 21  1  0
 23 24  1  0
  5 10  1  0
  9 11  1  0
M  END
> <minimizedAffinity>
-9.92696

> <CNNscore>
0.7208026648

> <CNNaffinity>
4.5409522057

> <CNN_VS>
3.2731304169

> <CNNaffinity_variance>
0.0737663507

$$$$



 24 25  0  0  0  0  0  0  0  0999 V2000
   24.8471   25.0716   29.8222 C   0  0  0  0  0  0  0  0  0  0  0  0
   24.3078   25.4614   28.5515 O   0  0  0  0  0  0  0  0  0  0  0  0
   24.3215   24.4008   27.5952 C   0  0  0  0  0  0  0  0  0  0  0  0
   23.3692   23.2976   28.0644 C   0  0  0  0  0  0  0  0  0  0  0  0
   23.3239   22.2265   27.1133 O   0  0  0  0  0  0  0  0  0  0  0  0
   23.8292   22.7793   29.4209 C   0  0  0  0  0  0  0  0  0  0  0  0
   22.8473   21.9366   29.8744 F   0  0  0  0  0  0  0  0  0  0  0  0
   24.0507   23.8913   30.4498 C   0  0  0  0  0  0  0  0  0  0  0  0
   24.7051   23.2996   31.5852 O   0  0  0  0  0  0  0  0  0  0  0  0
   24.2093   21.8422   27.0168 H   0  0  0  0  0  0  0  0  0  0  0  0
   25.5474   22.9084   31.3052 H   0  0  0  0  0  0  0  0  0  0  0  0
   24.6621   29.4194   33.2341 N   0  0  0  0  0  0  0  0  0  0  0  0
   24.7247   28.3667   32.3645 C   0  0  0  0  0  0  0  0  0  0  0  0
   25.7746   28.3346   31.3286 C   0  0  0  0  0  0  0  0  0  0  0  0
   25.7847   27.2591   30.5428 C   0  0  0  0  0  0  0  0  0  0  0  0
   24.8566   26.2514   30.7003 N   0  0  0  0  0  0  0  0  0  0  0  0
   23.8390   26.3597   31.6506 C   0  0  0  0  0  0  0  0  0  0  0  0
   22.9480   25.5106   31.6940 O   0  0  0  0  0  0  0  0  0  0  0  0
   23.8310   27.4381   32.4977 N   0  0  0  0  0  0  0  0  0  0  0  0
   25.3199   30.1492   33.1717 H   0  0  0  0  0  0  0  0  0  0  0  0
   23.9592   29.4478   33.9228 H   0  0  0  0  0  0  0  0  0  0  0  0
   23.9011   24.9576   26.2273 C   0  0  0  0  0  0  0  0  0  0  0  0
   24.9519   25.6828   25.5994 O   0  0  0  0  0  0  0  0  0  0  0  0
   25.1979   26.4402   26.1533 H   0  0  0  0  0  0  0  0  0  0  0  0
 12 13  1  0
 13 14  1  0
 14 15  2  0
 15 16  1  0
  1 16  1  0
  1  2  1  0
  2  3  1  0
  3 22  1  0
 22 23  1  0
  3  4  1  0
  4  5  1  0
  4  6  1  0
  6  7  1  0
  6  8  1  0
  8  9  1  0
 16 17  1  0
 17 18  2  0
 17 19  1  0
 19 13  2  0
  8  1  1  0
 12 20  1  0
 12 21  1  0
 23 24  1  0
  5 10  1  0
  9 11  1  0
M  END
> <minimizedAffinity>
-7.96764

> <CNNscore>
0.6570141912

> <CNNaffinity>
4.0145130157

> <CNN_VS>
2.6375920773

> <CNNaffinity_variance>
0.2681023777

$$$$



 24 25  0  0  0  0  0  0  0  0999 V2000
   33.4016   23.3422   29.1050 C   0  0  0  0  0  0  0  0  0  0  0  0
   33.7680   22.1346   28.4232 O   0  0  0  0  0  0  0  0  0  0  0  0
   32.6621   21.5102   27.7698 C   0  0  0  0  0  0  0  0  0  0  0  0
   32.1724   22.4228   26.6424 C   0  0  0  0  0  0  0  0  0  0  0  0
   31.0835   21.8169   25.9345 O   0  0  0  0  0  0  0  0  0  0  0  0
   31.7405   23.7603   27.2295 C   0  0  0  0  0  0  0  0  0  0  0  0
   31.4919   24.5941   26.1697 F   0  0  0  0  0  0  0  0  0  0  0  0
   32.8027   24.3967   28.1301 C   0  0  0  0  0  0  0  0  0  0  0  0
   32.1851   25.5090   28.8000 O   0  0  0  0  0  0  0  0  0  0  0  0
   30.3450   21.6660   26.5450 H   0  0  0  0  0  0  0  0  0  0  0  0
   31.4285   25.1943   29.3191 H   0  0  0  0  0  0  0  0  0  0  0  0
   37.7111   25.3994   31.8935 N   0  0  0  0  0  0  0  0  0  0  0  0
   36.6667   24.8919   31.1723 C   0  0  0  0  0  0  0  0  0  0  0  0
   36.9321   24.1288   29.9379 C   0  0  0  0  0  0  0  0  0  0  0  0
   35.8614   23.6424   29.3124 C   0  0  0  0  0  0  0  0  0  0  0  0
   34.5902   23.8566   29.8020 N   0  0  0  0  0  0  0  0  0  0  0  0
   34.3852   24.6443   30.9368 C   0  0  0  0  0  0  0  0  0  0  0  0
   33.2391   24.9270   31.2878 O   0  0  0  0  0  0  0  0  0  0  0  0
   35.4732   25.1228   31.6207 N   0  0  0  0  0  0  0  0  0  0  0  0
   38.6363   25.2497   31.5920 H   0  0  0  0  0  0  0  0  0  0  0  0
   37.5381   25.9145   32.7144 H   0  0  0  0  0  0  0  0  0  0  0  0
   33.1091   20.1443   27.2290 C   0  0  0  0  0  0  0  0  0  0  0  0
   32.6053   19.0684   28.0119 O   0  0  0  0  0  0  0  0  0  0  0  0
   32.9433   19.1419   28.9181 H   0  0  0  0  0  0  0  0  0  0  0  0
 12 13  1  0
 13 14  1  0
 14 15  2  0
 15 16  1  0
  1 16  1  0
  1  2  1  0
  2  3  1  0
  3 22  1  0
 22 23  1  0
  3  4  1  0
  4  5  1  0
  4  6  1  0
  6  7  1  0
  6  8  1  0
  8  9  1  0
 16 17  1  0
 17 18  2  0
 17 19  1  0
 19 13  2  0
  8  1  1  0
 12 20  1  0
 12 21  1  0
 23 24  1  0
  5 10  1  0
  9 11  1  0
M  END
> <minimizedAffinity>
-8.26988

> <CNNscore>
0.5716069937

> <CNNaffinity>
3.8513901234

> <CNN_VS>
2.2014815807

> <CNNaffinity_variance>
0.2831572294

$$$$



 24 25  0  0  0  0  0  0  0  0999 V2000
   25.4039   25.0874   30.0606 C   0  0  0  0  0  0  0  0  0  0  0  0
   25.6211   25.2572   28.6530 O   0  0  0  0  0  0  0  0  0  0  0  0
   25.9065   24.0279   27.9844 C   0  0  0  0  0  0  0  0  0  0  0  0
   24.6688   23.1291   28.0492 C   0  0  0  0  0  0  0  0  0  0  0  0
   24.8993   21.8958   27.3567 O   0  0  0  0  0  0  0  0  0  0  0  0
   24.3197   22.8581   29.5069 C   0  0  0  0  0  0  0  0  0  0  0  0
   23.1099   22.2129   29.5090 F   0  0  0  0  0  0  0  0  0  0  0  0
   24.2103   24.1320   30.3494 C   0  0  0  0  0  0  0  0  0  0  0  0
   24.1216   23.7279   31.7265 O   0  0  0  0  0  0  0  0  0  0  0  0
   25.6384   21.4247   27.7724 H   0  0  0  0  0  0  0  0  0  0  0  0
   24.9107   23.2167   31.9649 H   0  0  0  0  0  0  0  0  0  0  0  0
   24.8065   30.1748   32.1441 N   0  0  0  0  0  0  0  0  0  0  0  0
   24.9456   28.9028   31.6634 C   0  0  0  0  0  0  0  0  0  0  0  0
   24.2099   27.7947   32.3014 C   0  0  0  0  0  0  0  0  0  0  0  0
   24.3765   26.5926   31.7525 C   0  0  0  0  0  0  0  0  0  0  0  0
   25.1970   26.4151   30.6584 N   0  0  0  0  0  0  0  0  0  0  0  0
   25.9269   27.4832   30.1323 C   0  0  0  0  0  0  0  0  0  0  0  0
   26.7472   27.2825   29.2359 O   0  0  0  0  0  0  0  0  0  0  0  0
   25.7420   28.7376   30.6548 N   0  0  0  0  0  0  0  0  0  0  0  0
   24.2123   30.3496   32.9093 H   0  0  0  0  0  0  0  0  0  0  0  0
   25.3006   30.9161   31.7251 H   0  0  0  0  0  0  0  0  0  0  0  0
   26.3020   24.3307   26.5318 C   0  0  0  0  0  0  0  0  0  0  0  0
   27.0643   23.2771   25.9546 O   0  0  0  0  0  0  0  0  0  0  0  0
   27.8862   23.1602   26.4565 H   0  0  0  0  0  0  0  0  0  0  0  0
 12 13  1  0
 13 14  1  0
 14 15  2  0
 15 16  1  0
  1 16  1  0
  1  2  1  0
  2  3  1  0
  3 22  1  0
 22 23  1  0
  3  4  1  0
  4  5  1  0
  4  6  1  0
  6  7  1  0
  6  8  1  0
  8  9  1  0
 16 17  1  0
 17 18  2  0
 17 19  1  0
 19 13  2  0
  8  1  1  0
 12 20  1  0
 12 21  1  0
 23 24  1  0
  5 10  1  0
  9 11  1  0
M  END
> <minimizedAffinity>
-8.63007

> <CNNscore>
0.3991769850

> <CNNaffinity>
4.2686438560

> <CNN_VS>
1.7039443254

> <CNNaffinity_variance>
0.2055038214

$$$$



 24 25  0  0  0  0  0  0  0  0999 V2000
   34.5159   23.1870   28.2586 C   0  0  0  0  0  0  0  0  0  0  0  0
   34.8299   24.1955   27.2882 O   0  0  0  0  0  0  0  0  0  0  0  0
   34.9786   23.6678   25.9695 C   0  0  0  0  0  0  0  0  0  0  0  0
   33.6272   23.1254   25.4969 C   0  0  0  0  0  0  0  0  0  0  0  0
   33.7223   22.6178   24.1600 O   0  0  0  0  0  0  0  0  0  0  0  0
   33.1660   22.0272   26.4463 C   0  0  0  0  0  0  0  0  0  0  0  0
   31.8805   21.7114   26.0890 F   0  0  0  0  0  0  0  0  0  0  0  0
   33.1881   22.4510   27.9175 C   0  0  0  0  0  0  0  0  0  0  0  0
   32.9706   21.2689   28.7067 O   0  0  0  0  0  0  0  0  0  0  0  0
   34.3659   21.8926   24.1346 H   0  0  0  0  0  0  0  0  0  0  0  0
   33.6677   20.6214   28.5180 H   0  0  0  0  0  0  0  0  0  0  0  0
   34.0623   25.6374   33.1952 N   0  0  0  0  0  0  0  0  0  0  0  0
   34.2111   25.0422   31.9737 C   0  0  0  0  0  0  0  0  0  0  0  0
   35.5399   24.5605   31.5513 C   0  0  0  0  0  0  0  0  0  0  0  0
   35.5922   23.9648   30.3611 C   0  0  0  0  0  0  0  0  0  0  0  0
   34.4621   23.8233   29.5836 N   0  0  0  0  0  0  0  0  0  0  0  0
   33.2396   24.3575   29.9964 C   0  0  0  0  0  0  0  0  0  0  0  0
   32.2711   24.3309   29.2362 O   0  0  0  0  0  0  0  0  0  0  0  0
   33.1517   24.9400   31.2347 N   0  0  0  0  0  0  0  0  0  0  0  0
   34.8390   25.7375   33.7918 H   0  0  0  0  0  0  0  0  0  0  0  0
   33.1785   25.9659   33.4783 H   0  0  0  0  0  0  0  0  0  0  0  0
   35.4897   24.7800   25.0422 C   0  0  0  0  0  0  0  0  0  0  0  0
   36.5877   24.3500   24.2462 O   0  0  0  0  0  0  0  0  0  0  0  0
   37.3255   24.0967   24.8228 H   0  0  0  0  0  0  0  0  0  0  0  0
 12 13  1  0
 13 14  1  0
 14 15  2  0
 15 16  1  0
  1 16  1  0
  1  2  1  0
  2  3  1  0
  3 22  1  0
 22 23  1  0
  3  4  1  0
  4  5  1  0
  4  6  1  0
  6  7  1  0
  6  8  1  0
  8  9  1  0
 16 17  1  0
 17 18  2  0
 17 19  1  0
 19 13  2  0
  8  1  1  0
 12 20  1  0
 12 21  1  0
 23 24  1  0
  5 10  1  0
  9 11  1  0
M  END
> <minimizedAffinity>
-8.82222

> <CNNscore>
0.3129477501

> <CNNaffinity>
4.2777042389

> <CNN_VS>
1.3386979103

> <CNNaffinity_variance>
0.2731129229

$$$$



 24 25  0  0  0  0  0  0  0  0999 V2000
   25.7310   24.9931   28.0414 C   0  0  0  0  0  0  0  0  0  0  0  0
   27.1356   24.7367   27.9053 O   0  0  0  0  0  0  0  0  0  0  0  0
   27.4439   23.9326   26.7660 C   0  0  0  0  0  0  0  0  0  0  0  0
   27.0992   24.7171   25.4973 C   0  0  0  0  0  0  0  0  0  0  0  0
   27.4278   23.9596   24.3260 O   0  0  0  0  0  0  0  0  0  0  0  0
   25.6148   25.0589   25.5049 C   0  0  0  0  0  0  0  0  0  0  0  0
   25.4014   25.9121   24.4530 F   0  0  0  0  0  0  0  0  0  0  0  0
   25.1565   25.7348   26.8001 C   0  0  0  0  0  0  0  0  0  0  0  0
   23.7195   25.7788   26.7746 O   0  0  0  0  0  0  0  0  0  0  0  0
   26.9175   23.1347   24.3207 H   0  0  0  0  0  0  0  0  0  0  0  0
   23.3696   24.8766   26.7074 H   0  0  0  0  0  0  0  0  0  0  0  0
   25.1229   28.0362   32.6185 N   0  0  0  0  0  0  0  0  0  0  0  0
   25.2637   27.2529   31.5071 C   0  0  0  0  0  0  0  0  0  0  0  0
   24.5049   25.9924   31.3993 C   0  0  0  0  0  0  0  0  0  0  0  0
   24.6754   25.3048   30.2713 C   0  0  0  0  0  0  0  0  0  0  0  0
   25.5201   25.7579   29.2799 N   0  0  0  0  0  0  0  0  0  0  0  0
   26.2701   26.9225   29.4577 C   0  0  0  0  0  0  0  0  0  0  0  0
   27.1096   27.2452   28.6165 O   0  0  0  0  0  0  0  0  0  0  0  0
   26.0823   27.6686   30.5929 N   0  0  0  0  0  0  0  0  0  0  0  0
   24.5121   27.7616   33.3401 H   0  0  0  0  0  0  0  0  0  0  0  0
   25.6322   28.8750   32.6972 H   0  0  0  0  0  0  0  0  0  0  0  0
   28.9334   23.5615   26.8062 C   0  0  0  0  0  0  0  0  0  0  0  0
   29.1838   22.2907   26.2173 O   0  0  0  0  0  0  0  0  0  0  0  0
   28.7049   21.6060   26.7101 H   0  0  0  0  0  0  0  0  0  0  0  0
 12 13  1  0
 13 14  1  0
 14 15  2  0
 15 16  1  0
  1 16  1  0
  1  2  1  0
  2  3  1  0
  3 22  1  0
 22 23  1  0
  3  4  1  0
  4  5  1  0
  4  6  1  0
  6  7  1  0
  6  8  1  0
  8  9  1  0
 16 17  1  0
 17 18  2  0
 17 19  1  0
 19 13  2  0
  8  1  1  0
 12 20  1  0
 12 21  1  0
 23 24  1  0
  5 10  1  0
  9 11  1  0
M  END
> <minimizedAffinity>
-8.74923

> <CNNscore>
0.3043206930

> <CNNaffinity>
3.8996353149

> <CNN_VS>
1.1867396832

> <CNNaffinity_variance>
0.1693359464

$$$$



 24 25  0  0  0  0  0  0  0  0999 V2000
   37.5195   26.7031   34.4405 C   0  0  0  0  0  0  0  0  0  0  0  0
   38.8446   26.6655   34.9881 O   0  0  0  0  0  0  0  0  0  0  0  0
   39.0135   27.5567   36.0912 C   0  0  0  0  0  0  0  0  0  0  0  0
   38.1338   27.0826   37.2511 C   0  0  0  0  0  0  0  0  0  0  0  0
   38.3005   27.9297   38.3950 O   0  0  0  0  0  0  0  0  0  0  0  0
   36.6766   27.0764   36.8074 C   0  0  0  0  0  0  0  0  0  0  0  0
   35.9621   26.4724   37.8097 F   0  0  0  0  0  0  0  0  0  0  0  0
   36.4463   26.3159   35.4986 C   0  0  0  0  0  0  0  0  0  0  0  0
   35.1001   26.5913   35.0749 O   0  0  0  0  0  0  0  0  0  0  0  0
   38.0397   28.8358   38.1670 H   0  0  0  0  0  0  0  0  0  0  0  0
   34.9899   27.5468   34.9491 H   0  0  0  0  0  0  0  0  0  0  0  0
   37.5762   23.4791   29.9481 N   0  0  0  0  0  0  0  0  0  0  0  0
   37.5242   24.2725   31.0600 C   0  0  0  0  0  0  0  0  0  0  0  0
   36.4102   24.1216   32.0152 C   0  0  0  0  0  0  0  0  0  0  0  0
   36.4515   24.9108   33.0874 C   0  0  0  0  0  0  0  0  0  0  0  0
   37.4787   25.8125   33.2708 N   0  0  0  0  0  0  0  0  0  0  0  0
   38.4743   25.9673   32.3039 C   0  0  0  0  0  0  0  0  0  0  0  0
   39.3127   26.8612   32.4250 O   0  0  0  0  0  0  0  0  0  0  0  0
   38.4756   25.1390   31.2109 N   0  0  0  0  0  0  0  0  0  0  0  0
   36.8754   22.8059   29.7905 H   0  0  0  0  0  0  0  0  0  0  0  0
   38.3146   23.5809   29.3049 H   0  0  0  0  0  0  0  0  0  0  0  0
   40.4965   27.5824   36.4887 C   0  0  0  0  0  0  0  0  0  0  0  0
   40.8103   26.5798   37.4483 O   0  0  0  0  0  0  0  0  0  0  0  0
   40.2950   26.7326   38.2558 H   0  0  0  0  0  0  0  0  0  0  0  0
 12 13  1  0
 13 14  1  0
 14 15  2  0
 15 16  1  0
  1 16  1  0
  1  2  1  0
  2  3  1  0
  3 22  1  0
 22 23  1  0
  3  4  1  0
  4  5  1  0
  4  6  1  0
  6  7  1  0
  6  8  1  0
  8  9  1  0
 16 17  1  0
 17 18  2  0
 17 19  1  0
 19 13  2  0
  8  1  1  0
 12 20  1  0
 12 21  1  0
 23 24  1  0
  5 10  1  0
  9 11  1  0
M  END
> <minimizedAffinity>
-7.23325

> <CNNscore>
0.2887743115

> <CNNaffinity>
4.1439871788

> <CNN_VS>
1.1966770887

> <CNNaffinity_variance>
0.5559160709

$$$$



 24 25  0  0  0  0  0  0  0  0999 V2000
   33.2063   23.5182   28.8672 C   0  0  0  0  0  0  0  0  0  0  0  0
   33.7566   22.6876   27.8354 O   0  0  0  0  0  0  0  0  0  0  0  0
   32.7692   22.2197   26.9157 C   0  0  0  0  0  0  0  0  0  0  0  0
   32.2011   23.4156   26.1470 C   0  0  0  0  0  0  0  0  0  0  0  0
   31.2300   22.9865   25.1843 O   0  0  0  0  0  0  0  0  0  0  0  0
   31.5718   24.3933   27.1311 C   0  0  0  0  0  0  0  0  0  0  0  0
   31.2508   25.5191   26.4173 F   0  0  0  0  0  0  0  0  0  0  0  0
   32.5055   24.7781   28.2819 C   0  0  0  0  0  0  0  0  0  0  0  0
   31.7198   25.4963   29.2485 O   0  0  0  0  0  0  0  0  0  0  0  0
   30.4974   22.5428   25.6398 H   0  0  0  0  0  0  0  0  0  0  0  0
   30.9947   24.9320   29.5594 H   0  0  0  0  0  0  0  0  0  0  0  0
   37.0947   24.9439   32.5316 N   0  0  0  0  0  0  0  0  0  0  0  0
   36.1575   24.6009   31.5975 C   0  0  0  0  0  0  0  0  0  0  0  0
   36.5869   24.1732   30.2526 C   0  0  0  0  0  0  0  0  0  0  0  0
   35.6128   23.8263   29.4130 C   0  0  0  0  0  0  0  0  0  0  0  0
   34.2889   23.8778   29.7956 N   0  0  0  0  0  0  0  0  0  0  0  0
   33.9281   24.3556   31.0573 C   0  0  0  0  0  0  0  0  0  0  0  0
   32.7388   24.5111   31.3367 O   0  0  0  0  0  0  0  0  0  0  0  0
   34.9141   24.6810   31.9531 N   0  0  0  0  0  0  0  0  0  0  0  0
   38.0523   24.8989   32.3075 H   0  0  0  0  0  0  0  0  0  0  0  0
   36.8121   25.2359   33.4283 H   0  0  0  0  0  0  0  0  0  0  0  0
   33.4157   21.2008   25.9660 C   0  0  0  0  0  0  0  0  0  0  0  0
   33.3956   21.6427   24.6137 O   0  0  0  0  0  0  0  0  0  0  0  0
   32.4768   21.7597   24.3254 H   0  0  0  0  0  0  0  0  0  0  0  0
 12 13  1  0
 13 14  1  0
 14 15  2  0
 15 16  1  0
  1 16  1  0
  1  2  1  0
  2  3  1  0
  3 22  1  0
 22 23  1  0
  3  4  1  0
  4  5  1  0
  4  6  1  0
  6  7  1  0
  6  8  1  0
  8  9  1  0
 16 17  1  0
 17 18  2  0
 17 19  1  0
 19 13  2  0
  8  1  1  0
 12 20  1  0
 12 21  1  0
 23 24  1  0
  5 10  1  0
  9 11  1  0
M  END
> <minimizedAffinity>
-7.68342

> <CNNscore>
0.2795955837

> <CNNaffinity>
3.8620097637

> <CNN_VS>
1.0798008442

> <CNNaffinity_variance>
0.1755829304

$$$$



 24 25  0  0  0  0  0  0  0  0999 V2000
   33.5778   24.6736   29.4201 C   0  0  0  0  0  0  0  0  0  0  0  0
   32.2270   25.1556   29.4387 O   0  0  0  0  0  0  0  0  0  0  0  0
   31.6505   25.2383   28.1347 C   0  0  0  0  0  0  0  0  0  0  0  0
   31.5179   23.8252   27.5606 C   0  0  0  0  0  0  0  0  0  0  0  0
   30.9082   23.8583   26.2640 O   0  0  0  0  0  0  0  0  0  0  0  0
   32.8972   23.1841   27.4785 C   0  0  0  0  0  0  0  0  0  0  0  0
   32.7014   21.8701   27.1393 F   0  0  0  0  0  0  0  0  0  0  0  0
   33.6748   23.2517   28.7957 C   0  0  0  0  0  0  0  0  0  0  0  0
   35.0242   22.8402   28.5176 O   0  0  0  0  0  0  0  0  0  0  0  0
   31.4598   24.3804   25.6606 H   0  0  0  0  0  0  0  0  0  0  0  0
   35.4112   23.4297   27.8516 H   0  0  0  0  0  0  0  0  0  0  0  0
   35.2793   24.7786   34.6806 N   0  0  0  0  0  0  0  0  0  0  0  0
   34.8898   24.7725   33.3704 C   0  0  0  0  0  0  0  0  0  0  0  0
   35.9042   24.8806   32.3048 C   0  0  0  0  0  0  0  0  0  0  0  0
   35.4439   24.8352   31.0557 C   0  0  0  0  0  0  0  0  0  0  0  0
   34.0961   24.7018   30.7962 N   0  0  0  0  0  0  0  0  0  0  0  0
   33.1674   24.6729   31.8388 C   0  0  0  0  0  0  0  0  0  0  0  0
   31.9621   24.6782   31.5863 O   0  0  0  0  0  0  0  0  0  0  0  0
   33.6195   24.6781   33.1335 N   0  0  0  0  0  0  0  0  0  0  0  0
   36.2342   24.8486   34.9100 H   0  0  0  0  0  0  0  0  0  0  0  0
   34.6050   24.7129   35.3949 H   0  0  0  0  0  0  0  0  0  0  0  0
   30.2836   25.9306   28.2369 C   0  0  0  0  0  0  0  0  0  0  0  0
   30.4046   27.3471   28.2931 O   0  0  0  0  0  0  0  0  0  0  0  0
   30.9117   27.5972   29.0813 H   0  0  0  0  0  0  0  0  0  0  0  0
 12 13  1  0
 13 14  1  0
 14 15  2  0
 15 16  1  0
  1 16  1  0
  1  2  1  0
  2  3  1  0
  3 22  1  0
 22 23  1  0
  3  4  1  0
  4  5  1  0
  4  6  1  0
  6  7  1  0
  6  8  1  0
  8  9  1  0
 16 17  1  0
 17 18  2  0
 17 19  1  0
 19 13  2  0
  8  1  1  0
 12 20  1  0
 12 21  1  0
 23 24  1  0
  5 10  1  0
  9 11  1  0
M  END
> <minimizedAffinity>
-7.82003

> <CNNscore>
0.1899828911

> <CNNaffinity>
3.8117797375

> <CNN_VS>
0.7241729498

> <CNNaffinity_variance>
0.1425733417

$$$$
