


 22 23  0  0  0  0  0  0  0  0999 V2000
   12.8597    8.1664    2.7000 C   0  0  0  0  0  0  0  0  0  0  0  0
   12.0586    7.8345    3.9754 C   0  0  0  0  0  0  0  0  0  0  0  0
   10.5542    7.8023    3.7060 C   0  0  0  0  0  0  0  0  0  0  0  0
   10.0730    9.1232    3.0977 C   0  0  0  0  0  0  0  0  0  0  0  0
   10.8587    9.4687    1.8289 C   0  0  0  0  0  0  0  0  0  0  0  0
   12.3654    9.4943    2.0937 C   0  0  0  0  0  0  0  0  0  0  0  0
   14.9567    6.7015    2.8134 C   0  0  0  0  0  0  0  0  0  0  0  0
   14.3914    8.1163    2.9566 C   0  0  0  0  0  0  0  0  0  0  0  0
   15.1678    9.0111    2.1002 N   0  0  0  0  0  0  0  0  0  0  0  0
   15.0849    8.7094    1.1294 H   0  0  0  0  0  0  0  0  0  0  0  0
   16.1479    8.9854    2.3816 H   0  0  0  0  0  0  0  0  0  0  0  0
    8.5631    9.1220    2.8514 C   0  0  0  0  0  0  0  0  0  0  0  0
    8.1272    8.9240    1.7208 O   0  0  0  0  0  0  0  0  0  0  0  0
    7.7998    9.3549    3.9814 N   0  0  0  0  0  0  0  0  0  0  0  0
    8.2942    9.4967    4.8209 H   0  0  0  0  0  0  0  0  0  0  0  0
    6.3906    9.4121    4.0666 C   0  0  0  0  0  0  0  0  0  0  0  0
    5.8442    9.9536    5.2326 C   0  0  0  0  0  0  0  0  0  0  0  0
    4.4650   10.0262    5.3523 C   0  0  0  0  0  0  0  0  0  0  0  0
    3.6105    9.6023    4.4035 N   0  0  0  0  0  0  0  0  0  0  0  0
    4.1670    9.0846    3.2897 C   0  0  0  0  0  0  0  0  0  0  0  0
    3.0346    8.5593    2.1120 Cl  0  0  0  0  0  0  0  0  0  0  0  0
    5.5285    8.9664    3.0700 C   0  0  0  0  0  0  0  0  0  0  0  0
  8  7  1  0
  8  9  1  0
  8  1  1  0
  1  2  1  0
  2  3  1  0
  3  4  1  0
  4 12  1  0
 12 13  2  0
 12 14  1  0
 14 16  1  0
 16 17  2  0
 17 18  1  0
 18 19  2  0
 19 20  1  0
 20 21  1  0
 20 22  2  0
  4  5  1  0
  5  6  1  0
  6  1  1  0
 22 16  1  0
  9 10  1  0
  9 11  1  0
 14 15  1  0
M  END
> <minimizedAffinity>
-7.97226

> <CNNscore>
0.8685392141

> <CNNaffinity>
6.7201972008

> <CNN_VS>
5.8367547989

> <CNNaffinity_variance>
0.0914440528

$$$$



 22 23  0  0  0  0  0  0  0  0999 V2000
   11.6968   10.9406    0.4746 C   0  0  0  0  0  0  0  0  0  0  0  0
   10.5925   10.3367   -0.4166 C   0  0  0  0  0  0  0  0  0  0  0  0
    9.3162   10.0557    0.3765 C   0  0  0  0  0  0  0  0  0  0  0  0
    9.5990    9.1434    1.5741 C   0  0  0  0  0  0  0  0  0  0  0  0
   10.6945    9.7284    2.4708 C   0  0  0  0  0  0  0  0  0  0  0  0
   11.9709   10.0177    1.6782 C   0  0  0  0  0  0  0  0  0  0  0  0
   13.4130   12.7468   -0.1156 C   0  0  0  0  0  0  0  0  0  0  0  0
   12.9633   11.3030   -0.3495 C   0  0  0  0  0  0  0  0  0  0  0  0
   14.1035   10.4207   -0.1072 N   0  0  0  0  0  0  0  0  0  0  0  0
   14.4161   10.5264    0.8579 H   0  0  0  0  0  0  0  0  0  0  0  0
   14.8645   10.6672   -0.7401 H   0  0  0  0  0  0  0  0  0  0  0  0
    8.3269    8.8240    2.3616 C   0  0  0  0  0  0  0  0  0  0  0  0
    8.3399    7.9402    3.2137 O   0  0  0  0  0  0  0  0  0  0  0  0
    7.2338    9.6002    2.0203 N   0  0  0  0  0  0  0  0  0  0  0  0
    7.3781   10.2718    1.3151 H   0  0  0  0  0  0  0  0  0  0  0  0
    5.9336    9.5377    2.5698 C   0  0  0  0  0  0  0  0  0  0  0  0
    4.8918    9.1953    1.7044 C   0  0  0  0  0  0  0  0  0  0  0  0
    3.6021    9.1239    2.2076 C   0  0  0  0  0  0  0  0  0  0  0  0
    3.2884    9.3671    3.4931 N   0  0  0  0  0  0  0  0  0  0  0  0
    4.3144    9.6951    4.3043 C   0  0  0  0  0  0  0  0  0  0  0  0
    3.8608    9.9949    5.9321 Cl  0  0  0  0  0  0  0  0  0  0  0  0
    5.6357    9.7940    3.9043 C   0  0  0  0  0  0  0  0  0  0  0  0
  8  7  1  0
  8  9  1  0
  8  1  1  0
  1  2  1  0
  2  3  1  0
  3  4  1  0
  4 12  1  0
 12 13  2  0
 12 14  1  0
 14 16  1  0
 16 17  2  0
 17 18  1  0
 18 19  2  0
 19 20  1  0
 20 21  1  0
 20 22  2  0
  4  5  1  0
  5  6  1  0
  6  1  1  0
 22 16  1  0
  9 10  1  0
  9 11  1  0
 14 15  1  0
M  END
> <minimizedAffinity>
-8.03604

> <CNNscore>
0.7927013636

> <CNNaffinity>
6.2461333275

> <CNN_VS>
4.9513182640

> <CNNaffinity_variance>
0.1221852675

$$$$



 22 23  0  0  0  0  0  0  0  0999 V2000
   13.0183    8.5369    2.4896 C   0  0  0  0  0  0  0  0  0  0  0  0
   11.9828    8.9128    1.4102 C   0  0  0  0  0  0  0  0  0  0  0  0
   10.6235    9.2493    2.0232 C   0  0  0  0  0  0  0  0  0  0  0  0
   10.1050    8.0946    2.8861 C   0  0  0  0  0  0  0  0  0  0  0  0
   11.1219    7.7077    3.9645 C   0  0  0  0  0  0  0  0  0  0  0  0
   12.4857    7.3777    3.3545 C   0  0  0  0  0  0  0  0  0  0  0  0
   15.4462    7.8496    2.9242 C   0  0  0  0  0  0  0  0  0  0  0  0
   14.4203    8.2769    1.8722 C   0  0  0  0  0  0  0  0  0  0  0  0
   14.4228    7.2859    0.7976 N   0  0  0  0  0  0  0  0  0  0  0  0
   14.1623    6.3747    1.1748 H   0  0  0  0  0  0  0  0  0  0  0  0
   15.3554    7.2305    0.3883 H   0  0  0  0  0  0  0  0  0  0  0  0
    8.7294    8.4000    3.4820 C   0  0  0  0  0  0  0  0  0  0  0  0
    8.5466    8.2855    4.6906 O   0  0  0  0  0  0  0  0  0  0  0  0
    7.7806    8.7946    2.5559 N   0  0  0  0  0  0  0  0  0  0  0  0
    8.0777    8.8399    1.6183 H   0  0  0  0  0  0  0  0  0  0  0  0
    6.4332    9.1402    2.8039 C   0  0  0  0  0  0  0  0  0  0  0  0
    5.6242    9.3890    1.6925 C   0  0  0  0  0  0  0  0  0  0  0  0
    4.2964    9.7309    1.8966 C   0  0  0  0  0  0  0  0  0  0  0  0
    3.7324    9.8390    3.1132 N   0  0  0  0  0  0  0  0  0  0  0  0
    4.5376    9.5931    4.1665 C   0  0  0  0  0  0  0  0  0  0  0  0
    3.7700    9.7445    5.6940 Cl  0  0  0  0  0  0  0  0  0  0  0  0
    5.8741    9.2453    4.0733 C   0  0  0  0  0  0  0  0  0  0  0  0
  8  7  1  0
  8  9  1  0
  8  1  1  0
  1  2  1  0
  2  3  1  0
  3  4  1  0
  4 12  1  0
 12 13  2  0
 12 14  1  0
 14 16  1  0
 16 17  2  0
 17 18  1  0
 18 19  2  0
 19 20  1  0
 20 21  1  0
 20 22  2  0
  4  5  1  0
  5  6  1  0
  6  1  1  0
 22 16  1  0
  9 10  1  0
  9 11  1  0
 14 15  1  0
M  END
> <minimizedAffinity>
-7.64013

> <CNNscore>
0.7723023295

> <CNNaffinity>
6.3687701225

> <CNN_VS>
4.9186158180

> <CNNaffinity_variance>
0.0567295216

$$$$



 22 23  0  0  0  0  0  0  0  0999 V2000
    6.6049    0.5656   -4.7139 C   0  0  0  0  0  0  0  0  0  0  0  0
    7.5175    1.7097   -5.2007 C   0  0  0  0  0  0  0  0  0  0  0  0
    7.0565    3.0664   -4.6682 C   0  0  0  0  0  0  0  0  0  0  0  0
    5.5986    3.3433   -5.0482 C   0  0  0  0  0  0  0  0  0  0  0  0
    4.6774    2.2158   -4.5720 C   0  0  0  0  0  0  0  0  0  0  0  0
    5.1406    0.8555   -5.0973 C   0  0  0  0  0  0  0  0  0  0  0  0
    6.3534   -1.9768   -4.5444 C   0  0  0  0  0  0  0  0  0  0  0  0
    7.1231   -0.8208   -5.1869 C   0  0  0  0  0  0  0  0  0  0  0  0
    7.0992   -1.0017   -6.6374 N   0  0  0  0  0  0  0  0  0  0  0  0
    6.1336   -0.9901   -6.9656 H   0  0  0  0  0  0  0  0  0  0  0  0
    7.5286   -1.8958   -6.8756 H   0  0  0  0  0  0  0  0  0  0  0  0
    5.1291    4.7121   -4.5519 C   0  0  0  0  0  0  0  0  0  0  0  0
    3.9465    4.8902   -4.2744 O   0  0  0  0  0  0  0  0  0  0  0  0
    6.1317    5.6608   -4.4593 N   0  0  0  0  0  0  0  0  0  0  0  0
    7.0354    5.3679   -4.7178 H   0  0  0  0  0  0  0  0  0  0  0  0
    6.0048    7.0027   -4.0355 C   0  0  0  0  0  0  0  0  0  0  0  0
    5.0746    7.2674   -3.0274 C   0  0  0  0  0  0  0  0  0  0  0  0
    4.9222    8.5726   -2.5858 C   0  0  0  0  0  0  0  0  0  0  0  0
    5.6232    9.6120   -3.0740 N   0  0  0  0  0  0  0  0  0  0  0  0
    6.5131    9.3258   -4.0457 C   0  0  0  0  0  0  0  0  0  0  0  0
    7.3800   10.6854   -4.6334 Cl  0  0  0  0  0  0  0  0  0  0  0  0
    6.7426    8.0603   -4.5574 C   0  0  0  0  0  0  0  0  0  0  0  0
  8  7  1  0
  8  9  1  0
  8  1  1  0
  1  2  1  0
  2  3  1  0
  3  4  1  0
  4 12  1  0
 12 13  2  0
 12 14  1  0
 14 16  1  0
 16 17  2  0
 17 18  1  0
 18 19  2  0
 19 20  1  0
 20 21  1  0
 20 22  2  0
  4  5  1  0
  5  6  1  0
  6  1  1  0
 22 16  1  0
  9 10  1  0
  9 11  1  0
 14 15  1  0
M  END
> <minimizedAffinity>
55.22017

> <CNNscore>
0.6876265407

> <CNNaffinity>
5.3004899025

> <CNN_VS>
3.6447575092

> <CNNaffinity_variance>
0.0913026109

$$$$



 22 23  0  0  0  0  0  0  0  0999 V2000
    6.2270   -0.8177   -5.4257 C   0  0  0  0  0  0  0  0  0  0  0  0
    6.9889    0.4328   -5.9099 C   0  0  0  0  0  0  0  0  0  0  0  0
    6.0357    1.5135   -6.4202 C   0  0  0  0  0  0  0  0  0  0  0  0
    5.1302    0.9725   -7.5309 C   0  0  0  0  0  0  0  0  0  0  0  0
    4.3652   -0.2709   -7.0669 C   0  0  0  0  0  0  0  0  0  0  0  0
    5.3162   -1.3516   -6.5485 C   0  0  0  0  0  0  0  0  0  0  0  0
    8.1890   -1.2698   -3.8438 C   0  0  0  0  0  0  0  0  0  0  0  0
    7.1912   -1.8807   -4.8302 C   0  0  0  0  0  0  0  0  0  0  0  0
    6.5137   -2.9947   -4.1691 N   0  0  0  0  0  0  0  0  0  0  0  0
    6.0130   -2.6502   -3.3499 H   0  0  0  0  0  0  0  0  0  0  0  0
    7.2032   -3.6883   -3.8794 H   0  0  0  0  0  0  0  0  0  0  0  0
    4.1911    2.0495   -8.0775 C   0  0  0  0  0  0  0  0  0  0  0  0
    3.9413    2.0918   -9.2788 O   0  0  0  0  0  0  0  0  0  0  0  0
    3.6909    2.9115   -7.1181 N   0  0  0  0  0  0  0  0  0  0  0  0
    3.9831    2.7511   -6.1918 H   0  0  0  0  0  0  0  0  0  0  0  0
    2.8079    3.9963   -7.3179 C   0  0  0  0  0  0  0  0  0  0  0  0
    3.3478    5.1665   -7.8571 C   0  0  0  0  0  0  0  0  0  0  0  0
    2.5119    6.2522   -8.0674 C   0  0  0  0  0  0  0  0  0  0  0  0
    1.1974    6.2481   -7.7808 N   0  0  0  0  0  0  0  0  0  0  0  0
    0.7049    5.1051   -7.2618 C   0  0  0  0  0  0  0  0  0  0  0  0
   -0.9751    5.1525   -6.9144 Cl  0  0  0  0  0  0  0  0  0  0  0  0
    1.4510    3.9662   -7.0128 C   0  0  0  0  0  0  0  0  0  0  0  0
  8  7  1  0
  8  9  1  0
  8  1  1  0
  1  2  1  0
  2  3  1  0
  3  4  1  0
  4 12  1  0
 12 13  2  0
 12 14  1  0
 14 16  1  0
 16 17  2  0
 17 18  1  0
 18 19  2  0
 19 20  1  0
 20 21  1  0
 20 22  2  0
  4  5  1  0
  5  6  1  0
  6  1  1  0
 22 16  1  0
  9 10  1  0
  9 11  1  0
 14 15  1  0
M  END
> <minimizedAffinity>
44.73578

> <CNNscore>
0.5809786320

> <CNNaffinity>
4.8290076256

> <CNN_VS>
2.8055503368

> <CNNaffinity_variance>
0.3639238775

$$$$



 22 23  0  0  0  0  0  0  0  0999 V2000
   13.8396    7.3843    3.2430 C   0  0  0  0  0  0  0  0  0  0  0  0
   13.1440    8.1495    4.3872 C   0  0  0  0  0  0  0  0  0  0  0  0
   11.6231    8.1362    4.2338 C   0  0  0  0  0  0  0  0  0  0  0  0
   11.1995    8.7010    2.8744 C   0  0  0  0  0  0  0  0  0  0  0  0
   11.8817    7.9520    1.7254 C   0  0  0  0  0  0  0  0  0  0  0  0
   13.4039    7.9571    1.8802 C   0  0  0  0  0  0  0  0  0  0  0  0
   15.7830    7.5961    4.8967 C   0  0  0  0  0  0  0  0  0  0  0  0
   15.3791    7.3273    3.4454 C   0  0  0  0  0  0  0  0  0  0  0  0
   15.9885    6.0671    3.0239 N   0  0  0  0  0  0  0  0  0  0  0  0
   15.6480    5.3099    3.6164 H   0  0  0  0  0  0  0  0  0  0  0  0
   17.0027    6.1350    3.1081 H   0  0  0  0  0  0  0  0  0  0  0  0
    9.6781    8.7263    2.7155 C   0  0  0  0  0  0  0  0  0  0  0  0
    9.1603    8.2611    1.7042 O   0  0  0  0  0  0  0  0  0  0  0  0
    9.0022    9.2980    3.7786 N   0  0  0  0  0  0  0  0  0  0  0  0
    9.5567    9.6280    4.5221 H   0  0  0  0  0  0  0  0  0  0  0  0
    7.6057    9.4618    3.9174 C   0  0  0  0  0  0  0  0  0  0  0  0
    7.1346    9.8864    5.1621 C   0  0  0  0  0  0  0  0  0  0  0  0
    5.7700   10.0582    5.3362 C   0  0  0  0  0  0  0  0  0  0  0  0
    4.8611    9.8386    4.3689 N   0  0  0  0  0  0  0  0  0  0  0  0
    5.3455    9.4296    3.1788 C   0  0  0  0  0  0  0  0  0  0  0  0
    4.1458    9.1639    1.9806 Cl  0  0  0  0  0  0  0  0  0  0  0  0
    6.6861    9.2277    2.9002 C   0  0  0  0  0  0  0  0  0  0  0  0
  8  7  1  0
  8  9  1  0
  8  1  1  0
  1  2  1  0
  2  3  1  0
  3  4  1  0
  4 12  1  0
 12 13  2  0
 12 14  1  0
 14 16  1  0
 16 17  2  0
 17 18  1  0
 18 19  2  0
 19 20  1  0
 20 21  1  0
 20 22  2  0
  4  5  1  0
  5  6  1  0
  6  1  1  0
 22 16  1  0
  9 10  1  0
  9 11  1  0
 14 15  1  0
M  END
> <minimizedAffinity>
-7.72727

> <CNNscore>
0.5019804835

> <CNNaffinity>
6.2652897835

> <CNN_VS>
3.1450531483

> <CNNaffinity_variance>
0.0413703471

$$$$



 22 23  0  0  0  0  0  0  0  0999 V2000
    8.4086   -0.9446   -1.9934 C   0  0  0  0  0  0  0  0  0  0  0  0
    8.2019    0.0542   -0.8366 C   0  0  0  0  0  0  0  0  0  0  0  0
    8.7711    1.4329   -1.1711 C   0  0  0  0  0  0  0  0  0  0  0  0
   10.2540    1.3431   -1.5448 C   0  0  0  0  0  0  0  0  0  0  0  0
   10.4778    0.3544   -2.6933 C   0  0  0  0  0  0  0  0  0  0  0  0
    9.9024   -1.0246   -2.3643 C   0  0  0  0  0  0  0  0  0  0  0  0
    6.8010   -2.7698   -2.7936 C   0  0  0  0  0  0  0  0  0  0  0  0
    7.7559   -2.3206   -1.6853 C   0  0  0  0  0  0  0  0  0  0  0  0
    8.7176   -3.3946   -1.4431 N   0  0  0  0  0  0  0  0  0  0  0  0
    9.2481   -3.5746   -2.2955 H   0  0  0  0  0  0  0  0  0  0  0  0
    8.2197   -4.2410   -1.1673 H   0  0  0  0  0  0  0  0  0  0  0  0
   10.8500    2.7183   -1.8512 C   0  0  0  0  0  0  0  0  0  0  0  0
   10.4329    3.7115   -1.2622 O   0  0  0  0  0  0  0  0  0  0  0  0
   11.8492    2.7075   -2.8079 N   0  0  0  0  0  0  0  0  0  0  0  0
   12.0761    1.8302   -3.1926 H   0  0  0  0  0  0  0  0  0  0  0  0
   12.5809    3.8138   -3.2950 C   0  0  0  0  0  0  0  0  0  0  0  0
   12.9864    4.7706   -2.3613 C   0  0  0  0  0  0  0  0  0  0  0  0
   13.7063    5.8702   -2.8021 C   0  0  0  0  0  0  0  0  0  0  0  0
   14.0424    6.0749   -4.0887 N   0  0  0  0  0  0  0  0  0  0  0  0
   13.6374    5.1348   -4.9665 C   0  0  0  0  0  0  0  0  0  0  0  0
   14.0914    5.4432   -6.5925 Cl  0  0  0  0  0  0  0  0  0  0  0  0
   12.9158    4.0020   -4.6320 C   0  0  0  0  0  0  0  0  0  0  0  0
  8  7  1  0
  8  9  1  0
  8  1  1  0
  1  2  1  0
  2  3  1  0
  3  4  1  0
  4 12  1  0
 12 13  2  0
 12 14  1  0
 14 16  1  0
 16 17  2  0
 17 18  1  0
 18 19  2  0
 19 20  1  0
 20 21  1  0
 20 22  2  0
  4  5  1  0
  5  6  1  0
  6  1  1  0
 22 16  1  0
  9 10  1  0
  9 11  1  0
 14 15  1  0
M  END
> <minimizedAffinity>
64.96177

> <CNNscore>
0.2507927418

> <CNNaffinity>
4.4919953346

> <CNN_VS>
1.1265598536

> <CNNaffinity_variance>
0.4219565392

$$$$



 22 23  0  0  0  0  0  0  0  0999 V2000
   19.3576   17.1299    8.0593 C   0  0  0  0  0  0  0  0  0  0  0  0
   20.4973   16.1685    8.4536 C   0  0  0  0  0  0  0  0  0  0  0  0
   20.0204   14.7171    8.5054 C   0  0  0  0  0  0  0  0  0  0  0  0
   18.8310   14.5596    9.4578 C   0  0  0  0  0  0  0  0  0  0  0  0
   17.6887   15.5080    9.0806 C   0  0  0  0  0  0  0  0  0  0  0  0
   18.1648   16.9609    9.0206 C   0  0  0  0  0  0  0  0  0  0  0  0
   18.7434   19.6145    8.1352 C   0  0  0  0  0  0  0  0  0  0  0  0
   19.8634   18.5930    7.9255 C   0  0  0  0  0  0  0  0  0  0  0  0
   20.9652   18.9266    8.8265 N   0  0  0  0  0  0  0  0  0  0  0  0
   20.6405   18.8803    9.7924 H   0  0  0  0  0  0  0  0  0  0  0  0
   21.2964   19.8698    8.6240 H   0  0  0  0  0  0  0  0  0  0  0  0
   18.3602   13.1067    9.5482 C   0  0  0  0  0  0  0  0  0  0  0  0
   17.9498   12.5325    8.5437 O   0  0  0  0  0  0  0  0  0  0  0  0
   18.4478   12.5556   10.8140 N   0  0  0  0  0  0  0  0  0  0  0  0
   18.7987   13.1423   11.5225 H   0  0  0  0  0  0  0  0  0  0  0  0
   18.0904   11.2457   11.2047 C   0  0  0  0  0  0  0  0  0  0  0  0
   18.3500   10.2166   10.2963 C   0  0  0  0  0  0  0  0  0  0  0  0
   18.0129    8.9179   10.6446 C   0  0  0  0  0  0  0  0  0  0  0  0
   17.4445    8.5837   11.8174 N   0  0  0  0  0  0  0  0  0  0  0  0
   17.2060    9.5978   12.6735 C   0  0  0  0  0  0  0  0  0  0  0  0
   16.4807    9.1182   14.1531 Cl  0  0  0  0  0  0  0  0  0  0  0  0
   17.5031   10.9265   12.4247 C   0  0  0  0  0  0  0  0  0  0  0  0
  8  7  1  0
  8  9  1  0
  8  1  1  0
  1  2  1  0
  2  3  1  0
  3  4  1  0
  4 12  1  0
 12 13  2  0
 12 14  1  0
 14 16  1  0
 16 17  2  0
 17 18  1  0
 18 19  2  0
 19 20  1  0
 20 21  1  0
 20 22  2  0
  4  5  1  0
  5  6  1  0
  6  1  1  0
 22 16  1  0
  9 10  1  0
  9 11  1  0
 14 15  1  0
M  END
> <minimizedAffinity>
-4.17237

> <CNNscore>
0.2440466881

> <CNNaffinity>
3.4194672108

> <CNN_VS>
0.8345096707

> <CNNaffinity_variance>
0.4801783562

$$$$



 22 23  0  0  0  0  0  0  0  0999 V2000
   12.8909   10.5216    0.7362 C   0  0  0  0  0  0  0  0  0  0  0  0
   11.5881   10.4791   -0.0881 C   0  0  0  0  0  0  0  0  0  0  0  0
   10.3692   10.2093    0.7942 C   0  0  0  0  0  0  0  0  0  0  0  0
   10.5413    8.9143    1.5940 C   0  0  0  0  0  0  0  0  0  0  0  0
   11.8316    8.9392    2.4193 C   0  0  0  0  0  0  0  0  0  0  0  0
   13.0527    9.2166    1.5401 C   0  0  0  0  0  0  0  0  0  0  0  0
   15.2796    9.9039    0.0513 C   0  0  0  0  0  0  0  0  0  0  0  0
   14.1171   10.8787   -0.1489 C   0  0  0  0  0  0  0  0  0  0  0  0
   13.8183   10.9515   -1.5781 N   0  0  0  0  0  0  0  0  0  0  0  0
   13.5485   10.0278   -1.9165 H   0  0  0  0  0  0  0  0  0  0  0  0
   14.6456   11.2701   -2.0826 H   0  0  0  0  0  0  0  0  0  0  0  0
    9.3165    8.6101    2.4587 C   0  0  0  0  0  0  0  0  0  0  0  0
    9.1678    7.4892    2.9371 O   0  0  0  0  0  0  0  0  0  0  0  0
    8.4551    9.6796    2.6254 N   0  0  0  0  0  0  0  0  0  0  0  0
    8.7095   10.5191    2.1785 H   0  0  0  0  0  0  0  0  0  0  0  0
    7.2512    9.7029    3.3647 C   0  0  0  0  0  0  0  0  0  0  0  0
    7.3269   10.1314    4.6922 C   0  0  0  0  0  0  0  0  0  0  0  0
    6.1660   10.1676    5.4491 C   0  0  0  0  0  0  0  0  0  0  0  0
    4.9571    9.8112    4.9784 N   0  0  0  0  0  0  0  0  0  0  0  0
    4.9154    9.4021    3.6942 C   0  0  0  0  0  0  0  0  0  0  0  0
    3.3514    8.9592    3.1436 Cl  0  0  0  0  0  0  0  0  0  0  0  0
    6.0127    9.3288    2.8537 C   0  0  0  0  0  0  0  0  0  0  0  0
  8  7  1  0
  8  9  1  0
  8  1  1  0
  1  2  1  0
  2  3  1  0
  3  4  1  0
  4 12  1  0
 12 13  2  0
 12 14  1  0
 14 16  1  0
 16 17  2  0
 17 18  1  0
 18 19  2  0
 19 20  1  0
 20 21  1  0
 20 22  2  0
  4  5  1  0
  5  6  1  0
  6  1  1  0
 22 16  1  0
  9 10  1  0
  9 11  1  0
 14 15  1  0
M  END
> <minimizedAffinity>
-7.69918

> <CNNscore>
0.2274597138

> <CNNaffinity>
6.1869740486

> <CNN_VS>
1.4072873592

> <CNNaffinity_variance>
0.0420790203

$$$$
