


 18 19  0  0  0  0  0  0  0  0999 V2000
   19.1910   17.0679   18.0196 N   0  0  0  0  0  0  0  0  0  0  0  0
   18.2575   16.7898   19.0203 C   0  0  0  0  0  0  0  0  0  0  0  0
   16.9413   16.4744   18.6911 C   0  0  0  0  0  0  0  0  0  0  0  0
   15.9727   16.3151   19.6914 C   0  0  0  0  0  0  0  0  0  0  0  0
   16.2710   16.5039   21.0342 C   0  0  0  0  0  0  0  0  0  0  0  0
   15.3159   16.3419   21.9624 N   0  0  0  0  0  0  0  0  0  0  0  0
   15.6494   16.5402   23.2415 C   0  0  0  0  0  0  0  0  0  0  0  0
   14.6545   16.3836   24.1835 N   0  0  0  0  0  0  0  0  0  0  0  0
   16.8516   16.9182   23.6742 N   0  0  0  0  0  0  0  0  0  0  0  0
   17.7734   17.0669   22.7177 C   0  0  0  0  0  0  0  0  0  0  0  0
   18.9904   17.4355   23.2050 O   0  0  0  0  0  0  0  0  0  0  0  0
   17.5720   16.8762   21.3604 C   0  0  0  0  0  0  0  0  0  0  0  0
   18.5570   17.0399   20.3573 C   0  0  0  0  0  0  0  0  0  0  0  0
   18.9707   16.8880   17.0771 H   0  0  0  0  0  0  0  0  0  0  0  0
   20.0694   17.4440   18.2567 H   0  0  0  0  0  0  0  0  0  0  0  0
   13.7522   16.1054   23.9049 H   0  0  0  0  0  0  0  0  0  0  0  0
   14.8466   16.5500   25.1346 H   0  0  0  0  0  0  0  0  0  0  0  0
   19.1081   17.5599   24.1262 H   0  0  0  0  0  0  0  0  0  0  0  0
  1  2  1  0
  2  3  2  0
  3  4  1  0
  4  5  2  0
  5  6  1  0
  6  7  2  0
  7  8  1  0
  7  9  1  0
  9 10  2  0
 10 11  1  0
 10 12  1  0
 12 13  2  0
 13  2  1  0
 12  5  1  0
  1 14  1  0
  1 15  1  0
  8 16  1  0
  8 17  1  0
 11 18  1  0
M  END
> <minimizedAffinity>
-7.44301

> <CNNscore>
0.9834254980

> <CNNaffinity>
6.0120301247

> <CNN_VS>
5.9123835564

> <CNNaffinity_variance>
0.0020432426

$$$$



 18 19  0  0  0  0  0  0  0  0999 V2000
   15.7183   16.4108   16.2619 N   0  0  0  0  0  0  0  0  0  0  0  0
   15.9399   16.3382   17.6387 C   0  0  0  0  0  0  0  0  0  0  0  0
   14.8690   16.2214   18.5218 C   0  0  0  0  0  0  0  0  0  0  0  0
   15.0760   16.2715   19.9071 C   0  0  0  0  0  0  0  0  0  0  0  0
   16.3365   16.4793   20.4506 C   0  0  0  0  0  0  0  0  0  0  0  0
   16.4939   16.5209   21.7823 N   0  0  0  0  0  0  0  0  0  0  0  0
   17.7254   16.7292   22.2585 C   0  0  0  0  0  0  0  0  0  0  0  0
   17.8702   16.7832   23.6288 N   0  0  0  0  0  0  0  0  0  0  0  0
   18.8138   16.9314   21.5170 N   0  0  0  0  0  0  0  0  0  0  0  0
   18.6132   16.8805   20.1964 C   0  0  0  0  0  0  0  0  0  0  0  0
   19.7535   17.0739   19.4776 O   0  0  0  0  0  0  0  0  0  0  0  0
   17.3991   16.6545   19.5685 C   0  0  0  0  0  0  0  0  0  0  0  0
   17.2001   16.6059   18.1681 C   0  0  0  0  0  0  0  0  0  0  0  0
   14.8243   16.2199   15.8965 H   0  0  0  0  0  0  0  0  0  0  0  0
   16.4561   16.6527   15.6566 H   0  0  0  0  0  0  0  0  0  0  0  0
   17.0903   16.6393   24.2122 H   0  0  0  0  0  0  0  0  0  0  0  0
   18.7533   16.9657   24.0237 H   0  0  0  0  0  0  0  0  0  0  0  0
   20.5658   17.2253   19.9194 H   0  0  0  0  0  0  0  0  0  0  0  0
  1  2  1  0
  2  3  2  0
  3  4  1  0
  4  5  2  0
  5  6  1  0
  6  7  2  0
  7  8  1  0
  7  9  1  0
  9 10  2  0
 10 11  1  0
 10 12  1  0
 12 13  2  0
 13  2  1  0
 12  5  1  0
  1 14  1  0
  1 15  1  0
  8 16  1  0
  8 17  1  0
 11 18  1  0
M  END
> <minimizedAffinity>
-6.77927

> <CNNscore>
0.8968378901

> <CNNaffinity>
5.1450266838

> <CNN_VS>
4.6142549515

> <CNNaffinity_variance>
0.1516004354

$$$$



 18 19  0  0  0  0  0  0  0  0999 V2000
   20.0232   20.3049   11.7601 N   0  0  0  0  0  0  0  0  0  0  0  0
   21.1533   19.5173   11.5307 C   0  0  0  0  0  0  0  0  0  0  0  0
   21.0380   18.2846   10.8924 C   0  0  0  0  0  0  0  0  0  0  0  0
   22.1473   17.4368   10.7691 C   0  0  0  0  0  0  0  0  0  0  0  0
   23.3831   17.7674   11.3085 C   0  0  0  0  0  0  0  0  0  0  0  0
   24.4213   16.9289   11.1694 N   0  0  0  0  0  0  0  0  0  0  0  0
   25.5896   17.2878   11.7108 C   0  0  0  0  0  0  0  0  0  0  0  0
   26.6442   16.4103   11.5719 N   0  0  0  0  0  0  0  0  0  0  0  0
   25.8048   18.4020   12.4090 N   0  0  0  0  0  0  0  0  0  0  0  0
   24.7455   19.2092   12.5224 C   0  0  0  0  0  0  0  0  0  0  0  0
   25.0143   20.3432   13.2269 O   0  0  0  0  0  0  0  0  0  0  0  0
   23.4854   18.9726   11.9975 C   0  0  0  0  0  0  0  0  0  0  0  0
   22.3710   19.8353   12.1275 C   0  0  0  0  0  0  0  0  0  0  0  0
   19.1666   20.0727   11.3341 H   0  0  0  0  0  0  0  0  0  0  0  0
   20.0831   21.0924   12.3479 H   0  0  0  0  0  0  0  0  0  0  0  0
   26.5264   15.5756   11.0633 H   0  0  0  0  0  0  0  0  0  0  0  0
   27.5150   16.6185   11.9812 H   0  0  0  0  0  0  0  0  0  0  0  0
   25.8725   20.4864   13.5747 H   0  0  0  0  0  0  0  0  0  0  0  0
  1  2  1  0
  2  3  2  0
  3  4  1  0
  4  5  2  0
  5  6  1  0
  6  7  2  0
  7  8  1  0
  7  9  1  0
  9 10  2  0
 10 11  1  0
 10 12  1  0
 12 13  2  0
 13  2  1  0
 12  5  1  0
  1 14  1  0
  1 15  1  0
  8 16  1  0
  8 17  1  0
 11 18  1  0
M  END
> <minimizedAffinity>
-5.76050

> <CNNscore>
0.8586692214

> <CNNaffinity>
3.7963120937

> <CNN_VS>
3.2597763538

> <CNNaffinity_variance>
0.4497040510

$$$$



 18 19  0  0  0  0  0  0  0  0999 V2000
   25.3688   22.7740   10.8364 N   0  0  0  0  0  0  0  0  0  0  0  0
   24.7124   21.5531   11.0050 C   0  0  0  0  0  0  0  0  0  0  0  0
   23.4313   21.5086   11.5500 C   0  0  0  0  0  0  0  0  0  0  0  0
   22.8176   20.2811   11.8346 C   0  0  0  0  0  0  0  0  0  0  0  0
   23.4692   19.0729   11.6270 C   0  0  0  0  0  0  0  0  0  0  0  0
   22.8478   17.9184   11.9119 N   0  0  0  0  0  0  0  0  0  0  0  0
   23.5176   16.7811   11.7008 C   0  0  0  0  0  0  0  0  0  0  0  0
   22.8718   15.6028   12.0109 N   0  0  0  0  0  0  0  0  0  0  0  0
   24.7711   16.6966   11.2570 N   0  0  0  0  0  0  0  0  0  0  0  0
   25.3524   17.8690   10.9843 C   0  0  0  0  0  0  0  0  0  0  0  0
   26.6244   17.7357   10.5168 O   0  0  0  0  0  0  0  0  0  0  0  0
   24.7714   19.1174   11.1371 C   0  0  0  0  0  0  0  0  0  0  0  0
   25.3997   20.3520   10.8469 C   0  0  0  0  0  0  0  0  0  0  0  0
   24.8750   23.6181   10.9501 H   0  0  0  0  0  0  0  0  0  0  0  0
   26.3253   22.7907   10.6039 H   0  0  0  0  0  0  0  0  0  0  0  0
   21.9448   15.6220   12.3420 H   0  0  0  0  0  0  0  0  0  0  0  0
   23.3376   14.7425   11.9012 H   0  0  0  0  0  0  0  0  0  0  0  0
   27.0010   16.8832   10.4200 H   0  0  0  0  0  0  0  0  0  0  0  0
  1  2  1  0
  2  3  2  0
  3  4  1  0
  4  5  2  0
  5  6  1  0
  6  7  2  0
  7  8  1  0
  7  9  1  0
  9 10  2  0
 10 11  1  0
 10 12  1  0
 12 13  2  0
 13  2  1  0
 12  5  1  0
  1 14  1  0
  1 15  1  0
  8 16  1  0
  8 17  1  0
 11 18  1  0
M  END
> <minimizedAffinity>
-4.94994

> <CNNscore>
0.7300464511

> <CNNaffinity>
3.5322227478

> <CNN_VS>
2.5786867142

> <CNNaffinity_variance>
0.4041374624

$$$$



 18 19  0  0  0  0  0  0  0  0999 V2000
   15.3406   16.4743   24.0345 N   0  0  0  0  0  0  0  0  0  0  0  0
   16.2269   16.5260   22.9567 C   0  0  0  0  0  0  0  0  0  0  0  0
   17.5498   16.9183   23.1476 C   0  0  0  0  0  0  0  0  0  0  0  0
   18.4095   17.0899   22.0541 C   0  0  0  0  0  0  0  0  0  0  0  0
   17.9728   16.9190   20.7473 C   0  0  0  0  0  0  0  0  0  0  0  0
   18.8266   17.0925   19.7270 N   0  0  0  0  0  0  0  0  0  0  0  0
   18.3586   16.9225   18.4865 C   0  0  0  0  0  0  0  0  0  0  0  0
   19.2436   17.1174   17.4471 N   0  0  0  0  0  0  0  0  0  0  0  0
   17.0986   16.6233   18.1731 N   0  0  0  0  0  0  0  0  0  0  0  0
   16.2821   16.4580   19.2184 C   0  0  0  0  0  0  0  0  0  0  0  0
   15.0102   16.1358   18.8538 O   0  0  0  0  0  0  0  0  0  0  0  0
   16.6360   16.5839   20.5519 C   0  0  0  0  0  0  0  0  0  0  0  0
   15.7600   16.4086   21.6497 C   0  0  0  0  0  0  0  0  0  0  0  0
   15.6795   16.5581   24.9550 H   0  0  0  0  0  0  0  0  0  0  0  0
   14.3767   16.3540   23.8739 H   0  0  0  0  0  0  0  0  0  0  0  0
   20.1838   17.3401   17.6363 H   0  0  0  0  0  0  0  0  0  0  0  0
   18.9354   17.0338   16.5159 H   0  0  0  0  0  0  0  0  0  0  0  0
   14.7891   16.0550   17.9469 H   0  0  0  0  0  0  0  0  0  0  0  0
  1  2  1  0
  2  3  2  0
  3  4  1  0
  4  5  2  0
  5  6  1  0
  6  7  2  0
  7  8  1  0
  7  9  1  0
  9 10  2  0
 10 11  1  0
 10 12  1  0
 12 13  2  0
 13  2  1  0
 12  5  1  0
  1 14  1  0
  1 15  1  0
  8 16  1  0
  8 17  1  0
 11 18  1  0
M  END
> <minimizedAffinity>
-7.24891

> <CNNscore>
0.5655296445

> <CNNaffinity>
5.1080842018

> <CNN_VS>
2.8887729645

> <CNNaffinity_variance>
0.2988691628

$$$$



 18 19  0  0  0  0  0  0  0  0999 V2000
   20.8952   21.7559   11.7939 N   0  0  0  0  0  0  0  0  0  0  0  0
   22.0311   20.9443   11.8237 C   0  0  0  0  0  0  0  0  0  0  0  0
   23.3015   21.5016   11.6976 C   0  0  0  0  0  0  0  0  0  0  0  0
   24.4352   20.6829   11.6038 C   0  0  0  0  0  0  0  0  0  0  0  0
   24.3374   19.2980   11.5905 C   0  0  0  0  0  0  0  0  0  0  0  0
   25.4465   18.5485   11.4994 N   0  0  0  0  0  0  0  0  0  0  0  0
   25.3016   17.2197   11.4845 C   0  0  0  0  0  0  0  0  0  0  0  0
   26.4488   16.4622   11.3768 N   0  0  0  0  0  0  0  0  0  0  0  0
   24.1381   16.5715   11.5215 N   0  0  0  0  0  0  0  0  0  0  0  0
   23.0592   17.3553   11.6134 C   0  0  0  0  0  0  0  0  0  0  0  0
   21.8943   16.6521   11.6669 O   0  0  0  0  0  0  0  0  0  0  0  0
   23.0640   18.7400   11.6577 C   0  0  0  0  0  0  0  0  0  0  0  0
   21.9131   19.5583   11.7523 C   0  0  0  0  0  0  0  0  0  0  0  0
   20.9880   22.7347   11.8448 H   0  0  0  0  0  0  0  0  0  0  0  0
   20.0014   21.3493   11.7219 H   0  0  0  0  0  0  0  0  0  0  0  0
   27.3286   16.9028   11.3462 H   0  0  0  0  0  0  0  0  0  0  0  0
   26.3880   15.4806   11.3304 H   0  0  0  0  0  0  0  0  0  0  0  0
   21.9104   15.7158   11.6357 H   0  0  0  0  0  0  0  0  0  0  0  0
  1  2  1  0
  2  3  2  0
  3  4  1  0
  4  5  2  0
  5  6  1  0
  6  7  2  0
  7  8  1  0
  7  9  1  0
  9 10  2  0
 10 11  1  0
 10 12  1  0
 12 13  2  0
 13  2  1  0
 12  5  1  0
  1 14  1  0
  1 15  1  0
  8 16  1  0
  8 17  1  0
 11 18  1  0
M  END
> <minimizedAffinity>
-4.73661

> <CNNscore>
0.5439308882

> <CNNaffinity>
3.6051864624

> <CNN_VS>
1.9609723091

> <CNNaffinity_variance>
0.5024578571

$$$$



 18 19  0  0  0  0  0  0  0  0999 V2000
   18.9733   18.8159   10.9572 N   0  0  0  0  0  0  0  0  0  0  0  0
   20.3082   18.7881   11.3665 C   0  0  0  0  0  0  0  0  0  0  0  0
   21.0351   19.9701   11.4874 C   0  0  0  0  0  0  0  0  0  0  0  0
   22.4059   19.9398   11.7782 C   0  0  0  0  0  0  0  0  0  0  0  0
   23.0976   18.7439   11.9148 C   0  0  0  0  0  0  0  0  0  0  0  0
   24.4100   18.7565   12.1934 N   0  0  0  0  0  0  0  0  0  0  0  0
   25.0341   17.5802   12.3099 C   0  0  0  0  0  0  0  0  0  0  0  0
   26.3855   17.6084   12.5829 N   0  0  0  0  0  0  0  0  0  0  0  0
   24.4659   16.3869   12.1409 N   0  0  0  0  0  0  0  0  0  0  0  0
   23.1582   16.4195   11.8662 C   0  0  0  0  0  0  0  0  0  0  0  0
   22.6147   15.1796   11.7196 O   0  0  0  0  0  0  0  0  0  0  0  0
   22.3848   17.5616   11.7365 C   0  0  0  0  0  0  0  0  0  0  0  0
   21.0005   17.5819   11.4424 C   0  0  0  0  0  0  0  0  0  0  0  0
   18.4918   19.6731   10.9065 H   0  0  0  0  0  0  0  0  0  0  0  0
   18.5138   17.9783   10.7195 H   0  0  0  0  0  0  0  0  0  0  0  0
   26.8433   18.4701   12.7144 H   0  0  0  0  0  0  0  0  0  0  0  0
   26.8926   16.7669   12.6463 H   0  0  0  0  0  0  0  0  0  0  0  0
   23.1532   14.4182   11.8108 H   0  0  0  0  0  0  0  0  0  0  0  0
  1  2  1  0
  2  3  2  0
  3  4  1  0
  4  5  2  0
  5  6  1  0
  6  7  2  0
  7  8  1  0
  7  9  1  0
  9 10  2  0
 10 11  1  0
 10 12  1  0
 12 13  2  0
 13  2  1  0
 12  5  1  0
  1 14  1  0
  1 15  1  0
  8 16  1  0
  8 17  1  0
 11 18  1  0
M  END
> <minimizedAffinity>
-4.83614

> <CNNscore>
0.4385384619

> <CNNaffinity>
3.5638744831

> <CNN_VS>
1.5628960133

> <CNNaffinity_variance>
0.2045324594

$$$$



 18 19  0  0  0  0  0  0  0  0999 V2000
   26.2014   16.5155   11.5295 N   0  0  0  0  0  0  0  0  0  0  0  0
   25.0808   17.3479   11.4907 C   0  0  0  0  0  0  0  0  0  0  0  0
   25.2210   18.7281   11.6150 C   0  0  0  0  0  0  0  0  0  0  0  0
   24.0936   19.5565   11.6998 C   0  0  0  0  0  0  0  0  0  0  0  0
   22.8053   19.0389   11.7058 C   0  0  0  0  0  0  0  0  0  0  0  0
   21.7513   19.8649   11.7883 N   0  0  0  0  0  0  0  0  0  0  0  0
   20.5309   19.3197   11.7965 C   0  0  0  0  0  0  0  0  0  0  0  0
   19.4574   20.1796   11.8955 N   0  0  0  0  0  0  0  0  0  0  0  0
   20.2708   18.0134   11.7603 N   0  0  0  0  0  0  0  0  0  0  0  0
   21.3481   17.2266   11.6770 C   0  0  0  0  0  0  0  0  0  0  0  0
   21.0363   15.9021   11.6241 O   0  0  0  0  0  0  0  0  0  0  0  0
   22.6650   17.6555   11.6405 C   0  0  0  0  0  0  0  0  0  0  0  0
   23.7974   16.8108   11.5548 C   0  0  0  0  0  0  0  0  0  0  0  0
   27.1049   16.9039   11.4836 H   0  0  0  0  0  0  0  0  0  0  0  0
   26.0879   15.5403   11.6027 H   0  0  0  0  0  0  0  0  0  0  0  0
   19.6069   21.1522   11.9251 H   0  0  0  0  0  0  0  0  0  0  0  0
   18.5415   19.8209   11.9366 H   0  0  0  0  0  0  0  0  0  0  0  0
   20.1399   15.6304   11.6500 H   0  0  0  0  0  0  0  0  0  0  0  0
  1  2  1  0
  2  3  2  0
  3  4  1  0
  4  5  2  0
  5  6  1  0
  6  7  2  0
  7  8  1  0
  7  9  1  0
  9 10  2  0
 10 11  1  0
 10 12  1  0
 12 13  2  0
 13  2  1  0
 12  5  1  0
  1 14  1  0
  1 15  1  0
  8 16  1  0
  8 17  1  0
 11 18  1  0
M  END
> <minimizedAffinity>
-4.81474

> <CNNscore>
0.4262776077

> <CNNaffinity>
4.1768388748

> <CNN_VS>
1.7804929018

> <CNNaffinity_variance>
0.0198917761

$$$$



 18 19  0  0  0  0  0  0  0  0999 V2000
   11.6818   15.4226   17.3071 N   0  0  0  0  0  0  0  0  0  0  0  0
   12.9778   15.9363   17.2260 C   0  0  0  0  0  0  0  0  0  0  0  0
   13.5097   16.3220   15.9978 C   0  0  0  0  0  0  0  0  0  0  0  0
   14.8488   16.7222   15.8926 C   0  0  0  0  0  0  0  0  0  0  0  0
   15.7029   16.7110   16.9871 C   0  0  0  0  0  0  0  0  0  0  0  0
   16.9787   17.1016   16.8459 N   0  0  0  0  0  0  0  0  0  0  0  0
   17.7644   17.0681   17.9268 C   0  0  0  0  0  0  0  0  0  0  0  0
   19.0767   17.4592   17.7641 N   0  0  0  0  0  0  0  0  0  0  0  0
   17.3937   16.6472   19.1355 N   0  0  0  0  0  0  0  0  0  0  0  0
   16.1155   16.2687   19.2327 C   0  0  0  0  0  0  0  0  0  0  0  0
   15.7749   15.8638   20.4875 O   0  0  0  0  0  0  0  0  0  0  0  0
   15.1885   16.2702   18.2031 C   0  0  0  0  0  0  0  0  0  0  0  0
   13.8377   15.8639   18.3193 C   0  0  0  0  0  0  0  0  0  0  0  0
   11.0808   15.4781   16.5293 H   0  0  0  0  0  0  0  0  0  0  0  0
   11.3692   15.0049   18.1419 H   0  0  0  0  0  0  0  0  0  0  0  0
   19.3905   17.7766   16.8866 H   0  0  0  0  0  0  0  0  0  0  0  0
   19.6997   17.4210   18.5254 H   0  0  0  0  0  0  0  0  0  0  0  0
   16.4152   15.8695   21.1716 H   0  0  0  0  0  0  0  0  0  0  0  0
  1  2  1  0
  2  3  2  0
  3  4  1  0
  4  5  2  0
  5  6  1  0
  6  7  2  0
  7  8  1  0
  7  9  1  0
  9 10  2  0
 10 11  1  0
 10 12  1  0
 12 13  2  0
 13  2  1  0
 12  5  1  0
  1 14  1  0
  1 15  1  0
  8 16  1  0
  8 17  1  0
 11 18  1  0
M  END
> <minimizedAffinity>
-6.47558

> <CNNscore>
0.4120590985

> <CNNaffinity>
3.7400932312

> <CNN_VS>
1.5411394835

> <CNNaffinity_variance>
0.7196195722

$$$$
