


 26 28  0  0  0  0  0  0  0  0999 V2000
   53.9465    1.4271    3.3839 N   0  0  0  0  0  0  0  0  0  0  0  0
   55.0803    1.0786    3.8899 C   0  0  0  0  0  0  0  0  0  0  0  0
   55.8530    1.9280    4.6330 O   0  0  0  0  0  0  0  0  0  0  0  0
   57.1827    1.3676    4.6879 C   0  0  0  0  0  0  0  0  0  0  0  0
   56.9784   -0.1209    4.4767 C   0  0  0  0  0  0  0  0  0  0  0  0
   57.9789   -0.7991    3.5335 C   0  0  0  0  0  0  0  0  0  0  0  0
   58.0982   -2.1905    3.8317 O   0  0  0  0  0  0  0  0  0  0  0  0
   57.3527   -0.6322    2.1522 C   0  0  0  0  0  0  0  0  0  0  0  0
   55.8541   -0.7361    2.4330 C   0  0  0  0  0  0  0  0  0  0  0  0
   55.7018   -0.1365    3.7567 N   0  0  0  0  0  0  0  0  0  0  0  0
   57.2262   -2.6107    3.7682 H   0  0  0  0  0  0  0  0  0  0  0  0
   51.1239    1.8559    3.9479 C   0  0  0  0  0  0  0  0  0  0  0  0
   52.1262    2.9826    3.9260 C   0  0  0  0  0  0  0  0  0  0  0  0
   53.4796    2.7249    3.6395 C   0  0  0  0  0  0  0  0  0  0  0  0
   54.4065    3.7713    3.6511 C   0  0  0  0  0  0  0  0  0  0  0  0
   54.0017    5.0811    3.9043 C   0  0  0  0  0  0  0  0  0  0  0  0
   55.2222    6.3076    3.8837 Cl  0  0  0  0  0  0  0  0  0  0  0  0
   52.6576    5.3699    4.1580 C   0  0  0  0  0  0  0  0  0  0  0  0
   51.7244    4.3167    4.1664 C   0  0  0  0  0  0  0  0  0  0  0  0
   50.0429    4.6555    4.4696 Cl  0  0  0  0  0  0  0  0  0  0  0  0
   52.2436    6.7210    4.4071 C   0  0  0  0  0  0  0  0  0  0  0  0
   51.9076    7.8137    4.6089 N   0  0  0  0  0  0  0  0  0  0  0  0
   57.8721    1.6260    6.0102 C   0  0  0  0  0  0  0  0  0  0  0  0
   57.4163    2.7783    6.5557 F   0  0  0  0  0  0  0  0  0  0  0  0
   59.2098    1.7402    5.8782 F   0  0  0  0  0  0  0  0  0  0  0  0
   57.6217    0.6378    6.8966 F   0  0  0  0  0  0  0  0  0  0  0  0
 12 13  1  0
 13 14  2  0
 14  1  1  0
  1  2  2  0
  2  3  1  0
  3  4  1  0
  4 23  1  0
 23 24  1  0
 23 25  1  0
 23 26  1  0
  4  5  1  0
  5  6  1  0
  6  7  1  0
  6  8  1  0
  8  9  1  0
  9 10  1  0
 14 15  1  0
 15 16  2  0
 16 17  1  0
 16 18  1  0
 18 21  1  0
 21 22  3  0
 18 19  2  0
 19 20  1  0
 19 13  1  0
 10  2  1  0
  5 10  1  0
  7 11  1  0
M  END
> <minimizedAffinity>
-9.10586

> <CNNscore>
0.9648019075

> <CNNaffinity>
8.5530996323

> <CNN_VS>
8.2520465851

> <CNNaffinity_variance>
0.5331274867

$$$$



 26 28  0  0  0  0  0  0  0  0999 V2000
   53.8154    1.5991    3.1809 N   0  0  0  0  0  0  0  0  0  0  0  0
   54.8407    1.1148    3.7949 C   0  0  0  0  0  0  0  0  0  0  0  0
   55.5406    1.8170    4.7372 O   0  0  0  0  0  0  0  0  0  0  0  0
   56.8144    1.1591    4.9098 C   0  0  0  0  0  0  0  0  0  0  0  0
   56.5617   -0.2774    4.4922 C   0  0  0  0  0  0  0  0  0  0  0  0
   57.6519   -0.9158    3.6235 C   0  0  0  0  0  0  0  0  0  0  0  0
   57.6485   -2.3369    3.7637 O   0  0  0  0  0  0  0  0  0  0  0  0
   57.2474   -0.5496    2.1986 C   0  0  0  0  0  0  0  0  0  0  0  0
   55.7203   -0.5757    2.2512 C   0  0  0  0  0  0  0  0  0  0  0  0
   55.4070   -0.1195    3.6034 N   0  0  0  0  0  0  0  0  0  0  0  0
   56.7737   -2.6830    3.5275 H   0  0  0  0  0  0  0  0  0  0  0  0
   55.7292    3.7914    3.1960 C   0  0  0  0  0  0  0  0  0  0  0  0
   54.2731    3.9844    3.5380 C   0  0  0  0  0  0  0  0  0  0  0  0
   53.3883    2.8902    3.5245 C   0  0  0  0  0  0  0  0  0  0  0  0
   52.0345    3.0845    3.8136 C   0  0  0  0  0  0  0  0  0  0  0  0
   51.5513    4.3464    4.1565 C   0  0  0  0  0  0  0  0  0  0  0  0
   49.8626    4.4813    4.5094 Cl  0  0  0  0  0  0  0  0  0  0  0  0
   52.4152    5.4442    4.2109 C   0  0  0  0  0  0  0  0  0  0  0  0
   53.7751    5.2568    3.9017 C   0  0  0  0  0  0  0  0  0  0  0  0
   54.8711    6.6087    3.9737 Cl  0  0  0  0  0  0  0  0  0  0  0  0
   51.9157    6.7391    4.5751 C   0  0  0  0  0  0  0  0  0  0  0  0
   51.5112    7.7864    4.8706 N   0  0  0  0  0  0  0  0  0  0  0  0
   57.3136    1.2165    6.3375 C   0  0  0  0  0  0  0  0  0  0  0  0
   56.5696    2.0900    7.0562 F   0  0  0  0  0  0  0  0  0  0  0  0
   58.5994    1.6170    6.4162 F   0  0  0  0  0  0  0  0  0  0  0  0
   57.2121    0.0130    6.9424 F   0  0  0  0  0  0  0  0  0  0  0  0
 12 13  1  0
 13 14  2  0
 14  1  1  0
  1  2  2  0
  2  3  1  0
  3  4  1  0
  4 23  1  0
 23 24  1  0
 23 25  1  0
 23 26  1  0
  4  5  1  0
  5  6  1  0
  6  7  1  0
  6  8  1  0
  8  9  1  0
  9 10  1  0
 14 15  1  0
 15 16  2  0
 16 17  1  0
 16 18  1  0
 18 21  1  0
 21 22  3  0
 18 19  2  0
 19 20  1  0
 19 13  1  0
 10  2  1  0
  5 10  1  0
  7 11  1  0
M  END
> <minimizedAffinity>
-8.31510

> <CNNscore>
0.8868124485

> <CNNaffinity>
8.4285907745

> <CNN_VS>
7.4745793343

> <CNNaffinity_variance>
0.8101325035

$$$$



 26 28  0  0  0  0  0  0  0  0999 V2000
   55.7445    3.3733    4.3891 N   0  0  0  0  0  0  0  0  0  0  0  0
   56.0415    2.1240    4.2704 C   0  0  0  0  0  0  0  0  0  0  0  0
   55.0948    1.1475    4.1257 O   0  0  0  0  0  0  0  0  0  0  0  0
   55.7269   -0.1160    4.4242 C   0  0  0  0  0  0  0  0  0  0  0  0
   57.1986    0.1167    4.1382 C   0  0  0  0  0  0  0  0  0  0  0  0
   58.1733   -0.4650    5.1689 C   0  0  0  0  0  0  0  0  0  0  0  0
   59.4470   -0.7231    4.5772 O   0  0  0  0  0  0  0  0  0  0  0  0
   58.3158    0.6445    6.2065 C   0  0  0  0  0  0  0  0  0  0  0  0
   58.2244    1.9198    5.3694 C   0  0  0  0  0  0  0  0  0  0  0  0
   57.2959    1.5705    4.2966 N   0  0  0  0  0  0  0  0  0  0  0  0
   59.7984    0.0965    4.1957 H   0  0  0  0  0  0  0  0  0  0  0  0
   55.0238    6.1587    3.9523 C   0  0  0  0  0  0  0  0  0  0  0  0
   53.9922    5.0708    4.1163 C   0  0  0  0  0  0  0  0  0  0  0  0
   54.3916    3.7391    4.3340 C   0  0  0  0  0  0  0  0  0  0  0  0
   53.4285    2.7331    4.4547 C   0  0  0  0  0  0  0  0  0  0  0  0
   52.0687    3.0361    4.4025 C   0  0  0  0  0  0  0  0  0  0  0  0
   50.9552    1.7229    4.5749 Cl  0  0  0  0  0  0  0  0  0  0  0  0
   51.6442    4.3558    4.2214 C   0  0  0  0  0  0  0  0  0  0  0  0
   52.6106    5.3688    4.0800 C   0  0  0  0  0  0  0  0  0  0  0  0
   52.1038    7.0214    3.8643 Cl  0  0  0  0  0  0  0  0  0  0  0  0
   50.2436    4.6648    4.1793 C   0  0  0  0  0  0  0  0  0  0  0  0
   49.1103    4.9142    4.1462 N   0  0  0  0  0  0  0  0  0  0  0  0
   55.1948   -1.2511    3.5761 C   0  0  0  0  0  0  0  0  0  0  0  0
   54.5842   -0.7605    2.4716 F   0  0  0  0  0  0  0  0  0  0  0  0
   54.2936   -2.0069    4.2367 F   0  0  0  0  0  0  0  0  0  0  0  0
   56.1917   -2.0598    3.1556 F   0  0  0  0  0  0  0  0  0  0  0  0
 12 13  1  0
 13 14  2  0
 14  1  1  0
  1  2  2  0
  2  3  1  0
  3  4  1  0
  4 23  1  0
 23 24  1  0
 23 25  1  0
 23 26  1  0
  4  5  1  0
  5  6  1  0
  6  7  1  0
  6  8  1  0
  8  9  1  0
  9 10  1  0
 14 15  1  0
 15 16  2  0
 16 17  1  0
 16 18  1  0
 18 21  1  0
 21 22  3  0
 18 19  2  0
 19 20  1  0
 19 13  1  0
 10  2  1  0
  5 10  1  0
  7 11  1  0
M  END
> <minimizedAffinity>
-5.27914

> <CNNscore>
0.6917014122

> <CNNaffinity>
7.8543872833

> <CNN_VS>
5.4328908920

> <CNNaffinity_variance>
0.3343251050

$$$$



 26 28  0  0  0  0  0  0  0  0999 V2000
   56.3206    3.4725    4.3238 N   0  0  0  0  0  0  0  0  0  0  0  0
   56.4118    2.2084    4.0857 C   0  0  0  0  0  0  0  0  0  0  0  0
   55.3252    1.4267    3.8048 O   0  0  0  0  0  0  0  0  0  0  0  0
   55.7216    0.0508    3.9923 C   0  0  0  0  0  0  0  0  0  0  0  0
   57.2247    0.0554    3.7867 C   0  0  0  0  0  0  0  0  0  0  0  0
   58.0322   -0.7814    4.7859 C   0  0  0  0  0  0  0  0  0  0  0  0
   59.2753   -1.1947    4.2176 O   0  0  0  0  0  0  0  0  0  0  0  0
   58.3009    0.1814    5.9386 C   0  0  0  0  0  0  0  0  0  0  0  0
   58.4679    1.5287    5.2368 C   0  0  0  0  0  0  0  0  0  0  0  0
   57.5535    1.4489    4.1000 N   0  0  0  0  0  0  0  0  0  0  0  0
   59.7781   -0.4140    3.9373 H   0  0  0  0  0  0  0  0  0  0  0  0
   53.9745    1.9542    5.1357 C   0  0  0  0  0  0  0  0  0  0  0  0
   53.8889    3.3784    4.6469 C   0  0  0  0  0  0  0  0  0  0  0  0
   55.0522    4.0677    4.2575 C   0  0  0  0  0  0  0  0  0  0  0  0
   54.9664    5.3973    3.8344 C   0  0  0  0  0  0  0  0  0  0  0  0
   53.7334    6.0428    3.7535 C   0  0  0  0  0  0  0  0  0  0  0  0
   53.7307    7.6844    3.2062 Cl  0  0  0  0  0  0  0  0  0  0  0  0
   52.5582    5.3703    4.1016 C   0  0  0  0  0  0  0  0  0  0  0  0
   52.6423    4.0379    4.5466 C   0  0  0  0  0  0  0  0  0  0  0  0
   51.1895    3.1776    4.9752 Cl  0  0  0  0  0  0  0  0  0  0  0  0
   51.2902    6.0349    4.0063 C   0  0  0  0  0  0  0  0  0  0  0  0
   50.2645    6.5731    3.9282 N   0  0  0  0  0  0  0  0  0  0  0  0
   55.0548   -0.8889    3.0110 C   0  0  0  0  0  0  0  0  0  0  0  0
   54.2560   -0.1923    2.1684 F   0  0  0  0  0  0  0  0  0  0  0  0
   54.2887   -1.8139    3.6253 F   0  0  0  0  0  0  0  0  0  0  0  0
   55.9666   -1.5365    2.2534 F   0  0  0  0  0  0  0  0  0  0  0  0
 12 13  1  0
 13 14  2  0
 14  1  1  0
  1  2  2  0
  2  3  1  0
  3  4  1  0
  4 23  1  0
 23 24  1  0
 23 25  1  0
 23 26  1  0
  4  5  1  0
  5  6  1  0
  6  7  1  0
  6  8  1  0
  8  9  1  0
  9 10  1  0
 14 15  1  0
 15 16  2  0
 16 17  1  0
 16 18  1  0
 18 21  1  0
 21 22  3  0
 18 19  2  0
 19 20  1  0
 19 13  1  0
 10  2  1  0
  5 10  1  0
  7 11  1  0
M  END
> <minimizedAffinity>
-3.21907

> <CNNscore>
0.6775490046

> <CNNaffinity>
7.9616036415

> <CNN_VS>
5.3943767548

> <CNNaffinity_variance>
0.3993091583

$$$$



 26 28  0  0  0  0  0  0  0  0999 V2000
   55.6207    4.0127    4.3820 N   0  0  0  0  0  0  0  0  0  0  0  0
   54.3598    4.2786    4.4308 C   0  0  0  0  0  0  0  0  0  0  0  0
   53.3940    3.3231    4.2726 O   0  0  0  0  0  0  0  0  0  0  0  0
   52.1540    4.0046    3.9843 C   0  0  0  0  0  0  0  0  0  0  0  0
   52.3253    5.3831    4.5945 C   0  0  0  0  0  0  0  0  0  0  0  0
   51.8302    6.5531    3.7362 C   0  0  0  0  0  0  0  0  0  0  0  0
   51.4866    7.6739    4.5516 O   0  0  0  0  0  0  0  0  0  0  0  0
   53.0355    6.9101    2.8715 C   0  0  0  0  0  0  0  0  0  0  0  0
   54.2213    6.6439    3.7980 C   0  0  0  0  0  0  0  0  0  0  0  0
   53.7854    5.5107    4.6108 N   0  0  0  0  0  0  0  0  0  0  0  0
   52.2559    7.9368    5.0807 H   0  0  0  0  0  0  0  0  0  0  0  0
   57.7147    2.8682    6.0476 C   0  0  0  0  0  0  0  0  0  0  0  0
   57.0087    2.0766    4.9755 C   0  0  0  0  0  0  0  0  0  0  0  0
   56.0078    2.6782    4.1902 C   0  0  0  0  0  0  0  0  0  0  0  0
   55.3381    1.9279    3.2192 C   0  0  0  0  0  0  0  0  0  0  0  0
   55.6760    0.5954    2.9876 C   0  0  0  0  0  0  0  0  0  0  0  0
   54.7977   -0.2441    1.7555 Cl  0  0  0  0  0  0  0  0  0  0  0  0
   56.6901   -0.0169    3.7300 C   0  0  0  0  0  0  0  0  0  0  0  0
   57.3535    0.7291    4.7218 C   0  0  0  0  0  0  0  0  0  0  0  0
   58.6275   -0.0108    5.6512 Cl  0  0  0  0  0  0  0  0  0  0  0  0
   57.0422   -1.3854    3.4808 C   0  0  0  0  0  0  0  0  0  0  0  0
   57.3262   -2.4929    3.2796 N   0  0  0  0  0  0  0  0  0  0  0  0
   50.9507    3.3065    4.5805 C   0  0  0  0  0  0  0  0  0  0  0  0
   51.0656    3.2499    5.9285 F   0  0  0  0  0  0  0  0  0  0  0  0
   50.8156    2.0418    4.1308 F   0  0  0  0  0  0  0  0  0  0  0  0
   49.8088    3.9732    4.3045 F   0  0  0  0  0  0  0  0  0  0  0  0
 12 13  1  0
 13 14  2  0
 14  1  1  0
  1  2  2  0
  2  3  1  0
  3  4  1  0
  4 23  1  0
 23 24  1  0
 23 25  1  0
 23 26  1  0
  4  5  1  0
  5  6  1  0
  6  7  1  0
  6  8  1  0
  8  9  1  0
  9 10  1  0
 14 15  1  0
 15 16  2  0
 16 17  1  0
 16 18  1  0
 18 21  1  0
 21 22  3  0
 18 19  2  0
 19 20  1  0
 19 13  1  0
 10  2  1  0
  5 10  1  0
  7 11  1  0
M  END
> <minimizedAffinity>
-7.45071

> <CNNscore>
0.5841929913

> <CNNaffinity>
7.8186073303

> <CNN_VS>
4.5675754547

> <CNNaffinity_variance>
0.2323510647

$$$$



 26 28  0  0  0  0  0  0  0  0999 V2000
   55.3189    3.4186    3.8263 N   0  0  0  0  0  0  0  0  0  0  0  0
   54.8858    2.3474    3.2537 C   0  0  0  0  0  0  0  0  0  0  0  0
   53.5775    2.1765    2.8934 O   0  0  0  0  0  0  0  0  0  0  0  0
   53.3717    0.7654    2.6664 C   0  0  0  0  0  0  0  0  0  0  0  0
   54.7465    0.2318    2.3100 C   0  0  0  0  0  0  0  0  0  0  0  0
   55.1272   -1.1037    2.9599 C   0  0  0  0  0  0  0  0  0  0  0  0
   56.0977   -1.7953    2.1731 O   0  0  0  0  0  0  0  0  0  0  0  0
   55.7538   -0.6991    4.2909 C   0  0  0  0  0  0  0  0  0  0  0  0
   56.4676    0.6104    3.9573 C   0  0  0  0  0  0  0  0  0  0  0  0
   55.6148    1.2278    2.9442 N   0  0  0  0  0  0  0  0  0  0  0  0
   56.8800   -1.2335    2.0575 H   0  0  0  0  0  0  0  0  0  0  0  0
   52.5636    2.7922    4.5225 C   0  0  0  0  0  0  0  0  0  0  0  0
   53.0674    4.2087    4.4036 C   0  0  0  0  0  0  0  0  0  0  0  0
   54.4076    4.4600    4.0558 C   0  0  0  0  0  0  0  0  0  0  0  0
   54.8729    5.7758    3.9775 C   0  0  0  0  0  0  0  0  0  0  0  0
   54.0146    6.8514    4.2008 C   0  0  0  0  0  0  0  0  0  0  0  0
   54.6829    8.4419    4.0679 Cl  0  0  0  0  0  0  0  0  0  0  0  0
   52.6701    6.6306    4.5143 C   0  0  0  0  0  0  0  0  0  0  0  0
   52.2022    5.3071    4.6132 C   0  0  0  0  0  0  0  0  0  0  0  0
   50.5283    5.0093    4.9920 Cl  0  0  0  0  0  0  0  0  0  0  0  0
   51.7875    7.7406    4.7324 C   0  0  0  0  0  0  0  0  0  0  0  0
   51.0739    8.6390    4.9099 N   0  0  0  0  0  0  0  0  0  0  0  0
   52.3896    0.4899    1.5482 C   0  0  0  0  0  0  0  0  0  0  0  0
   52.9645    0.7471    0.3496 F   0  0  0  0  0  0  0  0  0  0  0  0
   51.2807    1.2529    1.6391 F   0  0  0  0  0  0  0  0  0  0  0  0
   52.0069   -0.8055    1.5381 F   0  0  0  0  0  0  0  0  0  0  0  0
 12 13  1  0
 13 14  2  0
 14  1  1  0
  1  2  2  0
  2  3  1  0
  3  4  1  0
  4 23  1  0
 23 24  1  0
 23 25  1  0
 23 26  1  0
  4  5  1  0
  5  6  1  0
  6  7  1  0
  6  8  1  0
  8  9  1  0
  9 10  1  0
 14 15  1  0
 15 16  2  0
 16 17  1  0
 16 18  1  0
 18 21  1  0
 21 22  3  0
 18 19  2  0
 19 20  1  0
 19 13  1  0
 10  2  1  0
  5 10  1  0
  7 11  1  0
M  END
> <minimizedAffinity>
-2.60563

> <CNNscore>
0.4477666020

> <CNNaffinity>
7.6848659515

> <CNN_VS>
3.4410262108

> <CNNaffinity_variance>
0.5704928041

$$$$



 26 28  0  0  0  0  0  0  0  0999 V2000
   55.5143    4.1992    4.4003 N   0  0  0  0  0  0  0  0  0  0  0  0
   54.2521    4.4487    4.4868 C   0  0  0  0  0  0  0  0  0  0  0  0
   53.2947    3.4798    4.3639 O   0  0  0  0  0  0  0  0  0  0  0  0
   52.0373    4.1431    4.1105 C   0  0  0  0  0  0  0  0  0  0  0  0
   52.2091    5.5273    4.7075 C   0  0  0  0  0  0  0  0  0  0  0  0
   51.6721    6.6857    3.8586 C   0  0  0  0  0  0  0  0  0  0  0  0
   51.3390    7.8067    4.6781 O   0  0  0  0  0  0  0  0  0  0  0  0
   52.8452    7.0534    2.9550 C   0  0  0  0  0  0  0  0  0  0  0  0
   54.0626    6.8083    3.8456 C   0  0  0  0  0  0  0  0  0  0  0  0
   53.6671    5.6743    4.6778 N   0  0  0  0  0  0  0  0  0  0  0  0
   52.1208    8.0827    5.1816 H   0  0  0  0  0  0  0  0  0  0  0  0
   54.2143    2.5953    2.3493 C   0  0  0  0  0  0  0  0  0  0  0  0
   55.3215    2.0555    3.2196 C   0  0  0  0  0  0  0  0  0  0  0  0
   55.9130    2.8688    4.2039 C   0  0  0  0  0  0  0  0  0  0  0  0
   56.9590    2.3691    4.9852 C   0  0  0  0  0  0  0  0  0  0  0  0
   57.4015    1.0562    4.8310 C   0  0  0  0  0  0  0  0  0  0  0  0
   58.6931    0.5279    5.8542 Cl  0  0  0  0  0  0  0  0  0  0  0  0
   56.8082    0.2160    3.8841 C   0  0  0  0  0  0  0  0  0  0  0  0
   55.7680    0.7210    3.0821 C   0  0  0  0  0  0  0  0  0  0  0  0
   55.0074   -0.3117    1.9034 Cl  0  0  0  0  0  0  0  0  0  0  0  0
   57.2593   -1.1381    3.7363 C   0  0  0  0  0  0  0  0  0  0  0  0
   57.6250   -2.2335    3.6175 N   0  0  0  0  0  0  0  0  0  0  0  0
   50.8625    3.4328    4.7476 C   0  0  0  0  0  0  0  0  0  0  0  0
   50.8121    2.1467    4.3272 F   0  0  0  0  0  0  0  0  0  0  0  0
   49.6833    4.0089    4.4353 F   0  0  0  0  0  0  0  0  0  0  0  0
   50.9735    3.4091    6.0937 F   0  0  0  0  0  0  0  0  0  0  0  0
 12 13  1  0
 13 14  2  0
 14  1  1  0
  1  2  2  0
  2  3  1  0
  3  4  1  0
  4 23  1  0
 23 24  1  0
 23 25  1  0
 23 26  1  0
  4  5  1  0
  5  6  1  0
  6  7  1  0
  6  8  1  0
  8  9  1  0
  9 10  1  0
 14 15  1  0
 15 16  2  0
 16 17  1  0
 16 18  1  0
 18 21  1  0
 21 22  3  0
 18 19  2  0
 19 20  1  0
 19 13  1  0
 10  2  1  0
  5 10  1  0
  7 11  1  0
M  END
> <minimizedAffinity>
-7.23516

> <CNNscore>
0.4230565727

> <CNNaffinity>
7.5850224495

> <CNN_VS>
3.2088935375

> <CNNaffinity_variance>
0.1283086091

$$$$



 26 28  0  0  0  0  0  0  0  0999 V2000
   53.7876   -0.2272    3.6963 N   0  0  0  0  0  0  0  0  0  0  0  0
   55.0123   -0.0536    4.0609 C   0  0  0  0  0  0  0  0  0  0  0  0
   55.4874    1.1453    4.5166 O   0  0  0  0  0  0  0  0  0  0  0  0
   56.9288    1.0951    4.4457 C   0  0  0  0  0  0  0  0  0  0  0  0
   57.2632   -0.3829    4.5204 C   0  0  0  0  0  0  0  0  0  0  0  0
   58.3495   -0.8656    3.5521 C   0  0  0  0  0  0  0  0  0  0  0  0
   58.9957   -2.0362    4.0533 O   0  0  0  0  0  0  0  0  0  0  0  0
   57.5796   -1.2198    2.2833 C   0  0  0  0  0  0  0  0  0  0  0  0
   56.2556   -1.7640    2.8185 C   0  0  0  0  0  0  0  0  0  0  0  0
   56.0192   -0.9842    4.0313 N   0  0  0  0  0  0  0  0  0  0  0  0
   58.3355   -2.7308    4.2036 H   0  0  0  0  0  0  0  0  0  0  0  0
   51.9794    0.3847    1.4998 C   0  0  0  0  0  0  0  0  0  0  0  0
   52.0059    1.1886    2.7756 C   0  0  0  0  0  0  0  0  0  0  0  0
   52.9053    0.8577    3.8060 C   0  0  0  0  0  0  0  0  0  0  0  0
   52.9017    1.5900    4.9967 C   0  0  0  0  0  0  0  0  0  0  0  0
   52.0431    2.6753    5.1652 C   0  0  0  0  0  0  0  0  0  0  0  0
   52.1234    3.5256    6.6701 Cl  0  0  0  0  0  0  0  0  0  0  0  0
   51.1634    3.0469    4.1441 C   0  0  0  0  0  0  0  0  0  0  0  0
   51.1502    2.3003    2.9513 C   0  0  0  0  0  0  0  0  0  0  0  0
   50.0697    2.7524    1.6619 Cl  0  0  0  0  0  0  0  0  0  0  0  0
   50.2892    4.1714    4.3173 C   0  0  0  0  0  0  0  0  0  0  0  0
   49.5815    5.0808    4.4585 N   0  0  0  0  0  0  0  0  0  0  0  0
   57.5966    1.8478    5.5762 C   0  0  0  0  0  0  0  0  0  0  0  0
   56.7237    2.7191    6.1352 F   0  0  0  0  0  0  0  0  0  0  0  0
   58.6670    2.5556    5.1602 F   0  0  0  0  0  0  0  0  0  0  0  0
   58.0037    1.0081    6.5529 F   0  0  0  0  0  0  0  0  0  0  0  0
 12 13  1  0
 13 14  2  0
 14  1  1  0
  1  2  2  0
  2  3  1  0
  3  4  1  0
  4 23  1  0
 23 24  1  0
 23 25  1  0
 23 26  1  0
  4  5  1  0
  5  6  1  0
  6  7  1  0
  6  8  1  0
  8  9  1  0
  9 10  1  0
 14 15  1  0
 15 16  2  0
 16 17  1  0
 16 18  1  0
 18 21  1  0
 21 22  3  0
 18 19  2  0
 19 20  1  0
 19 13  1  0
 10  2  1  0
  5 10  1  0
  7 11  1  0
M  END
> <minimizedAffinity>
2.17047

> <CNNscore>
0.3370299637

> <CNNaffinity>
7.3339400291

> <CNN_VS>
2.4717576504

> <CNNaffinity_variance>
0.7436752319

$$$$



 26 28  0  0  0  0  0  0  0  0999 V2000
   51.5868   -1.7536    9.7453 N   0  0  0  0  0  0  0  0  0  0  0  0
   52.8383   -1.6042    9.4728 C   0  0  0  0  0  0  0  0  0  0  0  0
   53.7498   -1.1636   10.3924 O   0  0  0  0  0  0  0  0  0  0  0  0
   54.9241   -0.7373    9.6682 C   0  0  0  0  0  0  0  0  0  0  0  0
   54.8799   -1.5249    8.3722 C   0  0  0  0  0  0  0  0  0  0  0  0
   55.2235   -0.7337    7.1047 C   0  0  0  0  0  0  0  0  0  0  0  0
   55.7203   -1.5986    6.0827 O   0  0  0  0  0  0  0  0  0  0  0  0
   53.8854   -0.1489    6.6628 C   0  0  0  0  0  0  0  0  0  0  0  0
   52.8840   -1.2370    7.0484 C   0  0  0  0  0  0  0  0  0  0  0  0
   53.4484   -1.8198    8.2637 N   0  0  0  0  0  0  0  0  0  0  0  0
   55.0621   -2.2850    5.8919 H   0  0  0  0  0  0  0  0  0  0  0  0
   50.8015   -3.9467   11.4895 C   0  0  0  0  0  0  0  0  0  0  0  0
   50.7763   -2.5066   11.9368 C   0  0  0  0  0  0  0  0  0  0  0  0
   51.1579   -1.4806   11.0526 C   0  0  0  0  0  0  0  0  0  0  0  0
   51.1600   -0.1515   11.4858 C   0  0  0  0  0  0  0  0  0  0  0  0
   50.7492    0.1798   12.7761 C   0  0  0  0  0  0  0  0  0  0  0  0
   50.7755    1.8539   13.2129 Cl  0  0  0  0  0  0  0  0  0  0  0  0
   50.3325   -0.8166   13.6638 C   0  0  0  0  0  0  0  0  0  0  0  0
   50.3473   -2.1578   13.2381 C   0  0  0  0  0  0  0  0  0  0  0  0
   49.8220   -3.4143   14.3242 Cl  0  0  0  0  0  0  0  0  0  0  0  0
   49.8999   -0.4702   14.9873 C   0  0  0  0  0  0  0  0  0  0  0  0
   49.5488   -0.1899   16.0578 N   0  0  0  0  0  0  0  0  0  0  0  0
   56.2083   -1.0205   10.4175 C   0  0  0  0  0  0  0  0  0  0  0  0
   56.1743   -0.4347   11.6378 F   0  0  0  0  0  0  0  0  0  0  0  0
   57.2947   -0.5497    9.7709 F   0  0  0  0  0  0  0  0  0  0  0  0
   56.3801   -2.3457   10.6151 F   0  0  0  0  0  0  0  0  0  0  0  0
 12 13  1  0
 13 14  2  0
 14  1  1  0
  1  2  2  0
  2  3  1  0
  3  4  1  0
  4 23  1  0
 23 24  1  0
 23 25  1  0
 23 26  1  0
  4  5  1  0
  5  6  1  0
  6  7  1  0
  6  8  1  0
  8  9  1  0
  9 10  1  0
 14 15  1  0
 15 16  2  0
 16 17  1  0
 16 18  1  0
 18 21  1  0
 21 22  3  0
 18 19  2  0
 19 20  1  0
 19 13  1  0
 10  2  1  0
  5 10  1  0
  7 11  1  0
M  END
> <minimizedAffinity>
98.25691

> <CNNscore>
0.3146148622

> <CNNaffinity>
5.7177562714

> <CNN_VS>
1.7988910675

> <CNNaffinity_variance>
0.9365494847

$$$$
