


 27 29  0  0  0  0  0  0  0  0999 V2000
   -1.2618    9.0156    9.1551 C   0  0  0  0  0  0  0  0  0  0  0  0
   -1.6665   10.2266   10.0238 C   0  0  0  0  0  0  0  0  0  0  0  0
   -1.4974   11.4557    9.3052 O   0  0  0  0  0  0  0  0  0  0  0  0
   -0.7888   10.2941   11.2752 C   0  0  0  0  0  0  0  0  0  0  0  0
   -1.2442   11.3112   12.1700 O   0  0  0  0  0  0  0  0  0  0  0  0
   -0.7582    8.9584   11.9540 C   0  0  0  0  0  0  0  0  0  0  0  0
   -0.4926    8.6924   13.2370 N   0  0  0  0  0  0  0  0  0  0  0  0
   -0.6335    7.3444   13.5105 C   0  0  0  0  0  0  0  0  0  0  0  0
   -1.0055    6.7771   12.3123 C   0  0  0  0  0  0  0  0  0  0  0  0
   -1.0380    7.7881   11.3576 N   0  0  0  0  0  0  0  0  0  0  0  0
   -1.4745    7.6786    9.9321 C   0  0  0  0  0  0  0  0  0  0  0  0
   -0.5634   11.5653    9.0673 H   0  0  0  0  0  0  0  0  0  0  0  0
   -2.1474   11.1070   12.4589 H   0  0  0  0  0  0  0  0  0  0  0  0
   -0.2303    9.3695   13.9018 H   0  0  0  0  0  0  0  0  0  0  0  0
   -0.7605    6.5343    9.1732 C   0  0  0  0  0  0  0  0  0  0  0  0
    0.2484    7.0410    8.3004 O   0  0  0  0  0  0  0  0  0  0  0  0
   -0.1578    7.6261    7.6419 H   0  0  0  0  0  0  0  0  0  0  0  0
   -3.4102    9.5028    8.2217 C   0  0  0  0  0  0  0  0  0  0  0  0
   -2.0932    9.0113    7.9827 O   0  0  0  0  0  0  0  0  0  0  0  0
   -0.4390    6.7594   14.8556 C   0  0  0  0  0  0  0  0  0  0  0  0
    0.9867    6.2397   15.0392 C   0  0  0  0  0  0  0  0  0  0  0  0
    1.0780    4.7642   14.7484 C   0  0  0  0  0  0  0  0  0  0  0  0
    1.7459    4.3068   13.6045 C   0  0  0  0  0  0  0  0  0  0  0  0
    1.8203    2.9410   13.3268 C   0  0  0  0  0  0  0  0  0  0  0  0
    1.2254    2.0204   14.1870 C   0  0  0  0  0  0  0  0  0  0  0  0
    0.5555    2.4641   15.3256 C   0  0  0  0  0  0  0  0  0  0  0  0
    0.4821    3.8295   15.6059 C   0  0  0  0  0  0  0  0  0  0  0  0
 18 19  1  0
  1 19  1  0
  1  2  1  0
  2  3  1  0
  2  4  1  0
  4  5  1  0
  4  6  1  0
  6  7  1  0
  7  8  1  0
  8 20  1  0
 20 21  1  0
 21 22  1  0
 22 23  2  0
 23 24  1  0
 24 25  2  0
 25 26  1  0
 26 27  2  0
  8  9  2  0
  9 10  1  0
 10 11  1  0
 11 15  1  0
 15 16  1  0
 11  1  1  0
 10  6  2  0
 27 22  1  0
  3 12  1  0
  5 13  1  0
  7 14  1  0
 16 17  1  0
M  CHG 1  10   1
M  END
> <minimizedAffinity>
-7.45911

> <CNNscore>
0.4424660802

> <CNNaffinity>
6.3093457222

> <CNN_VS>
2.7916715145

> <CNNaffinity_variance>
0.2669443786

$$$$



 27 29  0  0  0  0  0  0  0  0999 V2000
   -0.3802    8.8781   10.0596 C   0  0  0  0  0  0  0  0  0  0  0  0
   -1.0833    9.2829   11.3736 C   0  0  0  0  0  0  0  0  0  0  0  0
   -1.0350   10.7027   11.5676 O   0  0  0  0  0  0  0  0  0  0  0  0
   -0.3878    8.6256   12.5675 C   0  0  0  0  0  0  0  0  0  0  0  0
   -1.1115    8.8582   13.7777 O   0  0  0  0  0  0  0  0  0  0  0  0
   -0.2181    7.1576   12.3188 C   0  0  0  0  0  0  0  0  0  0  0  0
   -0.0699    6.1813   13.2201 N   0  0  0  0  0  0  0  0  0  0  0  0
   -0.0167    4.9404   12.6128 C   0  0  0  0  0  0  0  0  0  0  0  0
   -0.1406    5.1996   11.2662 C   0  0  0  0  0  0  0  0  0  0  0  0
   -0.2246    6.5788   11.1069 N   0  0  0  0  0  0  0  0  0  0  0  0
   -0.4602    7.3349    9.8391 C   0  0  0  0  0  0  0  0  0  0  0  0
   -0.1104   10.9892   11.6303 H   0  0  0  0  0  0  0  0  0  0  0  0
   -1.9965    8.4676   13.7055 H   0  0  0  0  0  0  0  0  0  0  0  0
   -0.0067    6.3273   14.1917 H   0  0  0  0  0  0  0  0  0  0  0  0
    0.5211    6.9342    8.7115 C   0  0  0  0  0  0  0  0  0  0  0  0
    0.0337    5.8142    7.9733 O   0  0  0  0  0  0  0  0  0  0  0  0
   -0.0635    5.0533    8.5669 H   0  0  0  0  0  0  0  0  0  0  0  0
   -2.4415    9.2358    8.8989 C   0  0  0  0  0  0  0  0  0  0  0  0
   -1.0504    9.5400    8.9740 O   0  0  0  0  0  0  0  0  0  0  0  0
    0.1074    3.6697   13.3608 C   0  0  0  0  0  0  0  0  0  0  0  0
    1.5696    3.3303   13.6489 C   0  0  0  0  0  0  0  0  0  0  0  0
    2.0467    2.1801   12.8008 C   0  0  0  0  0  0  0  0  0  0  0  0
    2.3080    2.3652   11.4366 C   0  0  0  0  0  0  0  0  0  0  0  0
    2.7375    1.2977   10.6467 C   0  0  0  0  0  0  0  0  0  0  0  0
    2.9064    0.0352   11.2115 C   0  0  0  0  0  0  0  0  0  0  0  0
    2.6462   -0.1614   12.5663 C   0  0  0  0  0  0  0  0  0  0  0  0
    2.2187    0.9057   13.3581 C   0  0  0  0  0  0  0  0  0  0  0  0
 18 19  1  0
  1 19  1  0
  1  2  1  0
  2  3  1  0
  2  4  1  0
  4  5  1  0
  4  6  1  0
  6  7  1  0
  7  8  1  0
  8 20  1  0
 20 21  1  0
 21 22  1  0
 22 23  2  0
 23 24  1  0
 24 25  2  0
 25 26  1  0
 26 27  2  0
  8  9  2  0
  9 10  1  0
 10 11  1  0
 11 15  1  0
 15 16  1  0
 11  1  1  0
 10  6  2  0
 27 22  1  0
  3 12  1  0
  5 13  1  0
  7 14  1  0
 16 17  1  0
M  CHG 1  10   1
M  END
> <minimizedAffinity>
-7.35119

> <CNNscore>
0.4364514947

> <CNNaffinity>
5.9834284782

> <CNN_VS>
2.6114764214

> <CNNaffinity_variance>
0.7444441319

$$$$



 27 29  0  0  0  0  0  0  0  0999 V2000
   -2.3254    7.0347   14.4615 C   0  0  0  0  0  0  0  0  0  0  0  0
   -1.1258    7.9117   14.0411 C   0  0  0  0  0  0  0  0  0  0  0  0
   -1.4568    9.3050   14.1105 O   0  0  0  0  0  0  0  0  0  0  0  0
   -0.7249    7.5994   12.5980 C   0  0  0  0  0  0  0  0  0  0  0  0
    0.4771    8.2833   12.2373 O   0  0  0  0  0  0  0  0  0  0  0  0
   -0.5743    6.1196   12.4153 C   0  0  0  0  0  0  0  0  0  0  0  0
    0.1468    5.4726   11.4940 N   0  0  0  0  0  0  0  0  0  0  0  0
    0.1000    4.1046   11.6887 C   0  0  0  0  0  0  0  0  0  0  0  0
   -0.7006    3.9317   12.7954 C   0  0  0  0  0  0  0  0  0  0  0  0
   -1.1363    5.1882   13.2029 N   0  0  0  0  0  0  0  0  0  0  0  0
   -1.9511    5.5202   14.4114 C   0  0  0  0  0  0  0  0  0  0  0  0
   -2.1862    9.4949   13.4999 H   0  0  0  0  0  0  0  0  0  0  0  0
    1.2016    7.9881   12.8108 H   0  0  0  0  0  0  0  0  0  0  0  0
    0.6470    5.9137   10.7698 H   0  0  0  0  0  0  0  0  0  0  0  0
   -3.2446    4.6765   14.5120 C   0  0  0  0  0  0  0  0  0  0  0  0
   -3.8088    4.7460   15.8210 O   0  0  0  0  0  0  0  0  0  0  0  0
   -3.1744    4.3952   16.4656 H   0  0  0  0  0  0  0  0  0  0  0  0
   -1.6061    7.2311   16.7349 C   0  0  0  0  0  0  0  0  0  0  0  0
   -2.6806    7.3832   15.8099 O   0  0  0  0  0  0  0  0  0  0  0  0
    0.8315    3.1341   10.8446 C   0  0  0  0  0  0  0  0  0  0  0  0
    2.2386    2.8739   11.3819 C   0  0  0  0  0  0  0  0  0  0  0  0
    2.4263    1.4277   11.7601 C   0  0  0  0  0  0  0  0  0  0  0  0
    1.8025    0.9064   12.9016 C   0  0  0  0  0  0  0  0  0  0  0  0
    1.9858   -0.4299   13.2607 C   0  0  0  0  0  0  0  0  0  0  0  0
    2.7963   -1.2562   12.4850 C   0  0  0  0  0  0  0  0  0  0  0  0
    3.4244   -0.7477   11.3498 C   0  0  0  0  0  0  0  0  0  0  0  0
    3.2404    0.5879   10.9881 C   0  0  0  0  0  0  0  0  0  0  0  0
 18 19  1  0
  1 19  1  0
  1  2  1  0
  2  3  1  0
  2  4  1  0
  4  5  1  0
  4  6  1  0
  6  7  1  0
  7  8  1  0
  8 20  1  0
 20 21  1  0
 21 22  1  0
 22 23  2  0
 23 24  1  0
 24 25  2  0
 25 26  1  0
 26 27  2  0
  8  9  2  0
  9 10  1  0
 10 11  1  0
 11 15  1  0
 15 16  1  0
 11  1  1  0
 10  6  2  0
 27 22  1  0
  3 12  1  0
  5 13  1  0
  7 14  1  0
 16 17  1  0
M  CHG 1  10   1
M  END
> <minimizedAffinity>
-7.12911

> <CNNscore>
0.4118955135

> <CNNaffinity>
4.8785824776

> <CNN_VS>
2.0094661713

> <CNNaffinity_variance>
0.2750108540

$$$$



 27 29  0  0  0  0  0  0  0  0999 V2000
   -3.3270    6.0824   15.4938 C   0  0  0  0  0  0  0  0  0  0  0  0
   -2.6954    7.4884   15.5900 C   0  0  0  0  0  0  0  0  0  0  0  0
   -3.6228    8.4333   16.1402 O   0  0  0  0  0  0  0  0  0  0  0  0
   -2.2968    7.9833   14.1981 C   0  0  0  0  0  0  0  0  0  0  0  0
   -1.5704    9.2116   14.2763 O   0  0  0  0  0  0  0  0  0  0  0  0
   -1.4974    6.9328   13.4888 C   0  0  0  0  0  0  0  0  0  0  0  0
   -0.6256    7.0967   12.4886 N   0  0  0  0  0  0  0  0  0  0  0  0
   -0.0262    5.8996   12.1429 C   0  0  0  0  0  0  0  0  0  0  0  0
   -0.5798    4.9683   12.9926 C   0  0  0  0  0  0  0  0  0  0  0  0
   -1.5138    5.6237   13.7880 N   0  0  0  0  0  0  0  0  0  0  0  0
   -2.3043    5.0518   14.9206 C   0  0  0  0  0  0  0  0  0  0  0  0
   -4.3983    8.4999   15.5614 H   0  0  0  0  0  0  0  0  0  0  0  0
   -0.7535    9.0727   14.7805 H   0  0  0  0  0  0  0  0  0  0  0  0
   -0.4348    7.9592   12.0539 H   0  0  0  0  0  0  0  0  0  0  0  0
   -3.0565    3.7563   14.5322 C   0  0  0  0  0  0  0  0  0  0  0  0
   -4.4568    3.8752   14.7805 O   0  0  0  0  0  0  0  0  0  0  0  0
   -4.6053    4.0328   15.7260 H   0  0  0  0  0  0  0  0  0  0  0  0
   -2.5961    5.4149   17.6720 C   0  0  0  0  0  0  0  0  0  0  0  0
   -3.7083    5.6743   16.8181 O   0  0  0  0  0  0  0  0  0  0  0  0
    1.0085    5.7778   11.0923 C   0  0  0  0  0  0  0  0  0  0  0  0
    2.2376    5.0254   11.6016 C   0  0  0  0  0  0  0  0  0  0  0  0
    2.2313    3.5881   11.1499 C   0  0  0  0  0  0  0  0  0  0  0  0
    2.0393    3.2701    9.7987 C   0  0  0  0  0  0  0  0  0  0  0  0
    2.0202    1.9386    9.3805 C   0  0  0  0  0  0  0  0  0  0  0  0
    2.1891    0.9131   10.3085 C   0  0  0  0  0  0  0  0  0  0  0  0
    2.3772    1.2174   11.6553 C   0  0  0  0  0  0  0  0  0  0  0  0
    2.3987    2.5485   12.0748 C   0  0  0  0  0  0  0  0  0  0  0  0
 18 19  1  0
  1 19  1  0
  1  2  1  0
  2  3  1  0
  2  4  1  0
  4  5  1  0
  4  6  1  0
  6  7  1  0
  7  8  1  0
  8 20  1  0
 20 21  1  0
 21 22  1  0
 22 23  2  0
 23 24  1  0
 24 25  2  0
 25 26  1  0
 26 27  2  0
  8  9  2  0
  9 10  1  0
 10 11  1  0
 11 15  1  0
 15 16  1  0
 11  1  1  0
 10  6  2  0
 27 22  1  0
  3 12  1  0
  5 13  1  0
  7 14  1  0
 16 17  1  0
M  CHG 1  10   1
M  END
> <minimizedAffinity>
-7.64272

> <CNNscore>
0.3434778154

> <CNNaffinity>
4.9475426674

> <CNN_VS>
1.6993710995

> <CNNaffinity_variance>
0.6631717682

$$$$



 27 29  0  0  0  0  0  0  0  0999 V2000
   -0.5015    8.8102    9.5091 C   0  0  0  0  0  0  0  0  0  0  0  0
   -1.3444    9.3296   10.6942 C   0  0  0  0  0  0  0  0  0  0  0  0
   -1.5847   10.7383   10.5774 O   0  0  0  0  0  0  0  0  0  0  0  0
   -0.6042    9.0910   12.0119 C   0  0  0  0  0  0  0  0  0  0  0  0
   -1.4278    9.4198   13.1327 O   0  0  0  0  0  0  0  0  0  0  0  0
   -0.1380    7.6689   12.0890 C   0  0  0  0  0  0  0  0  0  0  0  0
    0.1454    6.9532   13.1821 N   0  0  0  0  0  0  0  0  0  0  0  0
    0.4740    5.6498   12.8583 C   0  0  0  0  0  0  0  0  0  0  0  0
    0.3797    5.5915   11.4859 C   0  0  0  0  0  0  0  0  0  0  0  0
    0.0381    6.8607   11.0310 N   0  0  0  0  0  0  0  0  0  0  0  0
   -0.2668    7.2715    9.6264 C   0  0  0  0  0  0  0  0  0  0  0  0
   -0.7387   11.2127   10.5899 H   0  0  0  0  0  0  0  0  0  0  0  0
   -2.2141    8.8518   13.1338 H   0  0  0  0  0  0  0  0  0  0  0  0
    0.1229    7.3086   14.0999 H   0  0  0  0  0  0  0  0  0  0  0  0
    0.8371    6.8512    8.6264 C   0  0  0  0  0  0  0  0  0  0  0  0
    0.3205    5.9834    7.6180 O   0  0  0  0  0  0  0  0  0  0  0  0
   -0.0277    5.1782    8.0318 H   0  0  0  0  0  0  0  0  0  0  0  0
   -2.6301    9.2139    8.4940 C   0  0  0  0  0  0  0  0  0  0  0  0
   -1.2241    9.0809    8.2966 O   0  0  0  0  0  0  0  0  0  0  0  0
    0.7998    4.6156   13.8651 C   0  0  0  0  0  0  0  0  0  0  0  0
   -0.4374    3.8098   14.2605 C   0  0  0  0  0  0  0  0  0  0  0  0
   -1.5148    4.6961   14.8291 C   0  0  0  0  0  0  0  0  0  0  0  0
   -2.7358    4.8478   14.1584 C   0  0  0  0  0  0  0  0  0  0  0  0
   -3.7301    5.6787   14.6772 C   0  0  0  0  0  0  0  0  0  0  0  0
   -3.5124    6.3681   15.8683 C   0  0  0  0  0  0  0  0  0  0  0  0
   -2.3006    6.2277   16.5420 C   0  0  0  0  0  0  0  0  0  0  0  0
   -1.3061    5.3953   16.0256 C   0  0  0  0  0  0  0  0  0  0  0  0
 18 19  1  0
  1 19  1  0
  1  2  1  0
  2  3  1  0
  2  4  1  0
  4  5  1  0
  4  6  1  0
  6  7  1  0
  7  8  1  0
  8 20  1  0
 20 21  1  0
 21 22  1  0
 22 23  2  0
 23 24  1  0
 24 25  2  0
 25 26  1  0
 26 27  2  0
  8  9  2  0
  9 10  1  0
 10 11  1  0
 11 15  1  0
 15 16  1  0
 11  1  1  0
 10  6  2  0
 27 22  1  0
  3 12  1  0
  5 13  1  0
  7 14  1  0
 16 17  1  0
M  CHG 1  10   1
M  END
> <minimizedAffinity>
-7.62723

> <CNNscore>
0.3183962703

> <CNNaffinity>
5.9394130707

> <CNN_VS>
1.8910869360

> <CNNaffinity_variance>
0.1930497438

$$$$



 27 29  0  0  0  0  0  0  0  0999 V2000
   -0.4827    8.8044    9.9874 C   0  0  0  0  0  0  0  0  0  0  0  0
   -1.1545    9.3765   11.2548 C   0  0  0  0  0  0  0  0  0  0  0  0
   -1.0243   10.8034   11.3075 O   0  0  0  0  0  0  0  0  0  0  0  0
   -0.4914    8.8015   12.5080 C   0  0  0  0  0  0  0  0  0  0  0  0
   -1.1942    9.1935   13.6891 O   0  0  0  0  0  0  0  0  0  0  0  0
   -0.4070    7.3089   12.4058 C   0  0  0  0  0  0  0  0  0  0  0  0
   -0.3099    6.4194   13.3992 N   0  0  0  0  0  0  0  0  0  0  0  0
   -0.3309    5.1236   12.9175 C   0  0  0  0  0  0  0  0  0  0  0  0
   -0.4469    5.2554   11.5519 C   0  0  0  0  0  0  0  0  0  0  0  0
   -0.4530    6.6146   11.2570 N   0  0  0  0  0  0  0  0  0  0  0  0
   -0.6518    7.2541    9.9206 C   0  0  0  0  0  0  0  0  0  0  0  0
   -0.0845   11.0413   11.3418 H   0  0  0  0  0  0  0  0  0  0  0  0
   -2.1003    8.8490   13.6555 H   0  0  0  0  0  0  0  0  0  0  0  0
   -0.2333    6.6567   14.3516 H   0  0  0  0  0  0  0  0  0  0  0  0
    0.2990    6.6885    8.8384 C   0  0  0  0  0  0  0  0  0  0  0  0
   -0.3365    5.6655    8.0727 O   0  0  0  0  0  0  0  0  0  0  0  0
   -0.5897    4.9341    8.6574 H   0  0  0  0  0  0  0  0  0  0  0  0
   -2.5319    9.1960    8.8162 C   0  0  0  0  0  0  0  0  0  0  0  0
   -1.1198    9.3932    8.8415 O   0  0  0  0  0  0  0  0  0  0  0  0
   -0.2754    3.9280   13.7875 C   0  0  0  0  0  0  0  0  0  0  0  0
    0.6361    4.1549   14.9933 C   0  0  0  0  0  0  0  0  0  0  0  0
   -0.1575    4.2970   16.2661 C   0  0  0  0  0  0  0  0  0  0  0  0
   -0.5183    5.5659   16.7390 C   0  0  0  0  0  0  0  0  0  0  0  0
   -1.2423    5.7000   17.9247 C   0  0  0  0  0  0  0  0  0  0  0  0
   -1.6093    4.5685   18.6502 C   0  0  0  0  0  0  0  0  0  0  0  0
   -1.2529    3.3019   18.1913 C   0  0  0  0  0  0  0  0  0  0  0  0
   -0.5307    3.1659   17.0046 C   0  0  0  0  0  0  0  0  0  0  0  0
 18 19  1  0
  1 19  1  0
  1  2  1  0
  2  3  1  0
  2  4  1  0
  4  5  1  0
  4  6  1  0
  6  7  1  0
  7  8  1  0
  8 20  1  0
 20 21  1  0
 21 22  1  0
 22 23  2  0
 23 24  1  0
 24 25  2  0
 25 26  1  0
 26 27  2  0
  8  9  2  0
  9 10  1  0
 10 11  1  0
 11 15  1  0
 15 16  1  0
 11  1  1  0
 10  6  2  0
 27 22  1  0
  3 12  1  0
  5 13  1  0
  7 14  1  0
 16 17  1  0
M  CHG 1  10   1
M  END
> <minimizedAffinity>
-7.72771

> <CNNscore>
0.2879963815

> <CNNaffinity>
5.7687468529

> <CNN_VS>
1.6613782644

> <CNNaffinity_variance>
0.6698040962

$$$$



 27 29  0  0  0  0  0  0  0  0999 V2000
   -0.4333    8.1109   11.9239 C   0  0  0  0  0  0  0  0  0  0  0  0
   -0.8921    7.9329   13.3877 C   0  0  0  0  0  0  0  0  0  0  0  0
   -1.1824    9.1992   13.9942 O   0  0  0  0  0  0  0  0  0  0  0  0
    0.2129    7.2654   14.2088 C   0  0  0  0  0  0  0  0  0  0  0  0
   -0.2432    6.9487   15.5257 O   0  0  0  0  0  0  0  0  0  0  0  0
    0.7072    6.0388   13.5040 C   0  0  0  0  0  0  0  0  0  0  0  0
    1.3180    4.9742   14.0339 N   0  0  0  0  0  0  0  0  0  0  0  0
    1.5587    4.0050   13.0777 C   0  0  0  0  0  0  0  0  0  0  0  0
    1.0589    4.5307   11.9074 C   0  0  0  0  0  0  0  0  0  0  0  0
    0.5733    5.8034   12.1886 N   0  0  0  0  0  0  0  0  0  0  0  0
   -0.1457    6.7279   11.2597 C   0  0  0  0  0  0  0  0  0  0  0  0
   -0.3805    9.7448   14.0033 H   0  0  0  0  0  0  0  0  0  0  0  0
   -0.9824    6.3231   15.4701 H   0  0  0  0  0  0  0  0  0  0  0  0
    1.5648    4.8910   14.9834 H   0  0  0  0  0  0  0  0  0  0  0  0
    0.6156    6.9540    9.9314 C   0  0  0  0  0  0  0  0  0  0  0  0
   -0.2837    7.2320    8.8588 O   0  0  0  0  0  0  0  0  0  0  0  0
   -0.8812    6.4781    8.7341 H   0  0  0  0  0  0  0  0  0  0  0  0
   -1.1624   10.0912   10.7965 C   0  0  0  0  0  0  0  0  0  0  0  0
   -1.4907    8.7642   11.2023 O   0  0  0  0  0  0  0  0  0  0  0  0
    2.1901    2.7009   13.3775 C   0  0  0  0  0  0  0  0  0  0  0  0
    1.1444    1.6008   13.5577 C   0  0  0  0  0  0  0  0  0  0  0  0
    1.3732    0.8246   14.8285 C   0  0  0  0  0  0  0  0  0  0  0  0
    1.5218   -0.5684   14.7919 C   0  0  0  0  0  0  0  0  0  0  0  0
    1.7208   -1.2904   15.9697 C   0  0  0  0  0  0  0  0  0  0  0  0
    1.7697   -0.6281   17.1945 C   0  0  0  0  0  0  0  0  0  0  0  0
    1.6197    0.7564   17.2434 C   0  0  0  0  0  0  0  0  0  0  0  0
    1.4227    1.4802   16.0662 C   0  0  0  0  0  0  0  0  0  0  0  0
 18 19  1  0
  1 19  1  0
  1  2  1  0
  2  3  1  0
  2  4  1  0
  4  5  1  0
  4  6  1  0
  6  7  1  0
  7  8  1  0
  8 20  1  0
 20 21  1  0
 21 22  1  0
 22 23  2  0
 23 24  1  0
 24 25  2  0
 25 26  1  0
 26 27  2  0
  8  9  2  0
  9 10  1  0
 10 11  1  0
 11 15  1  0
 15 16  1  0
 11  1  1  0
 10  6  2  0
 27 22  1  0
  3 12  1  0
  5 13  1  0
  7 14  1  0
 16 17  1  0
M  CHG 1  10   1
M  END
> <minimizedAffinity>
-6.85780

> <CNNscore>
0.2793762386

> <CNNaffinity>
4.7358393669

> <CNN_VS>
1.3230810165

> <CNNaffinity_variance>
0.6266958117

$$$$



 27 29  0  0  0  0  0  0  0  0999 V2000
   -1.5463    8.6947    9.1767 C   0  0  0  0  0  0  0  0  0  0  0  0
   -1.8884    9.8870   10.0966 C   0  0  0  0  0  0  0  0  0  0  0  0
   -2.0021   11.1022    9.3442 O   0  0  0  0  0  0  0  0  0  0  0  0
   -0.7834   10.0844   11.1363 C   0  0  0  0  0  0  0  0  0  0  0  0
   -1.1490   11.0798   12.0945 O   0  0  0  0  0  0  0  0  0  0  0  0
   -0.4724    8.7821   11.8092 C   0  0  0  0  0  0  0  0  0  0  0  0
    0.0789    8.5872   13.0115 N   0  0  0  0  0  0  0  0  0  0  0  0
    0.1406    7.2418   13.3241 C   0  0  0  0  0  0  0  0  0  0  0  0
   -0.4087    6.6002   12.2367 C   0  0  0  0  0  0  0  0  0  0  0  0
   -0.7442    7.5702   11.2981 N   0  0  0  0  0  0  0  0  0  0  0  0
   -1.4516    7.3697    9.9965 C   0  0  0  0  0  0  0  0  0  0  0  0
   -1.1542   11.2974    8.9153 H   0  0  0  0  0  0  0  0  0  0  0  0
   -1.9464   10.7953   12.5681 H   0  0  0  0  0  0  0  0  0  0  0  0
    0.3999    9.3091   13.5989 H   0  0  0  0  0  0  0  0  0  0  0  0
   -0.7930    6.2785    9.1187 C   0  0  0  0  0  0  0  0  0  0  0  0
    0.1230    6.8476    8.1840 O   0  0  0  0  0  0  0  0  0  0  0  0
   -0.3513    7.4559    7.5958 H   0  0  0  0  0  0  0  0  0  0  0  0
   -3.5644    9.6121    8.2768 C   0  0  0  0  0  0  0  0  0  0  0  0
   -2.5966    8.5674    8.2039 O   0  0  0  0  0  0  0  0  0  0  0  0
    0.6693    6.7245   14.6056 C   0  0  0  0  0  0  0  0  0  0  0  0
    0.2576    5.2705   14.8350 C   0  0  0  0  0  0  0  0  0  0  0  0
   -0.5625    5.1205   16.0899 C   0  0  0  0  0  0  0  0  0  0  0  0
   -0.1112    4.3090   17.1394 C   0  0  0  0  0  0  0  0  0  0  0  0
   -0.8759    4.1586   18.2973 C   0  0  0  0  0  0  0  0  0  0  0  0
   -2.0994    4.8146   18.4158 C   0  0  0  0  0  0  0  0  0  0  0  0
   -2.5598    5.6215   17.3771 C   0  0  0  0  0  0  0  0  0  0  0  0
   -1.7953    5.7745   16.2193 C   0  0  0  0  0  0  0  0  0  0  0  0
 18 19  1  0
  1 19  1  0
  1  2  1  0
  2  3  1  0
  2  4  1  0
  4  5  1  0
  4  6  1  0
  6  7  1  0
  7  8  1  0
  8 20  1  0
 20 21  1  0
 21 22  1  0
 22 23  2  0
 23 24  1  0
 24 25  2  0
 25 26  1  0
 26 27  2  0
  8  9  2  0
  9 10  1  0
 10 11  1  0
 11 15  1  0
 15 16  1  0
 11  1  1  0
 10  6  2  0
 27 22  1  0
  3 12  1  0
  5 13  1  0
  7 14  1  0
 16 17  1  0
M  CHG 1  10   1
M  END
> <minimizedAffinity>
-7.85577

> <CNNscore>
0.2744223773

> <CNNaffinity>
6.0509757996

> <CNN_VS>
1.6605231762

> <CNNaffinity_variance>
0.2283855081

$$$$



 27 29  0  0  0  0  0  0  0  0999 V2000
   -0.3665    8.2157   10.6685 C   0  0  0  0  0  0  0  0  0  0  0  0
    0.1005    7.9471    9.2212 C   0  0  0  0  0  0  0  0  0  0  0  0
   -0.7317    8.6322    8.2758 O   0  0  0  0  0  0  0  0  0  0  0  0
    0.0229    6.4508    8.9116 C   0  0  0  0  0  0  0  0  0  0  0  0
    0.5952    6.1581    7.6351 O   0  0  0  0  0  0  0  0  0  0  0  0
    0.6998    5.6663    9.9943 C   0  0  0  0  0  0  0  0  0  0  0  0
    1.2227    4.4383    9.9177 N   0  0  0  0  0  0  0  0  0  0  0  0
    1.8307    4.0758   11.1054 C   0  0  0  0  0  0  0  0  0  0  0  0
    1.6552    5.1585   11.9377 C   0  0  0  0  0  0  0  0  0  0  0  0
    0.9204    6.1125   11.2417 N   0  0  0  0  0  0  0  0  0  0  0  0
    0.5596    7.4906   11.6948 C   0  0  0  0  0  0  0  0  0  0  0  0
   -1.6431    8.3095    8.3538 H   0  0  0  0  0  0  0  0  0  0  0  0
    1.5328    6.4066    7.6365 H   0  0  0  0  0  0  0  0  0  0  0  0
    1.1804    3.8655    9.1181 H   0  0  0  0  0  0  0  0  0  0  0  0
   -0.1187    7.5055   13.0857 C   0  0  0  0  0  0  0  0  0  0  0  0
   -0.3700    8.8395   13.5261 O   0  0  0  0  0  0  0  0  0  0  0  0
    0.4698    9.3192   13.6000 H   0  0  0  0  0  0  0  0  0  0  0  0
   -1.1738   10.3842   10.0600 C   0  0  0  0  0  0  0  0  0  0  0  0
   -0.3018    9.6324   10.9014 O   0  0  0  0  0  0  0  0  0  0  0  0
    2.5268    2.7856   11.3060 C   0  0  0  0  0  0  0  0  0  0  0  0
    2.6013    1.9820   10.0079 C   0  0  0  0  0  0  0  0  0  0  0  0
    2.6167    0.4996   10.2767 C   0  0  0  0  0  0  0  0  0  0  0  0
    3.5256   -0.0456   11.1935 C   0  0  0  0  0  0  0  0  0  0  0  0
    3.5501   -1.4202   11.4341 C   0  0  0  0  0  0  0  0  0  0  0  0
    2.6695   -2.2627   10.7587 C   0  0  0  0  0  0  0  0  0  0  0  0
    1.7638   -1.7321    9.8422 C   0  0  0  0  0  0  0  0  0  0  0  0
    1.7366   -0.3573    9.6021 C   0  0  0  0  0  0  0  0  0  0  0  0
 18 19  1  0
  1 19  1  0
  1  2  1  0
  2  3  1  0
  2  4  1  0
  4  5  1  0
  4  6  1  0
  6  7  1  0
  7  8  1  0
  8 20  1  0
 20 21  1  0
 21 22  1  0
 22 23  2  0
 23 24  1  0
 24 25  2  0
 25 26  1  0
 26 27  2  0
  8  9  2  0
  9 10  1  0
 10 11  1  0
 11 15  1  0
 15 16  1  0
 11  1  1  0
 10  6  2  0
 27 22  1  0
  3 12  1  0
  5 13  1  0
  7 14  1  0
 16 17  1  0
M  CHG 1  10   1
M  END
> <minimizedAffinity>
-7.11066

> <CNNscore>
0.2607806027

> <CNNaffinity>
5.5901646614

> <CNN_VS>
1.4578064680

> <CNNaffinity_variance>
0.0257920977

$$$$
