


 22 25  0  0  0  0  0  0  0  0999 V2000
   16.0958    4.7041   12.1416 C   0  0  0  0  0  0  0  0  0  0  0  0
   16.1802    6.1905   12.1550 C   0  0  0  0  0  0  0  0  0  0  0  0
   17.2653    6.8576   12.4984 N   0  0  0  0  0  0  0  0  0  0  0  0
   16.9426    8.1783   12.3723 C   0  0  0  0  0  0  0  0  0  0  0  0
   17.7077    9.3363   12.6020 C   0  0  0  0  0  0  0  0  0  0  0  0
   17.2168   10.5976   12.4154 N   0  0  0  0  0  0  0  0  0  0  0  0
   15.9457   10.6468   11.9873 C   0  0  0  0  0  0  0  0  0  0  0  0
   15.2196   11.7713   11.7122 N   0  0  0  0  0  0  0  0  0  0  0  0
   13.9785   11.3909   11.2910 C   0  0  0  0  0  0  0  0  0  0  0  0
   12.8715   12.6077   10.8722 Cl  0  0  0  0  0  0  0  0  0  0  0  0
   13.8695   10.0197   11.2864 C   0  0  0  0  0  0  0  0  0  0  0  0
   15.1294    9.5594   11.7395 C   0  0  0  0  0  0  0  0  0  0  0  0
   15.6316    8.3059   11.9409 C   0  0  0  0  0  0  0  0  0  0  0  0
   15.1323    7.0538   11.8157 N   0  0  0  0  0  0  0  0  0  0  0  0
   15.5378   12.6985   11.8025 H   0  0  0  0  0  0  0  0  0  0  0  0
   13.7994    6.5808   11.4561 C   0  0  0  0  0  0  0  0  0  0  0  0
   13.4318    6.7910    9.9779 C   0  0  0  0  0  0  0  0  0  0  0  0
   11.9205    6.8984    9.7751 C   0  0  0  0  0  0  0  0  0  0  0  0
   11.2250    5.9839   10.6695 N   0  0  0  0  0  0  0  0  0  0  0  0
   11.3635    6.3552   12.0791 C   0  0  0  0  0  0  0  0  0  0  0  0
   12.6998    7.0190   12.4292 C   0  0  0  0  0  0  0  0  0  0  0  0
   11.6073    5.0472   10.5399 H   0  0  0  0  0  0  0  0  0  0  0  0
  1  2  1  0
  2  3  2  0
  3  4  1  0
  4  5  2  0
  5  6  1  0
  6  7  2  0
  7  8  1  0
  8  9  1  0
  9 10  1  0
  9 11  2  0
 11 12  1  0
 12 13  2  0
 13 14  1  0
 14 16  1  0
 16 17  1  0
 17 18  1  0
 18 19  1  0
 19 20  1  0
 20 21  1  0
 14  2  1  0
 21 16  1  0
 13  4  1  0
 12  7  1  0
  8 15  1  0
 19 22  1  0
M  END
> <minimizedAffinity>
-8.04720

> <CNNscore>
0.9818574190

> <CNNaffinity>
7.3382239342

> <CNN_VS>
7.2050895691

> <CNNaffinity_variance>
0.0246270448

$$$$



 22 25  0  0  0  0  0  0  0  0999 V2000
   11.8348    8.0916   10.2551 C   0  0  0  0  0  0  0  0  0  0  0  0
   12.9638    8.9401   10.7261 C   0  0  0  0  0  0  0  0  0  0  0  0
   12.9058   10.2557   10.8045 N   0  0  0  0  0  0  0  0  0  0  0  0
   14.1219   10.6515   11.2828 C   0  0  0  0  0  0  0  0  0  0  0  0
   14.6234   11.9348   11.5666 C   0  0  0  0  0  0  0  0  0  0  0  0
   15.8822   12.1473   12.0534 N   0  0  0  0  0  0  0  0  0  0  0  0
   16.6037   11.0324   12.2478 C   0  0  0  0  0  0  0  0  0  0  0  0
   17.8790   10.9592   12.7332 N   0  0  0  0  0  0  0  0  0  0  0  0
   18.2438    9.6455   12.7908 C   0  0  0  0  0  0  0  0  0  0  0  0
   19.7943    9.2738   13.3733 Cl  0  0  0  0  0  0  0  0  0  0  0  0
   17.2219    8.8407   12.3436 C   0  0  0  0  0  0  0  0  0  0  0  0
   16.1855    9.7397   11.9943 C   0  0  0  0  0  0  0  0  0  0  0  0
   14.9285    9.5450   11.4981 C   0  0  0  0  0  0  0  0  0  0  0  0
   14.2122    8.4558   11.1332 N   0  0  0  0  0  0  0  0  0  0  0  0
   18.4395   11.7245   12.9967 H   0  0  0  0  0  0  0  0  0  0  0  0
   14.5676    7.0412   11.0882 C   0  0  0  0  0  0  0  0  0  0  0  0
   14.0411    6.2964    9.8502 C   0  0  0  0  0  0  0  0  0  0  0  0
   13.8584    4.8025   10.1174 C   0  0  0  0  0  0  0  0  0  0  0  0
   14.9251    4.3093   10.9771 N   0  0  0  0  0  0  0  0  0  0  0  0
   14.8637    4.8638   12.3308 C   0  0  0  0  0  0  0  0  0  0  0  0
   14.3199    6.2948   12.4034 C   0  0  0  0  0  0  0  0  0  0  0  0
   15.8218    4.5620   10.5616 H   0  0  0  0  0  0  0  0  0  0  0  0
  1  2  1  0
  2  3  2  0
  3  4  1  0
  4  5  2  0
  5  6  1  0
  6  7  2  0
  7  8  1  0
  8  9  1  0
  9 10  1  0
  9 11  2  0
 11 12  1  0
 12 13  2  0
 13 14  1  0
 14 16  1  0
 16 17  1  0
 17 18  1  0
 18 19  1  0
 19 20  1  0
 20 21  1  0
 14  2  1  0
 21 16  1  0
 13  4  1  0
 12  7  1  0
  8 15  1  0
 19 22  1  0
M  END
> <minimizedAffinity>
-8.34446

> <CNNscore>
0.9591332674

> <CNNaffinity>
7.1458592415

> <CNN_VS>
6.8538312912

> <CNNaffinity_variance>
0.0691907629

$$$$



 22 25  0  0  0  0  0  0  0  0999 V2000
   18.9626    9.3152   12.9653 C   0  0  0  0  0  0  0  0  0  0  0  0
   17.6435    9.8554   12.5356 C   0  0  0  0  0  0  0  0  0  0  0  0
   17.3256   11.1347   12.5884 N   0  0  0  0  0  0  0  0  0  0  0  0
   16.0519   11.2193   12.1039 C   0  0  0  0  0  0  0  0  0  0  0  0
   15.2088   12.3316   11.9273 C   0  0  0  0  0  0  0  0  0  0  0  0
   13.9464   12.2303   11.4148 N   0  0  0  0  0  0  0  0  0  0  0  0
   13.5737   10.9839   11.0845 C   0  0  0  0  0  0  0  0  0  0  0  0
   12.3768   10.6054   10.5448 N   0  0  0  0  0  0  0  0  0  0  0  0
   12.4013    9.2557   10.3450 C   0  0  0  0  0  0  0  0  0  0  0  0
   11.0263    8.5250    9.6689 Cl  0  0  0  0  0  0  0  0  0  0  0  0
   13.6056    8.7294   10.7511 C   0  0  0  0  0  0  0  0  0  0  0  0
   14.3399    9.8425   11.2267 C   0  0  0  0  0  0  0  0  0  0  0  0
   15.5955    9.9592   11.7502 C   0  0  0  0  0  0  0  0  0  0  0  0
   16.5885    9.0842   12.0347 N   0  0  0  0  0  0  0  0  0  0  0  0
   11.6243   11.2048   10.3356 H   0  0  0  0  0  0  0  0  0  0  0  0
   16.6498    7.6302   11.9274 C   0  0  0  0  0  0  0  0  0  0  0  0
   15.7315    7.0370   10.8462 C   0  0  0  0  0  0  0  0  0  0  0  0
   15.3319    5.5962   11.1640 C   0  0  0  0  0  0  0  0  0  0  0  0
   16.4484    4.8847   11.7700 N   0  0  0  0  0  0  0  0  0  0  0  0
   16.7938    5.3977   13.0971 C   0  0  0  0  0  0  0  0  0  0  0  0
   16.5615    6.9023   13.2730 C   0  0  0  0  0  0  0  0  0  0  0  0
   17.2625    4.9776   11.1625 H   0  0  0  0  0  0  0  0  0  0  0  0
  1  2  1  0
  2  3  2  0
  3  4  1  0
  4  5  2  0
  5  6  1  0
  6  7  2  0
  7  8  1  0
  8  9  1  0
  9 10  1  0
  9 11  2  0
 11 12  1  0
 12 13  2  0
 13 14  1  0
 14 16  1  0
 16 17  1  0
 17 18  1  0
 18 19  1  0
 19 20  1  0
 20 21  1  0
 14  2  1  0
 21 16  1  0
 13  4  1  0
 12  7  1  0
  8 15  1  0
 19 22  1  0
M  END
> <minimizedAffinity>
-7.92656

> <CNNscore>
0.9004314542

> <CNNaffinity>
7.0579161644

> <CNN_VS>
6.3551697731

> <CNNaffinity_variance>
0.0033327162

$$$$



 22 25  0  0  0  0  0  0  0  0999 V2000
   12.7457   11.4327   10.7789 C   0  0  0  0  0  0  0  0  0  0  0  0
   13.9729   10.7316   11.2467 C   0  0  0  0  0  0  0  0  0  0  0  0
   15.0775   11.3553   11.6089 N   0  0  0  0  0  0  0  0  0  0  0  0
   15.9531   10.3737   11.9752 C   0  0  0  0  0  0  0  0  0  0  0  0
   17.2762   10.4528   12.4466 C   0  0  0  0  0  0  0  0  0  0  0  0
   18.0124    9.3500   12.7760 N   0  0  0  0  0  0  0  0  0  0  0  0
   17.3710    8.1811   12.6217 C   0  0  0  0  0  0  0  0  0  0  0  0
   17.8674    6.9360   12.8871 N   0  0  0  0  0  0  0  0  0  0  0  0
   16.8969    6.0171   12.6114 C   0  0  0  0  0  0  0  0  0  0  0  0
   17.2560    4.3777   12.8668 Cl  0  0  0  0  0  0  0  0  0  0  0  0
   15.7566    6.6399   12.1600 C   0  0  0  0  0  0  0  0  0  0  0  0
   16.0765    8.0190   12.1654 C   0  0  0  0  0  0  0  0  0  0  0  0
   15.3577    9.1304   11.8304 C   0  0  0  0  0  0  0  0  0  0  0  0
   14.1086    9.3428   11.3535 N   0  0  0  0  0  0  0  0  0  0  0  0
   18.7718    6.7358   13.2206 H   0  0  0  0  0  0  0  0  0  0  0  0
   13.0579    8.4102   10.9587 C   0  0  0  0  0  0  0  0  0  0  0  0
   12.3324    7.7399   12.1371 C   0  0  0  0  0  0  0  0  0  0  0  0
   11.7441    6.3836   11.7484 C   0  0  0  0  0  0  0  0  0  0  0  0
   11.2272    6.4288   10.3880 N   0  0  0  0  0  0  0  0  0  0  0  0
   12.2824    6.5939    9.3863 C   0  0  0  0  0  0  0  0  0  0  0  0
   13.4775    7.4287    9.8592 C   0  0  0  0  0  0  0  0  0  0  0  0
   10.5793    7.2128   10.3112 H   0  0  0  0  0  0  0  0  0  0  0  0
  1  2  1  0
  2  3  2  0
  3  4  1  0
  4  5  2  0
  5  6  1  0
  6  7  2  0
  7  8  1  0
  8  9  1  0
  9 10  1  0
  9 11  2  0
 11 12  1  0
 12 13  2  0
 13 14  1  0
 14 16  1  0
 16 17  1  0
 17 18  1  0
 18 19  1  0
 19 20  1  0
 20 21  1  0
 14  2  1  0
 21 16  1  0
 13  4  1  0
 12  7  1  0
  8 15  1  0
 19 22  1  0
M  END
> <minimizedAffinity>
-8.02315

> <CNNscore>
0.7820121050

> <CNNaffinity>
6.9382071495

> <CNN_VS>
5.4257621765

> <CNNaffinity_variance>
0.0862910151

$$$$



 22 25  0  0  0  0  0  0  0  0999 V2000
   12.7567   11.2690   11.0285 C   0  0  0  0  0  0  0  0  0  0  0  0
   14.0601   10.6714   11.4291 C   0  0  0  0  0  0  0  0  0  0  0  0
   15.1199   11.3841   11.7595 N   0  0  0  0  0  0  0  0  0  0  0  0
   16.0937   10.4776   12.0667 C   0  0  0  0  0  0  0  0  0  0  0  0
   17.4238   10.6654   12.4847 C   0  0  0  0  0  0  0  0  0  0  0  0
   18.2680    9.6266   12.7582 N   0  0  0  0  0  0  0  0  0  0  0  0
   17.7262    8.4083   12.6038 C   0  0  0  0  0  0  0  0  0  0  0  0
   18.3416    7.2075   12.8199 N   0  0  0  0  0  0  0  0  0  0  0  0
   17.4451    6.2112   12.5636 C   0  0  0  0  0  0  0  0  0  0  0  0
   17.9582    4.6058   12.7664 Cl  0  0  0  0  0  0  0  0  0  0  0  0
   16.2358    6.7383   12.1740 C   0  0  0  0  0  0  0  0  0  0  0  0
   16.4327    8.1402   12.1978 C   0  0  0  0  0  0  0  0  0  0  0  0
   15.6047    9.1892   11.9183 C   0  0  0  0  0  0  0  0  0  0  0  0
   14.3224    9.2984   11.4984 N   0  0  0  0  0  0  0  0  0  0  0  0
   19.2737    7.0825   13.1111 H   0  0  0  0  0  0  0  0  0  0  0  0
   13.3420    8.2836   11.1260 C   0  0  0  0  0  0  0  0  0  0  0  0
   12.6606    8.5307    9.7699 C   0  0  0  0  0  0  0  0  0  0  0  0
   11.2759    7.8869    9.7011 C   0  0  0  0  0  0  0  0  0  0  0  0
   11.2796    6.6063   10.3939 N   0  0  0  0  0  0  0  0  0  0  0  0
   11.4723    6.7444   11.8388 C   0  0  0  0  0  0  0  0  0  0  0  0
   12.3620    7.9235   12.2476 C   0  0  0  0  0  0  0  0  0  0  0  0
   12.0354    6.0341   10.0174 H   0  0  0  0  0  0  0  0  0  0  0  0
  1  2  1  0
  2  3  2  0
  3  4  1  0
  4  5  2  0
  5  6  1  0
  6  7  2  0
  7  8  1  0
  8  9  1  0
  9 10  1  0
  9 11  2  0
 11 12  1  0
 12 13  2  0
 13 14  1  0
 14 16  1  0
 16 17  1  0
 17 18  1  0
 18 19  1  0
 19 20  1  0
 20 21  1  0
 14  2  1  0
 21 16  1  0
 13  4  1  0
 12  7  1  0
  8 15  1  0
 19 22  1  0
M  END
> <minimizedAffinity>
-7.46551

> <CNNscore>
0.6820599437

> <CNNaffinity>
6.7735695839

> <CNN_VS>
4.6199803352

> <CNNaffinity_variance>
0.1456340402

$$$$



 22 25  0  0  0  0  0  0  0  0999 V2000
   19.6446    9.5842   13.1349 C   0  0  0  0  0  0  0  0  0  0  0  0
   18.2377    9.3617   12.7016 C   0  0  0  0  0  0  0  0  0  0  0  0
   17.4044   10.3376   12.3958 N   0  0  0  0  0  0  0  0  0  0  0  0
   16.2342    9.7279   12.0444 C   0  0  0  0  0  0  0  0  0  0  0  0
   15.0053   10.2708   11.6271 C   0  0  0  0  0  0  0  0  0  0  0  0
   13.9256    9.4984   11.3046 N   0  0  0  0  0  0  0  0  0  0  0  0
   14.1307    8.1761   11.4098 C   0  0  0  0  0  0  0  0  0  0  0  0
   13.2289    7.1858   11.1390 N   0  0  0  0  0  0  0  0  0  0  0  0
   13.8324    5.9815   11.3576 C   0  0  0  0  0  0  0  0  0  0  0  0
   12.9244    4.5737   11.0834 Cl  0  0  0  0  0  0  0  0  0  0  0  0
   15.1303    6.1609   11.7764 C   0  0  0  0  0  0  0  0  0  0  0  0
   15.3037    7.5656   11.8115 C   0  0  0  0  0  0  0  0  0  0  0  0
   16.3703    8.3519   12.1404 C   0  0  0  0  0  0  0  0  0  0  0  0
   17.6299    8.1077   12.5721 N   0  0  0  0  0  0  0  0  0  0  0  0
   12.3012    7.3186   10.8373 H   0  0  0  0  0  0  0  0  0  0  0  0
   18.3076    6.8592   12.9063 C   0  0  0  0  0  0  0  0  0  0  0  0
   19.7083    7.0434   13.5134 C   0  0  0  0  0  0  0  0  0  0  0  0
   20.6040    5.8307   13.2607 C   0  0  0  0  0  0  0  0  0  0  0  0
   19.8278    4.6022   13.3513 N   0  0  0  0  0  0  0  0  0  0  0  0
   18.8425    4.4741   12.2758 C   0  0  0  0  0  0  0  0  0  0  0  0
   18.2552    5.8055   11.7950 C   0  0  0  0  0  0  0  0  0  0  0  0
   19.3375    4.5916   14.2457 H   0  0  0  0  0  0  0  0  0  0  0  0
  1  2  1  0
  2  3  2  0
  3  4  1  0
  4  5  2  0
  5  6  1  0
  6  7  2  0
  7  8  1  0
  8  9  1  0
  9 10  1  0
  9 11  2  0
 11 12  1  0
 12 13  2  0
 13 14  1  0
 14 16  1  0
 16 17  1  0
 17 18  1  0
 18 19  1  0
 19 20  1  0
 20 21  1  0
 14  2  1  0
 21 16  1  0
 13  4  1  0
 12  7  1  0
  8 15  1  0
 19 22  1  0
M  END
> <minimizedAffinity>
-6.25297

> <CNNscore>
0.3243595958

> <CNNaffinity>
6.2346758842

> <CNN_VS>
2.0222768784

> <CNNaffinity_variance>
0.2537176311

$$$$



 22 25  0  0  0  0  0  0  0  0999 V2000
   17.1319   10.7060   12.4624 C   0  0  0  0  0  0  0  0  0  0  0  0
   15.8426   10.2711   11.8580 C   0  0  0  0  0  0  0  0  0  0  0  0
   14.9856   11.0984   11.2910 N   0  0  0  0  0  0  0  0  0  0  0  0
   13.9507   10.3195   10.8589 C   0  0  0  0  0  0  0  0  0  0  0  0
   12.7635   10.6609   10.1859 C   0  0  0  0  0  0  0  0  0  0  0  0
   11.8275    9.7357    9.8192 N   0  0  0  0  0  0  0  0  0  0  0  0
   12.1326    8.4700   10.1452 C   0  0  0  0  0  0  0  0  0  0  0  0
   11.3828    7.3570    9.8877 N   0  0  0  0  0  0  0  0  0  0  0  0
   12.0494    6.2673   10.3678 C   0  0  0  0  0  0  0  0  0  0  0  0
   11.3323    4.7419   10.1666 Cl  0  0  0  0  0  0  0  0  0  0  0  0
   13.2380    6.6455   10.9477 C   0  0  0  0  0  0  0  0  0  0  0  0
   13.2737    8.0535   10.8043 C   0  0  0  0  0  0  0  0  0  0  0  0
   14.1945    8.9917   11.1732 C   0  0  0  0  0  0  0  0  0  0  0  0
   15.3822    8.9499   11.8215 N   0  0  0  0  0  0  0  0  0  0  0  0
   10.5097    7.3435    9.4330 H   0  0  0  0  0  0  0  0  0  0  0  0
   16.1066    7.8401   12.4323 C   0  0  0  0  0  0  0  0  0  0  0  0
   17.4696    8.2274   13.0294 C   0  0  0  0  0  0  0  0  0  0  0  0
   18.4346    7.0424   13.0658 C   0  0  0  0  0  0  0  0  0  0  0  0
   17.7174    5.8174   13.3899 N   0  0  0  0  0  0  0  0  0  0  0  0
   16.7859    5.4107   12.3360 C   0  0  0  0  0  0  0  0  0  0  0  0
   16.1536    6.5761   11.5673 C   0  0  0  0  0  0  0  0  0  0  0  0
   17.1911    5.9657   14.2509 H   0  0  0  0  0  0  0  0  0  0  0  0
  1  2  1  0
  2  3  2  0
  3  4  1  0
  4  5  2  0
  5  6  1  0
  6  7  2  0
  7  8  1  0
  8  9  1  0
  9 10  1  0
  9 11  2  0
 11 12  1  0
 12 13  2  0
 13 14  1  0
 14 16  1  0
 16 17  1  0
 17 18  1  0
 18 19  1  0
 19 20  1  0
 20 21  1  0
 14  2  1  0
 21 16  1  0
 13  4  1  0
 12  7  1  0
  8 15  1  0
 19 22  1  0
M  END
> <minimizedAffinity>
-7.65102

> <CNNscore>
0.2860865295

> <CNNaffinity>
5.8527698517

> <CNN_VS>
1.6743986607

> <CNNaffinity_variance>
0.2488999367

$$$$



 22 25  0  0  0  0  0  0  0  0999 V2000
   12.6152    3.9193   10.6074 C   0  0  0  0  0  0  0  0  0  0  0  0
   12.6479    5.4043   10.5071 C   0  0  0  0  0  0  0  0  0  0  0  0
   11.6409    6.1286   10.0578 N   0  0  0  0  0  0  0  0  0  0  0  0
   12.0573    7.4268   10.1320 C   0  0  0  0  0  0  0  0  0  0  0  0
   11.4002    8.6228    9.7900 C   0  0  0  0  0  0  0  0  0  0  0  0
   11.9757    9.8529    9.9386 N   0  0  0  0  0  0  0  0  0  0  0  0
   13.2185    9.8329   10.4451 C   0  0  0  0  0  0  0  0  0  0  0  0
   14.0120   10.9147   10.7047 N   0  0  0  0  0  0  0  0  0  0  0  0
   15.1918   10.4690   11.2259 C   0  0  0  0  0  0  0  0  0  0  0  0
   16.3629   11.6229   11.6483 Cl  0  0  0  0  0  0  0  0  0  0  0  0
   15.1932    9.0962   11.3127 C   0  0  0  0  0  0  0  0  0  0  0  0
   13.9310    8.7046   10.8046 C   0  0  0  0  0  0  0  0  0  0  0  0
   13.3457    7.4821   10.6401 C   0  0  0  0  0  0  0  0  0  0  0  0
   13.7374    6.2061   10.8659 N   0  0  0  0  0  0  0  0  0  0  0  0
   13.7730   11.8560   10.5432 H   0  0  0  0  0  0  0  0  0  0  0  0
   15.0051    5.6576   11.3367 C   0  0  0  0  0  0  0  0  0  0  0  0
   15.2209    4.1757   10.9879 C   0  0  0  0  0  0  0  0  0  0  0  0
   16.1627    3.4878   11.9761 C   0  0  0  0  0  0  0  0  0  0  0  0
   17.2266    4.3978   12.3764 N   0  0  0  0  0  0  0  0  0  0  0  0
   16.7373    5.5278   13.1685 C   0  0  0  0  0  0  0  0  0  0  0  0
   15.3265    5.9966   12.7962 C   0  0  0  0  0  0  0  0  0  0  0  0
   17.6791    4.7596   11.5370 H   0  0  0  0  0  0  0  0  0  0  0  0
  1  2  1  0
  2  3  2  0
  3  4  1  0
  4  5  2  0
  5  6  1  0
  6  7  2  0
  7  8  1  0
  8  9  1  0
  9 10  1  0
  9 11  2  0
 11 12  1  0
 12 13  2  0
 13 14  1  0
 14 16  1  0
 16 17  1  0
 17 18  1  0
 18 19  1  0
 19 20  1  0
 20 21  1  0
 14  2  1  0
 21 16  1  0
 13  4  1  0
 12  7  1  0
  8 15  1  0
 19 22  1  0
M  END
> <minimizedAffinity>
-7.05184

> <CNNscore>
0.2665428221

> <CNNaffinity>
5.6408524513

> <CNN_VS>
1.5035287142

> <CNNaffinity_variance>
0.4932719171

$$$$



 22 25  0  0  0  0  0  0  0  0999 V2000
   14.6050    3.5751   11.3998 C   0  0  0  0  0  0  0  0  0  0  0  0
   15.4094    4.7808   11.7398 C   0  0  0  0  0  0  0  0  0  0  0  0
   16.6283    4.7282   12.2418 N   0  0  0  0  0  0  0  0  0  0  0  0
   17.0186    6.0268   12.4017 C   0  0  0  0  0  0  0  0  0  0  0  0
   18.2189    6.5708   12.8940 C   0  0  0  0  0  0  0  0  0  0  0  0
   18.4429    7.9159   12.9786 N   0  0  0  0  0  0  0  0  0  0  0  0
   17.4283    8.6814   12.5472 C   0  0  0  0  0  0  0  0  0  0  0  0
   17.3937   10.0469   12.5110 N   0  0  0  0  0  0  0  0  0  0  0  0
   16.1921   10.4343   11.9929 C   0  0  0  0  0  0  0  0  0  0  0  0
   15.8937   12.0974   11.8294 Cl  0  0  0  0  0  0  0  0  0  0  0  0
   15.4222    9.3365   11.6862 C   0  0  0  0  0  0  0  0  0  0  0  0
   16.2210    8.2262   12.0517 C   0  0  0  0  0  0  0  0  0  0  0  0
   16.0088    6.8792   11.9835 C   0  0  0  0  0  0  0  0  0  0  0  0
   14.9773    6.1020   11.5776 N   0  0  0  0  0  0  0  0  0  0  0  0
   18.1135   10.6492   12.8083 H   0  0  0  0  0  0  0  0  0  0  0  0
   13.6431    6.4471   11.0976 C   0  0  0  0  0  0  0  0  0  0  0  0
   12.8785    5.2756   10.4593 C   0  0  0  0  0  0  0  0  0  0  0  0
   11.8418    5.7560    9.4440 C   0  0  0  0  0  0  0  0  0  0  0  0
   11.2162    6.9872    9.9054 N   0  0  0  0  0  0  0  0  0  0  0  0
   12.1465    8.1174    9.9386 C   0  0  0  0  0  0  0  0  0  0  0  0
   13.5935    7.7352   10.2689 C   0  0  0  0  0  0  0  0  0  0  0  0
   10.8534    6.8358   10.8466 H   0  0  0  0  0  0  0  0  0  0  0  0
  1  2  1  0
  2  3  2  0
  3  4  1  0
  4  5  2  0
  5  6  1  0
  6  7  2  0
  7  8  1  0
  8  9  1  0
  9 10  1  0
  9 11  2  0
 11 12  1  0
 12 13  2  0
 13 14  1  0
 14 16  1  0
 16 17  1  0
 17 18  1  0
 18 19  1  0
 19 20  1  0
 20 21  1  0
 14  2  1  0
 21 16  1  0
 13  4  1  0
 12  7  1  0
  8 15  1  0
 19 22  1  0
M  END
> <minimizedAffinity>
-7.53104

> <CNNscore>
0.2396365702

> <CNNaffinity>
5.1544985771

> <CNN_VS>
1.2352063656

> <CNNaffinity_variance>
0.6147758365

$$$$
