


 24 26  0  0  0  0  0  0  0  0999 V2000
   31.3377   -6.4891   62.4780 C   0  0  0  0  0  0  0  0  0  0  0  0
   30.6173   -5.3700   62.2702 C   0  0  0  0  0  0  0  0  0  0  0  0
   30.1416   -4.4560   63.3710 C   0  0  0  0  0  0  0  0  0  0  0  0
   29.5605   -3.1494   62.8414 C   0  0  0  0  0  0  0  0  0  0  0  0
   30.3553   -2.6788   61.6339 C   0  0  0  0  0  0  0  0  0  0  0  0
   30.2288   -3.6502   60.5453 N   0  0  0  0  0  0  0  0  0  0  0  0
   30.3369   -4.8976   60.8692 C   0  0  0  0  0  0  0  0  0  0  0  0
   30.8375   -8.0217   64.4017 C   0  0  0  0  0  0  0  0  0  0  0  0
   31.1610   -8.4990   65.6767 C   0  0  0  0  0  0  0  0  0  0  0  0
   32.2745   -7.9876   66.3433 C   0  0  0  0  0  0  0  0  0  0  0  0
   32.6220   -8.4272   67.5875 O   0  0  0  0  0  0  0  0  0  0  0  0
   33.0734   -7.0094   65.7654 C   0  0  0  0  0  0  0  0  0  0  0  0
   32.7592   -6.5265   64.4973 C   0  0  0  0  0  0  0  0  0  0  0  0
   31.6432   -7.0252   63.8121 C   0  0  0  0  0  0  0  0  0  0  0  0
   32.1087   -9.0864   68.0118 H   0  0  0  0  0  0  0  0  0  0  0  0
   29.3046   -9.7766   63.8679 C   0  0  0  0  0  0  0  0  0  0  0  0
   29.7683   -8.4502   63.6543 O   0  0  0  0  0  0  0  0  0  0  0  0
   30.1432   -5.9053   59.7937 C   0  0  0  0  0  0  0  0  0  0  0  0
   31.2038   -6.6472   59.2814 C   0  0  0  0  0  0  0  0  0  0  0  0
   31.0675   -7.5921   58.3173 N   0  0  0  0  0  0  0  0  0  0  0  0
   29.8094   -7.8164   57.8664 C   0  0  0  0  0  0  0  0  0  0  0  0
   28.6905   -7.1428   58.3360 C   0  0  0  0  0  0  0  0  0  0  0  0
   26.9765   -7.5323   57.6545 Br  0  0  0  0  0  0  0  0  0  0  0  0
   28.8571   -6.1750   59.3200 C   0  0  0  0  0  0  0  0  0  0  0  0
 16 17  1  0
 17  8  1  0
  8  9  2  0
  9 10  1  0
 10 11  1  0
 10 12  2  0
 12 13  1  0
 13 14  2  0
 14  1  1  0
  1  2  2  0
  2  3  1  0
  3  4  1  0
  4  5  1  0
  5  6  1  0
  6  7  2  0
  7 18  1  0
 18 19  2  0
 19 20  1  0
 20 21  2  0
 21 22  1  0
 22 23  1  0
 22 24  2  0
 14  8  1  0
  7  2  1  0
 24 18  1  0
 11 15  1  0
M  END
> <minimizedAffinity>
-7.17214

> <CNNscore>
0.8567011356

> <CNNaffinity>
7.1710448265

> <CNN_VS>
6.1434421539

> <CNNaffinity_variance>
0.3691515625

$$$$



 24 26  0  0  0  0  0  0  0  0999 V2000
   29.5378   -6.3339   61.8024 C   0  0  0  0  0  0  0  0  0  0  0  0
   29.9831   -5.1301   62.2110 C   0  0  0  0  0  0  0  0  0  0  0  0
   29.9255   -3.8793   61.3709 C   0  0  0  0  0  0  0  0  0  0  0  0
   30.2736   -2.6227   62.1615 C   0  0  0  0  0  0  0  0  0  0  0  0
   29.7123   -2.7231   63.5707 C   0  0  0  0  0  0  0  0  0  0  0  0
   30.3446   -3.8373   64.2803 N   0  0  0  0  0  0  0  0  0  0  0  0
   30.4755   -4.9419   63.6205 C   0  0  0  0  0  0  0  0  0  0  0  0
   29.9286   -7.0607   59.4320 C   0  0  0  0  0  0  0  0  0  0  0  0
   29.4273   -7.2994   58.1474 C   0  0  0  0  0  0  0  0  0  0  0  0
   28.0741   -7.0876   57.8841 C   0  0  0  0  0  0  0  0  0  0  0  0
   27.5481   -7.3087   56.6445 O   0  0  0  0  0  0  0  0  0  0  0  0
   27.2086   -6.6425   58.8749 C   0  0  0  0  0  0  0  0  0  0  0  0
   27.6976   -6.4005   60.1564 C   0  0  0  0  0  0  0  0  0  0  0  0
   29.0545   -6.6045   60.4408 C   0  0  0  0  0  0  0  0  0  0  0  0
   28.0989   -7.6094   55.9487 H   0  0  0  0  0  0  0  0  0  0  0  0
   32.2067   -6.3641   59.2338 C   0  0  0  0  0  0  0  0  0  0  0  0
   31.2387   -7.2340   59.8050 O   0  0  0  0  0  0  0  0  0  0  0  0
   31.1765   -6.0656   64.2954 C   0  0  0  0  0  0  0  0  0  0  0  0
   32.1604   -5.8478   65.2559 C   0  0  0  0  0  0  0  0  0  0  0  0
   32.8078   -6.8433   65.9121 N   0  0  0  0  0  0  0  0  0  0  0  0
   32.4340   -8.1096   65.6065 C   0  0  0  0  0  0  0  0  0  0  0  0
   31.4471   -8.4202   64.6816 C   0  0  0  0  0  0  0  0  0  0  0  0
   30.9873  -10.2146   64.3311 Br  0  0  0  0  0  0  0  0  0  0  0  0
   30.8023   -7.3825   64.0182 C   0  0  0  0  0  0  0  0  0  0  0  0
 16 17  1  0
 17  8  1  0
  8  9  2  0
  9 10  1  0
 10 11  1  0
 10 12  2  0
 12 13  1  0
 13 14  2  0
 14  1  1  0
  1  2  2  0
  2  3  1  0
  3  4  1  0
  4  5  1  0
  5  6  1  0
  6  7  2  0
  7 18  1  0
 18 19  2  0
 19 20  1  0
 20 21  2  0
 21 22  1  0
 22 23  1  0
 22 24  2  0
 14  8  1  0
  7  2  1  0
 24 18  1  0
 11 15  1  0
M  END
> <minimizedAffinity>
-7.73238

> <CNNscore>
0.7876662016

> <CNNaffinity>
7.1955013275

> <CNN_VS>
5.6676530838

> <CNNaffinity_variance>
0.5865691304

$$$$



 24 26  0  0  0  0  0  0  0  0999 V2000
   31.8268   -4.0819   65.2657 C   0  0  0  0  0  0  0  0  0  0  0  0
   30.9876   -4.0061   64.2147 C   0  0  0  0  0  0  0  0  0  0  0  0
   30.0773   -2.8348   63.9445 C   0  0  0  0  0  0  0  0  0  0  0  0
   29.4186   -2.9058   62.5711 C   0  0  0  0  0  0  0  0  0  0  0  0
   30.3972   -3.4702   61.5538 C   0  0  0  0  0  0  0  0  0  0  0  0
   30.7452   -4.8477   61.9088 N   0  0  0  0  0  0  0  0  0  0  0  0
   30.9986   -5.0758   63.1564 C   0  0  0  0  0  0  0  0  0  0  0  0
   32.6279   -1.9054   66.2249 C   0  0  0  0  0  0  0  0  0  0  0  0
   32.6453   -0.9893   67.2827 C   0  0  0  0  0  0  0  0  0  0  0  0
   31.9112   -1.2554   68.4385 C   0  0  0  0  0  0  0  0  0  0  0  0
   31.9032   -0.3870   69.4911 O   0  0  0  0  0  0  0  0  0  0  0  0
   31.1592   -2.4164   68.5627 C   0  0  0  0  0  0  0  0  0  0  0  0
   31.1363   -3.3354   67.5163 C   0  0  0  0  0  0  0  0  0  0  0  0
   31.8691   -3.0881   66.3478 C   0  0  0  0  0  0  0  0  0  0  0  0
   32.3977    0.4076   69.4467 H   0  0  0  0  0  0  0  0  0  0  0  0
   34.0851   -0.5686   64.8819 C   0  0  0  0  0  0  0  0  0  0  0  0
   33.3100   -1.7488   65.0435 O   0  0  0  0  0  0  0  0  0  0  0  0
   31.2864   -6.4793   63.5529 C   0  0  0  0  0  0  0  0  0  0  0  0
   32.5580   -6.8863   63.9466 C   0  0  0  0  0  0  0  0  0  0  0  0
   32.8584   -8.1503   64.3379 N   0  0  0  0  0  0  0  0  0  0  0  0
   31.8326   -9.0356   64.3561 C   0  0  0  0  0  0  0  0  0  0  0  0
   30.5294   -8.7131   64.0045 C   0  0  0  0  0  0  0  0  0  0  0  0
   29.1648  -10.0121   64.0724 Br  0  0  0  0  0  0  0  0  0  0  0  0
   30.2482   -7.4127   63.6014 C   0  0  0  0  0  0  0  0  0  0  0  0
 16 17  1  0
 17  8  1  0
  8  9  2  0
  9 10  1  0
 10 11  1  0
 10 12  2  0
 12 13  1  0
 13 14  2  0
 14  1  1  0
  1  2  2  0
  2  3  1  0
  3  4  1  0
  4  5  1  0
  5  6  1  0
  6  7  2  0
  7 18  1  0
 18 19  2  0
 19 20  1  0
 20 21  2  0
 21 22  1  0
 22 23  1  0
 22 24  2  0
 14  8  1  0
  7  2  1  0
 24 18  1  0
 11 15  1  0
M  END
> <minimizedAffinity>
-7.72727

> <CNNscore>
0.7676194310

> <CNNaffinity>
6.8631052971

> <CNN_VS>
5.2682528496

> <CNNaffinity_variance>
0.3620462418

$$$$



 24 26  0  0  0  0  0  0  0  0999 V2000
   30.4930   -8.0651   61.6696 C   0  0  0  0  0  0  0  0  0  0  0  0
   30.2395   -6.7853   62.0047 C   0  0  0  0  0  0  0  0  0  0  0  0
   30.3556   -6.2410   63.4061 C   0  0  0  0  0  0  0  0  0  0  0  0
   30.2450   -4.7210   63.4583 C   0  0  0  0  0  0  0  0  0  0  0  0
   30.9367   -4.1078   62.2514 C   0  0  0  0  0  0  0  0  0  0  0  0
   30.2555   -4.5225   61.0231 N   0  0  0  0  0  0  0  0  0  0  0  0
   29.9252   -5.7701   60.9393 C   0  0  0  0  0  0  0  0  0  0  0  0
   32.1224   -9.5043   62.9238 C   0  0  0  0  0  0  0  0  0  0  0  0
   32.3628  -10.5176   63.8587 C   0  0  0  0  0  0  0  0  0  0  0  0
   31.2889  -11.1282   64.5063 C   0  0  0  0  0  0  0  0  0  0  0  0
   31.4827  -12.1198   65.4235 O   0  0  0  0  0  0  0  0  0  0  0  0
   29.9789  -10.7500   64.2420 C   0  0  0  0  0  0  0  0  0  0  0  0
   29.7287   -9.7435   63.3122 C   0  0  0  0  0  0  0  0  0  0  0  0
   30.7935   -9.1194   62.6486 C   0  0  0  0  0  0  0  0  0  0  0  0
   32.3515  -12.4037   65.6300 H   0  0  0  0  0  0  0  0  0  0  0  0
   33.8769   -9.5818   61.3021 C   0  0  0  0  0  0  0  0  0  0  0  0
   33.0985   -8.8351   62.2275 O   0  0  0  0  0  0  0  0  0  0  0  0
   29.1713   -6.2009   59.7327 C   0  0  0  0  0  0  0  0  0  0  0  0
   27.7913   -6.3819   59.7535 C   0  0  0  0  0  0  0  0  0  0  0  0
   27.0622   -6.7513   58.6706 N   0  0  0  0  0  0  0  0  0  0  0  0
   27.7462   -6.9233   57.5134 C   0  0  0  0  0  0  0  0  0  0  0  0
   29.1168   -6.7412   57.3935 C   0  0  0  0  0  0  0  0  0  0  0  0
   29.9797   -6.9933   55.7364 Br  0  0  0  0  0  0  0  0  0  0  0  0
   29.8425   -6.3683   58.5191 C   0  0  0  0  0  0  0  0  0  0  0  0
 16 17  1  0
 17  8  1  0
  8  9  2  0
  9 10  1  0
 10 11  1  0
 10 12  2  0
 12 13  1  0
 13 14  2  0
 14  1  1  0
  1  2  2  0
  2  3  1  0
  3  4  1  0
  4  5  1  0
  5  6  1  0
  6  7  2  0
  7 18  1  0
 18 19  2  0
 19 20  1  0
 20 21  2  0
 21 22  1  0
 22 23  1  0
 22 24  2  0
 14  8  1  0
  7  2  1  0
 24 18  1  0
 11 15  1  0
M  END
> <minimizedAffinity>
-6.97449

> <CNNscore>
0.7538332343

> <CNNaffinity>
6.9682621956

> <CNN_VS>
5.2529077530

> <CNNaffinity_variance>
0.4731441736

$$$$



 24 26  0  0  0  0  0  0  0  0999 V2000
   32.3794   -6.3612   61.9457 C   0  0  0  0  0  0  0  0  0  0  0  0
   31.8632   -5.1525   61.6504 C   0  0  0  0  0  0  0  0  0  0  0  0
   31.4032   -4.1559   62.6842 C   0  0  0  0  0  0  0  0  0  0  0  0
   31.0894   -2.7891   62.0854 C   0  0  0  0  0  0  0  0  0  0  0  0
   32.0814   -2.4658   60.9798 C   0  0  0  0  0  0  0  0  0  0  0  0
   31.9402   -3.4300   59.8866 N   0  0  0  0  0  0  0  0  0  0  0  0
   31.8224   -4.6728   60.2247 C   0  0  0  0  0  0  0  0  0  0  0  0
   33.2957   -7.9877   63.6233 C   0  0  0  0  0  0  0  0  0  0  0  0
   33.3199   -8.4825   64.9321 C   0  0  0  0  0  0  0  0  0  0  0  0
   32.5063   -7.9016   65.9048 C   0  0  0  0  0  0  0  0  0  0  0  0
   32.5015   -8.3561   67.1914 O   0  0  0  0  0  0  0  0  0  0  0  0
   31.6681   -6.8367   65.6006 C   0  0  0  0  0  0  0  0  0  0  0  0
   31.6356   -6.3377   64.3006 C   0  0  0  0  0  0  0  0  0  0  0  0
   32.4432   -6.9090   63.3081 C   0  0  0  0  0  0  0  0  0  0  0  0
   33.0528   -9.0728   67.4372 H   0  0  0  0  0  0  0  0  0  0  0  0
   33.8763   -7.8888   61.3065 C   0  0  0  0  0  0  0  0  0  0  0  0
   34.0508   -8.4797   62.5872 O   0  0  0  0  0  0  0  0  0  0  0  0
   31.6082   -5.6628   59.1367 C   0  0  0  0  0  0  0  0  0  0  0  0
   32.6708   -6.2324   58.4409 C   0  0  0  0  0  0  0  0  0  0  0  0
   32.5209   -7.1558   57.4581 N   0  0  0  0  0  0  0  0  0  0  0  0
   31.2513   -7.5391   57.1796 C   0  0  0  0  0  0  0  0  0  0  0  0
   30.1344   -7.0440   57.8378 C   0  0  0  0  0  0  0  0  0  0  0  0
   28.4060   -7.6472   57.3875 Br  0  0  0  0  0  0  0  0  0  0  0  0
   30.3139   -6.0943   58.8371 C   0  0  0  0  0  0  0  0  0  0  0  0
 16 17  1  0
 17  8  1  0
  8  9  2  0
  9 10  1  0
 10 11  1  0
 10 12  2  0
 12 13  1  0
 13 14  2  0
 14  1  1  0
  1  2  2  0
  2  3  1  0
  3  4  1  0
  4  5  1  0
  5  6  1  0
  6  7  2  0
  7 18  1  0
 18 19  2  0
 19 20  1  0
 20 21  2  0
 21 22  1  0
 22 23  1  0
 22 24  2  0
 14  8  1  0
  7  2  1  0
 24 18  1  0
 11 15  1  0
M  END
> <minimizedAffinity>
-6.92810

> <CNNscore>
0.6393821239

> <CNNaffinity>
6.7909908295

> <CNN_VS>
4.3420381546

> <CNNaffinity_variance>
0.4614653289

$$$$



 24 26  0  0  0  0  0  0  0  0999 V2000
   30.1185   -6.7227   60.1748 C   0  0  0  0  0  0  0  0  0  0  0  0
   30.2682   -5.6377   60.9590 C   0  0  0  0  0  0  0  0  0  0  0  0
   30.5042   -4.2437   60.4349 C   0  0  0  0  0  0  0  0  0  0  0  0
   30.3976   -3.1801   61.5223 C   0  0  0  0  0  0  0  0  0  0  0  0
   29.2882   -3.5421   62.4965 C   0  0  0  0  0  0  0  0  0  0  0  0
   29.6171   -4.7931   63.1831 N   0  0  0  0  0  0  0  0  0  0  0  0
   30.0883   -5.7479   62.4490 C   0  0  0  0  0  0  0  0  0  0  0  0
   31.5737   -6.7406   58.1299 C   0  0  0  0  0  0  0  0  0  0  0  0
   31.6920   -6.7132   56.7358 C   0  0  0  0  0  0  0  0  0  0  0  0
   30.5435   -6.6534   55.9466 C   0  0  0  0  0  0  0  0  0  0  0  0
   30.6179   -6.6247   54.5843 O   0  0  0  0  0  0  0  0  0  0  0  0
   29.2780   -6.6202   56.5179 C   0  0  0  0  0  0  0  0  0  0  0  0
   29.1493   -6.6457   57.9045 C   0  0  0  0  0  0  0  0  0  0  0  0
   30.2908   -6.7030   58.7152 C   0  0  0  0  0  0  0  0  0  0  0  0
   31.4531   -6.6455   54.1602 H   0  0  0  0  0  0  0  0  0  0  0  0
   33.6900   -7.6963   58.6974 C   0  0  0  0  0  0  0  0  0  0  0  0
   32.6315   -6.7988   59.0035 O   0  0  0  0  0  0  0  0  0  0  0  0
   30.4947   -7.0034   63.1333 C   0  0  0  0  0  0  0  0  0  0  0  0
   31.7533   -7.1531   63.7088 C   0  0  0  0  0  0  0  0  0  0  0  0
   32.1561   -8.2719   64.3622 N   0  0  0  0  0  0  0  0  0  0  0  0
   31.2475   -9.2724   64.4611 C   0  0  0  0  0  0  0  0  0  0  0  0
   29.9631   -9.2018   63.9403 C   0  0  0  0  0  0  0  0  0  0  0  0
   28.7639  -10.6430   64.1379 Br  0  0  0  0  0  0  0  0  0  0  0  0
   29.5762   -8.0469   63.2700 C   0  0  0  0  0  0  0  0  0  0  0  0
 16 17  1  0
 17  8  1  0
  8  9  2  0
  9 10  1  0
 10 11  1  0
 10 12  2  0
 12 13  1  0
 13 14  2  0
 14  1  1  0
  1  2  2  0
  2  3  1  0
  3  4  1  0
  4  5  1  0
  5  6  1  0
  6  7  2  0
  7 18  1  0
 18 19  2  0
 19 20  1  0
 20 21  2  0
 21 22  1  0
 22 23  1  0
 22 24  2  0
 14  8  1  0
  7  2  1  0
 24 18  1  0
 11 15  1  0
M  END
> <minimizedAffinity>
-7.27875

> <CNNscore>
0.6341351867

> <CNNaffinity>
6.7978119850

> <CNN_VS>
4.3107318878

> <CNNaffinity_variance>
0.2413779944

$$$$



 24 26  0  0  0  0  0  0  0  0999 V2000
   30.0230   -6.2001   58.9205 C   0  0  0  0  0  0  0  0  0  0  0  0
   31.0467   -6.9533   59.3669 C   0  0  0  0  0  0  0  0  0  0  0  0
   31.1021   -8.4557   59.2517 C   0  0  0  0  0  0  0  0  0  0  0  0
   32.4687   -9.0242   59.6181 C   0  0  0  0  0  0  0  0  0  0  0  0
   33.5670   -8.0959   59.1250 C   0  0  0  0  0  0  0  0  0  0  0  0
   33.4692   -6.8032   59.8061 N   0  0  0  0  0  0  0  0  0  0  0  0
   32.2835   -6.3000   59.9220 C   0  0  0  0  0  0  0  0  0  0  0  0
   27.5419   -6.5623   59.0313 C   0  0  0  0  0  0  0  0  0  0  0  0
   26.3803   -7.1180   58.4832 C   0  0  0  0  0  0  0  0  0  0  0  0
   26.4584   -7.8529   57.3002 C   0  0  0  0  0  0  0  0  0  0  0  0
   25.3484   -8.4105   56.7353 O   0  0  0  0  0  0  0  0  0  0  0  0
   27.6709   -8.0460   56.6510 C   0  0  0  0  0  0  0  0  0  0  0  0
   28.8331   -7.4983   57.1889 C   0  0  0  0  0  0  0  0  0  0  0  0
   28.7765   -6.7590   58.3780 C   0  0  0  0  0  0  0  0  0  0  0  0
   24.5113   -8.3032   57.1425 H   0  0  0  0  0  0  0  0  0  0  0  0
   27.7659   -6.5232   61.4109 C   0  0  0  0  0  0  0  0  0  0  0  0
   27.5847   -5.8229   60.1875 O   0  0  0  0  0  0  0  0  0  0  0  0
   32.1501   -5.0225   60.6702 C   0  0  0  0  0  0  0  0  0  0  0  0
   32.9968   -3.9422   60.4380 C   0  0  0  0  0  0  0  0  0  0  0  0
   32.8953   -2.7519   61.0812 N   0  0  0  0  0  0  0  0  0  0  0  0
   31.8862   -2.6355   61.9782 C   0  0  0  0  0  0  0  0  0  0  0  0
   30.9805   -3.6497   62.2559 C   0  0  0  0  0  0  0  0  0  0  0  0
   29.6006   -3.3898   63.5139 Br  0  0  0  0  0  0  0  0  0  0  0  0
   31.1092   -4.8621   61.5878 C   0  0  0  0  0  0  0  0  0  0  0  0
 16 17  1  0
 17  8  1  0
  8  9  2  0
  9 10  1  0
 10 11  1  0
 10 12  2  0
 12 13  1  0
 13 14  2  0
 14  1  1  0
  1  2  2  0
  2  3  1  0
  3  4  1  0
  4  5  1  0
  5  6  1  0
  6  7  2  0
  7 18  1  0
 18 19  2  0
 19 20  1  0
 20 21  2  0
 21 22  1  0
 22 23  1  0
 22 24  2  0
 14  8  1  0
  7  2  1  0
 24 18  1  0
 11 15  1  0
M  END
> <minimizedAffinity>
-8.57722

> <CNNscore>
0.6189143658

> <CNNaffinity>
6.5281567574

> <CNN_VS>
4.0403699875

> <CNNaffinity_variance>
0.0663989708

$$$$



 24 26  0  0  0  0  0  0  0  0999 V2000
   32.0783   -2.7848   62.1133 C   0  0  0  0  0  0  0  0  0  0  0  0
   30.8954   -3.4021   62.2988 C   0  0  0  0  0  0  0  0  0  0  0  0
   29.7982   -3.4516   61.2657 C   0  0  0  0  0  0  0  0  0  0  0  0
   28.6751   -4.4107   61.6453 C   0  0  0  0  0  0  0  0  0  0  0  0
   29.2507   -5.6404   62.3291 C   0  0  0  0  0  0  0  0  0  0  0  0
   29.8971   -5.2547   63.5853 N   0  0  0  0  0  0  0  0  0  0  0  0
   30.6437   -4.1993   63.5501 C   0  0  0  0  0  0  0  0  0  0  0  0
   33.3462   -0.9336   60.9887 C   0  0  0  0  0  0  0  0  0  0  0  0
   33.6155   -0.1845   59.8377 C   0  0  0  0  0  0  0  0  0  0  0  0
   32.9482   -0.4811   58.6493 C   0  0  0  0  0  0  0  0  0  0  0  0
   33.1833    0.2267   57.5065 O   0  0  0  0  0  0  0  0  0  0  0  0
   32.0171   -1.5095   58.5834 C   0  0  0  0  0  0  0  0  0  0  0  0
   31.7407   -2.2601   59.7237 C   0  0  0  0  0  0  0  0  0  0  0  0
   32.3983   -1.9764   60.9282 C   0  0  0  0  0  0  0  0  0  0  0  0
   33.8042    0.9284   57.5094 H   0  0  0  0  0  0  0  0  0  0  0  0
   34.7374    0.4341   62.3701 C   0  0  0  0  0  0  0  0  0  0  0  0
   33.9406   -0.7317   62.2100 O   0  0  0  0  0  0  0  0  0  0  0  0
   31.2550   -3.7479   64.8277 C   0  0  0  0  0  0  0  0  0  0  0  0
   30.6622   -2.7702   65.6216 C   0  0  0  0  0  0  0  0  0  0  0  0
   31.1737   -2.3462   66.8046 N   0  0  0  0  0  0  0  0  0  0  0  0
   32.3162   -2.9468   67.2173 C   0  0  0  0  0  0  0  0  0  0  0  0
   32.9628   -3.9465   66.5042 C   0  0  0  0  0  0  0  0  0  0  0  0
   34.5440   -4.7315   67.1657 Br  0  0  0  0  0  0  0  0  0  0  0  0
   32.4219   -4.3595   65.2919 C   0  0  0  0  0  0  0  0  0  0  0  0
 16 17  1  0
 17  8  1  0
  8  9  2  0
  9 10  1  0
 10 11  1  0
 10 12  2  0
 12 13  1  0
 13 14  2  0
 14  1  1  0
  1  2  2  0
  2  3  1  0
  3  4  1  0
  4  5  1  0
  5  6  1  0
  6  7  2  0
  7 18  1  0
 18 19  2  0
 19 20  1  0
 20 21  2  0
 21 22  1  0
 22 23  1  0
 22 24  2  0
 14  8  1  0
  7  2  1  0
 24 18  1  0
 11 15  1  0
M  END
> <minimizedAffinity>
-7.24934

> <CNNscore>
0.6103282571

> <CNNaffinity>
6.1965775490

> <CNN_VS>
3.7819464207

> <CNNaffinity_variance>
0.0131638264

$$$$



 24 26  0  0  0  0  0  0  0  0999 V2000
   31.3742   -5.2293   59.3006 C   0  0  0  0  0  0  0  0  0  0  0  0
   30.6126   -4.8841   60.3568 C   0  0  0  0  0  0  0  0  0  0  0  0
   29.3460   -5.5996   60.7536 C   0  0  0  0  0  0  0  0  0  0  0  0
   28.8202   -5.1547   62.1140 C   0  0  0  0  0  0  0  0  0  0  0  0
   29.9810   -4.8991   63.0617 C   0  0  0  0  0  0  0  0  0  0  0  0
   30.7984   -3.7921   62.5606 N   0  0  0  0  0  0  0  0  0  0  0  0
   31.0642   -3.7977   61.2950 C   0  0  0  0  0  0  0  0  0  0  0  0
   31.4310   -7.6018   58.4839 C   0  0  0  0  0  0  0  0  0  0  0  0
   31.0559   -8.5573   57.5326 C   0  0  0  0  0  0  0  0  0  0  0  0
   30.2594   -8.1795   56.4517 C   0  0  0  0  0  0  0  0  0  0  0  0
   29.8734   -9.0819   55.5036 O   0  0  0  0  0  0  0  0  0  0  0  0
   29.8281   -6.8683   56.2984 C   0  0  0  0  0  0  0  0  0  0  0  0
   30.1970   -5.9093   57.2388 C   0  0  0  0  0  0  0  0  0  0  0  0
   30.9991   -6.2678   58.3305 C   0  0  0  0  0  0  0  0  0  0  0  0
   30.1434   -9.9766   55.5709 H   0  0  0  0  0  0  0  0  0  0  0  0
   33.5880   -8.1314   59.3677 C   0  0  0  0  0  0  0  0  0  0  0  0
   32.2102   -7.8585   59.5849 O   0  0  0  0  0  0  0  0  0  0  0  0
   31.8335   -2.6484   60.7501 C   0  0  0  0  0  0  0  0  0  0  0  0
   31.6109   -2.1563   59.4672 C   0  0  0  0  0  0  0  0  0  0  0  0
   32.2735   -1.0962   58.9400 N   0  0  0  0  0  0  0  0  0  0  0  0
   33.1810   -0.4916   59.7446 C   0  0  0  0  0  0  0  0  0  0  0  0
   33.4506   -0.8975   61.0440 C   0  0  0  0  0  0  0  0  0  0  0  0
   34.7245    0.0148   62.0924 Br  0  0  0  0  0  0  0  0  0  0  0  0
   32.7626   -1.9901   61.5594 C   0  0  0  0  0  0  0  0  0  0  0  0
 16 17  1  0
 17  8  1  0
  8  9  2  0
  9 10  1  0
 10 11  1  0
 10 12  2  0
 12 13  1  0
 13 14  2  0
 14  1  1  0
  1  2  2  0
  2  3  1  0
  3  4  1  0
  4  5  1  0
  5  6  1  0
  6  7  2  0
  7 18  1  0
 18 19  2  0
 19 20  1  0
 20 21  2  0
 21 22  1  0
 22 23  1  0
 22 24  2  0
 14  8  1  0
  7  2  1  0
 24 18  1  0
 11 15  1  0
M  END
> <minimizedAffinity>
-7.58483

> <CNNscore>
0.6057037115

> <CNNaffinity>
7.0676770210

> <CNN_VS>
4.2809181213

> <CNNaffinity_variance>
0.3895079792

$$$$
