


 18 20  0  0  0  0  0  0  0  0999 V2000
   -1.2297   40.5173   24.3865 N   0  0  0  0  0  0  0  0  0  0  0  0
   -2.3236   41.2002   24.8477 C   0  0  0  0  0  0  0  0  0  0  0  0
   -3.4586   41.1477   24.3985 O   0  0  0  0  0  0  0  0  0  0  0  0
   -1.9120   42.0466   26.0189 C   0  0  0  0  0  0  0  0  0  0  0  0
   -2.0649   43.5712   25.8754 C   0  0  0  0  0  0  0  0  0  0  0  0
   -1.5608   44.0727   24.5097 C   0  0  0  0  0  0  0  0  0  0  0  0
   -0.0399   43.8887   24.6113 C   0  0  0  0  0  0  0  0  0  0  0  0
    0.1458   43.2951   26.0192 C   0  0  0  0  0  0  0  0  0  0  0  0
   -0.9369   44.0563   26.7954 C   0  0  0  0  0  0  0  0  0  0  0  0
   -0.3933   41.8558   26.1114 C   0  0  0  0  0  0  0  0  0  0  0  0
   -0.0637   40.9241   24.9778 C   0  0  0  0  0  0  0  0  0  0  0  0
    1.0721   40.6141   24.6531 O   0  0  0  0  0  0  0  0  0  0  0  0
   -1.6933   40.4210   21.9384 C   0  0  0  0  0  0  0  0  0  0  0  0
   -1.2970   39.6615   23.2017 C   0  0  0  0  0  0  0  0  0  0  0  0
   -2.2279   38.4852   23.4948 C   0  0  0  0  0  0  0  0  0  0  0  0
   -2.2142   37.7653   24.4818 O   0  0  0  0  0  0  0  0  0  0  0  0
   -3.0868   38.2168   22.4884 O   0  0  0  0  0  0  0  0  0  0  0  0
   -3.1035   38.7642   21.7281 H   0  0  0  0  0  0  0  0  0  0  0  0
 14 13  1  0
 14 15  1  0
 15 16  2  0
 15 17  1  0
 14  1  1  0
  1  2  1  0
  2  3  2  0
  4  2  1  0
  4  5  1  0
  5  6  1  0
  6  7  1  0
  8  7  1  0
  8  9  1  0
  8 10  1  0
 10 11  1  0
 11 12  2  0
 11  1  1  0
 10  4  1  0
  9  5  1  0
 17 18  1  0
M  END
> <minimizedAffinity>
-4.53888

> <CNNscore>
0.8869746327

> <CNNaffinity>
4.3399872780

> <CNN_VS>
3.8494586945

> <CNNaffinity_variance>
0.2194626331

$$$$



 18 20  0  0  0  0  0  0  0  0999 V2000
   -2.3778   40.5653   26.1121 N   0  0  0  0  0  0  0  0  0  0  0  0
   -2.4746   40.9317   24.7961 C   0  0  0  0  0  0  0  0  0  0  0  0
   -2.5759   40.1825   23.8363 O   0  0  0  0  0  0  0  0  0  0  0  0
   -2.4365   42.4308   24.7029 C   0  0  0  0  0  0  0  0  0  0  0  0
   -1.2676   43.0596   23.9241 C   0  0  0  0  0  0  0  0  0  0  0  0
    0.0786   42.4021   24.2796 C   0  0  0  0  0  0  0  0  0  0  0  0
    0.3293   42.8780   25.7176 C   0  0  0  0  0  0  0  0  0  0  0  0
   -0.9072   43.7439   26.0185 C   0  0  0  0  0  0  0  0  0  0  0  0
   -1.1335   44.4037   24.6518 C   0  0  0  0  0  0  0  0  0  0  0  0
   -2.1860   42.8953   26.1427 C   0  0  0  0  0  0  0  0  0  0  0  0
   -2.0914   41.6210   26.9357 C   0  0  0  0  0  0  0  0  0  0  0  0
   -1.7894   41.5699   28.1180 O   0  0  0  0  0  0  0  0  0  0  0  0
   -1.1138   38.4237   25.9312 C   0  0  0  0  0  0  0  0  0  0  0  0
   -2.3130   39.1618   26.5200 C   0  0  0  0  0  0  0  0  0  0  0  0
   -3.6415   38.4870   26.1794 C   0  0  0  0  0  0  0  0  0  0  0  0
   -3.8068   37.5050   25.4715 O   0  0  0  0  0  0  0  0  0  0  0  0
   -4.7155   39.1315   26.6831 O   0  0  0  0  0  0  0  0  0  0  0  0
   -4.5970   39.8853   27.2268 H   0  0  0  0  0  0  0  0  0  0  0  0
 14 13  1  0
 14 15  1  0
 15 16  2  0
 15 17  1  0
 14  1  1  0
  1  2  1  0
  2  3  2  0
  4  2  1  0
  4  5  1  0
  5  6  1  0
  6  7  1  0
  8  7  1  0
  8  9  1  0
  8 10  1  0
 10 11  1  0
 11 12  2  0
 11  1  1  0
 10  4  1  0
  9  5  1  0
 17 18  1  0
M  END
> <minimizedAffinity>
-4.52349

> <CNNscore>
0.8048495054

> <CNNaffinity>
4.5456733704

> <CNN_VS>
3.6585829258

> <CNNaffinity_variance>
0.5833050609

$$$$



 18 20  0  0  0  0  0  0  0  0999 V2000
   -2.1716   41.6366   27.0659 N   0  0  0  0  0  0  0  0  0  0  0  0
   -2.3726   42.9789   26.8832 C   0  0  0  0  0  0  0  0  0  0  0  0
   -3.4245   43.5844   27.0234 O   0  0  0  0  0  0  0  0  0  0  0  0
   -1.0745   43.6152   26.4735 C   0  0  0  0  0  0  0  0  0  0  0  0
   -1.0236   44.2852   25.0890 C   0  0  0  0  0  0  0  0  0  0  0  0
   -1.6840   43.4138   24.0049 C   0  0  0  0  0  0  0  0  0  0  0  0
   -0.7032   42.2421   23.8551 C   0  0  0  0  0  0  0  0  0  0  0  0
    0.3978   42.5766   24.8774 C   0  0  0  0  0  0  0  0  0  0  0  0
    0.4597   44.1037   24.7414 C   0  0  0  0  0  0  0  0  0  0  0  0
   -0.1031   42.4377   26.3268 C   0  0  0  0  0  0  0  0  0  0  0  0
   -0.9316   41.2262   26.6549 C   0  0  0  0  0  0  0  0  0  0  0  0
   -0.5370   40.0756   26.5458 O   0  0  0  0  0  0  0  0  0  0  0  0
   -2.8704   39.6499   28.4007 C   0  0  0  0  0  0  0  0  0  0  0  0
   -3.2703   40.7297   27.3988 C   0  0  0  0  0  0  0  0  0  0  0  0
   -3.8388   40.1474   26.1051 C   0  0  0  0  0  0  0  0  0  0  0  0
   -3.6126   40.5276   24.9662 O   0  0  0  0  0  0  0  0  0  0  0  0
   -4.7348   39.1585   26.3098 O   0  0  0  0  0  0  0  0  0  0  0  0
   -4.9138   38.8613   27.1802 H   0  0  0  0  0  0  0  0  0  0  0  0
 14 13  1  0
 14 15  1  0
 15 16  2  0
 15 17  1  0
 14  1  1  0
  1  2  1  0
  2  3  2  0
  4  2  1  0
  4  5  1  0
  5  6  1  0
  6  7  1  0
  8  7  1  0
  8  9  1  0
  8 10  1  0
 10 11  1  0
 11 12  2  0
 11  1  1  0
 10  4  1  0
  9  5  1  0
 17 18  1  0
M  END
> <minimizedAffinity>
-5.06556

> <CNNscore>
0.7545858622

> <CNNaffinity>
4.6027507782

> <CNN_VS>
3.4731707573

> <CNNaffinity_variance>
0.2813676298

$$$$



 18 20  0  0  0  0  0  0  0  0999 V2000
   -1.4220   40.2696   24.8639 N   0  0  0  0  0  0  0  0  0  0  0  0
   -1.2794   41.1552   23.8291 C   0  0  0  0  0  0  0  0  0  0  0  0
   -0.7244   40.9453   22.7611 O   0  0  0  0  0  0  0  0  0  0  0  0
   -1.9228   42.4584   24.2101 C   0  0  0  0  0  0  0  0  0  0  0  0
   -1.0129   43.6969   24.2917 C   0  0  0  0  0  0  0  0  0  0  0  0
    0.3071   43.3921   25.0234 C   0  0  0  0  0  0  0  0  0  0  0  0
   -0.1391   43.1981   26.4796 C   0  0  0  0  0  0  0  0  0  0  0  0
   -1.6626   43.4055   26.4076 C   0  0  0  0  0  0  0  0  0  0  0  0
   -1.7500   44.5197   25.3564 C   0  0  0  0  0  0  0  0  0  0  0  0
   -2.3644   42.2540   25.6644 C   0  0  0  0  0  0  0  0  0  0  0  0
   -1.9261   40.8539   25.9950 C   0  0  0  0  0  0  0  0  0  0  0  0
   -2.0059   40.3550   27.1069 O   0  0  0  0  0  0  0  0  0  0  0  0
    0.6754   38.9503   24.5857 C   0  0  0  0  0  0  0  0  0  0  0  0
   -0.8325   38.9312   24.8215 C   0  0  0  0  0  0  0  0  0  0  0  0
   -1.5779   38.0963   23.7807 C   0  0  0  0  0  0  0  0  0  0  0  0
   -1.1041   37.5672   22.7866 O   0  0  0  0  0  0  0  0  0  0  0  0
   -2.9090   38.0329   23.9967 O   0  0  0  0  0  0  0  0  0  0  0  0
   -3.2800   38.4362   24.7568 H   0  0  0  0  0  0  0  0  0  0  0  0
 14 13  1  0
 14 15  1  0
 15 16  2  0
 15 17  1  0
 14  1  1  0
  1  2  1  0
  2  3  2  0
  4  2  1  0
  4  5  1  0
  5  6  1  0
  6  7  1  0
  8  7  1  0
  8  9  1  0
  8 10  1  0
 10 11  1  0
 11 12  2  0
 11  1  1  0
 10  4  1  0
  9  5  1  0
 17 18  1  0
M  END
> <minimizedAffinity>
-4.48481

> <CNNscore>
0.7120776176

> <CNNaffinity>
4.4974956512

> <CNN_VS>
3.2025659084

> <CNNaffinity_variance>
0.8612338901

$$$$



 18 20  0  0  0  0  0  0  0  0999 V2000
    4.1831   45.1535   32.1866 N   0  0  0  0  0  0  0  0  0  0  0  0
    4.6002   45.3256   30.8936 C   0  0  0  0  0  0  0  0  0  0  0  0
    5.2458   46.2655   30.4547 O   0  0  0  0  0  0  0  0  0  0  0  0
    4.1347   44.1574   30.0713 C   0  0  0  0  0  0  0  0  0  0  0  0
    3.1639   44.4518   28.9140 C   0  0  0  0  0  0  0  0  0  0  0  0
    2.0501   45.4287   29.3336 C   0  0  0  0  0  0  0  0  0  0  0  0
    1.1948   44.5895   30.2935 C   0  0  0  0  0  0  0  0  0  0  0  0
    1.9252   43.2349   30.3172 C   0  0  0  0  0  0  0  0  0  0  0  0
    2.3838   43.1319   28.8566 C   0  0  0  0  0  0  0  0  0  0  0  0
    3.2825   43.3268   31.0384 C   0  0  0  0  0  0  0  0  0  0  0  0
    3.3243   44.0968   32.3296 C   0  0  0  0  0  0  0  0  0  0  0  0
    2.6725   43.8084   33.3213 O   0  0  0  0  0  0  0  0  0  0  0  0
    4.2640   47.5927   32.6977 C   0  0  0  0  0  0  0  0  0  0  0  0
    4.4215   46.1657   33.2159 C   0  0  0  0  0  0  0  0  0  0  0  0
    5.7929   45.9180   33.8434 C   0  0  0  0  0  0  0  0  0  0  0  0
    6.8137   46.5630   33.6571 O   0  0  0  0  0  0  0  0  0  0  0  0
    5.8368   44.8140   34.6191 O   0  0  0  0  0  0  0  0  0  0  0  0
    5.0583   44.3139   34.7668 H   0  0  0  0  0  0  0  0  0  0  0  0
 14 13  1  0
 14 15  1  0
 15 16  2  0
 15 17  1  0
 14  1  1  0
  1  2  1  0
  2  3  2  0
  4  2  1  0
  4  5  1  0
  5  6  1  0
  6  7  1  0
  8  7  1  0
  8  9  1  0
  8 10  1  0
 10 11  1  0
 11 12  2  0
 11  1  1  0
 10  4  1  0
  9  5  1  0
 17 18  1  0
M  END
> <minimizedAffinity>
-3.84386

> <CNNscore>
0.7018545866

> <CNNaffinity>
3.4096171856

> <CNN_VS>
2.3930554390

> <CNNaffinity_variance>
0.4919414222

$$$$



 18 20  0  0  0  0  0  0  0  0999 V2000
   -1.6127   40.4168   25.2974 N   0  0  0  0  0  0  0  0  0  0  0  0
   -0.3835   40.8845   25.6793 C   0  0  0  0  0  0  0  0  0  0  0  0
    0.3281   40.4288   26.5617 O   0  0  0  0  0  0  0  0  0  0  0  0
   -0.0287   42.0730   24.8311 C   0  0  0  0  0  0  0  0  0  0  0  0
    0.1647   43.4199   25.5500 C   0  0  0  0  0  0  0  0  0  0  0  0
   -0.9398   43.6786   26.5912 C   0  0  0  0  0  0  0  0  0  0  0  0
   -2.1829   43.9274   25.7252 C   0  0  0  0  0  0  0  0  0  0  0  0
   -1.6452   43.7726   24.2913 C   0  0  0  0  0  0  0  0  0  0  0  0
   -0.2506   44.3947   24.4403 C   0  0  0  0  0  0  0  0  0  0  0  0
   -1.2755   42.3126   23.9712 C   0  0  0  0  0  0  0  0  0  0  0  0
   -2.2420   41.2466   24.4085 C   0  0  0  0  0  0  0  0  0  0  0  0
   -3.3994   41.1717   24.0258 O   0  0  0  0  0  0  0  0  0  0  0  0
   -2.5685   38.1249   25.0720 C   0  0  0  0  0  0  0  0  0  0  0  0
   -2.2654   39.3058   25.9903 C   0  0  0  0  0  0  0  0  0  0  0  0
   -3.5127   39.8315   26.7003 C   0  0  0  0  0  0  0  0  0  0  0  0
   -3.5484   40.5500   27.6878 O   0  0  0  0  0  0  0  0  0  0  0  0
   -4.6655   39.3597   26.1797 O   0  0  0  0  0  0  0  0  0  0  0  0
   -4.6465   38.8081   25.4225 H   0  0  0  0  0  0  0  0  0  0  0  0
 14 13  1  0
 14 15  1  0
 15 16  2  0
 15 17  1  0
 14  1  1  0
  1  2  1  0
  2  3  2  0
  4  2  1  0
  4  5  1  0
  5  6  1  0
  6  7  1  0
  8  7  1  0
  8  9  1  0
  8 10  1  0
 10 11  1  0
 11 12  2  0
 11  1  1  0
 10  4  1  0
  9  5  1  0
 17 18  1  0
M  END
> <minimizedAffinity>
-4.83883

> <CNNscore>
0.7002704144

> <CNNaffinity>
4.0697898865

> <CNN_VS>
2.8499534130

> <CNNaffinity_variance>
0.1682098657

$$$$



 18 20  0  0  0  0  0  0  0  0999 V2000
    0.8445   42.1034   27.0963 N   0  0  0  0  0  0  0  0  0  0  0  0
    0.4853   43.4226   27.1750 C   0  0  0  0  0  0  0  0  0  0  0  0
    0.4689   44.1151   28.1814 O   0  0  0  0  0  0  0  0  0  0  0  0
    0.1035   43.9067   25.8047 C   0  0  0  0  0  0  0  0  0  0  0  0
   -1.3439   44.3902   25.6055 C   0  0  0  0  0  0  0  0  0  0  0  0
   -2.3623   43.4380   26.2590 C   0  0  0  0  0  0  0  0  0  0  0  0
   -2.2923   42.1894   25.3684 C   0  0  0  0  0  0  0  0  0  0  0  0
   -1.2356   42.5708   24.3162 C   0  0  0  0  0  0  0  0  0  0  0  0
   -1.5506   44.0598   24.1216 C   0  0  0  0  0  0  0  0  0  0  0  0
    0.1766   42.6533   24.9243 C   0  0  0  0  0  0  0  0  0  0  0  0
    0.5839   41.5561   25.8686 C   0  0  0  0  0  0  0  0  0  0  0  0
    0.6461   40.3755   25.5621 O   0  0  0  0  0  0  0  0  0  0  0  0
    0.0162   41.0991   29.2229 C   0  0  0  0  0  0  0  0  0  0  0  0
    1.1986   41.3275   28.2851 C   0  0  0  0  0  0  0  0  0  0  0  0
    2.3779   42.0044   28.9830 C   0  0  0  0  0  0  0  0  0  0  0  0
    2.4934   42.2306   30.1781 O   0  0  0  0  0  0  0  0  0  0  0  0
    3.3281   42.4412   28.1292 O   0  0  0  0  0  0  0  0  0  0  0  0
    3.2468   42.2718   27.2113 H   0  0  0  0  0  0  0  0  0  0  0  0
 14 13  1  0
 14 15  1  0
 15 16  2  0
 15 17  1  0
 14  1  1  0
  1  2  1  0
  2  3  2  0
  4  2  1  0
  4  5  1  0
  5  6  1  0
  6  7  1  0
  8  7  1  0
  8  9  1  0
  8 10  1  0
 10 11  1  0
 11 12  2  0
 11  1  1  0
 10  4  1  0
  9  5  1  0
 17 18  1  0
M  END
> <minimizedAffinity>
-4.33164

> <CNNscore>
0.6480114460

> <CNNaffinity>
3.7287597656

> <CNN_VS>
2.4162790775

> <CNNaffinity_variance>
0.2841383219

$$$$



 18 20  0  0  0  0  0  0  0  0999 V2000
   -0.6985   42.1034   27.7898 N   0  0  0  0  0  0  0  0  0  0  0  0
   -1.5761   41.5962   26.8689 C   0  0  0  0  0  0  0  0  0  0  0  0
   -1.9135   40.4280   26.7497 O   0  0  0  0  0  0  0  0  0  0  0  0
   -2.0765   42.7174   26.0028 C   0  0  0  0  0  0  0  0  0  0  0  0
   -1.7574   42.6434   24.4992 C   0  0  0  0  0  0  0  0  0  0  0  0
   -0.2953   42.2345   24.2421 C   0  0  0  0  0  0  0  0  0  0  0  0
    0.4965   43.4674   24.7005 C   0  0  0  0  0  0  0  0  0  0  0  0
   -0.6050   44.4325   25.1742 C   0  0  0  0  0  0  0  0  0  0  0  0
   -1.7058   44.1360   24.1473 C   0  0  0  0  0  0  0  0  0  0  0  0
   -1.2802   43.9424   26.4684 C   0  0  0  0  0  0  0  0  0  0  0  0
   -0.3837   43.4151   27.5546 C   0  0  0  0  0  0  0  0  0  0  0  0
    0.4856   44.0725   28.1056 O   0  0  0  0  0  0  0  0  0  0  0  0
    0.4909   39.9344   28.1026 C   0  0  0  0  0  0  0  0  0  0  0  0
    0.0161   41.2415   28.7317 C   0  0  0  0  0  0  0  0  0  0  0  0
   -0.8655   41.0148   29.9595 C   0  0  0  0  0  0  0  0  0  0  0  0
   -0.6764   41.4411   31.0888 O   0  0  0  0  0  0  0  0  0  0  0  0
   -1.9082   40.1897   29.7266 O   0  0  0  0  0  0  0  0  0  0  0  0
   -2.0599   39.8586   28.8633 H   0  0  0  0  0  0  0  0  0  0  0  0
 14 13  1  0
 14 15  1  0
 15 16  2  0
 15 17  1  0
 14  1  1  0
  1  2  1  0
  2  3  2  0
  4  2  1  0
  4  5  1  0
  5  6  1  0
  6  7  1  0
  8  7  1  0
  8  9  1  0
  8 10  1  0
 10 11  1  0
 11 12  2  0
 11  1  1  0
 10  4  1  0
  9  5  1  0
 17 18  1  0
M  END
> <minimizedAffinity>
-4.89300

> <CNNscore>
0.6232597828

> <CNNaffinity>
4.4673600197

> <CNN_VS>
2.7843258381

> <CNNaffinity_variance>
0.6939710975

$$$$



 18 20  0  0  0  0  0  0  0  0999 V2000
    1.8147   42.9537   25.9317 N   0  0  0  0  0  0  0  0  0  0  0  0
    1.3099   42.4138   24.7788 C   0  0  0  0  0  0  0  0  0  0  0  0
    1.8696   42.3571   23.6943 O   0  0  0  0  0  0  0  0  0  0  0  0
   -0.0709   41.8874   25.0505 C   0  0  0  0  0  0  0  0  0  0  0  0
   -1.2347   42.5247   24.2709 C   0  0  0  0  0  0  0  0  0  0  0  0
   -1.1269   44.0602   24.2323 C   0  0  0  0  0  0  0  0  0  0  0  0
   -1.4229   44.4663   25.6831 C   0  0  0  0  0  0  0  0  0  0  0  0
   -1.6559   43.1151   26.3824 C   0  0  0  0  0  0  0  0  0  0  0  0
   -2.3811   42.3408   25.2739 C   0  0  0  0  0  0  0  0  0  0  0  0
   -0.3562   42.2979   26.5002 C   0  0  0  0  0  0  0  0  0  0  0  0
    0.8823   43.0340   26.9312 C   0  0  0  0  0  0  0  0  0  0  0  0
    0.9988   43.6131   28.0002 O   0  0  0  0  0  0  0  0  0  0  0  0
    4.2076   42.8291   25.2419 C   0  0  0  0  0  0  0  0  0  0  0  0
    3.1192   43.6153   25.9678 C   0  0  0  0  0  0  0  0  0  0  0  0
    3.4819   43.9123   27.4225 C   0  0  0  0  0  0  0  0  0  0  0  0
    3.6193   45.0125   27.9359 O   0  0  0  0  0  0  0  0  0  0  0  0
    3.7360   42.8034   28.1494 O   0  0  0  0  0  0  0  0  0  0  0  0
    3.6330   41.9561   27.7629 H   0  0  0  0  0  0  0  0  0  0  0  0
 14 13  1  0
 14 15  1  0
 15 16  2  0
 15 17  1  0
 14  1  1  0
  1  2  1  0
  2  3  2  0
  4  2  1  0
  4  5  1  0
  5  6  1  0
  6  7  1  0
  8  7  1  0
  8  9  1  0
  8 10  1  0
 10 11  1  0
 11 12  2  0
 11  1  1  0
 10  4  1  0
  9  5  1  0
 17 18  1  0
M  END
> <minimizedAffinity>
-4.92172

> <CNNscore>
0.6130480766

> <CNNaffinity>
3.9488124847

> <CNN_VS>
2.4208118916

> <CNNaffinity_variance>
0.1655392796

$$$$
