


 40 43  0  0  0  0  0  0  0  0999 V2000
   21.3078    8.1229   14.3665 C   0  0  0  0  0  0  0  0  0  0  0  0
   22.2673    7.7952   15.4254 N   0  0  0  0  0  0  0  0  0  0  0  0
   23.4832    8.4060   15.5610 C   0  0  0  0  0  0  0  0  0  0  0  0
   23.9723    9.2046   14.7857 O   0  0  0  0  0  0  0  0  0  0  0  0
   24.1397    7.7788   16.7108 C   0  0  0  0  0  0  0  0  0  0  0  0
   25.3208    8.0856   17.3543 C   0  0  0  0  0  0  0  0  0  0  0  0
   25.7008    7.2520   18.4159 C   0  0  0  0  0  0  0  0  0  0  0  0
   24.9114    6.1353   18.7910 C   0  0  0  0  0  0  0  0  0  0  0  0
   23.7218    5.8406   18.1061 C   0  0  0  0  0  0  0  0  0  0  0  0
   23.3606    6.6907   17.0821 C   0  0  0  0  0  0  0  0  0  0  0  0
   22.2203    6.6451   16.1666 C   0  0  0  0  0  0  0  0  0  0  0  0
   21.4826    5.6985   15.9568 O   0  0  0  0  0  0  0  0  0  0  0  0
   25.3068    5.2296   19.8969 C   0  0  0  0  0  0  0  0  0  0  0  0
   24.5266    4.6893   20.6579 O   0  0  0  0  0  0  0  0  0  0  0  0
   26.6335    5.0677   19.9809 O   0  0  0  0  0  0  0  0  0  0  0  0
   27.1980    5.5034   19.3731 H   0  0  0  0  0  0  0  0  0  0  0  0
   21.1691    6.9057   13.3998 C   0  0  0  0  0  0  0  0  0  0  0  0
   21.0653    7.1932   11.8826 N   0  0  0  0  0  0  0  0  0  0  0  0
   19.6025    7.3310   11.4286 C   0  0  0  0  0  0  0  0  0  0  0  0
   21.7058    8.6197   11.6262 C   0  0  0  0  0  0  0  0  0  0  0  0
   21.8845    6.2439   10.9974 C   0  0  0  0  0  0  0  0  0  0  0  0
   21.4147    4.8128   10.5848 N   0  0  0  0  0  0  0  0  0  0  0  0
   19.9245    4.6505   10.7128 C   0  0  0  0  0  0  0  0  0  0  0  0
   22.1400    3.7609   11.4406 C   0  0  0  0  0  0  0  0  0  0  0  0
   21.9080    4.6579    9.1122 C   0  0  0  0  0  0  0  0  0  0  0  0
   20.3340    6.4160    8.0060 C   0  0  0  0  0  0  0  0  0  0  0  0
   21.6897    5.7150    8.0411 N   0  0  0  0  0  0  0  0  0  0  0  0
   22.8058    6.7684    7.9516 C   0  0  0  0  0  0  0  0  0  0  0  0
   21.7732    4.9459    6.6669 C   0  0  0  0  0  0  0  0  0  0  0  0
   19.9304    8.5009   14.9728 C   0  0  0  0  0  0  0  0  0  0  0  0
   19.9086    9.3833   16.2124 C   0  0  0  0  0  0  0  0  0  0  0  0
   19.4522    8.8889   17.4494 C   0  0  0  0  0  0  0  0  0  0  0  0
   19.4395    9.6927   18.5856 C   0  0  0  0  0  0  0  0  0  0  0  0
   19.9007   11.0003   18.5178 C   0  0  0  0  0  0  0  0  0  0  0  0
   20.3892   11.5255   17.3172 C   0  0  0  0  0  0  0  0  0  0  0  0
   20.8615   12.8467   17.2868 C   0  0  0  0  0  0  0  0  0  0  0  0
   21.3649   13.4033   16.1146 C   0  0  0  0  0  0  0  0  0  0  0  0
   21.4030   12.6419   14.9565 C   0  0  0  0  0  0  0  0  0  0  0  0
   20.9343   11.3245   14.9716 C   0  0  0  0  0  0  0  0  0  0  0  0
   20.4087   10.7253   16.1445 C   0  0  0  0  0  0  0  0  0  0  0  0
 26 27  1  0
 27 28  1  0
 27 29  1  0
 27 25  1  0
 25 22  1  0
 22 23  1  0
 22 24  1  0
 22 21  1  0
 21 18  1  0
 18 19  1  0
 18 20  1  0
 18 17  1  0
  1 17  1  0
  1 30  1  0
 30 31  1  0
 31 32  2  0
 32 33  1  0
 33 34  2  0
 34 35  1  0
 35 36  2  0
 36 37  1  0
 37 38  2  0
 38 39  1  0
 39 40  2  0
  1  2  1  0
  2  3  1  0
  3  4  2  0
  3  5  1  0
  5  6  2  0
  6  7  1  0
  7  8  2  0
  8 13  1  0
 13 14  2  0
 13 15  1  0
  8  9  1  0
  9 10  2  0
 10 11  1  0
 11 12  2  0
 40 31  1  0
 11  2  1  0
 40 35  1  0
 10  5  1  0
 15 16  1  0
M  CHG 1  18   1
M  CHG 1  22   1
M  CHG 1  27   1
M  END
> <minimizedAffinity>
-7.16539

> <CNNscore>
0.3770180941

> <CNNaffinity>
5.6986413002

> <CNN_VS>
2.1484909058

> <CNNaffinity_variance>
0.3033286929

$$$$



 40 43  0  0  0  0  0  0  0  0999 V2000
   22.6679    6.3552   13.7880 C   0  0  0  0  0  0  0  0  0  0  0  0
   23.2227    6.2761   15.1427 N   0  0  0  0  0  0  0  0  0  0  0  0
   22.4662    6.0461   16.2584 C   0  0  0  0  0  0  0  0  0  0  0  0
   21.2527    5.9845   16.2989 O   0  0  0  0  0  0  0  0  0  0  0  0
   23.3858    6.0702   17.3987 C   0  0  0  0  0  0  0  0  0  0  0  0
   23.1779    5.7852   18.7324 C   0  0  0  0  0  0  0  0  0  0  0  0
   24.2722    5.9465   19.5944 C   0  0  0  0  0  0  0  0  0  0  0  0
   25.5256    6.4015   19.1119 C   0  0  0  0  0  0  0  0  0  0  0  0
   25.7010    6.6980   17.7508 C   0  0  0  0  0  0  0  0  0  0  0  0
   24.6149    6.5076   16.9225 C   0  0  0  0  0  0  0  0  0  0  0  0
   24.4594    6.7509   15.4883 C   0  0  0  0  0  0  0  0  0  0  0  0
   25.1879    7.4137   14.7711 O   0  0  0  0  0  0  0  0  0  0  0  0
   26.6888    6.5988   20.0107 C   0  0  0  0  0  0  0  0  0  0  0  0
   27.0716    7.6801   20.4156 O   0  0  0  0  0  0  0  0  0  0  0  0
   27.2918    5.4473   20.3330 O   0  0  0  0  0  0  0  0  0  0  0  0
   26.9629    4.6364   19.9981 H   0  0  0  0  0  0  0  0  0  0  0  0
   22.3487    7.8440   13.4462 C   0  0  0  0  0  0  0  0  0  0  0  0
   20.9047    8.1949   13.0137 N   0  0  0  0  0  0  0  0  0  0  0  0
   20.8356    8.5895   11.5290 C   0  0  0  0  0  0  0  0  0  0  0  0
   20.0430    6.8694   13.1217 C   0  0  0  0  0  0  0  0  0  0  0  0
   20.1882    9.1905   13.9362 C   0  0  0  0  0  0  0  0  0  0  0  0
   20.9263   10.1856   14.8870 N   0  0  0  0  0  0  0  0  0  0  0  0
   20.2181   11.5099   14.9758 C   0  0  0  0  0  0  0  0  0  0  0  0
   22.3732   10.3871   14.4064 C   0  0  0  0  0  0  0  0  0  0  0  0
   20.9742    9.4408   16.2577 C   0  0  0  0  0  0  0  0  0  0  0  0
   19.7708    8.4405   18.3418 C   0  0  0  0  0  0  0  0  0  0  0  0
   19.8888    9.5645   17.3155 N   0  0  0  0  0  0  0  0  0  0  0  0
   19.8628   10.9182   18.0436 C   0  0  0  0  0  0  0  0  0  0  0  0
   18.5244    9.5242   16.5259 C   0  0  0  0  0  0  0  0  0  0  0  0
   23.6582    5.7558   12.7545 C   0  0  0  0  0  0  0  0  0  0  0  0
   23.3763    5.9793   11.2758 C   0  0  0  0  0  0  0  0  0  0  0  0
   24.1404    6.8881   10.5189 C   0  0  0  0  0  0  0  0  0  0  0  0
   23.8887    7.0874    9.1645 C   0  0  0  0  0  0  0  0  0  0  0  0
   22.8834    6.3697    8.5310 C   0  0  0  0  0  0  0  0  0  0  0  0
   22.1173    5.4361    9.2362 C   0  0  0  0  0  0  0  0  0  0  0  0
   21.1183    4.7170    8.5619 C   0  0  0  0  0  0  0  0  0  0  0  0
   20.3411    3.7718    9.2251 C   0  0  0  0  0  0  0  0  0  0  0  0
   20.5559    3.5335   10.5740 C   0  0  0  0  0  0  0  0  0  0  0  0
   21.5466    4.2438   11.2591 C   0  0  0  0  0  0  0  0  0  0  0  0
   22.3537    5.2185   10.6192 C   0  0  0  0  0  0  0  0  0  0  0  0
 26 27  1  0
 27 28  1  0
 27 29  1  0
 27 25  1  0
 25 22  1  0
 22 23  1  0
 22 24  1  0
 22 21  1  0
 21 18  1  0
 18 19  1  0
 18 20  1  0
 18 17  1  0
  1 17  1  0
  1 30  1  0
 30 31  1  0
 31 32  2  0
 32 33  1  0
 33 34  2  0
 34 35  1  0
 35 36  2  0
 36 37  1  0
 37 38  2  0
 38 39  1  0
 39 40  2  0
  1  2  1  0
  2  3  1  0
  3  4  2  0
  3  5  1  0
  5  6  2  0
  6  7  1  0
  7  8  2  0
  8 13  1  0
 13 14  2  0
 13 15  1  0
  8  9  1  0
  9 10  2  0
 10 11  1  0
 11 12  2  0
 40 31  1  0
 11  2  1  0
 40 35  1  0
 10  5  1  0
 15 16  1  0
M  CHG 1  18   1
M  CHG 1  22   1
M  CHG 1  27   1
M  END
> <minimizedAffinity>
-8.02242

> <CNNscore>
0.2033577710

> <CNNaffinity>
5.5867047310

> <CNN_VS>
1.1360998154

> <CNNaffinity_variance>
0.3385213912

$$$$



 40 43  0  0  0  0  0  0  0  0999 V2000
   22.2140    7.7090   13.2893 C   0  0  0  0  0  0  0  0  0  0  0  0
   22.8080    7.5760   14.6231 N   0  0  0  0  0  0  0  0  0  0  0  0
   24.1059    7.8974   14.9093 C   0  0  0  0  0  0  0  0  0  0  0  0
   24.9554    8.2254   14.1037 O   0  0  0  0  0  0  0  0  0  0  0  0
   24.3073    7.5965   16.3289 C   0  0  0  0  0  0  0  0  0  0  0  0
   25.3833    7.8352   17.1587 C   0  0  0  0  0  0  0  0  0  0  0  0
   25.2792    7.3795   18.4808 C   0  0  0  0  0  0  0  0  0  0  0  0
   24.1254    6.6880   18.9300 C   0  0  0  0  0  0  0  0  0  0  0  0
   23.0530    6.4472   18.0564 C   0  0  0  0  0  0  0  0  0  0  0  0
   23.1728    6.9272   16.7691 C   0  0  0  0  0  0  0  0  0  0  0  0
   22.2672    6.8164   15.6255 C   0  0  0  0  0  0  0  0  0  0  0  0
   21.3238    6.0549   15.5050 O   0  0  0  0  0  0  0  0  0  0  0  0
   24.0049    6.1797   20.3181 C   0  0  0  0  0  0  0  0  0  0  0  0
   24.9124    5.6678   20.9460 O   0  0  0  0  0  0  0  0  0  0  0  0
   22.7729    6.3364   20.8189 O   0  0  0  0  0  0  0  0  0  0  0  0
   22.1034    6.7364   20.2995 H   0  0  0  0  0  0  0  0  0  0  0  0
   22.0285    6.2919   12.6625 C   0  0  0  0  0  0  0  0  0  0  0  0
   23.0596    5.8258   11.6066 N   0  0  0  0  0  0  0  0  0  0  0  0
   23.7289    7.0168   10.9006 C   0  0  0  0  0  0  0  0  0  0  0  0
   24.2360    5.1003   12.3817 C   0  0  0  0  0  0  0  0  0  0  0  0
   22.5353    4.7634   10.6307 C   0  0  0  0  0  0  0  0  0  0  0  0
   21.0880    4.7563   10.0439 N   0  0  0  0  0  0  0  0  0  0  0  0
   20.3385    6.0172   10.3785 C   0  0  0  0  0  0  0  0  0  0  0  0
   20.3224    3.5282   10.5640 C   0  0  0  0  0  0  0  0  0  0  0  0
   21.2988    4.5766    8.5079 C   0  0  0  0  0  0  0  0  0  0  0  0
   22.4950    6.7057    7.5979 C   0  0  0  0  0  0  0  0  0  0  0  0
   21.3179    5.7363    7.5246 N   0  0  0  0  0  0  0  0  0  0  0  0
   21.0879    5.3308    6.0597 C   0  0  0  0  0  0  0  0  0  0  0  0
   20.0588    6.6148    7.8847 C   0  0  0  0  0  0  0  0  0  0  0  0
   20.8562    8.4562   13.3661 C   0  0  0  0  0  0  0  0  0  0  0  0
   20.7052    9.5684   14.3937 C   0  0  0  0  0  0  0  0  0  0  0  0
   21.4957   10.7318   14.3280 C   0  0  0  0  0  0  0  0  0  0  0  0
   21.3528   11.7533   15.2626 C   0  0  0  0  0  0  0  0  0  0  0  0
   20.4045   11.6459   16.2708 C   0  0  0  0  0  0  0  0  0  0  0  0
   19.5780   10.5212   16.3590 C   0  0  0  0  0  0  0  0  0  0  0  0
   18.6197   10.4510   17.3819 C   0  0  0  0  0  0  0  0  0  0  0  0
   17.7713    9.3537   17.4981 C   0  0  0  0  0  0  0  0  0  0  0  0
   17.8712    8.3118   16.5888 C   0  0  0  0  0  0  0  0  0  0  0  0
   18.8224    8.3674   15.5654 C   0  0  0  0  0  0  0  0  0  0  0  0
   19.7080    9.4652   15.4188 C   0  0  0  0  0  0  0  0  0  0  0  0
 26 27  1  0
 27 28  1  0
 27 29  1  0
 27 25  1  0
 25 22  1  0
 22 23  1  0
 22 24  1  0
 22 21  1  0
 21 18  1  0
 18 19  1  0
 18 20  1  0
 18 17  1  0
  1 17  1  0
  1 30  1  0
 30 31  1  0
 31 32  2  0
 32 33  1  0
 33 34  2  0
 34 35  1  0
 35 36  2  0
 36 37  1  0
 37 38  2  0
 38 39  1  0
 39 40  2  0
  1  2  1  0
  2  3  1  0
  3  4  2  0
  3  5  1  0
  5  6  2  0
  6  7  1  0
  7  8  2  0
  8 13  1  0
 13 14  2  0
 13 15  1  0
  8  9  1  0
  9 10  2  0
 10 11  1  0
 11 12  2  0
 40 31  1  0
 11  2  1  0
 40 35  1  0
 10  5  1  0
 15 16  1  0
M  CHG 1  18   1
M  CHG 1  22   1
M  CHG 1  27   1
M  END
> <minimizedAffinity>
-7.13974

> <CNNscore>
0.2013493329

> <CNNaffinity>
5.4069461823

> <CNN_VS>
1.0886850357

> <CNNaffinity_variance>
0.7700106502

$$$$



 40 43  0  0  0  0  0  0  0  0999 V2000
   20.0417    9.0256   16.7074 C   0  0  0  0  0  0  0  0  0  0  0  0
   21.3356    8.5530   17.2091 N   0  0  0  0  0  0  0  0  0  0  0  0
   22.5388    8.9672   16.7084 C   0  0  0  0  0  0  0  0  0  0  0  0
   22.7016    9.6795   15.7367 O   0  0  0  0  0  0  0  0  0  0  0  0
   23.5725    8.2459   17.4553 C   0  0  0  0  0  0  0  0  0  0  0  0
   24.9468    8.3654   17.4398 C   0  0  0  0  0  0  0  0  0  0  0  0
   25.6702    7.4833   18.2552 C   0  0  0  0  0  0  0  0  0  0  0  0
   25.0121    6.5032   19.0409 C   0  0  0  0  0  0  0  0  0  0  0  0
   23.6123    6.3969   19.0230 C   0  0  0  0  0  0  0  0  0  0  0  0
   22.9254    7.2925   18.2306 C   0  0  0  0  0  0  0  0  0  0  0  0
   21.4922    7.4245   17.9683 C   0  0  0  0  0  0  0  0  0  0  0  0
   20.6225    6.6042   18.2031 O   0  0  0  0  0  0  0  0  0  0  0  0
   25.7602    5.5475   19.8933 C   0  0  0  0  0  0  0  0  0  0  0  0
   26.9727    5.5062   19.9823 O   0  0  0  0  0  0  0  0  0  0  0  0
   24.9538    4.7139   20.5628 O   0  0  0  0  0  0  0  0  0  0  0  0
   24.0245    4.7813   20.4643 H   0  0  0  0  0  0  0  0  0  0  0  0
   19.1875    7.8030   16.2482 C   0  0  0  0  0  0  0  0  0  0  0  0
   19.3879    7.2797   14.8056 N   0  0  0  0  0  0  0  0  0  0  0  0
   19.9022    5.8305   14.7924 C   0  0  0  0  0  0  0  0  0  0  0  0
   17.9587    7.2093   14.1247 C   0  0  0  0  0  0  0  0  0  0  0  0
   20.1967    8.2147   13.8959 C   0  0  0  0  0  0  0  0  0  0  0  0
   21.3726    7.7418   12.9834 N   0  0  0  0  0  0  0  0  0  0  0  0
   22.3577    6.8863   13.7325 C   0  0  0  0  0  0  0  0  0  0  0  0
   22.0825    8.9631   12.3758 C   0  0  0  0  0  0  0  0  0  0  0  0
   20.6700    6.9680   11.8243 C   0  0  0  0  0  0  0  0  0  0  0  0
   21.4036    7.8741    9.4934 C   0  0  0  0  0  0  0  0  0  0  0  0
   21.3224    6.7082   10.4756 N   0  0  0  0  0  0  0  0  0  0  0  0
   22.6941    6.0187   10.5558 C   0  0  0  0  0  0  0  0  0  0  0  0
   20.3994    5.6498    9.7579 C   0  0  0  0  0  0  0  0  0  0  0  0
   19.2943    9.8374   17.7985 C   0  0  0  0  0  0  0  0  0  0  0  0
   19.8729   11.1812   18.2169 C   0  0  0  0  0  0  0  0  0  0  0  0
   20.5494   12.0012   17.2936 C   0  0  0  0  0  0  0  0  0  0  0  0
   21.0719   13.2342   17.6733 C   0  0  0  0  0  0  0  0  0  0  0  0
   20.9132   13.6853   18.9765 C   0  0  0  0  0  0  0  0  0  0  0  0
   20.2243   12.9174   19.9207 C   0  0  0  0  0  0  0  0  0  0  0  0
   20.0692   13.4095   21.2259 C   0  0  0  0  0  0  0  0  0  0  0  0
   19.3816   12.6808   22.1920 C   0  0  0  0  0  0  0  0  0  0  0  0
   18.8386   11.4485   21.8622 C   0  0  0  0  0  0  0  0  0  0  0  0
   18.9866   10.9448   20.5662 C   0  0  0  0  0  0  0  0  0  0  0  0
   19.6856   11.6550   19.5572 C   0  0  0  0  0  0  0  0  0  0  0  0
 26 27  1  0
 27 28  1  0
 27 29  1  0
 27 25  1  0
 25 22  1  0
 22 23  1  0
 22 24  1  0
 22 21  1  0
 21 18  1  0
 18 19  1  0
 18 20  1  0
 18 17  1  0
  1 17  1  0
  1 30  1  0
 30 31  1  0
 31 32  2  0
 32 33  1  0
 33 34  2  0
 34 35  1  0
 35 36  2  0
 36 37  1  0
 37 38  2  0
 38 39  1  0
 39 40  2  0
  1  2  1  0
  2  3  1  0
  3  4  2  0
  3  5  1  0
  5  6  2  0
  6  7  1  0
  7  8  2  0
  8 13  1  0
 13 14  2  0
 13 15  1  0
  8  9  1  0
  9 10  2  0
 10 11  1  0
 11 12  2  0
 40 31  1  0
 11  2  1  0
 40 35  1  0
 10  5  1  0
 15 16  1  0
M  CHG 1  18   1
M  CHG 1  22   1
M  CHG 1  27   1
M  END
> <minimizedAffinity>
-6.88427

> <CNNscore>
0.1944323480

> <CNNaffinity>
5.1406140327

> <CNN_VS>
0.9995016456

> <CNNaffinity_variance>
0.3549898565

$$$$



 40 43  0  0  0  0  0  0  0  0999 V2000
   22.1370    6.3680   12.9215 C   0  0  0  0  0  0  0  0  0  0  0  0
   22.7258    6.4181   14.2632 N   0  0  0  0  0  0  0  0  0  0  0  0
   24.0648    6.5672   14.4972 C   0  0  0  0  0  0  0  0  0  0  0  0
   24.9416    6.5704   13.6550 O   0  0  0  0  0  0  0  0  0  0  0  0
   24.2401    6.5401   15.9516 C   0  0  0  0  0  0  0  0  0  0  0  0
   25.3570    6.7609   16.7306 C   0  0  0  0  0  0  0  0  0  0  0  0
   25.2031    6.6162   18.1169 C   0  0  0  0  0  0  0  0  0  0  0  0
   23.9580    6.2401   18.6818 C   0  0  0  0  0  0  0  0  0  0  0  0
   22.8434    6.0075   17.8604 C   0  0  0  0  0  0  0  0  0  0  0  0
   23.0175    6.1802   16.5033 C   0  0  0  0  0  0  0  0  0  0  0  0
   22.0839    5.9880   15.3934 C   0  0  0  0  0  0  0  0  0  0  0  0
   21.0230    5.3896   15.4194 O   0  0  0  0  0  0  0  0  0  0  0  0
   23.7803    6.0613   20.1434 C   0  0  0  0  0  0  0  0  0  0  0  0
   22.7865    6.3913   20.7624 O   0  0  0  0  0  0  0  0  0  0  0  0
   24.8452    5.4963   20.7265 O   0  0  0  0  0  0  0  0  0  0  0  0
   25.5902    5.2578   20.2107 H   0  0  0  0  0  0  0  0  0  0  0  0
   21.8909    7.8218   12.4104 C   0  0  0  0  0  0  0  0  0  0  0  0
   20.4302    8.3285   12.3421 N   0  0  0  0  0  0  0  0  0  0  0  0
   19.4616    7.2155   11.9088 C   0  0  0  0  0  0  0  0  0  0  0  0
   19.9882    8.6992   13.8180 C   0  0  0  0  0  0  0  0  0  0  0  0
   20.2446    9.6309   11.5514 C   0  0  0  0  0  0  0  0  0  0  0  0
   19.2158    9.8070   10.3896 N   0  0  0  0  0  0  0  0  0  0  0  0
   19.1207   11.2375    9.9336 C   0  0  0  0  0  0  0  0  0  0  0  0
   17.8352    9.2979   10.8364 C   0  0  0  0  0  0  0  0  0  0  0  0
   19.7390    8.8561    9.2679 C   0  0  0  0  0  0  0  0  0  0  0  0
   18.2758    6.8815    8.4007 C   0  0  0  0  0  0  0  0  0  0  0  0
   18.8494    8.2787    8.1782 N   0  0  0  0  0  0  0  0  0  0  0  0
   17.7253    9.2179    7.7118 C   0  0  0  0  0  0  0  0  0  0  0  0
   19.7776    8.1284    6.9122 C   0  0  0  0  0  0  0  0  0  0  0  0
   23.0619    5.5932   11.9457 C   0  0  0  0  0  0  0  0  0  0  0  0
   22.6008    5.4162   10.5064 C   0  0  0  0  0  0  0  0  0  0  0  0
   21.5994    4.4842   10.1728 C   0  0  0  0  0  0  0  0  0  0  0  0
   21.1712    4.3272    8.8577 C   0  0  0  0  0  0  0  0  0  0  0  0
   21.7174    5.1105    7.8501 C   0  0  0  0  0  0  0  0  0  0  0  0
   22.6946    6.0685    8.1386 C   0  0  0  0  0  0  0  0  0  0  0  0
   23.2155    6.8537    7.0986 C   0  0  0  0  0  0  0  0  0  0  0  0
   24.1816    7.8248    7.3455 C   0  0  0  0  0  0  0  0  0  0  0  0
   24.6380    8.0228    8.6397 C   0  0  0  0  0  0  0  0  0  0  0  0
   24.1293    7.2466    9.6856 C   0  0  0  0  0  0  0  0  0  0  0  0
   23.1494    6.2440    9.4722 C   0  0  0  0  0  0  0  0  0  0  0  0
 26 27  1  0
 27 28  1  0
 27 29  1  0
 27 25  1  0
 25 22  1  0
 22 23  1  0
 22 24  1  0
 22 21  1  0
 21 18  1  0
 18 19  1  0
 18 20  1  0
 18 17  1  0
  1 17  1  0
  1 30  1  0
 30 31  1  0
 31 32  2  0
 32 33  1  0
 33 34  2  0
 34 35  1  0
 35 36  2  0
 36 37  1  0
 37 38  2  0
 38 39  1  0
 39 40  2  0
  1  2  1  0
  2  3  1  0
  3  4  2  0
  3  5  1  0
  5  6  2  0
  6  7  1  0
  7  8  2  0
  8 13  1  0
 13 14  2  0
 13 15  1  0
  8  9  1  0
  9 10  2  0
 10 11  1  0
 11 12  2  0
 40 31  1  0
 11  2  1  0
 40 35  1  0
 10  5  1  0
 15 16  1  0
M  CHG 1  18   1
M  CHG 1  22   1
M  CHG 1  27   1
M  END
> <minimizedAffinity>
-7.86585

> <CNNscore>
0.1444212943

> <CNNaffinity>
5.2010836601

> <CNN_VS>
0.7511472106

> <CNNaffinity_variance>
0.7860109806

$$$$



 40 43  0  0  0  0  0  0  0  0999 V2000
   22.7396    7.2278   13.3797 C   0  0  0  0  0  0  0  0  0  0  0  0
   23.2910    6.9795   14.7153 N   0  0  0  0  0  0  0  0  0  0  0  0
   24.5886    7.2400   15.0591 C   0  0  0  0  0  0  0  0  0  0  0  0
   25.4697    7.6008   14.3031 O   0  0  0  0  0  0  0  0  0  0  0  0
   24.7406    6.8297   16.4573 C   0  0  0  0  0  0  0  0  0  0  0  0
   25.7984    6.9745   17.3309 C   0  0  0  0  0  0  0  0  0  0  0  0
   25.6436    6.4261   18.6122 C   0  0  0  0  0  0  0  0  0  0  0  0
   24.4586    5.7383   18.9778 C   0  0  0  0  0  0  0  0  0  0  0  0
   23.4056    5.5945   18.0605 C   0  0  0  0  0  0  0  0  0  0  0  0
   23.5757    6.1640   16.8162 C   0  0  0  0  0  0  0  0  0  0  0  0
   22.7006    6.1647   15.6437 C   0  0  0  0  0  0  0  0  0  0  0  0
   21.7403    5.4427   15.4418 O   0  0  0  0  0  0  0  0  0  0  0  0
   24.2840    5.1331   20.3206 C   0  0  0  0  0  0  0  0  0  0  0  0
   23.5459    4.1974   20.5643 O   0  0  0  0  0  0  0  0  0  0  0  0
   25.0283    5.7345   21.2575 O   0  0  0  0  0  0  0  0  0  0  0  0
   25.5836    6.4526   21.0250 H   0  0  0  0  0  0  0  0  0  0  0  0
   22.5745    8.7648   13.1662 C   0  0  0  0  0  0  0  0  0  0  0  0
   21.1687    9.3783   13.3726 N   0  0  0  0  0  0  0  0  0  0  0  0
   21.2430   10.7537   14.0563 C   0  0  0  0  0  0  0  0  0  0  0  0
   20.5646    9.6709   11.9371 C   0  0  0  0  0  0  0  0  0  0  0  0
   20.1518    8.4335   14.0276 C   0  0  0  0  0  0  0  0  0  0  0  0
   19.0672    7.6353   13.2366 N   0  0  0  0  0  0  0  0  0  0  0  0
   18.6590    6.3774   13.9540 C   0  0  0  0  0  0  0  0  0  0  0  0
   19.5914    7.2998   11.8304 C   0  0  0  0  0  0  0  0  0  0  0  0
   17.8867    8.6444   13.0817 C   0  0  0  0  0  0  0  0  0  0  0  0
   15.5442    9.2089   14.0746 C   0  0  0  0  0  0  0  0  0  0  0  0
   17.0592    9.1504   14.2528 N   0  0  0  0  0  0  0  0  0  0  0  0
   17.3843    8.4792   15.5971 C   0  0  0  0  0  0  0  0  0  0  0  0
   17.4921   10.6530   14.4565 C   0  0  0  0  0  0  0  0  0  0  0  0
   23.6565    6.6181   12.2863 C   0  0  0  0  0  0  0  0  0  0  0  0
   23.0108    5.7811   11.1917 C   0  0  0  0  0  0  0  0  0  0  0  0
   22.3819    4.5566   11.4877 C   0  0  0  0  0  0  0  0  0  0  0  0
   21.7839    3.7941   10.4884 C   0  0  0  0  0  0  0  0  0  0  0  0
   21.7821    4.2461    9.1758 C   0  0  0  0  0  0  0  0  0  0  0  0
   22.3702    5.4695    8.8394 C   0  0  0  0  0  0  0  0  0  0  0  0
   22.3381    5.9037    7.5052 C   0  0  0  0  0  0  0  0  0  0  0  0
   22.9029    7.1196    7.1311 C   0  0  0  0  0  0  0  0  0  0  0  0
   23.5069    7.9178    8.0904 C   0  0  0  0  0  0  0  0  0  0  0  0
   23.5479    7.4972    9.4234 C   0  0  0  0  0  0  0  0  0  0  0  0
   22.9891    6.2626    9.8413 C   0  0  0  0  0  0  0  0  0  0  0  0
 26 27  1  0
 27 28  1  0
 27 29  1  0
 27 25  1  0
 25 22  1  0
 22 23  1  0
 22 24  1  0
 22 21  1  0
 21 18  1  0
 18 19  1  0
 18 20  1  0
 18 17  1  0
  1 17  1  0
  1 30  1  0
 30 31  1  0
 31 32  2  0
 32 33  1  0
 33 34  2  0
 34 35  1  0
 35 36  2  0
 36 37  1  0
 37 38  2  0
 38 39  1  0
 39 40  2  0
  1  2  1  0
  2  3  1  0
  3  4  2  0
  3  5  1  0
  5  6  2  0
  6  7  1  0
  7  8  2  0
  8 13  1  0
 13 14  2  0
 13 15  1  0
  8  9  1  0
  9 10  2  0
 10 11  1  0
 11 12  2  0
 40 31  1  0
 11  2  1  0
 40 35  1  0
 10  5  1  0
 15 16  1  0
M  CHG 1  18   1
M  CHG 1  22   1
M  CHG 1  27   1
M  END
> <minimizedAffinity>
-8.22523

> <CNNscore>
0.1334389299

> <CNNaffinity>
5.2938361168

> <CNN_VS>
0.7064038515

> <CNNaffinity_variance>
0.5796913505

$$$$



 40 43  0  0  0  0  0  0  0  0999 V2000
   22.8829    6.6268   14.2763 C   0  0  0  0  0  0  0  0  0  0  0  0
   23.4508    6.4993   15.6219 N   0  0  0  0  0  0  0  0  0  0  0  0
   22.7314    6.0949   16.7122 C   0  0  0  0  0  0  0  0  0  0  0  0
   21.5327    5.8942   16.7431 O   0  0  0  0  0  0  0  0  0  0  0  0
   23.6490    6.1281   17.8538 C   0  0  0  0  0  0  0  0  0  0  0  0
   23.4821    5.7128   19.1587 C   0  0  0  0  0  0  0  0  0  0  0  0
   24.5563    5.9245   20.0349 C   0  0  0  0  0  0  0  0  0  0  0  0
   25.7480    6.5556   19.5960 C   0  0  0  0  0  0  0  0  0  0  0  0
   25.8811    6.9808   18.2646 C   0  0  0  0  0  0  0  0  0  0  0  0
   24.8186    6.7385   17.4197 C   0  0  0  0  0  0  0  0  0  0  0  0
   24.6284    7.0799   16.0098 C   0  0  0  0  0  0  0  0  0  0  0  0
   25.2739    7.8770   15.3522 O   0  0  0  0  0  0  0  0  0  0  0  0
   26.8869    6.8075   20.5121 C   0  0  0  0  0  0  0  0  0  0  0  0
   27.7956    6.0244   20.7139 O   0  0  0  0  0  0  0  0  0  0  0  0
   26.8109    8.0024   21.1120 O   0  0  0  0  0  0  0  0  0  0  0  0
   26.0924    8.5747   20.9269 H   0  0  0  0  0  0  0  0  0  0  0  0
   22.6334    8.1347   13.9613 C   0  0  0  0  0  0  0  0  0  0  0  0
   21.1679    8.6267   13.8868 N   0  0  0  0  0  0  0  0  0  0  0  0
   20.2255    7.5300   13.3635 C   0  0  0  0  0  0  0  0  0  0  0  0
   20.6851    8.9023   15.3708 C   0  0  0  0  0  0  0  0  0  0  0  0
   20.9837    9.9719   13.1711 C   0  0  0  0  0  0  0  0  0  0  0  0
   19.6320   10.4545   12.5553 N   0  0  0  0  0  0  0  0  0  0  0  0
   18.4464    9.8397   13.2478 C   0  0  0  0  0  0  0  0  0  0  0  0
   19.5993   10.1277   11.0530 C   0  0  0  0  0  0  0  0  0  0  0  0
   19.6744   12.0071   12.7088 C   0  0  0  0  0  0  0  0  0  0  0  0
   18.9275   12.1562   15.2012 C   0  0  0  0  0  0  0  0  0  0  0  0
   19.7651   12.7129   14.0527 N   0  0  0  0  0  0  0  0  0  0  0  0
   21.2005   12.9571   14.5463 C   0  0  0  0  0  0  0  0  0  0  0  0
   19.1891   14.1604   13.8082 C   0  0  0  0  0  0  0  0  0  0  0  0
   23.8286    5.9955   13.2203 C   0  0  0  0  0  0  0  0  0  0  0  0
   23.2033    5.3050   12.0171 C   0  0  0  0  0  0  0  0  0  0  0  0
   22.5722    4.0527   12.1437 C   0  0  0  0  0  0  0  0  0  0  0  0
   21.9928    3.4240   11.0454 C   0  0  0  0  0  0  0  0  0  0  0  0
   22.0121    4.0396    9.8013 C   0  0  0  0  0  0  0  0  0  0  0  0
   22.6032    5.2960    9.6337 C   0  0  0  0  0  0  0  0  0  0  0  0
   22.5926    5.8969    8.3654 C   0  0  0  0  0  0  0  0  0  0  0  0
   23.1610    7.1505    8.1591 C   0  0  0  0  0  0  0  0  0  0  0  0
   23.7470    7.8199    9.2225 C   0  0  0  0  0  0  0  0  0  0  0  0
   23.7664    7.2326   10.4915 C   0  0  0  0  0  0  0  0  0  0  0  0
   23.2034    5.9549   10.7390 C   0  0  0  0  0  0  0  0  0  0  0  0
 26 27  1  0
 27 28  1  0
 27 29  1  0
 27 25  1  0
 25 22  1  0
 22 23  1  0
 22 24  1  0
 22 21  1  0
 21 18  1  0
 18 19  1  0
 18 20  1  0
 18 17  1  0
  1 17  1  0
  1 30  1  0
 30 31  1  0
 31 32  2  0
 32 33  1  0
 33 34  2  0
 34 35  1  0
 35 36  2  0
 36 37  1  0
 37 38  2  0
 38 39  1  0
 39 40  2  0
  1  2  1  0
  2  3  1  0
  3  4  2  0
  3  5  1  0
  5  6  2  0
  6  7  1  0
  7  8  2  0
  8 13  1  0
 13 14  2  0
 13 15  1  0
  8  9  1  0
  9 10  2  0
 10 11  1  0
 11 12  2  0
 40 31  1  0
 11  2  1  0
 40 35  1  0
 10  5  1  0
 15 16  1  0
M  CHG 1  18   1
M  CHG 1  22   1
M  CHG 1  27   1
M  END
> <minimizedAffinity>
-8.07852

> <CNNscore>
0.1284762472

> <CNNaffinity>
5.0804238319

> <CNN_VS>
0.6527137756

> <CNNaffinity_variance>
0.8021100163

$$$$



 40 43  0  0  0  0  0  0  0  0999 V2000
   23.2151    6.8199   14.2807 C   0  0  0  0  0  0  0  0  0  0  0  0
   23.6863    6.5694   15.6462 N   0  0  0  0  0  0  0  0  0  0  0  0
   22.9096    6.0149   16.6255 C   0  0  0  0  0  0  0  0  0  0  0  0
   21.7243    5.7587   16.5382 O   0  0  0  0  0  0  0  0  0  0  0  0
   23.7358    5.9622   17.8342 C   0  0  0  0  0  0  0  0  0  0  0  0
   23.4937    5.3977   19.0695 C   0  0  0  0  0  0  0  0  0  0  0  0
   24.4863    5.5586   20.0469 C   0  0  0  0  0  0  0  0  0  0  0  0
   25.6724    6.2870   19.7753 C   0  0  0  0  0  0  0  0  0  0  0  0
   25.8823    6.8628   18.5122 C   0  0  0  0  0  0  0  0  0  0  0  0
   24.9006    6.6685   17.5634 C   0  0  0  0  0  0  0  0  0  0  0  0
   24.7990    7.1554   16.1875 C   0  0  0  0  0  0  0  0  0  0  0  0
   25.4487    8.0486   15.6732 O   0  0  0  0  0  0  0  0  0  0  0  0
   26.7243    6.4864   20.8018 C   0  0  0  0  0  0  0  0  0  0  0  0
   27.8626    6.0668   20.7128 O   0  0  0  0  0  0  0  0  0  0  0  0
   26.2867    7.1813   21.8596 O   0  0  0  0  0  0  0  0  0  0  0  0
   25.4009    7.4857   21.8863 H   0  0  0  0  0  0  0  0  0  0  0  0
   23.2604    8.3527   13.9913 C   0  0  0  0  0  0  0  0  0  0  0  0
   21.9149    9.1095   13.8806 N   0  0  0  0  0  0  0  0  0  0  0  0
   22.1150   10.6338   13.9154 C   0  0  0  0  0  0  0  0  0  0  0  0
   21.3208    8.8109   12.4422 C   0  0  0  0  0  0  0  0  0  0  0  0
   20.8287    8.6217   14.8492 C   0  0  0  0  0  0  0  0  0  0  0  0
   20.4794    9.3302   16.1965 N   0  0  0  0  0  0  0  0  0  0  0  0
   19.9040   10.7030   15.9782 C   0  0  0  0  0  0  0  0  0  0  0  0
   21.7349    9.4137   17.0806 C   0  0  0  0  0  0  0  0  0  0  0  0
   19.4686    8.3619   16.8870 C   0  0  0  0  0  0  0  0  0  0  0  0
   19.0436   10.0380   18.8368 C   0  0  0  0  0  0  0  0  0  0  0  0
   18.7820    8.6718   18.2079 N   0  0  0  0  0  0  0  0  0  0  0  0
   17.2704    8.3916   18.2191 C   0  0  0  0  0  0  0  0  0  0  0  0
   19.3740    7.6398   19.2429 C   0  0  0  0  0  0  0  0  0  0  0  0
   24.0780    6.0422   13.2519 C   0  0  0  0  0  0  0  0  0  0  0  0
   23.3684    5.3414   12.1026 C   0  0  0  0  0  0  0  0  0  0  0  0
   22.7012    4.1169   12.2980 C   0  0  0  0  0  0  0  0  0  0  0  0
   22.0450    3.4790   11.2493 C   0  0  0  0  0  0  0  0  0  0  0  0
   22.0223    4.0584    9.9880 C   0  0  0  0  0  0  0  0  0  0  0  0
   22.6476    5.2872    9.7535 C   0  0  0  0  0  0  0  0  0  0  0  0
   22.5933    5.8521    8.4700 C   0  0  0  0  0  0  0  0  0  0  0  0
   23.1939    7.0780    8.1981 C   0  0  0  0  0  0  0  0  0  0  0  0
   23.8564    7.7552    9.2104 C   0  0  0  0  0  0  0  0  0  0  0  0
   23.9200    7.2036   10.4938 C   0  0  0  0  0  0  0  0  0  0  0  0
   23.3260    5.9546   10.8072 C   0  0  0  0  0  0  0  0  0  0  0  0
 26 27  1  0
 27 28  1  0
 27 29  1  0
 27 25  1  0
 25 22  1  0
 22 23  1  0
 22 24  1  0
 22 21  1  0
 21 18  1  0
 18 19  1  0
 18 20  1  0
 18 17  1  0
  1 17  1  0
  1 30  1  0
 30 31  1  0
 31 32  2  0
 32 33  1  0
 33 34  2  0
 34 35  1  0
 35 36  2  0
 36 37  1  0
 37 38  2  0
 38 39  1  0
 39 40  2  0
  1  2  1  0
  2  3  1  0
  3  4  2  0
  3  5  1  0
  5  6  2  0
  6  7  1  0
  7  8  2  0
  8 13  1  0
 13 14  2  0
 13 15  1  0
  8  9  1  0
  9 10  2  0
 10 11  1  0
 11 12  2  0
 40 31  1  0
 11  2  1  0
 40 35  1  0
 10  5  1  0
 15 16  1  0
M  CHG 1  18   1
M  CHG 1  22   1
M  CHG 1  27   1
M  END
> <minimizedAffinity>
-8.78692

> <CNNscore>
0.1251448691

> <CNNaffinity>
4.6985034943

> <CNN_VS>
0.5879936218

> <CNNaffinity_variance>
1.8240836859

$$$$



 40 43  0  0  0  0  0  0  0  0999 V2000
   22.6225    6.5291   13.7818 C   0  0  0  0  0  0  0  0  0  0  0  0
   23.1465    6.4467   15.1486 N   0  0  0  0  0  0  0  0  0  0  0  0
   22.3549    6.3228   16.2567 C   0  0  0  0  0  0  0  0  0  0  0  0
   21.1403    6.3709   16.2764 O   0  0  0  0  0  0  0  0  0  0  0  0
   23.2548    6.3033   17.4127 C   0  0  0  0  0  0  0  0  0  0  0  0
   23.0012    6.0831   18.7507 C   0  0  0  0  0  0  0  0  0  0  0  0
   24.0917    6.1753   19.6275 C   0  0  0  0  0  0  0  0  0  0  0  0
   25.3884    6.5004   19.1542 C   0  0  0  0  0  0  0  0  0  0  0  0
   25.6111    6.7339   17.7878 C   0  0  0  0  0  0  0  0  0  0  0  0
   24.5256    6.6132   16.9459 C   0  0  0  0  0  0  0  0  0  0  0  0
   24.4152    6.8208   15.5019 C   0  0  0  0  0  0  0  0  0  0  0  0
   25.2115    7.3915   14.7775 O   0  0  0  0  0  0  0  0  0  0  0  0
   26.5502    6.6234   20.0679 C   0  0  0  0  0  0  0  0  0  0  0  0
   27.3681    5.7449   20.2651 O   0  0  0  0  0  0  0  0  0  0  0  0
   26.6070    7.8177   20.6710 O   0  0  0  0  0  0  0  0  0  0  0  0
   25.9552    8.4658   20.4893 H   0  0  0  0  0  0  0  0  0  0  0  0
   22.4452    8.0281   13.3858 C   0  0  0  0  0  0  0  0  0  0  0  0
   21.0327    8.5060   12.9715 N   0  0  0  0  0  0  0  0  0  0  0  0
   20.7020    9.8855   13.5651 C   0  0  0  0  0  0  0  0  0  0  0  0
   21.0507    8.7329   11.4033 C   0  0  0  0  0  0  0  0  0  0  0  0
   19.9203    7.4719   13.1933 C   0  0  0  0  0  0  0  0  0  0  0  0
   18.6064    7.7606   13.9866 N   0  0  0  0  0  0  0  0  0  0  0  0
   18.8358    8.7130   15.1284 C   0  0  0  0  0  0  0  0  0  0  0  0
   18.0122    6.4407   14.5058 C   0  0  0  0  0  0  0  0  0  0  0  0
   17.6309    8.3381   12.9139 C   0  0  0  0  0  0  0  0  0  0  0  0
   15.5545    8.8528   14.4023 C   0  0  0  0  0  0  0  0  0  0  0  0
   16.4687    9.2595   13.2494 N   0  0  0  0  0  0  0  0  0  0  0  0
   16.8564   10.7385   13.4096 C   0  0  0  0  0  0  0  0  0  0  0  0
   15.5353    9.2403   11.9785 C   0  0  0  0  0  0  0  0  0  0  0  0
   23.5705    5.8079   12.7872 C   0  0  0  0  0  0  0  0  0  0  0  0
   23.3021    5.9637   11.2974 C   0  0  0  0  0  0  0  0  0  0  0  0
   24.0907    6.8164   10.5015 C   0  0  0  0  0  0  0  0  0  0  0  0
   23.8513    6.9534    9.1372 C   0  0  0  0  0  0  0  0  0  0  0  0
   22.8336    6.2276    8.5333 C   0  0  0  0  0  0  0  0  0  0  0  0
   22.0427    5.3475    9.2788 C   0  0  0  0  0  0  0  0  0  0  0  0
   21.0316    4.6181    8.6344 C   0  0  0  0  0  0  0  0  0  0  0  0
   20.2296    3.7246    9.3385 C   0  0  0  0  0  0  0  0  0  0  0  0
   20.4313    3.5492   10.6989 C   0  0  0  0  0  0  0  0  0  0  0  0
   21.4339    4.2705   11.3546 C   0  0  0  0  0  0  0  0  0  0  0  0
   22.2664    5.1940   10.6725 C   0  0  0  0  0  0  0  0  0  0  0  0
 26 27  1  0
 27 28  1  0
 27 29  1  0
 27 25  1  0
 25 22  1  0
 22 23  1  0
 22 24  1  0
 22 21  1  0
 21 18  1  0
 18 19  1  0
 18 20  1  0
 18 17  1  0
  1 17  1  0
  1 30  1  0
 30 31  1  0
 31 32  2  0
 32 33  1  0
 33 34  2  0
 34 35  1  0
 35 36  2  0
 36 37  1  0
 37 38  2  0
 38 39  1  0
 39 40  2  0
  1  2  1  0
  2  3  1  0
  3  4  2  0
  3  5  1  0
  5  6  2  0
  6  7  1  0
  7  8  2  0
  8 13  1  0
 13 14  2  0
 13 15  1  0
  8  9  1  0
  9 10  2  0
 10 11  1  0
 11 12  2  0
 40 31  1  0
 11  2  1  0
 40 35  1  0
 10  5  1  0
 15 16  1  0
M  CHG 1  18   1
M  CHG 1  22   1
M  CHG 1  27   1
M  END
> <minimizedAffinity>
-7.95412

> <CNNscore>
0.1243983060

> <CNNaffinity>
5.3916687965

> <CNN_VS>
0.6707144380

> <CNNaffinity_variance>
0.2469705343

$$$$
