


 46 49  0  0  0  0  0  0  0  0999 V2000
    0.5790   18.0630   19.1457 C   0  0  0  0  0  0  0  0  0  0  0  0
    2.4205   21.4409   18.5945 C   0  0  0  0  0  0  0  0  0  0  0  0
    3.1097   22.3916   19.5775 C   0  0  0  0  0  0  0  0  0  0  0  0
    4.3249   21.7560   20.2334 C   0  0  0  0  0  0  0  0  0  0  0  0
    3.8976   20.4910   20.9640 C   0  0  0  0  0  0  0  0  0  0  0  0
    3.1387   19.5242   20.0585 C   0  0  0  0  0  0  0  0  0  0  0  0
    2.0816   20.1596   19.2496 N   0  0  0  0  0  0  0  0  0  0  0  0
    1.0190   19.4524   18.6610 C   0  0  0  0  0  0  0  0  0  0  0  0
    0.3874   19.9822   17.7336 O   0  0  0  0  0  0  0  0  0  0  0  0
    3.1761   21.1599   17.2476 C   0  0  0  0  0  0  0  0  0  0  0  0
    3.0622   22.2527   16.0873 N   0  0  0  0  0  0  0  0  0  0  0  0
    1.5395   22.3526   15.8336 C   0  0  0  0  0  0  0  0  0  0  0  0
    3.5179   23.5900   16.6346 C   0  0  0  0  0  0  0  0  0  0  0  0
    3.7653   21.7046   14.8678 C   0  0  0  0  0  0  0  0  0  0  0  0
    6.0623   22.0759   15.9491 C   0  0  0  0  0  0  0  0  0  0  0  0
    5.2633   21.8427   14.6803 N   0  0  0  0  0  0  0  0  0  0  0  0
    5.8889   20.7077   13.8713 C   0  0  0  0  0  0  0  0  0  0  0  0
    5.4600   23.1232   13.8139 C   0  0  0  0  0  0  0  0  0  0  0  0
    0.5570   17.8731   20.6174 N   0  0  0  0  0  0  0  0  0  0  0  0
    1.3628   18.3663   21.0018 H   0  0  0  0  0  0  0  0  0  0  0  0
   -0.8170   18.4140   21.4529 S   0  0  0  0  0  0  0  0  0  0  0  0
   -1.4362   19.4712   20.6770 O   0  0  0  0  0  0  0  0  0  0  0  0
   -1.5602   17.2307   21.8123 O   0  0  0  0  0  0  0  0  0  0  0  0
   -0.1233   19.1040   22.9279 C   0  0  0  0  0  0  0  0  0  0  0  0
    0.7262   20.2071   22.8298 C   0  0  0  0  0  0  0  0  0  0  0  0
    1.2818   20.7481   23.9898 C   0  0  0  0  0  0  0  0  0  0  0  0
    1.0093   20.1847   25.2478 C   0  0  0  0  0  0  0  0  0  0  0  0
    1.5732   20.7145   26.4191 C   0  0  0  0  0  0  0  0  0  0  0  0
    1.3069   20.1386   27.6615 C   0  0  0  0  0  0  0  0  0  0  0  0
    0.4684   19.0313   27.7518 C   0  0  0  0  0  0  0  0  0  0  0  0
   -0.1024   18.4935   26.5983 C   0  0  0  0  0  0  0  0  0  0  0  0
    0.1599   19.0557   25.3386 C   0  0  0  0  0  0  0  0  0  0  0  0
   -0.3985   18.5187   24.1679 C   0  0  0  0  0  0  0  0  0  0  0  0
   -0.7256   17.5948   18.4677 C   0  0  0  0  0  0  0  0  0  0  0  0
   -0.9167   16.1123   18.2626 C   0  0  0  0  0  0  0  0  0  0  0  0
   -0.6986   15.2058   19.3061 C   0  0  0  0  0  0  0  0  0  0  0  0
   -0.8905   13.8358   19.1051 C   0  0  0  0  0  0  0  0  0  0  0  0
   -1.3182   13.3548   17.8652 C   0  0  0  0  0  0  0  0  0  0  0  0
   -1.5392   14.2470   16.8142 C   0  0  0  0  0  0  0  0  0  0  0  0
   -1.3164   15.6171   17.0095 C   0  0  0  0  0  0  0  0  0  0  0  0
   -2.1104   13.7871   15.5162 C   0  0  0  0  0  0  0  0  0  0  0  0
   -3.0395   14.4378   14.8919 N   0  0  0  0  0  0  0  0  0  0  0  0
   -1.6987   12.6225   14.9384 N   0  0  0  0  0  0  0  0  0  0  0  0
   -3.3785   15.2858   15.2596 H   0  0  0  0  0  0  0  0  0  0  0  0
   -0.9949   12.0829   15.3657 H   0  0  0  0  0  0  0  0  0  0  0  0
   -2.1054   12.3214   14.0938 H   0  0  0  0  0  0  0  0  0  0  0  0
 15 16  1  0
 16 17  1  0
 16 18  1  0
 16 14  1  0
 14 11  1  0
 11 12  1  0
 11 13  1  0
 11 10  1  0
  2 10  1  0
  2  3  1  0
  3  4  1  0
  4  5  1  0
  5  6  1  0
  6  7  1  0
  7  8  1  0
  8  9  2  0
  8  1  1  0
  1 34  1  0
 34 35  1  0
 35 36  2  0
 36 37  1  0
 37 38  2  0
 38 39  1  0
 39 41  1  0
 41 42  2  0
 41 43  1  0
 39 40  2  0
  1 19  1  0
 19 21  1  0
 21 22  2  0
 21 23  2  0
 21 24  1  0
 24 25  2  0
 25 26  1  0
 26 27  2  0
 27 28  1  0
 28 29  2  0
 29 30  1  0
 30 31  2  0
 31 32  1  0
 32 33  2  0
  7  2  1  0
 40 35  1  0
 33 24  1  0
 32 27  1  0
 42 44  1  0
 43 45  1  0
 43 46  1  0
 19 20  1  0
M  CHG 1  11   1
M  CHG 1  16   1
M  END
> <minimizedAffinity>
-8.87085

> <CNNscore>
0.8903006315

> <CNNaffinity>
8.0080308914

> <CNN_VS>
7.1295547485

> <CNNaffinity_variance>
0.1362005621

$$$$



 46 49  0  0  0  0  0  0  0  0999 V2000
   -1.5675   19.3899   18.3626 C   0  0  0  0  0  0  0  0  0  0  0  0
    1.1065   19.8690   21.1421 C   0  0  0  0  0  0  0  0  0  0  0  0
    2.6358   19.9182   21.0795 C   0  0  0  0  0  0  0  0  0  0  0  0
    3.1391   21.1166   20.2913 C   0  0  0  0  0  0  0  0  0  0  0  0
    2.5736   21.0629   18.8792 C   0  0  0  0  0  0  0  0  0  0  0  0
    1.0519   20.9409   18.8659 C   0  0  0  0  0  0  0  0  0  0  0  0
    0.5212   19.9169   19.7853 N   0  0  0  0  0  0  0  0  0  0  0  0
   -0.7623   19.3557   19.6701 C   0  0  0  0  0  0  0  0  0  0  0  0
   -1.2550   18.7798   20.6527 O   0  0  0  0  0  0  0  0  0  0  0  0
    0.4095   20.9396   22.0542 C   0  0  0  0  0  0  0  0  0  0  0  0
   -0.0723   20.4808   23.5071 N   0  0  0  0  0  0  0  0  0  0  0  0
   -1.5329   20.9853   23.5791 C   0  0  0  0  0  0  0  0  0  0  0  0
   -0.1147   18.9668   23.5479 C   0  0  0  0  0  0  0  0  0  0  0  0
    0.7842   21.1976   24.5242 C   0  0  0  0  0  0  0  0  0  0  0  0
    0.9990   19.2894   26.2258 C   0  0  0  0  0  0  0  0  0  0  0  0
    0.8170   20.7756   25.9798 N   0  0  0  0  0  0  0  0  0  0  0  0
    1.8089   21.5699   26.8280 C   0  0  0  0  0  0  0  0  0  0  0  0
   -0.5894   21.1307   26.5499 C   0  0  0  0  0  0  0  0  0  0  0  0
   -0.7748   19.5973   17.1252 N   0  0  0  0  0  0  0  0  0  0  0  0
   -0.7720   18.7157   16.6121 H   0  0  0  0  0  0  0  0  0  0  0  0
   -1.2991   20.8066   16.0569 S   0  0  0  0  0  0  0  0  0  0  0  0
   -2.3305   20.2469   15.2048 O   0  0  0  0  0  0  0  0  0  0  0  0
   -1.5628   21.9712   16.8667 O   0  0  0  0  0  0  0  0  0  0  0  0
    0.1496   21.1191   15.0891 C   0  0  0  0  0  0  0  0  0  0  0  0
    0.0102   21.6523   13.8067 C   0  0  0  0  0  0  0  0  0  0  0  0
    1.1496   21.8916   13.0377 C   0  0  0  0  0  0  0  0  0  0  0  0
    2.4285   21.5860   13.5330 C   0  0  0  0  0  0  0  0  0  0  0  0
    3.5797   21.8120   12.7622 C   0  0  0  0  0  0  0  0  0  0  0  0
    4.8435   21.4919   13.2585 C   0  0  0  0  0  0  0  0  0  0  0  0
    4.9753   20.9492   14.5334 C   0  0  0  0  0  0  0  0  0  0  0  0
    3.8422   20.7204   15.3140 C   0  0  0  0  0  0  0  0  0  0  0  0
    2.5617   21.0299   14.8282 C   0  0  0  0  0  0  0  0  0  0  0  0
    1.4114   20.7951   15.5978 C   0  0  0  0  0  0  0  0  0  0  0  0
   -2.5452   18.2017   18.2485 C   0  0  0  0  0  0  0  0  0  0  0  0
   -1.9568   16.8229   18.0776 C   0  0  0  0  0  0  0  0  0  0  0  0
   -1.2223   16.2199   19.1048 C   0  0  0  0  0  0  0  0  0  0  0  0
   -0.6924   14.9372   18.9370 C   0  0  0  0  0  0  0  0  0  0  0  0
   -0.9028   14.2338   17.7484 C   0  0  0  0  0  0  0  0  0  0  0  0
   -1.6330   14.8227   16.7142 C   0  0  0  0  0  0  0  0  0  0  0  0
   -2.1369   16.1209   16.8734 C   0  0  0  0  0  0  0  0  0  0  0  0
   -1.9809   14.0601   15.4813 C   0  0  0  0  0  0  0  0  0  0  0  0
   -3.0637   14.2797   14.8062 N   0  0  0  0  0  0  0  0  0  0  0  0
   -1.1792   13.0564   15.0237 N   0  0  0  0  0  0  0  0  0  0  0  0
   -3.6832   14.9914   15.0871 H   0  0  0  0  0  0  0  0  0  0  0  0
   -0.3418   12.8418   15.4948 H   0  0  0  0  0  0  0  0  0  0  0  0
   -1.4378   12.5465   14.2223 H   0  0  0  0  0  0  0  0  0  0  0  0
 15 16  1  0
 16 17  1  0
 16 18  1  0
 16 14  1  0
 14 11  1  0
 11 12  1  0
 11 13  1  0
 11 10  1  0
  2 10  1  0
  2  3  1  0
  3  4  1  0
  4  5  1  0
  5  6  1  0
  6  7  1  0
  7  8  1  0
  8  9  2  0
  8  1  1  0
  1 34  1  0
 34 35  1  0
 35 36  2  0
 36 37  1  0
 37 38  2  0
 38 39  1  0
 39 41  1  0
 41 42  2  0
 41 43  1  0
 39 40  2  0
  1 19  1  0
 19 21  1  0
 21 22  2  0
 21 23  2  0
 21 24  1  0
 24 25  2  0
 25 26  1  0
 26 27  2  0
 27 28  1  0
 28 29  2  0
 29 30  1  0
 30 31  2  0
 31 32  1  0
 32 33  2  0
  7  2  1  0
 40 35  1  0
 33 24  1  0
 32 27  1  0
 42 44  1  0
 43 45  1  0
 43 46  1  0
 19 20  1  0
M  CHG 1  11   1
M  CHG 1  16   1
M  END
> <minimizedAffinity>
-8.50670

> <CNNscore>
0.8814300299

> <CNNaffinity>
7.9558939934

> <CNN_VS>
7.0125637054

> <CNNaffinity_variance>
0.0545277931

$$$$



 46 49  0  0  0  0  0  0  0  0999 V2000
   -2.2170   18.8088   16.8722 C   0  0  0  0  0  0  0  0  0  0  0  0
   -5.2776   21.2042   16.8651 C   0  0  0  0  0  0  0  0  0  0  0  0
   -5.3691   22.7315   16.8016 C   0  0  0  0  0  0  0  0  0  0  0  0
   -4.8459   23.2830   15.4852 C   0  0  0  0  0  0  0  0  0  0  0  0
   -3.3980   22.8519   15.2997 C   0  0  0  0  0  0  0  0  0  0  0  0
   -3.2205   21.3406   15.4219 C   0  0  0  0  0  0  0  0  0  0  0  0
   -3.8993   20.7463   16.5889 N   0  0  0  0  0  0  0  0  0  0  0  0
   -3.5701   19.4899   17.1260 C   0  0  0  0  0  0  0  0  0  0  0  0
   -4.3902   18.9192   17.8620 O   0  0  0  0  0  0  0  0  0  0  0  0
   -6.2876   20.4056   15.9671 C   0  0  0  0  0  0  0  0  0  0  0  0
   -7.7330   20.0899   16.5709 N   0  0  0  0  0  0  0  0  0  0  0  0
   -8.5783   21.3124   16.1418 C   0  0  0  0  0  0  0  0  0  0  0  0
   -8.3001   18.8771   15.8616 C   0  0  0  0  0  0  0  0  0  0  0  0
   -7.6031   20.0401   18.0750 C   0  0  0  0  0  0  0  0  0  0  0  0
   -8.3379   22.2078   19.2345 C   0  0  0  0  0  0  0  0  0  0  0  0
   -8.5971   20.7335   18.9857 N   0  0  0  0  0  0  0  0  0  0  0  0
  -10.0546   20.5215   18.5798 C   0  0  0  0  0  0  0  0  0  0  0  0
   -8.4502   20.0372   20.3723 C   0  0  0  0  0  0  0  0  0  0  0  0
   -1.1789   19.6588   16.2380 N   0  0  0  0  0  0  0  0  0  0  0  0
   -1.6176   20.5465   15.9934 H   0  0  0  0  0  0  0  0  0  0  0  0
    0.2065   20.0104   17.1522 S   0  0  0  0  0  0  0  0  0  0  0  0
   -0.1147   21.0835   18.0732 O   0  0  0  0  0  0  0  0  0  0  0  0
    0.6992   18.7442   17.6378 O   0  0  0  0  0  0  0  0  0  0  0  0
    1.3332   20.6122   15.9269 C   0  0  0  0  0  0  0  0  0  0  0  0
    0.8291   21.2521   14.7936 C   0  0  0  0  0  0  0  0  0  0  0  0
    1.7141   21.7199   13.8215 C   0  0  0  0  0  0  0  0  0  0  0  0
    3.1000   21.5381   13.9638 C   0  0  0  0  0  0  0  0  0  0  0  0
    3.9973   21.9945   12.9855 C   0  0  0  0  0  0  0  0  0  0  0  0
    5.3706   21.7963   13.1304 C   0  0  0  0  0  0  0  0  0  0  0  0
    5.8665   21.1468   14.2571 C   0  0  0  0  0  0  0  0  0  0  0  0
    4.9894   20.6890   15.2402 C   0  0  0  0  0  0  0  0  0  0  0  0
    3.6037   20.8735   15.1079 C   0  0  0  0  0  0  0  0  0  0  0  0
    2.7080   20.4086   16.0837 C   0  0  0  0  0  0  0  0  0  0  0  0
   -1.6947   18.0663   18.1199 C   0  0  0  0  0  0  0  0  0  0  0  0
   -1.5355   16.5686   18.0295 C   0  0  0  0  0  0  0  0  0  0  0  0
   -1.1146   15.8201   19.1343 C   0  0  0  0  0  0  0  0  0  0  0  0
   -0.9823   14.4316   19.0395 C   0  0  0  0  0  0  0  0  0  0  0  0
   -1.2843   13.7711   17.8461 C   0  0  0  0  0  0  0  0  0  0  0  0
   -1.7047   14.5046   16.7349 C   0  0  0  0  0  0  0  0  0  0  0  0
   -1.8069   15.8997   16.8235 C   0  0  0  0  0  0  0  0  0  0  0  0
   -2.1510   13.8267   15.4843 C   0  0  0  0  0  0  0  0  0  0  0  0
   -3.0606   14.3221   14.7074 N   0  0  0  0  0  0  0  0  0  0  0  0
   -1.6388   12.6175   15.1169 N   0  0  0  0  0  0  0  0  0  0  0  0
   -3.4686   15.1925   14.9198 H   0  0  0  0  0  0  0  0  0  0  0  0
   -0.9438   12.1895   15.6675 H   0  0  0  0  0  0  0  0  0  0  0  0
   -1.9638   12.1725   14.3011 H   0  0  0  0  0  0  0  0  0  0  0  0
 15 16  1  0
 16 17  1  0
 16 18  1  0
 16 14  1  0
 14 11  1  0
 11 12  1  0
 11 13  1  0
 11 10  1  0
  2 10  1  0
  2  3  1  0
  3  4  1  0
  4  5  1  0
  5  6  1  0
  6  7  1  0
  7  8  1  0
  8  9  2  0
  8  1  1  0
  1 34  1  0
 34 35  1  0
 35 36  2  0
 36 37  1  0
 37 38  2  0
 38 39  1  0
 39 41  1  0
 41 42  2  0
 41 43  1  0
 39 40  2  0
  1 19  1  0
 19 21  1  0
 21 22  2  0
 21 23  2  0
 21 24  1  0
 24 25  2  0
 25 26  1  0
 26 27  2  0
 27 28  1  0
 28 29  2  0
 29 30  1  0
 30 31  2  0
 31 32  1  0
 32 33  2  0
  7  2  1  0
 40 35  1  0
 33 24  1  0
 32 27  1  0
 42 44  1  0
 43 45  1  0
 43 46  1  0
 19 20  1  0
M  CHG 1  11   1
M  CHG 1  16   1
M  END
> <minimizedAffinity>
-8.87526

> <CNNscore>
0.8759284616

> <CNNaffinity>
7.6034545898

> <CNN_VS>
6.6600823402

> <CNNaffinity_variance>
0.1768651158

$$$$



 46 49  0  0  0  0  0  0  0  0999 V2000
   -2.2709   18.8051   16.8962 C   0  0  0  0  0  0  0  0  0  0  0  0
   -5.3520   20.8187   18.1443 C   0  0  0  0  0  0  0  0  0  0  0  0
   -5.7949   21.2238   19.5532 C   0  0  0  0  0  0  0  0  0  0  0  0
   -4.8145   22.1830   20.2087 C   0  0  0  0  0  0  0  0  0  0  0  0
   -3.4411   21.5303   20.2752 C   0  0  0  0  0  0  0  0  0  0  0  0
   -2.9651   21.0359   18.9116 C   0  0  0  0  0  0  0  0  0  0  0  0
   -3.9785   20.2718   18.1599 N   0  0  0  0  0  0  0  0  0  0  0  0
   -3.6711   19.4030   17.0988 C   0  0  0  0  0  0  0  0  0  0  0  0
   -4.5724   19.0775   16.3104 O   0  0  0  0  0  0  0  0  0  0  0  0
   -5.4676   21.9198   17.0315 C   0  0  0  0  0  0  0  0  0  0  0  0
   -6.8269   21.9939   16.1948 N   0  0  0  0  0  0  0  0  0  0  0  0
   -7.4002   23.3835   16.5597 C   0  0  0  0  0  0  0  0  0  0  0  0
   -6.4866   22.0189   14.7186 C   0  0  0  0  0  0  0  0  0  0  0  0
   -7.7377   20.8988   16.6979 C   0  0  0  0  0  0  0  0  0  0  0  0
   -9.5634   20.9858   14.8972 C   0  0  0  0  0  0  0  0  0  0  0  0
   -8.6569   20.1338   15.7662 N   0  0  0  0  0  0  0  0  0  0  0  0
   -7.9367   19.0956   14.9076 C   0  0  0  0  0  0  0  0  0  0  0  0
   -9.6052   19.3154   16.6934 C   0  0  0  0  0  0  0  0  0  0  0  0
   -1.2544   19.7269   16.3308 N   0  0  0  0  0  0  0  0  0  0  0  0
   -1.6651   20.6603   16.3107 H   0  0  0  0  0  0  0  0  0  0  0  0
    0.2312   19.8416   17.1422 S   0  0  0  0  0  0  0  0  0  0  0  0
    0.0819   20.7807   18.2371 O   0  0  0  0  0  0  0  0  0  0  0  0
    0.6613   18.4862   17.3863 O   0  0  0  0  0  0  0  0  0  0  0  0
    1.2887   20.5468   15.9103 C   0  0  0  0  0  0  0  0  0  0  0  0
    0.7213   21.2556   14.8502 C   0  0  0  0  0  0  0  0  0  0  0  0
    1.5514   21.8053   13.8726 C   0  0  0  0  0  0  0  0  0  0  0  0
    2.9451   21.6378   13.9357 C   0  0  0  0  0  0  0  0  0  0  0  0
    3.7873   22.1767   12.9506 C   0  0  0  0  0  0  0  0  0  0  0  0
    5.1686   21.9925   13.0157 C   0  0  0  0  0  0  0  0  0  0  0  0
    5.7277   21.2744   14.0688 C   0  0  0  0  0  0  0  0  0  0  0  0
    4.9057   20.7341   15.0578 C   0  0  0  0  0  0  0  0  0  0  0  0
    3.5128   20.9036   15.0048 C   0  0  0  0  0  0  0  0  0  0  0  0
    2.6721   20.3564   15.9868 C   0  0  0  0  0  0  0  0  0  0  0  0
   -1.7661   18.0635   18.1515 C   0  0  0  0  0  0  0  0  0  0  0  0
   -1.5445   16.5748   18.0452 C   0  0  0  0  0  0  0  0  0  0  0  0
   -1.0502   15.8400   19.1287 C   0  0  0  0  0  0  0  0  0  0  0  0
   -0.8605   14.4593   19.0197 C   0  0  0  0  0  0  0  0  0  0  0  0
   -1.1770   13.7922   17.8338 C   0  0  0  0  0  0  0  0  0  0  0  0
   -1.6704   14.5120   16.7438 C   0  0  0  0  0  0  0  0  0  0  0  0
   -1.8306   15.9008   16.8455 C   0  0  0  0  0  0  0  0  0  0  0  0
   -2.1324   13.8214   15.5059 C   0  0  0  0  0  0  0  0  0  0  0  0
   -1.6755   12.6672   15.1378 N   0  0  0  0  0  0  0  0  0  0  0  0
   -3.0443   14.4012   14.6742 N   0  0  0  0  0  0  0  0  0  0  0  0
   -1.0144   12.1985   15.6968 H   0  0  0  0  0  0  0  0  0  0  0  0
   -3.4282   15.2791   14.9000 H   0  0  0  0  0  0  0  0  0  0  0  0
   -3.3188   13.9417   13.8478 H   0  0  0  0  0  0  0  0  0  0  0  0
 15 16  1  0
 16 17  1  0
 16 18  1  0
 16 14  1  0
 14 11  1  0
 11 12  1  0
 11 13  1  0
 11 10  1  0
  2 10  1  0
  2  3  1  0
  3  4  1  0
  4  5  1  0
  5  6  1  0
  6  7  1  0
  7  8  1  0
  8  9  2  0
  8  1  1  0
  1 34  1  0
 34 35  1  0
 35 36  2  0
 36 37  1  0
 37 38  2  0
 38 39  1  0
 39 41  1  0
 41 42  2  0
 41 43  1  0
 39 40  2  0
  1 19  1  0
 19 21  1  0
 21 22  2  0
 21 23  2  0
 21 24  1  0
 24 25  2  0
 25 26  1  0
 26 27  2  0
 27 28  1  0
 28 29  2  0
 29 30  1  0
 30 31  2  0
 31 32  1  0
 32 33  2  0
  7  2  1  0
 40 35  1  0
 33 24  1  0
 32 27  1  0
 42 44  1  0
 43 45  1  0
 43 46  1  0
 19 20  1  0
M  CHG 1  11   1
M  CHG 1  16   1
M  END
> <minimizedAffinity>
-8.86757

> <CNNscore>
0.8748052716

> <CNNaffinity>
7.6163635254

> <CNN_VS>
6.6628351212

> <CNNaffinity_variance>
0.2500034571

$$$$



 46 49  0  0  0  0  0  0  0  0999 V2000
   -1.3169   20.1652   17.5824 C   0  0  0  0  0  0  0  0  0  0  0  0
    1.1688   21.4341   14.8774 C   0  0  0  0  0  0  0  0  0  0  0  0
    1.0943   21.4236   13.3479 C   0  0  0  0  0  0  0  0  0  0  0  0
   -0.0327   22.2984   12.8228 C   0  0  0  0  0  0  0  0  0  0  0  0
   -1.3552   21.8142   13.3999 C   0  0  0  0  0  0  0  0  0  0  0  0
   -1.3297   21.7315   14.9240 C   0  0  0  0  0  0  0  0  0  0  0  0
   -0.1335   21.0643   15.4716 N   0  0  0  0  0  0  0  0  0  0  0  0
   -0.0655   20.5270   16.7685 C   0  0  0  0  0  0  0  0  0  0  0  0
    1.0486   20.3038   17.2671 O   0  0  0  0  0  0  0  0  0  0  0  0
    1.6949   22.7550   15.5426 C   0  0  0  0  0  0  0  0  0  0  0  0
    3.1898   23.2121   15.2112 N   0  0  0  0  0  0  0  0  0  0  0  0
    3.0058   24.2640   14.0919 C   0  0  0  0  0  0  0  0  0  0  0  0
    3.7556   23.9314   16.4187 C   0  0  0  0  0  0  0  0  0  0  0  0
    3.9341   22.0073   14.6857 C   0  0  0  0  0  0  0  0  0  0  0  0
    6.0744   22.0752   16.0990 C   0  0  0  0  0  0  0  0  0  0  0  0
    5.4472   21.9235   14.7256 N   0  0  0  0  0  0  0  0  0  0  0  0
    6.0132   20.6882   14.0273 C   0  0  0  0  0  0  0  0  0  0  0  0
    5.9553   23.1376   13.8909 C   0  0  0  0  0  0  0  0  0  0  0  0
   -2.1751   21.3077   17.9831 N   0  0  0  0  0  0  0  0  0  0  0  0
   -2.9743   21.3272   17.3496 H   0  0  0  0  0  0  0  0  0  0  0  0
   -2.7812   21.3095   19.5677 S   0  0  0  0  0  0  0  0  0  0  0  0
   -2.1586   20.2207   20.2957 O   0  0  0  0  0  0  0  0  0  0  0  0
   -2.6719   22.6691   20.0381 O   0  0  0  0  0  0  0  0  0  0  0  0
   -4.4955   20.9419   19.3242 C   0  0  0  0  0  0  0  0  0  0  0  0
   -4.8555   19.9365   18.4255 C   0  0  0  0  0  0  0  0  0  0  0  0
   -6.2063   19.6502   18.2245 C   0  0  0  0  0  0  0  0  0  0  0  0
   -7.2029   20.3728   18.9017 C   0  0  0  0  0  0  0  0  0  0  0  0
   -8.5646   20.1002   18.6970 C   0  0  0  0  0  0  0  0  0  0  0  0
   -9.5461   20.8333   19.3643 C   0  0  0  0  0  0  0  0  0  0  0  0
   -9.1811   21.8428   20.2502 C   0  0  0  0  0  0  0  0  0  0  0  0
   -7.8327   22.1254   20.4676 C   0  0  0  0  0  0  0  0  0  0  0  0
   -6.8312   21.4026   19.7994 C   0  0  0  0  0  0  0  0  0  0  0  0
   -5.4704   21.6829   19.9996 C   0  0  0  0  0  0  0  0  0  0  0  0
   -2.1209   19.0174   16.9368 C   0  0  0  0  0  0  0  0  0  0  0  0
   -1.8377   17.6118   17.4067 C   0  0  0  0  0  0  0  0  0  0  0  0
   -1.5495   17.3447   18.7497 C   0  0  0  0  0  0  0  0  0  0  0  0
   -1.3002   16.0359   19.1732 C   0  0  0  0  0  0  0  0  0  0  0  0
   -1.3518   14.9756   18.2651 C   0  0  0  0  0  0  0  0  0  0  0  0
   -1.6374   15.2266   16.9216 C   0  0  0  0  0  0  0  0  0  0  0  0
   -1.8565   16.5433   16.4938 C   0  0  0  0  0  0  0  0  0  0  0  0
   -1.8202   14.1122   15.9484 C   0  0  0  0  0  0  0  0  0  0  0  0
   -1.0403   13.0792   15.9144 N   0  0  0  0  0  0  0  0  0  0  0  0
   -2.8106   14.1499   15.0118 N   0  0  0  0  0  0  0  0  0  0  0  0
   -0.3064   12.9949   16.5652 H   0  0  0  0  0  0  0  0  0  0  0  0
   -3.4357   14.9100   14.9868 H   0  0  0  0  0  0  0  0  0  0  0  0
   -2.9005   13.4170   14.3606 H   0  0  0  0  0  0  0  0  0  0  0  0
 15 16  1  0
 16 17  1  0
 16 18  1  0
 16 14  1  0
 14 11  1  0
 11 12  1  0
 11 13  1  0
 11 10  1  0
  2 10  1  0
  2  3  1  0
  3  4  1  0
  4  5  1  0
  5  6  1  0
  6  7  1  0
  7  8  1  0
  8  9  2  0
  8  1  1  0
  1 34  1  0
 34 35  1  0
 35 36  2  0
 36 37  1  0
 37 38  2  0
 38 39  1  0
 39 41  1  0
 41 42  2  0
 41 43  1  0
 39 40  2  0
  1 19  1  0
 19 21  1  0
 21 22  2  0
 21 23  2  0
 21 24  1  0
 24 25  2  0
 25 26  1  0
 26 27  2  0
 27 28  1  0
 28 29  2  0
 29 30  1  0
 30 31  2  0
 31 32  1  0
 32 33  2  0
  7  2  1  0
 40 35  1  0
 33 24  1  0
 32 27  1  0
 42 44  1  0
 43 45  1  0
 43 46  1  0
 19 20  1  0
M  CHG 1  11   1
M  CHG 1  16   1
M  END
> <minimizedAffinity>
-7.24216

> <CNNscore>
0.7563515306

> <CNNaffinity>
7.2965960503

> <CNN_VS>
5.5187916756

> <CNNaffinity_variance>
0.0510228388

$$$$



 46 49  0  0  0  0  0  0  0  0999 V2000
   -2.4287   19.0517   17.8623 C   0  0  0  0  0  0  0  0  0  0  0  0
   -5.1795   21.4075   16.4521 C   0  0  0  0  0  0  0  0  0  0  0  0
   -5.0873   22.7542   15.7289 C   0  0  0  0  0  0  0  0  0  0  0  0
   -4.3996   22.6339   14.3785 C   0  0  0  0  0  0  0  0  0  0  0  0
   -3.0015   22.0654   14.5755 C   0  0  0  0  0  0  0  0  0  0  0  0
   -3.0114   20.7529   15.3550 C   0  0  0  0  0  0  0  0  0  0  0  0
   -3.8461   20.7801   16.5708 N   0  0  0  0  0  0  0  0  0  0  0  0
   -3.7094   19.8674   17.6309 C   0  0  0  0  0  0  0  0  0  0  0  0
   -4.6467   19.7363   18.4335 O   0  0  0  0  0  0  0  0  0  0  0  0
   -6.2001   20.3682   15.8668 C   0  0  0  0  0  0  0  0  0  0  0  0
   -7.7051   20.4193   16.4016 N   0  0  0  0  0  0  0  0  0  0  0  0
   -8.4260   21.3140   15.3659 C   0  0  0  0  0  0  0  0  0  0  0  0
   -8.3046   19.0319   16.2953 C   0  0  0  0  0  0  0  0  0  0  0  0
   -7.6900   21.0875   17.7563 C   0  0  0  0  0  0  0  0  0  0  0  0
  -10.2405   20.8440   17.8940 C   0  0  0  0  0  0  0  0  0  0  0  0
   -8.9488   21.2344   18.5881 N   0  0  0  0  0  0  0  0  0  0  0  0
   -8.8655   20.5564   19.9546 C   0  0  0  0  0  0  0  0  0  0  0  0
   -9.0742   22.7580   18.8913 C   0  0  0  0  0  0  0  0  0  0  0  0
   -1.2395   19.8302   18.2891 N   0  0  0  0  0  0  0  0  0  0  0  0
   -0.9961   19.5252   19.2315 H   0  0  0  0  0  0  0  0  0  0  0  0
    0.1583   19.7038   17.3360 S   0  0  0  0  0  0  0  0  0  0  0  0
    0.2922   18.3264   16.9027 O   0  0  0  0  0  0  0  0  0  0  0  0
    0.0865   20.7763   16.3736 O   0  0  0  0  0  0  0  0  0  0  0  0
    1.4463   20.0788   18.4908 C   0  0  0  0  0  0  0  0  0  0  0  0
    1.5308   19.3491   19.6776 C   0  0  0  0  0  0  0  0  0  0  0  0
    2.5395   19.6481   20.5942 C   0  0  0  0  0  0  0  0  0  0  0  0
    3.4558   20.6832   20.3427 C   0  0  0  0  0  0  0  0  0  0  0  0
    4.4664   20.9992   21.2642 C   0  0  0  0  0  0  0  0  0  0  0  0
    5.3622   22.0381   21.0106 C   0  0  0  0  0  0  0  0  0  0  0  0
    5.2655   22.7701   19.8307 C   0  0  0  0  0  0  0  0  0  0  0  0
    4.2689   22.4680   18.9028 C   0  0  0  0  0  0  0  0  0  0  0  0
    3.3542   21.4304   19.1444 C   0  0  0  0  0  0  0  0  0  0  0  0
    2.3392   21.1219   18.2251 C   0  0  0  0  0  0  0  0  0  0  0  0
   -2.6776   17.8145   18.7502 C   0  0  0  0  0  0  0  0  0  0  0  0
   -1.9436   16.5428   18.4030 C   0  0  0  0  0  0  0  0  0  0  0  0
   -1.0103   15.9854   19.2841 C   0  0  0  0  0  0  0  0  0  0  0  0
   -0.3458   14.8004   18.9545 C   0  0  0  0  0  0  0  0  0  0  0  0
   -0.6164   14.1483   17.7490 C   0  0  0  0  0  0  0  0  0  0  0  0
   -1.5446   14.6928   16.8593 C   0  0  0  0  0  0  0  0  0  0  0  0
   -2.1868   15.8972   17.1785 C   0  0  0  0  0  0  0  0  0  0  0  0
   -1.9487   13.9659   15.6220 C   0  0  0  0  0  0  0  0  0  0  0  0
   -1.2559   12.9905   15.1269 N   0  0  0  0  0  0  0  0  0  0  0  0
   -3.0643   14.3264   14.9255 N   0  0  0  0  0  0  0  0  0  0  0  0
   -0.4397   12.6846   15.5845 H   0  0  0  0  0  0  0  0  0  0  0  0
   -3.6322   15.0614   15.2517 H   0  0  0  0  0  0  0  0  0  0  0  0
   -3.3018   13.8515   14.0964 H   0  0  0  0  0  0  0  0  0  0  0  0
 15 16  1  0
 16 17  1  0
 16 18  1  0
 16 14  1  0
 14 11  1  0
 11 12  1  0
 11 13  1  0
 11 10  1  0
  2 10  1  0
  2  3  1  0
  3  4  1  0
  4  5  1  0
  5  6  1  0
  6  7  1  0
  7  8  1  0
  8  9  2  0
  8  1  1  0
  1 34  1  0
 34 35  1  0
 35 36  2  0
 36 37  1  0
 37 38  2  0
 38 39  1  0
 39 41  1  0
 41 42  2  0
 41 43  1  0
 39 40  2  0
  1 19  1  0
 19 21  1  0
 21 22  2  0
 21 23  2  0
 21 24  1  0
 24 25  2  0
 25 26  1  0
 26 27  2  0
 27 28  1  0
 28 29  2  0
 29 30  1  0
 30 31  2  0
 31 32  1  0
 32 33  2  0
  7  2  1  0
 40 35  1  0
 33 24  1  0
 32 27  1  0
 42 44  1  0
 43 45  1  0
 43 46  1  0
 19 20  1  0
M  CHG 1  11   1
M  CHG 1  16   1
M  END
> <minimizedAffinity>
-8.29869

> <CNNscore>
0.7368712425

> <CNNaffinity>
7.3155612946

> <CNN_VS>
5.3906269073

> <CNNaffinity_variance>
0.1629123539

$$$$



 46 49  0  0  0  0  0  0  0  0999 V2000
   -2.2278   18.7730   17.2907 C   0  0  0  0  0  0  0  0  0  0  0  0
   -4.2963   22.0167   16.7386 C   0  0  0  0  0  0  0  0  0  0  0  0
   -3.8898   23.4045   16.2347 C   0  0  0  0  0  0  0  0  0  0  0  0
   -3.4198   23.3747   14.7894 C   0  0  0  0  0  0  0  0  0  0  0  0
   -2.2393   22.4220   14.6643 C   0  0  0  0  0  0  0  0  0  0  0  0
   -2.5515   21.0330   15.2152 C   0  0  0  0  0  0  0  0  0  0  0  0
   -3.2032   21.0416   16.5384 N   0  0  0  0  0  0  0  0  0  0  0  0
   -3.2275   19.9336   17.4028 C   0  0  0  0  0  0  0  0  0  0  0  0
   -4.0683   19.9034   18.3149 O   0  0  0  0  0  0  0  0  0  0  0  0
   -5.6358   21.4304   16.1676 C   0  0  0  0  0  0  0  0  0  0  0  0
   -6.9872   21.7539   16.9567 N   0  0  0  0  0  0  0  0  0  0  0  0
   -6.4897   22.2855   18.3216 C   0  0  0  0  0  0  0  0  0  0  0  0
   -7.6950   22.8965   16.2575 C   0  0  0  0  0  0  0  0  0  0  0  0
   -7.7369   20.4551   17.1380 C   0  0  0  0  0  0  0  0  0  0  0  0
  -10.0032   20.5892   15.9427 C   0  0  0  0  0  0  0  0  0  0  0  0
   -8.6538   19.9057   16.0630 N   0  0  0  0  0  0  0  0  0  0  0  0
   -7.9966   19.8033   14.6877 C   0  0  0  0  0  0  0  0  0  0  0  0
   -8.9587   18.4365   16.4843 C   0  0  0  0  0  0  0  0  0  0  0  0
   -0.8179   19.1616   17.0384 N   0  0  0  0  0  0  0  0  0  0  0  0
   -0.8201   19.8496   16.2853 H   0  0  0  0  0  0  0  0  0  0  0  0
    0.0512   19.8278   18.3342 S   0  0  0  0  0  0  0  0  0  0  0  0
   -0.7060   20.9448   18.8653 O   0  0  0  0  0  0  0  0  0  0  0  0
    0.4230   18.7199   19.1803 O   0  0  0  0  0  0  0  0  0  0  0  0
    1.5125   20.4383   17.5438 C   0  0  0  0  0  0  0  0  0  0  0  0
    1.7065   20.1888   16.1842 C   0  0  0  0  0  0  0  0  0  0  0  0
    2.8616   20.6610   15.5600 C   0  0  0  0  0  0  0  0  0  0  0  0
    3.8348   21.3666   16.2875 C   0  0  0  0  0  0  0  0  0  0  0  0
    5.0056   21.8350   15.6709 C   0  0  0  0  0  0  0  0  0  0  0  0
    5.9717   22.5224   16.4059 C   0  0  0  0  0  0  0  0  0  0  0  0
    5.7783   22.7577   17.7641 C   0  0  0  0  0  0  0  0  0  0  0  0
    4.6196   22.3015   18.3923 C   0  0  0  0  0  0  0  0  0  0  0  0
    3.6396   21.6018   17.6699 C   0  0  0  0  0  0  0  0  0  0  0  0
    2.4735   21.1270   18.2908 C   0  0  0  0  0  0  0  0  0  0  0  0
   -2.3671   17.7688   18.4539 C   0  0  0  0  0  0  0  0  0  0  0  0
   -1.9174   16.3489   18.2125 C   0  0  0  0  0  0  0  0  0  0  0  0
   -1.2889   15.6101   19.2212 C   0  0  0  0  0  0  0  0  0  0  0  0
   -0.8876   14.2916   18.9872 C   0  0  0  0  0  0  0  0  0  0  0  0
   -1.1233   13.6885   17.7493 C   0  0  0  0  0  0  0  0  0  0  0  0
   -1.7486   14.4133   16.7328 C   0  0  0  0  0  0  0  0  0  0  0  0
   -2.1222   15.7450   16.9600 C   0  0  0  0  0  0  0  0  0  0  0  0
   -2.1255   13.7686   15.4424 C   0  0  0  0  0  0  0  0  0  0  0  0
   -2.9677   14.3006   14.6153 N   0  0  0  0  0  0  0  0  0  0  0  0
   -1.6194   12.5530   15.0878 N   0  0  0  0  0  0  0  0  0  0  0  0
   -3.3676   15.1776   14.8160 H   0  0  0  0  0  0  0  0  0  0  0  0
   -0.9743   12.0978   15.6760 H   0  0  0  0  0  0  0  0  0  0  0  0
   -1.8992   12.1306   14.2437 H   0  0  0  0  0  0  0  0  0  0  0  0
 15 16  1  0
 16 17  1  0
 16 18  1  0
 16 14  1  0
 14 11  1  0
 11 12  1  0
 11 13  1  0
 11 10  1  0
  2 10  1  0
  2  3  1  0
  3  4  1  0
  4  5  1  0
  5  6  1  0
  6  7  1  0
  7  8  1  0
  8  9  2  0
  8  1  1  0
  1 34  1  0
 34 35  1  0
 35 36  2  0
 36 37  1  0
 37 38  2  0
 38 39  1  0
 39 41  1  0
 41 42  2  0
 41 43  1  0
 39 40  2  0
  1 19  1  0
 19 21  1  0
 21 22  2  0
 21 23  2  0
 21 24  1  0
 24 25  2  0
 25 26  1  0
 26 27  2  0
 27 28  1  0
 28 29  2  0
 29 30  1  0
 30 31  2  0
 31 32  1  0
 32 33  2  0
  7  2  1  0
 40 35  1  0
 33 24  1  0
 32 27  1  0
 42 44  1  0
 43 45  1  0
 43 46  1  0
 19 20  1  0
M  CHG 1  11   1
M  CHG 1  16   1
M  END
> <minimizedAffinity>
-8.61923

> <CNNscore>
0.7333674431

> <CNNaffinity>
7.3377876282

> <CNN_VS>
5.3812947273

> <CNNaffinity_variance>
0.3093137145

$$$$



 46 49  0  0  0  0  0  0  0  0999 V2000
   -2.3143   18.7765   17.8220 C   0  0  0  0  0  0  0  0  0  0  0  0
   -5.6349   20.7861   18.0240 C   0  0  0  0  0  0  0  0  0  0  0  0
   -6.4423   21.2915   19.2231 C   0  0  0  0  0  0  0  0  0  0  0  0
   -5.6818   22.3324   20.0288 C   0  0  0  0  0  0  0  0  0  0  0  0
   -4.3705   21.7318   20.5151 C   0  0  0  0  0  0  0  0  0  0  0  0
   -3.5425   21.1423   19.3761 C   0  0  0  0  0  0  0  0  0  0  0  0
   -4.3109   20.2868   18.4523 N   0  0  0  0  0  0  0  0  0  0  0  0
   -3.7229   19.3438   17.5917 C   0  0  0  0  0  0  0  0  0  0  0  0
   -4.3774   18.9258   16.6238 O   0  0  0  0  0  0  0  0  0  0  0  0
   -5.4582   21.7876   16.8282 C   0  0  0  0  0  0  0  0  0  0  0  0
   -6.6118   21.8403   15.7237 N   0  0  0  0  0  0  0  0  0  0  0  0
   -7.4252   23.0979   16.1108 C   0  0  0  0  0  0  0  0  0  0  0  0
   -5.9784   22.1096   14.3739 C   0  0  0  0  0  0  0  0  0  0  0  0
   -7.4560   20.5974   15.8796 C   0  0  0  0  0  0  0  0  0  0  0  0
   -9.4335   21.5342   17.2193 C   0  0  0  0  0  0  0  0  0  0  0  0
   -8.9587   20.6709   16.0652 N   0  0  0  0  0  0  0  0  0  0  0  0
   -9.7183   21.0389   14.7918 C   0  0  0  0  0  0  0  0  0  0  0  0
   -9.4092   19.2189   16.4085 C   0  0  0  0  0  0  0  0  0  0  0  0
   -1.2546   19.7791   18.0944 N   0  0  0  0  0  0  0  0  0  0  0  0
   -0.9926   19.6887   19.0760 H   0  0  0  0  0  0  0  0  0  0  0  0
    0.1686   19.6785   17.1762 S   0  0  0  0  0  0  0  0  0  0  0  0
    0.3266   18.3083   16.7281 O   0  0  0  0  0  0  0  0  0  0  0  0
    0.1115   20.7632   16.2267 O   0  0  0  0  0  0  0  0  0  0  0  0
    1.4227   20.0493   18.3690 C   0  0  0  0  0  0  0  0  0  0  0  0
    1.4814   19.3065   19.5491 C   0  0  0  0  0  0  0  0  0  0  0  0
    2.4633   19.6021   20.4955 C   0  0  0  0  0  0  0  0  0  0  0  0
    3.3779   20.6468   20.2803 C   0  0  0  0  0  0  0  0  0  0  0  0
    4.3614   20.9594   21.2318 C   0  0  0  0  0  0  0  0  0  0  0  0
    5.2556   22.0078   21.0140 C   0  0  0  0  0  0  0  0  0  0  0  0
    5.1845   22.7528   19.8404 C   0  0  0  0  0  0  0  0  0  0  0  0
    4.2150   22.4543   18.8831 C   0  0  0  0  0  0  0  0  0  0  0  0
    3.3023   21.4071   19.0884 C   0  0  0  0  0  0  0  0  0  0  0  0
    2.3143   21.1020   18.1390 C   0  0  0  0  0  0  0  0  0  0  0  0
   -2.3115   17.6186   18.8418 C   0  0  0  0  0  0  0  0  0  0  0  0
   -1.7306   16.2975   18.4015 C   0  0  0  0  0  0  0  0  0  0  0  0
   -0.8023   15.6168   19.1972 C   0  0  0  0  0  0  0  0  0  0  0  0
   -0.2808   14.3880   18.7820 C   0  0  0  0  0  0  0  0  0  0  0  0
   -0.6915   13.8153   17.5758 C   0  0  0  0  0  0  0  0  0  0  0  0
   -1.6165   14.4831   16.7707 C   0  0  0  0  0  0  0  0  0  0  0  0
   -2.1145   15.7295   17.1746 C   0  0  0  0  0  0  0  0  0  0  0  0
   -2.1691   13.8503   15.5391 C   0  0  0  0  0  0  0  0  0  0  0  0
   -3.1796   14.3404   14.8948 N   0  0  0  0  0  0  0  0  0  0  0  0
   -1.6494   12.6883   15.0500 N   0  0  0  0  0  0  0  0  0  0  0  0
   -3.5984   15.1776   15.1995 H   0  0  0  0  0  0  0  0  0  0  0  0
   -0.8801   12.2666   15.4968 H   0  0  0  0  0  0  0  0  0  0  0  0
   -2.0434   12.2711   14.2501 H   0  0  0  0  0  0  0  0  0  0  0  0
 15 16  1  0
 16 17  1  0
 16 18  1  0
 16 14  1  0
 14 11  1  0
 11 12  1  0
 11 13  1  0
 11 10  1  0
  2 10  1  0
  2  3  1  0
  3  4  1  0
  4  5  1  0
  5  6  1  0
  6  7  1  0
  7  8  1  0
  8  9  2  0
  8  1  1  0
  1 34  1  0
 34 35  1  0
 35 36  2  0
 36 37  1  0
 37 38  2  0
 38 39  1  0
 39 41  1  0
 41 42  2  0
 41 43  1  0
 39 40  2  0
  1 19  1  0
 19 21  1  0
 21 22  2  0
 21 23  2  0
 21 24  1  0
 24 25  2  0
 25 26  1  0
 26 27  2  0
 27 28  1  0
 28 29  2  0
 29 30  1  0
 30 31  2  0
 31 32  1  0
 32 33  2  0
  7  2  1  0
 40 35  1  0
 33 24  1  0
 32 27  1  0
 42 44  1  0
 43 45  1  0
 43 46  1  0
 19 20  1  0
M  CHG 1  11   1
M  CHG 1  16   1
M  END
> <minimizedAffinity>
-8.43268

> <CNNscore>
0.7213842869

> <CNNaffinity>
7.4288249016

> <CNN_VS>
5.3590373993

> <CNNaffinity_variance>
0.1093460917

$$$$



 46 49  0  0  0  0  0  0  0  0999 V2000
   -1.1520   19.1766   18.7219 C   0  0  0  0  0  0  0  0  0  0  0  0
    2.4173   20.5188   17.9709 C   0  0  0  0  0  0  0  0  0  0  0  0
    3.2216   20.5863   16.6695 C   0  0  0  0  0  0  0  0  0  0  0  0
    2.5823   21.5127   15.6477 C   0  0  0  0  0  0  0  0  0  0  0  0
    1.1695   21.0321   15.3483 C   0  0  0  0  0  0  0  0  0  0  0  0
    0.3287   20.8730   16.6124 C   0  0  0  0  0  0  0  0  0  0  0  0
    1.0106   20.1511   17.7032 N   0  0  0  0  0  0  0  0  0  0  0  0
    0.3371   19.5484   18.7796 C   0  0  0  0  0  0  0  0  0  0  0  0
    0.9753   19.2743   19.8079 O   0  0  0  0  0  0  0  0  0  0  0  0
    2.4632   21.7921   18.8878 C   0  0  0  0  0  0  0  0  0  0  0  0
    3.6600   21.9099   19.9401 N   0  0  0  0  0  0  0  0  0  0  0  0
    3.8720   20.4516   20.4104 C   0  0  0  0  0  0  0  0  0  0  0  0
    4.9139   22.3336   19.2025 C   0  0  0  0  0  0  0  0  0  0  0  0
    3.1825   22.7698   21.0865 C   0  0  0  0  0  0  0  0  0  0  0  0
    3.7069   21.6435   23.3314 C   0  0  0  0  0  0  0  0  0  0  0  0
    3.9263   22.8261   22.4062 N   0  0  0  0  0  0  0  0  0  0  0  0
    5.4216   23.1018   22.2579 C   0  0  0  0  0  0  0  0  0  0  0  0
    3.3516   24.0646   23.1576 C   0  0  0  0  0  0  0  0  0  0  0  0
   -2.1025   20.2969   18.9311 N   0  0  0  0  0  0  0  0  0  0  0  0
   -1.5541   21.1228   19.1710 H   0  0  0  0  0  0  0  0  0  0  0  0
   -3.1122   20.7154   17.6336 S   0  0  0  0  0  0  0  0  0  0  0  0
   -2.9469   22.1309   17.3648 O   0  0  0  0  0  0  0  0  0  0  0  0
   -2.8688   19.7355   16.6029 O   0  0  0  0  0  0  0  0  0  0  0  0
   -4.7286   20.4337   18.2977 C   0  0  0  0  0  0  0  0  0  0  0  0
   -5.5496   19.4719   17.7070 C   0  0  0  0  0  0  0  0  0  0  0  0
   -6.8277   19.2535   18.2225 C   0  0  0  0  0  0  0  0  0  0  0  0
   -7.3001   20.0014   19.3142 C   0  0  0  0  0  0  0  0  0  0  0  0
   -8.5887   19.7972   19.8321 C   0  0  0  0  0  0  0  0  0  0  0  0
   -9.0525   20.5551   20.9076 C   0  0  0  0  0  0  0  0  0  0  0  0
   -8.2335   21.5211   21.4848 C   0  0  0  0  0  0  0  0  0  0  0  0
   -6.9493   21.7354   20.9845 C   0  0  0  0  0  0  0  0  0  0  0  0
   -6.4682   20.9870   19.8982 C   0  0  0  0  0  0  0  0  0  0  0  0
   -5.1822   21.1989   19.3768 C   0  0  0  0  0  0  0  0  0  0  0  0
   -1.4946   18.3328   17.4764 C   0  0  0  0  0  0  0  0  0  0  0  0
   -1.3945   16.8320   17.5965 C   0  0  0  0  0  0  0  0  0  0  0  0
   -0.9817   16.2300   18.7903 C   0  0  0  0  0  0  0  0  0  0  0  0
   -0.9043   14.8379   18.8910 C   0  0  0  0  0  0  0  0  0  0  0  0
   -1.2537   14.0288   17.8071 C   0  0  0  0  0  0  0  0  0  0  0  0
   -1.6667   14.6150   16.6090 C   0  0  0  0  0  0  0  0  0  0  0  0
   -1.7139   16.0117   16.5009 C   0  0  0  0  0  0  0  0  0  0  0  0
   -2.1620   13.7865   15.4728 C   0  0  0  0  0  0  0  0  0  0  0  0
   -1.6649   12.6260   15.1855 N   0  0  0  0  0  0  0  0  0  0  0  0
   -3.1517   14.2379   14.6504 N   0  0  0  0  0  0  0  0  0  0  0  0
   -0.9474   12.2463   15.7425 H   0  0  0  0  0  0  0  0  0  0  0  0
   -3.5693   15.1137   14.8175 H   0  0  0  0  0  0  0  0  0  0  0  0
   -3.4486   13.6881   13.8896 H   0  0  0  0  0  0  0  0  0  0  0  0
 15 16  1  0
 16 17  1  0
 16 18  1  0
 16 14  1  0
 14 11  1  0
 11 12  1  0
 11 13  1  0
 11 10  1  0
  2 10  1  0
  2  3  1  0
  3  4  1  0
  4  5  1  0
  5  6  1  0
  6  7  1  0
  7  8  1  0
  8  9  2  0
  8  1  1  0
  1 34  1  0
 34 35  1  0
 35 36  2  0
 36 37  1  0
 37 38  2  0
 38 39  1  0
 39 41  1  0
 41 42  2  0
 41 43  1  0
 39 40  2  0
  1 19  1  0
 19 21  1  0
 21 22  2  0
 21 23  2  0
 21 24  1  0
 24 25  2  0
 25 26  1  0
 26 27  2  0
 27 28  1  0
 28 29  2  0
 29 30  1  0
 30 31  2  0
 31 32  1  0
 32 33  2  0
  7  2  1  0
 40 35  1  0
 33 24  1  0
 32 27  1  0
 42 44  1  0
 43 45  1  0
 43 46  1  0
 19 20  1  0
M  CHG 1  11   1
M  CHG 1  16   1
M  END
> <minimizedAffinity>
-8.05333

> <CNNscore>
0.7069225907

> <CNNaffinity>
7.5941944122

> <CNN_VS>
5.3685073853

> <CNNaffinity_variance>
0.1801332086

$$$$
