


 27 29  0  0  0  0  0  0  0  0999 V2000
   56.1700   73.3136   19.8934 C   0  0  0  0  0  0  0  0  0  0  0  0
   56.3409   73.1542   18.5179 C   0  0  0  0  0  0  0  0  0  0  0  0
   55.4223   73.9294   17.8523 N   0  0  0  0  0  0  0  0  0  0  0  0
   54.6640   74.5923   18.7718 C   0  0  0  0  0  0  0  0  0  0  0  0
   55.1002   74.2324   20.0180 C   0  0  0  0  0  0  0  0  0  0  0  0
   54.5304   74.7505   21.1841 N   0  0  0  0  0  0  0  0  0  0  0  0
   53.4922   75.4893   20.9485 C   0  0  0  0  0  0  0  0  0  0  0  0
   52.8836   75.8159   19.7551 N   0  0  0  0  0  0  0  0  0  0  0  0
   53.5616   75.5379   18.5143 C   0  0  0  0  0  0  0  0  0  0  0  0
   52.7385   75.0161   17.4422 N   0  0  0  0  0  0  0  0  0  0  0  0
   55.3273   73.9954   16.8746 H   0  0  0  0  0  0  0  0  0  0  0  0
   51.9931   76.2357   19.7507 H   0  0  0  0  0  0  0  0  0  0  0  0
   52.3741   74.1012   17.7077 H   0  0  0  0  0  0  0  0  0  0  0  0
   53.3001   74.9258   16.5956 H   0  0  0  0  0  0  0  0  0  0  0  0
   57.2208   73.3218   22.2840 C   0  0  0  0  0  0  0  0  0  0  0  0
   57.5794   72.1290   23.1876 C   0  0  0  0  0  0  0  0  0  0  0  0
   58.9964   71.8714   23.1050 O   0  0  0  0  0  0  0  0  0  0  0  0
   56.8227   70.9297   22.5930 C   0  0  0  0  0  0  0  0  0  0  0  0
   56.2642   71.3708   21.2986 N   0  0  0  0  0  0  0  0  0  0  0  0
   56.9797   72.6128   20.9433 C   0  0  0  0  0  0  0  0  0  0  0  0
   59.2414   71.7046   22.1814 H   0  0  0  0  0  0  0  0  0  0  0  0
   55.2644   71.5519   21.3882 H   0  0  0  0  0  0  0  0  0  0  0  0
   59.0889   74.2034   21.0983 C   0  0  0  0  0  0  0  0  0  0  0  0
   58.3468   74.2210   22.3099 O   0  0  0  0  0  0  0  0  0  0  0  0
   55.7496   70.3383   23.5269 C   0  0  0  0  0  0  0  0  0  0  0  0
   55.4857   68.5248   23.4955 S   0  0  0  0  0  0  0  0  0  0  0  0
   56.9353   68.0166   22.5382 C   0  0  0  0  0  0  0  0  0  0  0  0
 23 24  1  0
 15 24  1  0
 15 16  1  0
 16 17  1  0
 16 18  1  0
 18 25  1  0
 25 26  1  0
 26 27  1  0
 18 19  1  0
 19 20  1  0
 20  1  1  0
  1  2  2  0
  2  3  1  0
  3  4  1  0
  4  5  2  0
  5  6  1  0
  6  7  2  0
  7  8  1  0
  8  9  1  0
  9 10  1  0
 20 15  1  0
  5  1  1  0
  9  4  1  0
 17 21  1  0
 19 22  1  0
  3 11  1  0
  8 12  1  0
 10 13  1  0
 10 14  1  0
M  END
> <minimizedAffinity>
-8.40455

> <CNNscore>
0.9662083983

> <CNNaffinity>
8.5191345215

> <CNN_VS>
8.2312593460

> <CNNaffinity_variance>
1.3897866011

$$$$



 27 29  0  0  0  0  0  0  0  0999 V2000
   55.6320   73.2541   20.5491 C   0  0  0  0  0  0  0  0  0  0  0  0
   56.0586   72.9389   19.2587 C   0  0  0  0  0  0  0  0  0  0  0  0
   55.4573   73.7874   18.3607 N   0  0  0  0  0  0  0  0  0  0  0  0
   54.6541   74.6498   19.0469 C   0  0  0  0  0  0  0  0  0  0  0  0
   54.7440   74.3433   20.3776 C   0  0  0  0  0  0  0  0  0  0  0  0
   54.0434   75.0560   21.3543 N   0  0  0  0  0  0  0  0  0  0  0  0
   53.2297   75.9291   20.8497 C   0  0  0  0  0  0  0  0  0  0  0  0
   52.9569   76.2362   19.5334 N   0  0  0  0  0  0  0  0  0  0  0  0
   53.8205   75.7343   18.4949 C   0  0  0  0  0  0  0  0  0  0  0  0
   53.1628   75.2550   17.2962 N   0  0  0  0  0  0  0  0  0  0  0  0
   55.5851   73.7748   17.3846 H   0  0  0  0  0  0  0  0  0  0  0  0
   52.1784   76.7938   19.3050 H   0  0  0  0  0  0  0  0  0  0  0  0
   52.5913   74.4415   17.5242 H   0  0  0  0  0  0  0  0  0  0  0  0
   53.8652   74.9939   16.6042 H   0  0  0  0  0  0  0  0  0  0  0  0
   56.5131   71.0700   21.6772 C   0  0  0  0  0  0  0  0  0  0  0  0
   57.3272   70.9107   22.9733 C   0  0  0  0  0  0  0  0  0  0  0  0
   56.4484   70.5214   24.0489 O   0  0  0  0  0  0  0  0  0  0  0  0
   57.8871   72.3111   23.2735 C   0  0  0  0  0  0  0  0  0  0  0  0
   57.2334   73.2470   22.3362 N   0  0  0  0  0  0  0  0  0  0  0  0
   56.0607   72.5330   21.7922 C   0  0  0  0  0  0  0  0  0  0  0  0
   55.7464   71.1834   24.1486 H   0  0  0  0  0  0  0  0  0  0  0  0
   57.8742   73.4992   21.5838 H   0  0  0  0  0  0  0  0  0  0  0  0
   55.9387   68.7686   21.8930 C   0  0  0  0  0  0  0  0  0  0  0  0
   55.4540   70.0937   21.7246 O   0  0  0  0  0  0  0  0  0  0  0  0
   59.4242   72.3984   23.2173 C   0  0  0  0  0  0  0  0  0  0  0  0
   60.1859   73.2593   21.7898 S   0  0  0  0  0  0  0  0  0  0  0  0
   59.0545   74.6634   21.6339 C   0  0  0  0  0  0  0  0  0  0  0  0
 23 24  1  0
 15 24  1  0
 15 16  1  0
 16 17  1  0
 16 18  1  0
 18 25  1  0
 25 26  1  0
 26 27  1  0
 18 19  1  0
 19 20  1  0
 20  1  1  0
  1  2  2  0
  2  3  1  0
  3  4  1  0
  4  5  2  0
  5  6  1  0
  6  7  2  0
  7  8  1  0
  8  9  1  0
  9 10  1  0
 20 15  1  0
  5  1  1  0
  9  4  1  0
 17 21  1  0
 19 22  1  0
  3 11  1  0
  8 12  1  0
 10 13  1  0
 10 14  1  0
M  END
> <minimizedAffinity>
-5.97380

> <CNNscore>
0.7054557204

> <CNNaffinity>
7.9310002327

> <CNN_VS>
5.5949692726

> <CNNaffinity_variance>
1.1280852556

$$$$



 27 29  0  0  0  0  0  0  0  0999 V2000
   45.1127   80.1104   27.2133 C   0  0  0  0  0  0  0  0  0  0  0  0
   45.4642   79.0494   28.0483 C   0  0  0  0  0  0  0  0  0  0  0  0
   45.5602   79.5011   29.3423 N   0  0  0  0  0  0  0  0  0  0  0  0
   45.2712   80.8338   29.3610 C   0  0  0  0  0  0  0  0  0  0  0  0
   44.9975   81.2250   28.0785 C   0  0  0  0  0  0  0  0  0  0  0  0
   44.6516   82.5409   27.7599 N   0  0  0  0  0  0  0  0  0  0  0  0
   44.7431   83.3422   28.7742 C   0  0  0  0  0  0  0  0  0  0  0  0
   45.1310   83.0934   30.0738 N   0  0  0  0  0  0  0  0  0  0  0  0
   45.2455   81.7317   30.5309 C   0  0  0  0  0  0  0  0  0  0  0  0
   46.3873   81.4366   31.3725 N   0  0  0  0  0  0  0  0  0  0  0  0
   45.7979   78.9539   30.1255 H   0  0  0  0  0  0  0  0  0  0  0  0
   45.3281   83.8401   30.6844 H   0  0  0  0  0  0  0  0  0  0  0  0
   47.2462   81.5658   30.8377 H   0  0  0  0  0  0  0  0  0  0  0  0
   46.3304   80.4711   31.6964 H   0  0  0  0  0  0  0  0  0  0  0  0
   45.9925   80.6311   24.8104 C   0  0  0  0  0  0  0  0  0  0  0  0
   45.7304   79.8715   23.4981 C   0  0  0  0  0  0  0  0  0  0  0  0
   44.7148   80.5588   22.7386 O   0  0  0  0  0  0  0  0  0  0  0  0
   45.1842   78.4997   23.9274 C   0  0  0  0  0  0  0  0  0  0  0  0
   44.9317   78.5716   25.3810 N   0  0  0  0  0  0  0  0  0  0  0  0
   44.9313   80.0070   25.7283 C   0  0  0  0  0  0  0  0  0  0  0  0
   43.9085   80.6359   23.2724 H   0  0  0  0  0  0  0  0  0  0  0  0
   45.6676   78.0843   25.8923 H   0  0  0  0  0  0  0  0  0  0  0  0
   46.3591   82.4114   23.2712 C   0  0  0  0  0  0  0  0  0  0  0  0
   45.8123   82.0326   24.5268 O   0  0  0  0  0  0  0  0  0  0  0  0
   46.0913   77.3146   23.5448 C   0  0  0  0  0  0  0  0  0  0  0  0
   45.3734   75.6291   23.5969 S   0  0  0  0  0  0  0  0  0  0  0  0
   45.8323   75.0449   21.9464 C   0  0  0  0  0  0  0  0  0  0  0  0
 23 24  1  0
 15 24  1  0
 15 16  1  0
 16 17  1  0
 16 18  1  0
 18 25  1  0
 25 26  1  0
 26 27  1  0
 18 19  1  0
 19 20  1  0
 20  1  1  0
  1  2  2  0
  2  3  1  0
  3  4  1  0
  4  5  2  0
  5  6  1  0
  6  7  2  0
  7  8  1  0
  8  9  1  0
  9 10  1  0
 20 15  1  0
  5  1  1  0
  9  4  1  0
 17 21  1  0
 19 22  1  0
  3 11  1  0
  8 12  1  0
 10 13  1  0
 10 14  1  0
M  END
> <minimizedAffinity>
-6.31598

> <CNNscore>
0.3563590348

> <CNNaffinity>
4.4282364845

> <CNN_VS>
1.5780420303

> <CNNaffinity_variance>
1.5690120459

$$$$



 27 29  0  0  0  0  0  0  0  0999 V2000
   56.8298   70.1321   22.3087 C   0  0  0  0  0  0  0  0  0  0  0  0
   55.8568   70.5679   21.4087 C   0  0  0  0  0  0  0  0  0  0  0  0
   56.1421   71.8537   21.0173 N   0  0  0  0  0  0  0  0  0  0  0  0
   57.2853   72.2558   21.6429 C   0  0  0  0  0  0  0  0  0  0  0  0
   57.7196   71.2262   22.4329 C   0  0  0  0  0  0  0  0  0  0  0  0
   58.8821   71.3184   23.2028 N   0  0  0  0  0  0  0  0  0  0  0  0
   59.4087   72.5021   23.1746 C   0  0  0  0  0  0  0  0  0  0  0  0
   58.9941   73.6463   22.5264 N   0  0  0  0  0  0  0  0  0  0  0  0
   57.9676   73.5577   21.5190 C   0  0  0  0  0  0  0  0  0  0  0  0
   56.9722   74.6105   21.5302 N   0  0  0  0  0  0  0  0  0  0  0  0
   55.6100   72.3946   20.3899 H   0  0  0  0  0  0  0  0  0  0  0  0
   59.3962   74.5167   22.7500 H   0  0  0  0  0  0  0  0  0  0  0  0
   56.4383   74.5644   22.3981 H   0  0  0  0  0  0  0  0  0  0  0  0
   56.3424   74.4913   20.7368 H   0  0  0  0  0  0  0  0  0  0  0  0
   55.5330   68.2289   23.5395 C   0  0  0  0  0  0  0  0  0  0  0  0
   55.8543   66.7255   23.6066 C   0  0  0  0  0  0  0  0  0  0  0  0
   56.4938   66.4256   24.8644 O   0  0  0  0  0  0  0  0  0  0  0  0
   56.8580   66.4756   22.4688 C   0  0  0  0  0  0  0  0  0  0  0  0
   57.2566   67.7986   21.9469 N   0  0  0  0  0  0  0  0  0  0  0  0
   56.8449   68.7845   22.9664 C   0  0  0  0  0  0  0  0  0  0  0  0
   57.2946   66.9652   24.9567 H   0  0  0  0  0  0  0  0  0  0  0  0
   56.7849   67.9867   21.0623 H   0  0  0  0  0  0  0  0  0  0  0  0
   55.1053   70.0628   24.9978 C   0  0  0  0  0  0  0  0  0  0  0  0
   55.2209   68.6513   24.8816 O   0  0  0  0  0  0  0  0  0  0  0  0
   56.3338   65.5396   21.3630 C   0  0  0  0  0  0  0  0  0  0  0  0
   56.7438   63.7569   21.4782 S   0  0  0  0  0  0  0  0  0  0  0  0
   55.6132   63.2631   22.8025 C   0  0  0  0  0  0  0  0  0  0  0  0
 23 24  1  0
 15 24  1  0
 15 16  1  0
 16 17  1  0
 16 18  1  0
 18 25  1  0
 25 26  1  0
 26 27  1  0
 18 19  1  0
 19 20  1  0
 20  1  1  0
  1  2  2  0
  2  3  1  0
  3  4  1  0
  4  5  2  0
  5  6  1  0
  6  7  2  0
  7  8  1  0
  8  9  1  0
  9 10  1  0
 20 15  1  0
  5  1  1  0
  9  4  1  0
 17 21  1  0
 19 22  1  0
  3 11  1  0
  8 12  1  0
 10 13  1  0
 10 14  1  0
M  END
> <minimizedAffinity>
-4.67034

> <CNNscore>
0.3167744875

> <CNNaffinity>
6.7727036476

> <CNN_VS>
2.1454198360

> <CNNaffinity_variance>
0.2412129194

$$$$



 27 29  0  0  0  0  0  0  0  0999 V2000
   56.8365   63.5638   21.0886 C   0  0  0  0  0  0  0  0  0  0  0  0
   55.7654   62.9049   20.4845 C   0  0  0  0  0  0  0  0  0  0  0  0
   56.2176   62.2116   19.3878 N   0  0  0  0  0  0  0  0  0  0  0  0
   57.5629   62.4048   19.2747 C   0  0  0  0  0  0  0  0  0  0  0  0
   57.9598   63.2238   20.2968 C   0  0  0  0  0  0  0  0  0  0  0  0
   59.2927   63.6067   20.4686 N   0  0  0  0  0  0  0  0  0  0  0  0
   60.0570   63.2074   19.5013 C   0  0  0  0  0  0  0  0  0  0  0  0
   59.7518   62.4945   18.3611 N   0  0  0  0  0  0  0  0  0  0  0  0
   58.4680   61.8495   18.2508 C   0  0  0  0  0  0  0  0  0  0  0  0
   57.8208   61.9367   16.9575 N   0  0  0  0  0  0  0  0  0  0  0  0
   55.6630   61.6662   18.7842 H   0  0  0  0  0  0  0  0  0  0  0  0
   60.4058   62.4267   17.6284 H   0  0  0  0  0  0  0  0  0  0  0  0
   57.5997   62.9112   16.7530 H   0  0  0  0  0  0  0  0  0  0  0  0
   56.9608   61.3883   16.9700 H   0  0  0  0  0  0  0  0  0  0  0  0
   58.0185   64.8686   23.0171 C   0  0  0  0  0  0  0  0  0  0  0  0
   57.5244   66.0990   23.7980 C   0  0  0  0  0  0  0  0  0  0  0  0
   56.9970   65.6798   25.0735 O   0  0  0  0  0  0  0  0  0  0  0  0
   56.3770   66.6790   22.9543 C   0  0  0  0  0  0  0  0  0  0  0  0
   56.0884   65.6993   21.8872 N   0  0  0  0  0  0  0  0  0  0  0  0
   56.7293   64.4358   22.3039 C   0  0  0  0  0  0  0  0  0  0  0  0
   56.2839   65.0373   24.9332 H   0  0  0  0  0  0  0  0  0  0  0  0
   56.4781   66.0177   21.0000 H   0  0  0  0  0  0  0  0  0  0  0  0
   59.9310   64.0511   24.1777 C   0  0  0  0  0  0  0  0  0  0  0  0
   58.5278   63.9328   23.9877 O   0  0  0  0  0  0  0  0  0  0  0  0
   56.6556   68.0892   22.3999 C   0  0  0  0  0  0  0  0  0  0  0  0
   55.5618   69.4576   22.9386 S   0  0  0  0  0  0  0  0  0  0  0  0
   56.3002   70.8276   22.0146 C   0  0  0  0  0  0  0  0  0  0  0  0
 23 24  1  0
 15 24  1  0
 15 16  1  0
 16 17  1  0
 16 18  1  0
 18 25  1  0
 25 26  1  0
 26 27  1  0
 18 19  1  0
 19 20  1  0
 20  1  1  0
  1  2  2  0
  2  3  1  0
  3  4  1  0
  4  5  2  0
  5  6  1  0
  6  7  2  0
  7  8  1  0
  8  9  1  0
  9 10  1  0
 20 15  1  0
  5  1  1  0
  9  4  1  0
 17 21  1  0
 19 22  1  0
  3 11  1  0
  8 12  1  0
 10 13  1  0
 10 14  1  0
M  END
> <minimizedAffinity>
-4.90802

> <CNNscore>
0.2142446190

> <CNNaffinity>
5.0120868683

> <CNN_VS>
1.0738126040

> <CNNaffinity_variance>
0.0652113929

$$$$



 27 29  0  0  0  0  0  0  0  0999 V2000
   59.1608   63.7691   23.0514 C   0  0  0  0  0  0  0  0  0  0  0  0
   58.9115   64.4652   24.2346 C   0  0  0  0  0  0  0  0  0  0  0  0
   60.0572   64.4997   24.9923 N   0  0  0  0  0  0  0  0  0  0  0  0
   61.0450   63.8439   24.3185 C   0  0  0  0  0  0  0  0  0  0  0  0
   60.5224   63.3911   23.1375 C   0  0  0  0  0  0  0  0  0  0  0  0
   61.2887   62.6832   22.2077 N   0  0  0  0  0  0  0  0  0  0  0  0
   62.4777   62.4091   22.6439 C   0  0  0  0  0  0  0  0  0  0  0  0
   63.0699   62.6952   23.8559 N   0  0  0  0  0  0  0  0  0  0  0  0
   62.4410   63.6365   24.7473 C   0  0  0  0  0  0  0  0  0  0  0  0
   62.4514   63.2866   26.1532 N   0  0  0  0  0  0  0  0  0  0  0  0
   60.1495   64.9266   25.8746 H   0  0  0  0  0  0  0  0  0  0  0  0
   63.9155   62.2598   24.1101 H   0  0  0  0  0  0  0  0  0  0  0  0
   61.9006   62.4403   26.2970 H   0  0  0  0  0  0  0  0  0  0  0  0
   62.0494   64.0504   26.6967 H   0  0  0  0  0  0  0  0  0  0  0  0
   57.1090   64.6011   21.6671 C   0  0  0  0  0  0  0  0  0  0  0  0
   56.6627   64.1868   20.2540 C   0  0  0  0  0  0  0  0  0  0  0  0
   55.5834   63.2344   20.3498 O   0  0  0  0  0  0  0  0  0  0  0  0
   57.8843   63.4897   19.6325 C   0  0  0  0  0  0  0  0  0  0  0  0
   58.8759   63.3128   20.7129 N   0  0  0  0  0  0  0  0  0  0  0  0
   58.1438   63.5106   21.9801 C   0  0  0  0  0  0  0  0  0  0  0  0
   55.8730   62.4689   20.8704 H   0  0  0  0  0  0  0  0  0  0  0  0
   59.6222   64.0024   20.6243 H   0  0  0  0  0  0  0  0  0  0  0  0
   55.7769   65.7878   23.2452 C   0  0  0  0  0  0  0  0  0  0  0  0
   55.9321   64.5886   22.4990 O   0  0  0  0  0  0  0  0  0  0  0  0
   58.4698   64.2206   18.4092 C   0  0  0  0  0  0  0  0  0  0  0  0
   59.3782   63.2266   17.1658 S   0  0  0  0  0  0  0  0  0  0  0  0
   58.2814   61.7911   17.0543 C   0  0  0  0  0  0  0  0  0  0  0  0
 23 24  1  0
 15 24  1  0
 15 16  1  0
 16 17  1  0
 16 18  1  0
 18 25  1  0
 25 26  1  0
 26 27  1  0
 18 19  1  0
 19 20  1  0
 20  1  1  0
  1  2  2  0
  2  3  1  0
  3  4  1  0
  4  5  2  0
  5  6  1  0
  6  7  2  0
  7  8  1  0
  8  9  1  0
  9 10  1  0
 20 15  1  0
  5  1  1  0
  9  4  1  0
 17 21  1  0
 19 22  1  0
  3 11  1  0
  8 12  1  0
 10 13  1  0
 10 14  1  0
M  END
> <minimizedAffinity>
-3.81645

> <CNNscore>
0.2061410099

> <CNNaffinity>
3.9400234222

> <CNN_VS>
0.8122004271

> <CNNaffinity_variance>
0.4888245165

$$$$



 27 29  0  0  0  0  0  0  0  0999 V2000
   59.1983   64.7892   25.2909 C   0  0  0  0  0  0  0  0  0  0  0  0
   60.1186   65.8303   25.1651 C   0  0  0  0  0  0  0  0  0  0  0  0
   60.7931   65.9873   26.3517 N   0  0  0  0  0  0  0  0  0  0  0  0
   60.3305   65.0628   27.2413 C   0  0  0  0  0  0  0  0  0  0  0  0
   59.3607   64.3251   26.6185 C   0  0  0  0  0  0  0  0  0  0  0  0
   58.6913   63.2812   27.2626 N   0  0  0  0  0  0  0  0  0  0  0  0
   59.0025   63.1854   28.5169 C   0  0  0  0  0  0  0  0  0  0  0  0
   59.8600   63.9468   29.2826 N   0  0  0  0  0  0  0  0  0  0  0  0
   60.7687   64.8584   28.6349 C   0  0  0  0  0  0  0  0  0  0  0  0
   60.9329   66.1511   29.2681 N   0  0  0  0  0  0  0  0  0  0  0  0
   61.4936   66.6557   26.5301 H   0  0  0  0  0  0  0  0  0  0  0  0
   59.8514   63.8683   30.2639 H   0  0  0  0  0  0  0  0  0  0  0  0
   60.0486   66.6587   29.2391 H   0  0  0  0  0  0  0  0  0  0  0  0
   61.6474   66.6842   28.7725 H   0  0  0  0  0  0  0  0  0  0  0  0
   57.4098   65.3842   23.4836 C   0  0  0  0  0  0  0  0  0  0  0  0
   57.0557   64.6329   22.1883 C   0  0  0  0  0  0  0  0  0  0  0  0
   55.8629   63.8490   22.3972 O   0  0  0  0  0  0  0  0  0  0  0  0
   58.2366   63.6803   21.9380 C   0  0  0  0  0  0  0  0  0  0  0  0
   59.0885   63.7233   23.1438 N   0  0  0  0  0  0  0  0  0  0  0  0
   58.2664   64.3351   24.2072 C   0  0  0  0  0  0  0  0  0  0  0  0
   56.0034   63.2371   23.1366 H   0  0  0  0  0  0  0  0  0  0  0  0
   59.9194   64.2887   22.9698 H   0  0  0  0  0  0  0  0  0  0  0  0
   55.7662   67.0576   23.8976 C   0  0  0  0  0  0  0  0  0  0  0  0
   56.1650   65.7138   24.1309 O   0  0  0  0  0  0  0  0  0  0  0  0
   59.0244   63.9815   20.6488 C   0  0  0  0  0  0  0  0  0  0  0  0
   58.0759   64.2604   19.1055 S   0  0  0  0  0  0  0  0  0  0  0  0
   58.8544   63.0259   18.0351 C   0  0  0  0  0  0  0  0  0  0  0  0
 23 24  1  0
 15 24  1  0
 15 16  1  0
 16 17  1  0
 16 18  1  0
 18 25  1  0
 25 26  1  0
 26 27  1  0
 18 19  1  0
 19 20  1  0
 20  1  1  0
  1  2  2  0
  2  3  1  0
  3  4  1  0
  4  5  2  0
  5  6  1  0
  6  7  2  0
  7  8  1  0
  8  9  1  0
  9 10  1  0
 20 15  1  0
  5  1  1  0
  9  4  1  0
 17 21  1  0
 19 22  1  0
  3 11  1  0
  8 12  1  0
 10 13  1  0
 10 14  1  0
M  END
> <minimizedAffinity>
-4.38380

> <CNNscore>
0.1532613635

> <CNNaffinity>
2.8934319019

> <CNN_VS>
0.4434513152

> <CNNaffinity_variance>
1.7849181890

$$$$



 27 29  0  0  0  0  0  0  0  0999 V2000
   61.1928   63.1257   20.8942 C   0  0  0  0  0  0  0  0  0  0  0  0
   59.9015   63.6019   20.6655 C   0  0  0  0  0  0  0  0  0  0  0  0
   59.5651   63.3913   19.3500 N   0  0  0  0  0  0  0  0  0  0  0  0
   60.6128   62.7821   18.7247 C   0  0  0  0  0  0  0  0  0  0  0  0
   61.6126   62.6120   19.6435 C   0  0  0  0  0  0  0  0  0  0  0  0
   62.8269   62.0021   19.3174 N   0  0  0  0  0  0  0  0  0  0  0  0
   62.9327   61.7421   18.0523 C   0  0  0  0  0  0  0  0  0  0  0  0
   62.0548   61.9836   17.0168 N   0  0  0  0  0  0  0  0  0  0  0  0
   60.6965   62.3629   17.3129 C   0  0  0  0  0  0  0  0  0  0  0  0
   60.1309   63.4054   16.4810 N   0  0  0  0  0  0  0  0  0  0  0  0
   58.7102   63.6390   18.9291 H   0  0  0  0  0  0  0  0  0  0  0  0
   62.3536   61.8977   16.0827 H   0  0  0  0  0  0  0  0  0  0  0  0
   60.6432   64.2748   16.6299 H   0  0  0  0  0  0  0  0  0  0  0  0
   59.1504   63.5422   16.7269 H   0  0  0  0  0  0  0  0  0  0  0  0
   63.0256   64.2373   22.3854 C   0  0  0  0  0  0  0  0  0  0  0  0
   63.0969   64.3354   23.9194 C   0  0  0  0  0  0  0  0  0  0  0  0
   63.9991   63.3297   24.4248 O   0  0  0  0  0  0  0  0  0  0  0  0
   61.6751   64.0171   24.4112 C   0  0  0  0  0  0  0  0  0  0  0  0
   60.9113   63.5377   23.2413 N   0  0  0  0  0  0  0  0  0  0  0  0
   61.9106   63.1963   22.2089 C   0  0  0  0  0  0  0  0  0  0  0  0
   63.6995   62.4529   24.1377 H   0  0  0  0  0  0  0  0  0  0  0  0
   60.2880   64.2701   22.9016 H   0  0  0  0  0  0  0  0  0  0  0  0
   64.5032   62.4148   21.9749 C   0  0  0  0  0  0  0  0  0  0  0  0
   64.3295   63.8244   21.9307 O   0  0  0  0  0  0  0  0  0  0  0  0
   60.9806   65.1910   25.1275 C   0  0  0  0  0  0  0  0  0  0  0  0
   59.3733   64.8696   25.9475 S   0  0  0  0  0  0  0  0  0  0  0  0
   58.2478   65.5403   24.6988 C   0  0  0  0  0  0  0  0  0  0  0  0
 23 24  1  0
 15 24  1  0
 15 16  1  0
 16 17  1  0
 16 18  1  0
 18 25  1  0
 25 26  1  0
 26 27  1  0
 18 19  1  0
 19 20  1  0
 20  1  1  0
  1  2  2  0
  2  3  1  0
  3  4  1  0
  4  5  2  0
  5  6  1  0
  6  7  2  0
  7  8  1  0
  8  9  1  0
  9 10  1  0
 20 15  1  0
  5  1  1  0
  9  4  1  0
 17 21  1  0
 19 22  1  0
  3 11  1  0
  8 12  1  0
 10 13  1  0
 10 14  1  0
M  END
> <minimizedAffinity>
-3.95680

> <CNNscore>
0.1516573876

> <CNNaffinity>
3.4840564728

> <CNN_VS>
0.5283828974

> <CNNaffinity_variance>
1.1024554968

$$$$



 27 29  0  0  0  0  0  0  0  0999 V2000
   63.6935   66.7908   30.3215 C   0  0  0  0  0  0  0  0  0  0  0  0
   65.0227   66.9613   30.7097 C   0  0  0  0  0  0  0  0  0  0  0  0
   65.0754   67.8002   31.7966 N   0  0  0  0  0  0  0  0  0  0  0  0
   63.8042   68.1709   32.1227 C   0  0  0  0  0  0  0  0  0  0  0  0
   62.9488   67.5703   31.2393 C   0  0  0  0  0  0  0  0  0  0  0  0
   61.5639   67.7420   31.3109 N   0  0  0  0  0  0  0  0  0  0  0  0
   61.2127   68.6101   32.2066 C   0  0  0  0  0  0  0  0  0  0  0  0
   61.9834   69.3706   33.0605 N   0  0  0  0  0  0  0  0  0  0  0  0
   63.3805   69.0576   33.2228 C   0  0  0  0  0  0  0  0  0  0  0  0
   64.2832   70.1890   33.2858 N   0  0  0  0  0  0  0  0  0  0  0  0
   65.8944   68.0860   32.2623 H   0  0  0  0  0  0  0  0  0  0  0  0
   61.5823   70.1213   33.5552 H   0  0  0  0  0  0  0  0  0  0  0  0
   64.2676   70.6864   32.3954 H   0  0  0  0  0  0  0  0  0  0  0  0
   65.2297   69.8588   33.4741 H   0  0  0  0  0  0  0  0  0  0  0  0
   63.6240   64.4688   29.1290 C   0  0  0  0  0  0  0  0  0  0  0  0
   62.5758   63.9160   28.1474 C   0  0  0  0  0  0  0  0  0  0  0  0
   63.0684   64.0394   26.7972 O   0  0  0  0  0  0  0  0  0  0  0  0
   61.3481   64.8271   28.3117 C   0  0  0  0  0  0  0  0  0  0  0  0
   61.7645   65.9634   29.1586 N   0  0  0  0  0  0  0  0  0  0  0  0
   63.2413   65.9557   29.1610 C   0  0  0  0  0  0  0  0  0  0  0  0
   63.2742   64.9690   26.6118 H   0  0  0  0  0  0  0  0  0  0  0  0
   61.4087   65.8464   30.1074 H   0  0  0  0  0  0  0  0  0  0  0  0
   65.7577   63.4648   29.4635 C   0  0  0  0  0  0  0  0  0  0  0  0
   64.9190   64.1795   28.5664 O   0  0  0  0  0  0  0  0  0  0  0  0
   60.1013   64.1083   28.8616 C   0  0  0  0  0  0  0  0  0  0  0  0
   60.0842   62.2757   28.8392 S   0  0  0  0  0  0  0  0  0  0  0  0
   58.3302   61.9855   28.4997 C   0  0  0  0  0  0  0  0  0  0  0  0
 23 24  1  0
 15 24  1  0
 15 16  1  0
 16 17  1  0
 16 18  1  0
 18 25  1  0
 25 26  1  0
 26 27  1  0
 18 19  1  0
 19 20  1  0
 20  1  1  0
  1  2  2  0
  2  3  1  0
  3  4  1  0
  4  5  2  0
  5  6  1  0
  6  7  2  0
  7  8  1  0
  8  9  1  0
  9 10  1  0
 20 15  1  0
  5  1  1  0
  9  4  1  0
 17 21  1  0
 19 22  1  0
  3 11  1  0
  8 12  1  0
 10 13  1  0
 10 14  1  0
M  END
> <minimizedAffinity>
-4.71101

> <CNNscore>
0.1491276324

> <CNNaffinity>
4.8281655312

> <CNN_VS>
0.7200129032

> <CNNaffinity_variance>
0.0999474600

$$$$
