


 31 34  0  0  0  0  0  0  0  0999 V2000
   17.0355   -2.3544    9.8843 C   0  0  0  0  0  0  0  0  0  0  0  0
   16.3798   -1.2550    9.4037 O   0  0  0  0  0  0  0  0  0  0  0  0
   15.1179   -1.2648    9.9062 C   0  0  0  0  0  0  0  0  0  0  0  0
   14.2225   -0.3147    9.6109 N   0  0  0  0  0  0  0  0  0  0  0  0
   13.0594   -0.5391   10.2265 C   0  0  0  0  0  0  0  0  0  0  0  0
   12.7507   -1.5451   11.0653 N   0  0  0  0  0  0  0  0  0  0  0  0
   13.6837   -2.4856   11.3497 C   0  0  0  0  0  0  0  0  0  0  0  0
   14.9413   -2.3617   10.7345 C   0  0  0  0  0  0  0  0  0  0  0  0
   16.1849   -3.0707   10.7165 C   0  0  0  0  0  0  0  0  0  0  0  0
   21.0681   -2.7351    8.4674 C   0  0  0  0  0  0  0  0  0  0  0  0
   20.2840   -1.6491    8.0852 C   0  0  0  0  0  0  0  0  0  0  0  0
   18.9670   -1.5342    8.5500 C   0  0  0  0  0  0  0  0  0  0  0  0
   18.4102   -2.4969    9.4057 C   0  0  0  0  0  0  0  0  0  0  0  0
   19.2053   -3.5877    9.7749 C   0  0  0  0  0  0  0  0  0  0  0  0
   20.5211   -3.7015    9.3122 C   0  0  0  0  0  0  0  0  0  0  0  0
   22.5583   -3.7783    6.9385 C   0  0  0  0  0  0  0  0  0  0  0  0
   22.3612   -2.9686    8.0908 O   0  0  0  0  0  0  0  0  0  0  0  0
   16.5522   -4.2817   11.4235 C   0  0  0  0  0  0  0  0  0  0  0  0
   17.0315   -4.2217   12.7346 C   0  0  0  0  0  0  0  0  0  0  0  0
   17.3663   -5.3983   13.4092 C   0  0  0  0  0  0  0  0  0  0  0  0
   17.2244   -6.6427   12.7895 C   0  0  0  0  0  0  0  0  0  0  0  0
   16.7426   -6.7028   11.4818 C   0  0  0  0  0  0  0  0  0  0  0  0
   16.4079   -5.5266   10.8012 C   0  0  0  0  0  0  0  0  0  0  0  0
   17.5852   -7.7099   13.5640 O   0  0  0  0  0  0  0  0  0  0  0  0
   16.8847   -7.8824   14.7898 C   0  0  0  0  0  0  0  0  0  0  0  0
   13.3731   -3.5257   12.2176 N   0  0  0  0  0  0  0  0  0  0  0  0
   14.0725   -3.9538   12.7623 H   0  0  0  0  0  0  0  0  0  0  0  0
   11.9856   -3.9676   12.3016 C   0  0  0  0  0  0  0  0  0  0  0  0
   11.3282   -3.5937   13.6339 C   0  0  0  0  0  0  0  0  0  0  0  0
   11.4941   -2.2015   13.8908 O   0  0  0  0  0  0  0  0  0  0  0  0
   12.4399   -1.9920   13.9387 H   0  0  0  0  0  0  0  0  0  0  0  0
 16 17  1  0
 17 10  1  0
 10 11  2  0
 11 12  1  0
 12 13  2  0
 13  1  1  0
  1  2  1  0
  2  3  1  0
  3  4  2  0
  4  5  1  0
  5  6  2  0
  6  7  1  0
  7 26  1  0
 26 28  1  0
 28 29  1  0
 29 30  1  0
  7  8  2  0
  8  9  1  0
  9 18  1  0
 18 19  2  0
 19 20  1  0
 20 21  2  0
 21 24  1  0
 24 25  1  0
 21 22  1  0
 22 23  2  0
 13 14  1  0
 14 15  2  0
 15 10  1  0
  9  1  2  0
 23 18  1  0
  8  3  1  0
 26 27  1  0
 30 31  1  0
M  END
> <minimizedAffinity>
-8.08553

> <CNNscore>
0.8720121980

> <CNNaffinity>
7.0443973541

> <CNN_VS>
6.1428003311

> <CNNaffinity_variance>
0.0910784230

$$$$



 31 34  0  0  0  0  0  0  0  0999 V2000
   18.4677   -2.2479    9.2353 C   0  0  0  0  0  0  0  0  0  0  0  0
   17.9361   -1.0886    8.7424 O   0  0  0  0  0  0  0  0  0  0  0  0
   16.6446   -1.0091    9.1551 C   0  0  0  0  0  0  0  0  0  0  0  0
   15.8497    0.0163    8.8258 N   0  0  0  0  0  0  0  0  0  0  0  0
   14.6314   -0.1288    9.3520 C   0  0  0  0  0  0  0  0  0  0  0  0
   14.1856   -1.1262   10.1375 N   0  0  0  0  0  0  0  0  0  0  0  0
   15.0193   -2.1447   10.4588 C   0  0  0  0  0  0  0  0  0  0  0  0
   16.3237   -2.1075    9.9368 C   0  0  0  0  0  0  0  0  0  0  0  0
   17.5061   -2.9131    9.9850 C   0  0  0  0  0  0  0  0  0  0  0  0
   22.5549   -2.9164    8.1121 C   0  0  0  0  0  0  0  0  0  0  0  0
   22.0678   -1.6210    8.2691 C   0  0  0  0  0  0  0  0  0  0  0  0
   20.7308   -1.4116    8.6329 C   0  0  0  0  0  0  0  0  0  0  0  0
   19.8579   -2.4886    8.8499 C   0  0  0  0  0  0  0  0  0  0  0  0
   20.3573   -3.7848    8.6801 C   0  0  0  0  0  0  0  0  0  0  0  0
   21.6929   -3.9940    8.3185 C   0  0  0  0  0  0  0  0  0  0  0  0
   24.4147   -4.3534    8.4625 C   0  0  0  0  0  0  0  0  0  0  0  0
   23.8307   -3.2616    7.7632 O   0  0  0  0  0  0  0  0  0  0  0  0
   17.7259   -4.1659   10.6803 C   0  0  0  0  0  0  0  0  0  0  0  0
   18.7783   -4.2989   11.5898 C   0  0  0  0  0  0  0  0  0  0  0  0
   18.9682   -5.5072   12.2647 C   0  0  0  0  0  0  0  0  0  0  0  0
   18.1134   -6.5906   12.0452 C   0  0  0  0  0  0  0  0  0  0  0  0
   17.0606   -6.4567   11.1398 C   0  0  0  0  0  0  0  0  0  0  0  0
   16.8676   -5.2488   10.4598 C   0  0  0  0  0  0  0  0  0  0  0  0
   18.4117   -7.7089   12.7727 O   0  0  0  0  0  0  0  0  0  0  0  0
   19.7020   -8.2761   12.5822 C   0  0  0  0  0  0  0  0  0  0  0  0
   14.5668   -3.1768   11.2723 N   0  0  0  0  0  0  0  0  0  0  0  0
   14.4022   -4.0745   10.9033 H   0  0  0  0  0  0  0  0  0  0  0  0
   14.3417   -2.8973   12.6861 C   0  0  0  0  0  0  0  0  0  0  0  0
   12.9288   -3.2741   13.1430 C   0  0  0  0  0  0  0  0  0  0  0  0
   12.0151   -3.1693   12.0541 O   0  0  0  0  0  0  0  0  0  0  0  0
   12.0054   -2.2562   11.7269 H   0  0  0  0  0  0  0  0  0  0  0  0
 16 17  1  0
 17 10  1  0
 10 11  2  0
 11 12  1  0
 12 13  2  0
 13  1  1  0
  1  2  1  0
  2  3  1  0
  3  4  2  0
  4  5  1  0
  5  6  2  0
  6  7  1  0
  7 26  1  0
 26 28  1  0
 28 29  1  0
 29 30  1  0
  7  8  2  0
  8  9  1  0
  9 18  1  0
 18 19  2  0
 19 20  1  0
 20 21  2  0
 21 24  1  0
 24 25  1  0
 21 22  1  0
 22 23  2  0
 13 14  1  0
 14 15  2  0
 15 10  1  0
  9  1  2  0
 23 18  1  0
  8  3  1  0
 26 27  1  0
 30 31  1  0
M  END
> <minimizedAffinity>
-7.22409

> <CNNscore>
0.8581061363

> <CNNaffinity>
6.9056220055

> <CNN_VS>
5.9257564545

> <CNNaffinity_variance>
0.1218568310

$$$$



 31 34  0  0  0  0  0  0  0  0999 V2000
   18.8656   -2.1880    8.9429 C   0  0  0  0  0  0  0  0  0  0  0  0
   18.1069   -1.1592    8.4576 O   0  0  0  0  0  0  0  0  0  0  0  0
   16.8947   -1.2059    9.0685 C   0  0  0  0  0  0  0  0  0  0  0  0
   15.9222   -0.3271    8.7973 N   0  0  0  0  0  0  0  0  0  0  0  0
   14.8305   -0.5751    9.5247 C   0  0  0  0  0  0  0  0  0  0  0  0
   14.6545   -1.5408   10.4451 N   0  0  0  0  0  0  0  0  0  0  0  0
   15.6629   -2.4086   10.7016 C   0  0  0  0  0  0  0  0  0  0  0  0
   16.8546   -2.2556    9.9723 C   0  0  0  0  0  0  0  0  0  0  0  0
   18.1326   -2.8952    9.8873 C   0  0  0  0  0  0  0  0  0  0  0  0
   22.7798   -2.5123    7.2142 C   0  0  0  0  0  0  0  0  0  0  0  0
   22.0983   -3.6502    7.6394 C   0  0  0  0  0  0  0  0  0  0  0  0
   20.8217   -3.5350    8.2058 C   0  0  0  0  0  0  0  0  0  0  0  0
   20.2013   -2.2853    8.3549 C   0  0  0  0  0  0  0  0  0  0  0  0
   20.9003   -1.1491    7.9321 C   0  0  0  0  0  0  0  0  0  0  0  0
   22.1744   -1.2642    7.3648 C   0  0  0  0  0  0  0  0  0  0  0  0
   24.9705   -1.5919    7.2235 C   0  0  0  0  0  0  0  0  0  0  0  0
   24.0229   -2.4816    6.6467 O   0  0  0  0  0  0  0  0  0  0  0  0
   18.6302   -4.0365   10.6295 C   0  0  0  0  0  0  0  0  0  0  0  0
   17.9162   -5.2375   10.6495 C   0  0  0  0  0  0  0  0  0  0  0  0
   18.4161   -6.3343   11.3557 C   0  0  0  0  0  0  0  0  0  0  0  0
   19.6293   -6.2487   12.0437 C   0  0  0  0  0  0  0  0  0  0  0  0
   20.3438   -5.0508   12.0209 C   0  0  0  0  0  0  0  0  0  0  0  0
   19.8460   -3.9488   11.3164 C   0  0  0  0  0  0  0  0  0  0  0  0
   20.0012   -7.3953   12.6888 O   0  0  0  0  0  0  0  0  0  0  0  0
   18.9976   -8.3866   12.8705 C   0  0  0  0  0  0  0  0  0  0  0  0
   15.4895   -3.4066   11.6532 N   0  0  0  0  0  0  0  0  0  0  0  0
   15.1629   -4.2987   11.3946 H   0  0  0  0  0  0  0  0  0  0  0  0
   15.8030   -3.1001   13.0443 C   0  0  0  0  0  0  0  0  0  0  0  0
   16.3286   -4.3176   13.8114 C   0  0  0  0  0  0  0  0  0  0  0  0
   17.6097   -4.0331   14.3679 O   0  0  0  0  0  0  0  0  0  0  0  0
   18.2318   -3.8198   13.6549 H   0  0  0  0  0  0  0  0  0  0  0  0
 16 17  1  0
 17 10  1  0
 10 11  2  0
 11 12  1  0
 12 13  2  0
 13  1  1  0
  1  2  1  0
  2  3  1  0
  3  4  2  0
  4  5  1  0
  5  6  2  0
  6  7  1  0
  7 26  1  0
 26 28  1  0
 28 29  1  0
 29 30  1  0
  7  8  2  0
  8  9  1  0
  9 18  1  0
 18 19  2  0
 19 20  1  0
 20 21  2  0
 21 24  1  0
 24 25  1  0
 21 22  1  0
 22 23  2  0
 13 14  1  0
 14 15  2  0
 15 10  1  0
  9  1  2  0
 23 18  1  0
  8  3  1  0
 26 27  1  0
 30 31  1  0
M  END
> <minimizedAffinity>
-7.23585

> <CNNscore>
0.8019249439

> <CNNaffinity>
6.7832851410

> <CNN_VS>
5.4396853447

> <CNNaffinity_variance>
0.1889610738

$$$$



 31 34  0  0  0  0  0  0  0  0999 V2000
   18.2053   -2.6528   10.1829 C   0  0  0  0  0  0  0  0  0  0  0  0
   18.0922   -1.4402    9.5613 O   0  0  0  0  0  0  0  0  0  0  0  0
   16.7793   -1.0925    9.5531 C   0  0  0  0  0  0  0  0  0  0  0  0
   16.3443    0.0480    9.0039 N   0  0  0  0  0  0  0  0  0  0  0  0
   15.0200    0.1675    9.1239 C   0  0  0  0  0  0  0  0  0  0  0  0
   14.1659   -0.6833    9.7216 N   0  0  0  0  0  0  0  0  0  0  0  0
   14.6409   -1.8250   10.2754 C   0  0  0  0  0  0  0  0  0  0  0  0
   16.0225   -2.0665   10.1849 C   0  0  0  0  0  0  0  0  0  0  0  0
   16.9481   -3.0808   10.5897 C   0  0  0  0  0  0  0  0  0  0  0  0
   22.2052   -4.1905   10.4073 C   0  0  0  0  0  0  0  0  0  0  0  0
   21.5500   -3.7543   11.5564 C   0  0  0  0  0  0  0  0  0  0  0  0
   20.2450   -3.2506   11.4737 C   0  0  0  0  0  0  0  0  0  0  0  0
   19.5697   -3.1761   10.2460 C   0  0  0  0  0  0  0  0  0  0  0  0
   20.2423   -3.6090    9.0977 C   0  0  0  0  0  0  0  0  0  0  0  0
   21.5449   -4.1138    9.1806 C   0  0  0  0  0  0  0  0  0  0  0  0
   24.1990   -4.4730    9.1458 C   0  0  0  0  0  0  0  0  0  0  0  0
   23.4712   -4.7022   10.3457 O   0  0  0  0  0  0  0  0  0  0  0  0
   16.6904   -4.3145   11.3058 C   0  0  0  0  0  0  0  0  0  0  0  0
   16.6888   -5.5395   10.6336 C   0  0  0  0  0  0  0  0  0  0  0  0
   16.4550   -6.7221   11.3396 C   0  0  0  0  0  0  0  0  0  0  0  0
   16.2250   -6.6982   12.7177 C   0  0  0  0  0  0  0  0  0  0  0  0
   16.2301   -5.4756   13.3894 C   0  0  0  0  0  0  0  0  0  0  0  0
   16.4618   -4.2881   12.6860 C   0  0  0  0  0  0  0  0  0  0  0  0
   16.0140   -7.9255   13.2819 O   0  0  0  0  0  0  0  0  0  0  0  0
   15.5381   -7.9451   14.6221 C   0  0  0  0  0  0  0  0  0  0  0  0
   13.7651   -2.7070   10.8972 N   0  0  0  0  0  0  0  0  0  0  0  0
   13.8849   -3.6805   10.8123 H   0  0  0  0  0  0  0  0  0  0  0  0
   12.6639   -2.1551   11.6786 C   0  0  0  0  0  0  0  0  0  0  0  0
   12.5891   -2.7465   13.0898 C   0  0  0  0  0  0  0  0  0  0  0  0
   11.5556   -2.1091   13.8364 O   0  0  0  0  0  0  0  0  0  0  0  0
   11.7441   -1.1600   13.9042 H   0  0  0  0  0  0  0  0  0  0  0  0
 16 17  1  0
 17 10  1  0
 10 11  2  0
 11 12  1  0
 12 13  2  0
 13  1  1  0
  1  2  1  0
  2  3  1  0
  3  4  2  0
  4  5  1  0
  5  6  2  0
  6  7  1  0
  7 26  1  0
 26 28  1  0
 28 29  1  0
 29 30  1  0
  7  8  2  0
  8  9  1  0
  9 18  1  0
 18 19  2  0
 19 20  1  0
 20 21  2  0
 21 24  1  0
 24 25  1  0
 21 22  1  0
 22 23  2  0
 13 14  1  0
 14 15  2  0
 15 10  1  0
  9  1  2  0
 23 18  1  0
  8  3  1  0
 26 27  1  0
 30 31  1  0
M  END
> <minimizedAffinity>
-7.74862

> <CNNscore>
0.7919884920

> <CNNaffinity>
6.8118538857

> <CNN_VS>
5.3949098587

> <CNNaffinity_variance>
0.0541215688

$$$$



 31 34  0  0  0  0  0  0  0  0999 V2000
   18.0710   -2.4451   10.2398 C   0  0  0  0  0  0  0  0  0  0  0  0
   17.6650   -1.3164    9.5834 O   0  0  0  0  0  0  0  0  0  0  0  0
   16.3194   -1.2050    9.7308 C   0  0  0  0  0  0  0  0  0  0  0  0
   15.6212   -0.1985    9.1914 N   0  0  0  0  0  0  0  0  0  0  0  0
   14.3216   -0.3043    9.4777 C   0  0  0  0  0  0  0  0  0  0  0  0
   13.7148   -1.2484   10.2202 N   0  0  0  0  0  0  0  0  0  0  0  0
   14.4528   -2.2488   10.7590 C   0  0  0  0  0  0  0  0  0  0  0  0
   15.8342   -2.2506   10.5000 C   0  0  0  0  0  0  0  0  0  0  0  0
   16.9709   -3.0574   10.8265 C   0  0  0  0  0  0  0  0  0  0  0  0
   22.2791   -3.2526   10.0084 C   0  0  0  0  0  0  0  0  0  0  0  0
   21.6316   -3.2236   11.2413 C   0  0  0  0  0  0  0  0  0  0  0  0
   20.2577   -2.9559   11.3080 C   0  0  0  0  0  0  0  0  0  0  0  0
   19.5053   -2.7163   10.1481 C   0  0  0  0  0  0  0  0  0  0  0  0
   20.1694   -2.7393    8.9166 C   0  0  0  0  0  0  0  0  0  0  0  0
   21.5411   -3.0084    8.8497 C   0  0  0  0  0  0  0  0  0  0  0  0
   24.0208   -3.6968    8.4541 C   0  0  0  0  0  0  0  0  0  0  0  0
   23.6071   -3.5010    9.8004 O   0  0  0  0  0  0  0  0  0  0  0  0
   17.0301   -4.2651   11.6259 C   0  0  0  0  0  0  0  0  0  0  0  0
   17.0631   -4.1933   13.0209 C   0  0  0  0  0  0  0  0  0  0  0  0
   17.1037   -5.3661   13.7789 C   0  0  0  0  0  0  0  0  0  0  0  0
   17.1080   -6.6182   13.1586 C   0  0  0  0  0  0  0  0  0  0  0  0
   17.0716   -6.6900   11.7659 C   0  0  0  0  0  0  0  0  0  0  0  0
   17.0329   -5.5178   11.0024 C   0  0  0  0  0  0  0  0  0  0  0  0
   17.1464   -7.6804   14.0184 O   0  0  0  0  0  0  0  0  0  0  0  0
   18.3793   -8.3821   14.1208 C   0  0  0  0  0  0  0  0  0  0  0  0
   13.8335   -3.2256   11.5296 N   0  0  0  0  0  0  0  0  0  0  0  0
   14.3641   -3.9092   11.9990 H   0  0  0  0  0  0  0  0  0  0  0  0
   12.3781   -3.2133   11.6258 C   0  0  0  0  0  0  0  0  0  0  0  0
   11.8705   -2.3150   12.7583 C   0  0  0  0  0  0  0  0  0  0  0  0
   12.0944   -0.9445   12.4373 O   0  0  0  0  0  0  0  0  0  0  0  0
   13.0448   -0.7914   12.3183 H   0  0  0  0  0  0  0  0  0  0  0  0
 16 17  1  0
 17 10  1  0
 10 11  2  0
 11 12  1  0
 12 13  2  0
 13  1  1  0
  1  2  1  0
  2  3  1  0
  3  4  2  0
  4  5  1  0
  5  6  2  0
  6  7  1  0
  7 26  1  0
 26 28  1  0
 28 29  1  0
 29 30  1  0
  7  8  2  0
  8  9  1  0
  9 18  1  0
 18 19  2  0
 19 20  1  0
 20 21  2  0
 21 24  1  0
 24 25  1  0
 21 22  1  0
 22 23  2  0
 13 14  1  0
 14 15  2  0
 15 10  1  0
  9  1  2  0
 23 18  1  0
  8  3  1  0
 26 27  1  0
 30 31  1  0
M  END
> <minimizedAffinity>
-6.96778

> <CNNscore>
0.7037871480

> <CNNaffinity>
6.6503186226

> <CNN_VS>
4.6804089546

> <CNNaffinity_variance>
0.0784798563

$$$$



 31 34  0  0  0  0  0  0  0  0999 V2000
   14.7428   -2.5869   11.1522 C   0  0  0  0  0  0  0  0  0  0  0  0
   14.8083   -1.7071   10.1076 O   0  0  0  0  0  0  0  0  0  0  0  0
   16.0727   -1.7356    9.6123 C   0  0  0  0  0  0  0  0  0  0  0  0
   16.4550   -0.9723    8.5814 N   0  0  0  0  0  0  0  0  0  0  0  0
   17.7379   -1.1802    8.2761 C   0  0  0  0  0  0  0  0  0  0  0  0
   18.5955   -2.0385    8.8578 N   0  0  0  0  0  0  0  0  0  0  0  0
   18.1733   -2.8030    9.8938 C   0  0  0  0  0  0  0  0  0  0  0  0
   16.8422   -2.6475   10.3172 C   0  0  0  0  0  0  0  0  0  0  0  0
   15.9796   -3.1966   11.3192 C   0  0  0  0  0  0  0  0  0  0  0  0
   10.9129   -2.7289   13.0826 C   0  0  0  0  0  0  0  0  0  0  0  0
   11.5805   -1.5167   12.9247 C   0  0  0  0  0  0  0  0  0  0  0  0
   12.8323   -1.4797   12.2960 C   0  0  0  0  0  0  0  0  0  0  0  0
   13.4384   -2.6487   11.8111 C   0  0  0  0  0  0  0  0  0  0  0  0
   12.7615   -3.8612   11.9840 C   0  0  0  0  0  0  0  0  0  0  0  0
   11.5106   -3.8979   12.6102 C   0  0  0  0  0  0  0  0  0  0  0  0
    8.7826   -1.8165   13.6077 C   0  0  0  0  0  0  0  0  0  0  0  0
    9.6929   -2.9070   13.6728 O   0  0  0  0  0  0  0  0  0  0  0  0
   16.2715   -4.2064   12.3172 C   0  0  0  0  0  0  0  0  0  0  0  0
   16.1448   -5.5642   12.0128 C   0  0  0  0  0  0  0  0  0  0  0  0
   16.4452   -6.5267   12.9797 C   0  0  0  0  0  0  0  0  0  0  0  0
   16.8770   -6.1492   14.2540 C   0  0  0  0  0  0  0  0  0  0  0  0
   17.0069   -4.7937   14.5568 C   0  0  0  0  0  0  0  0  0  0  0  0
   16.7051   -3.8259   13.5921 C   0  0  0  0  0  0  0  0  0  0  0  0
   17.1386   -7.1913   15.0994 O   0  0  0  0  0  0  0  0  0  0  0  0
   16.1191   -8.1719   15.2479 C   0  0  0  0  0  0  0  0  0  0  0  0
   19.0526   -3.6940   10.4975 N   0  0  0  0  0  0  0  0  0  0  0  0
   18.7175   -4.4810   10.9849 H   0  0  0  0  0  0  0  0  0  0  0  0
   20.4840   -3.4347   10.3912 C   0  0  0  0  0  0  0  0  0  0  0  0
   21.0064   -3.5932    8.9598 C   0  0  0  0  0  0  0  0  0  0  0  0
   21.6868   -4.8377    8.8192 O   0  0  0  0  0  0  0  0  0  0  0  0
   22.4383   -4.8664    9.4317 H   0  0  0  0  0  0  0  0  0  0  0  0
 16 17  1  0
 17 10  1  0
 10 11  2  0
 11 12  1  0
 12 13  2  0
 13  1  1  0
  1  2  1  0
  2  3  1  0
  3  4  2  0
  4  5  1  0
  5  6  2  0
  6  7  1  0
  7 26  1  0
 26 28  1  0
 28 29  1  0
 29 30  1  0
  7  8  2  0
  8  9  1  0
  9 18  1  0
 18 19  2  0
 19 20  1  0
 20 21  2  0
 21 24  1  0
 24 25  1  0
 21 22  1  0
 22 23  2  0
 13 14  1  0
 14 15  2  0
 15 10  1  0
  9  1  2  0
 23 18  1  0
  8  3  1  0
 26 27  1  0
 30 31  1  0
M  END
> <minimizedAffinity>
-8.15297

> <CNNscore>
0.6092023849

> <CNNaffinity>
6.6822552681

> <CNN_VS>
4.0708460808

> <CNNaffinity_variance>
0.0736069679

$$$$



 31 34  0  0  0  0  0  0  0  0999 V2000
   15.1442   -3.0600   11.2525 C   0  0  0  0  0  0  0  0  0  0  0  0
   15.2574   -2.0069   10.3878 O   0  0  0  0  0  0  0  0  0  0  0  0
   16.4960   -2.0500    9.8322 C   0  0  0  0  0  0  0  0  0  0  0  0
   16.9139   -1.1407    8.9433 N   0  0  0  0  0  0  0  0  0  0  0  0
   18.1604   -1.3971    8.5398 C   0  0  0  0  0  0  0  0  0  0  0  0
   18.9521   -2.4212    8.9073 N   0  0  0  0  0  0  0  0  0  0  0  0
   18.4946   -3.3290    9.8030 C   0  0  0  0  0  0  0  0  0  0  0  0
   17.1992   -3.1422   10.3151 C   0  0  0  0  0  0  0  0  0  0  0  0
   16.3227   -3.7949   11.2400 C   0  0  0  0  0  0  0  0  0  0  0  0
   11.4004   -3.2544   13.3407 C   0  0  0  0  0  0  0  0  0  0  0  0
   12.5667   -2.8957   14.0123 C   0  0  0  0  0  0  0  0  0  0  0  0
   13.7856   -2.8377   13.3234 C   0  0  0  0  0  0  0  0  0  0  0  0
   13.8627   -3.1327   11.9538 C   0  0  0  0  0  0  0  0  0  0  0  0
   12.6854   -3.5006   11.2927 C   0  0  0  0  0  0  0  0  0  0  0  0
   11.4678   -3.5567   11.9802 C   0  0  0  0  0  0  0  0  0  0  0  0
    9.2299   -2.3141   13.5672 C   0  0  0  0  0  0  0  0  0  0  0  0
   10.1512   -3.3488   13.8875 O   0  0  0  0  0  0  0  0  0  0  0  0
   16.5513   -4.9973   12.0166 C   0  0  0  0  0  0  0  0  0  0  0  0
   16.9620   -4.9151   13.3496 C   0  0  0  0  0  0  0  0  0  0  0  0
   17.1627   -6.0822   14.0907 C   0  0  0  0  0  0  0  0  0  0  0  0
   16.9537   -7.3387   13.5160 C   0  0  0  0  0  0  0  0  0  0  0  0
   16.5403   -7.4206   12.1862 C   0  0  0  0  0  0  0  0  0  0  0  0
   16.3399   -6.2542   11.4392 C   0  0  0  0  0  0  0  0  0  0  0  0
   17.1838   -8.3943   14.3537 O   0  0  0  0  0  0  0  0  0  0  0  0
   17.7726   -8.0998   15.6144 C   0  0  0  0  0  0  0  0  0  0  0  0
   19.3056   -4.3911   10.1849 N   0  0  0  0  0  0  0  0  0  0  0  0
   18.9266   -5.2880   10.3303 H   0  0  0  0  0  0  0  0  0  0  0  0
   20.7319   -4.1445   10.3649 C   0  0  0  0  0  0  0  0  0  0  0  0
   21.0654   -3.6110   11.7617 C   0  0  0  0  0  0  0  0  0  0  0  0
   20.2193   -2.5098   12.0829 O   0  0  0  0  0  0  0  0  0  0  0  0
   20.3536   -1.7995   11.4361 H   0  0  0  0  0  0  0  0  0  0  0  0
 16 17  1  0
 17 10  1  0
 10 11  2  0
 11 12  1  0
 12 13  2  0
 13  1  1  0
  1  2  1  0
  2  3  1  0
  3  4  2  0
  4  5  1  0
  5  6  2  0
  6  7  1  0
  7 26  1  0
 26 28  1  0
 28 29  1  0
 29 30  1  0
  7  8  2  0
  8  9  1  0
  9 18  1  0
 18 19  2  0
 19 20  1  0
 20 21  2  0
 21 24  1  0
 24 25  1  0
 21 22  1  0
 22 23  2  0
 13 14  1  0
 14 15  2  0
 15 10  1  0
  9  1  2  0
 23 18  1  0
  8  3  1  0
 26 27  1  0
 30 31  1  0
M  END
> <minimizedAffinity>
-7.88144

> <CNNscore>
0.5413914323

> <CNNaffinity>
6.6569657326

> <CNN_VS>
3.6040241718

> <CNNaffinity_variance>
0.0735323951

$$$$



 31 34  0  0  0  0  0  0  0  0999 V2000
   15.6632   -2.9700   11.1078 C   0  0  0  0  0  0  0  0  0  0  0  0
   16.1328   -2.0505   10.2115 O   0  0  0  0  0  0  0  0  0  0  0  0
   17.3906   -2.4167    9.8530 C   0  0  0  0  0  0  0  0  0  0  0  0
   18.1235   -1.7064    8.9869 N   0  0  0  0  0  0  0  0  0  0  0  0
   19.3190   -2.2677    8.7919 C   0  0  0  0  0  0  0  0  0  0  0  0
   19.7948   -3.4043    9.3328 N   0  0  0  0  0  0  0  0  0  0  0  0
   19.0231   -4.1037   10.1995 C   0  0  0  0  0  0  0  0  0  0  0  0
   17.7497   -3.5894   10.4983 C   0  0  0  0  0  0  0  0  0  0  0  0
   16.6297   -3.9457   11.3157 C   0  0  0  0  0  0  0  0  0  0  0  0
   11.7146   -2.1951   12.5984 C   0  0  0  0  0  0  0  0  0  0  0  0
   12.2362   -3.4865   12.6164 C   0  0  0  0  0  0  0  0  0  0  0  0
   13.5254   -3.7313   12.1247 C   0  0  0  0  0  0  0  0  0  0  0  0
   14.3177   -2.6937   11.6103 C   0  0  0  0  0  0  0  0  0  0  0  0
   13.7786   -1.4025   11.5894 C   0  0  0  0  0  0  0  0  0  0  0  0
   12.4918   -1.1577   12.0822 C   0  0  0  0  0  0  0  0  0  0  0  0
    9.6925   -2.8184   13.6797 C   0  0  0  0  0  0  0  0  0  0  0  0
   10.4790   -1.8180   13.0451 O   0  0  0  0  0  0  0  0  0  0  0  0
   16.4666   -5.0938   12.1854 C   0  0  0  0  0  0  0  0  0  0  0  0
   16.5998   -4.9614   13.5700 C   0  0  0  0  0  0  0  0  0  0  0  0
   16.4237   -6.0734   14.3971 C   0  0  0  0  0  0  0  0  0  0  0  0
   16.1107   -7.3235   13.8569 C   0  0  0  0  0  0  0  0  0  0  0  0
   15.9742   -7.4550   12.4749 C   0  0  0  0  0  0  0  0  0  0  0  0
   16.1517   -6.3443   11.6422 C   0  0  0  0  0  0  0  0  0  0  0  0
   15.9633   -8.3223   14.7787 O   0  0  0  0  0  0  0  0  0  0  0  0
   16.9429   -8.3995   15.8070 C   0  0  0  0  0  0  0  0  0  0  0  0
   19.5065   -5.2802   10.7597 N   0  0  0  0  0  0  0  0  0  0  0  0
   19.0480   -6.1377   10.6057 H   0  0  0  0  0  0  0  0  0  0  0  0
   20.7099   -5.2134   11.5813 C   0  0  0  0  0  0  0  0  0  0  0  0
   21.3642   -6.5844   11.7796 C   0  0  0  0  0  0  0  0  0  0  0  0
   21.5437   -6.8476   13.1689 O   0  0  0  0  0  0  0  0  0  0  0  0
   22.1177   -6.1679   13.5553 H   0  0  0  0  0  0  0  0  0  0  0  0
 16 17  1  0
 17 10  1  0
 10 11  2  0
 11 12  1  0
 12 13  2  0
 13  1  1  0
  1  2  1  0
  2  3  1  0
  3  4  2  0
  4  5  1  0
  5  6  2  0
  6  7  1  0
  7 26  1  0
 26 28  1  0
 28 29  1  0
 29 30  1  0
  7  8  2  0
  8  9  1  0
  9 18  1  0
 18 19  2  0
 19 20  1  0
 20 21  2  0
 21 24  1  0
 24 25  1  0
 21 22  1  0
 22 23  2  0
 13 14  1  0
 14 15  2  0
 15 10  1  0
  9  1  2  0
 23 18  1  0
  8  3  1  0
 26 27  1  0
 30 31  1  0
M  END
> <minimizedAffinity>
-7.13877

> <CNNscore>
0.3926110864

> <CNNaffinity>
6.5474925041

> <CNN_VS>
2.5706181526

> <CNNaffinity_variance>
0.0667108223

$$$$



 31 34  0  0  0  0  0  0  0  0999 V2000
   18.8227   -3.6062   10.9479 C   0  0  0  0  0  0  0  0  0  0  0  0
   18.9911   -2.4814   10.1889 O   0  0  0  0  0  0  0  0  0  0  0  0
   17.7619   -2.0260    9.8333 C   0  0  0  0  0  0  0  0  0  0  0  0
   17.5943   -0.9350    9.0761 N   0  0  0  0  0  0  0  0  0  0  0  0
   16.2993   -0.6870    8.8665 C   0  0  0  0  0  0  0  0  0  0  0  0
   15.2415   -1.3743    9.3348 N   0  0  0  0  0  0  0  0  0  0  0  0
   15.4467   -2.4693   10.1060 C   0  0  0  0  0  0  0  0  0  0  0  0
   16.7766   -2.8388   10.3709 C   0  0  0  0  0  0  0  0  0  0  0  0
   17.4659   -3.8666   11.0907 C   0  0  0  0  0  0  0  0  0  0  0  0
   22.4935   -5.4075   12.2500 C   0  0  0  0  0  0  0  0  0  0  0  0
   22.3889   -4.0238   12.1291 C   0  0  0  0  0  0  0  0  0  0  0  0
   21.1874   -3.4440   11.7001 C   0  0  0  0  0  0  0  0  0  0  0  0
   20.0693   -4.2322   11.3878 C   0  0  0  0  0  0  0  0  0  0  0  0
   20.1902   -5.6214   11.5046 C   0  0  0  0  0  0  0  0  0  0  0  0
   21.3895   -6.2003   11.9348 C   0  0  0  0  0  0  0  0  0  0  0  0
   23.5363   -6.7189   13.9350 C   0  0  0  0  0  0  0  0  0  0  0  0
   23.5996   -6.1003   12.6561 O   0  0  0  0  0  0  0  0  0  0  0  0
   16.9151   -4.9677   11.8557 C   0  0  0  0  0  0  0  0  0  0  0  0
   16.7391   -4.8556   13.2373 C   0  0  0  0  0  0  0  0  0  0  0  0
   16.1920   -5.9190   13.9592 C   0  0  0  0  0  0  0  0  0  0  0  0
   15.8120   -7.0996   13.3154 C   0  0  0  0  0  0  0  0  0  0  0  0
   15.9844   -7.2103   11.9355 C   0  0  0  0  0  0  0  0  0  0  0  0
   16.5340   -6.1483   11.2084 C   0  0  0  0  0  0  0  0  0  0  0  0
   15.2889   -8.0561   14.1402 O   0  0  0  0  0  0  0  0  0  0  0  0
   15.9568   -8.2760   15.3765 C   0  0  0  0  0  0  0  0  0  0  0  0
   14.3590   -3.1823   10.5957 N   0  0  0  0  0  0  0  0  0  0  0  0
   13.9437   -3.8980   10.0623 H   0  0  0  0  0  0  0  0  0  0  0  0
   13.8477   -2.8444   11.9194 C   0  0  0  0  0  0  0  0  0  0  0  0
   12.3199   -2.7350   11.9501 C   0  0  0  0  0  0  0  0  0  0  0  0
   11.7306   -4.0179   11.7539 O   0  0  0  0  0  0  0  0  0  0  0  0
   12.0020   -4.3700   10.8917 H   0  0  0  0  0  0  0  0  0  0  0  0
 16 17  1  0
 17 10  1  0
 10 11  2  0
 11 12  1  0
 12 13  2  0
 13  1  1  0
  1  2  1  0
  2  3  1  0
  3  4  2  0
  4  5  1  0
  5  6  2  0
  6  7  1  0
  7 26  1  0
 26 28  1  0
 28 29  1  0
 29 30  1  0
  7  8  2  0
  8  9  1  0
  9 18  1  0
 18 19  2  0
 19 20  1  0
 20 21  2  0
 21 24  1  0
 24 25  1  0
 21 22  1  0
 22 23  2  0
 13 14  1  0
 14 15  2  0
 15 10  1  0
  9  1  2  0
 23 18  1  0
  8  3  1  0
 26 27  1  0
 30 31  1  0
M  END
> <minimizedAffinity>
-7.16688

> <CNNscore>
0.3230987191

> <CNNaffinity>
6.3257164955

> <CNN_VS>
2.0438308716

> <CNNaffinity_variance>
0.0299316049

$$$$
