


 24 25  0  0  0  0  0  0  0  0999 V2000
   33.7491   23.5468   27.0455 C   0  0  0  0  0  0  0  0  0  0  0  0
   33.0065   22.6977   26.0079 C   0  0  0  0  0  0  0  0  0  0  0  0
   33.6516   22.8539   24.8066 F   0  0  0  0  0  0  0  0  0  0  0  0
   32.9894   21.2010   26.3393 C   0  0  0  0  0  0  0  0  0  0  0  0
   32.5234   21.0059   27.7871 C   0  0  0  0  0  0  0  0  0  0  0  0
   33.3520   21.7363   28.6976 O   0  0  0  0  0  0  0  0  0  0  0  0
   33.3062   23.1437   28.4726 C   0  0  0  0  0  0  0  0  0  0  0  0
   34.0932   23.7807   29.5349 N   0  0  0  0  0  0  0  0  0  0  0  0
   35.4594   23.6034   29.5686 C   0  0  0  0  0  0  0  0  0  0  0  0
   36.2051   24.1630   30.5189 C   0  0  0  0  0  0  0  0  0  0  0  0
   35.4762   24.9708   31.5134 C   0  0  0  0  0  0  0  0  0  0  0  0
   36.1636   25.5756   32.5292 N   0  0  0  0  0  0  0  0  0  0  0  0
   34.1929   25.1418   31.4891 N   0  0  0  0  0  0  0  0  0  0  0  0
   33.4395   24.5609   30.4951 C   0  0  0  0  0  0  0  0  0  0  0  0
   32.2208   24.7228   30.4727 O   0  0  0  0  0  0  0  0  0  0  0  0
   37.1411   25.4751   32.5904 H   0  0  0  0  0  0  0  0  0  0  0  0
   35.6810   26.1116   33.1993 H   0  0  0  0  0  0  0  0  0  0  0  0
   32.5883   19.5314   28.2048 C   0  0  0  0  0  0  0  0  0  0  0  0
   33.5149   18.8409   27.3622 O   0  0  0  0  0  0  0  0  0  0  0  0
   33.2227   18.9049   26.4395 H   0  0  0  0  0  0  0  0  0  0  0  0
   32.0499   25.2362   27.0155 C   0  0  0  0  0  0  0  0  0  0  0  0
   33.4371   24.9499   26.8771 O   0  0  0  0  0  0  0  0  0  0  0  0
   32.0779   20.4784   25.4940 O   0  0  0  0  0  0  0  0  0  0  0  0
   30.7213   20.5514   25.9169 C   0  0  0  0  0  0  0  0  0  0  0  0
 21 22  1  0
  1 22  1  0
  1  2  1  0
  2  3  1  0
  2  4  1  0
  4 23  1  0
 23 24  1  0
  4  5  1  0
  5 18  1  0
 18 19  1  0
  5  6  1  0
  6  7  1  0
  7  8  1  0
  8  9  1  0
  9 10  2  0
 10 11  1  0
 11 12  1  0
 11 13  2  0
 13 14  1  0
 14 15  2  0
  7  1  1  0
 14  8  1  0
 19 20  1  0
 12 16  1  0
 12 17  1  0
M  END
> <minimizedAffinity>
-8.92759

> <CNNscore>
0.3318188190

> <CNNaffinity>
4.5067138672

> <CNN_VS>
1.4954124689

> <CNNaffinity_variance>
0.3413940370

$$$$



 24 25  0  0  0  0  0  0  0  0999 V2000
   24.0599   23.8242   29.2791 C   0  0  0  0  0  0  0  0  0  0  0  0
   24.9971   24.9883   29.6187 C   0  0  0  0  0  0  0  0  0  0  0  0
   25.2086   24.9678   30.9746 F   0  0  0  0  0  0  0  0  0  0  0  0
   26.3637   24.8962   28.9301 C   0  0  0  0  0  0  0  0  0  0  0  0
   26.1618   24.6451   27.4308 C   0  0  0  0  0  0  0  0  0  0  0  0
   25.3799   23.4672   27.2067 O   0  0  0  0  0  0  0  0  0  0  0  0
   24.0665   23.5686   27.7528 C   0  0  0  0  0  0  0  0  0  0  0  0
   23.3347   22.3602   27.3553 N   0  0  0  0  0  0  0  0  0  0  0  0
   22.1446   22.4801   26.6710 C   0  0  0  0  0  0  0  0  0  0  0  0
   21.4518   21.4064   26.2974 C   0  0  0  0  0  0  0  0  0  0  0  0
   22.0398   20.1049   26.6622 C   0  0  0  0  0  0  0  0  0  0  0  0
   21.3902   18.9500   26.3239 N   0  0  0  0  0  0  0  0  0  0  0  0
   23.1570   19.9837   27.3055 N   0  0  0  0  0  0  0  0  0  0  0  0
   23.8625   21.1050   27.6776 C   0  0  0  0  0  0  0  0  0  0  0  0
   24.9230   20.9896   28.2891 O   0  0  0  0  0  0  0  0  0  0  0  0
   20.5371   18.9904   25.8342 H   0  0  0  0  0  0  0  0  0  0  0  0
   21.7757   18.0782   26.5701 H   0  0  0  0  0  0  0  0  0  0  0  0
   27.5001   24.4396   26.7100 C   0  0  0  0  0  0  0  0  0  0  0  0
   27.4607   23.2108   25.9794 O   0  0  0  0  0  0  0  0  0  0  0  0
   27.3051   22.4751   26.5923 H   0  0  0  0  0  0  0  0  0  0  0  0
   22.2333   23.3639   30.7603 C   0  0  0  0  0  0  0  0  0  0  0  0
   22.6984   24.1353   29.6586 O   0  0  0  0  0  0  0  0  0  0  0  0
   27.1113   26.1170   29.0639 O   0  0  0  0  0  0  0  0  0  0  0  0
   27.6820   26.5779   27.8447 C   0  0  0  0  0  0  0  0  0  0  0  0
 21 22  1  0
  1 22  1  0
  1  2  1  0
  2  3  1  0
  2  4  1  0
  4 23  1  0
 23 24  1  0
  4  5  1  0
  5 18  1  0
 18 19  1  0
  5  6  1  0
  6  7  1  0
  7  8  1  0
  8  9  1  0
  9 10  2  0
 10 11  1  0
 11 12  1  0
 11 13  2  0
 13 14  1  0
 14 15  2  0
  7  1  1  0
 14  8  1  0
 19 20  1  0
 12 16  1  0
 12 17  1  0
M  END
> <minimizedAffinity>
-7.87435

> <CNNscore>
0.2620506585

> <CNNaffinity>
4.5678114891

> <CNN_VS>
1.1969980001

> <CNNaffinity_variance>
0.4963381290

$$$$



 24 25  0  0  0  0  0  0  0  0999 V2000
   33.3814   23.3096   29.1230 C   0  0  0  0  0  0  0  0  0  0  0  0
   32.6529   23.2076   27.7784 C   0  0  0  0  0  0  0  0  0  0  0  0
   32.4045   21.8788   27.5417 F   0  0  0  0  0  0  0  0  0  0  0  0
   31.3105   23.9473   27.7508 C   0  0  0  0  0  0  0  0  0  0  0  0
   31.5059   25.3757   28.2733 C   0  0  0  0  0  0  0  0  0  0  0  0
   32.0760   25.3702   29.5864 O   0  0  0  0  0  0  0  0  0  0  0  0
   33.3716   24.7755   29.6194 C   0  0  0  0  0  0  0  0  0  0  0  0
   33.8917   24.9388   30.9819 N   0  0  0  0  0  0  0  0  0  0  0  0
   35.2221   25.2448   31.1698 C   0  0  0  0  0  0  0  0  0  0  0  0
   35.7298   25.3971   32.3911 C   0  0  0  0  0  0  0  0  0  0  0  0
   34.7825   25.2180   33.5061 C   0  0  0  0  0  0  0  0  0  0  0  0
   35.2213   25.3490   34.7947 N   0  0  0  0  0  0  0  0  0  0  0  0
   33.5314   24.9299   33.3381 N   0  0  0  0  0  0  0  0  0  0  0  0
   33.0232   24.7829   32.0678 C   0  0  0  0  0  0  0  0  0  0  0  0
   31.8352   24.5086   31.9086 O   0  0  0  0  0  0  0  0  0  0  0  0
   36.1645   25.5674   34.9738 H   0  0  0  0  0  0  0  0  0  0  0  0
   34.5941   25.2248   35.5434 H   0  0  0  0  0  0  0  0  0  0  0  0
   30.1724   26.1279   28.3659 C   0  0  0  0  0  0  0  0  0  0  0  0
   30.4074   27.5298   28.2082 O   0  0  0  0  0  0  0  0  0  0  0  0
   31.0041   27.8383   28.9080 H   0  0  0  0  0  0  0  0  0  0  0  0
   35.4869   22.9611   30.2130 C   0  0  0  0  0  0  0  0  0  0  0  0
   34.7655   22.9093   28.9873 O   0  0  0  0  0  0  0  0  0  0  0  0
   30.7841   24.0467   26.4165 O   0  0  0  0  0  0  0  0  0  0  0  0
   29.6366   23.2366   26.1896 C   0  0  0  0  0  0  0  0  0  0  0  0
 21 22  1  0
  1 22  1  0
  1  2  1  0
  2  3  1  0
  2  4  1  0
  4 23  1  0
 23 24  1  0
  4  5  1  0
  5 18  1  0
 18 19  1  0
  5  6  1  0
  6  7  1  0
  7  8  1  0
  8  9  1  0
  9 10  2  0
 10 11  1  0
 11 12  1  0
 11 13  2  0
 13 14  1  0
 14 15  2  0
  7  1  1  0
 14  8  1  0
 19 20  1  0
 12 16  1  0
 12 17  1  0
M  END
> <minimizedAffinity>
-6.53799

> <CNNscore>
0.1925416738

> <CNNaffinity>
4.0232834816

> <CNN_VS>
0.7746497393

> <CNNaffinity_variance>
0.2374276668

$$$$



 24 25  0  0  0  0  0  0  0  0999 V2000
   38.7614   26.5771   34.9976 C   0  0  0  0  0  0  0  0  0  0  0  0
   37.4827   26.2424   34.2217 C   0  0  0  0  0  0  0  0  0  0  0  0
   37.7615   25.1757   33.4043 F   0  0  0  0  0  0  0  0  0  0  0  0
   36.3054   25.8483   35.1209 C   0  0  0  0  0  0  0  0  0  0  0  0
   36.1350   26.8985   36.2253 C   0  0  0  0  0  0  0  0  0  0  0  0
   37.3424   27.0542   36.9784 O   0  0  0  0  0  0  0  0  0  0  0  0
   38.4302   27.5175   36.1813 C   0  0  0  0  0  0  0  0  0  0  0  0
   39.5640   27.7494   37.0836 N   0  0  0  0  0  0  0  0  0  0  0  0
   39.6357   28.9263   37.7970 C   0  0  0  0  0  0  0  0  0  0  0  0
   40.6509   29.1727   38.6223 C   0  0  0  0  0  0  0  0  0  0  0  0
   41.6730   28.1147   38.7153 C   0  0  0  0  0  0  0  0  0  0  0  0
   42.7545   28.2883   39.5341 N   0  0  0  0  0  0  0  0  0  0  0  0
   41.6133   27.0066   38.0480 N   0  0  0  0  0  0  0  0  0  0  0  0
   40.5527   26.7667   37.2048 C   0  0  0  0  0  0  0  0  0  0  0  0
   40.4967   25.7147   36.5707 O   0  0  0  0  0  0  0  0  0  0  0  0
   42.8446   29.1144   40.0619 H   0  0  0  0  0  0  0  0  0  0  0  0
   43.4429   27.5872   39.5956 H   0  0  0  0  0  0  0  0  0  0  0  0
   35.0355   26.4981   37.2171 C   0  0  0  0  0  0  0  0  0  0  0  0
   35.4372   26.8605   38.5410 O   0  0  0  0  0  0  0  0  0  0  0  0
   36.2612   26.4009   38.7661 H   0  0  0  0  0  0  0  0  0  0  0  0
   39.6384   26.8659   32.7863 C   0  0  0  0  0  0  0  0  0  0  0  0
   39.7089   27.2681   34.1496 O   0  0  0  0  0  0  0  0  0  0  0  0
   35.0699   25.7926   34.3875 O   0  0  0  0  0  0  0  0  0  0  0  0
   34.8289   24.5374   33.7622 C   0  0  0  0  0  0  0  0  0  0  0  0
 21 22  1  0
  1 22  1  0
  1  2  1  0
  2  3  1  0
  2  4  1  0
  4 23  1  0
 23 24  1  0
  4  5  1  0
  5 18  1  0
 18 19  1  0
  5  6  1  0
  6  7  1  0
  7  8  1  0
  8  9  1  0
  9 10  2  0
 10 11  1  0
 11 12  1  0
 11 13  2  0
 13 14  1  0
 14 15  2  0
  7  1  1  0
 14  8  1  0
 19 20  1  0
 12 16  1  0
 12 17  1  0
M  END
> <minimizedAffinity>
-4.09493

> <CNNscore>
0.1784827262

> <CNNaffinity>
4.2451858521

> <CNN_VS>
0.7576923370

> <CNNaffinity_variance>
0.3069458902

$$$$



 24 25  0  0  0  0  0  0  0  0999 V2000
   24.9815   23.8416   27.8785 C   0  0  0  0  0  0  0  0  0  0  0  0
   25.5413   24.9958   28.7173 C   0  0  0  0  0  0  0  0  0  0  0  0
   25.9894   25.9595   27.8490 F   0  0  0  0  0  0  0  0  0  0  0  0
   24.5023   25.6432   29.6400 C   0  0  0  0  0  0  0  0  0  0  0  0
   23.7831   24.5514   30.4414 C   0  0  0  0  0  0  0  0  0  0  0  0
   23.1840   23.5847   29.5720 O   0  0  0  0  0  0  0  0  0  0  0  0
   24.1438   22.8964   28.7729 C   0  0  0  0  0  0  0  0  0  0  0  0
   23.4239   21.8609   28.0225 N   0  0  0  0  0  0  0  0  0  0  0  0
   23.8215   20.5456   28.1262 C   0  0  0  0  0  0  0  0  0  0  0  0
   23.1946   19.5799   27.4577 C   0  0  0  0  0  0  0  0  0  0  0  0
   22.0655   20.0126   26.6147 C   0  0  0  0  0  0  0  0  0  0  0  0
   21.3700   19.0866   25.8873 N   0  0  0  0  0  0  0  0  0  0  0  0
   21.6860   21.2463   26.5113 N   0  0  0  0  0  0  0  0  0  0  0  0
   22.3422   22.2299   27.2152 C   0  0  0  0  0  0  0  0  0  0  0  0
   21.9821   23.4014   27.1163 O   0  0  0  0  0  0  0  0  0  0  0  0
   21.6207   18.1356   25.9327 H   0  0  0  0  0  0  0  0  0  0  0  0
   20.6186   19.3709   25.3183 H   0  0  0  0  0  0  0  0  0  0  0  0
   22.6586   25.1364   31.3052 C   0  0  0  0  0  0  0  0  0  0  0  0
   23.2293   25.8701   32.3921 O   0  0  0  0  0  0  0  0  0  0  0  0
   23.7776   25.2774   32.9298 H   0  0  0  0  0  0  0  0  0  0  0  0
   26.8673   23.7934   26.4008 C   0  0  0  0  0  0  0  0  0  0  0  0
   26.0545   23.0564   27.3072 O   0  0  0  0  0  0  0  0  0  0  0  0
   25.1131   26.5377   30.5857 O   0  0  0  0  0  0  0  0  0  0  0  0
   26.1121   27.3778   30.0195 C   0  0  0  0  0  0  0  0  0  0  0  0
 21 22  1  0
  1 22  1  0
  1  2  1  0
  2  3  1  0
  2  4  1  0
  4 23  1  0
 23 24  1  0
  4  5  1  0
  5 18  1  0
 18 19  1  0
  5  6  1  0
  6  7  1  0
  7  8  1  0
  8  9  1  0
  9 10  2  0
 10 11  1  0
 11 12  1  0
 11 13  2  0
 13 14  1  0
 14 15  2  0
  7  1  1  0
 14  8  1  0
 19 20  1  0
 12 16  1  0
 12 17  1  0
M  END
> <minimizedAffinity>
-7.88729

> <CNNscore>
0.1499104500

> <CNNaffinity>
4.1004047394

> <CNN_VS>
0.6146935225

> <CNNaffinity_variance>
0.4554431438

$$$$



 24 25  0  0  0  0  0  0  0  0999 V2000
   35.7834   25.4984   33.4773 C   0  0  0  0  0  0  0  0  0  0  0  0
   34.2611   25.5557   33.6459 C   0  0  0  0  0  0  0  0  0  0  0  0
   33.9683   26.6723   34.3882 F   0  0  0  0  0  0  0  0  0  0  0  0
   33.5010   25.6628   32.3189 C   0  0  0  0  0  0  0  0  0  0  0  0
   34.0043   24.5810   31.3556 C   0  0  0  0  0  0  0  0  0  0  0  0
   35.4189   24.6829   31.1607 O   0  0  0  0  0  0  0  0  0  0  0  0
   36.1543   24.4866   32.3665 C   0  0  0  0  0  0  0  0  0  0  0  0
   37.5789   24.4951   32.0145 N   0  0  0  0  0  0  0  0  0  0  0  0
   38.4833   25.1077   32.8546 C   0  0  0  0  0  0  0  0  0  0  0  0
   39.7827   25.1381   32.5662 C   0  0  0  0  0  0  0  0  0  0  0  0
   40.1755   24.4810   31.3066 C   0  0  0  0  0  0  0  0  0  0  0  0
   41.4898   24.4720   30.9291 N   0  0  0  0  0  0  0  0  0  0  0  0
   39.3319   23.9039   30.5115 N   0  0  0  0  0  0  0  0  0  0  0  0
   37.9935   23.8768   30.8297 C   0  0  0  0  0  0  0  0  0  0  0  0
   37.1926   23.3293   30.0742 O   0  0  0  0  0  0  0  0  0  0  0  0
   42.1691   24.8980   31.5004 H   0  0  0  0  0  0  0  0  0  0  0  0
   41.7569   24.0394   30.0859 H   0  0  0  0  0  0  0  0  0  0  0  0
   33.3502   24.7098   29.9742 C   0  0  0  0  0  0  0  0  0  0  0  0
   31.9330   24.5699   30.1064 O   0  0  0  0  0  0  0  0  0  0  0  0
   31.7278   23.7002   30.4836 H   0  0  0  0  0  0  0  0  0  0  0  0
   36.6935   26.1089   35.6084 C   0  0  0  0  0  0  0  0  0  0  0  0
   36.4174   25.0500   34.6985 O   0  0  0  0  0  0  0  0  0  0  0  0
   32.0890   25.4569   32.4955 O   0  0  0  0  0  0  0  0  0  0  0  0
   31.7700   24.3707   33.3575 C   0  0  0  0  0  0  0  0  0  0  0  0
 21 22  1  0
  1 22  1  0
  1  2  1  0
  2  3  1  0
  2  4  1  0
  4 23  1  0
 23 24  1  0
  4  5  1  0
  5 18  1  0
 18 19  1  0
  5  6  1  0
  6  7  1  0
  7  8  1  0
  8  9  1  0
  9 10  2  0
 10 11  1  0
 11 12  1  0
 11 13  2  0
 13 14  1  0
 14 15  2  0
  7  1  1  0
 14  8  1  0
 19 20  1  0
 12 16  1  0
 12 17  1  0
M  END
> <minimizedAffinity>
-3.67843

> <CNNscore>
0.1449068636

> <CNNaffinity>
3.5899937153

> <CNN_VS>
0.5202147365

> <CNNaffinity_variance>
0.9559848905

$$$$



 24 25  0  0  0  0  0  0  0  0999 V2000
   24.4244   23.2059   28.2094 C   0  0  0  0  0  0  0  0  0  0  0  0
   23.6288   23.3120   29.5151 C   0  0  0  0  0  0  0  0  0  0  0  0
   23.5272   22.0489   30.0420 F   0  0  0  0  0  0  0  0  0  0  0  0
   24.2942   24.2065   30.5674 C   0  0  0  0  0  0  0  0  0  0  0  0
   24.6710   25.5490   29.9292 C   0  0  0  0  0  0  0  0  0  0  0  0
   25.5174   25.3582   28.7906 O   0  0  0  0  0  0  0  0  0  0  0  0
   24.8827   24.6123   27.7542 C   0  0  0  0  0  0  0  0  0  0  0  0
   25.7998   24.5902   26.6088 N   0  0  0  0  0  0  0  0  0  0  0  0
   25.5451   25.3929   25.5180 C   0  0  0  0  0  0  0  0  0  0  0  0
   26.3529   25.3968   24.4598 C   0  0  0  0  0  0  0  0  0  0  0  0
   27.5175   24.4967   24.5389 C   0  0  0  0  0  0  0  0  0  0  0  0
   28.3954   24.4321   23.4923 N   0  0  0  0  0  0  0  0  0  0  0  0
   27.7636   23.7390   25.5597 N   0  0  0  0  0  0  0  0  0  0  0  0
   26.9208   23.7536   26.6473 C   0  0  0  0  0  0  0  0  0  0  0  0
   27.1543   23.0334   27.6161 O   0  0  0  0  0  0  0  0  0  0  0  0
   28.2509   24.9892   22.6935 H   0  0  0  0  0  0  0  0  0  0  0  0
   29.1718   23.8285   23.5376 H   0  0  0  0  0  0  0  0  0  0  0  0
   25.4358   26.4440   30.9125 C   0  0  0  0  0  0  0  0  0  0  0  0
   25.7053   27.7049   30.2938 O   0  0  0  0  0  0  0  0  0  0  0  0
   26.2402   27.5662   29.4966 H   0  0  0  0  0  0  0  0  0  0  0  0
   22.2302   23.0152   27.2654 C   0  0  0  0  0  0  0  0  0  0  0  0
   23.6028   22.6567   27.1522 O   0  0  0  0  0  0  0  0  0  0  0  0
   23.4090   24.4866   31.6653 O   0  0  0  0  0  0  0  0  0  0  0  0
   22.0916   24.8448   31.2643 C   0  0  0  0  0  0  0  0  0  0  0  0
 21 22  1  0
  1 22  1  0
  1  2  1  0
  2  3  1  0
  2  4  1  0
  4 23  1  0
 23 24  1  0
  4  5  1  0
  5 18  1  0
 18 19  1  0
  5  6  1  0
  6  7  1  0
  7  8  1  0
  8  9  1  0
  9 10  2  0
 10 11  1  0
 11 12  1  0
 11 13  2  0
 13 14  1  0
 14 15  2  0
  7  1  1  0
 14  8  1  0
 19 20  1  0
 12 16  1  0
 12 17  1  0
M  END
> <minimizedAffinity>
-6.46595

> <CNNscore>
0.1363412887

> <CNNaffinity>
3.8444137573

> <CNN_VS>
0.5241523385

> <CNNaffinity_variance>
0.9867259860

$$$$



 24 25  0  0  0  0  0  0  0  0999 V2000
   36.2449   25.5986   34.3972 C   0  0  0  0  0  0  0  0  0  0  0  0
   36.7735   26.3151   35.6447 C   0  0  0  0  0  0  0  0  0  0  0  0
   36.2768   25.6571   36.7420 F   0  0  0  0  0  0  0  0  0  0  0  0
   38.3028   26.3142   35.7505 C   0  0  0  0  0  0  0  0  0  0  0  0
   38.9047   26.7957   34.4248 C   0  0  0  0  0  0  0  0  0  0  0  0
   38.4530   25.9898   33.3314 O   0  0  0  0  0  0  0  0  0  0  0  0
   37.0401   26.0536   33.1499 C   0  0  0  0  0  0  0  0  0  0  0  0
   36.7214   25.2898   31.9380 N   0  0  0  0  0  0  0  0  0  0  0  0
   35.4073   25.1532   31.5462 C   0  0  0  0  0  0  0  0  0  0  0  0
   35.0802   24.4648   30.4546 C   0  0  0  0  0  0  0  0  0  0  0  0
   36.2052   23.8709   29.7101 C   0  0  0  0  0  0  0  0  0  0  0  0
   35.9589   23.1407   28.5803 N   0  0  0  0  0  0  0  0  0  0  0  0
   37.4424   23.9941   30.0718 N   0  0  0  0  0  0  0  0  0  0  0  0
   37.7617   24.7150   31.1995 C   0  0  0  0  0  0  0  0  0  0  0  0
   38.9365   24.8312   31.5431 O   0  0  0  0  0  0  0  0  0  0  0  0
   35.0344   23.0186   28.2649 H   0  0  0  0  0  0  0  0  0  0  0  0
   36.7062   22.7371   28.0824 H   0  0  0  0  0  0  0  0  0  0  0  0
   40.4363   26.7142   34.4402 C   0  0  0  0  0  0  0  0  0  0  0  0
   40.8506   25.4771   33.8543 O   0  0  0  0  0  0  0  0  0  0  0  0
   40.4805   24.7386   34.3627 H   0  0  0  0  0  0  0  0  0  0  0  0
   34.0260   24.7841   34.0030 C   0  0  0  0  0  0  0  0  0  0  0  0
   34.8549   25.9292   34.1670 O   0  0  0  0  0  0  0  0  0  0  0  0
   38.7663   27.2039   36.7805 O   0  0  0  0  0  0  0  0  0  0  0  0
   37.9019   28.3091   37.0171 C   0  0  0  0  0  0  0  0  0  0  0  0
 21 22  1  0
  1 22  1  0
  1  2  1  0
  2  3  1  0
  2  4  1  0
  4 23  1  0
 23 24  1  0
  4  5  1  0
  5 18  1  0
 18 19  1  0
  5  6  1  0
  6  7  1  0
  7  8  1  0
  8  9  1  0
  9 10  2  0
 10 11  1  0
 11 12  1  0
 11 13  2  0
 13 14  1  0
 14 15  2  0
  7  1  1  0
 14  8  1  0
 19 20  1  0
 12 16  1  0
 12 17  1  0
M  END
> <minimizedAffinity>
-7.15641

> <CNNscore>
0.1130176634

> <CNNaffinity>
3.6752636433

> <CNN_VS>
0.4153697193

> <CNNaffinity_variance>
0.6713297963

$$$$



 24 25  0  0  0  0  0  0  0  0999 V2000
   37.4019   27.0449   35.3252 C   0  0  0  0  0  0  0  0  0  0  0  0
   37.8592   27.8474   36.5483 C   0  0  0  0  0  0  0  0  0  0  0  0
   36.8439   27.8105   37.4711 F   0  0  0  0  0  0  0  0  0  0  0  0
   39.1191   27.2837   37.2153 C   0  0  0  0  0  0  0  0  0  0  0  0
   40.1995   27.0557   36.1511 C   0  0  0  0  0  0  0  0  0  0  0  0
   39.7245   26.1935   35.1118 O   0  0  0  0  0  0  0  0  0  0  0  0
   38.6121   26.7429   34.4089 C   0  0  0  0  0  0  0  0  0  0  0  0
   38.2999   25.8288   33.3041 N   0  0  0  0  0  0  0  0  0  0  0  0
   37.0546   25.2425   33.2376 C   0  0  0  0  0  0  0  0  0  0  0  0
   36.7370   24.4057   32.2521 C   0  0  0  0  0  0  0  0  0  0  0  0
   37.7949   24.1571   31.2562 C   0  0  0  0  0  0  0  0  0  0  0  0
   37.5565   23.3043   30.2140 N   0  0  0  0  0  0  0  0  0  0  0  0
   38.9676   24.7033   31.3118 N   0  0  0  0  0  0  0  0  0  0  0  0
   39.2753   25.5710   32.3345 C   0  0  0  0  0  0  0  0  0  0  0  0
   40.3892   26.0890   32.3874 O   0  0  0  0  0  0  0  0  0  0  0  0
   36.6799   22.8644   30.1286 H   0  0  0  0  0  0  0  0  0  0  0  0
   38.2615   23.1303   29.5492 H   0  0  0  0  0  0  0  0  0  0  0  0
   41.4469   26.3932   36.7492 C   0  0  0  0  0  0  0  0  0  0  0  0
   41.2422   26.1737   38.1475 O   0  0  0  0  0  0  0  0  0  0  0  0
   41.0821   27.0229   38.5881 H   0  0  0  0  0  0  0  0  0  0  0  0
   37.0432   28.8614   33.8040 C   0  0  0  0  0  0  0  0  0  0  0  0
   36.4474   27.8016   34.5438 O   0  0  0  0  0  0  0  0  0  0  0  0
   39.6601   28.1942   38.1878 O   0  0  0  0  0  0  0  0  0  0  0  0
   39.5449   29.5637   37.8192 C   0  0  0  0  0  0  0  0  0  0  0  0
 21 22  1  0
  1 22  1  0
  1  2  1  0
  2  3  1  0
  2  4  1  0
  4 23  1  0
 23 24  1  0
  4  5  1  0
  5 18  1  0
 18 19  1  0
  5  6  1  0
  6  7  1  0
  7  8  1  0
  8  9  1  0
  9 10  2  0
 10 11  1  0
 11 12  1  0
 11 13  2  0
 13 14  1  0
 14 15  2  0
  7  1  1  0
 14  8  1  0
 19 20  1  0
 12 16  1  0
 12 17  1  0
M  END
> <minimizedAffinity>
-0.00710

> <CNNscore>
0.1075061560

> <CNNaffinity>
4.1381306648

> <CNN_VS>
0.4448745251

> <CNNaffinity_variance>
0.2951191962

$$$$
