


 28 29  0  0  0  0  0  0  0  0999 V2000
   15.6390   20.3870   47.7035 C   0  0  0  0  0  0  0  0  0  0  0  0
   15.2950   21.6729   48.1335 C   0  0  0  0  0  0  0  0  0  0  0  0
   16.2740   22.6426   48.4305 C   0  0  0  0  0  0  0  0  0  0  0  0
   17.6337   22.2872   48.2913 C   0  0  0  0  0  0  0  0  0  0  0  0
   17.9704   20.9644   47.9128 C   0  0  0  0  0  0  0  0  0  0  0  0
   19.2796   20.5473   47.8175 O   0  0  0  0  0  0  0  0  0  0  0  0
   16.9849   20.0050   47.6158 C   0  0  0  0  0  0  0  0  0  0  0  0
   19.9766   21.1451   48.0041 H   0  0  0  0  0  0  0  0  0  0  0  0
   18.7657   23.2193   48.5357 C   0  0  0  0  0  0  0  0  0  0  0  0
   19.4913   23.1672   49.5165 O   0  0  0  0  0  0  0  0  0  0  0  0
   19.0129   24.0922   47.5497 O   0  0  0  0  0  0  0  0  0  0  0  0
   18.4505   24.1249   46.8010 H   0  0  0  0  0  0  0  0  0  0  0  0
   13.3736   19.7797   47.8591 C   0  0  0  0  0  0  0  0  0  0  0  0
   14.6886   19.4380   47.4232 O   0  0  0  0  0  0  0  0  0  0  0  0
   15.7771   23.9858   48.9275 C   0  0  0  0  0  0  0  0  0  0  0  0
   16.1199   24.2310   50.4009 C   0  0  0  0  0  0  0  0  0  0  0  0
   15.2882   25.3466   50.9868 C   0  0  0  0  0  0  0  0  0  0  0  0
   15.1118   25.4495   52.3756 C   0  0  0  0  0  0  0  0  0  0  0  0
   14.3276   26.4717   52.9115 C   0  0  0  0  0  0  0  0  0  0  0  0
   13.7191   27.3868   52.0607 C   0  0  0  0  0  0  0  0  0  0  0  0
   12.9668   28.3678   52.5763 F   0  0  0  0  0  0  0  0  0  0  0  0
   13.8800   27.3004   50.6824 C   0  0  0  0  0  0  0  0  0  0  0  0
   14.6630   26.2789   50.1440 C   0  0  0  0  0  0  0  0  0  0  0  0
   17.3636   18.6067   47.1677 C   0  0  0  0  0  0  0  0  0  0  0  0
   17.6996   18.5459   45.6984 C   0  0  0  0  0  0  0  0  0  0  0  0
   16.9928   17.9848   44.6970 C   0  0  0  0  0  0  0  0  0  0  0  0
   15.6837   17.2637   44.8574 C   0  0  0  0  0  0  0  0  0  0  0  0
   17.5002   18.0357   43.2802 C   0  0  0  0  0  0  0  0  0  0  0  0
 13 14  1  0
 14  1  1  0
  1  2  2  0
  2  3  1  0
  3 15  1  0
 15 16  1  0
 16 17  1  0
 17 18  2  0
 18 19  1  0
 19 20  2  0
 20 21  1  0
 20 22  1  0
 22 23  2  0
  3  4  2  0
  4  9  1  0
  9 10  2  0
  9 11  1  0
  4  5  1  0
  5  6  1  0
  5  7  2  0
  7 24  1  0
 24 25  1  0
 25 26  2  0
 26 27  1  0
 26 28  1  0
  7  1  1  0
 23 17  1  0
 11 12  1  0
  6  8  1  0
M  END
> <minimizedAffinity>
-8.53773

> <CNNscore>
0.9010807276

> <CNNaffinity>
6.7976608276

> <CNN_VS>
6.1252412796

> <CNNaffinity_variance>
0.0321964137

$$$$



 28 29  0  0  0  0  0  0  0  0999 V2000
   16.0306   23.9401   49.8205 C   0  0  0  0  0  0  0  0  0  0  0  0
   17.1107   24.6498   50.3554 C   0  0  0  0  0  0  0  0  0  0  0  0
   18.4037   24.5623   49.8009 C   0  0  0  0  0  0  0  0  0  0  0  0
   18.5972   23.7259   48.6796 C   0  0  0  0  0  0  0  0  0  0  0  0
   17.5091   22.9665   48.1837 C   0  0  0  0  0  0  0  0  0  0  0  0
   17.6544   22.0920   47.1296 O   0  0  0  0  0  0  0  0  0  0  0  0
   16.2218   23.0636   48.7432 C   0  0  0  0  0  0  0  0  0  0  0  0
   18.4902   21.9877   46.7191 H   0  0  0  0  0  0  0  0  0  0  0  0
   19.8965   23.5679   47.9748 C   0  0  0  0  0  0  0  0  0  0  0  0
   20.7987   22.8429   48.3641 O   0  0  0  0  0  0  0  0  0  0  0  0
   19.9968   24.2138   46.8052 O   0  0  0  0  0  0  0  0  0  0  0  0
   19.2993   24.7680   46.5147 H   0  0  0  0  0  0  0  0  0  0  0  0
   14.4097   25.3176   50.8205 C   0  0  0  0  0  0  0  0  0  0  0  0
   14.7731   24.0155   50.3641 O   0  0  0  0  0  0  0  0  0  0  0  0
   19.4999   25.3461   50.4953 C   0  0  0  0  0  0  0  0  0  0  0  0
   19.0746   26.7793   50.8325 C   0  0  0  0  0  0  0  0  0  0  0  0
   18.2065   26.8255   52.0668 C   0  0  0  0  0  0  0  0  0  0  0  0
   18.4546   25.9611   53.1447 C   0  0  0  0  0  0  0  0  0  0  0  0
   17.6385   25.9950   54.2761 C   0  0  0  0  0  0  0  0  0  0  0  0
   16.5757   26.8889   54.3283 C   0  0  0  0  0  0  0  0  0  0  0  0
   15.7932   26.9207   55.4150 F   0  0  0  0  0  0  0  0  0  0  0  0
   16.3124   27.7516   53.2702 C   0  0  0  0  0  0  0  0  0  0  0  0
   17.1264   27.7191   52.1376 C   0  0  0  0  0  0  0  0  0  0  0  0
   15.0581   22.2778   48.1707 C   0  0  0  0  0  0  0  0  0  0  0  0
   14.6990   21.0834   49.0191 C   0  0  0  0  0  0  0  0  0  0  0  0
   13.9146   20.0334   48.7036 C   0  0  0  0  0  0  0  0  0  0  0  0
   13.1992   19.8476   47.3947 C   0  0  0  0  0  0  0  0  0  0  0  0
   13.6816   18.9264   49.6972 C   0  0  0  0  0  0  0  0  0  0  0  0
 13 14  1  0
 14  1  1  0
  1  2  2  0
  2  3  1  0
  3 15  1  0
 15 16  1  0
 16 17  1  0
 17 18  2  0
 18 19  1  0
 19 20  2  0
 20 21  1  0
 20 22  1  0
 22 23  2  0
  3  4  2  0
  4  9  1  0
  9 10  2  0
  9 11  1  0
  4  5  1  0
  5  6  1  0
  5  7  2  0
  7 24  1  0
 24 25  1  0
 25 26  2  0
 26 27  1  0
 26 28  1  0
  7  1  1  0
 23 17  1  0
 11 12  1  0
  6  8  1  0
M  END
> <minimizedAffinity>
-7.52085

> <CNNscore>
0.8034179807

> <CNNaffinity>
5.9809155464

> <CNN_VS>
4.8051753044

> <CNNaffinity_variance>
0.2207865566

$$$$



 28 29  0  0  0  0  0  0  0  0999 V2000
   15.6781   22.5225   48.2812 C   0  0  0  0  0  0  0  0  0  0  0  0
   15.0951   23.5019   49.0921 C   0  0  0  0  0  0  0  0  0  0  0  0
   15.8258   24.6165   49.5511 C   0  0  0  0  0  0  0  0  0  0  0  0
   17.1834   24.7280   49.1783 C   0  0  0  0  0  0  0  0  0  0  0  0
   17.7783   23.6998   48.4067 C   0  0  0  0  0  0  0  0  0  0  0  0
   19.1118   23.7286   48.0634 O   0  0  0  0  0  0  0  0  0  0  0  0
   17.0387   22.5928   47.9514 C   0  0  0  0  0  0  0  0  0  0  0  0
   19.6516   24.4427   48.3402 H   0  0  0  0  0  0  0  0  0  0  0  0
   18.0596   25.8664   49.5608 C   0  0  0  0  0  0  0  0  0  0  0  0
   18.9295   25.7992   50.4151 O   0  0  0  0  0  0  0  0  0  0  0  0
   17.9011   26.9812   48.8347 O   0  0  0  0  0  0  0  0  0  0  0  0
   17.2307   27.0235   48.1813 H   0  0  0  0  0  0  0  0  0  0  0  0
   14.2749   20.7311   48.8704 C   0  0  0  0  0  0  0  0  0  0  0  0
   14.9721   21.4314   47.8412 O   0  0  0  0  0  0  0  0  0  0  0  0
   15.0948   25.5870   50.4578 C   0  0  0  0  0  0  0  0  0  0  0  0
   15.2591   25.2424   51.9420 C   0  0  0  0  0  0  0  0  0  0  0  0
   16.1870   26.2092   52.6375 C   0  0  0  0  0  0  0  0  0  0  0  0
   16.3389   27.5200   52.1585 C   0  0  0  0  0  0  0  0  0  0  0  0
   17.2113   28.4046   52.7939 C   0  0  0  0  0  0  0  0  0  0  0  0
   17.9317   27.9787   53.9035 C   0  0  0  0  0  0  0  0  0  0  0  0
   18.7685   28.8288   54.5126 F   0  0  0  0  0  0  0  0  0  0  0  0
   17.7966   26.6839   54.3916 C   0  0  0  0  0  0  0  0  0  0  0  0
   16.9256   25.7973   53.7577 C   0  0  0  0  0  0  0  0  0  0  0  0
   17.6806   21.5243   47.0878 C   0  0  0  0  0  0  0  0  0  0  0  0
   17.7567   20.1899   47.7870 C   0  0  0  0  0  0  0  0  0  0  0  0
   17.4293   18.9717   47.3115 C   0  0  0  0  0  0  0  0  0  0  0  0
   16.8846   18.6944   45.9382 C   0  0  0  0  0  0  0  0  0  0  0  0
   17.5845   17.7467   48.1731 C   0  0  0  0  0  0  0  0  0  0  0  0
 13 14  1  0
 14  1  1  0
  1  2  2  0
  2  3  1  0
  3 15  1  0
 15 16  1  0
 16 17  1  0
 17 18  2  0
 18 19  1  0
 19 20  2  0
 20 21  1  0
 20 22  1  0
 22 23  2  0
  3  4  2  0
  4  9  1  0
  9 10  2  0
  9 11  1  0
  4  5  1  0
  5  6  1  0
  5  7  2  0
  7 24  1  0
 24 25  1  0
 25 26  2  0
 26 27  1  0
 26 28  1  0
  7  1  1  0
 23 17  1  0
 11 12  1  0
  6  8  1  0
M  END
> <minimizedAffinity>
-7.36710

> <CNNscore>
0.7225160599

> <CNNaffinity>
6.2108855247

> <CNN_VS>
4.4874644279

> <CNNaffinity_variance>
0.0075000352

$$$$



 28 29  0  0  0  0  0  0  0  0999 V2000
   15.9650   25.3693   51.9839 C   0  0  0  0  0  0  0  0  0  0  0  0
   15.5426   24.6184   50.8818 C   0  0  0  0  0  0  0  0  0  0  0  0
   16.4414   24.2034   49.8783 C   0  0  0  0  0  0  0  0  0  0  0  0
   17.7997   24.5700   50.0013 C   0  0  0  0  0  0  0  0  0  0  0  0
   18.2043   25.3806   51.0902 C   0  0  0  0  0  0  0  0  0  0  0  0
   19.5039   25.8151   51.2286 O   0  0  0  0  0  0  0  0  0  0  0  0
   17.2992   25.7869   52.0880 C   0  0  0  0  0  0  0  0  0  0  0  0
   20.1487   25.5742   50.5928 H   0  0  0  0  0  0  0  0  0  0  0  0
   18.8589   24.1709   49.0377 C   0  0  0  0  0  0  0  0  0  0  0  0
   19.6783   23.2913   49.2520 O   0  0  0  0  0  0  0  0  0  0  0  0
   18.8119   24.7842   47.8473 O   0  0  0  0  0  0  0  0  0  0  0  0
   18.1796   25.4580   47.6921 H   0  0  0  0  0  0  0  0  0  0  0  0
   14.0598   26.6505   52.4874 C   0  0  0  0  0  0  0  0  0  0  0  0
   15.0908   25.7831   52.9570 O   0  0  0  0  0  0  0  0  0  0  0  0
   15.8556   23.4308   48.7129 C   0  0  0  0  0  0  0  0  0  0  0  0
   14.6930   22.5251   49.1330 C   0  0  0  0  0  0  0  0  0  0  0  0
   14.9373   21.0884   48.7386 C   0  0  0  0  0  0  0  0  0  0  0  0
   14.0116   20.0893   49.0785 C   0  0  0  0  0  0  0  0  0  0  0  0
   14.2503   18.7600   48.7276 C   0  0  0  0  0  0  0  0  0  0  0  0
   15.4129   18.4303   48.0410 C   0  0  0  0  0  0  0  0  0  0  0  0
   15.6408   17.1540   47.7045 F   0  0  0  0  0  0  0  0  0  0  0  0
   16.3428   19.4051   47.6973 C   0  0  0  0  0  0  0  0  0  0  0  0
   16.1068   20.7347   48.0476 C   0  0  0  0  0  0  0  0  0  0  0  0
   17.7589   26.6164   53.2712 C   0  0  0  0  0  0  0  0  0  0  0  0
   17.4357   28.0805   53.1063 C   0  0  0  0  0  0  0  0  0  0  0  0
   18.2762   29.1038   52.8543 C   0  0  0  0  0  0  0  0  0  0  0  0
   19.7665   28.9839   52.6987 C   0  0  0  0  0  0  0  0  0  0  0  0
   17.7521   30.5087   52.7167 C   0  0  0  0  0  0  0  0  0  0  0  0
 13 14  1  0
 14  1  1  0
  1  2  2  0
  2  3  1  0
  3 15  1  0
 15 16  1  0
 16 17  1  0
 17 18  2  0
 18 19  1  0
 19 20  2  0
 20 21  1  0
 20 22  1  0
 22 23  2  0
  3  4  2  0
  4  9  1  0
  9 10  2  0
  9 11  1  0
  4  5  1  0
  5  6  1  0
  5  7  2  0
  7 24  1  0
 24 25  1  0
 25 26  2  0
 26 27  1  0
 26 28  1  0
  7  1  1  0
 23 17  1  0
 11 12  1  0
  6  8  1  0
M  END
> <minimizedAffinity>
-7.51825

> <CNNscore>
0.7184590101

> <CNNaffinity>
5.9131398201

> <CNN_VS>
4.2483487129

> <CNNaffinity_variance>
0.0891522393

$$$$



 28 29  0  0  0  0  0  0  0  0999 V2000
   15.8916   21.4486   48.0118 C   0  0  0  0  0  0  0  0  0  0  0  0
   15.3483   22.6620   48.4465 C   0  0  0  0  0  0  0  0  0  0  0  0
   16.1593   23.7814   48.7231 C   0  0  0  0  0  0  0  0  0  0  0  0
   17.5561   23.6545   48.5579 C   0  0  0  0  0  0  0  0  0  0  0  0
   18.0993   22.4037   48.1748 C   0  0  0  0  0  0  0  0  0  0  0  0
   19.4574   22.2078   48.0546 O   0  0  0  0  0  0  0  0  0  0  0  0
   17.2802   21.2935   47.8985 C   0  0  0  0  0  0  0  0  0  0  0  0
   20.0495   22.9133   48.2268 H   0  0  0  0  0  0  0  0  0  0  0  0
   18.5231   24.7618   48.7789 C   0  0  0  0  0  0  0  0  0  0  0  0
   19.2471   24.8484   49.7584 O   0  0  0  0  0  0  0  0  0  0  0  0
   18.6273   25.6414   47.7736 O   0  0  0  0  0  0  0  0  0  0  0  0
   18.0674   25.5669   47.0260 H   0  0  0  0  0  0  0  0  0  0  0  0
   13.7177   20.5547   48.0145 C   0  0  0  0  0  0  0  0  0  0  0  0
   15.1057   20.3545   47.7515 O   0  0  0  0  0  0  0  0  0  0  0  0
   15.4570   25.0265   49.2277 C   0  0  0  0  0  0  0  0  0  0  0  0
   14.6083   24.7580   50.4752 C   0  0  0  0  0  0  0  0  0  0  0  0
   15.1831   25.4370   51.6950 C   0  0  0  0  0  0  0  0  0  0  0  0
   16.5679   25.4351   51.9249 C   0  0  0  0  0  0  0  0  0  0  0  0
   17.0931   26.0485   53.0630 C   0  0  0  0  0  0  0  0  0  0  0  0
   16.2355   26.6596   53.9700 C   0  0  0  0  0  0  0  0  0  0  0  0
   16.7408   27.2482   55.0619 F   0  0  0  0  0  0  0  0  0  0  0  0
   14.8610   26.6702   53.7610 C   0  0  0  0  0  0  0  0  0  0  0  0
   14.3334   26.0571   52.6243 C   0  0  0  0  0  0  0  0  0  0  0  0
   17.8759   19.9748   47.4451 C   0  0  0  0  0  0  0  0  0  0  0  0
   19.2254   19.7109   48.0654 C   0  0  0  0  0  0  0  0  0  0  0  0
   20.1075   18.7337   47.7749 C   0  0  0  0  0  0  0  0  0  0  0  0
   19.9031   17.6592   46.7439 C   0  0  0  0  0  0  0  0  0  0  0  0
   21.4182   18.6425   48.5105 C   0  0  0  0  0  0  0  0  0  0  0  0
 13 14  1  0
 14  1  1  0
  1  2  2  0
  2  3  1  0
  3 15  1  0
 15 16  1  0
 16 17  1  0
 17 18  2  0
 18 19  1  0
 19 20  2  0
 20 21  1  0
 20 22  1  0
 22 23  2  0
  3  4  2  0
  4  9  1  0
  9 10  2  0
  9 11  1  0
  4  5  1  0
  5  6  1  0
  5  7  2  0
  7 24  1  0
 24 25  1  0
 25 26  2  0
 26 27  1  0
 26 28  1  0
  7  1  1  0
 23 17  1  0
 11 12  1  0
  6  8  1  0
M  END
> <minimizedAffinity>
-8.22845

> <CNNscore>
0.6918969750

> <CNNaffinity>
6.2174682617

> <CNN_VS>
4.3018474579

> <CNNaffinity_variance>
0.1208004653

$$$$



 28 29  0  0  0  0  0  0  0  0999 V2000
   16.9357   24.5730   49.9260 C   0  0  0  0  0  0  0  0  0  0  0  0
   17.0302   23.4861   49.0505 C   0  0  0  0  0  0  0  0  0  0  0  0
   18.2245   23.1884   48.3635 C   0  0  0  0  0  0  0  0  0  0  0  0
   19.3437   24.0242   48.5713 C   0  0  0  0  0  0  0  0  0  0  0  0
   19.2184   25.1560   49.4137 C   0  0  0  0  0  0  0  0  0  0  0  0
   20.2597   26.0366   49.6068 O   0  0  0  0  0  0  0  0  0  0  0  0
   18.0221   25.4423   50.0970 C   0  0  0  0  0  0  0  0  0  0  0  0
   21.0796   25.8943   49.1761 H   0  0  0  0  0  0  0  0  0  0  0  0
   20.6723   23.8063   47.9408 C   0  0  0  0  0  0  0  0  0  0  0  0
   21.3588   22.8134   48.1248 O   0  0  0  0  0  0  0  0  0  0  0  0
   21.0509   24.7444   47.0623 O   0  0  0  0  0  0  0  0  0  0  0  0
   20.5176   25.5029   46.9278 H   0  0  0  0  0  0  0  0  0  0  0  0
   14.7393   25.3919   49.7526 C   0  0  0  0  0  0  0  0  0  0  0  0
   15.7717   24.8710   50.5884 O   0  0  0  0  0  0  0  0  0  0  0  0
   18.1895   22.0098   47.4106 C   0  0  0  0  0  0  0  0  0  0  0  0
   18.0775   20.6669   48.1404 C   0  0  0  0  0  0  0  0  0  0  0  0
   17.3509   19.6398   47.3058 C   0  0  0  0  0  0  0  0  0  0  0  0
   16.5640   18.6519   47.9184 C   0  0  0  0  0  0  0  0  0  0  0  0
   15.9087   17.6938   47.1440 C   0  0  0  0  0  0  0  0  0  0  0  0
   16.0422   17.7219   45.7609 C   0  0  0  0  0  0  0  0  0  0  0  0
   15.4125   16.8018   45.0186 F   0  0  0  0  0  0  0  0  0  0  0  0
   16.8188   18.6909   45.1356 C   0  0  0  0  0  0  0  0  0  0  0  0
   17.4755   19.6496   45.9077 C   0  0  0  0  0  0  0  0  0  0  0  0
   17.9196   26.6325   51.0308 C   0  0  0  0  0  0  0  0  0  0  0  0
   18.0896   26.2431   52.4782 C   0  0  0  0  0  0  0  0  0  0  0  0
   17.2117   26.3743   53.4928 C   0  0  0  0  0  0  0  0  0  0  0  0
   15.8389   26.9760   53.3795 C   0  0  0  0  0  0  0  0  0  0  0  0
   17.5715   25.9139   54.8805 C   0  0  0  0  0  0  0  0  0  0  0  0
 13 14  1  0
 14  1  1  0
  1  2  2  0
  2  3  1  0
  3 15  1  0
 15 16  1  0
 16 17  1  0
 17 18  2  0
 18 19  1  0
 19 20  2  0
 20 21  1  0
 20 22  1  0
 22 23  2  0
  3  4  2  0
  4  9  1  0
  9 10  2  0
  9 11  1  0
  4  5  1  0
  5  6  1  0
  5  7  2  0
  7 24  1  0
 24 25  1  0
 25 26  2  0
 26 27  1  0
 26 28  1  0
  7  1  1  0
 23 17  1  0
 11 12  1  0
  6  8  1  0
M  END
> <minimizedAffinity>
-7.19690

> <CNNscore>
0.5542730093

> <CNNaffinity>
6.0381622314

> <CNN_VS>
3.3467903137

> <CNNaffinity_variance>
0.0173109006

$$$$



 28 29  0  0  0  0  0  0  0  0999 V2000
   15.2326   21.4420   48.5349 C   0  0  0  0  0  0  0  0  0  0  0  0
   15.0548   22.4267   49.5123 C   0  0  0  0  0  0  0  0  0  0  0  0
   16.0566   23.3756   49.8004 C   0  0  0  0  0  0  0  0  0  0  0  0
   17.2684   23.3115   49.0781 C   0  0  0  0  0  0  0  0  0  0  0  0
   17.4596   22.2738   48.1332 C   0  0  0  0  0  0  0  0  0  0  0  0
   18.6424   22.1294   47.4424 O   0  0  0  0  0  0  0  0  0  0  0  0
   16.4517   21.3333   47.8513 C   0  0  0  0  0  0  0  0  0  0  0  0
   19.3478   22.7280   47.5909 H   0  0  0  0  0  0  0  0  0  0  0  0
   18.3925   24.2683   49.2541 C   0  0  0  0  0  0  0  0  0  0  0  0
   18.5476   25.2697   48.5728 O   0  0  0  0  0  0  0  0  0  0  0  0
   19.2039   24.0156   50.2900 O   0  0  0  0  0  0  0  0  0  0  0  0
   19.0771   23.2445   50.8071 H   0  0  0  0  0  0  0  0  0  0  0  0
   14.0149   19.5920   49.3220 C   0  0  0  0  0  0  0  0  0  0  0  0
   14.2632   20.5109   48.2592 O   0  0  0  0  0  0  0  0  0  0  0  0
   15.7616   24.3657   50.9099 C   0  0  0  0  0  0  0  0  0  0  0  0
   14.3983   25.0457   50.7438 C   0  0  0  0  0  0  0  0  0  0  0  0
   14.5412   26.5347   50.5396 C   0  0  0  0  0  0  0  0  0  0  0  0
   13.7256   27.4321   51.2469 C   0  0  0  0  0  0  0  0  0  0  0  0
   13.8490   28.8068   51.0416 C   0  0  0  0  0  0  0  0  0  0  0  0
   14.7835   29.2827   50.1296 C   0  0  0  0  0  0  0  0  0  0  0  0
   14.9011   30.6025   49.9336 F   0  0  0  0  0  0  0  0  0  0  0  0
   15.5989   28.4099   49.4180 C   0  0  0  0  0  0  0  0  0  0  0  0
   15.4771   27.0350   49.6208 C   0  0  0  0  0  0  0  0  0  0  0  0
   16.6566   20.2565   46.8036 C   0  0  0  0  0  0  0  0  0  0  0  0
   17.7923   19.3263   47.1507 C   0  0  0  0  0  0  0  0  0  0  0  0
   18.3579   18.3691   46.3884 C   0  0  0  0  0  0  0  0  0  0  0  0
   17.9386   18.0141   44.9892 C   0  0  0  0  0  0  0  0  0  0  0  0
   19.4981   17.5417   46.9200 C   0  0  0  0  0  0  0  0  0  0  0  0
 13 14  1  0
 14  1  1  0
  1  2  2  0
  2  3  1  0
  3 15  1  0
 15 16  1  0
 16 17  1  0
 17 18  2  0
 18 19  1  0
 19 20  2  0
 20 21  1  0
 20 22  1  0
 22 23  2  0
  3  4  2  0
  4  9  1  0
  9 10  2  0
  9 11  1  0
  4  5  1  0
  5  6  1  0
  5  7  2  0
  7 24  1  0
 24 25  1  0
 25 26  2  0
 26 27  1  0
 26 28  1  0
  7  1  1  0
 23 17  1  0
 11 12  1  0
  6  8  1  0
M  END
> <minimizedAffinity>
-7.81527

> <CNNscore>
0.4752192795

> <CNNaffinity>
5.9109878540

> <CNN_VS>
2.8090152740

> <CNNaffinity_variance>
0.0221860390

$$$$



 28 29  0  0  0  0  0  0  0  0999 V2000
   16.8832   26.8066   49.8043 C   0  0  0  0  0  0  0  0  0  0  0  0
   16.2810   25.5713   50.0650 C   0  0  0  0  0  0  0  0  0  0  0  0
   16.8491   24.3603   49.6202 C   0  0  0  0  0  0  0  0  0  0  0  0
   18.0551   24.4147   48.8874 C   0  0  0  0  0  0  0  0  0  0  0  0
   18.6237   25.6747   48.5786 C   0  0  0  0  0  0  0  0  0  0  0  0
   19.7667   25.7891   47.8187 O   0  0  0  0  0  0  0  0  0  0  0  0
   18.0496   26.8774   49.0301 C   0  0  0  0  0  0  0  0  0  0  0  0
   20.1908   25.0202   47.4917 H   0  0  0  0  0  0  0  0  0  0  0  0
   18.7802   23.2161   48.3899 C   0  0  0  0  0  0  0  0  0  0  0  0
   19.4189   22.4607   49.1057 O   0  0  0  0  0  0  0  0  0  0  0  0
   18.6185   22.9478   47.0871 O   0  0  0  0  0  0  0  0  0  0  0  0
   18.1267   23.5334   46.5457 H   0  0  0  0  0  0  0  0  0  0  0  0
   14.9936   28.2042   49.7693 C   0  0  0  0  0  0  0  0  0  0  0  0
   16.3274   27.9875   50.2274 O   0  0  0  0  0  0  0  0  0  0  0  0
   16.0804   23.0906   49.9288 C   0  0  0  0  0  0  0  0  0  0  0  0
   15.1832   22.6495   48.7673 C   0  0  0  0  0  0  0  0  0  0  0  0
   15.2657   21.1598   48.5362 C   0  0  0  0  0  0  0  0  0  0  0  0
   16.3614   20.6041   47.8571 C   0  0  0  0  0  0  0  0  0  0  0  0
   16.4246   19.2287   47.6300 C   0  0  0  0  0  0  0  0  0  0  0  0
   15.3936   18.4117   48.0783 C   0  0  0  0  0  0  0  0  0  0  0  0
   15.4555   17.0917   47.8599 F   0  0  0  0  0  0  0  0  0  0  0  0
   14.2990   18.9434   48.7509 C   0  0  0  0  0  0  0  0  0  0  0  0
   14.2331   20.3182   48.9786 C   0  0  0  0  0  0  0  0  0  0  0  0
   18.6969   28.2153   48.7289 C   0  0  0  0  0  0  0  0  0  0  0  0
   18.3958   28.6972   47.3316 C   0  0  0  0  0  0  0  0  0  0  0  0
   19.2589   29.0911   46.3739 C   0  0  0  0  0  0  0  0  0  0  0  0
   20.7537   29.1462   46.5229 C   0  0  0  0  0  0  0  0  0  0  0  0
   18.7559   29.5363   45.0263 C   0  0  0  0  0  0  0  0  0  0  0  0
 13 14  1  0
 14  1  1  0
  1  2  2  0
  2  3  1  0
  3 15  1  0
 15 16  1  0
 16 17  1  0
 17 18  2  0
 18 19  1  0
 19 20  2  0
 20 21  1  0
 20 22  1  0
 22 23  2  0
  3  4  2  0
  4  9  1  0
  9 10  2  0
  9 11  1  0
  4  5  1  0
  5  6  1  0
  5  7  2  0
  7 24  1  0
 24 25  1  0
 25 26  2  0
 26 27  1  0
 26 28  1  0
  7  1  1  0
 23 17  1  0
 11 12  1  0
  6  8  1  0
M  END
> <minimizedAffinity>
-6.95230

> <CNNscore>
0.4687586129

> <CNNaffinity>
5.4774422646

> <CNN_VS>
2.5675983429

> <CNNaffinity_variance>
0.0752740055

$$$$



 28 29  0  0  0  0  0  0  0  0999 V2000
   16.8582   25.1526   49.6518 C   0  0  0  0  0  0  0  0  0  0  0  0
   17.1180   23.8034   49.3896 C   0  0  0  0  0  0  0  0  0  0  0  0
   18.2348   23.3964   48.6318 C   0  0  0  0  0  0  0  0  0  0  0  0
   19.1002   24.3911   48.1258 C   0  0  0  0  0  0  0  0  0  0  0  0
   18.7939   25.7562   48.3473 C   0  0  0  0  0  0  0  0  0  0  0  0
   19.5709   26.7683   47.8286 O   0  0  0  0  0  0  0  0  0  0  0  0
   17.6779   26.1513   49.1078 C   0  0  0  0  0  0  0  0  0  0  0  0
   20.3265   26.5623   47.3143 H   0  0  0  0  0  0  0  0  0  0  0  0
   20.3309   24.1025   47.3435 C   0  0  0  0  0  0  0  0  0  0  0  0
   21.3199   23.5561   47.8068 O   0  0  0  0  0  0  0  0  0  0  0  0
   20.2647   24.4015   46.0391 O   0  0  0  0  0  0  0  0  0  0  0  0
   19.5017   24.8208   45.6927 H   0  0  0  0  0  0  0  0  0  0  0  0
   15.7695   25.1012   51.7343 C   0  0  0  0  0  0  0  0  0  0  0  0
   15.7666   25.5522   50.3806 O   0  0  0  0  0  0  0  0  0  0  0  0
   18.3853   21.9090   48.3807 C   0  0  0  0  0  0  0  0  0  0  0  0
   17.5662   21.4301   47.1772 C   0  0  0  0  0  0  0  0  0  0  0  0
   16.4127   20.5541   47.6032 C   0  0  0  0  0  0  0  0  0  0  0  0
   16.5613   19.1594   47.6615 C   0  0  0  0  0  0  0  0  0  0  0  0
   15.4871   18.3525   48.0385 C   0  0  0  0  0  0  0  0  0  0  0  0
   14.2670   18.9384   48.3537 C   0  0  0  0  0  0  0  0  0  0  0  0
   13.2367   18.1628   48.7157 F   0  0  0  0  0  0  0  0  0  0  0  0
   14.0993   20.3176   48.3000 C   0  0  0  0  0  0  0  0  0  0  0  0
   15.1716   21.1266   47.9226 C   0  0  0  0  0  0  0  0  0  0  0  0
   17.3907   27.6163   49.3735 C   0  0  0  0  0  0  0  0  0  0  0  0
   17.9615   28.0838   50.6892 C   0  0  0  0  0  0  0  0  0  0  0  0
   17.3136   28.6140   51.7458 C   0  0  0  0  0  0  0  0  0  0  0  0
   15.8341   28.8703   51.8165 C   0  0  0  0  0  0  0  0  0  0  0  0
   18.0699   29.0163   52.9841 C   0  0  0  0  0  0  0  0  0  0  0  0
 13 14  1  0
 14  1  1  0
  1  2  2  0
  2  3  1  0
  3 15  1  0
 15 16  1  0
 16 17  1  0
 17 18  2  0
 18 19  1  0
 19 20  2  0
 20 21  1  0
 20 22  1  0
 22 23  2  0
  3  4  2  0
  4  9  1  0
  9 10  2  0
  9 11  1  0
  4  5  1  0
  5  6  1  0
  5  7  2  0
  7 24  1  0
 24 25  1  0
 25 26  2  0
 26 27  1  0
 26 28  1  0
  7  1  1  0
 23 17  1  0
 11 12  1  0
  6  8  1  0
M  END
> <minimizedAffinity>
-7.09757

> <CNNscore>
0.4675661027

> <CNNaffinity>
6.0267577171

> <CNN_VS>
2.8179075718

> <CNNaffinity_variance>
0.1062127054

$$$$
