


 18 19  0  0  0  0  0  0  0  0999 V2000
   82.4400   72.1186   -7.3594 C   0  0  0  0  0  0  0  0  0  0  0  0
   83.4854   72.0599   -8.2834 C   0  0  0  0  0  0  0  0  0  0  0  0
   83.3314   71.3945   -9.5108 C   0  0  0  0  0  0  0  0  0  0  0  0
   82.0880   70.7999   -9.7426 C   0  0  0  0  0  0  0  0  0  0  0  0
   81.0460   70.8233   -8.8816 N   0  0  0  0  0  0  0  0  0  0  0  0
   81.2513   71.4814   -7.7178 C   0  0  0  0  0  0  0  0  0  0  0  0
   79.8730   71.4612   -6.6839 Cl  0  0  0  0  0  0  0  0  0  0  0  0
   84.4224   71.3578  -10.4074 N   0  0  0  0  0  0  0  0  0  0  0  0
   83.9717   70.9912  -11.7630 C   0  0  0  0  0  0  0  0  0  0  0  0
   85.1241   70.6013  -12.6872 C   0  0  0  0  0  0  0  0  0  0  0  0
   85.9453   71.8033  -13.1493 C   0  0  0  0  0  0  0  0  0  0  0  0
   87.0104   72.2489  -12.2589 N   0  0  0  0  0  0  0  0  0  0  0  0
   86.7521   72.1331  -10.8217 C   0  0  0  0  0  0  0  0  0  0  0  0
   85.3429   72.5105  -10.3218 C   0  0  0  0  0  0  0  0  0  0  0  0
   87.1939   73.2313  -12.4627 H   0  0  0  0  0  0  0  0  0  0  0  0
   82.4948   72.7438   -6.1442 O   0  0  0  0  0  0  0  0  0  0  0  0
   82.5954   74.7242   -4.8255 C   0  0  0  0  0  0  0  0  0  0  0  0
   82.0000   74.0789   -6.0641 C   0  0  0  0  0  0  0  0  0  0  0  0
 17 18  1  0
 18 16  1  0
 16  1  1  0
  1  2  2  0
  2  3  1  0
  3  8  1  0
  8  9  1  0
  9 10  1  0
 10 11  1  0
 11 12  1  0
 12 13  1  0
 13 14  1  0
  3  4  2  0
  4  5  1  0
  5  6  2  0
  6  7  1  0
  6  1  1  0
 14  8  1  0
 12 15  1  0
M  END
> <minimizedAffinity>
-5.20908

> <CNNscore>
0.8772543073

> <CNNaffinity>
7.6493282318

> <CNN_VS>
6.7104063034

> <CNNaffinity_variance>
1.2945132256

$$$$



 18 19  0  0  0  0  0  0  0  0999 V2000
   81.2888   70.9854   -9.1394 C   0  0  0  0  0  0  0  0  0  0  0  0
   82.3947   70.9814   -9.9923 C   0  0  0  0  0  0  0  0  0  0  0  0
   83.6410   71.4683   -9.5654 C   0  0  0  0  0  0  0  0  0  0  0  0
   83.7021   71.9543   -8.2565 C   0  0  0  0  0  0  0  0  0  0  0  0
   82.6627   71.9852   -7.3927 N   0  0  0  0  0  0  0  0  0  0  0  0
   81.4888   71.5000   -7.8577 C   0  0  0  0  0  0  0  0  0  0  0  0
   80.2223   71.5775   -6.6920 Cl  0  0  0  0  0  0  0  0  0  0  0  0
   84.7261   71.4487  -10.4698 N   0  0  0  0  0  0  0  0  0  0  0  0
   84.2906   70.9762  -11.7972 C   0  0  0  0  0  0  0  0  0  0  0  0
   85.4593   70.6070  -12.7095 C   0  0  0  0  0  0  0  0  0  0  0  0
   86.1991   71.8298  -13.2484 C   0  0  0  0  0  0  0  0  0  0  0  0
   87.2395   72.3927  -12.3962 N   0  0  0  0  0  0  0  0  0  0  0  0
   86.9988   72.3445  -10.9521 C   0  0  0  0  0  0  0  0  0  0  0  0
   85.5718   72.6603  -10.4602 C   0  0  0  0  0  0  0  0  0  0  0  0
   87.3587   73.3713  -12.6580 H   0  0  0  0  0  0  0  0  0  0  0  0
   80.0404   70.5308   -9.4636 O   0  0  0  0  0  0  0  0  0  0  0  0
   79.7508   68.6710  -10.9225 C   0  0  0  0  0  0  0  0  0  0  0  0
   79.7948   70.1854  -10.8252 C   0  0  0  0  0  0  0  0  0  0  0  0
 17 18  1  0
 18 16  1  0
 16  1  1  0
  1  2  2  0
  2  3  1  0
  3  8  1  0
  8  9  1  0
  9 10  1  0
 10 11  1  0
 11 12  1  0
 12 13  1  0
 13 14  1  0
  3  4  2  0
  4  5  1  0
  5  6  2  0
  6  7  1  0
  6  1  1  0
 14  8  1  0
 12 15  1  0
M  END
> <minimizedAffinity>
-5.90931

> <CNNscore>
0.6721119285

> <CNNaffinity>
7.0678238869

> <CNN_VS>
4.7503685951

> <CNNaffinity_variance>
0.2318218946

$$$$



 18 19  0  0  0  0  0  0  0  0999 V2000
   78.3901   63.7374   -9.2184 C   0  0  0  0  0  0  0  0  0  0  0  0
   79.4125   62.8436   -8.8931 C   0  0  0  0  0  0  0  0  0  0  0  0
   80.7525   63.1325   -9.1994 C   0  0  0  0  0  0  0  0  0  0  0  0
   80.9933   64.3486   -9.8448 C   0  0  0  0  0  0  0  0  0  0  0  0
   80.0414   65.2459  -10.1856 N   0  0  0  0  0  0  0  0  0  0  0  0
   78.7702   64.9157   -9.8625 C   0  0  0  0  0  0  0  0  0  0  0  0
   77.6256   66.1149  -10.3325 Cl  0  0  0  0  0  0  0  0  0  0  0  0
   81.7482   62.1912   -8.8555 N   0  0  0  0  0  0  0  0  0  0  0  0
   82.8185   62.8286   -8.0661 C   0  0  0  0  0  0  0  0  0  0  0  0
   84.0735   61.9639   -7.9592 C   0  0  0  0  0  0  0  0  0  0  0  0
   83.9001   60.7839   -7.0050 C   0  0  0  0  0  0  0  0  0  0  0  0
   83.2995   59.5768   -7.5600 N   0  0  0  0  0  0  0  0  0  0  0  0
   82.2597   59.7706   -8.5734 C   0  0  0  0  0  0  0  0  0  0  0  0
   81.2411   60.9040   -8.3365 C   0  0  0  0  0  0  0  0  0  0  0  0
   82.8863   59.0533   -6.7883 H   0  0  0  0  0  0  0  0  0  0  0  0
   77.0612   63.5451   -8.9585 O   0  0  0  0  0  0  0  0  0  0  0  0
   75.6896   61.6347   -8.5843 C   0  0  0  0  0  0  0  0  0  0  0  0
   76.7133   62.5746   -7.9732 C   0  0  0  0  0  0  0  0  0  0  0  0
 17 18  1  0
 18 16  1  0
 16  1  1  0
  1  2  2  0
  2  3  1  0
  3  8  1  0
  8  9  1  0
  9 10  1  0
 10 11  1  0
 11 12  1  0
 12 13  1  0
 13 14  1  0
  3  4  2  0
  4  5  1  0
  5  6  2  0
  6  7  1  0
  6  1  1  0
 14  8  1  0
 12 15  1  0
M  END
> <minimizedAffinity>
-3.86041

> <CNNscore>
0.4862634242

> <CNNaffinity>
4.5702652931

> <CNN_VS>
2.2223527431

> <CNNaffinity_variance>
0.0214615688

$$$$



 18 19  0  0  0  0  0  0  0  0999 V2000
   77.8637   62.5590   -8.1817 C   0  0  0  0  0  0  0  0  0  0  0  0
   78.8998   61.7191   -8.5956 C   0  0  0  0  0  0  0  0  0  0  0  0
   80.1403   61.7197   -7.9368 C   0  0  0  0  0  0  0  0  0  0  0  0
   80.2719   62.6036   -6.8623 C   0  0  0  0  0  0  0  0  0  0  0  0
   79.3040   63.4396   -6.4244 N   0  0  0  0  0  0  0  0  0  0  0  0
   78.1301   63.3926   -7.0946 C   0  0  0  0  0  0  0  0  0  0  0  0
   76.9565   64.4884   -6.4692 Cl  0  0  0  0  0  0  0  0  0  0  0  0
   81.1579   60.8560   -8.3998 N   0  0  0  0  0  0  0  0  0  0  0  0
   81.1775   60.8158   -9.8739 C   0  0  0  0  0  0  0  0  0  0  0  0
   82.0080   59.6582  -10.4258 C   0  0  0  0  0  0  0  0  0  0  0  0
   83.5114   59.8889  -10.2869 C   0  0  0  0  0  0  0  0  0  0  0  0
   84.1154   59.5158   -9.0135 N   0  0  0  0  0  0  0  0  0  0  0  0
   83.2974   59.7239   -7.8162 C   0  0  0  0  0  0  0  0  0  0  0  0
   82.4694   61.0226   -7.7400 C   0  0  0  0  0  0  0  0  0  0  0  0
   84.9697   60.0621   -8.9038 H   0  0  0  0  0  0  0  0  0  0  0  0
   76.6247   62.6263   -8.7568 O   0  0  0  0  0  0  0  0  0  0  0  0
   74.6518   61.2971   -8.8649 C   0  0  0  0  0  0  0  0  0  0  0  0
   76.0926   61.4310   -9.3240 C   0  0  0  0  0  0  0  0  0  0  0  0
 17 18  1  0
 18 16  1  0
 16  1  1  0
  1  2  2  0
  2  3  1  0
  3  8  1  0
  8  9  1  0
  9 10  1  0
 10 11  1  0
 11 12  1  0
 12 13  1  0
 13 14  1  0
  3  4  2  0
  4  5  1  0
  5  6  2  0
  6  7  1  0
  6  1  1  0
 14  8  1  0
 12 15  1  0
M  END
> <minimizedAffinity>
-3.68628

> <CNNscore>
0.4379434288

> <CNNaffinity>
4.2070007324

> <CNN_VS>
1.8424283266

> <CNNaffinity_variance>
0.6597367525

$$$$



 18 19  0  0  0  0  0  0  0  0999 V2000
   78.2464   64.9504  -10.1532 C   0  0  0  0  0  0  0  0  0  0  0  0
   79.0555   63.8542  -10.4598 C   0  0  0  0  0  0  0  0  0  0  0  0
   79.5279   62.9976   -9.4519 C   0  0  0  0  0  0  0  0  0  0  0  0
   79.1480   63.3098   -8.1437 C   0  0  0  0  0  0  0  0  0  0  0  0
   78.3716   64.3593   -7.7925 N   0  0  0  0  0  0  0  0  0  0  0  0
   77.9434   65.1470   -8.8052 C   0  0  0  0  0  0  0  0  0  0  0  0
   76.9614   66.4566   -8.2669 Cl  0  0  0  0  0  0  0  0  0  0  0  0
   80.3495   61.9071   -9.8145 N   0  0  0  0  0  0  0  0  0  0  0  0
   81.3892   61.6752   -8.7945 C   0  0  0  0  0  0  0  0  0  0  0  0
   82.5041   60.7512   -9.2817 C   0  0  0  0  0  0  0  0  0  0  0  0
   82.0714   59.2882   -9.3541 C   0  0  0  0  0  0  0  0  0  0  0  0
   81.3950   58.8659  -10.5747 N   0  0  0  0  0  0  0  0  0  0  0  0
   80.5163   59.8512  -11.2094 C   0  0  0  0  0  0  0  0  0  0  0  0
   79.6268   60.7074  -10.2854 C   0  0  0  0  0  0  0  0  0  0  0  0
   80.8302   58.0472  -10.3486 H   0  0  0  0  0  0  0  0  0  0  0  0
   77.7378   65.8352  -11.0636 O   0  0  0  0  0  0  0  0  0  0  0  0
   79.0310   67.7792  -11.5322 C   0  0  0  0  0  0  0  0  0  0  0  0
   78.6387   66.3950  -12.0168 C   0  0  0  0  0  0  0  0  0  0  0  0
 17 18  1  0
 18 16  1  0
 16  1  1  0
  1  2  2  0
  2  3  1  0
  3  8  1  0
  8  9  1  0
  9 10  1  0
 10 11  1  0
 11 12  1  0
 12 13  1  0
 13 14  1  0
  3  4  2  0
  4  5  1  0
  5  6  2  0
  6  7  1  0
  6  1  1  0
 14  8  1  0
 12 15  1  0
M  END
> <minimizedAffinity>
-3.77899

> <CNNscore>
0.4255981445

> <CNNaffinity>
4.1244826317

> <CNN_VS>
1.7553721666

> <CNNaffinity_variance>
0.4069845676

$$$$



 18 19  0  0  0  0  0  0  0  0999 V2000
   77.3958   63.8724  -10.4879 C   0  0  0  0  0  0  0  0  0  0  0  0
   77.3095   62.8165   -9.5781 C   0  0  0  0  0  0  0  0  0  0  0  0
   77.6861   62.9841   -8.2354 C   0  0  0  0  0  0  0  0  0  0  0  0
   78.1505   64.2520   -7.8747 C   0  0  0  0  0  0  0  0  0  0  0  0
   78.2579   65.3052   -8.7155 N   0  0  0  0  0  0  0  0  0  0  0  0
   77.8774   65.0858   -9.9947 C   0  0  0  0  0  0  0  0  0  0  0  0
   78.0468   66.4799  -10.9932 Cl  0  0  0  0  0  0  0  0  0  0  0  0
   77.5865   61.8820   -7.3572 N   0  0  0  0  0  0  0  0  0  0  0  0
   76.9495   60.7346   -8.0301 C   0  0  0  0  0  0  0  0  0  0  0  0
   76.5041   59.6462   -7.0548 C   0  0  0  0  0  0  0  0  0  0  0  0
   77.6724   58.8334   -6.5005 C   0  0  0  0  0  0  0  0  0  0  0  0
   78.3579   59.3832   -5.3372 N   0  0  0  0  0  0  0  0  0  0  0  0
   78.4750   60.8421   -5.2765 C   0  0  0  0  0  0  0  0  0  0  0  0
   78.8114   61.5816   -6.5873 C   0  0  0  0  0  0  0  0  0  0  0  0
   79.3013   58.9957   -5.3217 H   0  0  0  0  0  0  0  0  0  0  0  0
   77.0504   63.8057  -11.8096 O   0  0  0  0  0  0  0  0  0  0  0  0
   77.6205   62.0195  -13.2776 C   0  0  0  0  0  0  0  0  0  0  0  0
   78.0466   63.3709  -12.7327 C   0  0  0  0  0  0  0  0  0  0  0  0
 17 18  1  0
 18 16  1  0
 16  1  1  0
  1  2  2  0
  2  3  1  0
  3  8  1  0
  8  9  1  0
  9 10  1  0
 10 11  1  0
 11 12  1  0
 12 13  1  0
 13 14  1  0
  3  4  2  0
  4  5  1  0
  5  6  2  0
  6  7  1  0
  6  1  1  0
 14  8  1  0
 12 15  1  0
M  END
> <minimizedAffinity>
-3.75376

> <CNNscore>
0.4126141071

> <CNNaffinity>
4.0751705170

> <CNN_VS>
1.6814728975

> <CNNaffinity_variance>
0.2805999815

$$$$



 18 19  0  0  0  0  0  0  0  0999 V2000
   76.9841   62.6015   -8.1718 C   0  0  0  0  0  0  0  0  0  0  0  0
   75.9929   61.9281   -8.8890 C   0  0  0  0  0  0  0  0  0  0  0  0
   75.8527   62.1073  -10.2750 C   0  0  0  0  0  0  0  0  0  0  0  0
   76.7496   62.9920  -10.8802 C   0  0  0  0  0  0  0  0  0  0  0  0
   77.7227   63.6714  -10.2328 N   0  0  0  0  0  0  0  0  0  0  0  0
   77.8123   63.4563   -8.9005 C   0  0  0  0  0  0  0  0  0  0  0  0
   79.0778   64.3606   -8.1588 Cl  0  0  0  0  0  0  0  0  0  0  0  0
   74.8290   61.4081  -10.9523 N   0  0  0  0  0  0  0  0  0  0  0  0
   73.8927   60.7946   -9.9920 C   0  0  0  0  0  0  0  0  0  0  0  0
   72.9777   59.7542  -10.6361 C   0  0  0  0  0  0  0  0  0  0  0  0
   71.8821   60.3807  -11.4963 C   0  0  0  0  0  0  0  0  0  0  0  0
   72.2354   60.7012  -12.8740 N   0  0  0  0  0  0  0  0  0  0  0  0
   73.6072   61.1589  -13.1076 C   0  0  0  0  0  0  0  0  0  0  0  0
   74.2129   62.1368  -12.0804 C   0  0  0  0  0  0  0  0  0  0  0  0
   71.6048   61.4370  -13.1925 H   0  0  0  0  0  0  0  0  0  0  0  0
   77.1988   62.4890   -6.8259 O   0  0  0  0  0  0  0  0  0  0  0  0
   79.0298   61.2644   -5.9211 C   0  0  0  0  0  0  0  0  0  0  0  0
   77.5659   61.2075   -6.3192 C   0  0  0  0  0  0  0  0  0  0  0  0
 17 18  1  0
 18 16  1  0
 16  1  1  0
  1  2  2  0
  2  3  1  0
  3  8  1  0
  8  9  1  0
  9 10  1  0
 10 11  1  0
 11 12  1  0
 12 13  1  0
 13 14  1  0
  3  4  2  0
  4  5  1  0
  5  6  2  0
  6  7  1  0
  6  1  1  0
 14  8  1  0
 12 15  1  0
M  END
> <minimizedAffinity>
-3.73296

> <CNNscore>
0.4122883379

> <CNNaffinity>
4.0844397545

> <CNN_VS>
1.6839668751

> <CNNaffinity_variance>
0.1212406754

$$$$



 18 19  0  0  0  0  0  0  0  0999 V2000
   77.6879   63.5919   -8.9627 C   0  0  0  0  0  0  0  0  0  0  0  0
   76.7813   63.0027   -9.8465 C   0  0  0  0  0  0  0  0  0  0  0  0
   76.0005   61.9020   -9.4571 C   0  0  0  0  0  0  0  0  0  0  0  0
   76.1894   61.4377   -8.1524 C   0  0  0  0  0  0  0  0  0  0  0  0
   77.0553   61.9678   -7.2598 N   0  0  0  0  0  0  0  0  0  0  0  0
   77.7773   63.0278   -7.6894 C   0  0  0  0  0  0  0  0  0  0  0  0
   78.8518   63.6382   -6.4886 Cl  0  0  0  0  0  0  0  0  0  0  0  0
   75.1036   61.3382  -10.3917 N   0  0  0  0  0  0  0  0  0  0  0  0
   73.9526   60.7232   -9.7048 C   0  0  0  0  0  0  0  0  0  0  0  0
   73.1352   59.8095  -10.6165 C   0  0  0  0  0  0  0  0  0  0  0  0
   72.2830   60.5834  -11.6204 C   0  0  0  0  0  0  0  0  0  0  0  0
   72.9361   60.9844  -12.8607 N   0  0  0  0  0  0  0  0  0  0  0  0
   74.3503   61.3539  -12.7649 C   0  0  0  0  0  0  0  0  0  0  0  0
   74.7817   62.1986  -11.5490 C   0  0  0  0  0  0  0  0  0  0  0  0
   72.4300   61.7887  -13.2314 H   0  0  0  0  0  0  0  0  0  0  0  0
   78.4861   64.6648   -9.2495 O   0  0  0  0  0  0  0  0  0  0  0  0
   78.3997   66.7105  -10.4654 C   0  0  0  0  0  0  0  0  0  0  0  0
   77.8820   65.9566   -9.2537 C   0  0  0  0  0  0  0  0  0  0  0  0
 17 18  1  0
 18 16  1  0
 16  1  1  0
  1  2  2  0
  2  3  1  0
  3  8  1  0
  8  9  1  0
  9 10  1  0
 10 11  1  0
 11 12  1  0
 12 13  1  0
 13 14  1  0
  3  4  2  0
  4  5  1  0
  5  6  2  0
  6  7  1  0
  6  1  1  0
 14  8  1  0
 12 15  1  0
M  END
> <minimizedAffinity>
-3.89151

> <CNNscore>
0.3819779158

> <CNNaffinity>
4.2011561394

> <CNN_VS>
1.6047488451

> <CNNaffinity_variance>
0.1755530238

$$$$



 18 19  0  0  0  0  0  0  0  0999 V2000
   78.0505   64.7511  -11.6055 C   0  0  0  0  0  0  0  0  0  0  0  0
   77.7706   63.9537  -10.4936 C   0  0  0  0  0  0  0  0  0  0  0  0
   77.7394   64.4993   -9.1998 C   0  0  0  0  0  0  0  0  0  0  0  0
   78.0074   65.8671   -9.0965 C   0  0  0  0  0  0  0  0  0  0  0  0
   78.2880   66.6819  -10.1380 N   0  0  0  0  0  0  0  0  0  0  0  0
   78.3005   66.1019  -11.3599 C   0  0  0  0  0  0  0  0  0  0  0  0
   78.6655   67.2126  -12.6257 Cl  0  0  0  0  0  0  0  0  0  0  0  0
   77.4585   63.6480   -8.1080 N   0  0  0  0  0  0  0  0  0  0  0  0
   77.3467   62.2468   -8.5542 C   0  0  0  0  0  0  0  0  0  0  0  0
   76.7134   61.3369   -7.5029 C   0  0  0  0  0  0  0  0  0  0  0  0
   77.6578   61.0243   -6.3439 C   0  0  0  0  0  0  0  0  0  0  0  0
   77.7032   61.9951   -5.2571 N   0  0  0  0  0  0  0  0  0  0  0  0
   77.5542   63.4033   -5.6319 C   0  0  0  0  0  0  0  0  0  0  0  0
   78.2837   63.8794   -6.9044 C   0  0  0  0  0  0  0  0  0  0  0  0
   78.6029   61.8929   -4.7877 H   0  0  0  0  0  0  0  0  0  0  0  0
   78.0998   64.3117  -12.8996 O   0  0  0  0  0  0  0  0  0  0  0  0
   76.6861   63.0637  -14.3540 C   0  0  0  0  0  0  0  0  0  0  0  0
   77.6318   62.9917  -13.1686 C   0  0  0  0  0  0  0  0  0  0  0  0
 17 18  1  0
 18 16  1  0
 16  1  1  0
  1  2  2  0
  2  3  1  0
  3  8  1  0
  8  9  1  0
  9 10  1  0
 10 11  1  0
 11 12  1  0
 12 13  1  0
 13 14  1  0
  3  4  2  0
  4  5  1  0
  5  6  2  0
  6  7  1  0
  6  1  1  0
 14  8  1  0
 12 15  1  0
M  END
> <minimizedAffinity>
-4.66959

> <CNNscore>
0.3191156387

> <CNNaffinity>
4.3366265297

> <CNN_VS>
1.3838853836

> <CNNaffinity_variance>
0.3255982101

$$$$
