


 32 35  0  0  0  0  0  0  0  0999 V2000
   -7.9239  -22.9905   24.0738 C   0  0  0  0  0  0  0  0  0  0  0  0
   -6.8313  -22.5174   23.4329 N   0  0  0  0  0  0  0  0  0  0  0  0
   -6.9687  -21.5288   22.5087 C   0  0  0  0  0  0  0  0  0  0  0  0
   -8.2370  -21.0195   22.2387 C   0  0  0  0  0  0  0  0  0  0  0  0
   -8.7262  -20.0475   21.3906 N   0  0  0  0  0  0  0  0  0  0  0  0
  -10.0257  -20.0348   21.5998 C   0  0  0  0  0  0  0  0  0  0  0  0
  -10.3970  -20.9520   22.5443 N   0  0  0  0  0  0  0  0  0  0  0  0
   -9.2655  -21.5892   22.9636 C   0  0  0  0  0  0  0  0  0  0  0  0
   -9.1834  -22.5585   23.8817 N   0  0  0  0  0  0  0  0  0  0  0  0
  -11.3129  -21.1214   22.8631 H   0  0  0  0  0  0  0  0  0  0  0  0
   -7.6372  -23.9977   24.9944 N   0  0  0  0  0  0  0  0  0  0  0  0
   -8.3492  -24.1153   25.6641 H   0  0  0  0  0  0  0  0  0  0  0  0
   -4.3728  -26.6295   25.4170 C   0  0  0  0  0  0  0  0  0  0  0  0
   -4.9852  -26.1252   26.5626 C   0  0  0  0  0  0  0  0  0  0  0  0
   -6.0713  -25.2505   26.4376 C   0  0  0  0  0  0  0  0  0  0  0  0
   -6.5677  -24.8785   25.1821 C   0  0  0  0  0  0  0  0  0  0  0  0
   -5.9343  -25.4111   24.0443 C   0  0  0  0  0  0  0  0  0  0  0  0
   -4.8481  -26.2849   24.1531 C   0  0  0  0  0  0  0  0  0  0  0  0
   -3.5555  -28.8120   26.7327 N   0  0  0  0  0  0  0  0  0  0  0  0
   -2.9984  -27.7385   25.5601 S   0  0  0  0  0  0  0  0  0  0  0  0
   -1.8808  -27.0133   26.1146 O   0  0  0  0  0  0  0  0  0  0  0  0
   -2.9003  -28.5104   24.3426 O   0  0  0  0  0  0  0  0  0  0  0  0
   -2.8423  -29.5187   26.9130 H   0  0  0  0  0  0  0  0  0  0  0  0
   -4.4072  -29.2652   26.4017 H   0  0  0  0  0  0  0  0  0  0  0  0
   -5.8634  -21.0354   21.8441 O   0  0  0  0  0  0  0  0  0  0  0  0
   -6.0616  -20.8836   20.4380 C   0  0  0  0  0  0  0  0  0  0  0  0
   -5.1535  -21.8823   19.6987 C   0  0  0  0  0  0  0  0  0  0  0  0
   -3.8634  -21.1922   19.2092 C   0  0  0  0  0  0  0  0  0  0  0  0
   -2.7317  -22.1921   19.0097 C   0  0  0  0  0  0  0  0  0  0  0  0
   -2.3613  -22.8937   20.3173 C   0  0  0  0  0  0  0  0  0  0  0  0
   -3.5330  -23.0245   21.2922 C   0  0  0  0  0  0  0  0  0  0  0  0
   -4.8680  -23.1243   20.5639 C   0  0  0  0  0  0  0  0  0  0  0  0
 19 20  1  0
 20 21  2  0
 20 22  2  0
 20 13  1  0
 13 14  2  0
 14 15  1  0
 15 16  2  0
 16 11  1  0
 11  1  1  0
  1  2  2  0
  2  3  1  0
  3 25  1  0
 25 26  1  0
 26 27  1  0
 27 28  1  0
 28 29  1  0
 29 30  1  0
 30 31  1  0
 31 32  1  0
  3  4  2  0
  4  5  1  0
  5  6  2  0
  6  7  1  0
  7  8  1  0
  8  9  2  0
 16 17  1  0
 17 18  2  0
 18 13  1  0
  9  1  1  0
 32 27  1  0
  8  4  1  0
 19 23  1  0
 19 24  1  0
 11 12  1  0
  7 10  1  0
M  END
> <minimizedAffinity>
-9.32047

> <CNNscore>
0.9779526591

> <CNNaffinity>
7.3254795074

> <CNN_VS>
7.1639723778

> <CNNaffinity_variance>
0.0718426853

$$$$



 32 35  0  0  0  0  0  0  0  0999 V2000
   -7.7308  -24.0420   24.2364 C   0  0  0  0  0  0  0  0  0  0  0  0
   -6.7956  -23.1418   23.8576 N   0  0  0  0  0  0  0  0  0  0  0  0
   -7.1832  -21.9615   23.3037 C   0  0  0  0  0  0  0  0  0  0  0  0
   -8.5415  -21.7003   23.1367 C   0  0  0  0  0  0  0  0  0  0  0  0
   -9.2652  -20.6421   22.6267 N   0  0  0  0  0  0  0  0  0  0  0  0
  -10.5257  -21.0021   22.7457 C   0  0  0  0  0  0  0  0  0  0  0  0
  -10.6485  -22.2421   23.3100 N   0  0  0  0  0  0  0  0  0  0  0  0
   -9.3897  -22.7019   23.5669 C   0  0  0  0  0  0  0  0  0  0  0  0
   -9.0604  -23.8755   24.1179 N   0  0  0  0  0  0  0  0  0  0  0  0
  -11.4910  -22.7162   23.4965 H   0  0  0  0  0  0  0  0  0  0  0  0
   -7.1939  -25.2036   24.7902 N   0  0  0  0  0  0  0  0  0  0  0  0
   -7.7722  -25.9897   24.6608 H   0  0  0  0  0  0  0  0  0  0  0  0
   -3.5812  -26.1098   26.7623 C   0  0  0  0  0  0  0  0  0  0  0  0
   -4.6565  -25.6336   27.5097 C   0  0  0  0  0  0  0  0  0  0  0  0
   -5.8633  -25.3292   26.8682 C   0  0  0  0  0  0  0  0  0  0  0  0
   -6.0201  -25.5050   25.4878 C   0  0  0  0  0  0  0  0  0  0  0  0
   -4.9196  -25.9958   24.7616 C   0  0  0  0  0  0  0  0  0  0  0  0
   -3.7079  -26.3033   25.3880 C   0  0  0  0  0  0  0  0  0  0  0  0
   -1.1277  -25.1361   27.2040 N   0  0  0  0  0  0  0  0  0  0  0  0
   -2.0487  -26.5007   27.5610 S   0  0  0  0  0  0  0  0  0  0  0  0
   -1.4547  -27.6287   26.8847 O   0  0  0  0  0  0  0  0  0  0  0  0
   -2.2527  -26.4679   28.9910 O   0  0  0  0  0  0  0  0  0  0  0  0
   -0.1997  -25.2350   27.6156 H   0  0  0  0  0  0  0  0  0  0  0  0
   -1.5835  -24.3083   27.5880 H   0  0  0  0  0  0  0  0  0  0  0  0
   -6.2411  -21.0319   22.9100 O   0  0  0  0  0  0  0  0  0  0  0  0
   -4.9850  -21.6075   22.5489 C   0  0  0  0  0  0  0  0  0  0  0  0
   -4.6754  -21.2439   21.0859 C   0  0  0  0  0  0  0  0  0  0  0  0
   -4.2737  -22.4981   20.2822 C   0  0  0  0  0  0  0  0  0  0  0  0
   -4.5198  -22.3127   18.7904 C   0  0  0  0  0  0  0  0  0  0  0  0
   -6.0004  -22.0775   18.4875 C   0  0  0  0  0  0  0  0  0  0  0  0
   -6.7549  -21.3926   19.6286 C   0  0  0  0  0  0  0  0  0  0  0  0
   -5.8458  -20.4779   20.4407 C   0  0  0  0  0  0  0  0  0  0  0  0
 19 20  1  0
 20 21  2  0
 20 22  2  0
 20 13  1  0
 13 14  2  0
 14 15  1  0
 15 16  2  0
 16 11  1  0
 11  1  1  0
  1  2  2  0
  2  3  1  0
  3 25  1  0
 25 26  1  0
 26 27  1  0
 27 28  1  0
 28 29  1  0
 29 30  1  0
 30 31  1  0
 31 32  1  0
  3  4  2  0
  4  5  1  0
  5  6  2  0
  6  7  1  0
  7  8  1  0
  8  9  2  0
 16 17  1  0
 17 18  2  0
 18 13  1  0
  9  1  1  0
 32 27  1  0
  8  4  1  0
 19 23  1  0
 19 24  1  0
 11 12  1  0
  7 10  1  0
M  END
> <minimizedAffinity>
-8.38537

> <CNNscore>
0.9317976832

> <CNNaffinity>
7.1381850243

> <CNN_VS>
6.6513442993

> <CNNaffinity_variance>
0.1074176431

$$$$



 32 35  0  0  0  0  0  0  0  0999 V2000
   -7.3843  -23.2475   23.7561 C   0  0  0  0  0  0  0  0  0  0  0  0
   -6.2665  -23.0263   23.0280 N   0  0  0  0  0  0  0  0  0  0  0  0
   -6.1944  -21.9339   22.2208 C   0  0  0  0  0  0  0  0  0  0  0  0
   -7.2771  -21.0593   22.1591 C   0  0  0  0  0  0  0  0  0  0  0  0
   -7.5374  -19.8929   21.4696 N   0  0  0  0  0  0  0  0  0  0  0  0
   -8.7501  -19.5407   21.8407 C   0  0  0  0  0  0  0  0  0  0  0  0
   -9.2833  -20.4245   22.7383 N   0  0  0  0  0  0  0  0  0  0  0  0
   -8.3543  -21.4006   22.9534 C   0  0  0  0  0  0  0  0  0  0  0  0
   -8.4739  -22.4584   23.7633 N   0  0  0  0  0  0  0  0  0  0  0  0
  -10.1743  -20.3670   23.1532 H   0  0  0  0  0  0  0  0  0  0  0  0
   -7.3202  -24.3992   24.5394 N   0  0  0  0  0  0  0  0  0  0  0  0
   -8.2096  -24.7510   24.7727 H   0  0  0  0  0  0  0  0  0  0  0  0
   -4.2498  -26.7106   26.2689 C   0  0  0  0  0  0  0  0  0  0  0  0
   -4.3821  -26.6946   24.8818 C   0  0  0  0  0  0  0  0  0  0  0  0
   -5.3970  -25.9306   24.2931 C   0  0  0  0  0  0  0  0  0  0  0  0
   -6.2790  -25.1679   25.0687 C   0  0  0  0  0  0  0  0  0  0  0  0
   -6.1146  -25.1972   26.4657 C   0  0  0  0  0  0  0  0  0  0  0  0
   -5.1065  -25.9560   27.0681 C   0  0  0  0  0  0  0  0  0  0  0  0
   -1.5976  -27.0689   26.2570 N   0  0  0  0  0  0  0  0  0  0  0  0
   -2.9690  -27.6717   27.0274 S   0  0  0  0  0  0  0  0  0  0  0  0
   -3.1341  -29.0492   26.6301 O   0  0  0  0  0  0  0  0  0  0  0  0
   -2.8468  -27.2680   28.4094 O   0  0  0  0  0  0  0  0  0  0  0  0
   -0.7701  -27.5491   26.6107 H   0  0  0  0  0  0  0  0  0  0  0  0
   -1.5155  -26.0691   26.4420 H   0  0  0  0  0  0  0  0  0  0  0  0
   -5.0609  -21.6941   21.4696 O   0  0  0  0  0  0  0  0  0  0  0  0
   -4.0036  -21.0812   22.2084 C   0  0  0  0  0  0  0  0  0  0  0  0
   -2.6686  -21.7196   21.7858 C   0  0  0  0  0  0  0  0  0  0  0  0
   -2.8502  -23.2215   21.4834 C   0  0  0  0  0  0  0  0  0  0  0  0
   -1.7671  -23.7417   20.5471 C   0  0  0  0  0  0  0  0  0  0  0  0
   -1.8050  -23.0338   19.1918 C   0  0  0  0  0  0  0  0  0  0  0  0
   -2.3349  -21.6007   19.2669 C   0  0  0  0  0  0  0  0  0  0  0  0
   -2.0294  -20.9532   20.6123 C   0  0  0  0  0  0  0  0  0  0  0  0
 19 20  1  0
 20 21  2  0
 20 22  2  0
 20 13  1  0
 13 14  2  0
 14 15  1  0
 15 16  2  0
 16 11  1  0
 11  1  1  0
  1  2  2  0
  2  3  1  0
  3 25  1  0
 25 26  1  0
 26 27  1  0
 27 28  1  0
 28 29  1  0
 29 30  1  0
 30 31  1  0
 31 32  1  0
  3  4  2  0
  4  5  1  0
  5  6  2  0
  6  7  1  0
  7  8  1  0
  8  9  2  0
 16 17  1  0
 17 18  2  0
 18 13  1  0
  9  1  1  0
 32 27  1  0
  8  4  1  0
 19 23  1  0
 19 24  1  0
 11 12  1  0
  7 10  1  0
M  END
> <minimizedAffinity>
-8.29979

> <CNNscore>
0.8677708507

> <CNNaffinity>
7.0643849373

> <CNN_VS>
6.1302671432

> <CNNaffinity_variance>
0.0161335412

$$$$



 32 35  0  0  0  0  0  0  0  0999 V2000
   -6.3923  -24.4694   24.4416 C   0  0  0  0  0  0  0  0  0  0  0  0
   -5.6398  -24.4463   23.3183 N   0  0  0  0  0  0  0  0  0  0  0  0
   -4.5864  -25.2981   23.1964 C   0  0  0  0  0  0  0  0  0  0  0  0
   -4.3012  -26.1825   24.2345 C   0  0  0  0  0  0  0  0  0  0  0  0
   -3.3412  -27.1519   24.4402 N   0  0  0  0  0  0  0  0  0  0  0  0
   -3.6045  -27.6453   25.6317 C   0  0  0  0  0  0  0  0  0  0  0  0
   -4.6902  -27.0406   26.2032 N   0  0  0  0  0  0  0  0  0  0  0  0
   -5.1481  -26.1039   25.3228 C   0  0  0  0  0  0  0  0  0  0  0  0
   -6.1951  -25.2885   25.4903 N   0  0  0  0  0  0  0  0  0  0  0  0
   -5.0715  -27.2439   27.0877 H   0  0  0  0  0  0  0  0  0  0  0  0
   -7.4382  -23.5474   24.4305 N   0  0  0  0  0  0  0  0  0  0  0  0
   -8.0272  -23.6304   25.2150 H   0  0  0  0  0  0  0  0  0  0  0  0
   -8.5155  -20.4944   21.7323 C   0  0  0  0  0  0  0  0  0  0  0  0
   -9.5182  -21.1507   22.4434 C   0  0  0  0  0  0  0  0  0  0  0  0
   -9.1751  -22.1665   23.3440 C   0  0  0  0  0  0  0  0  0  0  0  0
   -7.8403  -22.5317   23.5576 C   0  0  0  0  0  0  0  0  0  0  0  0
   -6.8499  -21.8448   22.8318 C   0  0  0  0  0  0  0  0  0  0  0  0
   -7.1769  -20.8290   21.9284 C   0  0  0  0  0  0  0  0  0  0  0  0
   -7.9185  -19.5627   19.2955 N   0  0  0  0  0  0  0  0  0  0  0  0
   -8.9348  -19.2059   20.5907 S   0  0  0  0  0  0  0  0  0  0  0  0
   -8.5162  -17.9437   21.1511 O   0  0  0  0  0  0  0  0  0  0  0  0
  -10.2763  -19.4375   20.1066 O   0  0  0  0  0  0  0  0  0  0  0  0
   -8.0632  -18.8799   18.5517 H   0  0  0  0  0  0  0  0  0  0  0  0
   -8.1295  -20.4971   18.9451 H   0  0  0  0  0  0  0  0  0  0  0  0
   -3.8069  -25.2865   22.0567 O   0  0  0  0  0  0  0  0  0  0  0  0
   -2.8684  -24.2109   22.0159 C   0  0  0  0  0  0  0  0  0  0  0  0
   -3.6336  -22.8932   21.7999 C   0  0  0  0  0  0  0  0  0  0  0  0
   -2.7431  -21.6799   22.1391 C   0  0  0  0  0  0  0  0  0  0  0  0
   -3.2122  -20.4201   21.4227 C   0  0  0  0  0  0  0  0  0  0  0  0
   -3.1451  -20.5771   19.9027 C   0  0  0  0  0  0  0  0  0  0  0  0
   -3.3341  -22.0196   19.4298 C   0  0  0  0  0  0  0  0  0  0  0  0
   -4.2224  -22.8155   20.3786 C   0  0  0  0  0  0  0  0  0  0  0  0
 19 20  1  0
 20 21  2  0
 20 22  2  0
 20 13  1  0
 13 14  2  0
 14 15  1  0
 15 16  2  0
 16 11  1  0
 11  1  1  0
  1  2  2  0
  2  3  1  0
  3 25  1  0
 25 26  1  0
 26 27  1  0
 27 28  1  0
 28 29  1  0
 29 30  1  0
 30 31  1  0
 31 32  1  0
  3  4  2  0
  4  5  1  0
  5  6  2  0
  6  7  1  0
  7  8  1  0
  8  9  2  0
 16 17  1  0
 17 18  2  0
 18 13  1  0
  9  1  1  0
 32 27  1  0
  8  4  1  0
 19 23  1  0
 19 24  1  0
 11 12  1  0
  7 10  1  0
M  END
> <minimizedAffinity>
-9.58813

> <CNNscore>
0.7089376450

> <CNNaffinity>
7.4114747047

> <CNN_VS>
5.2542734146

> <CNNaffinity_variance>
0.0469072461

$$$$



 32 35  0  0  0  0  0  0  0  0999 V2000
   -6.5440  -24.7789   25.0327 C   0  0  0  0  0  0  0  0  0  0  0  0
   -5.7289  -24.8995   23.9606 N   0  0  0  0  0  0  0  0  0  0  0  0
   -4.6291  -25.6962   24.0376 C   0  0  0  0  0  0  0  0  0  0  0  0
   -4.3619  -26.3764   25.2238 C   0  0  0  0  0  0  0  0  0  0  0  0
   -3.3686  -27.2395   25.6387 N   0  0  0  0  0  0  0  0  0  0  0  0
   -3.6766  -27.5415   26.8822 C   0  0  0  0  0  0  0  0  0  0  0  0
   -4.8228  -26.9148   27.2880 N   0  0  0  0  0  0  0  0  0  0  0  0
   -5.2741  -26.1670   26.2396 C   0  0  0  0  0  0  0  0  0  0  0  0
   -6.3684  -25.3982   26.2140 N   0  0  0  0  0  0  0  0  0  0  0  0
   -5.2448  -26.9895   28.1743 H   0  0  0  0  0  0  0  0  0  0  0  0
   -7.6320  -23.9349   24.8132 N   0  0  0  0  0  0  0  0  0  0  0  0
   -8.3939  -24.1344   25.4040 H   0  0  0  0  0  0  0  0  0  0  0  0
   -8.5372  -20.7131   22.2515 C   0  0  0  0  0  0  0  0  0  0  0  0
   -7.2028  -21.0609   22.4522 C   0  0  0  0  0  0  0  0  0  0  0  0
   -6.8870  -22.1296   23.2999 C   0  0  0  0  0  0  0  0  0  0  0  0
   -7.8863  -22.8694   23.9442 C   0  0  0  0  0  0  0  0  0  0  0  0
   -9.2244  -22.5002   23.7148 C   0  0  0  0  0  0  0  0  0  0  0  0
   -9.5553  -21.4348   22.8718 C   0  0  0  0  0  0  0  0  0  0  0  0
   -7.8058  -19.5430   19.9584 N   0  0  0  0  0  0  0  0  0  0  0  0
   -8.9515  -19.3641   21.1802 S   0  0  0  0  0  0  0  0  0  0  0  0
   -8.6754  -18.1283   21.8726 O   0  0  0  0  0  0  0  0  0  0  0  0
  -10.2266  -19.6424   20.5604 O   0  0  0  0  0  0  0  0  0  0  0  0
   -7.9365  -18.8113   19.2598 H   0  0  0  0  0  0  0  0  0  0  0  0
   -7.9174  -20.4566   19.5188 H   0  0  0  0  0  0  0  0  0  0  0  0
   -3.7856  -25.8294   22.9525 O   0  0  0  0  0  0  0  0  0  0  0  0
   -3.9614  -24.8149   21.9629 C   0  0  0  0  0  0  0  0  0  0  0  0
   -2.8004  -23.8105   22.0707 C   0  0  0  0  0  0  0  0  0  0  0  0
   -1.6825  -24.3599   22.9811 C   0  0  0  0  0  0  0  0  0  0  0  0
   -0.3369  -23.7179   22.6694 C   0  0  0  0  0  0  0  0  0  0  0  0
    0.1091  -24.0097   21.2357 C   0  0  0  0  0  0  0  0  0  0  0  0
   -1.0551  -24.2062   20.2630 C   0  0  0  0  0  0  0  0  0  0  0  0
   -2.2823  -23.4037   20.6782 C   0  0  0  0  0  0  0  0  0  0  0  0
 19 20  1  0
 20 21  2  0
 20 22  2  0
 20 13  1  0
 13 14  2  0
 14 15  1  0
 15 16  2  0
 16 11  1  0
 11  1  1  0
  1  2  2  0
  2  3  1  0
  3 25  1  0
 25 26  1  0
 26 27  1  0
 27 28  1  0
 28 29  1  0
 29 30  1  0
 30 31  1  0
 31 32  1  0
  3  4  2  0
  4  5  1  0
  5  6  2  0
  6  7  1  0
  7  8  1  0
  8  9  2  0
 16 17  1  0
 17 18  2  0
 18 13  1  0
  9  1  1  0
 32 27  1  0
  8  4  1  0
 19 23  1  0
 19 24  1  0
 11 12  1  0
  7 10  1  0
M  END
> <minimizedAffinity>
-8.93040

> <CNNscore>
0.3230155408

> <CNNaffinity>
6.3173012733

> <CNN_VS>
2.0405864716

> <CNNaffinity_variance>
0.6660566926

$$$$



 32 35  0  0  0  0  0  0  0  0999 V2000
   -8.7598  -29.1995   32.7124 C   0  0  0  0  0  0  0  0  0  0  0  0
   -8.1393  -28.2879   31.9298 N   0  0  0  0  0  0  0  0  0  0  0  0
   -7.1792  -28.6936   31.0559 C   0  0  0  0  0  0  0  0  0  0  0  0
   -6.8518  -30.0457   30.9822 C   0  0  0  0  0  0  0  0  0  0  0  0
   -5.9569  -30.7827   30.2342 N   0  0  0  0  0  0  0  0  0  0  0  0
   -6.1235  -32.0266   30.6311 C   0  0  0  0  0  0  0  0  0  0  0  0
   -7.0851  -32.1263   31.5988 N   0  0  0  0  0  0  0  0  0  0  0  0
   -7.5615  -30.8694   31.8341 C   0  0  0  0  0  0  0  0  0  0  0  0
   -8.5131  -30.5219   32.7076 N   0  0  0  0  0  0  0  0  0  0  0  0
   -7.3796  -32.9535   32.0441 H   0  0  0  0  0  0  0  0  0  0  0  0
   -9.7218  -28.6462   33.5566 N   0  0  0  0  0  0  0  0  0  0  0  0
   -9.3696  -28.4423   34.4531 H   0  0  0  0  0  0  0  0  0  0  0  0
  -13.7579  -27.5532   33.0307 C   0  0  0  0  0  0  0  0  0  0  0  0
  -13.4615  -28.7284   33.7184 C   0  0  0  0  0  0  0  0  0  0  0  0
  -12.1251  -29.1037   33.9015 C   0  0  0  0  0  0  0  0  0  0  0  0
  -11.0733  -28.3154   33.4186 C   0  0  0  0  0  0  0  0  0  0  0  0
  -11.4039  -27.1302   32.7363 C   0  0  0  0  0  0  0  0  0  0  0  0
  -12.7337  -26.7427   32.5449 C   0  0  0  0  0  0  0  0  0  0  0  0
  -16.1435  -28.5119   32.2874 N   0  0  0  0  0  0  0  0  0  0  0  0
  -15.4445  -27.0650   32.7930 S   0  0  0  0  0  0  0  0  0  0  0  0
  -15.5007  -26.1342   31.6917 O   0  0  0  0  0  0  0  0  0  0  0  0
  -16.0288  -26.7819   34.0838 O   0  0  0  0  0  0  0  0  0  0  0  0
  -17.1377  -28.3662   32.1122 H   0  0  0  0  0  0  0  0  0  0  0  0
  -16.0262  -29.2182   33.0139 H   0  0  0  0  0  0  0  0  0  0  0  0
   -6.5347  -27.7755   30.2505 O   0  0  0  0  0  0  0  0  0  0  0  0
   -5.7545  -26.8251   30.9767 C   0  0  0  0  0  0  0  0  0  0  0  0
   -4.5603  -26.3953   30.1063 C   0  0  0  0  0  0  0  0  0  0  0  0
   -4.0799  -27.5627   29.2193 C   0  0  0  0  0  0  0  0  0  0  0  0
   -3.3383  -27.0636   27.9859 C   0  0  0  0  0  0  0  0  0  0  0  0
   -4.2375  -26.2039   27.0961 C   0  0  0  0  0  0  0  0  0  0  0  0
   -5.3272  -25.4588   27.8691 C   0  0  0  0  0  0  0  0  0  0  0  0
   -4.8894  -25.1302   29.2914 C   0  0  0  0  0  0  0  0  0  0  0  0
 19 20  1  0
 20 21  2  0
 20 22  2  0
 20 13  1  0
 13 14  2  0
 14 15  1  0
 15 16  2  0
 16 11  1  0
 11  1  1  0
  1  2  2  0
  2  3  1  0
  3 25  1  0
 25 26  1  0
 26 27  1  0
 27 28  1  0
 28 29  1  0
 29 30  1  0
 30 31  1  0
 31 32  1  0
  3  4  2  0
  4  5  1  0
  5  6  2  0
  6  7  1  0
  7  8  1  0
  8  9  2  0
 16 17  1  0
 17 18  2  0
 18 13  1  0
  9  1  1  0
 32 27  1  0
  8  4  1  0
 19 23  1  0
 19 24  1  0
 11 12  1  0
  7 10  1  0
M  END
> <minimizedAffinity>
-5.72624

> <CNNscore>
0.1382396519

> <CNNaffinity>
4.7573947906

> <CNN_VS>
0.6576606035

> <CNNaffinity_variance>
0.2610635459

$$$$



 32 35  0  0  0  0  0  0  0  0999 V2000
   -3.8755  -24.2845   21.5606 C   0  0  0  0  0  0  0  0  0  0  0  0
   -4.6633  -23.2132   21.3149 N   0  0  0  0  0  0  0  0  0  0  0  0
   -5.7563  -22.9893   22.0929 C   0  0  0  0  0  0  0  0  0  0  0  0
   -6.0450  -23.8704   23.1328 C   0  0  0  0  0  0  0  0  0  0  0  0
   -7.0390  -23.9449   24.0868 N   0  0  0  0  0  0  0  0  0  0  0  0
   -6.7579  -25.0222   24.7889 C   0  0  0  0  0  0  0  0  0  0  0  0
   -5.6283  -25.6448   24.3333 N   0  0  0  0  0  0  0  0  0  0  0  0
   -5.1597  -24.9209   23.2758 C   0  0  0  0  0  0  0  0  0  0  0  0
   -4.0731  -25.1838   22.5413 N   0  0  0  0  0  0  0  0  0  0  0  0
   -5.2269  -26.4651   24.7010 H   0  0  0  0  0  0  0  0  0  0  0  0
   -2.7913  -24.3899   20.6902 N   0  0  0  0  0  0  0  0  0  0  0  0
   -2.9824  -24.9610   19.9114 H   0  0  0  0  0  0  0  0  0  0  0  0
    1.0756  -22.7146   20.7386 C   0  0  0  0  0  0  0  0  0  0  0  0
    0.9022  -23.9959   20.2190 C   0  0  0  0  0  0  0  0  0  0  0  0
   -0.3769  -24.5650   20.1956 C   0  0  0  0  0  0  0  0  0  0  0  0
   -1.4940  -23.8683   20.6728 C   0  0  0  0  0  0  0  0  0  0  0  0
   -1.2886  -22.5733   21.1829 C   0  0  0  0  0  0  0  0  0  0  0  0
   -0.0172  -21.9921   21.2137 C   0  0  0  0  0  0  0  0  0  0  0  0
    2.3189  -20.3776   21.1322 N   0  0  0  0  0  0  0  0  0  0  0  0
    2.6882  -21.9814   20.7730 S   0  0  0  0  0  0  0  0  0  0  0  0
    3.2389  -22.0240   19.4397 O   0  0  0  0  0  0  0  0  0  0  0  0
    3.3986  -22.4839   21.9264 O   0  0  0  0  0  0  0  0  0  0  0  0
    3.1802  -19.8334   21.1822 H   0  0  0  0  0  0  0  0  0  0  0  0
    1.8358  -20.3327   22.0295 H   0  0  0  0  0  0  0  0  0  0  0  0
   -6.5721  -21.9010   21.8548 O   0  0  0  0  0  0  0  0  0  0  0  0
   -7.6104  -21.7413   22.8222 C   0  0  0  0  0  0  0  0  0  0  0  0
   -8.3603  -20.4289   22.5327 C   0  0  0  0  0  0  0  0  0  0  0  0
   -7.6847  -19.6533   21.3829 C   0  0  0  0  0  0  0  0  0  0  0  0
   -8.6588  -18.7053   20.6954 C   0  0  0  0  0  0  0  0  0  0  0  0
   -9.8283  -19.4599   20.0612 C   0  0  0  0  0  0  0  0  0  0  0  0
  -10.1790  -20.7609   20.7856 C   0  0  0  0  0  0  0  0  0  0  0  0
   -9.8568  -20.6860   22.2733 C   0  0  0  0  0  0  0  0  0  0  0  0
 19 20  1  0
 20 21  2  0
 20 22  2  0
 20 13  1  0
 13 14  2  0
 14 15  1  0
 15 16  2  0
 16 11  1  0
 11  1  1  0
  1  2  2  0
  2  3  1  0
  3 25  1  0
 25 26  1  0
 26 27  1  0
 27 28  1  0
 28 29  1  0
 29 30  1  0
 30 31  1  0
 31 32  1  0
  3  4  2  0
  4  5  1  0
  5  6  2  0
  6  7  1  0
  7  8  1  0
  8  9  2  0
 16 17  1  0
 17 18  2  0
 18 13  1  0
  9  1  1  0
 32 27  1  0
  8  4  1  0
 19 23  1  0
 19 24  1  0
 11 12  1  0
  7 10  1  0
M  END
> <minimizedAffinity>
-9.07453

> <CNNscore>
0.1017631143

> <CNNaffinity>
5.1933264732

> <CNN_VS>
0.5284890532

> <CNNaffinity_variance>
1.0937091112

$$$$



 32 35  0  0  0  0  0  0  0  0999 V2000
   -3.9378  -20.5665   19.8678 C   0  0  0  0  0  0  0  0  0  0  0  0
   -2.9721  -20.8275   20.7778 N   0  0  0  0  0  0  0  0  0  0  0  0
   -1.7301  -21.1877   20.3563 C   0  0  0  0  0  0  0  0  0  0  0  0
   -1.4742  -21.2809   18.9899 C   0  0  0  0  0  0  0  0  0  0  0  0
   -0.3663  -21.6081   18.2356 N   0  0  0  0  0  0  0  0  0  0  0  0
   -0.7655  -21.5147   16.9848 C   0  0  0  0  0  0  0  0  0  0  0  0
   -2.0784  -21.1411   16.8974 N   0  0  0  0  0  0  0  0  0  0  0  0
   -2.5461  -20.9865   18.1699 C   0  0  0  0  0  0  0  0  0  0  0  0
   -3.7822  -20.6267   18.5330 N   0  0  0  0  0  0  0  0  0  0  0  0
   -2.5920  -21.0080   16.0681 H   0  0  0  0  0  0  0  0  0  0  0  0
   -5.1583  -20.2070   20.4383 N   0  0  0  0  0  0  0  0  0  0  0  0
   -5.4599  -19.3122   20.1597 H   0  0  0  0  0  0  0  0  0  0  0  0
   -7.7341  -22.1637   23.1398 C   0  0  0  0  0  0  0  0  0  0  0  0
   -8.1575  -20.9779   22.5428 C   0  0  0  0  0  0  0  0  0  0  0  0
   -7.3128  -20.3173   21.6426 C   0  0  0  0  0  0  0  0  0  0  0  0
   -6.0509  -20.8293   21.3164 C   0  0  0  0  0  0  0  0  0  0  0  0
   -5.6551  -22.0328   21.9283 C   0  0  0  0  0  0  0  0  0  0  0  0
   -6.4872  -22.7036   22.8299 C   0  0  0  0  0  0  0  0  0  0  0  0
   -8.1569  -24.5703   24.2316 N   0  0  0  0  0  0  0  0  0  0  0  0
   -8.7933  -23.0113   24.2795 S   0  0  0  0  0  0  0  0  0  0  0  0
  -10.1236  -23.0556   23.7219 O   0  0  0  0  0  0  0  0  0  0  0  0
   -8.5221  -22.5223   25.6118 O   0  0  0  0  0  0  0  0  0  0  0  0
   -8.6887  -25.1740   24.8586 H   0  0  0  0  0  0  0  0  0  0  0  0
   -7.1810  -24.5484   24.5272 H   0  0  0  0  0  0  0  0  0  0  0  0
   -0.7330  -21.4591   21.2722 O   0  0  0  0  0  0  0  0  0  0  0  0
   -0.9554  -22.6531   22.0235 C   0  0  0  0  0  0  0  0  0  0  0  0
    0.1955  -23.6360   21.7445 C   0  0  0  0  0  0  0  0  0  0  0  0
    1.5622  -22.9333   21.8806 C   0  0  0  0  0  0  0  0  0  0  0  0
    2.6770  -23.9257   22.1847 C   0  0  0  0  0  0  0  0  0  0  0  0
    2.4431  -24.6479   23.5126 C   0  0  0  0  0  0  0  0  0  0  0  0
    0.9639  -24.7991   23.8721 C   0  0  0  0  0  0  0  0  0  0  0  0
    0.0853  -24.8914   22.6303 C   0  0  0  0  0  0  0  0  0  0  0  0
 19 20  1  0
 20 21  2  0
 20 22  2  0
 20 13  1  0
 13 14  2  0
 14 15  1  0
 15 16  2  0
 16 11  1  0
 11  1  1  0
  1  2  2  0
  2  3  1  0
  3 25  1  0
 25 26  1  0
 26 27  1  0
 27 28  1  0
 28 29  1  0
 29 30  1  0
 30 31  1  0
 31 32  1  0
  3  4  2  0
  4  5  1  0
  5  6  2  0
  6  7  1  0
  7  8  1  0
  8  9  2  0
 16 17  1  0
 17 18  2  0
 18 13  1  0
  9  1  1  0
 32 27  1  0
  8  4  1  0
 19 23  1  0
 19 24  1  0
 11 12  1  0
  7 10  1  0
M  END
> <minimizedAffinity>
-7.65881

> <CNNscore>
0.0776997507

> <CNNaffinity>
4.4878144264

> <CNN_VS>
0.3487020731

> <CNNaffinity_variance>
1.6276298761

$$$$



 32 35  0  0  0  0  0  0  0  0999 V2000
   -1.3869  -25.6598   23.7465 C   0  0  0  0  0  0  0  0  0  0  0  0
   -1.6834  -26.7555   24.4814 N   0  0  0  0  0  0  0  0  0  0  0  0
   -2.9843  -27.0860   24.7018 C   0  0  0  0  0  0  0  0  0  0  0  0
   -3.9912  -26.2873   24.1639 C   0  0  0  0  0  0  0  0  0  0  0  0
   -5.3701  -26.3257   24.1883 N   0  0  0  0  0  0  0  0  0  0  0  0
   -5.7529  -25.2796   23.4871 C   0  0  0  0  0  0  0  0  0  0  0  0
   -4.6854  -24.5695   23.0105 N   0  0  0  0  0  0  0  0  0  0  0  0
   -3.5518  -25.2006   23.4332 C   0  0  0  0  0  0  0  0  0  0  0  0
   -2.2893  -24.8343   23.1863 N   0  0  0  0  0  0  0  0  0  0  0  0
   -4.7273  -23.7525   22.4628 H   0  0  0  0  0  0  0  0  0  0  0  0
   -0.0176  -25.4423   23.5984 N   0  0  0  0  0  0  0  0  0  0  0  0
    0.3487  -24.8399   24.2856 H   0  0  0  0  0  0  0  0  0  0  0  0
    2.8748  -26.6623   20.7865 C   0  0  0  0  0  0  0  0  0  0  0  0
    2.9348  -27.1743   22.0812 C   0  0  0  0  0  0  0  0  0  0  0  0
    1.9801  -26.7786   23.0258 C   0  0  0  0  0  0  0  0  0  0  0  0
    0.9532  -25.8857   22.6951 C   0  0  0  0  0  0  0  0  0  0  0  0
    0.9137  -25.3931   21.3778 C   0  0  0  0  0  0  0  0  0  0  0  0
    1.8605  -25.7782   20.4237 C   0  0  0  0  0  0  0  0  0  0  0  0
    4.9637  -28.2993   20.4408 N   0  0  0  0  0  0  0  0  0  0  0  0
    4.0754  -27.1555   19.5804 S   0  0  0  0  0  0  0  0  0  0  0  0
    4.9397  -26.0321   19.3090 O   0  0  0  0  0  0  0  0  0  0  0  0
    3.4030  -27.8923   18.5351 O   0  0  0  0  0  0  0  0  0  0  0  0
    5.7051  -28.6710   19.8469 H   0  0  0  0  0  0  0  0  0  0  0  0
    4.3483  -29.0589   20.7319 H   0  0  0  0  0  0  0  0  0  0  0  0
   -3.3045  -28.2007   25.4512 O   0  0  0  0  0  0  0  0  0  0  0  0
   -3.4390  -27.9325   26.8475 C   0  0  0  0  0  0  0  0  0  0  0  0
   -2.8228  -29.1002   27.6382 C   0  0  0  0  0  0  0  0  0  0  0  0
   -1.2918  -28.9430   27.7449 C   0  0  0  0  0  0  0  0  0  0  0  0
   -0.7312  -29.6966   28.9441 C   0  0  0  0  0  0  0  0  0  0  0  0
   -1.2997  -29.1650   30.2608 C   0  0  0  0  0  0  0  0  0  0  0  0
   -2.7080  -28.5829   30.1261 C   0  0  0  0  0  0  0  0  0  0  0  0
   -3.4979  -29.2616   29.0134 C   0  0  0  0  0  0  0  0  0  0  0  0
 19 20  1  0
 20 21  2  0
 20 22  2  0
 20 13  1  0
 13 14  2  0
 14 15  1  0
 15 16  2  0
 16 11  1  0
 11  1  1  0
  1  2  2  0
  2  3  1  0
  3 25  1  0
 25 26  1  0
 26 27  1  0
 27 28  1  0
 28 29  1  0
 29 30  1  0
 30 31  1  0
 31 32  1  0
  3  4  2  0
  4  5  1  0
  5  6  2  0
  6  7  1  0
  7  8  1  0
  8  9  2  0
 16 17  1  0
 17 18  2  0
 18 13  1  0
  9  1  1  0
 32 27  1  0
  8  4  1  0
 19 23  1  0
 19 24  1  0
 11 12  1  0
  7 10  1  0
M  END
> <minimizedAffinity>
-5.26845

> <CNNscore>
0.0767161846

> <CNNaffinity>
3.4277393818

> <CNN_VS>
0.2629630864

> <CNNaffinity_variance>
1.9220746756

$$$$
