


 22 22  0  0  0  0  0  0  0  0999 V2000
   82.5399   36.2673   36.4034 C   0  0  0  0  0  0  0  0  0  0  0  0
   82.4051   34.8302   36.6773 N   0  0  0  0  0  0  0  0  0  0  0  0
   83.3280   34.4265   36.8371 H   0  0  0  0  0  0  0  0  0  0  0  0
   81.9670   34.3715   35.8785 H   0  0  0  0  0  0  0  0  0  0  0  0
   83.1814   37.0037   37.6086 C   0  0  0  0  0  0  0  0  0  0  0  0
   86.3960   37.8109   37.0808 C   0  0  0  0  0  0  0  0  0  0  0  0
   85.7507   36.7345   37.8556 C   0  0  0  0  0  0  0  0  0  0  0  0
   86.5924   35.8801   38.5084 O   0  0  0  0  0  0  0  0  0  0  0  0
   85.8432   34.9291   39.1930 N   0  0  0  0  0  0  0  0  0  0  0  0
   84.5862   35.2533   38.9237 C   0  0  0  0  0  0  0  0  0  0  0  0
   83.6445   34.4905   39.4796 O   0  0  0  0  0  0  0  0  0  0  0  0
   84.4396   36.3742   38.0972 C   0  0  0  0  0  0  0  0  0  0  0  0
   83.8881   33.7626   40.0172 H   0  0  0  0  0  0  0  0  0  0  0  0
   83.4007   36.5002   35.1374 C   0  0  0  0  0  0  0  0  0  0  0  0
   82.7047   36.4439   33.7468 C   0  0  0  0  0  0  0  0  0  0  0  0
   81.1617   36.4873   33.8999 C   0  0  0  0  0  0  0  0  0  0  0  0
   83.0125   35.0613   33.1231 C   0  0  0  0  0  0  0  0  0  0  0  0
   83.0847   37.6076   32.7703 C   0  0  0  0  0  0  0  0  0  0  0  0
   82.2089   38.0716   31.5610 C   0  0  0  0  0  0  0  0  0  0  0  0
   80.9076   38.7747   31.9603 C   0  0  0  0  0  0  0  0  0  0  0  0
   83.0590   39.0885   30.7564 C   0  0  0  0  0  0  0  0  0  0  0  0
   81.8774   36.9176   30.6004 C   0  0  0  0  0  0  0  0  0  0  0  0
  6  7  1  0
  7  8  1  0
  8  9  1  0
  9 10  2  0
 10 11  1  0
 10 12  1  0
 12  5  1  0
  5  1  1  0
  1  2  1  0
  1 14  1  0
 14 15  1  0
 15 16  1  0
 15 17  1  0
 15 18  1  0
 18 19  1  0
 19 20  1  0
 19 21  1  0
 19 22  1  0
 12  7  2  0
 11 13  1  0
  2  3  1  0
  2  4  1  0
M  END
> <minimizedAffinity>
-5.15203

> <CNNscore>
0.1864155382

> <CNNaffinity>
4.4011588097

> <CNN_VS>
0.8204444051

> <CNNaffinity_variance>
0.4656359255

$$$$



 22 22  0  0  0  0  0  0  0  0999 V2000
   82.5882   35.9534   36.9447 C   0  0  0  0  0  0  0  0  0  0  0  0
   83.0958   34.5944   37.1765 N   0  0  0  0  0  0  0  0  0  0  0  0
   84.0947   34.5650   36.9719 H   0  0  0  0  0  0  0  0  0  0  0  0
   82.6047   33.9396   36.5679 H   0  0  0  0  0  0  0  0  0  0  0  0
   83.2962   36.9755   37.8723 C   0  0  0  0  0  0  0  0  0  0  0  0
   85.4788   35.1601   39.6624 C   0  0  0  0  0  0  0  0  0  0  0  0
   85.6514   36.1449   38.5781 C   0  0  0  0  0  0  0  0  0  0  0  0
   86.9379   36.3895   38.1912 O   0  0  0  0  0  0  0  0  0  0  0  0
   86.9398   37.3291   37.1660 N   0  0  0  0  0  0  0  0  0  0  0  0
   85.6568   37.6071   36.9804 C   0  0  0  0  0  0  0  0  0  0  0  0
   85.3737   38.4915   36.0236 O   0  0  0  0  0  0  0  0  0  0  0  0
   84.7830   36.9054   37.8201 C   0  0  0  0  0  0  0  0  0  0  0  0
   86.0661   38.8891   35.5333 H   0  0  0  0  0  0  0  0  0  0  0  0
   82.7963   36.3659   35.4667 C   0  0  0  0  0  0  0  0  0  0  0  0
   81.7829   35.8519   34.4036 C   0  0  0  0  0  0  0  0  0  0  0  0
   80.5180   35.2668   35.0847 C   0  0  0  0  0  0  0  0  0  0  0  0
   82.4380   34.6577   33.6689 C   0  0  0  0  0  0  0  0  0  0  0  0
   81.2787   36.9365   33.3929 C   0  0  0  0  0  0  0  0  0  0  0  0
   82.1090   37.4736   32.1817 C   0  0  0  0  0  0  0  0  0  0  0  0
   81.2601   38.0471   31.0425 C   0  0  0  0  0  0  0  0  0  0  0  0
   82.9984   38.6227   32.7228 C   0  0  0  0  0  0  0  0  0  0  0  0
   83.0620   36.4123   31.6077 C   0  0  0  0  0  0  0  0  0  0  0  0
  6  7  1  0
  7  8  1  0
  8  9  1  0
  9 10  2  0
 10 11  1  0
 10 12  1  0
 12  5  1  0
  5  1  1  0
  1  2  1  0
  1 14  1  0
 14 15  1  0
 15 16  1  0
 15 17  1  0
 15 18  1  0
 18 19  1  0
 19 20  1  0
 19 21  1  0
 19 22  1  0
 12  7  2  0
 11 13  1  0
  2  3  1  0
  2  4  1  0
M  END
> <minimizedAffinity>
-4.80677

> <CNNscore>
0.1701216996

> <CNNaffinity>
4.4948620796

> <CNN_VS>
0.7646735907

> <CNNaffinity_variance>
0.2752666175

$$$$



 22 22  0  0  0  0  0  0  0  0999 V2000
   70.5566   15.8019   44.3313 C   0  0  0  0  0  0  0  0  0  0  0  0
   69.8099   14.5732   44.6331 N   0  0  0  0  0  0  0  0  0  0  0  0
   69.1617   14.7491   45.4008 H   0  0  0  0  0  0  0  0  0  0  0  0
   70.4621   13.8361   44.9010 H   0  0  0  0  0  0  0  0  0  0  0  0
   69.5976   16.9406   43.8954 C   0  0  0  0  0  0  0  0  0  0  0  0
   72.3995   18.4614   42.8465 C   0  0  0  0  0  0  0  0  0  0  0  0
   71.2899   18.8997   43.7139 C   0  0  0  0  0  0  0  0  0  0  0  0
   71.3782   20.1721   44.2012 O   0  0  0  0  0  0  0  0  0  0  0  0
   70.2664   20.4404   44.9925 N   0  0  0  0  0  0  0  0  0  0  0  0
   69.5588   19.3203   44.9455 C   0  0  0  0  0  0  0  0  0  0  0  0
   68.4121   19.3138   45.6258 O   0  0  0  0  0  0  0  0  0  0  0  0
   70.1262   18.3070   44.1628 C   0  0  0  0  0  0  0  0  0  0  0  0
   68.1521   20.0708   46.1129 H   0  0  0  0  0  0  0  0  0  0  0  0
   71.3733   16.2577   45.5654 C   0  0  0  0  0  0  0  0  0  0  0  0
   72.8296   15.7334   45.7258 C   0  0  0  0  0  0  0  0  0  0  0  0
   73.8360   16.9118   45.7934 C   0  0  0  0  0  0  0  0  0  0  0  0
   73.1952   14.9602   44.4360 C   0  0  0  0  0  0  0  0  0  0  0  0
   73.0816   14.8634   47.0032 C   0  0  0  0  0  0  0  0  0  0  0  0
   73.6453   15.4140   48.3537 C   0  0  0  0  0  0  0  0  0  0  0  0
   75.1396   15.7505   48.3206 C   0  0  0  0  0  0  0  0  0  0  0  0
   72.8793   16.7276   48.6565 C   0  0  0  0  0  0  0  0  0  0  0  0
   73.3743   14.4646   49.5324 C   0  0  0  0  0  0  0  0  0  0  0  0
  6  7  1  0
  7  8  1  0
  8  9  1  0
  9 10  2  0
 10 11  1  0
 10 12  1  0
 12  5  1  0
  5  1  1  0
  1  2  1  0
  1 14  1  0
 14 15  1  0
 15 16  1  0
 15 17  1  0
 15 18  1  0
 18 19  1  0
 19 20  1  0
 19 21  1  0
 19 22  1  0
 12  7  2  0
 11 13  1  0
  2  3  1  0
  2  4  1  0
M  END
> <minimizedAffinity>
-4.95840

> <CNNscore>
0.1526444256

> <CNNaffinity>
3.7501666546

> <CNN_VS>
0.5724420547

> <CNNaffinity_variance>
0.5448858738

$$$$



 22 22  0  0  0  0  0  0  0  0999 V2000
   82.5653   36.4323   36.9710 C   0  0  0  0  0  0  0  0  0  0  0  0
   82.6192   35.8810   38.3317 N   0  0  0  0  0  0  0  0  0  0  0  0
   83.5586   35.5310   38.5198 H   0  0  0  0  0  0  0  0  0  0  0  0
   81.9485   35.1171   38.4159 H   0  0  0  0  0  0  0  0  0  0  0  0
   83.5566   37.6148   36.8121 C   0  0  0  0  0  0  0  0  0  0  0  0
   86.6929   37.5858   38.0064 C   0  0  0  0  0  0  0  0  0  0  0  0
   85.4174   38.0762   38.5613 C   0  0  0  0  0  0  0  0  0  0  0  0
   85.4834   38.6445   39.8011 O   0  0  0  0  0  0  0  0  0  0  0  0
   84.2129   39.0589   40.1860 N   0  0  0  0  0  0  0  0  0  0  0  0
   83.4399   38.7237   39.1624 C   0  0  0  0  0  0  0  0  0  0  0  0
   82.1462   39.0271   39.2714 O   0  0  0  0  0  0  0  0  0  0  0  0
   84.1155   38.1080   38.1014 C   0  0  0  0  0  0  0  0  0  0  0  0
   81.8264   39.4433   40.0476 H   0  0  0  0  0  0  0  0  0  0  0  0
   82.8962   35.3365   35.9279 C   0  0  0  0  0  0  0  0  0  0  0  0
   81.9246   35.1362   34.7292 C   0  0  0  0  0  0  0  0  0  0  0  0
   81.1950   36.4606   34.3829 C   0  0  0  0  0  0  0  0  0  0  0  0
   80.8092   34.1652   35.1857 C   0  0  0  0  0  0  0  0  0  0  0  0
   82.6013   34.6454   33.4051 C   0  0  0  0  0  0  0  0  0  0  0  0
   83.5487   35.5171   32.5178 C   0  0  0  0  0  0  0  0  0  0  0  0
   84.2922   36.6163   33.2835 C   0  0  0  0  0  0  0  0  0  0  0  0
   84.6151   34.5595   31.9263 C   0  0  0  0  0  0  0  0  0  0  0  0
   82.8151   36.1503   31.3239 C   0  0  0  0  0  0  0  0  0  0  0  0
  6  7  1  0
  7  8  1  0
  8  9  1  0
  9 10  2  0
 10 11  1  0
 10 12  1  0
 12  5  1  0
  5  1  1  0
  1  2  1  0
  1 14  1  0
 14 15  1  0
 15 16  1  0
 15 17  1  0
 15 18  1  0
 18 19  1  0
 19 20  1  0
 19 21  1  0
 19 22  1  0
 12  7  2  0
 11 13  1  0
  2  3  1  0
  2  4  1  0
M  END
> <minimizedAffinity>
-5.66938

> <CNNscore>
0.1484455317

> <CNNaffinity>
4.1825575829

> <CNN_VS>
0.6208819747

> <CNNaffinity_variance>
0.4276335239

$$$$



 22 22  0  0  0  0  0  0  0  0999 V2000
   71.3111   15.6749   45.3373 C   0  0  0  0  0  0  0  0  0  0  0  0
   71.2429   14.4650   46.1680 N   0  0  0  0  0  0  0  0  0  0  0  0
   71.5241   13.6560   45.6141 H   0  0  0  0  0  0  0  0  0  0  0  0
   70.2874   14.3341   46.5001 H   0  0  0  0  0  0  0  0  0  0  0  0
   72.7574   15.9204   44.8332 C   0  0  0  0  0  0  0  0  0  0  0  0
   74.3695   15.7607   47.7725 C   0  0  0  0  0  0  0  0  0  0  0  0
   74.1446   16.8599   46.8151 C   0  0  0  0  0  0  0  0  0  0  0  0
   74.6902   18.0660   47.1500 O   0  0  0  0  0  0  0  0  0  0  0  0
   74.3995   18.9948   46.1565 N   0  0  0  0  0  0  0  0  0  0  0  0
   73.6944   18.3078   45.2686 C   0  0  0  0  0  0  0  0  0  0  0  0
   73.2911   18.9748   44.1868 O   0  0  0  0  0  0  0  0  0  0  0  0
   73.4931   16.9625   45.6017 C   0  0  0  0  0  0  0  0  0  0  0  0
   73.4987   19.8836   44.0923 H   0  0  0  0  0  0  0  0  0  0  0  0
   70.3543   15.5560   44.1256 C   0  0  0  0  0  0  0  0  0  0  0  0
   69.0886   16.4604   44.0887 C   0  0  0  0  0  0  0  0  0  0  0  0
   69.4535   17.9336   44.4088 C   0  0  0  0  0  0  0  0  0  0  0  0
   68.1576   16.0127   45.2412 C   0  0  0  0  0  0  0  0  0  0  0  0
   68.3308   16.4807   42.7185 C   0  0  0  0  0  0  0  0  0  0  0  0
   67.3253   17.5940   42.2779 C   0  0  0  0  0  0  0  0  0  0  0  0
   67.9789   18.9448   41.9686 C   0  0  0  0  0  0  0  0  0  0  0  0
   66.6479   17.0959   40.9752 C   0  0  0  0  0  0  0  0  0  0  0  0
   66.2010   17.8079   43.3047 C   0  0  0  0  0  0  0  0  0  0  0  0
  6  7  1  0
  7  8  1  0
  8  9  1  0
  9 10  2  0
 10 11  1  0
 10 12  1  0
 12  5  1  0
  5  1  1  0
  1  2  1  0
  1 14  1  0
 14 15  1  0
 15 16  1  0
 15 17  1  0
 15 18  1  0
 18 19  1  0
 19 20  1  0
 19 21  1  0
 19 22  1  0
 12  7  2  0
 11 13  1  0
  2  3  1  0
  2  4  1  0
M  END
> <minimizedAffinity>
-4.61680

> <CNNscore>
0.1433353871

> <CNNaffinity>
4.0124578476

> <CNN_VS>
0.5751271844

> <CNNaffinity_variance>
0.1429099292

$$$$



 22 22  0  0  0  0  0  0  0  0999 V2000
   82.3933   35.9917   36.8392 C   0  0  0  0  0  0  0  0  0  0  0  0
   82.7497   34.5673   36.7885 N   0  0  0  0  0  0  0  0  0  0  0  0
   83.7587   34.4732   36.6727 H   0  0  0  0  0  0  0  0  0  0  0  0
   82.2745   34.1258   36.0013 H   0  0  0  0  0  0  0  0  0  0  0  0
   83.0796   36.6926   38.0409 C   0  0  0  0  0  0  0  0  0  0  0  0
   86.1995   37.6948   37.3161 C   0  0  0  0  0  0  0  0  0  0  0  0
   85.6705   36.5504   38.0817 C   0  0  0  0  0  0  0  0  0  0  0  0
   86.6017   35.7130   38.6260 O   0  0  0  0  0  0  0  0  0  0  0  0
   85.9560   34.6925   39.3158 N   0  0  0  0  0  0  0  0  0  0  0  0
   84.6674   34.9608   39.1576 C   0  0  0  0  0  0  0  0  0  0  0  0
   83.8107   34.1236   39.7431 O   0  0  0  0  0  0  0  0  0  0  0  0
   84.4016   36.1095   38.4019 C   0  0  0  0  0  0  0  0  0  0  0  0
   84.1310   33.3857   40.2236 H   0  0  0  0  0  0  0  0  0  0  0  0
   82.8024   36.7007   35.5247 C   0  0  0  0  0  0  0  0  0  0  0  0
   82.0218   36.3574   34.2230 C   0  0  0  0  0  0  0  0  0  0  0  0
   81.6858   37.6447   33.4254 C   0  0  0  0  0  0  0  0  0  0  0  0
   80.6525   35.7675   34.6381 C   0  0  0  0  0  0  0  0  0  0  0  0
   82.7753   35.4077   33.2319 C   0  0  0  0  0  0  0  0  0  0  0  0
   84.0331   35.8149   32.3973 C   0  0  0  0  0  0  0  0  0  0  0  0
   83.7371   36.7780   31.2431 C   0  0  0  0  0  0  0  0  0  0  0  0
   85.0009   36.5377   33.3695 C   0  0  0  0  0  0  0  0  0  0  0  0
   84.7913   34.5956   31.8470 C   0  0  0  0  0  0  0  0  0  0  0  0
  6  7  1  0
  7  8  1  0
  8  9  1  0
  9 10  2  0
 10 11  1  0
 10 12  1  0
 12  5  1  0
  5  1  1  0
  1  2  1  0
  1 14  1  0
 14 15  1  0
 15 16  1  0
 15 17  1  0
 15 18  1  0
 18 19  1  0
 19 20  1  0
 19 21  1  0
 19 22  1  0
 12  7  2  0
 11 13  1  0
  2  3  1  0
  2  4  1  0
M  END
> <minimizedAffinity>
-5.43243

> <CNNscore>
0.1413552910

> <CNNaffinity>
4.2815608978

> <CNN_VS>
0.6052212715

> <CNNaffinity_variance>
0.1731927246

$$$$



 22 22  0  0  0  0  0  0  0  0999 V2000
   85.5097   37.5617   39.8897 C   0  0  0  0  0  0  0  0  0  0  0  0
   85.0414   38.9494   40.0045 N   0  0  0  0  0  0  0  0  0  0  0  0
   85.7334   39.5768   39.5947 H   0  0  0  0  0  0  0  0  0  0  0  0
   84.9106   39.1838   40.9886 H   0  0  0  0  0  0  0  0  0  0  0  0
   85.6969   37.1608   38.4029 C   0  0  0  0  0  0  0  0  0  0  0  0
   84.6634   38.8136   35.6708 C   0  0  0  0  0  0  0  0  0  0  0  0
   84.0297   37.7823   36.5136 C   0  0  0  0  0  0  0  0  0  0  0  0
   82.7773   37.3890   36.1378 O   0  0  0  0  0  0  0  0  0  0  0  0
   82.3159   36.4169   37.0189 N   0  0  0  0  0  0  0  0  0  0  0  0
   83.3096   36.2674   37.8838 C   0  0  0  0  0  0  0  0  0  0  0  0
   83.1261   35.3653   38.8483 O   0  0  0  0  0  0  0  0  0  0  0  0
   84.4222   37.0811   37.6368 C   0  0  0  0  0  0  0  0  0  0  0  0
   82.3219   34.8866   38.8952 H   0  0  0  0  0  0  0  0  0  0  0  0
   86.8472   37.3756   40.6476 C   0  0  0  0  0  0  0  0  0  0  0  0
   87.0078   36.1367   41.5753 C   0  0  0  0  0  0  0  0  0  0  0  0
   88.4183   35.5102   41.4200 C   0  0  0  0  0  0  0  0  0  0  0  0
   86.0235   35.0493   41.0814 C   0  0  0  0  0  0  0  0  0  0  0  0
   86.8187   36.4260   43.1026 C   0  0  0  0  0  0  0  0  0  0  0  0
   86.5053   35.3363   44.1791 C   0  0  0  0  0  0  0  0  0  0  0  0
   87.3650   34.0733   44.0641 C   0  0  0  0  0  0  0  0  0  0  0  0
   86.7990   35.9746   45.5613 C   0  0  0  0  0  0  0  0  0  0  0  0
   85.0222   34.9305   44.1878 C   0  0  0  0  0  0  0  0  0  0  0  0
  6  7  1  0
  7  8  1  0
  8  9  1  0
  9 10  2  0
 10 11  1  0
 10 12  1  0
 12  5  1  0
  5  1  1  0
  1  2  1  0
  1 14  1  0
 14 15  1  0
 15 16  1  0
 15 17  1  0
 15 18  1  0
 18 19  1  0
 19 20  1  0
 19 21  1  0
 19 22  1  0
 12  7  2  0
 11 13  1  0
  2  3  1  0
  2  4  1  0
M  END
> <minimizedAffinity>
-5.01129

> <CNNscore>
0.1303865910

> <CNNaffinity>
3.6947851181

> <CNN_VS>
0.4817504287

> <CNNaffinity_variance>
0.6065208316

$$$$



 22 22  0  0  0  0  0  0  0  0999 V2000
   70.3573   15.6655   44.5625 C   0  0  0  0  0  0  0  0  0  0  0  0
   69.6874   14.4648   45.0800 N   0  0  0  0  0  0  0  0  0  0  0  0
   69.1857   14.6980   45.9369 H   0  0  0  0  0  0  0  0  0  0  0  0
   70.3835   13.7460   45.2785 H   0  0  0  0  0  0  0  0  0  0  0  0
   69.3259   16.7741   44.2256 C   0  0  0  0  0  0  0  0  0  0  0  0
   68.6815   19.1223   46.5353 C   0  0  0  0  0  0  0  0  0  0  0  0
   69.5633   19.0995   45.3532 C   0  0  0  0  0  0  0  0  0  0  0  0
   70.2829   20.2366   45.1215 O   0  0  0  0  0  0  0  0  0  0  0  0
   71.0644   20.0634   43.9842 N   0  0  0  0  0  0  0  0  0  0  0  0
   70.7822   18.8316   43.5830 C   0  0  0  0  0  0  0  0  0  0  0  0
   71.4203   18.4013   42.4943 O   0  0  0  0  0  0  0  0  0  0  0  0
   69.8552   18.1568   44.3871 C   0  0  0  0  0  0  0  0  0  0  0  0
   72.0211   18.9662   42.0494 H   0  0  0  0  0  0  0  0  0  0  0  0
   71.3779   16.2051   45.5946 C   0  0  0  0  0  0  0  0  0  0  0  0
   72.8842   15.8712   45.3923 C   0  0  0  0  0  0  0  0  0  0  0  0
   73.7184   17.1676   45.2197 C   0  0  0  0  0  0  0  0  0  0  0  0
   73.0218   15.1175   44.0476 C   0  0  0  0  0  0  0  0  0  0  0  0
   73.5470   15.0722   46.5645 C   0  0  0  0  0  0  0  0  0  0  0  0
   73.7355   15.6211   48.0163 C   0  0  0  0  0  0  0  0  0  0  0  0
   73.2868   14.6546   49.1172 C   0  0  0  0  0  0  0  0  0  0  0  0
   75.2538   15.8709   48.2072 C   0  0  0  0  0  0  0  0  0  0  0  0
   73.0370   16.9747   48.2264 C   0  0  0  0  0  0  0  0  0  0  0  0
  6  7  1  0
  7  8  1  0
  8  9  1  0
  9 10  2  0
 10 11  1  0
 10 12  1  0
 12  5  1  0
  5  1  1  0
  1  2  1  0
  1 14  1  0
 14 15  1  0
 15 16  1  0
 15 17  1  0
 15 18  1  0
 18 19  1  0
 19 20  1  0
 19 21  1  0
 19 22  1  0
 12  7  2  0
 11 13  1  0
  2  3  1  0
  2  4  1  0
M  END
> <minimizedAffinity>
-5.53794

> <CNNscore>
0.1252634376

> <CNNaffinity>
3.8011016846

> <CNN_VS>
0.4761390686

> <CNNaffinity_variance>
0.4742863476

$$$$



 22 22  0  0  0  0  0  0  0  0999 V2000
   82.4613   36.0069   34.5558 C   0  0  0  0  0  0  0  0  0  0  0  0
   82.0660   34.6700   35.0193 N   0  0  0  0  0  0  0  0  0  0  0  0
   81.2607   34.7498   35.6403 H   0  0  0  0  0  0  0  0  0  0  0  0
   82.8425   34.2413   35.5230 H   0  0  0  0  0  0  0  0  0  0  0  0
   81.3113   36.6813   33.7627 C   0  0  0  0  0  0  0  0  0  0  0  0
   83.3812   35.2216   31.5606 C   0  0  0  0  0  0  0  0  0  0  0  0
   82.5442   36.4342   31.4925 C   0  0  0  0  0  0  0  0  0  0  0  0
   82.5854   37.1241   30.3148 O   0  0  0  0  0  0  0  0  0  0  0  0
   81.7484   38.2315   30.4004 N   0  0  0  0  0  0  0  0  0  0  0  0
   81.2403   38.1587   31.6228 C   0  0  0  0  0  0  0  0  0  0  0  0
   80.3779   39.1161   31.9650 O   0  0  0  0  0  0  0  0  0  0  0  0
   81.6827   37.0608   32.3713 C   0  0  0  0  0  0  0  0  0  0  0  0
   80.1707   39.7989   31.3577 H   0  0  0  0  0  0  0  0  0  0  0  0
   82.8565   36.9025   35.7556 C   0  0  0  0  0  0  0  0  0  0  0  0
   84.2239   37.6437   35.7091 C   0  0  0  0  0  0  0  0  0  0  0  0
   84.0219   39.1581   35.4409 C   0  0  0  0  0  0  0  0  0  0  0  0
   85.0037   37.1141   34.4816 C   0  0  0  0  0  0  0  0  0  0  0  0
   85.0782   37.5368   37.0171 C   0  0  0  0  0  0  0  0  0  0  0  0
   84.5245   37.0667   38.4016 C   0  0  0  0  0  0  0  0  0  0  0  0
   85.5911   36.9353   39.4936 C   0  0  0  0  0  0  0  0  0  0  0  0
   83.5115   38.1439   38.8681 C   0  0  0  0  0  0  0  0  0  0  0  0
   83.7465   35.7441   38.3032 C   0  0  0  0  0  0  0  0  0  0  0  0
  6  7  1  0
  7  8  1  0
  8  9  1  0
  9 10  2  0
 10 11  1  0
 10 12  1  0
 12  5  1  0
  5  1  1  0
  1  2  1  0
  1 14  1  0
 14 15  1  0
 15 16  1  0
 15 17  1  0
 15 18  1  0
 18 19  1  0
 19 20  1  0
 19 21  1  0
 19 22  1  0
 12  7  2  0
 11 13  1  0
  2  3  1  0
  2  4  1  0
M  END
> <minimizedAffinity>
-5.18258

> <CNNscore>
0.1219574958

> <CNNaffinity>
4.4205179214

> <CNN_VS>
0.5391153097

> <CNNaffinity_variance>
0.1049381271

$$$$
