


 22 23  0  0  0  0  0  0  0  0999 V2000
   18.9546   17.8630    5.5595 C   0  0  0  0  0  0  0  0  0  0  0  0
   19.6398   16.6075    6.1362 C   0  0  0  0  0  0  0  0  0  0  0  0
   18.8174   15.9813    7.2624 C   0  0  0  0  0  0  0  0  0  0  0  0
   18.5363   16.9981    8.3732 C   0  0  0  0  0  0  0  0  0  0  0  0
   17.8553   18.2527    7.8175 C   0  0  0  0  0  0  0  0  0  0  0  0
   18.6724   18.8775    6.6848 C   0  0  0  0  0  0  0  0  0  0  0  0
   19.8246   19.9771    4.4060 C   0  0  0  0  0  0  0  0  0  0  0  0
   19.7495   18.4494    4.3601 C   0  0  0  0  0  0  0  0  0  0  0  0
   21.1084   17.9253    4.2338 N   0  0  0  0  0  0  0  0  0  0  0  0
   21.6604   18.2134    5.0417 H   0  0  0  0  0  0  0  0  0  0  0  0
   21.5358   18.2900    3.3824 H   0  0  0  0  0  0  0  0  0  0  0  0
   17.7420   16.3802    9.5254 C   0  0  0  0  0  0  0  0  0  0  0  0
   16.5392   16.6032    9.6287 O   0  0  0  0  0  0  0  0  0  0  0  0
   18.4932   15.5922   10.3790 N   0  0  0  0  0  0  0  0  0  0  0  0
   19.4506   15.5067   10.1661 H   0  0  0  0  0  0  0  0  0  0  0  0
   18.0401   14.8965   11.5219 C   0  0  0  0  0  0  0  0  0  0  0  0
   17.6199   15.6622   12.6112 C   0  0  0  0  0  0  0  0  0  0  0  0
   17.1694   15.0110   13.7489 C   0  0  0  0  0  0  0  0  0  0  0  0
   17.1110   13.6722   13.8701 N   0  0  0  0  0  0  0  0  0  0  0  0
   17.5226   12.9566   12.8035 C   0  0  0  0  0  0  0  0  0  0  0  0
   17.4723   11.6204   12.9044 F   0  0  0  0  0  0  0  0  0  0  0  0
   17.9887   13.5110   11.6242 C   0  0  0  0  0  0  0  0  0  0  0  0
  8  7  1  0
  8  9  1  0
  8  1  1  0
  1  2  1  0
  2  3  1  0
  3  4  1  0
  4 12  1  0
 12 13  2  0
 12 14  1  0
 14 16  1  0
 16 17  2  0
 17 18  1  0
 18 19  2  0
 19 20  1  0
 20 21  1  0
 20 22  2  0
  4  5  1  0
  5  6  1  0
  6  1  1  0
 22 16  1  0
  9 10  1  0
  9 11  1  0
 14 15  1  0
M  END
> <minimizedAffinity>
-4.18715

> <CNNscore>
0.4288130403

> <CNNaffinity>
3.3945028782

> <CNN_VS>
1.4556070566

> <CNNaffinity_variance>
0.7656573653

$$$$



 22 23  0  0  0  0  0  0  0  0999 V2000
   14.6586    8.1698    3.0476 C   0  0  0  0  0  0  0  0  0  0  0  0
   14.3217    7.7225    4.4845 C   0  0  0  0  0  0  0  0  0  0  0  0
   15.1728    8.4576    5.5199 C   0  0  0  0  0  0  0  0  0  0  0  0
   16.6673    8.2756    5.2370 C   0  0  0  0  0  0  0  0  0  0  0  0
   17.0198    8.7154    3.8127 C   0  0  0  0  0  0  0  0  0  0  0  0
   16.1643    7.9869    2.7743 C   0  0  0  0  0  0  0  0  0  0  0  0
   12.4617    8.2896    1.7378 C   0  0  0  0  0  0  0  0  0  0  0  0
   13.7353    7.4838    2.0029 C   0  0  0  0  0  0  0  0  0  0  0  0
   14.3846    7.2142    0.7212 N   0  0  0  0  0  0  0  0  0  0  0  0
   14.6290    8.0965    0.2716 H   0  0  0  0  0  0  0  0  0  0  0  0
   13.7471    6.6916    0.1204 H   0  0  0  0  0  0  0  0  0  0  0  0
   17.5360    8.9773    6.2827 C   0  0  0  0  0  0  0  0  0  0  0  0
   18.7583    8.9706    6.1675 O   0  0  0  0  0  0  0  0  0  0  0  0
   16.8247    9.5800    7.3048 N   0  0  0  0  0  0  0  0  0  0  0  0
   15.8444    9.5003    7.2613 H   0  0  0  0  0  0  0  0  0  0  0  0
   17.3478   10.2969    8.4039 C   0  0  0  0  0  0  0  0  0  0  0  0
   17.2175    9.7155    9.6665 C   0  0  0  0  0  0  0  0  0  0  0  0
   17.7198   10.3927   10.7667 C   0  0  0  0  0  0  0  0  0  0  0  0
   18.3321   11.5886   10.6927 N   0  0  0  0  0  0  0  0  0  0  0  0
   18.4447   12.1277    9.4615 C   0  0  0  0  0  0  0  0  0  0  0  0
   19.0520   13.3194    9.3665 F   0  0  0  0  0  0  0  0  0  0  0  0
   17.9771   11.5325    8.3029 C   0  0  0  0  0  0  0  0  0  0  0  0
  8  7  1  0
  8  9  1  0
  8  1  1  0
  1  2  1  0
  2  3  1  0
  3  4  1  0
  4 12  1  0
 12 13  2  0
 12 14  1  0
 14 16  1  0
 16 17  2  0
 17 18  1  0
 18 19  2  0
 19 20  1  0
 20 21  1  0
 20 22  2  0
  4  5  1  0
  5  6  1  0
  6  1  1  0
 22 16  1  0
  9 10  1  0
  9 11  1  0
 14 15  1  0
M  END
> <minimizedAffinity>
-4.97418

> <CNNscore>
0.3735663891

> <CNNaffinity>
4.6834850311

> <CNN_VS>
1.7495925426

> <CNNaffinity_variance>
0.5016300678

$$$$



 22 23  0  0  0  0  0  0  0  0999 V2000
    8.8172   -0.7914   -1.6319 C   0  0  0  0  0  0  0  0  0  0  0  0
    9.5320   -0.8355   -2.9978 C   0  0  0  0  0  0  0  0  0  0  0  0
    8.5364   -0.8226   -4.1578 C   0  0  0  0  0  0  0  0  0  0  0  0
    7.5336   -1.9744   -4.0387 C   0  0  0  0  0  0  0  0  0  0  0  0
    6.8140   -1.9459   -2.6867 C   0  0  0  0  0  0  0  0  0  0  0  0
    7.8080   -1.9512   -1.5236 C   0  0  0  0  0  0  0  0  0  0  0  0
   10.3432   -2.1029   -0.0482 C   0  0  0  0  0  0  0  0  0  0  0  0
    9.8314   -0.7199   -0.4569 C   0  0  0  0  0  0  0  0  0  0  0  0
   10.9851    0.1391   -0.7183 N   0  0  0  0  0  0  0  0  0  0  0  0
   11.5380   -0.2562   -1.4789 H   0  0  0  0  0  0  0  0  0  0  0  0
   11.5594    0.2022    0.1223 H   0  0  0  0  0  0  0  0  0  0  0  0
    6.5489   -1.9976   -5.2092 C   0  0  0  0  0  0  0  0  0  0  0  0
    6.3267   -3.0496   -5.8018 O   0  0  0  0  0  0  0  0  0  0  0  0
    5.9772   -0.7716   -5.4989 N   0  0  0  0  0  0  0  0  0  0  0  0
    6.2548   -0.0151   -4.9333 H   0  0  0  0  0  0  0  0  0  0  0  0
    5.0396   -0.4838   -6.5157 C   0  0  0  0  0  0  0  0  0  0  0  0
    4.0137   -1.4086   -6.7192 C   0  0  0  0  0  0  0  0  0  0  0  0
    3.0767   -1.1569   -7.7093 C   0  0  0  0  0  0  0  0  0  0  0  0
    3.0946   -0.0647   -8.4949 N   0  0  0  0  0  0  0  0  0  0  0  0
    4.0960    0.8122   -8.2773 C   0  0  0  0  0  0  0  0  0  0  0  0
    4.1314    1.9075   -9.0501 F   0  0  0  0  0  0  0  0  0  0  0  0
    5.0784    0.6525   -7.3157 C   0  0  0  0  0  0  0  0  0  0  0  0
  8  7  1  0
  8  9  1  0
  8  1  1  0
  1  2  1  0
  2  3  1  0
  3  4  1  0
  4 12  1  0
 12 13  2  0
 12 14  1  0
 14 16  1  0
 16 17  2  0
 17 18  1  0
 18 19  2  0
 19 20  1  0
 20 21  1  0
 20 22  2  0
  4  5  1  0
  5  6  1  0
  6  1  1  0
 22 16  1  0
  9 10  1  0
  9 11  1  0
 14 15  1  0
M  END
> <minimizedAffinity>
45.54507

> <CNNscore>
0.3650444448

> <CNNaffinity>
4.9941992760

> <CNN_VS>
1.8231047392

> <CNNaffinity_variance>
1.4923113585

$$$$



 22 23  0  0  0  0  0  0  0  0999 V2000
   12.4976    9.8699    1.9203 C   0  0  0  0  0  0  0  0  0  0  0  0
   12.1420   11.1789    1.1864 C   0  0  0  0  0  0  0  0  0  0  0  0
   12.7977   11.2502   -0.1927 C   0  0  0  0  0  0  0  0  0  0  0  0
   14.3174   11.0866   -0.0915 C   0  0  0  0  0  0  0  0  0  0  0  0
   14.6887    9.7903    0.6354 C   0  0  0  0  0  0  0  0  0  0  0  0
   14.0278    9.7126    2.0131 C   0  0  0  0  0  0  0  0  0  0  0  0
   12.5908    9.0082    4.3297 C   0  0  0  0  0  0  0  0  0  0  0  0
   11.7636    9.7613    3.2855 C   0  0  0  0  0  0  0  0  0  0  0  0
   11.3686   11.0494    3.8528 N   0  0  0  0  0  0  0  0  0  0  0  0
   12.2026   11.5911    4.0796 H   0  0  0  0  0  0  0  0  0  0  0  0
   10.8228   10.8947    4.7004 H   0  0  0  0  0  0  0  0  0  0  0  0
   14.9950   11.1883   -1.4594 C   0  0  0  0  0  0  0  0  0  0  0  0
   16.0918   11.7306   -1.5606 O   0  0  0  0  0  0  0  0  0  0  0  0
   14.2706   10.6318   -2.4983 N   0  0  0  0  0  0  0  0  0  0  0  0
   13.4033   10.2309   -2.2611 H   0  0  0  0  0  0  0  0  0  0  0  0
   14.6363   10.5745   -3.8616 C   0  0  0  0  0  0  0  0  0  0  0  0
   14.1070   11.5517   -4.7068 C   0  0  0  0  0  0  0  0  0  0  0  0
   14.4455   11.5244   -6.0507 C   0  0  0  0  0  0  0  0  0  0  0  0
   15.2615   10.6047   -6.5973 N   0  0  0  0  0  0  0  0  0  0  0  0
   15.7589    9.6726   -5.7589 C   0  0  0  0  0  0  0  0  0  0  0  0
   16.5744    8.7469   -6.2845 F   0  0  0  0  0  0  0  0  0  0  0  0
   15.4821    9.6138   -4.4042 C   0  0  0  0  0  0  0  0  0  0  0  0
  8  7  1  0
  8  9  1  0
  8  1  1  0
  1  2  1  0
  2  3  1  0
  3  4  1  0
  4 12  1  0
 12 13  2  0
 12 14  1  0
 14 16  1  0
 16 17  2  0
 17 18  1  0
 18 19  2  0
 19 20  1  0
 20 21  1  0
 20 22  2  0
  4  5  1  0
  5  6  1  0
  6  1  1  0
 22 16  1  0
  9 10  1  0
  9 11  1  0
 14 15  1  0
M  END
> <minimizedAffinity>
-5.21797

> <CNNscore>
0.3280668557

> <CNNaffinity>
5.2742018700

> <CNN_VS>
1.7302907705

> <CNNaffinity_variance>
0.1468317360

$$$$



 22 23  0  0  0  0  0  0  0  0999 V2000
    4.5870    9.2421    4.2026 C   0  0  0  0  0  0  0  0  0  0  0  0
    4.3209   10.2780    3.0915 C   0  0  0  0  0  0  0  0  0  0  0  0
    5.2543   10.0787    1.8973 C   0  0  0  0  0  0  0  0  0  0  0  0
    6.7231   10.1206    2.3304 C   0  0  0  0  0  0  0  0  0  0  0  0
    7.0052    9.0971    3.4346 C   0  0  0  0  0  0  0  0  0  0  0  0
    6.0675    9.2891    4.6282 C   0  0  0  0  0  0  0  0  0  0  0  0
    3.6205    8.1952    6.3302 C   0  0  0  0  0  0  0  0  0  0  0  0
    3.5827    9.3930    5.3786 C   0  0  0  0  0  0  0  0  0  0  0  0
    3.7661   10.6116    6.1650 N   0  0  0  0  0  0  0  0  0  0  0  0
    4.6710   10.5802    6.6346 H   0  0  0  0  0  0  0  0  0  0  0  0
    3.0239   10.6820    6.8612 H   0  0  0  0  0  0  0  0  0  0  0  0
    7.6735    9.9559    1.1430 C   0  0  0  0  0  0  0  0  0  0  0  0
    8.8761    9.8045    1.3377 O   0  0  0  0  0  0  0  0  0  0  0  0
    7.0545    9.9953   -0.0937 N   0  0  0  0  0  0  0  0  0  0  0  0
    6.0784   10.1236   -0.0902 H   0  0  0  0  0  0  0  0  0  0  0  0
    7.6667    9.8722   -1.3609 C   0  0  0  0  0  0  0  0  0  0  0  0
    9.0541   10.0179   -1.4173 C   0  0  0  0  0  0  0  0  0  0  0  0
    9.6865    9.9031   -2.6454 C   0  0  0  0  0  0  0  0  0  0  0  0
    9.0395    9.6571   -3.7991 N   0  0  0  0  0  0  0  0  0  0  0  0
    7.7001    9.5206   -3.7165 C   0  0  0  0  0  0  0  0  0  0  0  0
    7.0368    9.2750   -4.8556 F   0  0  0  0  0  0  0  0  0  0  0  0
    6.9767    9.6174   -2.5407 C   0  0  0  0  0  0  0  0  0  0  0  0
  8  7  1  0
  8  9  1  0
  8  1  1  0
  1  2  1  0
  2  3  1  0
  3  4  1  0
  4 12  1  0
 12 13  2  0
 12 14  1  0
 14 16  1  0
 16 17  2  0
 17 18  1  0
 18 19  2  0
 19 20  1  0
 20 21  1  0
 20 22  2  0
  4  5  1  0
  5  6  1  0
  6  1  1  0
 22 16  1  0
  9 10  1  0
  9 11  1  0
 14 15  1  0
M  END
> <minimizedAffinity>
3.16622

> <CNNscore>
0.2948701084

> <CNNaffinity>
5.6233773232

> <CNN_VS>
1.6581659317

> <CNNaffinity_variance>
0.0874290466

$$$$



 22 23  0  0  0  0  0  0  0  0999 V2000
   17.3955   19.7954    3.1452 C   0  0  0  0  0  0  0  0  0  0  0  0
   18.1311   19.1262    1.9664 C   0  0  0  0  0  0  0  0  0  0  0  0
   18.6280   17.7272    2.3308 C   0  0  0  0  0  0  0  0  0  0  0  0
   19.5250   17.7649    3.5720 C   0  0  0  0  0  0  0  0  0  0  0  0
   18.8095   18.4271    4.7536 C   0  0  0  0  0  0  0  0  0  0  0  0
   18.3042   19.8247    4.3896 C   0  0  0  0  0  0  0  0  0  0  0  0
   16.3373   21.2141    1.2948 C   0  0  0  0  0  0  0  0  0  0  0  0
   16.8184   21.1821    2.7471 C   0  0  0  0  0  0  0  0  0  0  0  0
   15.7262   21.6402    3.6040 N   0  0  0  0  0  0  0  0  0  0  0  0
   14.9263   21.0164    3.4980 H   0  0  0  0  0  0  0  0  0  0  0  0
   15.4572   22.5867    3.3352 H   0  0  0  0  0  0  0  0  0  0  0  0
   20.0592   16.3775    3.9329 C   0  0  0  0  0  0  0  0  0  0  0  0
   21.0954   15.9674    3.4179 O   0  0  0  0  0  0  0  0  0  0  0  0
   19.2849   15.6880    4.8488 N   0  0  0  0  0  0  0  0  0  0  0  0
   18.4782   16.1490    5.1744 H   0  0  0  0  0  0  0  0  0  0  0  0
   19.5224   14.3962    5.3692 C   0  0  0  0  0  0  0  0  0  0  0  0
   19.2021   13.3097    4.5530 C   0  0  0  0  0  0  0  0  0  0  0  0
   19.4226   12.0282    5.0331 C   0  0  0  0  0  0  0  0  0  0  0  0
   19.9318   11.7633    6.2500 N   0  0  0  0  0  0  0  0  0  0  0  0
   20.2325   12.8307    7.0178 C   0  0  0  0  0  0  0  0  0  0  0  0
   20.7412   12.5877    8.2345 F   0  0  0  0  0  0  0  0  0  0  0  0
   20.0501   14.1468    6.6310 C   0  0  0  0  0  0  0  0  0  0  0  0
  8  7  1  0
  8  9  1  0
  8  1  1  0
  1  2  1  0
  2  3  1  0
  3  4  1  0
  4 12  1  0
 12 13  2  0
 12 14  1  0
 14 16  1  0
 16 17  2  0
 17 18  1  0
 18 19  2  0
 19 20  1  0
 20 21  1  0
 20 22  2  0
  4  5  1  0
  5  6  1  0
  6  1  1  0
 22 16  1  0
  9 10  1  0
  9 11  1  0
 14 15  1  0
M  END
> <minimizedAffinity>
-4.05239

> <CNNscore>
0.2494256496

> <CNNaffinity>
3.8374741077

> <CNN_VS>
0.9571644664

> <CNNaffinity_variance>
0.2463605851

$$$$



 22 23  0  0  0  0  0  0  0  0999 V2000
   19.3043   10.5636    9.7805 C   0  0  0  0  0  0  0  0  0  0  0  0
   17.8707   10.3041   10.2867 C   0  0  0  0  0  0  0  0  0  0  0  0
   16.9993    9.6573    9.2101 C   0  0  0  0  0  0  0  0  0  0  0  0
   16.9735   10.5065    7.9355 C   0  0  0  0  0  0  0  0  0  0  0  0
   18.3904   10.7742    7.4185 C   0  0  0  0  0  0  0  0  0  0  0  0
   19.2674   11.4148    8.4962 C   0  0  0  0  0  0  0  0  0  0  0  0
   19.5006   12.2221   11.7215 C   0  0  0  0  0  0  0  0  0  0  0  0
   20.2111   11.1433   10.9012 C   0  0  0  0  0  0  0  0  0  0  0  0
   20.7365   10.1364   11.8218 N   0  0  0  0  0  0  0  0  0  0  0  0
   19.9660    9.7152   12.3407 H   0  0  0  0  0  0  0  0  0  0  0  0
   21.3848   10.5774   12.4741 H   0  0  0  0  0  0  0  0  0  0  0  0
   16.0792    9.8915    6.8574 C   0  0  0  0  0  0  0  0  0  0  0  0
   14.8893   10.1892    6.8057 O   0  0  0  0  0  0  0  0  0  0  0  0
   16.7307    9.0182    6.0048 N   0  0  0  0  0  0  0  0  0  0  0  0
   17.6909    8.8790    6.1716 H   0  0  0  0  0  0  0  0  0  0  0  0
   16.1720    8.3037    4.9217 C   0  0  0  0  0  0  0  0  0  0  0  0
   16.9752    8.1211    3.7944 C   0  0  0  0  0  0  0  0  0  0  0  0
   16.4576    7.4244    2.7135 C   0  0  0  0  0  0  0  0  0  0  0  0
   15.2157    6.9077    2.6829 N   0  0  0  0  0  0  0  0  0  0  0  0
   14.4611    7.0984    3.7844 C   0  0  0  0  0  0  0  0  0  0  0  0
   13.2200    6.5909    3.7736 F   0  0  0  0  0  0  0  0  0  0  0  0
   14.8848    7.7784    4.9128 C   0  0  0  0  0  0  0  0  0  0  0  0
  8  7  1  0
  8  9  1  0
  8  1  1  0
  1  2  1  0
  2  3  1  0
  3  4  1  0
  4 12  1  0
 12 13  2  0
 12 14  1  0
 14 16  1  0
 16 17  2  0
 17 18  1  0
 18 19  2  0
 19 20  1  0
 20 21  1  0
 20 22  2  0
  4  5  1  0
  5  6  1  0
  6  1  1  0
 22 16  1  0
  9 10  1  0
  9 11  1  0
 14 15  1  0
M  END
> <minimizedAffinity>
-5.35211

> <CNNscore>
0.2286196500

> <CNNaffinity>
4.2805504799

> <CNN_VS>
0.9786179662

> <CNNaffinity_variance>
0.3742365539

$$$$



 22 23  0  0  0  0  0  0  0  0999 V2000
    8.6530   10.3726    4.0568 C   0  0  0  0  0  0  0  0  0  0  0  0
   10.1692   10.2168    4.2918 C   0  0  0  0  0  0  0  0  0  0  0  0
   10.9812   10.7217    3.0990 C   0  0  0  0  0  0  0  0  0  0  0  0
   10.5624   10.0149    1.8061 C   0  0  0  0  0  0  0  0  0  0  0  0
    9.0579   10.1596    1.5570 C   0  0  0  0  0  0  0  0  0  0  0  0
    8.2426    9.6620    2.7523 C   0  0  0  0  0  0  0  0  0  0  0  0
    6.6486    9.0415    4.9326 C   0  0  0  0  0  0  0  0  0  0  0  0
    7.8327    9.9372    5.3026 C   0  0  0  0  0  0  0  0  0  0  0  0
    8.6228    9.2560    6.3268 N   0  0  0  0  0  0  0  0  0  0  0  0
    8.9697    8.3714    5.9561 H   0  0  0  0  0  0  0  0  0  0  0  0
    8.0387    9.0767    7.1435 H   0  0  0  0  0  0  0  0  0  0  0  0
   11.3874   10.4835    0.6060 C   0  0  0  0  0  0  0  0  0  0  0  0
   11.0884   10.1120   -0.5252 O   0  0  0  0  0  0  0  0  0  0  0  0
   12.4403   11.3209    0.9289 N   0  0  0  0  0  0  0  0  0  0  0  0
   12.5551   11.5308    1.8839 H   0  0  0  0  0  0  0  0  0  0  0  0
   13.3690   11.9086    0.0413 C   0  0  0  0  0  0  0  0  0  0  0  0
   13.3692   13.3015   -0.0533 C   0  0  0  0  0  0  0  0  0  0  0  0
   14.2680   13.9105   -0.9152 C   0  0  0  0  0  0  0  0  0  0  0  0
   15.1499   13.2352   -1.6746 N   0  0  0  0  0  0  0  0  0  0  0  0
   15.1286   11.8912   -1.5640 C   0  0  0  0  0  0  0  0  0  0  0  0
   16.0001   11.1998   -2.3127 F   0  0  0  0  0  0  0  0  0  0  0  0
   14.2717   11.1897   -0.7340 C   0  0  0  0  0  0  0  0  0  0  0  0
  8  7  1  0
  8  9  1  0
  8  1  1  0
  1  2  1  0
  2  3  1  0
  3  4  1  0
  4 12  1  0
 12 13  2  0
 12 14  1  0
 14 16  1  0
 16 17  2  0
 17 18  1  0
 18 19  2  0
 19 20  1  0
 20 21  1  0
 20 22  2  0
  4  5  1  0
  5  6  1  0
  6  1  1  0
 22 16  1  0
  9 10  1  0
  9 11  1  0
 14 15  1  0
M  END
> <minimizedAffinity>
-7.38188

> <CNNscore>
0.2266094238

> <CNNaffinity>
5.5901622772

> <CNN_VS>
1.2667834759

> <CNNaffinity_variance>
0.1325858682

$$$$



 22 23  0  0  0  0  0  0  0  0999 V2000
   19.1255   17.5463    4.3737 C   0  0  0  0  0  0  0  0  0  0  0  0
   19.9759   16.3072    4.7203 C   0  0  0  0  0  0  0  0  0  0  0  0
   19.3410   15.4805    5.8385 C   0  0  0  0  0  0  0  0  0  0  0  0
   19.0998   16.3332    7.0880 C   0  0  0  0  0  0  0  0  0  0  0  0
   18.2560   17.5694    6.7616 C   0  0  0  0  0  0  0  0  0  0  0  0
   18.8849   18.3950    5.6374 C   0  0  0  0  0  0  0  0  0  0  0  0
   20.4207   17.4246    2.1682 C   0  0  0  0  0  0  0  0  0  0  0  0
   19.7284   18.3392    3.1811 C   0  0  0  0  0  0  0  0  0  0  0  0
   18.7585   19.1671    2.4661 N   0  0  0  0  0  0  0  0  0  0  0  0
   18.0639   18.5683    2.0198 H   0  0  0  0  0  0  0  0  0  0  0  0
   19.2401   19.7175    1.7551 H   0  0  0  0  0  0  0  0  0  0  0  0
   18.4949   15.5145    8.2301 C   0  0  0  0  0  0  0  0  0  0  0  0
   17.6564   16.0215    8.9697 O   0  0  0  0  0  0  0  0  0  0  0  0
   18.9751   14.2203    8.3216 N   0  0  0  0  0  0  0  0  0  0  0  0
   19.6486   13.9556    7.6540 H   0  0  0  0  0  0  0  0  0  0  0  0
   18.6069   13.2361    9.2658 C   0  0  0  0  0  0  0  0  0  0  0  0
   18.4548   11.9288    8.7999 C   0  0  0  0  0  0  0  0  0  0  0  0
   18.0939   10.9386    9.7003 C   0  0  0  0  0  0  0  0  0  0  0  0
   17.8789   11.1614   11.0097 N   0  0  0  0  0  0  0  0  0  0  0  0
   18.0327   12.4326   11.4333 C   0  0  0  0  0  0  0  0  0  0  0  0
   17.8229   12.6754   12.7353 F   0  0  0  0  0  0  0  0  0  0  0  0
   18.3900   13.4902   10.6153 C   0  0  0  0  0  0  0  0  0  0  0  0
  8  7  1  0
  8  9  1  0
  8  1  1  0
  1  2  1  0
  2  3  1  0
  3  4  1  0
  4 12  1  0
 12 13  2  0
 12 14  1  0
 14 16  1  0
 16 17  2  0
 17 18  1  0
 18 19  2  0
 19 20  1  0
 20 21  1  0
 20 22  2  0
  4  5  1  0
  5  6  1  0
  6  1  1  0
 22 16  1  0
  9 10  1  0
  9 11  1  0
 14 15  1  0
M  END
> <minimizedAffinity>
-4.26455

> <CNNscore>
0.2096429318

> <CNNaffinity>
3.3919785023

> <CNN_VS>
0.7111043334

> <CNNaffinity_variance>
0.5759745240

$$$$
