


 25 26  0  0  0  0  0  0  0  0999 V2000
   33.5910   13.3723   28.7747 C   0  0  0  0  0  0  0  0  0  0  0  0
   32.8738   14.7367   28.9601 C   0  0  0  0  0  0  0  0  0  0  0  0
   33.8284   15.9198   28.6209 C   0  0  0  0  0  0  0  0  0  0  0  0
   34.6921   15.5528   27.5511 O   0  0  0  0  0  0  0  0  0  0  0  0
   35.6731   14.5729   27.9523 C   0  0  0  0  0  0  0  0  0  0  0  0
   35.1174   13.5207   28.9404 C   0  0  0  0  0  0  0  0  0  0  0  0
   33.1027   17.0466   28.0709 N   0  0  0  0  0  0  0  0  0  0  0  0
   32.8062   18.1611   28.8215 C   0  0  0  0  0  0  0  0  0  0  0  0
   32.9524   18.2263   30.0360 O   0  0  0  0  0  0  0  0  0  0  0  0
   32.8126   17.0139   27.1306 H   0  0  0  0  0  0  0  0  0  0  0  0
   32.2943   19.3415   28.0695 C   0  0  0  0  0  0  0  0  0  0  0  0
   31.0634   19.2275   27.4110 C   0  0  0  0  0  0  0  0  0  0  0  0
   30.5472   20.3081   26.6939 C   0  0  0  0  0  0  0  0  0  0  0  0
   31.2621   21.5030   26.6239 C   0  0  0  0  0  0  0  0  0  0  0  0
   32.4962   21.6184   27.2639 C   0  0  0  0  0  0  0  0  0  0  0  0
   33.0163   20.5397   27.9836 C   0  0  0  0  0  0  0  0  0  0  0  0
   36.1894   13.9312   26.6579 C   0  0  0  0  0  0  0  0  0  0  0  0
   35.1724   13.0978   26.0948 O   0  0  0  0  0  0  0  0  0  0  0  0
   34.9388   12.4005   26.7273 H   0  0  0  0  0  0  0  0  0  0  0  0
   31.9825   12.9712   27.0579 C   0  0  0  0  0  0  0  0  0  0  0  0
   33.3332   12.8049   27.4758 O   0  0  0  0  0  0  0  0  0  0  0  0
   32.3554   14.7576   30.3059 O   0  0  0  0  0  0  0  0  0  0  0  0
   33.1882   15.4208   31.2452 C   0  0  0  0  0  0  0  0  0  0  0  0
   35.4622   13.9765   30.2631 O   0  0  0  0  0  0  0  0  0  0  0  0
   35.6256   12.9315   31.2125 C   0  0  0  0  0  0  0  0  0  0  0  0
 20 21  1  0
  1 21  1  0
  1  2  1  0
  2 22  1  0
 22 23  1  0
  2  3  1  0
  3  7  1  0
  7  8  1  0
  8  9  2  0
  8 11  1  0
 11 12  2  0
 12 13  1  0
 13 14  2  0
 14 15  1  0
 15 16  2  0
  3  4  1  0
  4  5  1  0
  5 17  1  0
 17 18  1  0
  5  6  1  0
  6 24  1  0
 24 25  1  0
  6  1  1  0
 16 11  1  0
  7 10  1  0
 18 19  1  0
M  END
> <minimizedAffinity>
34.15031

> <CNNscore>
0.5460291505

> <CNNaffinity>
5.0415410995

> <CNN_VS>
2.7528283596

> <CNNaffinity_variance>
0.2986250222

$$$$



 25 26  0  0  0  0  0  0  0  0999 V2000
   33.1434   21.9400   24.9710 C   0  0  0  0  0  0  0  0  0  0  0  0
   34.1411   22.8574   25.7284 C   0  0  0  0  0  0  0  0  0  0  0  0
   33.6181   23.1917   27.1569 C   0  0  0  0  0  0  0  0  0  0  0  0
   32.9207   22.0720   27.6908 O   0  0  0  0  0  0  0  0  0  0  0  0
   31.6573   21.8488   27.0294 C   0  0  0  0  0  0  0  0  0  0  0  0
   31.7082   22.1192   25.5073 C   0  0  0  0  0  0  0  0  0  0  0  0
   34.7087   23.3633   28.0949 N   0  0  0  0  0  0  0  0  0  0  0  0
   34.5988   24.1721   29.2028 C   0  0  0  0  0  0  0  0  0  0  0  0
   33.6701   24.9477   29.3937 O   0  0  0  0  0  0  0  0  0  0  0  0
   35.5549   22.8864   27.9347 H   0  0  0  0  0  0  0  0  0  0  0  0
   35.6884   24.0534   30.2124 C   0  0  0  0  0  0  0  0  0  0  0  0
   35.4587   24.5535   31.5004 C   0  0  0  0  0  0  0  0  0  0  0  0
   36.4523   24.4642   32.4767 C   0  0  0  0  0  0  0  0  0  0  0  0
   37.6819   23.8838   32.1681 C   0  0  0  0  0  0  0  0  0  0  0  0
   37.9233   23.3982   30.8830 C   0  0  0  0  0  0  0  0  0  0  0  0
   36.9314   23.4846   29.9030 C   0  0  0  0  0  0  0  0  0  0  0  0
   31.2608   20.4006   27.3440 C   0  0  0  0  0  0  0  0  0  0  0  0
   32.1421   19.8646   28.3351 O   0  0  0  0  0  0  0  0  0  0  0  0
   33.0528   19.8823   28.0015 H   0  0  0  0  0  0  0  0  0  0  0  0
   34.6623   20.3425   25.8855 C   0  0  0  0  0  0  0  0  0  0  0  0
   33.4980   20.5490   25.0927 O   0  0  0  0  0  0  0  0  0  0  0  0
   34.3664   24.0108   24.8923 O   0  0  0  0  0  0  0  0  0  0  0  0
   35.6952   24.5096   24.9264 C   0  0  0  0  0  0  0  0  0  0  0  0
   31.2374   23.4670   25.3132 O   0  0  0  0  0  0  0  0  0  0  0  0
   29.8924   23.6762   25.7224 C   0  0  0  0  0  0  0  0  0  0  0  0
 20 21  1  0
  1 21  1  0
  1  2  1  0
  2 22  1  0
 22 23  1  0
  2  3  1  0
  3  7  1  0
  7  8  1  0
  8  9  2  0
  8 11  1  0
 11 12  2  0
 12 13  1  0
 13 14  2  0
 14 15  1  0
 15 16  2  0
  3  4  1  0
  4  5  1  0
  5 17  1  0
 17 18  1  0
  5  6  1  0
  6 24  1  0
 24 25  1  0
  6  1  1  0
 16 11  1  0
  7 10  1  0
 18 19  1  0
M  END
> <minimizedAffinity>
-7.93877

> <CNNscore>
0.4657615721

> <CNNaffinity>
4.6622595787

> <CNN_VS>
2.1715013981

> <CNNaffinity_variance>
0.3139135540

$$$$



 25 26  0  0  0  0  0  0  0  0999 V2000
   36.7615   24.3451   32.5221 C   0  0  0  0  0  0  0  0  0  0  0  0
   37.8314   25.3358   33.0553 C   0  0  0  0  0  0  0  0  0  0  0  0
   37.2594   26.7820   33.1414 C   0  0  0  0  0  0  0  0  0  0  0  0
   35.8852   26.7374   33.5087 O   0  0  0  0  0  0  0  0  0  0  0  0
   35.0524   26.2231   32.4479 C   0  0  0  0  0  0  0  0  0  0  0  0
   35.7150   25.0730   31.6536 C   0  0  0  0  0  0  0  0  0  0  0  0
   37.8559   27.5247   34.2329 N   0  0  0  0  0  0  0  0  0  0  0  0
   37.8045   27.0788   35.5338 C   0  0  0  0  0  0  0  0  0  0  0  0
   37.1090   26.1427   35.9087 O   0  0  0  0  0  0  0  0  0  0  0  0
   38.3122   28.3750   34.0380 H   0  0  0  0  0  0  0  0  0  0  0  0
   38.6748   27.7959   36.5080 C   0  0  0  0  0  0  0  0  0  0  0  0
   40.0487   27.8671   36.2452 C   0  0  0  0  0  0  0  0  0  0  0  0
   40.9006   28.5281   37.1316 C   0  0  0  0  0  0  0  0  0  0  0  0
   40.3854   29.1123   38.2880 C   0  0  0  0  0  0  0  0  0  0  0  0
   39.0205   29.0315   38.5641 C   0  0  0  0  0  0  0  0  0  0  0  0
   38.1640   28.3717   37.6792 C   0  0  0  0  0  0  0  0  0  0  0  0
   33.7401   25.7840   33.1103 C   0  0  0  0  0  0  0  0  0  0  0  0
   32.8321   25.3094   32.1121 O   0  0  0  0  0  0  0  0  0  0  0  0
   32.6490   26.0200   31.4776 H   0  0  0  0  0  0  0  0  0  0  0  0
   34.6893   24.0219   33.6610 C   0  0  0  0  0  0  0  0  0  0  0  0
   36.0691   23.6776   33.5948 O   0  0  0  0  0  0  0  0  0  0  0  0
   38.9868   25.2029   32.2023 O   0  0  0  0  0  0  0  0  0  0  0  0
   39.1969   23.8920   31.6992 C   0  0  0  0  0  0  0  0  0  0  0  0
   36.3195   25.6717   30.4907 O   0  0  0  0  0  0  0  0  0  0  0  0
   36.7475   24.7342   29.5120 C   0  0  0  0  0  0  0  0  0  0  0  0
 20 21  1  0
  1 21  1  0
  1  2  1  0
  2 22  1  0
 22 23  1  0
  2  3  1  0
  3  7  1  0
  7  8  1  0
  8  9  2  0
  8 11  1  0
 11 12  2  0
 12 13  1  0
 13 14  2  0
 14 15  1  0
 15 16  2  0
  3  4  1  0
  4  5  1  0
  5 17  1  0
 17 18  1  0
  5  6  1  0
  6 24  1  0
 24 25  1  0
  6  1  1  0
 16 11  1  0
  7 10  1  0
 18 19  1  0
M  END
> <minimizedAffinity>
-7.00459

> <CNNscore>
0.4144555032

> <CNNaffinity>
4.8021683693

> <CNN_VS>
1.9902851582

> <CNNaffinity_variance>
0.1364899576

$$$$



 25 26  0  0  0  0  0  0  0  0999 V2000
   34.9010   13.9912   28.8919 C   0  0  0  0  0  0  0  0  0  0  0  0
   34.7917   15.0962   27.8068 C   0  0  0  0  0  0  0  0  0  0  0  0
   33.5858   16.0403   28.0906 C   0  0  0  0  0  0  0  0  0  0  0  0
   33.4243   16.2095   29.4944 O   0  0  0  0  0  0  0  0  0  0  0  0
   32.9360   15.0126   30.1366 C   0  0  0  0  0  0  0  0  0  0  0  0
   33.5296   13.7141   29.5416 C   0  0  0  0  0  0  0  0  0  0  0  0
   33.8501   17.3903   27.6364 N   0  0  0  0  0  0  0  0  0  0  0  0
   32.8580   18.3404   27.5537 C   0  0  0  0  0  0  0  0  0  0  0  0
   31.6637   18.0936   27.6681 O   0  0  0  0  0  0  0  0  0  0  0  0
   34.7680   17.6356   27.3787 H   0  0  0  0  0  0  0  0  0  0  0  0
   33.3096   19.7423   27.3267 C   0  0  0  0  0  0  0  0  0  0  0  0
   33.6267   20.1353   26.0202 C   0  0  0  0  0  0  0  0  0  0  0  0
   34.0549   21.4386   25.7626 C   0  0  0  0  0  0  0  0  0  0  0  0
   34.1768   22.3515   26.8094 C   0  0  0  0  0  0  0  0  0  0  0  0
   33.8780   21.9624   28.1152 C   0  0  0  0  0  0  0  0  0  0  0  0
   33.4482   20.6592   28.3775 C   0  0  0  0  0  0  0  0  0  0  0  0
   33.2629   15.1647   31.6278 C   0  0  0  0  0  0  0  0  0  0  0  0
   32.4707   16.2149   32.1897 O   0  0  0  0  0  0  0  0  0  0  0  0
   32.6663   17.0475   31.7321 H   0  0  0  0  0  0  0  0  0  0  0  0
   35.7716   13.4771   31.0537 C   0  0  0  0  0  0  0  0  0  0  0  0
   35.8265   14.3550   29.9343 O   0  0  0  0  0  0  0  0  0  0  0  0
   34.7350   14.4258   26.5311 O   0  0  0  0  0  0  0  0  0  0  0  0
   35.6712   13.3690   26.3815 C   0  0  0  0  0  0  0  0  0  0  0  0
   32.5762   13.2316   28.5750 O   0  0  0  0  0  0  0  0  0  0  0  0
   33.1643   12.7069   27.3922 C   0  0  0  0  0  0  0  0  0  0  0  0
 20 21  1  0
  1 21  1  0
  1  2  1  0
  2 22  1  0
 22 23  1  0
  2  3  1  0
  3  7  1  0
  7  8  1  0
  8  9  2  0
  8 11  1  0
 11 12  2  0
 12 13  1  0
 13 14  2  0
 14 15  1  0
 15 16  2  0
  3  4  1  0
  4  5  1  0
  5 17  1  0
 17 18  1  0
  5  6  1  0
  6 24  1  0
 24 25  1  0
  6  1  1  0
 16 11  1  0
  7 10  1  0
 18 19  1  0
M  END
> <minimizedAffinity>
33.91620

> <CNNscore>
0.3709342480

> <CNNaffinity>
4.6596493721

> <CNN_VS>
1.7284234762

> <CNNaffinity_variance>
0.1886942387

$$$$



 25 26  0  0  0  0  0  0  0  0999 V2000
   43.2019   14.0768   23.8743 C   0  0  0  0  0  0  0  0  0  0  0  0
   43.1862   15.2506   24.8904 C   0  0  0  0  0  0  0  0  0  0  0  0
   44.5608   15.9824   24.9195 C   0  0  0  0  0  0  0  0  0  0  0  0
   45.1290   15.9961   23.6148 O   0  0  0  0  0  0  0  0  0  0  0  0
   45.5733   14.6874   23.1984 C   0  0  0  0  0  0  0  0  0  0  0  0
   44.6349   13.5477   23.6599 C   0  0  0  0  0  0  0  0  0  0  0  0
   44.4055   17.3925   25.2130 N   0  0  0  0  0  0  0  0  0  0  0  0
   44.7814   17.9327   26.4215 C   0  0  0  0  0  0  0  0  0  0  0  0
   45.0937   17.2663   27.4007 O   0  0  0  0  0  0  0  0  0  0  0  0
   44.0190   17.9828   24.5264 H   0  0  0  0  0  0  0  0  0  0  0  0
   44.8116   19.4208   26.4939 C   0  0  0  0  0  0  0  0  0  0  0  0
   45.1460   20.0204   27.7148 C   0  0  0  0  0  0  0  0  0  0  0  0
   45.1852   21.4111   27.8275 C   0  0  0  0  0  0  0  0  0  0  0  0
   44.8818   22.2082   26.7246 C   0  0  0  0  0  0  0  0  0  0  0  0
   44.5325   21.6180   25.5099 C   0  0  0  0  0  0  0  0  0  0  0  0
   44.4928   20.2264   25.3923 C   0  0  0  0  0  0  0  0  0  0  0  0
   45.7002   14.7458   21.6706 C   0  0  0  0  0  0  0  0  0  0  0  0
   44.9072   13.7111   21.0818 O   0  0  0  0  0  0  0  0  0  0  0  0
   45.2171   12.8475   21.3964 H   0  0  0  0  0  0  0  0  0  0  0  0
   42.4847   13.3703   21.7106 C   0  0  0  0  0  0  0  0  0  0  0  0
   42.6724   14.4710   22.5938 O   0  0  0  0  0  0  0  0  0  0  0  0
   42.7784   14.7000   26.1596 O   0  0  0  0  0  0  0  0  0  0  0  0
   43.6318   15.0318   27.2445 C   0  0  0  0  0  0  0  0  0  0  0  0
   45.1924   13.0256   24.8817 O   0  0  0  0  0  0  0  0  0  0  0  0
   46.3153   13.7515   25.3636 C   0  0  0  0  0  0  0  0  0  0  0  0
 20 21  1  0
  1 21  1  0
  1  2  1  0
  2 22  1  0
 22 23  1  0
  2  3  1  0
  3  7  1  0
  7  8  1  0
  8  9  2  0
  8 11  1  0
 11 12  2  0
 12 13  1  0
 13 14  2  0
 14 15  1  0
 15 16  2  0
  3  4  1  0
  4  5  1  0
  5 17  1  0
 17 18  1  0
  5  6  1  0
  6 24  1  0
 24 25  1  0
  6  1  1  0
 16 11  1  0
  7 10  1  0
 18 19  1  0
M  END
> <minimizedAffinity>
56.87727

> <CNNscore>
0.3443691134

> <CNNaffinity>
4.8118953705

> <CNN_VS>
1.6570681334

> <CNNaffinity_variance>
0.3468404114

$$$$



 25 26  0  0  0  0  0  0  0  0999 V2000
   33.1452   23.5362   25.4889 C   0  0  0  0  0  0  0  0  0  0  0  0
   33.2036   24.4421   26.7484 C   0  0  0  0  0  0  0  0  0  0  0  0
   33.1148   23.5932   28.0513 C   0  0  0  0  0  0  0  0  0  0  0  0
   33.7855   22.3518   27.8662 O   0  0  0  0  0  0  0  0  0  0  0  0
   33.0721   21.4736   26.9699 C   0  0  0  0  0  0  0  0  0  0  0  0
   32.4050   22.2164   25.7885 C   0  0  0  0  0  0  0  0  0  0  0  0
   33.8636   24.2005   29.1326 N   0  0  0  0  0  0  0  0  0  0  0  0
   33.2728   24.5446   30.3269 C   0  0  0  0  0  0  0  0  0  0  0  0
   32.0624   24.5483   30.5149 O   0  0  0  0  0  0  0  0  0  0  0  0
   34.8251   24.3723   29.0093 H   0  0  0  0  0  0  0  0  0  0  0  0
   34.1989   24.9126   31.4349 C   0  0  0  0  0  0  0  0  0  0  0  0
   35.5213   25.2441   31.1137 C   0  0  0  0  0  0  0  0  0  0  0  0
   36.4227   25.5937   32.1205 C   0  0  0  0  0  0  0  0  0  0  0  0
   36.0098   25.6047   33.4521 C   0  0  0  0  0  0  0  0  0  0  0  0
   34.6987   25.2602   33.7808 C   0  0  0  0  0  0  0  0  0  0  0  0
   33.7928   24.9105   32.7763 C   0  0  0  0  0  0  0  0  0  0  0  0
   34.0915   20.4310   26.4927 C   0  0  0  0  0  0  0  0  0  0  0  0
   33.6225   19.1179   26.8117 O   0  0  0  0  0  0  0  0  0  0  0  0
   33.5092   19.0394   27.7719 H   0  0  0  0  0  0  0  0  0  0  0  0
   35.3913   24.2771   25.1707 C   0  0  0  0  0  0  0  0  0  0  0  0
   34.4617   23.2123   25.0016 O   0  0  0  0  0  0  0  0  0  0  0  0
   32.1575   25.4247   26.6060 O   0  0  0  0  0  0  0  0  0  0  0  0
   31.0951   25.2898   27.5381 C   0  0  0  0  0  0  0  0  0  0  0  0
   31.0369   22.4548   26.1727 O   0  0  0  0  0  0  0  0  0  0  0  0
   30.2648   21.2722   26.3322 C   0  0  0  0  0  0  0  0  0  0  0  0
 20 21  1  0
  1 21  1  0
  1  2  1  0
  2 22  1  0
 22 23  1  0
  2  3  1  0
  3  7  1  0
  7  8  1  0
  8  9  2  0
  8 11  1  0
 11 12  2  0
 12 13  1  0
 13 14  2  0
 14 15  1  0
 15 16  2  0
  3  4  1  0
  4  5  1  0
  5 17  1  0
 17 18  1  0
  5  6  1  0
  6 24  1  0
 24 25  1  0
  6  1  1  0
 16 11  1  0
  7 10  1  0
 18 19  1  0
M  END
> <minimizedAffinity>
-8.43253

> <CNNscore>
0.2139304727

> <CNNaffinity>
4.0840849876

> <CNN_VS>
0.8737102151

> <CNNaffinity_variance>
0.7849876285

$$$$



 25 26  0  0  0  0  0  0  0  0999 V2000
   35.7346   24.9218   33.0262 C   0  0  0  0  0  0  0  0  0  0  0  0
   34.7393   25.0719   31.8441 C   0  0  0  0  0  0  0  0  0  0  0  0
   35.4805   24.9915   30.4765 C   0  0  0  0  0  0  0  0  0  0  0  0
   36.5606   24.0692   30.5655 O   0  0  0  0  0  0  0  0  0  0  0  0
   37.6399   24.5687   31.3835 C   0  0  0  0  0  0  0  0  0  0  0  0
   37.1538   25.3662   32.6164 C   0  0  0  0  0  0  0  0  0  0  0  0
   34.6427   24.4016   29.4524 N   0  0  0  0  0  0  0  0  0  0  0  0
   33.2895   24.2242   29.6285 C   0  0  0  0  0  0  0  0  0  0  0  0
   32.7153   24.3651   30.7013 O   0  0  0  0  0  0  0  0  0  0  0  0
   35.0543   24.1187   28.6040 H   0  0  0  0  0  0  0  0  0  0  0  0
   32.5125   23.8546   28.4118 C   0  0  0  0  0  0  0  0  0  0  0  0
   32.6892   22.5736   27.8737 C   0  0  0  0  0  0  0  0  0  0  0  0
   31.9823   22.1862   26.7342 C   0  0  0  0  0  0  0  0  0  0  0  0
   31.1036   23.0792   26.1224 C   0  0  0  0  0  0  0  0  0  0  0  0
   30.9346   24.3621   26.6435 C   0  0  0  0  0  0  0  0  0  0  0  0
   31.6394   24.7538   27.7844 C   0  0  0  0  0  0  0  0  0  0  0  0
   38.4751   23.3451   31.7818 C   0  0  0  0  0  0  0  0  0  0  0  0
   39.7145   23.7735   32.3534 O   0  0  0  0  0  0  0  0  0  0  0  0
   40.2059   24.2991   31.7030 H   0  0  0  0  0  0  0  0  0  0  0  0
   35.2804   23.3991   34.8068 C   0  0  0  0  0  0  0  0  0  0  0  0
   35.8075   23.5613   33.4943 O   0  0  0  0  0  0  0  0  0  0  0  0
   34.0177   26.3022   32.0583 O   0  0  0  0  0  0  0  0  0  0  0  0
   33.6417   26.5346   33.4074 C   0  0  0  0  0  0  0  0  0  0  0  0
   37.1834   26.7577   32.2438 O   0  0  0  0  0  0  0  0  0  0  0  0
   38.0672   27.5491   33.0265 C   0  0  0  0  0  0  0  0  0  0  0  0
 20 21  1  0
  1 21  1  0
  1  2  1  0
  2 22  1  0
 22 23  1  0
  2  3  1  0
  3  7  1  0
  7  8  1  0
  8  9  2  0
  8 11  1  0
 11 12  2  0
 12 13  1  0
 13 14  2  0
 14 15  1  0
 15 16  2  0
  3  4  1  0
  4  5  1  0
  5 17  1  0
 17 18  1  0
  5  6  1  0
  6 24  1  0
 24 25  1  0
  6  1  1  0
 16 11  1  0
  7 10  1  0
 18 19  1  0
M  END
> <minimizedAffinity>
-4.93582

> <CNNscore>
0.2107658535

> <CNNaffinity>
4.2332057953

> <CNN_VS>
0.8922152519

> <CNNaffinity_variance>
0.2144296318

$$$$



 25 26  0  0  0  0  0  0  0  0999 V2000
   33.4441   23.6866   25.8729 C   0  0  0  0  0  0  0  0  0  0  0  0
   33.5044   24.3649   27.2682 C   0  0  0  0  0  0  0  0  0  0  0  0
   33.2614   23.3274   28.4043 C   0  0  0  0  0  0  0  0  0  0  0  0
   33.8305   22.0738   28.0441 O   0  0  0  0  0  0  0  0  0  0  0  0
   33.0992   21.4268   26.9811 C   0  0  0  0  0  0  0  0  0  0  0  0
   32.5738   22.4136   25.9120 C   0  0  0  0  0  0  0  0  0  0  0  0
   33.9927   23.6746   29.6057 N   0  0  0  0  0  0  0  0  0  0  0  0
   35.2666   24.1932   29.5611 C   0  0  0  0  0  0  0  0  0  0  0  0
   35.9545   24.2304   28.5483 O   0  0  0  0  0  0  0  0  0  0  0  0
   33.5650   23.5353   30.4814 H   0  0  0  0  0  0  0  0  0  0  0  0
   35.7951   24.7459   30.8401 C   0  0  0  0  0  0  0  0  0  0  0  0
   37.0067   25.4480   30.8107 C   0  0  0  0  0  0  0  0  0  0  0  0
   37.5386   25.9815   31.9858 C   0  0  0  0  0  0  0  0  0  0  0  0
   36.8678   25.8081   33.1957 C   0  0  0  0  0  0  0  0  0  0  0  0
   35.6688   25.0963   33.2349 C   0  0  0  0  0  0  0  0  0  0  0  0
   35.1323   24.5613   32.0611 C   0  0  0  0  0  0  0  0  0  0  0  0
   34.0504   20.3824   26.3828 C   0  0  0  0  0  0  0  0  0  0  0  0
   33.6699   19.0760   26.8241 O   0  0  0  0  0  0  0  0  0  0  0  0
   33.7170   19.0352   27.7921 H   0  0  0  0  0  0  0  0  0  0  0  0
   35.5719   24.4488   25.1067 C   0  0  0  0  0  0  0  0  0  0  0  0
   34.7545   23.3205   25.3993 O   0  0  0  0  0  0  0  0  0  0  0  0
   32.5594   25.4542   27.2451 O   0  0  0  0  0  0  0  0  0  0  0  0
   31.6619   25.4757   28.3450 C   0  0  0  0  0  0  0  0  0  0  0  0
   31.2110   22.7175   26.2674 O   0  0  0  0  0  0  0  0  0  0  0  0
   30.3366   21.5978   26.2236 C   0  0  0  0  0  0  0  0  0  0  0  0
 20 21  1  0
  1 21  1  0
  1  2  1  0
  2 22  1  0
 22 23  1  0
  2  3  1  0
  3  7  1  0
  7  8  1  0
  8  9  2  0
  8 11  1  0
 11 12  2  0
 12 13  1  0
 13 14  2  0
 14 15  1  0
 15 16  2  0
  3  4  1  0
  4  5  1  0
  5 17  1  0
 17 18  1  0
  5  6  1  0
  6 24  1  0
 24 25  1  0
  6  1  1  0
 16 11  1  0
  7 10  1  0
 18 19  1  0
M  END
> <minimizedAffinity>
-8.06494

> <CNNscore>
0.2033433914

> <CNNaffinity>
4.1124510765

> <CNN_VS>
0.8362397552

> <CNNaffinity_variance>
0.7024757266

$$$$



 25 26  0  0  0  0  0  0  0  0999 V2000
   46.5429   31.4738   19.4555 C   0  0  0  0  0  0  0  0  0  0  0  0
   45.7003   30.1698   19.4593 C   0  0  0  0  0  0  0  0  0  0  0  0
   44.1782   30.4884   19.3712 C   0  0  0  0  0  0  0  0  0  0  0  0
   43.9703   31.6315   18.5495 O   0  0  0  0  0  0  0  0  0  0  0  0
   44.4241   32.8479   19.1803 C   0  0  0  0  0  0  0  0  0  0  0  0
   45.7250   32.6645   19.9966 C   0  0  0  0  0  0  0  0  0  0  0  0
   43.4590   29.4512   18.6601 N   0  0  0  0  0  0  0  0  0  0  0  0
   44.0362   28.7303   17.6399 C   0  0  0  0  0  0  0  0  0  0  0  0
   45.1098   29.0154   17.1236 O   0  0  0  0  0  0  0  0  0  0  0  0
   42.5283   29.2559   18.9148 H   0  0  0  0  0  0  0  0  0  0  0  0
   43.2837   27.5301   17.1773 C   0  0  0  0  0  0  0  0  0  0  0  0
   42.2195   27.7155   16.2856 C   0  0  0  0  0  0  0  0  0  0  0  0
   41.4869   26.6191   15.8278 C   0  0  0  0  0  0  0  0  0  0  0  0
   41.8081   25.3349   16.2654 C   0  0  0  0  0  0  0  0  0  0  0  0
   42.8564   25.1445   17.1658 C   0  0  0  0  0  0  0  0  0  0  0  0
   43.5929   26.2389   17.6260 C   0  0  0  0  0  0  0  0  0  0  0  0
   44.5910   33.8762   18.0541 C   0  0  0  0  0  0  0  0  0  0  0  0
   44.4029   33.2381   16.7878 O   0  0  0  0  0  0  0  0  0  0  0  0
   45.0614   32.5342   16.6794 H   0  0  0  0  0  0  0  0  0  0  0  0
   46.4719   30.9512   17.1280 C   0  0  0  0  0  0  0  0  0  0  0  0
   47.0030   31.8093   18.1322 O   0  0  0  0  0  0  0  0  0  0  0  0
   46.0855   29.4261   20.6335 O   0  0  0  0  0  0  0  0  0  0  0  0
   45.9847   28.0168   20.4947 C   0  0  0  0  0  0  0  0  0  0  0  0
   45.3255   32.4514   21.3645 O   0  0  0  0  0  0  0  0  0  0  0  0
   45.4078   33.6122   22.1804 C   0  0  0  0  0  0  0  0  0  0  0  0
 20 21  1  0
  1 21  1  0
  1  2  1  0
  2 22  1  0
 22 23  1  0
  2  3  1  0
  3  7  1  0
  7  8  1  0
  8  9  2  0
  8 11  1  0
 11 12  2  0
 12 13  1  0
 13 14  2  0
 14 15  1  0
 15 16  2  0
  3  4  1  0
  4  5  1  0
  5 17  1  0
 17 18  1  0
  5  6  1  0
  6 24  1  0
 24 25  1  0
  6  1  1  0
 16 11  1  0
  7 10  1  0
 18 19  1  0
M  END
> <minimizedAffinity>
-2.54173

> <CNNscore>
0.1790654957

> <CNNaffinity>
3.4768307209

> <CNN_VS>
0.6225804090

> <CNNaffinity_variance>
0.2478276938

$$$$
