


 22 25  0  0  0  0  0  0  0  0999 V2000
   -5.7446   50.4817  165.1622 C   0  0  0  0  0  0  0  0  0  0  0  0
   -5.7529   49.0282  165.6921 C   0  0  0  0  0  0  0  0  0  0  0  0
   -4.2889   48.6368  165.9403 C   0  0  0  0  0  0  0  0  0  0  0  0
   -3.5269   49.9439  165.7656 C   0  0  0  0  0  0  0  0  0  0  0  0
   -2.0210   49.8895  165.5050 C   0  0  0  0  0  0  0  0  0  0  0  0
   -1.2635   49.1139  166.5849 C   0  0  0  0  0  0  0  0  0  0  0  0
    0.2038   48.9759  166.1902 C   0  0  0  0  0  0  0  0  0  0  0  0
    0.8241   50.2521  165.6733 C   0  0  0  0  0  0  0  0  0  0  0  0
    2.2246   50.2938  165.5421 C   0  0  0  0  0  0  0  0  0  0  0  0
    2.8476   51.4360  165.0551 C   0  0  0  0  0  0  0  0  0  0  0  0
    4.2022   51.5078  164.9216 O   0  0  0  0  0  0  0  0  0  0  0  0
    2.1010   52.5445  164.6940 C   0  0  0  0  0  0  0  0  0  0  0  0
    0.7100   52.5107  164.8116 C   0  0  0  0  0  0  0  0  0  0  0  0
    0.0446   51.3629  165.2792 C   0  0  0  0  0  0  0  0  0  0  0  0
   -1.4729   51.3457  165.4499 C   0  0  0  0  0  0  0  0  0  0  0  0
   -2.2595   52.1940  164.4186 C   0  0  0  0  0  0  0  0  0  0  0  0
   -3.7892   52.1166  164.5901 C   0  0  0  0  0  0  0  0  0  0  0  0
   -4.2980   50.6681  164.6391 C   0  0  0  0  0  0  0  0  0  0  0  0
   -4.1505   50.0275  163.2365 C   0  0  0  0  0  0  0  0  0  0  0  0
    4.7357   50.7745  165.1573 H   0  0  0  0  0  0  0  0  0  0  0  0
   -7.1353   51.9508  163.9113 C   0  0  0  0  0  0  0  0  0  0  0  0
   -6.7612   50.6078  164.1765 O   0  0  0  0  0  0  0  0  0  0  0  0
 21 22  1  0
  1 22  1  0
  1  2  1  0
  2  3  1  0
  4  3  1  0
  4  5  1  0
  5  6  1  0
  6  7  1  0
  7  8  1  0
  8  9  2  0
  9 10  1  0
 10 11  1  0
 10 12  2  0
 12 13  1  0
 13 14  2  0
 14 15  1  0
 15 16  1  0
 16 17  1  0
 17 18  1  0
 18 19  1  0
 18  1  1  0
 18  4  1  0
 15  5  1  0
 14  8  1  0
 11 20  1  0
M  END
> <minimizedAffinity>
-10.60513

> <CNNscore>
0.9830946326

> <CNNaffinity>
7.8385829926

> <CNN_VS>
7.7060689926

> <CNNaffinity_variance>
0.5020539761

$$$$



 22 25  0  0  0  0  0  0  0  0999 V2000
   -5.7112   50.7163  163.8335 C   0  0  0  0  0  0  0  0  0  0  0  0
   -5.9168   52.2386  163.6490 C   0  0  0  0  0  0  0  0  0  0  0  0
   -4.5394   52.8969  163.8148 C   0  0  0  0  0  0  0  0  0  0  0  0
   -3.5745   51.7191  163.8562 C   0  0  0  0  0  0  0  0  0  0  0  0
   -2.1773   51.9317  164.4404 C   0  0  0  0  0  0  0  0  0  0  0  0
   -1.4146   53.0631  163.7480 C   0  0  0  0  0  0  0  0  0  0  0  0
   -0.0945   53.3153  164.4699 C   0  0  0  0  0  0  0  0  0  0  0  0
    0.6686   52.0581  164.8132 C   0  0  0  0  0  0  0  0  0  0  0  0
    2.0054   52.1961  165.2305 C   0  0  0  0  0  0  0  0  0  0  0  0
    2.7496   51.0750  165.5754 C   0  0  0  0  0  0  0  0  0  0  0  0
    4.0477   51.1767  165.9783 O   0  0  0  0  0  0  0  0  0  0  0  0
    2.1874   49.8114  165.5130 C   0  0  0  0  0  0  0  0  0  0  0  0
    0.8590   49.6637  165.1090 C   0  0  0  0  0  0  0  0  0  0  0  0
    0.0695   50.7789  164.7745 C   0  0  0  0  0  0  0  0  0  0  0  0
   -1.3686   50.6100  164.2891 C   0  0  0  0  0  0  0  0  0  0  0  0
   -2.1366   49.4172  164.9132 C   0  0  0  0  0  0  0  0  0  0  0  0
   -3.5983   49.3040  164.4375 C   0  0  0  0  0  0  0  0  0  0  0  0
   -4.3686   50.6228  164.6015 C   0  0  0  0  0  0  0  0  0  0  0  0
   -4.5954   50.8976  166.1090 C   0  0  0  0  0  0  0  0  0  0  0  0
    4.4573   52.0178  166.0311 H   0  0  0  0  0  0  0  0  0  0  0  0
   -6.5049   49.1984  165.4836 C   0  0  0  0  0  0  0  0  0  0  0  0
   -6.8368   50.1900  164.5243 O   0  0  0  0  0  0  0  0  0  0  0  0
 21 22  1  0
  1 22  1  0
  1  2  1  0
  2  3  1  0
  4  3  1  0
  4  5  1  0
  5  6  1  0
  6  7  1  0
  7  8  1  0
  8  9  2  0
  9 10  1  0
 10 11  1  0
 10 12  2  0
 12 13  1  0
 13 14  2  0
 14 15  1  0
 15 16  1  0
 16 17  1  0
 17 18  1  0
 18 19  1  0
 18  1  1  0
 18  4  1  0
 15  5  1  0
 14  8  1  0
 11 20  1  0
M  END
> <minimizedAffinity>
-8.74350

> <CNNscore>
0.8863720298

> <CNNaffinity>
7.4161725044

> <CNN_VS>
6.5734877586

> <CNNaffinity_variance>
0.3775983751

$$$$



 22 25  0  0  0  0  0  0  0  0999 V2000
   -4.3296   49.1496  164.6055 C   0  0  0  0  0  0  0  0  0  0  0  0
   -5.0906   50.4455  164.2380 C   0  0  0  0  0  0  0  0  0  0  0  0
   -4.0606   51.5844  164.2477 C   0  0  0  0  0  0  0  0  0  0  0  0
   -2.7246   50.8671  164.3908 C   0  0  0  0  0  0  0  0  0  0  0  0
   -1.5096   51.6618  164.8713 C   0  0  0  0  0  0  0  0  0  0  0  0
   -1.2259   52.8883  164.0015 C   0  0  0  0  0  0  0  0  0  0  0  0
   -0.0973   53.7098  164.6171 C   0  0  0  0  0  0  0  0  0  0  0  0
    1.0811   52.8862  165.0797 C   0  0  0  0  0  0  0  0  0  0  0  0
    2.2682   53.5670  165.4073 C   0  0  0  0  0  0  0  0  0  0  0  0
    3.3781   52.8616  165.8550 C   0  0  0  0  0  0  0  0  0  0  0  0
    4.5430   53.4928  166.1751 O   0  0  0  0  0  0  0  0  0  0  0  0
    3.3306   51.4840  165.9839 C   0  0  0  0  0  0  0  0  0  0  0  0
    2.1548   50.7993  165.6701 C   0  0  0  0  0  0  0  0  0  0  0  0
    1.0052   51.4839  165.2359 C   0  0  0  0  0  0  0  0  0  0  0  0
   -0.2642   50.7277  164.8498 C   0  0  0  0  0  0  0  0  0  0  0  0
   -0.5298   49.4334  165.6600 C   0  0  0  0  0  0  0  0  0  0  0  0
   -1.8419   48.7210  165.2777 C   0  0  0  0  0  0  0  0  0  0  0  0
   -3.0506   49.6684  165.3100 C   0  0  0  0  0  0  0  0  0  0  0  0
   -3.3654   50.0445  166.7793 C   0  0  0  0  0  0  0  0  0  0  0  0
    4.6074   54.4244  166.0986 H   0  0  0  0  0  0  0  0  0  0  0  0
   -6.3725   48.9950  165.8136 C   0  0  0  0  0  0  0  0  0  0  0  0
   -5.1766   48.3437  165.4144 O   0  0  0  0  0  0  0  0  0  0  0  0
 21 22  1  0
  1 22  1  0
  1  2  1  0
  2  3  1  0
  4  3  1  0
  4  5  1  0
  5  6  1  0
  6  7  1  0
  7  8  1  0
  8  9  2  0
  9 10  1  0
 10 11  1  0
 10 12  2  0
 12 13  1  0
 13 14  2  0
 14 15  1  0
 15 16  1  0
 16 17  1  0
 17 18  1  0
 18 19  1  0
 18  1  1  0
 18  4  1  0
 15  5  1  0
 14  8  1  0
 11 20  1  0
M  END
> <minimizedAffinity>
-7.77107

> <CNNscore>
0.8614240885

> <CNNaffinity>
7.4249615669

> <CNN_VS>
6.3960409164

> <CNNaffinity_variance>
0.4615679681

$$$$



 22 25  0  0  0  0  0  0  0  0999 V2000
    1.5308   50.2332  164.6342 C   0  0  0  0  0  0  0  0  0  0  0  0
    1.4134   49.2256  165.8024 C   0  0  0  0  0  0  0  0  0  0  0  0
   -0.0844   49.0582  166.0968 C   0  0  0  0  0  0  0  0  0  0  0  0
   -0.7662   49.7890  164.9474 C   0  0  0  0  0  0  0  0  0  0  0  0
   -2.2252   50.2175  165.1092 C   0  0  0  0  0  0  0  0  0  0  0  0
   -3.1481   49.0476  165.4569 C   0  0  0  0  0  0  0  0  0  0  0  0
   -4.5543   49.5650  165.7442 C   0  0  0  0  0  0  0  0  0  0  0  0
   -5.0516   50.5817  164.7444 C   0  0  0  0  0  0  0  0  0  0  0  0
   -6.4197   50.9103  164.7691 C   0  0  0  0  0  0  0  0  0  0  0  0
   -6.9287   51.8520  163.8837 C   0  0  0  0  0  0  0  0  0  0  0  0
   -8.2499   52.1871  163.8805 O   0  0  0  0  0  0  0  0  0  0  0  0
   -6.0992   52.4772  162.9685 C   0  0  0  0  0  0  0  0  0  0  0  0
   -4.7384   52.1654  162.9415 C   0  0  0  0  0  0  0  0  0  0  0  0
   -4.1851   51.2337  163.8385 C   0  0  0  0  0  0  0  0  0  0  0  0
   -2.7054   50.8612  163.7755 C   0  0  0  0  0  0  0  0  0  0  0  0
   -1.7572   52.0082  163.3423 C   0  0  0  0  0  0  0  0  0  0  0  0
   -0.2678   51.6119  163.3350 C   0  0  0  0  0  0  0  0  0  0  0  0
    0.1745   50.9819  164.6643 C   0  0  0  0  0  0  0  0  0  0  0  0
    0.1899   52.0713  165.7654 C   0  0  0  0  0  0  0  0  0  0  0  0
   -8.8375   51.7819  164.4875 H   0  0  0  0  0  0  0  0  0  0  0  0
    2.3623   52.3436  165.3497 C   0  0  0  0  0  0  0  0  0  0  0  0
    2.6732   51.0498  164.8566 O   0  0  0  0  0  0  0  0  0  0  0  0
 21 22  1  0
  1 22  1  0
  1  2  1  0
  2  3  1  0
  4  3  1  0
  4  5  1  0
  5  6  1  0
  6  7  1  0
  7  8  1  0
  8  9  2  0
  9 10  1  0
 10 11  1  0
 10 12  2  0
 12 13  1  0
 13 14  2  0
 14 15  1  0
 15 16  1  0
 16 17  1  0
 17 18  1  0
 18 19  1  0
 18  1  1  0
 18  4  1  0
 15  5  1  0
 14  8  1  0
 11 20  1  0
M  END
> <minimizedAffinity>
-8.88587

> <CNNscore>
0.7908411622

> <CNNaffinity>
7.3134093285

> <CNN_VS>
5.7837452888

> <CNNaffinity_variance>
0.4026238620

$$$$



 22 25  0  0  0  0  0  0  0  0999 V2000
    2.3306   51.5261  165.9604 C   0  0  0  0  0  0  0  0  0  0  0  0
    2.4132   52.8966  165.2473 C   0  0  0  0  0  0  0  0  0  0  0  0
    0.9911   53.2429  164.7828 C   0  0  0  0  0  0  0  0  0  0  0  0
    0.1224   52.1806  165.4436 C   0  0  0  0  0  0  0  0  0  0  0  0
   -1.2780   51.9226  164.8858 C   0  0  0  0  0  0  0  0  0  0  0  0
   -2.1377   53.1877  164.8431 C   0  0  0  0  0  0  0  0  0  0  0  0
   -3.4623   52.8903  164.1469 C   0  0  0  0  0  0  0  0  0  0  0  0
   -4.1190   51.6069  164.5971 C   0  0  0  0  0  0  0  0  0  0  0  0
   -5.4559   51.3865  164.2172 C   0  0  0  0  0  0  0  0  0  0  0  0
   -6.1043   50.2155  164.5887 C   0  0  0  0  0  0  0  0  0  0  0  0
   -7.4001   49.9761  164.2399 O   0  0  0  0  0  0  0  0  0  0  0  0
   -5.4457   49.2534  165.3351 C   0  0  0  0  0  0  0  0  0  0  0  0
   -4.1162   49.4578  165.7098 C   0  0  0  0  0  0  0  0  0  0  0  0
   -3.4219   50.6213  165.3316 C   0  0  0  0  0  0  0  0  0  0  0  0
   -1.9827   50.8623  165.7819 C   0  0  0  0  0  0  0  0  0  0  0  0
   -1.1139   49.5859  165.9155 C   0  0  0  0  0  0  0  0  0  0  0  0
    0.3446   49.8689  166.3255 C   0  0  0  0  0  0  0  0  0  0  0  0
    1.0115   50.9168  165.4219 C   0  0  0  0  0  0  0  0  0  0  0  0
    1.2392   50.3079  164.0159 C   0  0  0  0  0  0  0  0  0  0  0  0
   -7.8736   50.6075  163.7349 H   0  0  0  0  0  0  0  0  0  0  0  0
    4.4629   51.5213  164.9067 C   0  0  0  0  0  0  0  0  0  0  0  0
    3.5046   50.7861  165.6516 O   0  0  0  0  0  0  0  0  0  0  0  0
 21 22  1  0
  1 22  1  0
  1  2  1  0
  2  3  1  0
  4  3  1  0
  4  5  1  0
  5  6  1  0
  6  7  1  0
  7  8  1  0
  8  9  2  0
  9 10  1  0
 10 11  1  0
 10 12  2  0
 12 13  1  0
 13 14  2  0
 14 15  1  0
 15 16  1  0
 16 17  1  0
 17 18  1  0
 18 19  1  0
 18  1  1  0
 18  4  1  0
 15  5  1  0
 14  8  1  0
 11 20  1  0
M  END
> <minimizedAffinity>
-8.19925

> <CNNscore>
0.6418271661

> <CNNaffinity>
7.0096383095

> <CNN_VS>
4.4989762306

> <CNNaffinity_variance>
0.1524416655

$$$$



 22 25  0  0  0  0  0  0  0  0999 V2000
   -8.4370   46.8104  152.8777 C   0  0  0  0  0  0  0  0  0  0  0  0
   -9.8631   47.2281  153.3084 C   0  0  0  0  0  0  0  0  0  0  0  0
   -9.7272   48.5542  154.0707 C   0  0  0  0  0  0  0  0  0  0  0  0
   -8.2751   48.9561  153.8480 C   0  0  0  0  0  0  0  0  0  0  0  0
   -7.6405   49.9781  154.7922 C   0  0  0  0  0  0  0  0  0  0  0  0
   -8.4249   51.2904  154.8537 C   0  0  0  0  0  0  0  0  0  0  0  0
   -7.8219   52.2048  155.9157 C   0  0  0  0  0  0  0  0  0  0  0  0
   -6.3145   52.2863  155.8730 C   0  0  0  0  0  0  0  0  0  0  0  0
   -5.6913   53.2992  156.6252 C   0  0  0  0  0  0  0  0  0  0  0  0
   -4.3066   53.4103  156.6367 C   0  0  0  0  0  0  0  0  0  0  0  0
   -3.6750   54.3839  157.3515 O   0  0  0  0  0  0  0  0  0  0  0  0
   -3.5245   52.5286  155.9104 C   0  0  0  0  0  0  0  0  0  0  0  0
   -4.1320   51.5141  155.1678 C   0  0  0  0  0  0  0  0  0  0  0  0
   -5.5300   51.3584  155.1517 C   0  0  0  0  0  0  0  0  0  0  0  0
   -6.1932   50.2765  154.3020 C   0  0  0  0  0  0  0  0  0  0  0  0
   -5.3785   48.9665  154.1536 C   0  0  0  0  0  0  0  0  0  0  0  0
   -6.0969   47.8796  153.3302 C   0  0  0  0  0  0  0  0  0  0  0  0
   -7.5203   47.6077  153.8396 C   0  0  0  0  0  0  0  0  0  0  0  0
   -7.4437   46.8987  155.2147 C   0  0  0  0  0  0  0  0  0  0  0  0
   -4.1759   54.9962  157.8535 H   0  0  0  0  0  0  0  0  0  0  0  0
   -7.0603   44.8905  152.6028 C   0  0  0  0  0  0  0  0  0  0  0  0
   -8.3313   45.3964  152.9805 O   0  0  0  0  0  0  0  0  0  0  0  0
 21 22  1  0
  1 22  1  0
  1  2  1  0
  2  3  1  0
  4  3  1  0
  4  5  1  0
  5  6  1  0
  6  7  1  0
  7  8  1  0
  8  9  2  0
  9 10  1  0
 10 11  1  0
 10 12  2  0
 12 13  1  0
 13 14  2  0
 14 15  1  0
 15 16  1  0
 16 17  1  0
 17 18  1  0
 18 19  1  0
 18  1  1  0
 18  4  1  0
 15  5  1  0
 14  8  1  0
 11 20  1  0
M  END
> <minimizedAffinity>
-2.65714

> <CNNscore>
0.6036059856

> <CNNaffinity>
5.0948390961

> <CNN_VS>
3.0752754211

> <CNNaffinity_variance>
0.1004820839

$$$$



 22 25  0  0  0  0  0  0  0  0999 V2000
    1.4844   51.4760  165.7727 C   0  0  0  0  0  0  0  0  0  0  0  0
    1.9311   52.4908  164.6937 C   0  0  0  0  0  0  0  0  0  0  0  0
    0.6551   53.0072  164.0130 C   0  0  0  0  0  0  0  0  0  0  0  0
   -0.4698   52.4492  164.8750 C   0  0  0  0  0  0  0  0  0  0  0  0
   -1.8803   52.3762  164.2887 C   0  0  0  0  0  0  0  0  0  0  0  0
   -2.3812   53.7324  163.7875 C   0  0  0  0  0  0  0  0  0  0  0  0
   -3.7267   53.5615  163.0888 C   0  0  0  0  0  0  0  0  0  0  0  0
   -4.7010   52.6832  163.8372 C   0  0  0  0  0  0  0  0  0  0  0  0
   -6.0432   52.6852  163.4146 C   0  0  0  0  0  0  0  0  0  0  0  0
   -6.9792   51.8833  164.0554 C   0  0  0  0  0  0  0  0  0  0  0  0
   -8.2871   51.8677  163.6719 O   0  0  0  0  0  0  0  0  0  0  0  0
   -6.6047   51.0747  165.1149 C   0  0  0  0  0  0  0  0  0  0  0  0
   -5.2737   51.0582  165.5366 C   0  0  0  0  0  0  0  0  0  0  0  0
   -4.2953   51.8400  164.8960 C   0  0  0  0  0  0  0  0  0  0  0  0
   -2.8500   51.8542  165.3891 C   0  0  0  0  0  0  0  0  0  0  0  0
   -2.3447   50.5139  165.9809 C   0  0  0  0  0  0  0  0  0  0  0  0
   -0.8693   50.5494  166.4250 C   0  0  0  0  0  0  0  0  0  0  0  0
    0.0608   51.0669  165.3175 C   0  0  0  0  0  0  0  0  0  0  0  0
    0.1443   50.0117  164.1865 C   0  0  0  0  0  0  0  0  0  0  0  0
   -8.5725   52.4037  162.9583 H   0  0  0  0  0  0  0  0  0  0  0  0
    1.8407   49.1249  165.8191 C   0  0  0  0  0  0  0  0  0  0  0  0
    2.4305   50.4156  165.8132 O   0  0  0  0  0  0  0  0  0  0  0  0
 21 22  1  0
  1 22  1  0
  1  2  1  0
  2  3  1  0
  4  3  1  0
  4  5  1  0
  5  6  1  0
  6  7  1  0
  7  8  1  0
  8  9  2  0
  9 10  1  0
 10 11  1  0
 10 12  2  0
 12 13  1  0
 13 14  2  0
 14 15  1  0
 15 16  1  0
 16 17  1  0
 17 18  1  0
 18 19  1  0
 18  1  1  0
 18  4  1  0
 15  5  1  0
 14  8  1  0
 11 20  1  0
M  END
> <minimizedAffinity>
-7.04279

> <CNNscore>
0.5714309812

> <CNNaffinity>
7.0147342682

> <CNN_VS>
4.0084366798

> <CNNaffinity_variance>
0.4453668594

$$$$



 22 25  0  0  0  0  0  0  0  0999 V2000
   -6.8852   59.2102  175.2062 C   0  0  0  0  0  0  0  0  0  0  0  0
   -6.3842   60.4683  175.9545 C   0  0  0  0  0  0  0  0  0  0  0  0
   -7.2952   61.6299  175.5316 C   0  0  0  0  0  0  0  0  0  0  0  0
   -8.4111   60.9518  174.7475 C   0  0  0  0  0  0  0  0  0  0  0  0
   -9.2671   61.7973  173.8036 C   0  0  0  0  0  0  0  0  0  0  0  0
   -9.9245   62.9854  174.5090 C   0  0  0  0  0  0  0  0  0  0  0  0
  -10.6413   63.8625  173.4869 C   0  0  0  0  0  0  0  0  0  0  0  0
  -11.4693   63.0904  172.4873 C   0  0  0  0  0  0  0  0  0  0  0  0
  -12.3711   63.8141  171.6852 C   0  0  0  0  0  0  0  0  0  0  0  0
  -13.1455   63.1577  170.7369 C   0  0  0  0  0  0  0  0  0  0  0  0
  -14.0310   63.8308  169.9491 O   0  0  0  0  0  0  0  0  0  0  0  0
  -13.0404   61.7875  170.5695 C   0  0  0  0  0  0  0  0  0  0  0  0
  -12.1421   61.0609  171.3537 C   0  0  0  0  0  0  0  0  0  0  0  0
  -11.3262   61.6962  172.3074 C   0  0  0  0  0  0  0  0  0  0  0  0
  -10.3784   60.8925  173.1951 C   0  0  0  0  0  0  0  0  0  0  0  0
   -9.7646   59.6342  172.5303 C   0  0  0  0  0  0  0  0  0  0  0  0
   -8.7772   58.8734  173.4368 C   0  0  0  0  0  0  0  0  0  0  0  0
   -7.6934   59.7929  174.0194 C   0  0  0  0  0  0  0  0  0  0  0  0
   -6.7346   60.2340  172.8856 C   0  0  0  0  0  0  0  0  0  0  0  0
  -14.1258   64.7588  170.0380 H   0  0  0  0  0  0  0  0  0  0  0  0
   -4.5623   58.7971  175.5067 C   0  0  0  0  0  0  0  0  0  0  0  0
   -5.7579   58.4260  174.8384 O   0  0  0  0  0  0  0  0  0  0  0  0
 21 22  1  0
  1 22  1  0
  1  2  1  0
  2  3  1  0
  4  3  1  0
  4  5  1  0
  5  6  1  0
  6  7  1  0
  7  8  1  0
  8  9  2  0
  9 10  1  0
 10 11  1  0
 10 12  2  0
 12 13  1  0
 13 14  2  0
 14 15  1  0
 15 16  1  0
 16 17  1  0
 17 18  1  0
 18 19  1  0
 18  1  1  0
 18  4  1  0
 15  5  1  0
 14  8  1  0
 11 20  1  0
M  END
> <minimizedAffinity>
4.54910

> <CNNscore>
0.5408217907

> <CNNaffinity>
5.0430321693

> <CNN_VS>
2.7273817062

> <CNNaffinity_variance>
0.9714420438

$$$$



 22 25  0  0  0  0  0  0  0  0999 V2000
   -0.6702   49.4022  165.5651 C   0  0  0  0  0  0  0  0  0  0  0  0
   -1.6940   48.9186  166.6194 C   0  0  0  0  0  0  0  0  0  0  0  0
   -3.0407   49.5633  166.2603 C   0  0  0  0  0  0  0  0  0  0  0  0
   -2.7904   50.1968  164.8980 C   0  0  0  0  0  0  0  0  0  0  0  0
   -3.7415   51.2894  164.4078 C   0  0  0  0  0  0  0  0  0  0  0  0
   -5.2020   50.8335  164.3864 C   0  0  0  0  0  0  0  0  0  0  0  0
   -6.1062   52.0090  164.0280 C   0  0  0  0  0  0  0  0  0  0  0  0
   -5.6088   52.8352  162.8658 C   0  0  0  0  0  0  0  0  0  0  0  0
   -6.4978   53.7645  162.2945 C   0  0  0  0  0  0  0  0  0  0  0  0
   -6.0882   54.5634  161.2343 C   0  0  0  0  0  0  0  0  0  0  0  0
   -6.9280   55.4688  160.6573 O   0  0  0  0  0  0  0  0  0  0  0  0
   -4.8043   54.4557  160.7278 C   0  0  0  0  0  0  0  0  0  0  0  0
   -3.9112   53.5432  161.2931 C   0  0  0  0  0  0  0  0  0  0  0  0
   -4.2850   52.7349  162.3820 C   0  0  0  0  0  0  0  0  0  0  0  0
   -3.3207   51.7058  162.9678 C   0  0  0  0  0  0  0  0  0  0  0  0
   -1.8245   52.1079  162.9235 C   0  0  0  0  0  0  0  0  0  0  0  0
   -0.8841   51.0688  163.5650 C   0  0  0  0  0  0  0  0  0  0  0  0
   -1.3253   50.6807  164.9842 C   0  0  0  0  0  0  0  0  0  0  0  0
   -1.0932   51.8799  165.9369 C   0  0  0  0  0  0  0  0  0  0  0  0
   -7.8034   55.5658  160.9770 H   0  0  0  0  0  0  0  0  0  0  0  0
    1.6942   49.5234  165.3376 C   0  0  0  0  0  0  0  0  0  0  0  0
    0.5793   49.6076  166.2115 O   0  0  0  0  0  0  0  0  0  0  0  0
 21 22  1  0
  1 22  1  0
  1  2  1  0
  2  3  1  0
  4  3  1  0
  4  5  1  0
  5  6  1  0
  6  7  1  0
  7  8  1  0
  8  9  2  0
  9 10  1  0
 10 11  1  0
 10 12  2  0
 12 13  1  0
 13 14  2  0
 14 15  1  0
 15 16  1  0
 16 17  1  0
 17 18  1  0
 18 19  1  0
 18  1  1  0
 18  4  1  0
 15  5  1  0
 14  8  1  0
 11 20  1  0
M  END
> <minimizedAffinity>
-8.45567

> <CNNscore>
0.5318533778

> <CNNaffinity>
6.4040579796

> <CNN_VS>
3.4060199261

> <CNNaffinity_variance>
0.0404992364

$$$$
