


 17 17  0  0  0  0  0  0  0  0999 V2000
   28.5636   31.7720   21.0557 C   0  0  0  0  0  0  0  0  0  0  0  0
   28.4441   33.1394   20.5052 N   0  0  0  0  0  0  0  0  0  0  0  0
   27.4758   33.4517   20.5777 H   0  0  0  0  0  0  0  0  0  0  0  0
   28.7283   33.1376   19.5256 H   0  0  0  0  0  0  0  0  0  0  0  0
   27.8107   30.7034   20.1946 C   0  0  0  0  0  0  0  0  0  0  0  0
   26.1430   30.0175   18.3989 C   0  0  0  0  0  0  0  0  0  0  0  0
   26.9571   31.1597   18.9839 N   0  0  0  0  0  0  0  0  0  0  0  0
   27.9333   31.6306   17.8972 C   0  0  0  0  0  0  0  0  0  0  0  0
   26.0297   32.3221   19.3119 C   0  0  0  0  0  0  0  0  0  0  0  0
   28.2474   31.7836   22.5690 C   0  0  0  0  0  0  0  0  0  0  0  0
   28.5882   33.0592   23.3081 C   0  0  0  0  0  0  0  0  0  0  0  0
   28.0351   34.2961   22.9375 C   0  0  0  0  0  0  0  0  0  0  0  0
   28.3574   35.4574   23.6434 C   0  0  0  0  0  0  0  0  0  0  0  0
   29.2130   35.3842   24.7343 C   0  0  0  0  0  0  0  0  0  0  0  0
   29.5225   36.4987   25.4073 F   0  0  0  0  0  0  0  0  0  0  0  0
   29.7421   34.1679   25.1428 C   0  0  0  0  0  0  0  0  0  0  0  0
   29.4220   33.0058   24.4385 C   0  0  0  0  0  0  0  0  0  0  0  0
  6  7  1  0
  7  8  1  0
  7  9  1  0
  7  5  1  0
  5  1  1  0
  1  2  1  0
  1 10  1  0
 10 11  1  0
 11 12  2  0
 12 13  1  0
 13 14  2  0
 14 15  1  0
 14 16  1  0
 16 17  2  0
 17 11  1  0
  2  3  1  0
  2  4  1  0
M  CHG 1   7   1
M  END
> <minimizedAffinity>
-4.05112

> <CNNscore>
0.7601436973

> <CNNaffinity>
5.2169208527

> <CNN_VS>
3.9656095505

> <CNNaffinity_variance>
0.1523136050

$$$$



 17 17  0  0  0  0  0  0  0  0999 V2000
   27.8825   28.9382   19.6965 C   0  0  0  0  0  0  0  0  0  0  0  0
   26.6300   29.3830   19.0480 N   0  0  0  0  0  0  0  0  0  0  0  0
   26.8345   29.7156   18.1057 H   0  0  0  0  0  0  0  0  0  0  0  0
   26.2148   30.1388   19.5927 H   0  0  0  0  0  0  0  0  0  0  0  0
   28.8735   30.1176   19.9747 C   0  0  0  0  0  0  0  0  0  0  0  0
   29.0843   32.2386   21.3651 C   0  0  0  0  0  0  0  0  0  0  0  0
   28.3149   31.5353   20.2592 N   0  0  0  0  0  0  0  0  0  0  0  0
   26.8699   31.3600   20.7458 C   0  0  0  0  0  0  0  0  0  0  0  0
   28.2852   32.4241   19.0231 C   0  0  0  0  0  0  0  0  0  0  0  0
   28.4600   27.7166   18.9454 C   0  0  0  0  0  0  0  0  0  0  0  0
   29.1673   26.6867   19.7991 C   0  0  0  0  0  0  0  0  0  0  0  0
   30.2473   25.9364   19.3055 C   0  0  0  0  0  0  0  0  0  0  0  0
   30.8904   24.9996   20.1177 C   0  0  0  0  0  0  0  0  0  0  0  0
   30.4733   24.8259   21.4304 C   0  0  0  0  0  0  0  0  0  0  0  0
   31.0892   23.9256   22.2058 F   0  0  0  0  0  0  0  0  0  0  0  0
   29.4333   25.5823   21.9523 C   0  0  0  0  0  0  0  0  0  0  0  0
   28.7884   26.5188   21.1422 C   0  0  0  0  0  0  0  0  0  0  0  0
  6  7  1  0
  7  8  1  0
  7  9  1  0
  7  5  1  0
  5  1  1  0
  1  2  1  0
  1 10  1  0
 10 11  1  0
 11 12  2  0
 12 13  1  0
 13 14  2  0
 14 15  1  0
 14 16  1  0
 16 17  2  0
 17 11  1  0
  2  3  1  0
  2  4  1  0
M  CHG 1   7   1
M  END
> <minimizedAffinity>
15.19713

> <CNNscore>
0.6574929357

> <CNNaffinity>
4.6512947083

> <CNN_VS>
3.0581934452

> <CNNaffinity_variance>
0.0140987560

$$$$



 17 17  0  0  0  0  0  0  0  0999 V2000
   28.8120   28.3052   19.6539 C   0  0  0  0  0  0  0  0  0  0  0  0
   28.9345   29.0407   20.9311 N   0  0  0  0  0  0  0  0  0  0  0  0
   28.0059   29.2010   21.3215 H   0  0  0  0  0  0  0  0  0  0  0  0
   29.3928   29.9366   20.7649 H   0  0  0  0  0  0  0  0  0  0  0  0
   28.1271   29.1520   18.5295 C   0  0  0  0  0  0  0  0  0  0  0  0
   25.8521   30.2903   18.5985 C   0  0  0  0  0  0  0  0  0  0  0  0
   27.3333   30.4282   18.9090 N   0  0  0  0  0  0  0  0  0  0  0  0
   27.8790   31.5715   18.0426 C   0  0  0  0  0  0  0  0  0  0  0  0
   27.5065   30.8267   20.3684 C   0  0  0  0  0  0  0  0  0  0  0  0
   28.2250   26.8982   19.9100 C   0  0  0  0  0  0  0  0  0  0  0  0
   29.2289   25.7724   20.0301 C   0  0  0  0  0  0  0  0  0  0  0  0
   30.4558   25.9463   20.6917 C   0  0  0  0  0  0  0  0  0  0  0  0
   31.3606   24.8877   20.7985 C   0  0  0  0  0  0  0  0  0  0  0  0
   31.0341   23.6475   20.2666 C   0  0  0  0  0  0  0  0  0  0  0  0
   31.9039   22.6354   20.3677 F   0  0  0  0  0  0  0  0  0  0  0  0
   29.8122   23.4409   19.6417 C   0  0  0  0  0  0  0  0  0  0  0  0
   28.9064   24.4977   19.5331 C   0  0  0  0  0  0  0  0  0  0  0  0
  6  7  1  0
  7  8  1  0
  7  9  1  0
  7  5  1  0
  5  1  1  0
  1  2  1  0
  1 10  1  0
 10 11  1  0
 11 12  2  0
 12 13  1  0
 13 14  2  0
 14 15  1  0
 14 16  1  0
 16 17  2  0
 17 11  1  0
  2  3  1  0
  2  4  1  0
M  CHG 1   7   1
M  END
> <minimizedAffinity>
8.53011

> <CNNscore>
0.6211147904

> <CNNaffinity>
4.4013218880

> <CNN_VS>
2.7337260246

> <CNNaffinity_variance>
0.0867272019

$$$$



 17 17  0  0  0  0  0  0  0  0999 V2000
   28.5027   31.2617   21.0435 C   0  0  0  0  0  0  0  0  0  0  0  0
   28.9715   32.5242   20.4324 N   0  0  0  0  0  0  0  0  0  0  0  0
   28.1682   33.1074   20.1982 H   0  0  0  0  0  0  0  0  0  0  0  0
   29.4994   32.3161   19.5848 H   0  0  0  0  0  0  0  0  0  0  0  0
   27.7226   30.3528   20.0356 C   0  0  0  0  0  0  0  0  0  0  0  0
   25.8637   30.0910   18.3174 C   0  0  0  0  0  0  0  0  0  0  0  0
   26.9536   31.0025   18.8569 N   0  0  0  0  0  0  0  0  0  0  0  0
   27.9675   31.2240   17.7261 C   0  0  0  0  0  0  0  0  0  0  0  0
   26.3491   32.3543   19.2115 C   0  0  0  0  0  0  0  0  0  0  0  0
   27.8017   31.5561   22.3896 C   0  0  0  0  0  0  0  0  0  0  0  0
   28.2393   32.8163   23.1037 C   0  0  0  0  0  0  0  0  0  0  0  0
   29.1329   32.7773   24.1869 C   0  0  0  0  0  0  0  0  0  0  0  0
   29.5299   33.9562   24.8218 C   0  0  0  0  0  0  0  0  0  0  0  0
   29.0555   35.1778   24.3635 C   0  0  0  0  0  0  0  0  0  0  0  0
   29.4351   36.3059   24.9754 F   0  0  0  0  0  0  0  0  0  0  0  0
   28.2017   35.2448   23.2714 C   0  0  0  0  0  0  0  0  0  0  0  0
   27.8028   34.0677   22.6354 C   0  0  0  0  0  0  0  0  0  0  0  0
  6  7  1  0
  7  8  1  0
  7  9  1  0
  7  5  1  0
  5  1  1  0
  1  2  1  0
  1 10  1  0
 10 11  1  0
 11 12  2  0
 12 13  1  0
 13 14  2  0
 14 15  1  0
 14 16  1  0
 16 17  2  0
 17 11  1  0
  2  3  1  0
  2  4  1  0
M  CHG 1   7   1
M  END
> <minimizedAffinity>
-4.05072

> <CNNscore>
0.5850779414

> <CNNaffinity>
5.0045809746

> <CNN_VS>
2.9280698299

> <CNNaffinity_variance>
0.1202939749

$$$$



 17 17  0  0  0  0  0  0  0  0999 V2000
   28.0055   22.7110   23.7103 C   0  0  0  0  0  0  0  0  0  0  0  0
   29.0266   21.8037   24.2771 N   0  0  0  0  0  0  0  0  0  0  0  0
   28.9251   20.8769   23.8634 H   0  0  0  0  0  0  0  0  0  0  0  0
   28.9021   21.7405   25.2875 H   0  0  0  0  0  0  0  0  0  0  0  0
   26.5485   22.3233   24.1317 C   0  0  0  0  0  0  0  0  0  0  0  0
   24.7786   20.6388   24.8431 C   0  0  0  0  0  0  0  0  0  0  0  0
   26.1468   20.8282   24.2090 N   0  0  0  0  0  0  0  0  0  0  0  0
   27.1722   20.1333   25.1152 C   0  0  0  0  0  0  0  0  0  0  0  0
   26.1747   20.1319   22.8551 C   0  0  0  0  0  0  0  0  0  0  0  0
   28.2554   22.9063   22.1973 C   0  0  0  0  0  0  0  0  0  0  0  0
   29.4724   23.7256   21.8263 C   0  0  0  0  0  0  0  0  0  0  0  0
   30.2025   23.4714   20.6535 C   0  0  0  0  0  0  0  0  0  0  0  0
   31.3157   24.2497   20.3282 C   0  0  0  0  0  0  0  0  0  0  0  0
   31.6891   25.2973   21.1591 C   0  0  0  0  0  0  0  0  0  0  0  0
   32.7579   26.0398   20.8468 F   0  0  0  0  0  0  0  0  0  0  0  0
   30.9612   25.5917   22.3035 C   0  0  0  0  0  0  0  0  0  0  0  0
   29.8484   24.8149   22.6311 C   0  0  0  0  0  0  0  0  0  0  0  0
  6  7  1  0
  7  8  1  0
  7  9  1  0
  7  5  1  0
  5  1  1  0
  1  2  1  0
  1 10  1  0
 10 11  1  0
 11 12  2  0
 12 13  1  0
 13 14  2  0
 14 15  1  0
 14 16  1  0
 16 17  2  0
 17 11  1  0
  2  3  1  0
  2  4  1  0
M  CHG 1   7   1
M  END
> <minimizedAffinity>
-5.52636

> <CNNscore>
0.5711119771

> <CNNaffinity>
4.3816909790

> <CNN_VS>
2.5024361610

> <CNNaffinity_variance>
0.1534141451

$$$$



 17 17  0  0  0  0  0  0  0  0999 V2000
   27.5668   32.0576   20.7307 C   0  0  0  0  0  0  0  0  0  0  0  0
   28.9280   32.2856   20.1995 N   0  0  0  0  0  0  0  0  0  0  0  0
   28.9258   33.1122   19.6018 H   0  0  0  0  0  0  0  0  0  0  0  0
   29.2213   31.4738   19.6560 H   0  0  0  0  0  0  0  0  0  0  0  0
   26.5415   31.6536   19.6189 C   0  0  0  0  0  0  0  0  0  0  0  0
   27.7745   29.4599   19.2400 C   0  0  0  0  0  0  0  0  0  0  0  0
   26.9097   30.5378   18.6078 N   0  0  0  0  0  0  0  0  0  0  0  0
   27.7369   31.1949   17.4944 C   0  0  0  0  0  0  0  0  0  0  0  0
   25.6913   29.8913   17.9626 C   0  0  0  0  0  0  0  0  0  0  0  0
   27.1571   33.2299   21.6515 C   0  0  0  0  0  0  0  0  0  0  0  0
   28.0573   33.4852   22.8407 C   0  0  0  0  0  0  0  0  0  0  0  0
   28.8120   32.4564   23.4280 C   0  0  0  0  0  0  0  0  0  0  0  0
   29.6441   32.7207   24.5182 C   0  0  0  0  0  0  0  0  0  0  0  0
   29.7433   34.0152   25.0100 C   0  0  0  0  0  0  0  0  0  0  0  0
   30.5391   34.2654   26.0565 F   0  0  0  0  0  0  0  0  0  0  0  0
   29.0366   35.0553   24.4226 C   0  0  0  0  0  0  0  0  0  0  0  0
   28.2037   34.7935   23.3332 C   0  0  0  0  0  0  0  0  0  0  0  0
  6  7  1  0
  7  8  1  0
  7  9  1  0
  7  5  1  0
  5  1  1  0
  1  2  1  0
  1 10  1  0
 10 11  1  0
 11 12  2  0
 12 13  1  0
 13 14  2  0
 14 15  1  0
 14 16  1  0
 16 17  2  0
 17 11  1  0
  2  3  1  0
  2  4  1  0
M  CHG 1   7   1
M  END
> <minimizedAffinity>
-2.03157

> <CNNscore>
0.5261602998

> <CNNaffinity>
4.7023634911

> <CNN_VS>
2.4741969109

> <CNNaffinity_variance>
0.1594882607

$$$$



 17 17  0  0  0  0  0  0  0  0999 V2000
   29.0235   21.0991   24.7766 C   0  0  0  0  0  0  0  0  0  0  0  0
   29.5723   20.8477   26.1267 N   0  0  0  0  0  0  0  0  0  0  0  0
   30.0281   19.9354   26.1440 H   0  0  0  0  0  0  0  0  0  0  0  0
   28.8150   20.8624   26.8098 H   0  0  0  0  0  0  0  0  0  0  0  0
   27.8429   20.1377   24.4130 C   0  0  0  0  0  0  0  0  0  0  0  0
   26.1485   20.2755   22.5192 C   0  0  0  0  0  0  0  0  0  0  0  0
   26.4955   20.7304   23.9272 N   0  0  0  0  0  0  0  0  0  0  0  0
   26.6632   22.2555   23.8879 C   0  0  0  0  0  0  0  0  0  0  0  0
   25.3336   20.4137   24.8590 C   0  0  0  0  0  0  0  0  0  0  0  0
   30.1746   21.1949   23.7491 C   0  0  0  0  0  0  0  0  0  0  0  0
   30.1728   22.4217   22.8634 C   0  0  0  0  0  0  0  0  0  0  0  0
   30.1782   22.3193   21.4624 C   0  0  0  0  0  0  0  0  0  0  0  0
   30.1650   23.4674   20.6671 C   0  0  0  0  0  0  0  0  0  0  0  0
   30.1226   24.7189   21.2666 C   0  0  0  0  0  0  0  0  0  0  0  0
   30.1129   25.8176   20.5025 F   0  0  0  0  0  0  0  0  0  0  0  0
   30.0784   24.8448   22.6480 C   0  0  0  0  0  0  0  0  0  0  0  0
   30.0922   23.6987   23.4451 C   0  0  0  0  0  0  0  0  0  0  0  0
  6  7  1  0
  7  8  1  0
  7  9  1  0
  7  5  1  0
  5  1  1  0
  1  2  1  0
  1 10  1  0
 10 11  1  0
 11 12  2  0
 12 13  1  0
 13 14  2  0
 14 15  1  0
 14 16  1  0
 16 17  2  0
 17 11  1  0
  2  3  1  0
  2  4  1  0
M  CHG 1   7   1
M  END
> <minimizedAffinity>
-5.66308

> <CNNscore>
0.4738546014

> <CNNaffinity>
4.3423619270

> <CNN_VS>
2.0576481819

> <CNNaffinity_variance>
0.2587557435

$$$$



 17 17  0  0  0  0  0  0  0  0999 V2000
   28.0954   23.2950   23.8726 C   0  0  0  0  0  0  0  0  0  0  0  0
   29.3582   22.5256   23.8959 N   0  0  0  0  0  0  0  0  0  0  0  0
   29.4921   22.0647   22.9958 H   0  0  0  0  0  0  0  0  0  0  0  0
   29.3149   21.8234   24.6344 H   0  0  0  0  0  0  0  0  0  0  0  0
   26.8288   22.3795   23.7831 C   0  0  0  0  0  0  0  0  0  0  0  0
   25.6744   20.1328   23.4732 C   0  0  0  0  0  0  0  0  0  0  0  0
   26.9868   20.8927   23.3742 N   0  0  0  0  0  0  0  0  0  0  0  0
   27.9631   20.2534   24.3711 C   0  0  0  0  0  0  0  0  0  0  0  0
   27.5662   20.7163   21.9771 C   0  0  0  0  0  0  0  0  0  0  0  0
   28.1933   24.4376   22.8359 C   0  0  0  0  0  0  0  0  0  0  0  0
   29.2603   24.2806   21.7745 C   0  0  0  0  0  0  0  0  0  0  0  0
   30.4277   25.0618   21.7817 C   0  0  0  0  0  0  0  0  0  0  0  0
   31.4027   24.8894   20.7966 C   0  0  0  0  0  0  0  0  0  0  0  0
   31.2267   23.9222   19.8163 C   0  0  0  0  0  0  0  0  0  0  0  0
   32.1610   23.7609   18.8718 F   0  0  0  0  0  0  0  0  0  0  0  0
   30.0995   23.1125   19.8103 C   0  0  0  0  0  0  0  0  0  0  0  0
   29.1232   23.2833   20.7935 C   0  0  0  0  0  0  0  0  0  0  0  0
  6  7  1  0
  7  8  1  0
  7  9  1  0
  7  5  1  0
  5  1  1  0
  1  2  1  0
  1 10  1  0
 10 11  1  0
 11 12  2  0
 12 13  1  0
 13 14  2  0
 14 15  1  0
 14 16  1  0
 16 17  2  0
 17 11  1  0
  2  3  1  0
  2  4  1  0
M  CHG 1   7   1
M  END
> <minimizedAffinity>
-4.88214

> <CNNscore>
0.4169551134

> <CNNaffinity>
4.2722420692

> <CNN_VS>
1.7813332081

> <CNNaffinity_variance>
0.3451721370

$$$$



 17 17  0  0  0  0  0  0  0  0999 V2000
   30.1766   22.7123   23.7201 C   0  0  0  0  0  0  0  0  0  0  0  0
   28.8559   23.1613   24.2110 N   0  0  0  0  0  0  0  0  0  0  0  0
   28.2149   23.2569   23.4234 H   0  0  0  0  0  0  0  0  0  0  0  0
   28.9554   24.0618   24.6795 H   0  0  0  0  0  0  0  0  0  0  0  0
   30.8964   23.7905   22.8427 C   0  0  0  0  0  0  0  0  0  0  0  0
   28.7286   24.1555   21.5607 C   0  0  0  0  0  0  0  0  0  0  0  0
   30.2443   24.2569   21.5161 N   0  0  0  0  0  0  0  0  0  0  0  0
   30.7352   23.3068   20.4152 C   0  0  0  0  0  0  0  0  0  0  0  0
   30.6423   25.6725   21.1208 C   0  0  0  0  0  0  0  0  0  0  0  0
   30.0591   21.2961   23.1113 C   0  0  0  0  0  0  0  0  0  0  0  0
   28.7551   20.9812   22.4111 C   0  0  0  0  0  0  0  0  0  0  0  0
   27.5494   20.8548   23.1206 C   0  0  0  0  0  0  0  0  0  0  0  0
   26.3572   20.5747   22.4491 C   0  0  0  0  0  0  0  0  0  0  0  0
   26.3606   20.4434   21.0670 C   0  0  0  0  0  0  0  0  0  0  0  0
   25.2175   20.1721   20.4261 F   0  0  0  0  0  0  0  0  0  0  0  0
   27.5325   20.6014   20.3404 C   0  0  0  0  0  0  0  0  0  0  0  0
   28.7256   20.8807   21.0094 C   0  0  0  0  0  0  0  0  0  0  0  0
  6  7  1  0
  7  8  1  0
  7  9  1  0
  7  5  1  0
  5  1  1  0
  1  2  1  0
  1 10  1  0
 10 11  1  0
 11 12  2  0
 12 13  1  0
 13 14  2  0
 14 15  1  0
 14 16  1  0
 16 17  2  0
 17 11  1  0
  2  3  1  0
  2  4  1  0
M  CHG 1   7   1
M  END
> <minimizedAffinity>
-4.46739

> <CNNscore>
0.4151925445

> <CNNaffinity>
4.2218627930

> <CNN_VS>
1.7528859377

> <CNNaffinity_variance>
0.6230823398

$$$$
