


 18 18  0  0  0  0  0  0  0  0999 V2000
   16.1405    3.3091   15.9266 C   0  0  0  0  0  0  0  0  0  0  0  0
   14.7745    3.9990   15.7724 C   0  0  0  0  0  0  0  0  0  0  0  0
   13.7425    2.9768   16.0087 N   0  0  0  0  0  0  0  0  0  0  0  0
   14.4353    1.7125   16.3669 C   0  0  0  0  0  0  0  0  0  0  0  0
   15.8149    1.8155   15.7066 C   0  0  0  0  0  0  0  0  0  0  0  0
   13.1872    2.8416   15.1639 H   0  0  0  0  0  0  0  0  0  0  0  0
   14.5252    1.5638   17.8915 C   0  0  0  0  0  0  0  0  0  0  0  0
   14.3612    2.4502   18.7166 O   0  0  0  0  0  0  0  0  0  0  0  0
   14.7748    0.3003   18.2861 O   0  0  0  0  0  0  0  0  0  0  0  0
   14.8994   -0.3740   17.6475 H   0  0  0  0  0  0  0  0  0  0  0  0
   18.5640    3.4330   15.4018 C   0  0  0  0  0  0  0  0  0  0  0  0
   17.3180    3.8740   15.1525 C   0  0  0  0  0  0  0  0  0  0  0  0
   17.0854    4.9464   14.1241 C   0  0  0  0  0  0  0  0  0  0  0  0
   15.7393    1.3865   14.2308 C   0  0  0  0  0  0  0  0  0  0  0  0
   15.8489   -0.1055   14.0701 C   0  0  0  0  0  0  0  0  0  0  0  0
   16.8666   -0.7457   13.8649 O   0  0  0  0  0  0  0  0  0  0  0  0
   14.6679   -0.7318   14.2329 O   0  0  0  0  0  0  0  0  0  0  0  0
   13.8906   -0.2327   14.3903 H   0  0  0  0  0  0  0  0  0  0  0  0
 11 12  2  0
 12 13  1  0
  1 12  1  0
  1  2  1  0
  2  3  1  0
  3  4  1  0
  4  7  1  0
  7  8  2  0
  7  9  1  0
  4  5  1  0
  5 14  1  0
 14 15  1  0
 15 16  2  0
 15 17  1  0
  5  1  1  0
  3  6  1  0
  9 10  1  0
 17 18  1  0
M  END
> <minimizedAffinity>
-8.57902

> <CNNscore>
0.9738970995

> <CNNaffinity>
6.6026954651

> <CNN_VS>
6.4303460121

> <CNNaffinity_variance>
0.4506337643

$$$$



 18 18  0  0  0  0  0  0  0  0999 V2000
   18.2273   -4.0517   22.7053 C   0  0  0  0  0  0  0  0  0  0  0  0
   19.1313   -3.8905   21.4713 C   0  0  0  0  0  0  0  0  0  0  0  0
   18.2560   -3.8947   20.2883 N   0  0  0  0  0  0  0  0  0  0  0  0
   16.8526   -3.9834   20.7672 C   0  0  0  0  0  0  0  0  0  0  0  0
   16.9416   -4.6835   22.1281 C   0  0  0  0  0  0  0  0  0  0  0  0
   18.4733   -4.6975   19.6979 H   0  0  0  0  0  0  0  0  0  0  0  0
   16.2309   -2.5842   20.8677 C   0  0  0  0  0  0  0  0  0  0  0  0
   15.2920   -2.1599   20.2105 O   0  0  0  0  0  0  0  0  0  0  0  0
   16.8013   -1.8187   21.8180 O   0  0  0  0  0  0  0  0  0  0  0  0
   17.5208   -2.1510   22.3179 H   0  0  0  0  0  0  0  0  0  0  0  0
   18.1211   -4.7224   25.0934 C   0  0  0  0  0  0  0  0  0  0  0  0
   18.8160   -4.7068   23.9419 C   0  0  0  0  0  0  0  0  0  0  0  0
   20.1898   -5.3154   23.8778 C   0  0  0  0  0  0  0  0  0  0  0  0
   17.0035   -6.2101   21.9458 C   0  0  0  0  0  0  0  0  0  0  0  0
   15.6372   -6.8126   21.7613 C   0  0  0  0  0  0  0  0  0  0  0  0
   15.3125   -7.9680   21.9784 O   0  0  0  0  0  0  0  0  0  0  0  0
   14.7225   -5.9086   21.3613 O   0  0  0  0  0  0  0  0  0  0  0  0
   14.9801   -5.0229   21.1965 H   0  0  0  0  0  0  0  0  0  0  0  0
 11 12  2  0
 12 13  1  0
  1 12  1  0
  1  2  1  0
  2  3  1  0
  3  4  1  0
  4  7  1  0
  7  8  2  0
  7  9  1  0
  4  5  1  0
  5 14  1  0
 14 15  1  0
 15 16  2  0
 15 17  1  0
  5  1  1  0
  3  6  1  0
  9 10  1  0
 17 18  1  0
M  END
> <minimizedAffinity>
-5.38055

> <CNNscore>
0.5359610319

> <CNNaffinity>
3.3192398548

> <CNN_VS>
1.7789832354

> <CNNaffinity_variance>
0.5381348729

$$$$



 18 18  0  0  0  0  0  0  0  0999 V2000
   22.6335   12.3617   13.4647 C   0  0  0  0  0  0  0  0  0  0  0  0
   22.5826   12.7636   14.9486 C   0  0  0  0  0  0  0  0  0  0  0  0
   22.8949   11.5598   15.7354 N   0  0  0  0  0  0  0  0  0  0  0  0
   23.1994   10.4641   14.7798 C   0  0  0  0  0  0  0  0  0  0  0  0
   22.4375   10.8302   13.5009 C   0  0  0  0  0  0  0  0  0  0  0  0
   22.0940   11.3047   16.3132 H   0  0  0  0  0  0  0  0  0  0  0  0
   24.7128   10.3581   14.5501 C   0  0  0  0  0  0  0  0  0  0  0  0
   25.5806   10.4004   15.4095 O   0  0  0  0  0  0  0  0  0  0  0  0
   25.0396   10.1637   13.2579 O   0  0  0  0  0  0  0  0  0  0  0  0
   24.3686   10.1324   12.6046 H   0  0  0  0  0  0  0  0  0  0  0  0
   21.9079   12.9365   11.1610 C   0  0  0  0  0  0  0  0  0  0  0  0
   21.7736   13.1386   12.4840 C   0  0  0  0  0  0  0  0  0  0  0  0
   20.7897   14.1525   12.9995 C   0  0  0  0  0  0  0  0  0  0  0  0
   20.9714   10.3736   13.5977 C   0  0  0  0  0  0  0  0  0  0  0  0
   20.5949    9.4419   12.4779 C   0  0  0  0  0  0  0  0  0  0  0  0
   20.5979    9.6946   11.2847 O   0  0  0  0  0  0  0  0  0  0  0  0
   20.2833    8.2067   12.9148 O   0  0  0  0  0  0  0  0  0  0  0  0
   20.2834    8.0208   13.8331 H   0  0  0  0  0  0  0  0  0  0  0  0
 11 12  2  0
 12 13  1  0
  1 12  1  0
  1  2  1  0
  2  3  1  0
  3  4  1  0
  4  7  1  0
  7  8  2  0
  7  9  1  0
  4  5  1  0
  5 14  1  0
 14 15  1  0
 15 16  2  0
 15 17  1  0
  5  1  1  0
  3  6  1  0
  9 10  1  0
 17 18  1  0
M  END
> <minimizedAffinity>
-4.34621

> <CNNscore>
0.4649462402

> <CNNaffinity>
3.3471763134

> <CNN_VS>
1.5562570095

> <CNNaffinity_variance>
0.6143426299

$$$$



 18 18  0  0  0  0  0  0  0  0999 V2000
   15.9325    2.8588   15.0052 C   0  0  0  0  0  0  0  0  0  0  0  0
   15.3577    1.4781   14.6455 C   0  0  0  0  0  0  0  0  0  0  0  0
   15.2302    0.7204   15.9007 N   0  0  0  0  0  0  0  0  0  0  0  0
   15.6421    1.6168   17.0112 C   0  0  0  0  0  0  0  0  0  0  0  0
   16.6093    2.6203   16.3728 C   0  0  0  0  0  0  0  0  0  0  0  0
   15.8348   -0.1006   15.8741 H   0  0  0  0  0  0  0  0  0  0  0  0
   14.4162    2.2989   17.6326 C   0  0  0  0  0  0  0  0  0  0  0  0
   14.2540    2.5590   18.8157 O   0  0  0  0  0  0  0  0  0  0  0  0
   13.4875    2.6497   16.7222 O   0  0  0  0  0  0  0  0  0  0  0  0
   13.6189    2.4468   15.8169 H   0  0  0  0  0  0  0  0  0  0  0  0
   17.0479    2.9832   12.7906 C   0  0  0  0  0  0  0  0  0  0  0  0
   16.7506    3.5881   13.9547 C   0  0  0  0  0  0  0  0  0  0  0  0
   17.2470    4.9800   14.2337 C   0  0  0  0  0  0  0  0  0  0  0  0
   18.0264    2.0263   16.2919 C   0  0  0  0  0  0  0  0  0  0  0  0
   18.7570    2.1277   17.6033 C   0  0  0  0  0  0  0  0  0  0  0  0
   18.3893    1.6896   18.6805 O   0  0  0  0  0  0  0  0  0  0  0  0
   19.9540    2.7330   17.4835 O   0  0  0  0  0  0  0  0  0  0  0  0
   20.2291    3.0669   16.6523 H   0  0  0  0  0  0  0  0  0  0  0  0
 11 12  2  0
 12 13  1  0
  1 12  1  0
  1  2  1  0
  2  3  1  0
  3  4  1  0
  4  7  1  0
  7  8  2  0
  7  9  1  0
  4  5  1  0
  5 14  1  0
 14 15  1  0
 15 16  2  0
 15 17  1  0
  5  1  1  0
  3  6  1  0
  9 10  1  0
 17 18  1  0
M  END
> <minimizedAffinity>
-7.30244

> <CNNscore>
0.3549348414

> <CNNaffinity>
5.0427613258

> <CNN_VS>
1.7898516655

> <CNNaffinity_variance>
0.1396589279

$$$$



 18 18  0  0  0  0  0  0  0  0999 V2000
   19.7429   -5.3659   22.8559 C   0  0  0  0  0  0  0  0  0  0  0  0
   19.9573   -6.4930   21.8314 C   0  0  0  0  0  0  0  0  0  0  0  0
   20.4838   -5.8715   20.6058 N   0  0  0  0  0  0  0  0  0  0  0  0
   20.6593   -4.4215   20.8762 C   0  0  0  0  0  0  0  0  0  0  0  0
   19.6448   -4.0982   21.9791 C   0  0  0  0  0  0  0  0  0  0  0  0
   19.8256   -6.0048   19.8380 H   0  0  0  0  0  0  0  0  0  0  0  0
   22.1032   -4.1266   21.3037 C   0  0  0  0  0  0  0  0  0  0  0  0
   22.5866   -3.0233   21.5096 O   0  0  0  0  0  0  0  0  0  0  0  0
   22.8388   -5.2401   21.4865 O   0  0  0  0  0  0  0  0  0  0  0  0
   22.4611   -6.0826   21.3266 H   0  0  0  0  0  0  0  0  0  0  0  0
   18.4642   -4.6070   24.8441 C   0  0  0  0  0  0  0  0  0  0  0  0
   18.6668   -5.5536   23.9102 C   0  0  0  0  0  0  0  0  0  0  0  0
   17.8468   -6.8143   23.9189 C   0  0  0  0  0  0  0  0  0  0  0  0
   18.2534   -3.8435   21.3737 C   0  0  0  0  0  0  0  0  0  0  0  0
   17.9195   -2.3773   21.3225 C   0  0  0  0  0  0  0  0  0  0  0  0
   18.5538   -1.5026   20.7566 O   0  0  0  0  0  0  0  0  0  0  0  0
   16.7611   -2.0881   21.9455 O   0  0  0  0  0  0  0  0  0  0  0  0
   16.2799   -2.7659   22.3780 H   0  0  0  0  0  0  0  0  0  0  0  0
 11 12  2  0
 12 13  1  0
  1 12  1  0
  1  2  1  0
  2  3  1  0
  3  4  1  0
  4  7  1  0
  7  8  2  0
  7  9  1  0
  4  5  1  0
  5 14  1  0
 14 15  1  0
 15 16  2  0
 15 17  1  0
  5  1  1  0
  3  6  1  0
  9 10  1  0
 17 18  1  0
M  END
> <minimizedAffinity>
-4.59418

> <CNNscore>
0.3250537813

> <CNNaffinity>
3.6787159443

> <CNN_VS>
1.1957805157

> <CNNaffinity_variance>
0.1935196668

$$$$



 18 18  0  0  0  0  0  0  0  0999 V2000
   17.4585    2.7905   15.2814 C   0  0  0  0  0  0  0  0  0  0  0  0
   16.1943    3.4812   15.8206 C   0  0  0  0  0  0  0  0  0  0  0  0
   15.0500    2.9393   15.0706 N   0  0  0  0  0  0  0  0  0  0  0  0
   15.5696    1.8981   14.1473 C   0  0  0  0  0  0  0  0  0  0  0  0
   17.0273    2.2931   13.8843 C   0  0  0  0  0  0  0  0  0  0  0  0
   14.5999    3.6834   14.5375 H   0  0  0  0  0  0  0  0  0  0  0  0
   15.4451    0.5072   14.7830 C   0  0  0  0  0  0  0  0  0  0  0  0
   15.9229   -0.5317   14.3519 O   0  0  0  0  0  0  0  0  0  0  0  0
   14.7623    0.5152   15.9442 O   0  0  0  0  0  0  0  0  0  0  0  0
   14.3989    1.3157   16.2684 H   0  0  0  0  0  0  0  0  0  0  0  0
   18.9849    4.6218   14.5883 C   0  0  0  0  0  0  0  0  0  0  0  0
   18.7744    3.5431   15.3637 C   0  0  0  0  0  0  0  0  0  0  0  0
   19.8493    3.0605   16.2985 C   0  0  0  0  0  0  0  0  0  0  0  0
   17.1060    3.3547   12.7733 C   0  0  0  0  0  0  0  0  0  0  0  0
   16.6228    2.8247   11.4506 C   0  0  0  0  0  0  0  0  0  0  0  0
   15.8893    1.8670   11.2709 O   0  0  0  0  0  0  0  0  0  0  0  0
   17.0454    3.5676   10.4098 O   0  0  0  0  0  0  0  0  0  0  0  0
   17.6088    4.3018   10.5564 H   0  0  0  0  0  0  0  0  0  0  0  0
 11 12  2  0
 12 13  1  0
  1 12  1  0
  1  2  1  0
  2  3  1  0
  3  4  1  0
  4  7  1  0
  7  8  2  0
  7  9  1  0
  4  5  1  0
  5 14  1  0
 14 15  1  0
 15 16  2  0
 15 17  1  0
  5  1  1  0
  3  6  1  0
  9 10  1  0
 17 18  1  0
M  END
> <minimizedAffinity>
-7.64916

> <CNNscore>
0.2960336506

> <CNNaffinity>
4.5757527351

> <CNN_VS>
1.3545768261

> <CNNaffinity_variance>
0.1949915141

$$$$



 18 18  0  0  0  0  0  0  0  0999 V2000
   15.5151    2.2133   15.1080 C   0  0  0  0  0  0  0  0  0  0  0  0
   15.9515    2.7972   13.7536 C   0  0  0  0  0  0  0  0  0  0  0  0
   17.1575    2.0657   13.3337 N   0  0  0  0  0  0  0  0  0  0  0  0
   17.4246    1.0168   14.3510 C   0  0  0  0  0  0  0  0  0  0  0  0
   16.8035    1.5531   15.6459 C   0  0  0  0  0  0  0  0  0  0  0  0
   17.9500    2.7053   13.2774 H   0  0  0  0  0  0  0  0  0  0  0  0
   16.8102   -0.3204   13.9166 C   0  0  0  0  0  0  0  0  0  0  0  0
   17.2363   -1.0644   13.0457 O   0  0  0  0  0  0  0  0  0  0  0  0
   15.7210   -0.6598   14.6327 O   0  0  0  0  0  0  0  0  0  0  0  0
   15.4001   -0.0841   15.2988 H   0  0  0  0  0  0  0  0  0  0  0  0
   14.4669    4.3812   15.7121 C   0  0  0  0  0  0  0  0  0  0  0  0
   14.7581    3.1164   16.0651 C   0  0  0  0  0  0  0  0  0  0  0  0
   14.3582    2.5963   17.4184 C   0  0  0  0  0  0  0  0  0  0  0  0
   17.7733    2.5189   16.3490 C   0  0  0  0  0  0  0  0  0  0  0  0
   18.2331    1.9881   17.6797 C   0  0  0  0  0  0  0  0  0  0  0  0
   17.5270    1.6046   18.5972 O   0  0  0  0  0  0  0  0  0  0  0  0
   19.5746    1.9123   17.7712 O   0  0  0  0  0  0  0  0  0  0  0  0
   20.1101    2.2090   17.0618 H   0  0  0  0  0  0  0  0  0  0  0  0
 11 12  2  0
 12 13  1  0
  1 12  1  0
  1  2  1  0
  2  3  1  0
  3  4  1  0
  4  7  1  0
  7  8  2  0
  7  9  1  0
  4  5  1  0
  5 14  1  0
 14 15  1  0
 15 16  2  0
 15 17  1  0
  5  1  1  0
  3  6  1  0
  9 10  1  0
 17 18  1  0
M  END
> <minimizedAffinity>
-6.87052

> <CNNscore>
0.2867041826

> <CNNaffinity>
4.9973583221

> <CNN_VS>
1.4327635765

> <CNNaffinity_variance>
0.4415792227

$$$$



 18 18  0  0  0  0  0  0  0  0999 V2000
   19.4795   -6.0282   21.9643 C   0  0  0  0  0  0  0  0  0  0  0  0
   20.0360   -6.5238   23.3099 C   0  0  0  0  0  0  0  0  0  0  0  0
   18.8836   -6.9000   24.1442 N   0  0  0  0  0  0  0  0  0  0  0  0
   17.6569   -6.7144   23.3273 C   0  0  0  0  0  0  0  0  0  0  0  0
   18.0238   -5.6370   22.3004 C   0  0  0  0  0  0  0  0  0  0  0  0
   18.8440   -6.3044   24.9713 H   0  0  0  0  0  0  0  0  0  0  0  0
   17.2469   -8.0375   22.6672 C   0  0  0  0  0  0  0  0  0  0  0  0
   17.8707   -9.0878   22.7015 O   0  0  0  0  0  0  0  0  0  0  0  0
   16.0571   -7.9694   22.0396 O   0  0  0  0  0  0  0  0  0  0  0  0
   15.5846   -7.1605   22.0176 H   0  0  0  0  0  0  0  0  0  0  0  0
   19.8666   -4.5814   19.9842 C   0  0  0  0  0  0  0  0  0  0  0  0
   20.2970   -5.0158   21.1822 C   0  0  0  0  0  0  0  0  0  0  0  0
   21.6017   -4.5213   21.7434 C   0  0  0  0  0  0  0  0  0  0  0  0
   17.8615   -4.2337   22.9102 C   0  0  0  0  0  0  0  0  0  0  0  0
   16.7847   -3.4398   22.2217 C   0  0  0  0  0  0  0  0  0  0  0  0
   16.0869   -2.5710   22.7176 O   0  0  0  0  0  0  0  0  0  0  0  0
   16.6750   -3.7417   20.9138 O   0  0  0  0  0  0  0  0  0  0  0  0
   17.2148   -4.4105   20.5405 H   0  0  0  0  0  0  0  0  0  0  0  0
 11 12  2  0
 12 13  1  0
  1 12  1  0
  1  2  1  0
  2  3  1  0
  3  4  1  0
  4  7  1  0
  7  8  2  0
  7  9  1  0
  4  5  1  0
  5 14  1  0
 14 15  1  0
 15 16  2  0
 15 17  1  0
  5  1  1  0
  3  6  1  0
  9 10  1  0
 17 18  1  0
M  END
> <minimizedAffinity>
-4.77031

> <CNNscore>
0.2562189698

> <CNNaffinity>
3.1718342304

> <CNN_VS>
0.8126841187

> <CNNaffinity_variance>
0.5293483734

$$$$



 18 18  0  0  0  0  0  0  0  0999 V2000
   19.4341   -5.8719   21.8295 C   0  0  0  0  0  0  0  0  0  0  0  0
   20.8877   -6.0468   21.3578 C   0  0  0  0  0  0  0  0  0  0  0  0
   21.4506   -7.1866   22.0991 N   0  0  0  0  0  0  0  0  0  0  0  0
   20.3699   -7.7481   22.9496 C   0  0  0  0  0  0  0  0  0  0  0  0
   19.4160   -6.5754   23.2043 C   0  0  0  0  0  0  0  0  0  0  0  0
   22.2254   -6.8728   22.6836 H   0  0  0  0  0  0  0  0  0  0  0  0
   19.6810   -8.9196   22.2373 C   0  0  0  0  0  0  0  0  0  0  0  0
   18.5800   -9.3805   22.4999 O   0  0  0  0  0  0  0  0  0  0  0  0
   20.4012   -9.4125   21.2113 O   0  0  0  0  0  0  0  0  0  0  0  0
   21.2446   -9.0539   21.0160 H   0  0  0  0  0  0  0  0  0  0  0  0
   19.3485   -3.5533   20.9460 C   0  0  0  0  0  0  0  0  0  0  0  0
   18.8234   -4.4836   21.7633 C   0  0  0  0  0  0  0  0  0  0  0  0
   17.6444   -4.1480   22.6347 C   0  0  0  0  0  0  0  0  0  0  0  0
   19.9231   -5.7124   24.3729 C   0  0  0  0  0  0  0  0  0  0  0  0
   19.2548   -6.0721   25.6721 C   0  0  0  0  0  0  0  0  0  0  0  0
   18.1173   -5.7916   26.0111 O   0  0  0  0  0  0  0  0  0  0  0  0
   20.0400   -6.8235   26.4674 O   0  0  0  0  0  0  0  0  0  0  0  0
   20.9128   -7.0345   26.1996 H   0  0  0  0  0  0  0  0  0  0  0  0
 11 12  2  0
 12 13  1  0
  1 12  1  0
  1  2  1  0
  2  3  1  0
  3  4  1  0
  4  7  1  0
  7  8  2  0
  7  9  1  0
  4  5  1  0
  5 14  1  0
 14 15  1  0
 15 16  2  0
 15 17  1  0
  5  1  1  0
  3  6  1  0
  9 10  1  0
 17 18  1  0
M  END
> <minimizedAffinity>
-4.55192

> <CNNscore>
0.2258661687

> <CNNaffinity>
2.8650264740

> <CNN_VS>
0.6471125484

> <CNNaffinity_variance>
0.9042965770

$$$$
