


 21 23  0  0  0  0  0  0  0  0999 V2000
  -32.4304  -10.0571   13.6812 N   0  0  0  0  0  0  0  0  0  0  0  0
  -32.3265  -10.9008   14.1777 H   0  0  0  0  0  0  0  0  0  0  0  0
  -31.6354   -8.9434   14.0116 C   0  0  0  0  0  0  0  0  0  0  0  0
  -30.5695   -9.1077   14.8465 N   0  0  0  0  0  0  0  0  0  0  0  0
  -29.8157   -8.0334   15.1573 C   0  0  0  0  0  0  0  0  0  0  0  0
  -29.9687   -6.7646   14.7398 N   0  0  0  0  0  0  0  0  0  0  0  0
  -31.0277   -6.6506   13.9250 C   0  0  0  0  0  0  0  0  0  0  0  0
  -31.4746   -5.5091   13.3252 N   0  0  0  0  0  0  0  0  0  0  0  0
  -32.5698   -5.6943   12.5567 N   0  0  0  0  0  0  0  0  0  0  0  0
  -32.8161   -7.0035   12.6882 C   0  0  0  0  0  0  0  0  0  0  0  0
  -31.8860   -7.6565   13.5240 C   0  0  0  0  0  0  0  0  0  0  0  0
  -31.0399   -4.6335   13.4416 H   0  0  0  0  0  0  0  0  0  0  0  0
  -33.3501   -9.9668   12.6671 N   0  0  0  0  0  0  0  0  0  0  0  0
  -33.0438  -10.0840   11.7388 H   0  0  0  0  0  0  0  0  0  0  0  0
  -39.1161   -9.1319   13.8286 Cl  0  0  0  0  0  0  0  0  0  0  0  0
  -37.4472   -9.3591   13.4789 C   0  0  0  0  0  0  0  0  0  0  0  0
  -37.0363   -9.5666   12.1653 C   0  0  0  0  0  0  0  0  0  0  0  0
  -35.6789   -9.7539   11.8827 C   0  0  0  0  0  0  0  0  0  0  0  0
  -34.7201   -9.7120   12.9034 C   0  0  0  0  0  0  0  0  0  0  0  0
  -35.1588   -9.5304   14.2232 C   0  0  0  0  0  0  0  0  0  0  0  0
  -36.5144   -9.3440   14.5116 C   0  0  0  0  0  0  0  0  0  0  0  0
 15 16  1  0
 16 17  2  0
 17 18  1  0
 18 19  2  0
 19 13  1  0
 13  1  1  0
  1  3  1  0
  3  4  2  0
  4  5  1  0
  5  6  2  0
  6  7  1  0
  7  8  1  0
  8  9  1  0
  9 10  2  0
 10 11  1  0
 19 20  1  0
 20 21  2  0
 21 16  1  0
 11  3  1  0
 11  7  2  0
 13 14  1  0
  1  2  1  0
  8 12  1  0
M  END
> <minimizedAffinity>
-6.93760

> <CNNscore>
0.9013503790

> <CNNaffinity>
5.5071158409

> <CNN_VS>
4.9638409615

> <CNNaffinity_variance>
0.0759049207

$$$$



 21 23  0  0  0  0  0  0  0  0999 V2000
  -31.8755   -9.9972   12.9916 N   0  0  0  0  0  0  0  0  0  0  0  0
  -31.6190  -10.9103   13.2556 H   0  0  0  0  0  0  0  0  0  0  0  0
  -31.2118   -8.8897   13.5525 C   0  0  0  0  0  0  0  0  0  0  0  0
  -31.1225   -8.7811   14.9090 N   0  0  0  0  0  0  0  0  0  0  0  0
  -30.4855   -7.7152   15.4353 C   0  0  0  0  0  0  0  0  0  0  0  0
  -29.8947   -6.6980   14.7842 N   0  0  0  0  0  0  0  0  0  0  0  0
  -30.0093   -6.8455   13.4562 C   0  0  0  0  0  0  0  0  0  0  0  0
  -29.5312   -5.9989   12.4985 N   0  0  0  0  0  0  0  0  0  0  0  0
  -29.7978   -6.4022   11.2373 N   0  0  0  0  0  0  0  0  0  0  0  0
  -30.4731   -7.5437   11.4190 C   0  0  0  0  0  0  0  0  0  0  0  0
  -30.6324   -7.8772   12.7805 C   0  0  0  0  0  0  0  0  0  0  0  0
  -29.0386   -5.1724   12.7071 H   0  0  0  0  0  0  0  0  0  0  0  0
  -32.8798   -9.8041   12.0772 N   0  0  0  0  0  0  0  0  0  0  0  0
  -32.6536   -9.8036   11.1190 H   0  0  0  0  0  0  0  0  0  0  0  0
  -38.5288   -9.2208   13.8212 Cl  0  0  0  0  0  0  0  0  0  0  0  0
  -36.8953   -9.3740   13.3043 C   0  0  0  0  0  0  0  0  0  0  0  0
  -36.6029   -9.4549   11.9459 C   0  0  0  0  0  0  0  0  0  0  0  0
  -35.2741   -9.5822   11.5271 C   0  0  0  0  0  0  0  0  0  0  0  0
  -34.2266   -9.6058   12.4573 C   0  0  0  0  0  0  0  0  0  0  0  0
  -34.5457   -9.5520   13.8221 C   0  0  0  0  0  0  0  0  0  0  0  0
  -35.8722   -9.4260   14.2464 C   0  0  0  0  0  0  0  0  0  0  0  0
 15 16  1  0
 16 17  2  0
 17 18  1  0
 18 19  2  0
 19 13  1  0
 13  1  1  0
  1  3  1  0
  3  4  2  0
  4  5  1  0
  5  6  2  0
  6  7  1  0
  7  8  1  0
  8  9  1  0
  9 10  2  0
 10 11  1  0
 19 20  1  0
 20 21  2  0
 21 16  1  0
 11  3  1  0
 11  7  2  0
 13 14  1  0
  1  2  1  0
  8 12  1  0
M  END
> <minimizedAffinity>
-6.15175

> <CNNscore>
0.6835448146

> <CNNaffinity>
5.5349574089

> <CNN_VS>
3.7833914757

> <CNNaffinity_variance>
0.1075644270

$$$$



 21 23  0  0  0  0  0  0  0  0999 V2000
  -33.5717  -11.0815   11.1797 N   0  0  0  0  0  0  0  0  0  0  0  0
  -33.3917  -11.9778   10.8142 H   0  0  0  0  0  0  0  0  0  0  0  0
  -33.4413   -9.9468   10.3570 C   0  0  0  0  0  0  0  0  0  0  0  0
  -34.0196   -9.9471    9.1218 N   0  0  0  0  0  0  0  0  0  0  0  0
  -33.8870   -8.8551    8.3417 C   0  0  0  0  0  0  0  0  0  0  0  0
  -33.2393   -7.7105    8.6210 N   0  0  0  0  0  0  0  0  0  0  0  0
  -32.6858   -7.7564    9.8417 C   0  0  0  0  0  0  0  0  0  0  0  0
  -31.9545   -6.7728   10.4419 N   0  0  0  0  0  0  0  0  0  0  0  0
  -31.5190   -7.0995   11.6779 N   0  0  0  0  0  0  0  0  0  0  0  0
  -31.9954   -8.3385   11.8509 C   0  0  0  0  0  0  0  0  0  0  0  0
  -32.7366   -8.8019   10.7437 C   0  0  0  0  0  0  0  0  0  0  0  0
  -31.7625   -5.9070   10.0143 H   0  0  0  0  0  0  0  0  0  0  0  0
  -33.9497  -10.9385   12.4908 N   0  0  0  0  0  0  0  0  0  0  0  0
  -33.3057  -11.1740   13.1972 H   0  0  0  0  0  0  0  0  0  0  0  0
  -39.3056   -8.7601   13.8552 Cl  0  0  0  0  0  0  0  0  0  0  0  0
  -37.7552   -9.4020   13.4765 C   0  0  0  0  0  0  0  0  0  0  0  0
  -36.7318   -9.3431   14.4181 C   0  0  0  0  0  0  0  0  0  0  0  0
  -35.4707   -9.8632   14.1077 C   0  0  0  0  0  0  0  0  0  0  0  0
  -35.2277  -10.4663   12.8667 C   0  0  0  0  0  0  0  0  0  0  0  0
  -36.2645  -10.4892   11.9222 C   0  0  0  0  0  0  0  0  0  0  0  0
  -37.5266   -9.9697   12.2266 C   0  0  0  0  0  0  0  0  0  0  0  0
 15 16  1  0
 16 17  2  0
 17 18  1  0
 18 19  2  0
 19 13  1  0
 13  1  1  0
  1  3  1  0
  3  4  2  0
  4  5  1  0
  5  6  2  0
  6  7  1  0
  7  8  1  0
  8  9  1  0
  9 10  2  0
 10 11  1  0
 19 20  1  0
 20 21  2  0
 21 16  1  0
 11  3  1  0
 11  7  2  0
 13 14  1  0
  1  2  1  0
  8 12  1  0
M  END
> <minimizedAffinity>
-5.77700

> <CNNscore>
0.6737785339

> <CNNaffinity>
5.3329925537

> <CNN_VS>
3.5932559967

> <CNNaffinity_variance>
0.0231311861

$$$$



 21 23  0  0  0  0  0  0  0  0999 V2000
  -32.6498   -9.8940   12.0620 N   0  0  0  0  0  0  0  0  0  0  0  0
  -32.4472  -10.5902   11.3961 H   0  0  0  0  0  0  0  0  0  0  0  0
  -32.2408   -8.5657   11.8383 C   0  0  0  0  0  0  0  0  0  0  0  0
  -32.3581   -8.0321   10.5887 N   0  0  0  0  0  0  0  0  0  0  0  0
  -31.9619   -6.7591   10.3856 C   0  0  0  0  0  0  0  0  0  0  0  0
  -31.4470   -5.8985   11.2810 N   0  0  0  0  0  0  0  0  0  0  0  0
  -31.3481   -6.4659   12.4921 C   0  0  0  0  0  0  0  0  0  0  0  0
  -30.8657   -5.8827   13.6278 N   0  0  0  0  0  0  0  0  0  0  0  0
  -30.8836   -6.6978   14.7045 N   0  0  0  0  0  0  0  0  0  0  0  0
  -31.3938   -7.8353   14.2169 C   0  0  0  0  0  0  0  0  0  0  0  0
  -31.7094   -7.7522   12.8445 C   0  0  0  0  0  0  0  0  0  0  0  0
  -30.5358   -4.9557   13.6591 H   0  0  0  0  0  0  0  0  0  0  0  0
  -33.3308  -10.2183   13.2080 N   0  0  0  0  0  0  0  0  0  0  0  0
  -32.8355  -10.6309   13.9520 H   0  0  0  0  0  0  0  0  0  0  0  0
  -39.1272   -9.0032   13.6752 Cl  0  0  0  0  0  0  0  0  0  0  0  0
  -37.4507   -9.3686   13.5542 C   0  0  0  0  0  0  0  0  0  0  0  0
  -36.6494   -9.3316   14.6917 C   0  0  0  0  0  0  0  0  0  0  0  0
  -35.2854   -9.6265   14.5913 C   0  0  0  0  0  0  0  0  0  0  0  0
  -34.7160   -9.9830   13.3619 C   0  0  0  0  0  0  0  0  0  0  0  0
  -35.5354   -9.9861   12.2235 C   0  0  0  0  0  0  0  0  0  0  0  0
  -36.8991   -9.6909   12.3178 C   0  0  0  0  0  0  0  0  0  0  0  0
 15 16  1  0
 16 17  2  0
 17 18  1  0
 18 19  2  0
 19 13  1  0
 13  1  1  0
  1  3  1  0
  3  4  2  0
  4  5  1  0
  5  6  2  0
  6  7  1  0
  7  8  1  0
  8  9  1  0
  9 10  2  0
 10 11  1  0
 19 20  1  0
 20 21  2  0
 21 16  1  0
 11  3  1  0
 11  7  2  0
 13 14  1  0
  1  2  1  0
  8 12  1  0
M  END
> <minimizedAffinity>
-6.10513

> <CNNscore>
0.6592541337

> <CNNaffinity>
5.0248341560

> <CNN_VS>
3.3126425743

> <CNNaffinity_variance>
0.1684983969

$$$$



 21 23  0  0  0  0  0  0  0  0999 V2000
  -34.2135   -9.7736    9.3797 N   0  0  0  0  0  0  0  0  0  0  0  0
  -33.7879  -10.5915    9.7248 H   0  0  0  0  0  0  0  0  0  0  0  0
  -33.6416   -9.0881    8.2913 C   0  0  0  0  0  0  0  0  0  0  0  0
  -33.9255   -9.4962    7.0212 N   0  0  0  0  0  0  0  0  0  0  0  0
  -33.3710   -8.8329    5.9862 C   0  0  0  0  0  0  0  0  0  0  0  0
  -32.5423   -7.7750    6.0280 N   0  0  0  0  0  0  0  0  0  0  0  0
  -32.2900   -7.4112    7.2938 C   0  0  0  0  0  0  0  0  0  0  0  0
  -31.4893   -6.3841    7.7019 N   0  0  0  0  0  0  0  0  0  0  0  0
  -31.4195   -6.2524    9.0442 N   0  0  0  0  0  0  0  0  0  0  0  0
  -32.2052   -7.2410    9.4885 C   0  0  0  0  0  0  0  0  0  0  0  0
  -32.7819   -7.9955    8.4453 C   0  0  0  0  0  0  0  0  0  0  0  0
  -31.0082   -5.7949    7.0769 H   0  0  0  0  0  0  0  0  0  0  0  0
  -35.3639   -9.3019    9.9595 N   0  0  0  0  0  0  0  0  0  0  0  0
  -36.0715   -8.9385    9.3795 H   0  0  0  0  0  0  0  0  0  0  0  0
  -36.0587   -9.5914   15.8525 Cl  0  0  0  0  0  0  0  0  0  0  0  0
  -35.8720   -9.4941   14.1452 C   0  0  0  0  0  0  0  0  0  0  0  0
  -36.9751   -9.6752   13.3159 C   0  0  0  0  0  0  0  0  0  0  0  0
  -36.8212   -9.5984   11.9274 C   0  0  0  0  0  0  0  0  0  0  0  0
  -35.5726   -9.3173   11.3574 C   0  0  0  0  0  0  0  0  0  0  0  0
  -34.4691   -9.1668   12.2100 C   0  0  0  0  0  0  0  0  0  0  0  0
  -34.6169   -9.2439   13.5984 C   0  0  0  0  0  0  0  0  0  0  0  0
 15 16  1  0
 16 17  2  0
 17 18  1  0
 18 19  2  0
 19 13  1  0
 13  1  1  0
  1  3  1  0
  3  4  2  0
  4  5  1  0
  5  6  2  0
  6  7  1  0
  7  8  1  0
  8  9  1  0
  9 10  2  0
 10 11  1  0
 19 20  1  0
 20 21  2  0
 21 16  1  0
 11  3  1  0
 11  7  2  0
 13 14  1  0
  1  2  1  0
  8 12  1  0
M  END
> <minimizedAffinity>
-6.15913

> <CNNscore>
0.6448602676

> <CNNaffinity>
5.3599185944

> <CNN_VS>
3.4563984871

> <CNNaffinity_variance>
0.0708017424

$$$$



 21 23  0  0  0  0  0  0  0  0999 V2000
  -33.5298  -10.9217   11.1487 N   0  0  0  0  0  0  0  0  0  0  0  0
  -33.5618  -11.7329   10.5917 H   0  0  0  0  0  0  0  0  0  0  0  0
  -33.0235   -9.7214   10.6154 C   0  0  0  0  0  0  0  0  0  0  0  0
  -32.2255   -8.9309   11.3890 N   0  0  0  0  0  0  0  0  0  0  0  0
  -31.7473   -7.7825   10.8682 C   0  0  0  0  0  0  0  0  0  0  0  0
  -31.9504   -7.2830    9.6366 N   0  0  0  0  0  0  0  0  0  0  0  0
  -32.7406   -8.0905    8.9142 C   0  0  0  0  0  0  0  0  0  0  0  0
  -33.1534   -7.8894    7.6290 N   0  0  0  0  0  0  0  0  0  0  0  0
  -33.9494   -8.8726    7.1558 N   0  0  0  0  0  0  0  0  0  0  0  0
  -34.0386   -9.7168    8.1909 C   0  0  0  0  0  0  0  0  0  0  0  0
  -33.3019   -9.2879    9.3149 C   0  0  0  0  0  0  0  0  0  0  0  0
  -32.8953   -7.1022    7.0971 H   0  0  0  0  0  0  0  0  0  0  0  0
  -33.9785  -10.9612   12.4445 N   0  0  0  0  0  0  0  0  0  0  0  0
  -33.4000  -11.3608   13.1336 H   0  0  0  0  0  0  0  0  0  0  0  0
  -39.2492   -8.6106   13.8546 Cl  0  0  0  0  0  0  0  0  0  0  0  0
  -37.7243   -9.3031   13.4621 C   0  0  0  0  0  0  0  0  0  0  0  0
  -36.7138   -9.3420   14.4186 C   0  0  0  0  0  0  0  0  0  0  0  0
  -35.4733   -9.9032   14.0970 C   0  0  0  0  0  0  0  0  0  0  0  0
  -35.2392  -10.4504   12.8287 C   0  0  0  0  0  0  0  0  0  0  0  0
  -36.2612  -10.3749   11.8711 C   0  0  0  0  0  0  0  0  0  0  0  0
  -37.5027   -9.8139   12.1866 C   0  0  0  0  0  0  0  0  0  0  0  0
 15 16  1  0
 16 17  2  0
 17 18  1  0
 18 19  2  0
 19 13  1  0
 13  1  1  0
  1  3  1  0
  3  4  2  0
  4  5  1  0
  5  6  2  0
  6  7  1  0
  7  8  1  0
  8  9  1  0
  9 10  2  0
 10 11  1  0
 19 20  1  0
 20 21  2  0
 21 16  1  0
 11  3  1  0
 11  7  2  0
 13 14  1  0
  1  2  1  0
  8 12  1  0
M  END
> <minimizedAffinity>
-5.65887

> <CNNscore>
0.6152641177

> <CNNaffinity>
5.2551841736

> <CNN_VS>
3.2333261967

> <CNNaffinity_variance>
0.0103682065

$$$$



 21 23  0  0  0  0  0  0  0  0999 V2000
  -33.6014   -9.4933    9.7236 N   0  0  0  0  0  0  0  0  0  0  0  0
  -32.8153   -9.4014   10.3091 H   0  0  0  0  0  0  0  0  0  0  0  0
  -33.4299   -9.7504    8.3503 C   0  0  0  0  0  0  0  0  0  0  0  0
  -34.3805   -9.3285    7.4680 N   0  0  0  0  0  0  0  0  0  0  0  0
  -34.2064   -9.5815    6.1547 C   0  0  0  0  0  0  0  0  0  0  0  0
  -33.1803  -10.2164    5.5618 N   0  0  0  0  0  0  0  0  0  0  0  0
  -32.2735  -10.6144    6.4661 C   0  0  0  0  0  0  0  0  0  0  0  0
  -31.1142  -11.2891    6.2145 N   0  0  0  0  0  0  0  0  0  0  0  0
  -30.3944  -11.5615    7.3244 N   0  0  0  0  0  0  0  0  0  0  0  0
  -31.1392  -11.0387    8.3062 C   0  0  0  0  0  0  0  0  0  0  0  0
  -32.3205  -10.4287    7.8345 C   0  0  0  0  0  0  0  0  0  0  0  0
  -30.8295  -11.5523    5.3096 H   0  0  0  0  0  0  0  0  0  0  0  0
  -34.8640   -9.3710   10.2462 N   0  0  0  0  0  0  0  0  0  0  0  0
  -35.6161   -9.2064    9.6326 H   0  0  0  0  0  0  0  0  0  0  0  0
  -36.1387   -9.5614   16.0455 Cl  0  0  0  0  0  0  0  0  0  0  0  0
  -35.7561   -9.5206   14.3690 C   0  0  0  0  0  0  0  0  0  0  0  0
  -34.4355   -9.3508   13.9633 C   0  0  0  0  0  0  0  0  0  0  0  0
  -34.1262   -9.3151   12.5993 C   0  0  0  0  0  0  0  0  0  0  0  0
  -35.1269   -9.4720   11.6313 C   0  0  0  0  0  0  0  0  0  0  0  0
  -36.4544   -9.6130   12.0615 C   0  0  0  0  0  0  0  0  0  0  0  0
  -36.7694   -9.6480   13.4235 C   0  0  0  0  0  0  0  0  0  0  0  0
 15 16  1  0
 16 17  2  0
 17 18  1  0
 18 19  2  0
 19 13  1  0
 13  1  1  0
  1  3  1  0
  3  4  2  0
  4  5  1  0
  5  6  2  0
  6  7  1  0
  7  8  1  0
  8  9  1  0
  9 10  2  0
 10 11  1  0
 19 20  1  0
 20 21  2  0
 21 16  1  0
 11  3  1  0
 11  7  2  0
 13 14  1  0
  1  2  1  0
  8 12  1  0
M  END
> <minimizedAffinity>
-5.57063

> <CNNscore>
0.5379626751

> <CNNaffinity>
5.2616229057

> <CNN_VS>
2.8305566311

> <CNNaffinity_variance>
0.0558846779

$$$$



 21 23  0  0  0  0  0  0  0  0999 V2000
  -32.8301   -7.7320    4.9645 N   0  0  0  0  0  0  0  0  0  0  0  0
  -32.5052   -6.8784    5.3321 H   0  0  0  0  0  0  0  0  0  0  0  0
  -32.6486   -8.0251    3.5997 C   0  0  0  0  0  0  0  0  0  0  0  0
  -33.1744   -7.1871    2.6609 N   0  0  0  0  0  0  0  0  0  0  0  0
  -32.9956   -7.4786    1.3563 C   0  0  0  0  0  0  0  0  0  0  0  0
  -32.3394   -8.5238    0.8228 N   0  0  0  0  0  0  0  0  0  0  0  0
  -31.8428   -9.3199    1.7809 C   0  0  0  0  0  0  0  0  0  0  0  0
  -31.1282  -10.4680    1.5965 N   0  0  0  0  0  0  0  0  0  0  0  0
  -30.7576  -11.0661    2.7494 N   0  0  0  0  0  0  0  0  0  0  0  0
  -31.2666  -10.2591    3.6884 C   0  0  0  0  0  0  0  0  0  0  0  0
  -31.9495   -9.1494    3.1480 C   0  0  0  0  0  0  0  0  0  0  0  0
  -30.9042  -10.8262    0.7073 H   0  0  0  0  0  0  0  0  0  0  0  0
  -33.4596   -8.6358    5.7825 N   0  0  0  0  0  0  0  0  0  0  0  0
  -33.9302   -9.3972    5.3726 H   0  0  0  0  0  0  0  0  0  0  0  0
  -33.7316   -8.0442   11.6875 Cl  0  0  0  0  0  0  0  0  0  0  0  0
  -33.6333   -8.2189    9.9790 C   0  0  0  0  0  0  0  0  0  0  0  0
  -32.7147   -7.4628    9.2566 C   0  0  0  0  0  0  0  0  0  0  0  0
  -32.6379   -7.6040    7.8669 C   0  0  0  0  0  0  0  0  0  0  0  0
  -33.4587   -8.5163    7.1908 C   0  0  0  0  0  0  0  0  0  0  0  0
  -34.3969   -9.2470    7.9345 C   0  0  0  0  0  0  0  0  0  0  0  0
  -34.4790   -9.1089    9.3236 C   0  0  0  0  0  0  0  0  0  0  0  0
 15 16  1  0
 16 17  2  0
 17 18  1  0
 18 19  2  0
 19 13  1  0
 13  1  1  0
  1  3  1  0
  3  4  2  0
  4  5  1  0
  5  6  2  0
  6  7  1  0
  7  8  1  0
  8  9  1  0
  9 10  2  0
 10 11  1  0
 19 20  1  0
 20 21  2  0
 21 16  1  0
 11  3  1  0
 11  7  2  0
 13 14  1  0
  1  2  1  0
  8 12  1  0
M  END
> <minimizedAffinity>
-6.24406

> <CNNscore>
0.4313412905

> <CNNaffinity>
4.2889819145

> <CNN_VS>
1.8500150442

> <CNNaffinity_variance>
0.1188300624

$$$$



 21 23  0  0  0  0  0  0  0  0999 V2000
  -32.3508   -9.9428   13.8557 N   0  0  0  0  0  0  0  0  0  0  0  0
  -32.1350  -10.4369   14.6794 H   0  0  0  0  0  0  0  0  0  0  0  0
  -32.0369   -8.5743   13.7533 C   0  0  0  0  0  0  0  0  0  0  0  0
  -32.8647   -7.7500   13.0495 N   0  0  0  0  0  0  0  0  0  0  0  0
  -32.5534   -6.4411   12.9569 C   0  0  0  0  0  0  0  0  0  0  0  0
  -31.4965   -5.8009   13.4866 N   0  0  0  0  0  0  0  0  0  0  0  0
  -30.7110   -6.6494   14.1660 C   0  0  0  0  0  0  0  0  0  0  0  0
  -29.5558   -6.3405   14.8239 N   0  0  0  0  0  0  0  0  0  0  0  0
  -28.9720   -7.4024   15.4204 N   0  0  0  0  0  0  0  0  0  0  0  0
  -29.7956   -8.4131   15.1168 C   0  0  0  0  0  0  0  0  0  0  0  0
  -30.9018   -8.0066   14.3416 C   0  0  0  0  0  0  0  0  0  0  0  0
  -29.1834   -5.4299   14.8602 H   0  0  0  0  0  0  0  0  0  0  0  0
  -32.9572  -10.5878   12.8077 N   0  0  0  0  0  0  0  0  0  0  0  0
  -32.4821  -11.3311   12.3709 H   0  0  0  0  0  0  0  0  0  0  0  0
  -38.4201   -9.3466   10.8303 Cl  0  0  0  0  0  0  0  0  0  0  0  0
  -36.8326   -9.6875   11.3983 C   0  0  0  0  0  0  0  0  0  0  0  0
  -35.7362   -9.4543   10.5732 C   0  0  0  0  0  0  0  0  0  0  0  0
  -34.4459   -9.7347   11.0355 C   0  0  0  0  0  0  0  0  0  0  0  0
  -34.2378  -10.2265   12.3308 C   0  0  0  0  0  0  0  0  0  0  0  0
  -35.3583  -10.4813   13.1352 C   0  0  0  0  0  0  0  0  0  0  0  0
  -36.6503  -10.2042   12.6777 C   0  0  0  0  0  0  0  0  0  0  0  0
 15 16  1  0
 16 17  2  0
 17 18  1  0
 18 19  2  0
 19 13  1  0
 13  1  1  0
  1  3  1  0
  3  4  2  0
  4  5  1  0
  5  6  2  0
  6  7  1  0
  7  8  1  0
  8  9  1  0
  9 10  2  0
 10 11  1  0
 19 20  1  0
 20 21  2  0
 21 16  1  0
 11  3  1  0
 11  7  2  0
 13 14  1  0
  1  2  1  0
  8 12  1  0
M  END
> <minimizedAffinity>
-6.18202

> <CNNscore>
0.4165251553

> <CNNaffinity>
4.9440636635

> <CNN_VS>
2.0593268871

> <CNNaffinity_variance>
0.0807305947

$$$$
