


 28 31  0  0  0  0  0  0  0  0999 V2000
   13.9124   -2.2422   10.9779 C   0  0  0  0  0  0  0  0  0  0  0  0
   13.0003   -1.2813   10.6888 N   0  0  0  0  0  0  0  0  0  0  0  0
   13.3731   -0.2182    9.9474 C   0  0  0  0  0  0  0  0  0  0  0  0
   14.5739    0.0318    9.4222 N   0  0  0  0  0  0  0  0  0  0  0  0
   15.4407   -0.9482    9.7032 C   0  0  0  0  0  0  0  0  0  0  0  0
   16.7296   -0.9226    9.2755 O   0  0  0  0  0  0  0  0  0  0  0  0
   17.3446   -2.0603    9.7175 C   0  0  0  0  0  0  0  0  0  0  0  0
   16.4401   -2.8187   10.4490 C   0  0  0  0  0  0  0  0  0  0  0  0
   15.2045   -2.0958   10.4437 C   0  0  0  0  0  0  0  0  0  0  0  0
   18.7436   -2.1900    9.3109 C   0  0  0  0  0  0  0  0  0  0  0  0
   19.5777   -3.1727    9.8642 C   0  0  0  0  0  0  0  0  0  0  0  0
   20.9163   -3.2816    9.4713 C   0  0  0  0  0  0  0  0  0  0  0  0
   21.4317   -2.4102    8.5158 C   0  0  0  0  0  0  0  0  0  0  0  0
   23.0775   -2.5436    8.0347 Cl  0  0  0  0  0  0  0  0  0  0  0  0
   20.6198   -1.4336    7.9471 C   0  0  0  0  0  0  0  0  0  0  0  0
   19.2824   -1.3270    8.3422 C   0  0  0  0  0  0  0  0  0  0  0  0
   16.7561   -4.0790   11.0912 C   0  0  0  0  0  0  0  0  0  0  0  0
   17.0262   -4.1273   12.4638 C   0  0  0  0  0  0  0  0  0  0  0  0
   17.3174   -5.3468   13.0773 C   0  0  0  0  0  0  0  0  0  0  0  0
   17.3359   -6.5206   12.3247 C   0  0  0  0  0  0  0  0  0  0  0  0
   17.0636   -6.4786   10.9578 C   0  0  0  0  0  0  0  0  0  0  0  0
   16.7737   -5.2609   10.3406 C   0  0  0  0  0  0  0  0  0  0  0  0
   13.5378   -3.3358   11.7546 N   0  0  0  0  0  0  0  0  0  0  0  0
   14.1886   -4.0392   11.9803 H   0  0  0  0  0  0  0  0  0  0  0  0
   12.1534   -3.4163   12.2287 C   0  0  0  0  0  0  0  0  0  0  0  0
   10.5728   -2.2795   13.7273 O   0  0  0  0  0  0  0  0  0  0  0  0
   11.9432   -2.6068   13.5168 C   0  0  0  0  0  0  0  0  0  0  0  0
   10.4844   -1.7704   14.5482 H   0  0  0  0  0  0  0  0  0  0  0  0
 26 27  1  0
 27 25  1  0
 25 23  1  0
 23  1  1  0
  1  2  2  0
  2  3  1  0
  3  4  2  0
  4  5  1  0
  5  6  1  0
  6  7  1  0
  7 10  1  0
 10 11  2  0
 11 12  1  0
 12 13  2  0
 13 14  1  0
 13 15  1  0
 15 16  2  0
  7  8  2  0
  8 17  1  0
 17 18  2  0
 18 19  1  0
 19 20  2  0
 20 21  1  0
 21 22  2  0
  8  9  1  0
  9  1  1  0
  9  5  2  0
 16 10  1  0
 22 17  1  0
 26 28  1  0
 23 24  1  0
M  END
> <minimizedAffinity>
-8.32089

> <CNNscore>
0.8962509632

> <CNNaffinity>
6.9729351997

> <CNN_VS>
6.2494997978

> <CNNaffinity_variance>
0.0724595860

$$$$



 28 31  0  0  0  0  0  0  0  0999 V2000
   14.6726   -1.6504   10.4394 C   0  0  0  0  0  0  0  0  0  0  0  0
   14.0021   -0.5509   10.0149 N   0  0  0  0  0  0  0  0  0  0  0  0
   14.6599    0.3940    9.3126 C   0  0  0  0  0  0  0  0  0  0  0  0
   15.9437    0.3970    8.9489 N   0  0  0  0  0  0  0  0  0  0  0  0
   16.5677   -0.7133    9.3596 C   0  0  0  0  0  0  0  0  0  0  0  0
   17.8825   -0.9429    9.1080 O   0  0  0  0  0  0  0  0  0  0  0  0
   18.2110   -2.1550    9.6472 C   0  0  0  0  0  0  0  0  0  0  0  0
   17.0937   -2.7033   10.2634 C   0  0  0  0  0  0  0  0  0  0  0  0
   16.0269   -1.7663   10.0807 C   0  0  0  0  0  0  0  0  0  0  0  0
   19.6011   -2.5565    9.4338 C   0  0  0  0  0  0  0  0  0  0  0  0
   20.2362   -3.4732   10.2847 C   0  0  0  0  0  0  0  0  0  0  0  0
   21.5689   -3.8436   10.0733 C   0  0  0  0  0  0  0  0  0  0  0  0
   22.2777   -3.3034    9.0039 C   0  0  0  0  0  0  0  0  0  0  0  0
   23.9162   -3.7579    8.7457 Cl  0  0  0  0  0  0  0  0  0  0  0  0
   21.6647   -2.3992    8.1418 C   0  0  0  0  0  0  0  0  0  0  0  0
   20.3326   -2.0305    8.3561 C   0  0  0  0  0  0  0  0  0  0  0  0
   17.0823   -3.9727   10.9629 C   0  0  0  0  0  0  0  0  0  0  0  0
   16.9553   -5.1724   10.2531 C   0  0  0  0  0  0  0  0  0  0  0  0
   16.9579   -6.3915   10.9330 C   0  0  0  0  0  0  0  0  0  0  0  0
   17.0912   -6.4170   12.3208 C   0  0  0  0  0  0  0  0  0  0  0  0
   17.2221   -5.2251   13.0323 C   0  0  0  0  0  0  0  0  0  0  0  0
   17.2182   -4.0042   12.3561 C   0  0  0  0  0  0  0  0  0  0  0  0
   14.0027   -2.6234   11.1769 N   0  0  0  0  0  0  0  0  0  0  0  0
   13.9593   -3.5543   10.8595 H   0  0  0  0  0  0  0  0  0  0  0  0
   13.3637   -2.2310   12.4360 C   0  0  0  0  0  0  0  0  0  0  0  0
   11.4085   -2.6011   13.8772 O   0  0  0  0  0  0  0  0  0  0  0  0
   11.9906   -2.8963   12.6109 C   0  0  0  0  0  0  0  0  0  0  0  0
   10.5457   -3.0389   13.9463 H   0  0  0  0  0  0  0  0  0  0  0  0
 26 27  1  0
 27 25  1  0
 25 23  1  0
 23  1  1  0
  1  2  2  0
  2  3  1  0
  3  4  2  0
  4  5  1  0
  5  6  1  0
  6  7  1  0
  7 10  1  0
 10 11  2  0
 11 12  1  0
 12 13  2  0
 13 14  1  0
 13 15  1  0
 15 16  2  0
  7  8  2  0
  8 17  1  0
 17 18  2  0
 18 19  1  0
 19 20  2  0
 20 21  1  0
 21 22  2  0
  8  9  1  0
  9  1  1  0
  9  5  2  0
 16 10  1  0
 22 17  1  0
 26 28  1  0
 23 24  1  0
M  END
> <minimizedAffinity>
-7.91249

> <CNNscore>
0.8665719628

> <CNNaffinity>
6.6871504784

> <CNN_VS>
5.7948970795

> <CNNaffinity_variance>
0.0168908816

$$$$



 28 31  0  0  0  0  0  0  0  0999 V2000
   17.6699   -0.8418    9.4752 C   0  0  0  0  0  0  0  0  0  0  0  0
   16.8599    0.0758    8.8914 N   0  0  0  0  0  0  0  0  0  0  0  0
   15.5269   -0.0054    9.0788 C   0  0  0  0  0  0  0  0  0  0  0  0
   14.8560   -0.9031    9.8031 N   0  0  0  0  0  0  0  0  0  0  0  0
   15.6866   -1.7753   10.3864 C   0  0  0  0  0  0  0  0  0  0  0  0
   15.2407   -2.7848   11.1781 O   0  0  0  0  0  0  0  0  0  0  0  0
   16.3269   -3.4855   11.6220 C   0  0  0  0  0  0  0  0  0  0  0  0
   17.4835   -2.9240   11.0971 C   0  0  0  0  0  0  0  0  0  0  0  0
   17.0688   -1.8158   10.2914 C   0  0  0  0  0  0  0  0  0  0  0  0
   16.0063   -4.5989   12.5147 C   0  0  0  0  0  0  0  0  0  0  0  0
   15.7747   -4.3956   13.8831 C   0  0  0  0  0  0  0  0  0  0  0  0
   15.4757   -5.4706   14.7275 C   0  0  0  0  0  0  0  0  0  0  0  0
   15.4003   -6.7601   14.2084 C   0  0  0  0  0  0  0  0  0  0  0  0
   15.0344   -8.0811   15.2472 Cl  0  0  0  0  0  0  0  0  0  0  0  0
   15.6175   -6.9837   12.8523 C   0  0  0  0  0  0  0  0  0  0  0  0
   15.9168   -5.9072   12.0110 C   0  0  0  0  0  0  0  0  0  0  0  0
   18.8216   -3.4270   11.3363 C   0  0  0  0  0  0  0  0  0  0  0  0
   19.8889   -2.5412   11.5249 C   0  0  0  0  0  0  0  0  0  0  0  0
   21.1724   -3.0334   11.7673 C   0  0  0  0  0  0  0  0  0  0  0  0
   21.3935   -4.4090   11.8263 C   0  0  0  0  0  0  0  0  0  0  0  0
   20.3331   -5.2956   11.6432 C   0  0  0  0  0  0  0  0  0  0  0  0
   19.0487   -4.8072   11.3989 C   0  0  0  0  0  0  0  0  0  0  0  0
   19.0463   -0.7720    9.2745 N   0  0  0  0  0  0  0  0  0  0  0  0
   19.6260   -0.3079    9.9208 H   0  0  0  0  0  0  0  0  0  0  0  0
   19.6125   -1.4047    8.0801 C   0  0  0  0  0  0  0  0  0  0  0  0
   21.4926   -0.1952    7.0607 O   0  0  0  0  0  0  0  0  0  0  0  0
   21.1332   -1.2077    7.9963 C   0  0  0  0  0  0  0  0  0  0  0  0
   22.4579   -0.1031    7.0388 H   0  0  0  0  0  0  0  0  0  0  0  0
 26 27  1  0
 27 25  1  0
 25 23  1  0
 23  1  1  0
  1  2  2  0
  2  3  1  0
  3  4  2  0
  4  5  1  0
  5  6  1  0
  6  7  1  0
  7 10  1  0
 10 11  2  0
 11 12  1  0
 12 13  2  0
 13 14  1  0
 13 15  1  0
 15 16  2  0
  7  8  2  0
  8 17  1  0
 17 18  2  0
 18 19  1  0
 19 20  2  0
 20 21  1  0
 21 22  2  0
  8  9  1  0
  9  1  1  0
  9  5  2  0
 16 10  1  0
 22 17  1  0
 26 28  1  0
 23 24  1  0
M  END
> <minimizedAffinity>
-7.55690

> <CNNscore>
0.7940059304

> <CNNaffinity>
6.6455121040

> <CNN_VS>
5.2765760422

> <CNNaffinity_variance>
0.0432577021

$$$$



 28 31  0  0  0  0  0  0  0  0999 V2000
   18.1390   -2.3431    9.7670 C   0  0  0  0  0  0  0  0  0  0  0  0
   18.6234   -1.5590    8.7724 N   0  0  0  0  0  0  0  0  0  0  0  0
   17.8218   -0.6295    8.2138 C   0  0  0  0  0  0  0  0  0  0  0  0
   16.5542   -0.3504    8.5233 N   0  0  0  0  0  0  0  0  0  0  0  0
   16.1174   -1.1224    9.5253 C   0  0  0  0  0  0  0  0  0  0  0  0
   14.8567   -1.0245   10.0211 O   0  0  0  0  0  0  0  0  0  0  0  0
   14.7280   -1.9350   11.0322 C   0  0  0  0  0  0  0  0  0  0  0  0
   15.9191   -2.6340   11.1774 C   0  0  0  0  0  0  0  0  0  0  0  0
   16.8209   -2.1100   10.1968 C   0  0  0  0  0  0  0  0  0  0  0  0
   13.4207   -1.9316   11.6880 C   0  0  0  0  0  0  0  0  0  0  0  0
   12.8085   -0.7359   12.0920 C   0  0  0  0  0  0  0  0  0  0  0  0
   11.5604   -0.7471   12.7248 C   0  0  0  0  0  0  0  0  0  0  0  0
   10.9102   -1.9564   12.9546 C   0  0  0  0  0  0  0  0  0  0  0  0
    9.3771   -1.9696   13.7337 Cl  0  0  0  0  0  0  0  0  0  0  0  0
   11.4950   -3.1539   12.5540 C   0  0  0  0  0  0  0  0  0  0  0  0
   12.7427   -3.1394   11.9223 C   0  0  0  0  0  0  0  0  0  0  0  0
   16.1351   -3.6969   12.1388 C   0  0  0  0  0  0  0  0  0  0  0  0
   16.1015   -5.0365   11.7344 C   0  0  0  0  0  0  0  0  0  0  0  0
   16.3229   -6.0540   12.6639 C   0  0  0  0  0  0  0  0  0  0  0  0
   16.5823   -5.7379   13.9971 C   0  0  0  0  0  0  0  0  0  0  0  0
   16.6209   -4.4050   14.4044 C   0  0  0  0  0  0  0  0  0  0  0  0
   16.3983   -3.3850   13.4782 C   0  0  0  0  0  0  0  0  0  0  0  0
   18.9571   -3.3143   10.3387 N   0  0  0  0  0  0  0  0  0  0  0  0
   18.5688   -4.0705   10.8353 H   0  0  0  0  0  0  0  0  0  0  0  0
   20.4088   -3.1858   10.1848 C   0  0  0  0  0  0  0  0  0  0  0  0
   21.6973   -4.6212    8.6630 O   0  0  0  0  0  0  0  0  0  0  0  0
   20.8577   -3.4732    8.7445 C   0  0  0  0  0  0  0  0  0  0  0  0
   21.9572   -4.7668    7.7398 H   0  0  0  0  0  0  0  0  0  0  0  0
 26 27  1  0
 27 25  1  0
 25 23  1  0
 23  1  1  0
  1  2  2  0
  2  3  1  0
  3  4  2  0
  4  5  1  0
  5  6  1  0
  6  7  1  0
  7 10  1  0
 10 11  2  0
 11 12  1  0
 12 13  2  0
 13 14  1  0
 13 15  1  0
 15 16  2  0
  7  8  2  0
  8 17  1  0
 17 18  2  0
 18 19  1  0
 19 20  2  0
 20 21  1  0
 21 22  2  0
  8  9  1  0
  9  1  1  0
  9  5  2  0
 16 10  1  0
 22 17  1  0
 26 28  1  0
 23 24  1  0
M  END
> <minimizedAffinity>
-7.90011

> <CNNscore>
0.6938390732

> <CNNaffinity>
6.5742888451

> <CNN_VS>
4.5614986420

> <CNNaffinity_variance>
0.0517659038

$$$$



 28 31  0  0  0  0  0  0  0  0999 V2000
   13.5480   -2.6944   11.5105 C   0  0  0  0  0  0  0  0  0  0  0  0
   12.5514   -1.8039   11.2812 N   0  0  0  0  0  0  0  0  0  0  0  0
   12.7965   -0.7203   10.5168 C   0  0  0  0  0  0  0  0  0  0  0  0
   13.9391   -0.3862    9.9141 N   0  0  0  0  0  0  0  0  0  0  0  0
   14.8916   -1.2991   10.1382 C   0  0  0  0  0  0  0  0  0  0  0  0
   16.1445   -1.1820    9.6271 O   0  0  0  0  0  0  0  0  0  0  0  0
   16.8684   -2.2696   10.0283 C   0  0  0  0  0  0  0  0  0  0  0  0
   16.0711   -3.0882   10.8176 C   0  0  0  0  0  0  0  0  0  0  0  0
   14.7884   -2.4571   10.8929 C   0  0  0  0  0  0  0  0  0  0  0  0
   18.2436   -2.2993    9.5312 C   0  0  0  0  0  0  0  0  0  0  0  0
   19.1507   -3.2846    9.9482 C   0  0  0  0  0  0  0  0  0  0  0  0
   20.4657   -3.2975    9.4701 C   0  0  0  0  0  0  0  0  0  0  0  0
   20.8841   -2.3262    8.5648 C   0  0  0  0  0  0  0  0  0  0  0  0
   22.5009   -2.3418    7.9788 Cl  0  0  0  0  0  0  0  0  0  0  0  0
   19.9984   -1.3447    8.1306 C   0  0  0  0  0  0  0  0  0  0  0  0
   18.6848   -1.3342    8.6108 C   0  0  0  0  0  0  0  0  0  0  0  0
   16.5195   -4.3189   11.4382 C   0  0  0  0  0  0  0  0  0  0  0  0
   16.6693   -5.4836   10.6764 C   0  0  0  0  0  0  0  0  0  0  0  0
   17.1136   -6.6617   11.2789 C   0  0  0  0  0  0  0  0  0  0  0  0
   17.4133   -6.6798   12.6407 C   0  0  0  0  0  0  0  0  0  0  0  0
   17.2697   -5.5214   13.4033 C   0  0  0  0  0  0  0  0  0  0  0  0
   16.8240   -4.3420   12.8046 C   0  0  0  0  0  0  0  0  0  0  0  0
   13.3055   -3.8084   12.3103 N   0  0  0  0  0  0  0  0  0  0  0  0
   13.3585   -4.7175   11.9363 H   0  0  0  0  0  0  0  0  0  0  0  0
   12.9698   -3.5975   13.7211 C   0  0  0  0  0  0  0  0  0  0  0  0
   12.3589   -5.6721   14.8869 O   0  0  0  0  0  0  0  0  0  0  0  0
   13.4254   -4.7729   14.5982 C   0  0  0  0  0  0  0  0  0  0  0  0
   12.6882   -6.3971   15.4409 H   0  0  0  0  0  0  0  0  0  0  0  0
 26 27  1  0
 27 25  1  0
 25 23  1  0
 23  1  1  0
  1  2  2  0
  2  3  1  0
  3  4  2  0
  4  5  1  0
  5  6  1  0
  6  7  1  0
  7 10  1  0
 10 11  2  0
 11 12  1  0
 12 13  2  0
 13 14  1  0
 13 15  1  0
 15 16  2  0
  7  8  2  0
  8 17  1  0
 17 18  2  0
 18 19  1  0
 19 20  2  0
 20 21  1  0
 21 22  2  0
  8  9  1  0
  9  1  1  0
  9  5  2  0
 16 10  1  0
 22 17  1  0
 26 28  1  0
 23 24  1  0
M  END
> <minimizedAffinity>
-8.30175

> <CNNscore>
0.6840981245

> <CNNaffinity>
6.6979155540

> <CNN_VS>
4.5820312500

> <CNNaffinity_variance>
0.0689138547

$$$$



 28 31  0  0  0  0  0  0  0  0999 V2000
   14.8081   -1.6040   10.5074 C   0  0  0  0  0  0  0  0  0  0  0  0
   14.5089   -0.5963    9.6507 N   0  0  0  0  0  0  0  0  0  0  0  0
   15.5028    0.0073    8.9678 C   0  0  0  0  0  0  0  0  0  0  0  0
   16.8081   -0.2664    9.0107 N   0  0  0  0  0  0  0  0  0  0  0  0
   17.0643   -1.2821    9.8434 C   0  0  0  0  0  0  0  0  0  0  0  0
   18.3225   -1.7478   10.0553 O   0  0  0  0  0  0  0  0  0  0  0  0
   18.2462   -2.7834   10.9440 C   0  0  0  0  0  0  0  0  0  0  0  0
   16.9219   -2.9751   11.3155 C   0  0  0  0  0  0  0  0  0  0  0  0
   16.1539   -1.9983   10.6046 C   0  0  0  0  0  0  0  0  0  0  0  0
   19.5302   -3.4108   11.2551 C   0  0  0  0  0  0  0  0  0  0  0  0
   20.7278   -2.6814   11.2210 C   0  0  0  0  0  0  0  0  0  0  0  0
   21.9504   -3.2956   11.5141 C   0  0  0  0  0  0  0  0  0  0  0  0
   21.9852   -4.6462   11.8497 C   0  0  0  0  0  0  0  0  0  0  0  0
   23.4884   -5.4009   12.2083 Cl  0  0  0  0  0  0  0  0  0  0  0  0
   20.8082   -5.3870   11.8985 C   0  0  0  0  0  0  0  0  0  0  0  0
   19.5878   -4.7703   11.6045 C   0  0  0  0  0  0  0  0  0  0  0  0
   16.4723   -3.9730   12.2657 C   0  0  0  0  0  0  0  0  0  0  0  0
   15.9413   -5.1888   11.8193 C   0  0  0  0  0  0  0  0  0  0  0  0
   15.5222   -6.1499   12.7407 C   0  0  0  0  0  0  0  0  0  0  0  0
   15.6355   -5.9025   14.1084 C   0  0  0  0  0  0  0  0  0  0  0  0
   16.1675   -4.6948   14.5584 C   0  0  0  0  0  0  0  0  0  0  0  0
   16.5860   -3.7308   13.6400 C   0  0  0  0  0  0  0  0  0  0  0  0
   13.7881   -2.2224   11.2261 N   0  0  0  0  0  0  0  0  0  0  0  0
   13.4234   -3.0900   10.9370 H   0  0  0  0  0  0  0  0  0  0  0  0
   13.2695   -1.5532   12.4223 C   0  0  0  0  0  0  0  0  0  0  0  0
   11.6264   -2.7805   13.7753 O   0  0  0  0  0  0  0  0  0  0  0  0
   13.0159   -2.5454   13.5667 C   0  0  0  0  0  0  0  0  0  0  0  0
   11.5108   -3.4104   14.5039 H   0  0  0  0  0  0  0  0  0  0  0  0
 26 27  1  0
 27 25  1  0
 25 23  1  0
 23  1  1  0
  1  2  2  0
  2  3  1  0
  3  4  2  0
  4  5  1  0
  5  6  1  0
  6  7  1  0
  7 10  1  0
 10 11  2  0
 11 12  1  0
 12 13  2  0
 13 14  1  0
 13 15  1  0
 15 16  2  0
  7  8  2  0
  8 17  1  0
 17 18  2  0
 18 19  1  0
 19 20  2  0
 20 21  1  0
 21 22  2  0
  8  9  1  0
  9  1  1  0
  9  5  2  0
 16 10  1  0
 22 17  1  0
 26 28  1  0
 23 24  1  0
M  END
> <minimizedAffinity>
-7.28454

> <CNNscore>
0.5370039344

> <CNNaffinity>
6.5990943909

> <CNN_VS>
3.5437395573

> <CNNaffinity_variance>
0.1332911700

$$$$



 28 31  0  0  0  0  0  0  0  0999 V2000
   18.7537   -1.5496    8.9893 C   0  0  0  0  0  0  0  0  0  0  0  0
   17.6634   -0.8970    8.5159 N   0  0  0  0  0  0  0  0  0  0  0  0
   16.4361   -1.4037    8.7515 C   0  0  0  0  0  0  0  0  0  0  0  0
   16.1245   -2.5106    9.4282 N   0  0  0  0  0  0  0  0  0  0  0  0
   17.2201   -3.1138    9.9040 C   0  0  0  0  0  0  0  0  0  0  0  0
   17.1609   -4.2606   10.6294 O   0  0  0  0  0  0  0  0  0  0  0  0
   18.4370   -4.6123   10.9697 C   0  0  0  0  0  0  0  0  0  0  0  0
   19.3265   -3.6843   10.4441 C   0  0  0  0  0  0  0  0  0  0  0  0
   18.5379   -2.7129    9.7485 C   0  0  0  0  0  0  0  0  0  0  0  0
   18.5353   -5.8246   11.7820 C   0  0  0  0  0  0  0  0  0  0  0  0
   19.7771   -6.3991   12.0907 C   0  0  0  0  0  0  0  0  0  0  0  0
   19.8568   -7.5632   12.8632 C   0  0  0  0  0  0  0  0  0  0  0  0
   18.6930   -8.1607   13.3390 C   0  0  0  0  0  0  0  0  0  0  0  0
   18.7916   -9.5923   14.2871 Cl  0  0  0  0  0  0  0  0  0  0  0  0
   17.4508   -7.6028   13.0526 C   0  0  0  0  0  0  0  0  0  0  0  0
   17.3745   -6.4396   12.2797 C   0  0  0  0  0  0  0  0  0  0  0  0
   20.7671   -3.7567   10.5859 C   0  0  0  0  0  0  0  0  0  0  0  0
   21.5520   -4.3189    9.5725 C   0  0  0  0  0  0  0  0  0  0  0  0
   22.9399   -4.3734    9.7111 C   0  0  0  0  0  0  0  0  0  0  0  0
   23.5480   -3.8641   10.8580 C   0  0  0  0  0  0  0  0  0  0  0  0
   22.7710   -3.2993   11.8687 C   0  0  0  0  0  0  0  0  0  0  0  0
   21.3829   -3.2445   11.7344 C   0  0  0  0  0  0  0  0  0  0  0  0
   20.0249   -1.0393    8.7378 N   0  0  0  0  0  0  0  0  0  0  0  0
   20.5636   -0.6501    9.4641 H   0  0  0  0  0  0  0  0  0  0  0  0
   20.5429   -1.0945    7.3680 C   0  0  0  0  0  0  0  0  0  0  0  0
   22.6218   -0.9977    6.0621 O   0  0  0  0  0  0  0  0  0  0  0  0
   22.0661   -1.2885    7.3412 C   0  0  0  0  0  0  0  0  0  0  0  0
   23.5820   -1.1323    6.0885 H   0  0  0  0  0  0  0  0  0  0  0  0
 26 27  1  0
 27 25  1  0
 25 23  1  0
 23  1  1  0
  1  2  2  0
  2  3  1  0
  3  4  2  0
  4  5  1  0
  5  6  1  0
  6  7  1  0
  7 10  1  0
 10 11  2  0
 11 12  1  0
 12 13  2  0
 13 14  1  0
 13 15  1  0
 15 16  2  0
  7  8  2  0
  8 17  1  0
 17 18  2  0
 18 19  1  0
 19 20  2  0
 20 21  1  0
 21 22  2  0
  8  9  1  0
  9  1  1  0
  9  5  2  0
 16 10  1  0
 22 17  1  0
 26 28  1  0
 23 24  1  0
M  END
> <minimizedAffinity>
-6.09519

> <CNNscore>
0.4217892885

> <CNNaffinity>
5.8479976654

> <CNN_VS>
2.4666228294

> <CNNaffinity_variance>
0.0667560771

$$$$



 28 31  0  0  0  0  0  0  0  0999 V2000
   18.1332   -0.9772    9.0571 C   0  0  0  0  0  0  0  0  0  0  0  0
   17.2366   -0.0599    8.6171 N   0  0  0  0  0  0  0  0  0  0  0  0
   15.9267   -0.2348    8.8855 C   0  0  0  0  0  0  0  0  0  0  0  0
   15.3574   -1.2310    9.5667 N   0  0  0  0  0  0  0  0  0  0  0  0
   16.2720   -2.1020   10.0090 C   0  0  0  0  0  0  0  0  0  0  0  0
   15.9375   -3.2023   10.7315 O   0  0  0  0  0  0  0  0  0  0  0  0
   17.0877   -3.8755   11.0342 C   0  0  0  0  0  0  0  0  0  0  0  0
   18.1727   -3.2032   10.4871 C   0  0  0  0  0  0  0  0  0  0  0  0
   17.6440   -2.0535    9.8178 C   0  0  0  0  0  0  0  0  0  0  0  0
   16.8907   -5.0808   11.8389 C   0  0  0  0  0  0  0  0  0  0  0  0
   16.8311   -5.0234   13.2391 C   0  0  0  0  0  0  0  0  0  0  0  0
   16.6491   -6.1852   13.9976 C   0  0  0  0  0  0  0  0  0  0  0  0
   16.5194   -7.4161   13.3605 C   0  0  0  0  0  0  0  0  0  0  0  0
   16.2973   -8.8438   14.2934 Cl  0  0  0  0  0  0  0  0  0  0  0  0
   16.5663   -7.4953   11.9720 C   0  0  0  0  0  0  0  0  0  0  0  0
   16.7490   -6.3323   11.2168 C   0  0  0  0  0  0  0  0  0  0  0  0
   19.5488   -3.6468   10.5877 C   0  0  0  0  0  0  0  0  0  0  0  0
   20.1207   -3.9059   11.8388 C   0  0  0  0  0  0  0  0  0  0  0  0
   21.4427   -4.3449   11.9266 C   0  0  0  0  0  0  0  0  0  0  0  0
   22.1957   -4.5304   10.7677 C   0  0  0  0  0  0  0  0  0  0  0  0
   21.6296   -4.2777    9.5187 C   0  0  0  0  0  0  0  0  0  0  0  0
   20.3086   -3.8370    9.4271 C   0  0  0  0  0  0  0  0  0  0  0  0
   19.4859   -0.8099    8.7715 N   0  0  0  0  0  0  0  0  0  0  0  0
   20.1177   -0.5315    9.4734 H   0  0  0  0  0  0  0  0  0  0  0  0
   19.9483   -1.0575    7.4031 C   0  0  0  0  0  0  0  0  0  0  0  0
   22.0955   -0.2567    6.5172 O   0  0  0  0  0  0  0  0  0  0  0  0
   21.4720   -1.2388    7.3395 C   0  0  0  0  0  0  0  0  0  0  0  0
   23.0538   -0.4067    6.5044 H   0  0  0  0  0  0  0  0  0  0  0  0
 26 27  1  0
 27 25  1  0
 25 23  1  0
 23  1  1  0
  1  2  2  0
  2  3  1  0
  3  4  2  0
  4  5  1  0
  5  6  1  0
  6  7  1  0
  7 10  1  0
 10 11  2  0
 11 12  1  0
 12 13  2  0
 13 14  1  0
 13 15  1  0
 15 16  2  0
  7  8  2  0
  8 17  1  0
 17 18  2  0
 18 19  1  0
 19 20  2  0
 20 21  1  0
 21 22  2  0
  8  9  1  0
  9  1  1  0
  9  5  2  0
 16 10  1  0
 22 17  1  0
 26 28  1  0
 23 24  1  0
M  END
> <minimizedAffinity>
-6.81774

> <CNNscore>
0.3854278326

> <CNNaffinity>
6.1525230408

> <CNN_VS>
2.3713536263

> <CNNaffinity_variance>
0.0082215322

$$$$



 28 31  0  0  0  0  0  0  0  0999 V2000
   22.1210   -8.1295   17.7272 C   0  0  0  0  0  0  0  0  0  0  0  0
   23.3374   -7.7170   17.2923 N   0  0  0  0  0  0  0  0  0  0  0  0
   23.4941   -7.3714   15.9983 C   0  0  0  0  0  0  0  0  0  0  0  0
   22.5708   -7.3689   15.0349 N   0  0  0  0  0  0  0  0  0  0  0  0
   21.3783   -7.7542   15.5040 C   0  0  0  0  0  0  0  0  0  0  0  0
   20.2769   -7.8307   14.7129 O   0  0  0  0  0  0  0  0  0  0  0  0
   19.2283   -8.2433   15.4863 C   0  0  0  0  0  0  0  0  0  0  0  0
   19.6676   -8.4458   16.7881 C   0  0  0  0  0  0  0  0  0  0  0  0
   21.0643   -8.1323   16.8000 C   0  0  0  0  0  0  0  0  0  0  0  0
   17.9551   -8.3496   14.7745 C   0  0  0  0  0  0  0  0  0  0  0  0
   17.9015   -8.3836   13.3732 C   0  0  0  0  0  0  0  0  0  0  0  0
   16.6761   -8.4785   12.7043 C   0  0  0  0  0  0  0  0  0  0  0  0
   15.4917   -8.5458   13.4328 C   0  0  0  0  0  0  0  0  0  0  0  0
   13.9859   -8.6608   12.6100 Cl  0  0  0  0  0  0  0  0  0  0  0  0
   15.5220   -8.5229   14.8238 C   0  0  0  0  0  0  0  0  0  0  0  0
   16.7484   -8.4274   15.4894 C   0  0  0  0  0  0  0  0  0  0  0  0
   18.8285   -8.9112   17.8744 C   0  0  0  0  0  0  0  0  0  0  0  0
   18.5977  -10.2798   18.0558 C   0  0  0  0  0  0  0  0  0  0  0  0
   17.7987  -10.7209   19.1119 C   0  0  0  0  0  0  0  0  0  0  0  0
   17.2317   -9.7990   19.9912 C   0  0  0  0  0  0  0  0  0  0  0  0
   17.4617   -8.4348   19.8174 C   0  0  0  0  0  0  0  0  0  0  0  0
   18.2587   -7.9900   18.7616 C   0  0  0  0  0  0  0  0  0  0  0  0
   21.9556   -8.5010   19.0591 N   0  0  0  0  0  0  0  0  0  0  0  0
   21.1337   -8.9540   19.3567 H   0  0  0  0  0  0  0  0  0  0  0  0
   23.0319   -8.2028   20.0079 C   0  0  0  0  0  0  0  0  0  0  0  0
   23.2051   -8.5277   22.4372 O   0  0  0  0  0  0  0  0  0  0  0  0
   23.0441   -9.1886   21.1855 C   0  0  0  0  0  0  0  0  0  0  0  0
   23.2075   -9.1840   23.1514 H   0  0  0  0  0  0  0  0  0  0  0  0
 26 27  1  0
 27 25  1  0
 25 23  1  0
 23  1  1  0
  1  2  2  0
  2  3  1  0
  3  4  2  0
  4  5  1  0
  5  6  1  0
  6  7  1  0
  7 10  1  0
 10 11  2  0
 11 12  1  0
 12 13  2  0
 13 14  1  0
 13 15  1  0
 15 16  2  0
  7  8  2  0
  8 17  1  0
 17 18  2  0
 18 19  1  0
 19 20  2  0
 20 21  1  0
 21 22  2  0
  8  9  1  0
  9  1  1  0
  9  5  2  0
 16 10  1  0
 22 17  1  0
 26 28  1  0
 23 24  1  0
M  END
> <minimizedAffinity>
-4.70360

> <CNNscore>
0.2586622238

> <CNNaffinity>
5.0545010567

> <CNN_VS>
1.3074084520

> <CNNaffinity_variance>
0.0061356425

$$$$
