


 26 25  0  0  0  0  0  0  0  0999 V2000
   -4.1584    4.7822   18.8573 C   0  0  0  0  0  0  0  0  0  0  0  0
   -4.9631    3.8898   17.9054 C   0  0  0  0  0  0  0  0  0  0  0  0
   -4.7160    2.3085   18.1252 N   0  0  0  0  0  0  0  0  0  0  0  0
   -3.9222    2.2751   19.4502 C   0  0  0  0  0  0  0  0  0  0  0  0
   -6.0789    1.6747   18.3723 C   0  0  0  0  0  0  0  0  0  0  0  0
   -3.9047    1.8163   16.9370 C   0  0  0  0  0  0  0  0  0  0  0  0
   -2.9098    0.6201   17.0183 N   0  0  0  0  0  0  0  0  0  0  0  0
   -1.9572    0.8145   18.1989 C   0  0  0  0  0  0  0  0  0  0  0  0
   -3.8263   -0.5687   17.3957 C   0  0  0  0  0  0  0  0  0  0  0  0
   -2.2048    0.3858   15.7013 C   0  0  0  0  0  0  0  0  0  0  0  0
   -1.0274   -0.5618   15.5488 N   0  0  0  0  0  0  0  0  0  0  0  0
   -1.1369   -1.1599   14.0983 C   0  0  0  0  0  0  0  0  0  0  0  0
   -1.0795   -1.7957   16.4694 C   0  0  0  0  0  0  0  0  0  0  0  0
    0.3677    0.0519   15.6169 C   0  0  0  0  0  0  0  0  0  0  0  0
   -3.9423    6.1940   18.2924 C   0  0  0  0  0  0  0  0  0  0  0  0
   -2.6379    6.8427   18.7642 C   0  0  0  0  0  0  0  0  0  0  0  0
   -2.3996    8.2346   18.1663 C   0  0  0  0  0  0  0  0  0  0  0  0
   -2.0992    9.3055   19.2189 C   0  0  0  0  0  0  0  0  0  0  0  0
   -2.7455   10.6614   18.9095 C   0  0  0  0  0  0  0  0  0  0  0  0
   -1.9795   11.8492   19.4932 C   0  0  0  0  0  0  0  0  0  0  0  0
   -2.2342   13.1764   18.7674 C   0  0  0  0  0  0  0  0  0  0  0  0
   -3.4283   13.1618   17.8058 C   0  0  0  0  0  0  0  0  0  0  0  0
   -3.4077   14.3322   16.8171 C   0  0  0  0  0  0  0  0  0  0  0  0
   -3.2372   15.6955   17.4946 C   0  0  0  0  0  0  0  0  0  0  0  0
   -3.7842   18.0168   16.6820 C   0  0  0  0  0  0  0  0  0  0  0  0
   -4.3511   16.6876   17.1571 C   0  0  0  0  0  0  0  0  0  0  0  0
 25 26  1  0
 26 24  1  0
 24 23  1  0
 23 22  1  0
 22 21  1  0
 21 20  1  0
 20 19  1  0
 19 18  1  0
 18 17  1  0
 17 16  1  0
 16 15  1  0
 15  1  1  0
  1  2  1  0
  2  3  1  0
  3  4  1  0
  3  5  1  0
  3  6  1  0
  6  7  1  0
  7  8  1  0
  7  9  1  0
  7 10  1  0
 10 11  1  0
 11 12  1  0
 11 13  1  0
 11 14  1  0
M  CHG 1   3   1
M  CHG 1   7   1
M  CHG 1  11   1
M  END
> <minimizedAffinity>
-5.05180

> <CNNscore>
0.7297745943

> <CNNaffinity>
5.6891312599

> <CNN_VS>
4.1517834663

> <CNNaffinity_variance>
0.5568900704

$$$$



 26 25  0  0  0  0  0  0  0  0999 V2000
   -2.5371    3.7934   20.0003 C   0  0  0  0  0  0  0  0  0  0  0  0
   -3.0479    2.4123   19.5742 C   0  0  0  0  0  0  0  0  0  0  0  0
   -1.9326    1.2467   19.6614 N   0  0  0  0  0  0  0  0  0  0  0  0
   -0.8214    1.9096   20.5057 C   0  0  0  0  0  0  0  0  0  0  0  0
   -2.5369    0.1122   20.4788 C   0  0  0  0  0  0  0  0  0  0  0  0
   -1.4932    0.9451   18.2373 C   0  0  0  0  0  0  0  0  0  0  0  0
   -2.4742    0.4765   17.1214 N   0  0  0  0  0  0  0  0  0  0  0  0
   -3.8854    0.3360   17.6942 C   0  0  0  0  0  0  0  0  0  0  0  0
   -2.5172    1.6919   16.1640 C   0  0  0  0  0  0  0  0  0  0  0  0
   -1.9760   -0.7682   16.4221 C   0  0  0  0  0  0  0  0  0  0  0  0
   -2.7869   -1.5107   15.3740 N   0  0  0  0  0  0  0  0  0  0  0  0
   -3.6368   -0.4173   14.6284 C   0  0  0  0  0  0  0  0  0  0  0  0
   -3.8393   -2.4770   15.9497 C   0  0  0  0  0  0  0  0  0  0  0  0
   -2.0074   -2.2220   14.2723 C   0  0  0  0  0  0  0  0  0  0  0  0
   -2.3102    4.7278   18.8026 C   0  0  0  0  0  0  0  0  0  0  0  0
   -2.0134    6.1740   19.2094 C   0  0  0  0  0  0  0  0  0  0  0  0
   -2.5443    7.2084   18.2095 C   0  0  0  0  0  0  0  0  0  0  0  0
   -2.8295    8.5740   18.8409 C   0  0  0  0  0  0  0  0  0  0  0  0
   -2.0574    9.7231   18.1810 C   0  0  0  0  0  0  0  0  0  0  0  0
   -2.9620   10.7932   17.5691 C   0  0  0  0  0  0  0  0  0  0  0  0
   -2.8715   12.1598   18.2600 C   0  0  0  0  0  0  0  0  0  0  0  0
   -3.9869   13.1425   17.8843 C   0  0  0  0  0  0  0  0  0  0  0  0
   -3.4487   14.4837   17.3749 C   0  0  0  0  0  0  0  0  0  0  0  0
   -2.1693   14.9338   18.0873 C   0  0  0  0  0  0  0  0  0  0  0  0
   -3.2828   17.1612   17.7043 C   0  0  0  0  0  0  0  0  0  0  0  0
   -2.1309   16.4341   18.3812 C   0  0  0  0  0  0  0  0  0  0  0  0
 25 26  1  0
 26 24  1  0
 24 23  1  0
 23 22  1  0
 22 21  1  0
 21 20  1  0
 20 19  1  0
 19 18  1  0
 18 17  1  0
 17 16  1  0
 16 15  1  0
 15  1  1  0
  1  2  1  0
  2  3  1  0
  3  4  1  0
  3  5  1  0
  3  6  1  0
  6  7  1  0
  7  8  1  0
  7  9  1  0
  7 10  1  0
 10 11  1  0
 11 12  1  0
 11 13  1  0
 11 14  1  0
M  CHG 1   3   1
M  CHG 1   7   1
M  CHG 1  11   1
M  END
> <minimizedAffinity>
-4.77511

> <CNNscore>
0.7260770202

> <CNNaffinity>
5.5205116272

> <CNN_VS>
4.0083165169

> <CNNaffinity_variance>
0.3964371383

$$$$



 26 25  0  0  0  0  0  0  0  0999 V2000
   -5.6740    5.1004   18.7263 C   0  0  0  0  0  0  0  0  0  0  0  0
   -5.3790    4.3464   20.0281 C   0  0  0  0  0  0  0  0  0  0  0  0
   -4.9838    2.7951   19.8104 N   0  0  0  0  0  0  0  0  0  0  0  0
   -6.3551    2.1345   19.5457 C   0  0  0  0  0  0  0  0  0  0  0  0
   -4.1652    2.7197   18.5281 C   0  0  0  0  0  0  0  0  0  0  0  0
   -4.3358    2.3167   21.1001 C   0  0  0  0  0  0  0  0  0  0  0  0
   -3.0889    1.3832   21.1348 N   0  0  0  0  0  0  0  0  0  0  0  0
   -3.4372    0.0262   20.5213 C   0  0  0  0  0  0  0  0  0  0  0  0
   -2.1158    2.0667   20.1440 C   0  0  0  0  0  0  0  0  0  0  0  0
   -2.4971    1.2881   22.5231 C   0  0  0  0  0  0  0  0  0  0  0  0
   -1.7230    0.0763   23.0127 N   0  0  0  0  0  0  0  0  0  0  0  0
   -0.9112    0.5592   24.2702 C   0  0  0  0  0  0  0  0  0  0  0  0
   -0.6418   -0.4256   22.0371 C   0  0  0  0  0  0  0  0  0  0  0  0
   -2.5405   -1.1139   23.5054 C   0  0  0  0  0  0  0  0  0  0  0  0
   -5.0028    6.4813   18.6858 C   0  0  0  0  0  0  0  0  0  0  0  0
   -3.6705    6.5303   19.4390 C   0  0  0  0  0  0  0  0  0  0  0  0
   -2.6295    7.4401   18.7754 C   0  0  0  0  0  0  0  0  0  0  0  0
   -2.9232    8.9322   18.9547 C   0  0  0  0  0  0  0  0  0  0  0  0
   -2.2585    9.8156   17.8918 C   0  0  0  0  0  0  0  0  0  0  0  0
   -1.9817   11.2413   18.3702 C   0  0  0  0  0  0  0  0  0  0  0  0
   -3.2436   12.0875   18.5807 C   0  0  0  0  0  0  0  0  0  0  0  0
   -3.2259   13.4499   17.8774 C   0  0  0  0  0  0  0  0  0  0  0  0
   -2.1305   14.3786   18.4115 C   0  0  0  0  0  0  0  0  0  0  0  0
   -2.4069   15.8609   18.1410 C   0  0  0  0  0  0  0  0  0  0  0  0
   -4.0220   17.5894   17.2740 C   0  0  0  0  0  0  0  0  0  0  0  0
   -3.6904   16.1066   17.3465 C   0  0  0  0  0  0  0  0  0  0  0  0
 25 26  1  0
 26 24  1  0
 24 23  1  0
 23 22  1  0
 22 21  1  0
 21 20  1  0
 20 19  1  0
 19 18  1  0
 18 17  1  0
 17 16  1  0
 16 15  1  0
 15  1  1  0
  1  2  1  0
  2  3  1  0
  3  4  1  0
  3  5  1  0
  3  6  1  0
  6  7  1  0
  7  8  1  0
  7  9  1  0
  7 10  1  0
 10 11  1  0
 11 12  1  0
 11 13  1  0
 11 14  1  0
M  CHG 1   3   1
M  CHG 1   7   1
M  CHG 1  11   1
M  END
> <minimizedAffinity>
-5.51476

> <CNNscore>
0.7122324705

> <CNNaffinity>
5.9491615295

> <CNN_VS>
4.2371859550

> <CNNaffinity_variance>
0.9375655055

$$$$



 26 25  0  0  0  0  0  0  0  0999 V2000
   -2.9506    6.3966   19.5859 C   0  0  0  0  0  0  0  0  0  0  0  0
   -2.5703    5.2870   20.5729 C   0  0  0  0  0  0  0  0  0  0  0  0
   -2.7592    3.7945   19.9839 N   0  0  0  0  0  0  0  0  0  0  0  0
   -4.0562    3.9239   19.1546 C   0  0  0  0  0  0  0  0  0  0  0  0
   -1.6040    3.5456   19.0227 C   0  0  0  0  0  0  0  0  0  0  0  0
   -2.9096    2.8624   21.1758 C   0  0  0  0  0  0  0  0  0  0  0  0
   -2.3460    1.4101   21.2013 N   0  0  0  0  0  0  0  0  0  0  0  0
   -0.9374    1.4087   21.7970 C   0  0  0  0  0  0  0  0  0  0  0  0
   -3.2527    0.7041   22.2382 C   0  0  0  0  0  0  0  0  0  0  0  0
   -2.4318    0.7506   19.8433 C   0  0  0  0  0  0  0  0  0  0  0  0
   -2.7528   -0.7223   19.6562 N   0  0  0  0  0  0  0  0  0  0  0  0
   -1.7383   -1.5064   20.5671 C   0  0  0  0  0  0  0  0  0  0  0  0
   -2.4779   -1.2590   18.2388 C   0  0  0  0  0  0  0  0  0  0  0  0
   -4.1320   -1.1925   20.1081 C   0  0  0  0  0  0  0  0  0  0  0  0
   -2.6906    7.7994   20.1548 C   0  0  0  0  0  0  0  0  0  0  0  0
   -2.0369    8.7504   19.1483 C   0  0  0  0  0  0  0  0  0  0  0  0
   -2.9525    9.9023   18.7164 C   0  0  0  0  0  0  0  0  0  0  0  0
   -2.1926   11.0991   18.1375 C   0  0  0  0  0  0  0  0  0  0  0  0
   -2.8230   12.4509   18.4940 C   0  0  0  0  0  0  0  0  0  0  0  0
   -1.8377   13.4360   19.1239 C   0  0  0  0  0  0  0  0  0  0  0  0
   -1.8100   14.8128   18.4481 C   0  0  0  0  0  0  0  0  0  0  0  0
   -2.6799   14.9266   17.1906 C   0  0  0  0  0  0  0  0  0  0  0  0
   -3.8940   15.8398   17.3903 C   0  0  0  0  0  0  0  0  0  0  0  0
   -3.5316   17.3272   17.4456 C   0  0  0  0  0  0  0  0  0  0  0  0
   -3.6954   19.0020   15.5706 C   0  0  0  0  0  0  0  0  0  0  0  0
   -4.4648   18.2132   16.6192 C   0  0  0  0  0  0  0  0  0  0  0  0
 25 26  1  0
 26 24  1  0
 24 23  1  0
 23 22  1  0
 22 21  1  0
 21 20  1  0
 20 19  1  0
 19 18  1  0
 18 17  1  0
 17 16  1  0
 16 15  1  0
 15  1  1  0
  1  2  1  0
  2  3  1  0
  3  4  1  0
  3  5  1  0
  3  6  1  0
  6  7  1  0
  7  8  1  0
  7  9  1  0
  7 10  1  0
 10 11  1  0
 11 12  1  0
 11 13  1  0
 11 14  1  0
M  CHG 1   3   1
M  CHG 1   7   1
M  CHG 1  11   1
M  END
> <minimizedAffinity>
-5.52390

> <CNNscore>
0.7115173936

> <CNNaffinity>
5.9108042717

> <CNN_VS>
4.2056398392

> <CNNaffinity_variance>
0.7916436195

$$$$



 26 25  0  0  0  0  0  0  0  0999 V2000
   -2.1845    3.6579   20.5754 C   0  0  0  0  0  0  0  0  0  0  0  0
   -2.5074    2.2127   20.1789 C   0  0  0  0  0  0  0  0  0  0  0  0
   -2.9962    2.0480   18.6479 N   0  0  0  0  0  0  0  0  0  0  0  0
   -4.3307    2.8263   18.6373 C   0  0  0  0  0  0  0  0  0  0  0  0
   -1.9993    2.8032   17.7784 C   0  0  0  0  0  0  0  0  0  0  0  0
   -3.1776    0.5592   18.3974 C   0  0  0  0  0  0  0  0  0  0  0  0
   -3.9671   -0.3791   19.3585 N   0  0  0  0  0  0  0  0  0  0  0  0
   -5.4702   -0.1557   19.1859 C   0  0  0  0  0  0  0  0  0  0  0  0
   -3.6728   -1.7875   18.7880 C   0  0  0  0  0  0  0  0  0  0  0  0
   -3.4934   -0.2454   20.7883 C   0  0  0  0  0  0  0  0  0  0  0  0
   -3.7341   -1.3108   21.8439 N   0  0  0  0  0  0  0  0  0  0  0  0
   -3.5325   -0.5994   23.2321 C   0  0  0  0  0  0  0  0  0  0  0  0
   -2.6949   -2.4478   21.8498 C   0  0  0  0  0  0  0  0  0  0  0  0
   -5.1335   -1.9146   21.9109 C   0  0  0  0  0  0  0  0  0  0  0  0
   -2.3594    4.6379   19.4057 C   0  0  0  0  0  0  0  0  0  0  0  0
   -2.5487    6.0898   19.8542 C   0  0  0  0  0  0  0  0  0  0  0  0
   -2.1128    7.1141   18.7996 C   0  0  0  0  0  0  0  0  0  0  0  0
   -2.2268    8.5646   19.2769 C   0  0  0  0  0  0  0  0  0  0  0  0
   -1.8639    9.5913   18.1969 C   0  0  0  0  0  0  0  0  0  0  0  0
   -3.0392   10.4739   17.7753 C   0  0  0  0  0  0  0  0  0  0  0  0
   -3.0315   11.8714   18.4078 C   0  0  0  0  0  0  0  0  0  0  0  0
   -4.1453   12.8032   17.9158 C   0  0  0  0  0  0  0  0  0  0  0  0
   -3.6414   14.2161   17.6032 C   0  0  0  0  0  0  0  0  0  0  0  0
   -2.3392   14.5699   18.3285 C   0  0  0  0  0  0  0  0  0  0  0  0
   -3.1780   16.8826   17.7846 C   0  0  0  0  0  0  0  0  0  0  0  0
   -1.9962   16.0592   18.2737 C   0  0  0  0  0  0  0  0  0  0  0  0
 25 26  1  0
 26 24  1  0
 24 23  1  0
 23 22  1  0
 22 21  1  0
 21 20  1  0
 20 19  1  0
 19 18  1  0
 18 17  1  0
 17 16  1  0
 16 15  1  0
 15  1  1  0
  1  2  1  0
  2  3  1  0
  3  4  1  0
  3  5  1  0
  3  6  1  0
  6  7  1  0
  7  8  1  0
  7  9  1  0
  7 10  1  0
 10 11  1  0
 11 12  1  0
 11 13  1  0
 11 14  1  0
M  CHG 1   3   1
M  CHG 1   7   1
M  CHG 1  11   1
M  END
> <minimizedAffinity>
-4.69217

> <CNNscore>
0.6982638836

> <CNNaffinity>
5.6379241943

> <CNN_VS>
3.9367587566

> <CNNaffinity_variance>
0.5172062516

$$$$



 26 25  0  0  0  0  0  0  0  0999 V2000
   -2.4921    3.8049   20.0617 C   0  0  0  0  0  0  0  0  0  0  0  0
   -2.7163    2.4143   19.4566 C   0  0  0  0  0  0  0  0  0  0  0  0
   -4.1922    1.8145   19.7245 N   0  0  0  0  0  0  0  0  0  0  0  0
   -4.5948    2.4966   21.0509 C   0  0  0  0  0  0  0  0  0  0  0  0
   -5.0971    2.3491   18.6220 C   0  0  0  0  0  0  0  0  0  0  0  0
   -4.0418    0.3071   19.8563 C   0  0  0  0  0  0  0  0  0  0  0  0
   -2.8685   -0.4937   19.2165 N   0  0  0  0  0  0  0  0  0  0  0  0
   -1.6085   -0.3426   20.0701 C   0  0  0  0  0  0  0  0  0  0  0  0
   -3.3237   -1.9644   19.3773 C   0  0  0  0  0  0  0  0  0  0  0  0
   -2.6653   -0.1276   17.7635 C   0  0  0  0  0  0  0  0  0  0  0  0
   -1.3924   -0.4471   16.9987 N   0  0  0  0  0  0  0  0  0  0  0  0
   -1.7256   -0.2037   15.4810 C   0  0  0  0  0  0  0  0  0  0  0  0
   -0.9681   -1.9266   17.0579 C   0  0  0  0  0  0  0  0  0  0  0  0
   -0.1772    0.4313   17.2804 C   0  0  0  0  0  0  0  0  0  0  0  0
   -2.1638    4.8604   18.9953 C   0  0  0  0  0  0  0  0  0  0  0  0
   -2.1291    6.2887   19.5463 C   0  0  0  0  0  0  0  0  0  0  0  0
   -2.4112    7.3578   18.4837 C   0  0  0  0  0  0  0  0  0  0  0  0
   -2.9632    8.6625   19.0651 C   0  0  0  0  0  0  0  0  0  0  0  0
   -2.0818    9.8820   18.7688 C   0  0  0  0  0  0  0  0  0  0  0  0
   -2.7276   10.8824   17.8095 C   0  0  0  0  0  0  0  0  0  0  0  0
   -2.8837   12.2943   18.3884 C   0  0  0  0  0  0  0  0  0  0  0  0
   -3.9757   13.1416   17.7246 C   0  0  0  0  0  0  0  0  0  0  0  0
   -3.4429   14.4672   17.1708 C   0  0  0  0  0  0  0  0  0  0  0  0
   -2.2757   15.0382   17.9822 C   0  0  0  0  0  0  0  0  0  0  0  0
   -3.6930   17.1000   17.6853 C   0  0  0  0  0  0  0  0  0  0  0  0
   -2.4137   16.5318   18.2806 C   0  0  0  0  0  0  0  0  0  0  0  0
 25 26  1  0
 26 24  1  0
 24 23  1  0
 23 22  1  0
 22 21  1  0
 21 20  1  0
 20 19  1  0
 19 18  1  0
 18 17  1  0
 17 16  1  0
 16 15  1  0
 15  1  1  0
  1  2  1  0
  2  3  1  0
  3  4  1  0
  3  5  1  0
  3  6  1  0
  6  7  1  0
  7  8  1  0
  7  9  1  0
  7 10  1  0
 10 11  1  0
 11 12  1  0
 11 13  1  0
 11 14  1  0
M  CHG 1   3   1
M  CHG 1   7   1
M  CHG 1  11   1
M  END
> <minimizedAffinity>
-4.63620

> <CNNscore>
0.6970793605

> <CNNaffinity>
5.5924448967

> <CNN_VS>
3.8983778954

> <CNNaffinity_variance>
0.2934183776

$$$$



 26 25  0  0  0  0  0  0  0  0999 V2000
   -6.3012    5.6091   18.6509 C   0  0  0  0  0  0  0  0  0  0  0  0
   -6.1826    4.8197   19.9597 C   0  0  0  0  0  0  0  0  0  0  0  0
   -5.7710    3.2710   19.7546 N   0  0  0  0  0  0  0  0  0  0  0  0
   -4.5444    3.1253   20.6825 C   0  0  0  0  0  0  0  0  0  0  0  0
   -6.9033    2.4294   20.3289 C   0  0  0  0  0  0  0  0  0  0  0  0
   -5.4250    3.0943   18.2845 C   0  0  0  0  0  0  0  0  0  0  0  0
   -4.0679    2.5101   17.7903 N   0  0  0  0  0  0  0  0  0  0  0  0
   -2.9264    3.4565   18.1650 C   0  0  0  0  0  0  0  0  0  0  0  0
   -3.8903    1.2507   18.6724 C   0  0  0  0  0  0  0  0  0  0  0  0
   -4.1093    2.1608   16.3197 C   0  0  0  0  0  0  0  0  0  0  0  0
   -2.8597    1.9281   15.4878 N   0  0  0  0  0  0  0  0  0  0  0  0
   -3.1773    0.6961   14.5632 C   0  0  0  0  0  0  0  0  0  0  0  0
   -1.6285    1.4822   16.2989 C   0  0  0  0  0  0  0  0  0  0  0  0
   -2.4486    3.0427   14.5305 C   0  0  0  0  0  0  0  0  0  0  0  0
   -5.4462    6.8850   18.6583 C   0  0  0  0  0  0  0  0  0  0  0  0
   -4.1652    6.7517   19.4866 C   0  0  0  0  0  0  0  0  0  0  0  0
   -2.9324    7.3540   18.8018 C   0  0  0  0  0  0  0  0  0  0  0  0
   -2.6919    8.8223   19.1640 C   0  0  0  0  0  0  0  0  0  0  0  0
   -2.2886    9.6873   17.9636 C   0  0  0  0  0  0  0  0  0  0  0  0
   -1.9421   11.1284   18.3396 C   0  0  0  0  0  0  0  0  0  0  0  0
   -3.1608   12.0011   18.6655 C   0  0  0  0  0  0  0  0  0  0  0  0
   -3.2086   13.3392   17.9184 C   0  0  0  0  0  0  0  0  0  0  0  0
   -2.1428   14.3274   18.4036 C   0  0  0  0  0  0  0  0  0  0  0  0
   -2.4751   15.7867   18.0769 C   0  0  0  0  0  0  0  0  0  0  0  0
   -4.2072   17.4048   17.2228 C   0  0  0  0  0  0  0  0  0  0  0  0
   -3.7585   15.9519   17.2618 C   0  0  0  0  0  0  0  0  0  0  0  0
 25 26  1  0
 26 24  1  0
 24 23  1  0
 23 22  1  0
 22 21  1  0
 21 20  1  0
 20 19  1  0
 19 18  1  0
 18 17  1  0
 17 16  1  0
 16 15  1  0
 15  1  1  0
  1  2  1  0
  2  3  1  0
  3  4  1  0
  3  5  1  0
  3  6  1  0
  6  7  1  0
  7  8  1  0
  7  9  1  0
  7 10  1  0
 10 11  1  0
 11 12  1  0
 11 13  1  0
 11 14  1  0
M  CHG 1   3   1
M  CHG 1   7   1
M  CHG 1  11   1
M  END
> <minimizedAffinity>
-5.61025

> <CNNscore>
0.6822588444

> <CNNaffinity>
5.8941059113

> <CNN_VS>
4.0213060379

> <CNNaffinity_variance>
0.8994771838

$$$$



 26 25  0  0  0  0  0  0  0  0999 V2000
   -3.1858    6.5778   19.7735 C   0  0  0  0  0  0  0  0  0  0  0  0
   -2.7530    5.3054   20.5108 C   0  0  0  0  0  0  0  0  0  0  0  0
   -3.2158    3.9387   19.7841 N   0  0  0  0  0  0  0  0  0  0  0  0
   -4.6858    4.2376   19.4145 C   0  0  0  0  0  0  0  0  0  0  0  0
   -2.4150    3.8275   18.4931 C   0  0  0  0  0  0  0  0  0  0  0  0
   -3.0783    2.8228   20.8078 C   0  0  0  0  0  0  0  0  0  0  0  0
   -3.6566    1.3919   20.5948 N   0  0  0  0  0  0  0  0  0  0  0  0
   -2.5145    0.3836   20.4600 C   0  0  0  0  0  0  0  0  0  0  0  0
   -4.3409    1.0888   21.9497 C   0  0  0  0  0  0  0  0  0  0  0  0
   -4.6426    1.3495   19.4492 C   0  0  0  0  0  0  0  0  0  0  0  0
   -5.9467    0.5727   19.5066 N   0  0  0  0  0  0  0  0  0  0  0  0
   -5.6329   -0.7431   20.3091 C   0  0  0  0  0  0  0  0  0  0  0  0
   -6.4487    0.0691   18.1402 C   0  0  0  0  0  0  0  0  0  0  0  0
   -7.1066    1.2226   20.2547 C   0  0  0  0  0  0  0  0  0  0  0  0
   -2.6873    7.8539   20.4678 C   0  0  0  0  0  0  0  0  0  0  0  0
   -1.9966    8.8329   19.5141 C   0  0  0  0  0  0  0  0  0  0  0  0
   -2.9715    9.5702   18.5880 C   0  0  0  0  0  0  0  0  0  0  0  0
   -2.3657   10.8157   17.9348 C   0  0  0  0  0  0  0  0  0  0  0  0
   -3.0104   12.1250   18.4061 C   0  0  0  0  0  0  0  0  0  0  0  0
   -2.0199   13.0943   19.0521 C   0  0  0  0  0  0  0  0  0  0  0  0
   -1.9489   14.4656   18.3683 C   0  0  0  0  0  0  0  0  0  0  0  0
   -2.9147   14.6450   17.1909 C   0  0  0  0  0  0  0  0  0  0  0  0
   -4.0129   15.6746   17.4765 C   0  0  0  0  0  0  0  0  0  0  0  0
   -3.4958   17.1159   17.5230 C   0  0  0  0  0  0  0  0  0  0  0  0
   -3.6807   18.8502   15.7048 C   0  0  0  0  0  0  0  0  0  0  0  0
   -4.4131   18.1157   16.8175 C   0  0  0  0  0  0  0  0  0  0  0  0
 25 26  1  0
 26 24  1  0
 24 23  1  0
 23 22  1  0
 22 21  1  0
 21 20  1  0
 20 19  1  0
 19 18  1  0
 18 17  1  0
 17 16  1  0
 16 15  1  0
 15  1  1  0
  1  2  1  0
  2  3  1  0
  3  4  1  0
  3  5  1  0
  3  6  1  0
  6  7  1  0
  7  8  1  0
  7  9  1  0
  7 10  1  0
 10 11  1  0
 11 12  1  0
 11 13  1  0
 11 14  1  0
M  CHG 1   3   1
M  CHG 1   7   1
M  CHG 1  11   1
M  END
> <minimizedAffinity>
-5.65911

> <CNNscore>
0.6793191433

> <CNNaffinity>
6.1688132286

> <CNN_VS>
4.1905927658

> <CNNaffinity_variance>
0.7519215941

$$$$



 26 25  0  0  0  0  0  0  0  0999 V2000
   -3.0928    5.9845   18.8832 C   0  0  0  0  0  0  0  0  0  0  0  0
   -2.0587    4.9155   18.5120 C   0  0  0  0  0  0  0  0  0  0  0  0
   -2.7075    3.5098   18.0505 N   0  0  0  0  0  0  0  0  0  0  0  0
   -3.2470    3.8374   16.6403 C   0  0  0  0  0  0  0  0  0  0  0  0
   -1.5613    2.5176   17.9015 C   0  0  0  0  0  0  0  0  0  0  0  0
   -3.8106    3.1822   19.0445 C   0  0  0  0  0  0  0  0  0  0  0  0
   -3.5470    2.4955   20.4179 N   0  0  0  0  0  0  0  0  0  0  0  0
   -4.6819    2.8222   21.3896 C   0  0  0  0  0  0  0  0  0  0  0  0
   -3.6847    0.9901   20.0855 C   0  0  0  0  0  0  0  0  0  0  0  0
   -2.1729    2.8254   20.9560 C   0  0  0  0  0  0  0  0  0  0  0  0
   -1.2948    1.8089   21.6653 N   0  0  0  0  0  0  0  0  0  0  0  0
   -0.0251    2.5982   22.1537 C   0  0  0  0  0  0  0  0  0  0  0  0
   -0.7248    0.7099   20.7487 C   0  0  0  0  0  0  0  0  0  0  0  0
   -1.8641    1.1618   22.9241 C   0  0  0  0  0  0  0  0  0  0  0  0
   -2.7397    7.3641   18.3078 C   0  0  0  0  0  0  0  0  0  0  0  0
   -1.9151    8.2278   19.2665 C   0  0  0  0  0  0  0  0  0  0  0  0
   -2.5140    9.6203   19.4989 C   0  0  0  0  0  0  0  0  0  0  0  0
   -2.6781   10.4343   18.2123 C   0  0  0  0  0  0  0  0  0  0  0  0
   -3.8939   11.3688   18.2340 C   0  0  0  0  0  0  0  0  0  0  0  0
   -3.5822   12.7860   17.7520 C   0  0  0  0  0  0  0  0  0  0  0  0
   -2.2456   13.3409   18.2607 C   0  0  0  0  0  0  0  0  0  0  0  0
   -2.2070   14.8645   18.4285 C   0  0  0  0  0  0  0  0  0  0  0  0
   -3.3718   15.5683   17.7244 C   0  0  0  0  0  0  0  0  0  0  0  0
   -3.0640   17.0208   17.3472 C   0  0  0  0  0  0  0  0  0  0  0  0
   -3.8984   18.8347   15.8106 C   0  0  0  0  0  0  0  0  0  0  0  0
   -4.2863   17.7935   16.8494 C   0  0  0  0  0  0  0  0  0  0  0  0
 25 26  1  0
 26 24  1  0
 24 23  1  0
 23 22  1  0
 22 21  1  0
 21 20  1  0
 20 19  1  0
 19 18  1  0
 18 17  1  0
 17 16  1  0
 16 15  1  0
 15  1  1  0
  1  2  1  0
  2  3  1  0
  3  4  1  0
  3  5  1  0
  3  6  1  0
  6  7  1  0
  7  8  1  0
  7  9  1  0
  7 10  1  0
 10 11  1  0
 11 12  1  0
 11 13  1  0
 11 14  1  0
M  CHG 1   3   1
M  CHG 1   7   1
M  CHG 1  11   1
M  END
> <minimizedAffinity>
-5.98382

> <CNNscore>
0.6529704332

> <CNNaffinity>
6.0436825752

> <CNN_VS>
3.9463460445

> <CNNaffinity_variance>
0.8071072698

$$$$
