


 53 55  0  0  0  0  0  0  0  0999 V2000
   41.6014   -3.4330   12.4289 N   0  0  0  0  0  0  0  0  0  0  0  0
   40.9283   -2.3585   12.9618 C   0  0  0  0  0  0  0  0  0  0  0  0
   41.3974   -1.2299   13.0593 O   0  0  0  0  0  0  0  0  0  0  0  0
   41.1789   -4.3217   12.4582 H   0  0  0  0  0  0  0  0  0  0  0  0
   39.5240   -2.6029   13.3717 C   0  0  0  0  0  0  0  0  0  0  0  0
   38.8074   -3.5907   12.6854 C   0  0  0  0  0  0  0  0  0  0  0  0
   37.4971   -3.8867   13.0663 C   0  0  0  0  0  0  0  0  0  0  0  0
   36.9051   -3.1914   14.1297 C   0  0  0  0  0  0  0  0  0  0  0  0
   37.6105   -2.1838   14.7910 C   0  0  0  0  0  0  0  0  0  0  0  0
   38.9241   -1.8936   14.4167 C   0  0  0  0  0  0  0  0  0  0  0  0
   36.7143   -4.9723   12.4205 C   0  0  0  0  0  0  0  0  0  0  0  0
   36.0969   -5.7696   13.1186 O   0  0  0  0  0  0  0  0  0  0  0  0
   36.7132   -4.9981   11.0465 N   0  0  0  0  0  0  0  0  0  0  0  0
   37.2308   -4.3205   10.5545 H   0  0  0  0  0  0  0  0  0  0  0  0
   35.9679   -5.9994   10.2988 C   0  0  0  0  0  0  0  0  0  0  0  0
   36.9087   -6.9889    9.6066 C   0  0  0  0  0  0  0  0  0  0  0  0
   35.0330   -5.3075    9.3226 C   0  0  0  0  0  0  0  0  0  0  0  0
   33.6715   -5.1196    9.6093 C   0  0  0  0  0  0  0  0  0  0  0  0
   32.8269   -4.5050    8.6821 C   0  0  0  0  0  0  0  0  0  0  0  0
   33.3300   -4.0748    7.4566 C   0  0  0  0  0  0  0  0  0  0  0  0
   34.6769   -4.2558    7.1559 C   0  0  0  0  0  0  0  0  0  0  0  0
   35.5227   -4.8738    8.0796 C   0  0  0  0  0  0  0  0  0  0  0  0
   37.0440   -1.5017   15.9212 N   0  0  0  0  0  0  0  0  0  0  0  0
   35.7570   -1.9882   16.4526 C   0  0  0  0  0  0  0  0  0  0  0  0
   38.1375   -0.8423   17.0505 S   0  0  0  0  0  0  0  0  0  0  0  0
   37.9662   -1.9450   18.4383 C   0  0  0  0  0  0  0  0  0  0  0  0
   39.4881   -0.9787   16.5405 O   0  0  0  0  0  0  0  0  0  0  0  0
   37.6314    0.4500   17.4594 O   0  0  0  0  0  0  0  0  0  0  0  0
   42.9282   -3.2980   11.8183 C   0  0  0  0  0  0  0  0  0  0  0  0
   42.9809   -4.0575   10.4802 C   0  0  0  0  0  0  0  0  0  0  0  0
   42.1507   -5.3192   10.4905 C   0  0  0  0  0  0  0  0  0  0  0  0
   42.2605   -6.2566    9.4549 C   0  0  0  0  0  0  0  0  0  0  0  0
   41.5209   -7.4390    9.4902 C   0  0  0  0  0  0  0  0  0  0  0  0
   40.6609   -7.6860   10.5579 C   0  0  0  0  0  0  0  0  0  0  0  0
   39.6675   -9.2951   10.6086 Br  0  0  0  0  0  0  0  0  0  0  0  0
   40.5326   -6.7593   11.5902 C   0  0  0  0  0  0  0  0  0  0  0  0
   41.2765   -5.5779   11.5562 C   0  0  0  0  0  0  0  0  0  0  0  0
   43.2724   -1.7863   11.7094 C   0  0  0  0  0  0  0  0  0  0  0  0
   43.8840   -1.4464   10.4152 N   0  0  0  0  0  0  0  0  0  0  0  0
   44.0026   -2.3106    9.8865 H   0  0  0  0  0  0  0  0  0  0  0  0
   45.2098   -0.7693   10.4937 C   0  0  0  0  0  0  0  0  0  0  0  0
   45.2943    0.5911   11.2409 C   0  0  0  0  0  0  0  0  0  0  0  0
   43.9736    1.2369   11.6560 C   0  0  0  0  0  0  0  0  0  0  0  0
   46.0744    0.4096   12.4414 O   0  0  0  0  0  0  0  0  0  0  0  0
   45.6146   -0.2033   13.0362 H   0  0  0  0  0  0  0  0  0  0  0  0
   47.1589   -2.1610    9.9283 N   0  0  0  0  0  0  0  0  0  0  0  0
   46.3133   -1.7643   10.9425 C   0  0  0  0  0  0  0  0  0  0  0  0
   46.3987   -2.2032   12.0890 O   0  0  0  0  0  0  0  0  0  0  0  0
   46.9771   -1.8523    9.0113 H   0  0  0  0  0  0  0  0  0  0  0  0
   48.3038   -3.0145   10.1623 C   0  0  0  0  0  0  0  0  0  0  0  0
   49.4813   -2.4603    8.0112 C   0  0  0  0  0  0  0  0  0  0  0  0
   48.8781   -3.5849    8.8546 C   0  0  0  0  0  0  0  0  0  0  0  0
   49.9342   -4.6582    9.1299 C   0  0  0  0  0  0  0  0  0  0  0  0
 51 52  1  0
 52 53  1  0
 52 50  1  0
 50 46  1  0
 46 47  1  0
 47 48  2  0
 47 41  1  0
 41 39  1  0
 39 38  1  0
 29 38  1  0
 29 30  1  0
 30 31  1  0
 31 32  2  0
 32 33  1  0
 33 34  2  0
 34 35  1  0
 34 36  1  0
 36 37  2  0
 29  1  1  0
  1  2  1  0
  2  3  2  0
  2  5  1  0
  5  6  2  0
  6  7  1  0
  7 11  1  0
 11 12  2  0
 11 13  1  0
 13 15  1  0
 15 16  1  0
 15 17  1  0
 17 18  2  0
 18 19  1  0
 19 20  2  0
 20 21  1  0
 21 22  2  0
  7  8  2  0
  8  9  1  0
  9 23  1  0
 23 24  1  0
 23 25  1  0
 25 26  1  0
 25 27  2  0
 25 28  2  0
  9 10  2  0
 41 42  1  0
 42 43  1  0
 42 44  1  0
 37 31  1  0
 10  5  1  0
 22 17  1  0
 46 49  1  0
 39 40  1  0
  1  4  1  0
 13 14  1  0
 44 45  1  0
M  END
> <minimizedAffinity>
-11.86000

> <CNNscore>
0.9519116282

> <CNNaffinity>
8.5706548691

> <CNN_VS>
8.1585063934

> <CNNaffinity_variance>
0.8332245946

$$$$



 53 55  0  0  0  0  0  0  0  0999 V2000
   41.9101   -3.9323   11.9750 N   0  0  0  0  0  0  0  0  0  0  0  0
   41.3022   -2.8019   12.4693 C   0  0  0  0  0  0  0  0  0  0  0  0
   41.7805   -1.6751   12.4000 O   0  0  0  0  0  0  0  0  0  0  0  0
   41.4926   -4.8084   12.1404 H   0  0  0  0  0  0  0  0  0  0  0  0
   39.9527   -2.9870   13.0561 C   0  0  0  0  0  0  0  0  0  0  0  0
   39.0706   -3.8544   12.4005 C   0  0  0  0  0  0  0  0  0  0  0  0
   37.8056   -4.0944   12.9408 C   0  0  0  0  0  0  0  0  0  0  0  0
   37.4242   -3.4634   14.1329 C   0  0  0  0  0  0  0  0  0  0  0  0
   38.2935   -2.5732   14.7671 C   0  0  0  0  0  0  0  0  0  0  0  0
   39.5621   -2.3398   14.2323 C   0  0  0  0  0  0  0  0  0  0  0  0
   36.8557   -5.0583   12.3266 C   0  0  0  0  0  0  0  0  0  0  0  0
   36.1006   -5.7039   13.0456 O   0  0  0  0  0  0  0  0  0  0  0  0
   36.8686   -5.1478   10.9553 N   0  0  0  0  0  0  0  0  0  0  0  0
   37.5022   -4.5930   10.4453 H   0  0  0  0  0  0  0  0  0  0  0  0
   35.9717   -6.0399   10.2365 C   0  0  0  0  0  0  0  0  0  0  0  0
   36.7531   -7.0664    9.4124 C   0  0  0  0  0  0  0  0  0  0  0  0
   35.0176   -5.2188    9.3871 C   0  0  0  0  0  0  0  0  0  0  0  0
   35.4810   -4.3188    8.4143 C   0  0  0  0  0  0  0  0  0  0  0  0
   34.5828   -3.5549    7.6657 C   0  0  0  0  0  0  0  0  0  0  0  0
   33.2122   -3.6770    7.8821 C   0  0  0  0  0  0  0  0  0  0  0  0
   32.7366   -4.5630    8.8444 C   0  0  0  0  0  0  0  0  0  0  0  0
   33.6329   -5.3250    9.5973 C   0  0  0  0  0  0  0  0  0  0  0  0
   37.9454   -1.9633   16.0202 N   0  0  0  0  0  0  0  0  0  0  0  0
   39.0298   -1.6751   16.9774 C   0  0  0  0  0  0  0  0  0  0  0  0
   36.6261   -0.8838   16.0113 S   0  0  0  0  0  0  0  0  0  0  0  0
   35.4802   -1.6704   17.1246 C   0  0  0  0  0  0  0  0  0  0  0  0
   37.0347    0.3718   16.6105 O   0  0  0  0  0  0  0  0  0  0  0  0
   36.0354   -0.9123   14.6908 O   0  0  0  0  0  0  0  0  0  0  0  0
   43.1599   -3.8751   11.2095 C   0  0  0  0  0  0  0  0  0  0  0  0
   43.0042   -4.6259    9.8745 C   0  0  0  0  0  0  0  0  0  0  0  0
   42.0924   -5.8253    9.9807 C   0  0  0  0  0  0  0  0  0  0  0  0
   41.9196   -6.4869   11.2037 C   0  0  0  0  0  0  0  0  0  0  0  0
   41.0452   -7.5693   11.3046 C   0  0  0  0  0  0  0  0  0  0  0  0
   40.3453   -8.0010   10.1802 C   0  0  0  0  0  0  0  0  0  0  0  0
   39.1522   -9.4621   10.3224 Br  0  0  0  0  0  0  0  0  0  0  0  0
   40.5139   -7.3605    8.9545 C   0  0  0  0  0  0  0  0  0  0  0  0
   41.3862   -6.2744    8.8553 C   0  0  0  0  0  0  0  0  0  0  0  0
   43.5823   -2.3869   11.0606 C   0  0  0  0  0  0  0  0  0  0  0  0
   44.8471   -2.0952   11.7533 N   0  0  0  0  0  0  0  0  0  0  0  0
   44.6240   -1.6317   12.6341 H   0  0  0  0  0  0  0  0  0  0  0  0
   45.7997   -1.2267   11.0047 C   0  0  0  0  0  0  0  0  0  0  0  0
   45.3607    0.2274   10.6745 C   0  0  0  0  0  0  0  0  0  0  0  0
   46.3166    1.3485   11.0786 C   0  0  0  0  0  0  0  0  0  0  0  0
   45.1574    0.3351    9.2499 O   0  0  0  0  0  0  0  0  0  0  0  0
   45.9998    0.1909    8.7913 H   0  0  0  0  0  0  0  0  0  0  0  0
   47.2257   -1.2466   13.0101 N   0  0  0  0  0  0  0  0  0  0  0  0
   47.2179   -1.2920   11.6321 C   0  0  0  0  0  0  0  0  0  0  0  0
   48.2497   -1.3289   10.9624 O   0  0  0  0  0  0  0  0  0  0  0  0
   46.3734   -1.1158   13.4851 H   0  0  0  0  0  0  0  0  0  0  0  0
   48.4408   -1.3843   13.7838 C   0  0  0  0  0  0  0  0  0  0  0  0
   47.7201    0.8961   14.5590 C   0  0  0  0  0  0  0  0  0  0  0  0
   48.9135   -0.0408   14.3641 C   0  0  0  0  0  0  0  0  0  0  0  0
   49.6505   -0.2343   15.6917 C   0  0  0  0  0  0  0  0  0  0  0  0
 51 52  1  0
 52 53  1  0
 52 50  1  0
 50 46  1  0
 46 47  1  0
 47 48  2  0
 47 41  1  0
 41 39  1  0
 39 38  1  0
 29 38  1  0
 29 30  1  0
 30 31  1  0
 31 32  2  0
 32 33  1  0
 33 34  2  0
 34 35  1  0
 34 36  1  0
 36 37  2  0
 29  1  1  0
  1  2  1  0
  2  3  2  0
  2  5  1  0
  5  6  2  0
  6  7  1  0
  7 11  1  0
 11 12  2  0
 11 13  1  0
 13 15  1  0
 15 16  1  0
 15 17  1  0
 17 18  2  0
 18 19  1  0
 19 20  2  0
 20 21  1  0
 21 22  2  0
  7  8  2  0
  8  9  1  0
  9 23  1  0
 23 24  1  0
 23 25  1  0
 25 26  1  0
 25 27  2  0
 25 28  2  0
  9 10  2  0
 41 42  1  0
 42 43  1  0
 42 44  1  0
 37 31  1  0
 10  5  1  0
 22 17  1  0
 46 49  1  0
 39 40  1  0
  1  4  1  0
 13 14  1  0
 44 45  1  0
M  END
> <minimizedAffinity>
-10.52689

> <CNNscore>
0.6618844271

> <CNNaffinity>
8.1951789856

> <CNN_VS>
5.4242615700

> <CNNaffinity_variance>
0.4147114754

$$$$



 53 55  0  0  0  0  0  0  0  0999 V2000
   43.5271   -3.1385   10.1555 N   0  0  0  0  0  0  0  0  0  0  0  0
   43.6324   -2.0160   10.9432 C   0  0  0  0  0  0  0  0  0  0  0  0
   42.6837   -1.4675   11.4931 O   0  0  0  0  0  0  0  0  0  0  0  0
   44.3284   -3.4702    9.6896 H   0  0  0  0  0  0  0  0  0  0  0  0
   45.0053   -1.5047   11.1748 C   0  0  0  0  0  0  0  0  0  0  0  0
   46.0758   -2.3631   10.8967 C   0  0  0  0  0  0  0  0  0  0  0  0
   47.3869   -1.9099   11.0568 C   0  0  0  0  0  0  0  0  0  0  0  0
   47.6241   -0.6010   11.4984 C   0  0  0  0  0  0  0  0  0  0  0  0
   46.5546    0.2423   11.8068 C   0  0  0  0  0  0  0  0  0  0  0  0
   45.2433   -0.2072   11.6382 C   0  0  0  0  0  0  0  0  0  0  0  0
   48.5605   -2.7529   10.7098 C   0  0  0  0  0  0  0  0  0  0  0  0
   48.4099   -3.9581   10.5400 O   0  0  0  0  0  0  0  0  0  0  0  0
   49.7655   -2.1061   10.5740 N   0  0  0  0  0  0  0  0  0  0  0  0
   49.8063   -1.1338   10.7225 H   0  0  0  0  0  0  0  0  0  0  0  0
   50.9825   -2.8190   10.2168 C   0  0  0  0  0  0  0  0  0  0  0  0
   52.1616   -1.8565   10.0531 C   0  0  0  0  0  0  0  0  0  0  0  0
   50.7334   -3.6489    8.9697 C   0  0  0  0  0  0  0  0  0  0  0  0
   51.0143   -5.0239    8.9281 C   0  0  0  0  0  0  0  0  0  0  0  0
   50.8021   -5.7587    7.7594 C   0  0  0  0  0  0  0  0  0  0  0  0
   50.3115   -5.1294    6.6178 C   0  0  0  0  0  0  0  0  0  0  0  0
   50.0303   -3.7664    6.6418 C   0  0  0  0  0  0  0  0  0  0  0  0
   50.2455   -3.0285    7.8079 C   0  0  0  0  0  0  0  0  0  0  0  0
   46.7757    1.6053   12.2028 N   0  0  0  0  0  0  0  0  0  0  0  0
   45.6019    2.4874   12.3418 C   0  0  0  0  0  0  0  0  0  0  0  0
   48.0821    1.8987   13.2579 S   0  0  0  0  0  0  0  0  0  0  0  0
   47.7149    0.8243   14.6298 C   0  0  0  0  0  0  0  0  0  0  0  0
   49.3068    1.4271   12.6413 O   0  0  0  0  0  0  0  0  0  0  0  0
   47.9738    3.2608   13.7338 O   0  0  0  0  0  0  0  0  0  0  0  0
   42.2598   -3.8575    9.9869 C   0  0  0  0  0  0  0  0  0  0  0  0
   42.4886   -5.1716    9.2182 C   0  0  0  0  0  0  0  0  0  0  0  0
   41.6202   -6.3013    9.7191 C   0  0  0  0  0  0  0  0  0  0  0  0
   41.9172   -6.9524   10.9237 C   0  0  0  0  0  0  0  0  0  0  0  0
   41.0886   -7.9680   11.4013 C   0  0  0  0  0  0  0  0  0  0  0  0
   39.9629   -8.3437   10.6717 C   0  0  0  0  0  0  0  0  0  0  0  0
   38.8352   -9.7138   11.3272 Br  0  0  0  0  0  0  0  0  0  0  0  0
   39.6595   -7.7132    9.4670 C   0  0  0  0  0  0  0  0  0  0  0  0
   40.4871   -6.6937    8.9917 C   0  0  0  0  0  0  0  0  0  0  0  0
   41.6036   -4.0398   11.3839 C   0  0  0  0  0  0  0  0  0  0  0  0
   40.3171   -3.3342   11.4911 N   0  0  0  0  0  0  0  0  0  0  0  0
   40.4915   -2.3388   11.3523 H   0  0  0  0  0  0  0  0  0  0  0  0
   39.6041   -3.4998   12.7897 C   0  0  0  0  0  0  0  0  0  0  0  0
   39.5963   -2.3009   13.7791 C   0  0  0  0  0  0  0  0  0  0  0  0
   39.7087   -2.6294   15.2668 C   0  0  0  0  0  0  0  0  0  0  0  0
   40.6971   -1.4268   13.4525 O   0  0  0  0  0  0  0  0  0  0  0  0
   41.5347   -1.8952   13.5938 H   0  0  0  0  0  0  0  0  0  0  0  0
   38.1726   -5.2225   11.7708 N   0  0  0  0  0  0  0  0  0  0  0  0
   38.1895   -4.1003   12.5715 C   0  0  0  0  0  0  0  0  0  0  0  0
   37.1650   -3.5937   13.0277 O   0  0  0  0  0  0  0  0  0  0  0  0
   39.0133   -5.5203   11.3538 H   0  0  0  0  0  0  0  0  0  0  0  0
   36.9645   -5.9788   11.5208 C   0  0  0  0  0  0  0  0  0  0  0  0
   36.1182   -7.4583    9.6726 C   0  0  0  0  0  0  0  0  0  0  0  0
   36.6318   -6.0603   10.0215 C   0  0  0  0  0  0  0  0  0  0  0  0
   35.5966   -5.0062    9.6211 C   0  0  0  0  0  0  0  0  0  0  0  0
 51 52  1  0
 52 53  1  0
 52 50  1  0
 50 46  1  0
 46 47  1  0
 47 48  2  0
 47 41  1  0
 41 39  1  0
 39 38  1  0
 29 38  1  0
 29 30  1  0
 30 31  1  0
 31 32  2  0
 32 33  1  0
 33 34  2  0
 34 35  1  0
 34 36  1  0
 36 37  2  0
 29  1  1  0
  1  2  1  0
  2  3  2  0
  2  5  1  0
  5  6  2  0
  6  7  1  0
  7 11  1  0
 11 12  2  0
 11 13  1  0
 13 15  1  0
 15 16  1  0
 15 17  1  0
 17 18  2  0
 18 19  1  0
 19 20  2  0
 20 21  1  0
 21 22  2  0
  7  8  2  0
  8  9  1  0
  9 23  1  0
 23 24  1  0
 23 25  1  0
 25 26  1  0
 25 27  2  0
 25 28  2  0
  9 10  2  0
 41 42  1  0
 42 43  1  0
 42 44  1  0
 37 31  1  0
 10  5  1  0
 22 17  1  0
 46 49  1  0
 39 40  1  0
  1  4  1  0
 13 14  1  0
 44 45  1  0
M  END
> <minimizedAffinity>
-9.79677

> <CNNscore>
0.3221728206

> <CNNaffinity>
7.3490490913

> <CNN_VS>
2.3676638603

> <CNNaffinity_variance>
1.6380370855

$$$$



 53 55  0  0  0  0  0  0  0  0999 V2000
   41.9375   -3.1396   12.6599 N   0  0  0  0  0  0  0  0  0  0  0  0
   41.3018   -1.9657   12.9903 C   0  0  0  0  0  0  0  0  0  0  0  0
   41.6299   -0.8615   12.5704 O   0  0  0  0  0  0  0  0  0  0  0  0
   41.6573   -3.9736   13.1016 H   0  0  0  0  0  0  0  0  0  0  0  0
   40.1055   -2.0903   13.8582 C   0  0  0  0  0  0  0  0  0  0  0  0
   39.0356   -2.8603   13.3863 C   0  0  0  0  0  0  0  0  0  0  0  0
   37.9069   -3.0429   14.1879 C   0  0  0  0  0  0  0  0  0  0  0  0
   37.8491   -2.4518   15.4575 C   0  0  0  0  0  0  0  0  0  0  0  0
   38.9035   -1.6570   15.9122 C   0  0  0  0  0  0  0  0  0  0  0  0
   40.0364   -1.4816   15.1150 C   0  0  0  0  0  0  0  0  0  0  0  0
   36.7728   -3.9067   13.7680 C   0  0  0  0  0  0  0  0  0  0  0  0
   35.7359   -3.9032   14.4229 O   0  0  0  0  0  0  0  0  0  0  0  0
   36.9558   -4.6541   12.6293 N   0  0  0  0  0  0  0  0  0  0  0  0
   37.8167   -4.6005   12.1547 H   0  0  0  0  0  0  0  0  0  0  0  0
   35.9123   -5.5225   12.1060 C   0  0  0  0  0  0  0  0  0  0  0  0
   35.7739   -6.7934   12.9480 C   0  0  0  0  0  0  0  0  0  0  0  0
   36.1919   -5.8226   10.6439 C   0  0  0  0  0  0  0  0  0  0  0  0
   37.0728   -6.8439   10.2539 C   0  0  0  0  0  0  0  0  0  0  0  0
   37.3342   -7.0811    8.9026 C   0  0  0  0  0  0  0  0  0  0  0  0
   36.7230   -6.2993    7.9251 C   0  0  0  0  0  0  0  0  0  0  0  0
   35.8489   -5.2813    8.2951 C   0  0  0  0  0  0  0  0  0  0  0  0
   35.5891   -5.0393    9.6459 C   0  0  0  0  0  0  0  0  0  0  0  0
   38.8899   -1.0924   17.2330 N   0  0  0  0  0  0  0  0  0  0  0  0
   37.8214   -0.1322   17.5670 C   0  0  0  0  0  0  0  0  0  0  0  0
   39.4501   -2.0848   18.5008 S   0  0  0  0  0  0  0  0  0  0  0  0
   40.3610   -0.9364   19.5122 C   0  0  0  0  0  0  0  0  0  0  0  0
   38.3168   -2.5539   19.2742 O   0  0  0  0  0  0  0  0  0  0  0  0
   40.4022   -3.0224   17.9459 O   0  0  0  0  0  0  0  0  0  0  0  0
   43.0195   -3.1896   11.6708 C   0  0  0  0  0  0  0  0  0  0  0  0
   42.4876   -3.7074   10.3220 C   0  0  0  0  0  0  0  0  0  0  0  0
   41.8255   -5.0602   10.4346 C   0  0  0  0  0  0  0  0  0  0  0  0
   42.1109   -6.0757    9.5124 C   0  0  0  0  0  0  0  0  0  0  0  0
   41.5270   -7.3357    9.6450 C   0  0  0  0  0  0  0  0  0  0  0  0
   40.6475   -7.5840   10.6965 C   0  0  0  0  0  0  0  0  0  0  0  0
   39.8656   -9.2967   10.8801 Br  0  0  0  0  0  0  0  0  0  0  0  0
   40.3453   -6.5818   11.6158 C   0  0  0  0  0  0  0  0  0  0  0  0
   40.9336   -5.3221   11.4848 C   0  0  0  0  0  0  0  0  0  0  0  0
   43.6902   -1.7895   11.5986 C   0  0  0  0  0  0  0  0  0  0  0  0
   44.8322   -1.7665   10.6713 N   0  0  0  0  0  0  0  0  0  0  0  0
   45.2908   -2.6766   10.7140 H   0  0  0  0  0  0  0  0  0  0  0  0
   45.8582   -0.7208   10.9476 C   0  0  0  0  0  0  0  0  0  0  0  0
   45.3680    0.7151   11.2851 C   0  0  0  0  0  0  0  0  0  0  0  0
   43.8939    1.0224   11.0278 C   0  0  0  0  0  0  0  0  0  0  0  0
   45.6177    0.9705   12.6832 O   0  0  0  0  0  0  0  0  0  0  0  0
   45.0863    0.3641   13.2226 H   0  0  0  0  0  0  0  0  0  0  0  0
   48.0707   -0.4824   11.9980 N   0  0  0  0  0  0  0  0  0  0  0  0
   46.9192   -1.2395   11.9548 C   0  0  0  0  0  0  0  0  0  0  0  0
   46.7720   -2.2641   12.6203 O   0  0  0  0  0  0  0  0  0  0  0  0
   48.1689    0.2679   11.3682 H   0  0  0  0  0  0  0  0  0  0  0  0
   49.1403   -0.7503   12.9352 C   0  0  0  0  0  0  0  0  0  0  0  0
   51.0695   -1.6698   11.6110 C   0  0  0  0  0  0  0  0  0  0  0  0
   49.9283   -2.0189   12.5678 C   0  0  0  0  0  0  0  0  0  0  0  0
   50.4829   -2.7123   13.8147 C   0  0  0  0  0  0  0  0  0  0  0  0
 51 52  1  0
 52 53  1  0
 52 50  1  0
 50 46  1  0
 46 47  1  0
 47 48  2  0
 47 41  1  0
 41 39  1  0
 39 38  1  0
 29 38  1  0
 29 30  1  0
 30 31  1  0
 31 32  2  0
 32 33  1  0
 33 34  2  0
 34 35  1  0
 34 36  1  0
 36 37  2  0
 29  1  1  0
  1  2  1  0
  2  3  2  0
  2  5  1  0
  5  6  2  0
  6  7  1  0
  7 11  1  0
 11 12  2  0
 11 13  1  0
 13 15  1  0
 15 16  1  0
 15 17  1  0
 17 18  2  0
 18 19  1  0
 19 20  2  0
 20 21  1  0
 21 22  2  0
  7  8  2  0
  8  9  1  0
  9 23  1  0
 23 24  1  0
 23 25  1  0
 25 26  1  0
 25 27  2  0
 25 28  2  0
  9 10  2  0
 41 42  1  0
 42 43  1  0
 42 44  1  0
 37 31  1  0
 10  5  1  0
 22 17  1  0
 46 49  1  0
 39 40  1  0
  1  4  1  0
 13 14  1  0
 44 45  1  0
M  END
> <minimizedAffinity>
-8.46924

> <CNNscore>
0.3064585626

> <CNNaffinity>
7.3437819481

> <CNN_VS>
2.2505648136

> <CNNaffinity_variance>
0.5848328471

$$$$



 53 55  0  0  0  0  0  0  0  0999 V2000
   42.3156   -3.3471   12.1153 N   0  0  0  0  0  0  0  0  0  0  0  0
   41.5835   -2.2981   12.6205 C   0  0  0  0  0  0  0  0  0  0  0  0
   41.9184   -1.1214   12.5404 O   0  0  0  0  0  0  0  0  0  0  0  0
   42.0123   -4.2673   12.2900 H   0  0  0  0  0  0  0  0  0  0  0  0
   40.2789   -2.6454   13.2346 C   0  0  0  0  0  0  0  0  0  0  0  0
   39.4919   -3.6085   12.5916 C   0  0  0  0  0  0  0  0  0  0  0  0
   38.2767   -4.0000   13.1570 C   0  0  0  0  0  0  0  0  0  0  0  0
   37.8494   -3.4246   14.3615 C   0  0  0  0  0  0  0  0  0  0  0  0
   38.6203   -2.4402   14.9835 C   0  0  0  0  0  0  0  0  0  0  0  0
   39.8401   -2.0548   14.4235 C   0  0  0  0  0  0  0  0  0  0  0  0
   37.4349   -5.0672   12.5562 C   0  0  0  0  0  0  0  0  0  0  0  0
   37.7754   -5.5801   11.4955 O   0  0  0  0  0  0  0  0  0  0  0  0
   36.3134   -5.4369   13.2593 N   0  0  0  0  0  0  0  0  0  0  0  0
   36.1080   -4.9808   14.1072 H   0  0  0  0  0  0  0  0  0  0  0  0
   35.4213   -6.4838   12.7848 C   0  0  0  0  0  0  0  0  0  0  0  0
   34.8759   -6.1589   11.3919 C   0  0  0  0  0  0  0  0  0  0  0  0
   34.3169   -6.7053   13.8033 C   0  0  0  0  0  0  0  0  0  0  0  0
   34.1652   -7.9285   14.4755 C   0  0  0  0  0  0  0  0  0  0  0  0
   33.1238   -8.1155   15.3872 C   0  0  0  0  0  0  0  0  0  0  0  0
   32.2194   -7.0857   15.6356 C   0  0  0  0  0  0  0  0  0  0  0  0
   32.3545   -5.8676   14.9758 C   0  0  0  0  0  0  0  0  0  0  0  0
   33.3925   -5.6795   14.0604 C   0  0  0  0  0  0  0  0  0  0  0  0
   38.2299   -1.8820   16.2482 N   0  0  0  0  0  0  0  0  0  0  0  0
   39.2824   -1.3151   17.1119 C   0  0  0  0  0  0  0  0  0  0  0  0
   36.6974   -1.1390   16.3221 S   0  0  0  0  0  0  0  0  0  0  0  0
   36.2754   -0.9598   14.6013 C   0  0  0  0  0  0  0  0  0  0  0  0
   35.7497   -2.0613   16.9169 O   0  0  0  0  0  0  0  0  0  0  0  0
   36.8720    0.1905   16.8656 O   0  0  0  0  0  0  0  0  0  0  0  0
   43.5335   -3.1396   11.3247 C   0  0  0  0  0  0  0  0  0  0  0  0
   43.3340   -3.6586    9.8890 C   0  0  0  0  0  0  0  0  0  0  0  0
   42.4387   -4.8733    9.8251 C   0  0  0  0  0  0  0  0  0  0  0  0
   41.8749   -5.2837    8.6098 C   0  0  0  0  0  0  0  0  0  0  0  0
   41.0814   -6.4295    8.5497 C   0  0  0  0  0  0  0  0  0  0  0  0
   40.8407   -7.1664    9.7072 C   0  0  0  0  0  0  0  0  0  0  0  0
   39.7733   -8.7258    9.6207 Br  0  0  0  0  0  0  0  0  0  0  0  0
   41.3855   -6.7659   10.9252 C   0  0  0  0  0  0  0  0  0  0  0  0
   42.1832   -5.6211   10.9837 C   0  0  0  0  0  0  0  0  0  0  0  0
   43.9324   -1.6402   11.4129 C   0  0  0  0  0  0  0  0  0  0  0  0
   44.6114   -1.1722   10.1945 N   0  0  0  0  0  0  0  0  0  0  0  0
   44.7274   -1.9717    9.5719 H   0  0  0  0  0  0  0  0  0  0  0  0
   45.9522   -0.5561   10.4071 C   0  0  0  0  0  0  0  0  0  0  0  0
   46.0294    0.7686   11.2166 C   0  0  0  0  0  0  0  0  0  0  0  0
   44.7232    1.2976   11.8062 C   0  0  0  0  0  0  0  0  0  0  0  0
   46.9475    0.5847   12.3147 O   0  0  0  0  0  0  0  0  0  0  0  0
   46.5973   -0.0879   12.9197 H   0  0  0  0  0  0  0  0  0  0  0  0
   48.0717   -1.7616   10.0760 N   0  0  0  0  0  0  0  0  0  0  0  0
   46.9754   -1.6146   10.8990 C   0  0  0  0  0  0  0  0  0  0  0  0
   46.8032   -2.3010   11.9058 O   0  0  0  0  0  0  0  0  0  0  0  0
   48.1027   -1.2552    9.2323 H   0  0  0  0  0  0  0  0  0  0  0  0
   49.1786   -2.6331   10.4068 C   0  0  0  0  0  0  0  0  0  0  0  0
   49.1206   -4.5947    8.8353 C   0  0  0  0  0  0  0  0  0  0  0  0
   49.8102   -3.2676    9.1563 C   0  0  0  0  0  0  0  0  0  0  0  0
   49.7266   -2.3281    7.9508 C   0  0  0  0  0  0  0  0  0  0  0  0
 51 52  1  0
 52 53  1  0
 52 50  1  0
 50 46  1  0
 46 47  1  0
 47 48  2  0
 47 41  1  0
 41 39  1  0
 39 38  1  0
 29 38  1  0
 29 30  1  0
 30 31  1  0
 31 32  2  0
 32 33  1  0
 33 34  2  0
 34 35  1  0
 34 36  1  0
 36 37  2  0
 29  1  1  0
  1  2  1  0
  2  3  2  0
  2  5  1  0
  5  6  2  0
  6  7  1  0
  7 11  1  0
 11 12  2  0
 11 13  1  0
 13 15  1  0
 15 16  1  0
 15 17  1  0
 17 18  2  0
 18 19  1  0
 19 20  2  0
 20 21  1  0
 21 22  2  0
  7  8  2  0
  8  9  1  0
  9 23  1  0
 23 24  1  0
 23 25  1  0
 25 26  1  0
 25 27  2  0
 25 28  2  0
  9 10  2  0
 41 42  1  0
 42 43  1  0
 42 44  1  0
 37 31  1  0
 10  5  1  0
 22 17  1  0
 46 49  1  0
 39 40  1  0
  1  4  1  0
 13 14  1  0
 44 45  1  0
M  END
> <minimizedAffinity>
-9.44973

> <CNNscore>
0.2612688541

> <CNNaffinity>
7.1945319176

> <CNN_VS>
1.8797070980

> <CNNaffinity_variance>
1.5532609224

$$$$



 53 55  0  0  0  0  0  0  0  0999 V2000
   38.4961   -2.0029   15.5337 N   0  0  0  0  0  0  0  0  0  0  0  0
   39.3883   -1.8800   14.4942 C   0  0  0  0  0  0  0  0  0  0  0  0
   40.1297   -0.9171   14.3317 O   0  0  0  0  0  0  0  0  0  0  0  0
   37.8840   -2.7739   15.5472 H   0  0  0  0  0  0  0  0  0  0  0  0
   39.4796   -3.0357   13.5692 C   0  0  0  0  0  0  0  0  0  0  0  0
   38.2990   -3.7270   13.2715 C   0  0  0  0  0  0  0  0  0  0  0  0
   38.3290   -4.7935   12.3707 C   0  0  0  0  0  0  0  0  0  0  0  0
   39.5401   -5.1687   11.7729 C   0  0  0  0  0  0  0  0  0  0  0  0
   40.7218   -4.4988   12.0968 C   0  0  0  0  0  0  0  0  0  0  0  0
   40.6910   -3.4264   12.9905 C   0  0  0  0  0  0  0  0  0  0  0  0
   37.0964   -5.5173   11.9642 C   0  0  0  0  0  0  0  0  0  0  0  0
   36.1930   -5.6766   12.7782 O   0  0  0  0  0  0  0  0  0  0  0  0
   37.0374   -5.9509   10.6615 N   0  0  0  0  0  0  0  0  0  0  0  0
   37.8025   -5.7817   10.0654 H   0  0  0  0  0  0  0  0  0  0  0  0
   35.8752   -6.6532   10.1388 C   0  0  0  0  0  0  0  0  0  0  0  0
   36.2868   -7.9099    9.3678 C   0  0  0  0  0  0  0  0  0  0  0  0
   35.0470   -5.6999    9.2954 C   0  0  0  0  0  0  0  0  0  0  0  0
   35.5802   -5.0573    8.1667 C   0  0  0  0  0  0  0  0  0  0  0  0
   34.8054   -4.1634    7.4241 C   0  0  0  0  0  0  0  0  0  0  0  0
   33.4913   -3.8973    7.8016 C   0  0  0  0  0  0  0  0  0  0  0  0
   32.9485   -4.5243    8.9194 C   0  0  0  0  0  0  0  0  0  0  0  0
   33.7225   -5.4154    9.6661 C   0  0  0  0  0  0  0  0  0  0  0  0
   41.9616   -4.8284   11.4504 N   0  0  0  0  0  0  0  0  0  0  0  0
   42.0823   -6.1533   10.8138 C   0  0  0  0  0  0  0  0  0  0  0  0
   42.8118   -3.5465   10.7156 S   0  0  0  0  0  0  0  0  0  0  0  0
   43.4429   -4.3054    9.2334 C   0  0  0  0  0  0  0  0  0  0  0  0
   41.8710   -2.5166   10.3200 O   0  0  0  0  0  0  0  0  0  0  0  0
   43.9464   -3.2253   11.5542 O   0  0  0  0  0  0  0  0  0  0  0  0
   38.4269   -1.0229   16.6228 C   0  0  0  0  0  0  0  0  0  0  0  0
   36.9949   -0.4740   16.7580 C   0  0  0  0  0  0  0  0  0  0  0  0
   36.2419   -1.0830   17.9170 C   0  0  0  0  0  0  0  0  0  0  0  0
   35.6549   -2.3501   17.8025 C   0  0  0  0  0  0  0  0  0  0  0  0
   34.9952   -2.9245   18.8893 C   0  0  0  0  0  0  0  0  0  0  0  0
   34.9119   -2.2304   20.0943 C   0  0  0  0  0  0  0  0  0  0  0  0
   34.0262   -3.0163   21.5696 Br  0  0  0  0  0  0  0  0  0  0  0  0
   35.4813   -0.9652   20.2212 C   0  0  0  0  0  0  0  0  0  0  0  0
   36.1452   -0.3928   19.1341 C   0  0  0  0  0  0  0  0  0  0  0  0
   38.9850   -1.6791   17.9164 C   0  0  0  0  0  0  0  0  0  0  0  0
   39.1433   -3.1352   17.7782 N   0  0  0  0  0  0  0  0  0  0  0  0
   38.2976   -3.5792   18.1361 H   0  0  0  0  0  0  0  0  0  0  0  0
   40.3103   -3.7217   18.4969 C   0  0  0  0  0  0  0  0  0  0  0  0
   41.0537   -2.8337   19.5337 C   0  0  0  0  0  0  0  0  0  0  0  0
   40.4750   -2.7863   20.9468 C   0  0  0  0  0  0  0  0  0  0  0  0
   42.4148   -3.2994   19.6474 O   0  0  0  0  0  0  0  0  0  0  0  0
   42.4192   -4.2015   20.0038 H   0  0  0  0  0  0  0  0  0  0  0  0
   38.6141   -5.3614   19.1969 N   0  0  0  0  0  0  0  0  0  0  0  0
   39.9657   -5.1280   19.0563 C   0  0  0  0  0  0  0  0  0  0  0  0
   40.8203   -5.9463   19.3946 O   0  0  0  0  0  0  0  0  0  0  0  0
   37.9840   -4.6301   19.0035 H   0  0  0  0  0  0  0  0  0  0  0  0
   38.0879   -6.6418   19.6182 C   0  0  0  0  0  0  0  0  0  0  0  0
   38.4219   -7.0849   22.0704 C   0  0  0  0  0  0  0  0  0  0  0  0
   38.9848   -7.3199   20.6676 C   0  0  0  0  0  0  0  0  0  0  0  0
   39.1190   -8.8212   20.4011 C   0  0  0  0  0  0  0  0  0  0  0  0
 51 52  1  0
 52 53  1  0
 52 50  1  0
 50 46  1  0
 46 47  1  0
 47 48  2  0
 47 41  1  0
 41 39  1  0
 39 38  1  0
 29 38  1  0
 29 30  1  0
 30 31  1  0
 31 32  2  0
 32 33  1  0
 33 34  2  0
 34 35  1  0
 34 36  1  0
 36 37  2  0
 29  1  1  0
  1  2  1  0
  2  3  2  0
  2  5  1  0
  5  6  2  0
  6  7  1  0
  7 11  1  0
 11 12  2  0
 11 13  1  0
 13 15  1  0
 15 16  1  0
 15 17  1  0
 17 18  2  0
 18 19  1  0
 19 20  2  0
 20 21  1  0
 21 22  2  0
  7  8  2  0
  8  9  1  0
  9 23  1  0
 23 24  1  0
 23 25  1  0
 25 26  1  0
 25 27  2  0
 25 28  2  0
  9 10  2  0
 41 42  1  0
 42 43  1  0
 42 44  1  0
 37 31  1  0
 10  5  1  0
 22 17  1  0
 46 49  1  0
 39 40  1  0
  1  4  1  0
 13 14  1  0
 44 45  1  0
M  END
> <minimizedAffinity>
-8.91797

> <CNNscore>
0.1932989806

> <CNNaffinity>
6.2872643471

> <CNN_VS>
1.2153217793

> <CNNaffinity_variance>
1.5139371157

$$$$



 53 55  0  0  0  0  0  0  0  0999 V2000
   38.5860   -2.7006   15.9773 N   0  0  0  0  0  0  0  0  0  0  0  0
   39.3288   -2.3500   14.8742 C   0  0  0  0  0  0  0  0  0  0  0  0
   39.9438   -1.2951   14.7634 O   0  0  0  0  0  0  0  0  0  0  0  0
   38.0612   -3.5332   15.9531 H   0  0  0  0  0  0  0  0  0  0  0  0
   39.4242   -3.3667   13.7986 C   0  0  0  0  0  0  0  0  0  0  0  0
   38.2479   -4.0226   13.4157 C   0  0  0  0  0  0  0  0  0  0  0  0
   38.2813   -4.9548   12.3767 C   0  0  0  0  0  0  0  0  0  0  0  0
   39.4914   -5.2320   11.7259 C   0  0  0  0  0  0  0  0  0  0  0  0
   40.6693   -4.6010   12.1318 C   0  0  0  0  0  0  0  0  0  0  0  0
   40.6350   -3.6618   13.1646 C   0  0  0  0  0  0  0  0  0  0  0  0
   37.0526   -5.6285   11.8819 C   0  0  0  0  0  0  0  0  0  0  0  0
   36.0800   -5.7312   12.6219 O   0  0  0  0  0  0  0  0  0  0  0  0
   37.0782   -6.0826   10.5850 N   0  0  0  0  0  0  0  0  0  0  0  0
   37.8960   -5.9596   10.0508 H   0  0  0  0  0  0  0  0  0  0  0  0
   35.9300   -6.7400    9.9798 C   0  0  0  0  0  0  0  0  0  0  0  0
   36.3636   -7.9151    9.0998 C   0  0  0  0  0  0  0  0  0  0  0  0
   35.1068   -5.7168    9.2174 C   0  0  0  0  0  0  0  0  0  0  0  0
   35.6208   -5.0370    8.1017 C   0  0  0  0  0  0  0  0  0  0  0  0
   34.8525   -4.0800    7.4349 C   0  0  0  0  0  0  0  0  0  0  0  0
   33.5642   -3.7872    7.8762 C   0  0  0  0  0  0  0  0  0  0  0  0
   33.0407   -4.4505    8.9822 C   0  0  0  0  0  0  0  0  0  0  0  0
   33.8085   -5.4049    9.6533 C   0  0  0  0  0  0  0  0  0  0  0  0
   41.9074   -4.8260   11.4390 N   0  0  0  0  0  0  0  0  0  0  0  0
   42.0699   -6.0923   10.7005 C   0  0  0  0  0  0  0  0  0  0  0  0
   42.6863   -3.4561   10.7889 S   0  0  0  0  0  0  0  0  0  0  0  0
   43.4117   -4.1006    9.2957 C   0  0  0  0  0  0  0  0  0  0  0  0
   41.6872   -2.4763   10.4090 O   0  0  0  0  0  0  0  0  0  0  0  0
   43.7707   -3.0965   11.6767 O   0  0  0  0  0  0  0  0  0  0  0  0
   38.5501   -1.8744   17.1887 C   0  0  0  0  0  0  0  0  0  0  0  0
   37.3546   -0.9055   17.1400 C   0  0  0  0  0  0  0  0  0  0  0  0
   37.0246   -0.3150   18.4904 C   0  0  0  0  0  0  0  0  0  0  0  0
   35.7846   -0.5600   19.0949 C   0  0  0  0  0  0  0  0  0  0  0  0
   35.5008   -0.0451   20.3601 C   0  0  0  0  0  0  0  0  0  0  0  0
   36.4532    0.7250   21.0237 C   0  0  0  0  0  0  0  0  0  0  0  0
   36.0698    1.4128   22.7437 Br  0  0  0  0  0  0  0  0  0  0  0  0
   37.6871    0.9863   20.4318 C   0  0  0  0  0  0  0  0  0  0  0  0
   37.9719    0.4670   19.1672 C   0  0  0  0  0  0  0  0  0  0  0  0
   38.5634   -2.8115   18.4285 C   0  0  0  0  0  0  0  0  0  0  0  0
   39.9300   -3.1502   18.8555 N   0  0  0  0  0  0  0  0  0  0  0  0
   40.5645   -2.9231   18.0899 H   0  0  0  0  0  0  0  0  0  0  0  0
   40.1480   -4.5778   19.2258 C   0  0  0  0  0  0  0  0  0  0  0  0
   41.4493   -4.9450   19.9925 C   0  0  0  0  0  0  0  0  0  0  0  0
   42.0740   -6.3049   19.6856 C   0  0  0  0  0  0  0  0  0  0  0  0
   42.4493   -3.9442   19.7088 O   0  0  0  0  0  0  0  0  0  0  0  0
   42.6703   -3.9665   18.7645 H   0  0  0  0  0  0  0  0  0  0  0  0
   38.6510   -4.7346   21.1725 N   0  0  0  0  0  0  0  0  0  0  0  0
   38.8783   -5.1778   19.8869 C   0  0  0  0  0  0  0  0  0  0  0  0
   38.1634   -6.0144   19.3361 O   0  0  0  0  0  0  0  0  0  0  0  0
   39.3147   -4.1422   21.5942 H   0  0  0  0  0  0  0  0  0  0  0  0
   37.4726   -5.1083   21.9248 C   0  0  0  0  0  0  0  0  0  0  0  0
   37.2643   -2.6226   22.2393 C   0  0  0  0  0  0  0  0  0  0  0  0
   36.4924   -3.9344   22.0869 C   0  0  0  0  0  0  0  0  0  0  0  0
   35.5307   -3.8420   20.8995 C   0  0  0  0  0  0  0  0  0  0  0  0
 51 52  1  0
 52 53  1  0
 52 50  1  0
 50 46  1  0
 46 47  1  0
 47 48  2  0
 47 41  1  0
 41 39  1  0
 39 38  1  0
 29 38  1  0
 29 30  1  0
 30 31  1  0
 31 32  2  0
 32 33  1  0
 33 34  2  0
 34 35  1  0
 34 36  1  0
 36 37  2  0
 29  1  1  0
  1  2  1  0
  2  3  2  0
  2  5  1  0
  5  6  2  0
  6  7  1  0
  7 11  1  0
 11 12  2  0
 11 13  1  0
 13 15  1  0
 15 16  1  0
 15 17  1  0
 17 18  2  0
 18 19  1  0
 19 20  2  0
 20 21  1  0
 21 22  2  0
  7  8  2  0
  8  9  1  0
  9 23  1  0
 23 24  1  0
 23 25  1  0
 25 26  1  0
 25 27  2  0
 25 28  2  0
  9 10  2  0
 41 42  1  0
 42 43  1  0
 42 44  1  0
 37 31  1  0
 10  5  1  0
 22 17  1  0
 46 49  1  0
 39 40  1  0
  1  4  1  0
 13 14  1  0
 44 45  1  0
M  END
> <minimizedAffinity>
-8.23812

> <CNNscore>
0.1907454580

> <CNNaffinity>
6.3163552284

> <CNN_VS>
1.2048161030

> <CNNaffinity_variance>
1.5299215317

$$$$



 53 55  0  0  0  0  0  0  0  0999 V2000
   38.9351   -2.4920   15.9371 N   0  0  0  0  0  0  0  0  0  0  0  0
   39.4479   -2.1366   14.7114 C   0  0  0  0  0  0  0  0  0  0  0  0
   39.8842   -1.0228   14.4427 O   0  0  0  0  0  0  0  0  0  0  0  0
   38.5356   -3.3853   16.0453 H   0  0  0  0  0  0  0  0  0  0  0  0
   39.5244   -3.2148   13.6957 C   0  0  0  0  0  0  0  0  0  0  0  0
   38.3379   -3.8765   13.3573 C   0  0  0  0  0  0  0  0  0  0  0  0
   38.3537   -4.8675   12.3737 C   0  0  0  0  0  0  0  0  0  0  0  0
   39.5564   -5.1971   11.7338 C   0  0  0  0  0  0  0  0  0  0  0  0
   40.7443   -4.5588   12.0966 C   0  0  0  0  0  0  0  0  0  0  0  0
   40.7277   -3.5613   13.0736 C   0  0  0  0  0  0  0  0  0  0  0  0
   37.1138   -5.5528   11.9248 C   0  0  0  0  0  0  0  0  0  0  0  0
   36.1576   -5.6336   12.6885 O   0  0  0  0  0  0  0  0  0  0  0  0
   37.1105   -6.0426   10.6407 N   0  0  0  0  0  0  0  0  0  0  0  0
   37.9164   -5.9356   10.0855 H   0  0  0  0  0  0  0  0  0  0  0  0
   35.9487   -6.7150   10.0793 C   0  0  0  0  0  0  0  0  0  0  0  0
   36.3622   -7.9099    9.2166 C   0  0  0  0  0  0  0  0  0  0  0  0
   35.1057   -5.7104    9.3136 C   0  0  0  0  0  0  0  0  0  0  0  0
   35.6296   -4.9693    8.2424 C   0  0  0  0  0  0  0  0  0  0  0  0
   34.8408   -4.0313    7.5726 C   0  0  0  0  0  0  0  0  0  0  0  0
   33.5219   -3.8188    7.9666 C   0  0  0  0  0  0  0  0  0  0  0  0
   32.9880   -4.5436    9.0282 C   0  0  0  0  0  0  0  0  0  0  0  0
   33.7759   -5.4793    9.7023 C   0  0  0  0  0  0  0  0  0  0  0  0
   41.9755   -4.8391   11.4116 N   0  0  0  0  0  0  0  0  0  0  0  0
   42.0923   -6.1194   10.6889 C   0  0  0  0  0  0  0  0  0  0  0  0
   42.8085   -3.5078   10.7486 S   0  0  0  0  0  0  0  0  0  0  0  0
   43.5928   -4.2208    9.3176 C   0  0  0  0  0  0  0  0  0  0  0  0
   41.8460   -2.5277   10.2840 O   0  0  0  0  0  0  0  0  0  0  0  0
   43.8555   -3.1312   11.6735 O   0  0  0  0  0  0  0  0  0  0  0  0
   38.9640   -1.5836   17.0883 C   0  0  0  0  0  0  0  0  0  0  0  0
   37.6809   -0.7339   17.1313 C   0  0  0  0  0  0  0  0  0  0  0  0
   37.3569   -0.2334   18.5190 C   0  0  0  0  0  0  0  0  0  0  0  0
   38.2400    0.6168   19.1975 C   0  0  0  0  0  0  0  0  0  0  0  0
   37.9168    1.1081   20.4626 C   0  0  0  0  0  0  0  0  0  0  0  0
   36.7116    0.7445   21.0593 C   0  0  0  0  0  0  0  0  0  0  0  0
   36.2710    1.4209   22.7701 Br  0  0  0  0  0  0  0  0  0  0  0  0
   35.8274   -0.1082   20.4022 C   0  0  0  0  0  0  0  0  0  0  0  0
   36.1498   -0.5962   19.1341 C   0  0  0  0  0  0  0  0  0  0  0  0
   39.2207   -2.4195   18.3731 C   0  0  0  0  0  0  0  0  0  0  0  0
   40.6524   -2.5151   18.6981 N   0  0  0  0  0  0  0  0  0  0  0  0
   40.9893   -3.4212   18.3727 H   0  0  0  0  0  0  0  0  0  0  0  0
   40.9884   -2.3920   20.1453 C   0  0  0  0  0  0  0  0  0  0  0  0
   41.7508   -3.5652   20.8226 C   0  0  0  0  0  0  0  0  0  0  0  0
   42.2915   -3.3193   22.2301 C   0  0  0  0  0  0  0  0  0  0  0  0
   40.8688   -4.7047   20.8993 O   0  0  0  0  0  0  0  0  0  0  0  0
   40.1181   -4.4943   21.4765 H   0  0  0  0  0  0  0  0  0  0  0  0
   42.9127   -0.8690   19.9643 N   0  0  0  0  0  0  0  0  0  0  0  0
   41.6298   -1.0116   20.4488 C   0  0  0  0  0  0  0  0  0  0  0  0
   41.0671   -0.1376   21.1075 O   0  0  0  0  0  0  0  0  0  0  0  0
   43.3451   -1.6410   19.5327 H   0  0  0  0  0  0  0  0  0  0  0  0
   43.6470    0.3737   20.0671 C   0  0  0  0  0  0  0  0  0  0  0  0
   45.3459   -1.1348   18.9906 C   0  0  0  0  0  0  0  0  0  0  0  0
   44.9910    0.3158   19.3217 C   0  0  0  0  0  0  0  0  0  0  0  0
   44.9552    1.1525   18.0404 C   0  0  0  0  0  0  0  0  0  0  0  0
 51 52  1  0
 52 53  1  0
 52 50  1  0
 50 46  1  0
 46 47  1  0
 47 48  2  0
 47 41  1  0
 41 39  1  0
 39 38  1  0
 29 38  1  0
 29 30  1  0
 30 31  1  0
 31 32  2  0
 32 33  1  0
 33 34  2  0
 34 35  1  0
 34 36  1  0
 36 37  2  0
 29  1  1  0
  1  2  1  0
  2  3  2  0
  2  5  1  0
  5  6  2  0
  6  7  1  0
  7 11  1  0
 11 12  2  0
 11 13  1  0
 13 15  1  0
 15 16  1  0
 15 17  1  0
 17 18  2  0
 18 19  1  0
 19 20  2  0
 20 21  1  0
 21 22  2  0
  7  8  2  0
  8  9  1  0
  9 23  1  0
 23 24  1  0
 23 25  1  0
 25 26  1  0
 25 27  2  0
 25 28  2  0
  9 10  2  0
 41 42  1  0
 42 43  1  0
 42 44  1  0
 37 31  1  0
 10  5  1  0
 22 17  1  0
 46 49  1  0
 39 40  1  0
  1  4  1  0
 13 14  1  0
 44 45  1  0
M  END
> <minimizedAffinity>
-8.53773

> <CNNscore>
0.1726708263

> <CNNaffinity>
6.3095474243

> <CNN_VS>
1.0894747972

> <CNNaffinity_variance>
1.1732438803

$$$$



 53 55  0  0  0  0  0  0  0  0999 V2000
   39.2537   -2.4862   15.9790 N   0  0  0  0  0  0  0  0  0  0  0  0
   39.6267   -2.1073   14.7106 C   0  0  0  0  0  0  0  0  0  0  0  0
   39.9756   -0.9725   14.4042 O   0  0  0  0  0  0  0  0  0  0  0  0
   38.9142   -3.3991   16.1227 H   0  0  0  0  0  0  0  0  0  0  0  0
   39.6620   -3.1823   13.6894 C   0  0  0  0  0  0  0  0  0  0  0  0
   38.4587   -3.8288   13.3820 C   0  0  0  0  0  0  0  0  0  0  0  0
   38.4352   -4.8161   12.3949 C   0  0  0  0  0  0  0  0  0  0  0  0
   39.6156   -5.1574   11.7204 C   0  0  0  0  0  0  0  0  0  0  0  0
   40.8207   -4.5344   12.0520 C   0  0  0  0  0  0  0  0  0  0  0  0
   40.8432   -3.5406   13.0326 C   0  0  0  0  0  0  0  0  0  0  0  0
   37.1752   -5.4850   11.9785 C   0  0  0  0  0  0  0  0  0  0  0  0
   36.2181   -5.5021   12.7452 O   0  0  0  0  0  0  0  0  0  0  0  0
   37.1558   -6.0340   10.7187 N   0  0  0  0  0  0  0  0  0  0  0  0
   37.9638   -5.9766   10.1591 H   0  0  0  0  0  0  0  0  0  0  0  0
   35.9741   -6.6975   10.1893 C   0  0  0  0  0  0  0  0  0  0  0  0
   36.3526   -7.9308    9.3653 C   0  0  0  0  0  0  0  0  0  0  0  0
   35.1486   -5.7002    9.3957 C   0  0  0  0  0  0  0  0  0  0  0  0
   35.6950   -4.9728    8.3263 C   0  0  0  0  0  0  0  0  0  0  0  0
   34.9217   -4.0409    7.6303 C   0  0  0  0  0  0  0  0  0  0  0  0
   33.5959   -3.8210    7.9961 C   0  0  0  0  0  0  0  0  0  0  0  0
   33.0397   -4.5321    9.0555 C   0  0  0  0  0  0  0  0  0  0  0  0
   33.8121   -5.4615    9.7557 C   0  0  0  0  0  0  0  0  0  0  0  0
   42.0288   -4.8266   11.3319 N   0  0  0  0  0  0  0  0  0  0  0  0
   42.0987   -6.0916   10.5769 C   0  0  0  0  0  0  0  0  0  0  0  0
   42.8774   -3.4993   10.6806 S   0  0  0  0  0  0  0  0  0  0  0  0
   43.4964   -4.1564    9.1456 C   0  0  0  0  0  0  0  0  0  0  0  0
   41.9367   -2.4426   10.3629 O   0  0  0  0  0  0  0  0  0  0  0  0
   44.0185   -3.2387   11.5313 O   0  0  0  0  0  0  0  0  0  0  0  0
   39.3451   -1.5747   17.1245 C   0  0  0  0  0  0  0  0  0  0  0  0
   38.1669   -0.5838   17.1148 C   0  0  0  0  0  0  0  0  0  0  0  0
   36.8489   -1.2451   16.7883 C   0  0  0  0  0  0  0  0  0  0  0  0
   36.0145   -1.7205   17.8085 C   0  0  0  0  0  0  0  0  0  0  0  0
   34.7801   -2.2941   17.5027 C   0  0  0  0  0  0  0  0  0  0  0  0
   34.3775   -2.4029   16.1735 C   0  0  0  0  0  0  0  0  0  0  0  0
   32.6985   -3.1711   15.7623 Br  0  0  0  0  0  0  0  0  0  0  0  0
   35.2002   -1.9444   15.1468 C   0  0  0  0  0  0  0  0  0  0  0  0
   36.4338   -1.3665   15.4541 C   0  0  0  0  0  0  0  0  0  0  0  0
   39.4586   -2.4207   18.4233 C   0  0  0  0  0  0  0  0  0  0  0  0
   40.4918   -3.4630   18.3203 N   0  0  0  0  0  0  0  0  0  0  0  0
   40.3757   -3.9337   17.4229 H   0  0  0  0  0  0  0  0  0  0  0  0
   40.4618   -4.4999   19.3910 C   0  0  0  0  0  0  0  0  0  0  0  0
   39.4858   -5.6979   19.2232 C   0  0  0  0  0  0  0  0  0  0  0  0
   39.4973   -6.7601   20.3212 C   0  0  0  0  0  0  0  0  0  0  0  0
   38.1388   -5.1868   19.1406 O   0  0  0  0  0  0  0  0  0  0  0  0
   37.9047   -4.7557   19.9774 H   0  0  0  0  0  0  0  0  0  0  0  0
   42.2599   -6.1727   19.2361 N   0  0  0  0  0  0  0  0  0  0  0  0
   41.8993   -4.9513   19.7641 C   0  0  0  0  0  0  0  0  0  0  0  0
   42.6368   -4.3045   20.5072 O   0  0  0  0  0  0  0  0  0  0  0  0
   41.5893   -6.6881   18.7322 H   0  0  0  0  0  0  0  0  0  0  0  0
   43.5879   -6.7250   19.3955 C   0  0  0  0  0  0  0  0  0  0  0  0
   44.9897   -8.6028   20.3065 C   0  0  0  0  0  0  0  0  0  0  0  0
   43.5622   -8.1152   20.0529 C   0  0  0  0  0  0  0  0  0  0  0  0
   42.7730   -8.0981   21.3643 C   0  0  0  0  0  0  0  0  0  0  0  0
 51 52  1  0
 52 53  1  0
 52 50  1  0
 50 46  1  0
 46 47  1  0
 47 48  2  0
 47 41  1  0
 41 39  1  0
 39 38  1  0
 29 38  1  0
 29 30  1  0
 30 31  1  0
 31 32  2  0
 32 33  1  0
 33 34  2  0
 34 35  1  0
 34 36  1  0
 36 37  2  0
 29  1  1  0
  1  2  1  0
  2  3  2  0
  2  5  1  0
  5  6  2  0
  6  7  1  0
  7 11  1  0
 11 12  2  0
 11 13  1  0
 13 15  1  0
 15 16  1  0
 15 17  1  0
 17 18  2  0
 18 19  1  0
 19 20  2  0
 20 21  1  0
 21 22  2  0
  7  8  2  0
  8  9  1  0
  9 23  1  0
 23 24  1  0
 23 25  1  0
 25 26  1  0
 25 27  2  0
 25 28  2  0
  9 10  2  0
 41 42  1  0
 42 43  1  0
 42 44  1  0
 37 31  1  0
 10  5  1  0
 22 17  1  0
 46 49  1  0
 39 40  1  0
  1  4  1  0
 13 14  1  0
 44 45  1  0
M  END
> <minimizedAffinity>
-8.60461

> <CNNscore>
0.1707116067

> <CNNaffinity>
5.8552384377

> <CNN_VS>
0.9995571375

> <CNNaffinity_variance>
2.4662733078

$$$$
