


 52 55  0  0  0  0  0  0  0  0999 V2000
   -3.6800   -3.4498   31.8116 N   0  0  0  0  0  0  0  0  0  0  0  0
   -3.5382   -3.3922   30.4472 C   0  0  0  0  0  0  0  0  0  0  0  0
   -4.4709   -3.4556   29.6580 O   0  0  0  0  0  0  0  0  0  0  0  0
   -2.8745   -3.4025   32.3757 H   0  0  0  0  0  0  0  0  0  0  0  0
   -2.1479   -3.2595   29.9513 C   0  0  0  0  0  0  0  0  0  0  0  0
   -1.1827   -4.1620   30.4050 C   0  0  0  0  0  0  0  0  0  0  0  0
    0.1393   -4.0400   29.9661 C   0  0  0  0  0  0  0  0  0  0  0  0
    0.4974   -3.0080   29.0891 C   0  0  0  0  0  0  0  0  0  0  0  0
   -0.4731   -2.1108   28.6415 C   0  0  0  0  0  0  0  0  0  0  0  0
   -1.8011   -2.2511   29.0462 C   0  0  0  0  0  0  0  0  0  0  0  0
    1.1505   -4.9939   30.4869 C   0  0  0  0  0  0  0  0  0  0  0  0
    2.0331   -5.4142   29.7503 O   0  0  0  0  0  0  0  0  0  0  0  0
    1.0283   -5.3302   31.8156 N   0  0  0  0  0  0  0  0  0  0  0  0
    0.2576   -4.9941   32.3279 H   0  0  0  0  0  0  0  0  0  0  0  0
    2.0126   -6.1718   32.4815 C   0  0  0  0  0  0  0  0  0  0  0  0
    1.3474   -7.1640   33.4430 C   0  0  0  0  0  0  0  0  0  0  0  0
    3.0315   -5.2835   33.1749 C   0  0  0  0  0  0  0  0  0  0  0  0
    4.3900   -5.2967   32.8169 C   0  0  0  0  0  0  0  0  0  0  0  0
    5.3137   -4.4997   33.4965 C   0  0  0  0  0  0  0  0  0  0  0  0
    4.8956   -3.6850   34.5466 C   0  0  0  0  0  0  0  0  0  0  0  0
    3.5519   -3.6650   34.9173 C   0  0  0  0  0  0  0  0  0  0  0  0
    2.6266   -4.4614   34.2392 C   0  0  0  0  0  0  0  0  0  0  0  0
   -0.0537   -1.0633   27.7467 N   0  0  0  0  0  0  0  0  0  0  0  0
    1.3948   -0.7441   27.8003 C   0  0  0  0  0  0  0  0  0  0  0  0
   -0.6656   -1.1665   26.1420 S   0  0  0  0  0  0  0  0  0  0  0  0
    0.6374   -0.3790   25.2182 C   0  0  0  0  0  0  0  0  0  0  0  0
   -0.6775   -2.5655   25.7675 O   0  0  0  0  0  0  0  0  0  0  0  0
   -1.8670   -0.3635   26.0372 O   0  0  0  0  0  0  0  0  0  0  0  0
   -4.9972   -3.5800   32.4607 C   0  0  0  0  0  0  0  0  0  0  0  0
   -5.3469   -2.2502   33.1850 C   0  0  0  0  0  0  0  0  0  0  0  0
   -5.3781   -2.4360   34.6076 O   0  0  0  0  0  0  0  0  0  0  0  0
   -6.0990   -3.0425   34.8387 H   0  0  0  0  0  0  0  0  0  0  0  0
   -6.6268   -1.5329   32.6799 C   0  0  0  0  0  0  0  0  0  0  0  0
   -7.9468   -1.9352   33.1649 N   0  0  0  0  0  0  0  0  0  0  0  0
   -7.8280   -2.7326   33.7897 H   0  0  0  0  0  0  0  0  0  0  0  0
   -8.8834   -2.3146   32.1139 C   0  0  0  0  0  0  0  0  0  0  0  0
  -12.6785   -1.9073   32.0839 C   0  0  0  0  0  0  0  0  0  0  0  0
  -12.9488   -1.8362   33.4522 C   0  0  0  0  0  0  0  0  0  0  0  0
  -11.9174   -1.9251   34.3874 C   0  0  0  0  0  0  0  0  0  0  0  0
  -10.6015   -2.0820   33.9561 C   0  0  0  0  0  0  0  0  0  0  0  0
  -10.3085   -2.1451   32.5866 C   0  0  0  0  0  0  0  0  0  0  0  0
  -11.3592   -2.0672   31.6554 C   0  0  0  0  0  0  0  0  0  0  0  0
  -13.8124   -0.7200   30.3662 C   0  0  0  0  0  0  0  0  0  0  0  0
  -13.7803   -1.8103   31.2781 O   0  0  0  0  0  0  0  0  0  0  0  0
   -4.9846   -4.8150   33.3907 C   0  0  0  0  0  0  0  0  0  0  0  0
   -4.0518   -5.9169   32.9234 C   0  0  0  0  0  0  0  0  0  0  0  0
   -4.2778   -6.5654   31.6999 C   0  0  0  0  0  0  0  0  0  0  0  0
   -3.4202   -7.5804   31.2677 C   0  0  0  0  0  0  0  0  0  0  0  0
   -2.3327   -7.9512   32.0557 C   0  0  0  0  0  0  0  0  0  0  0  0
   -1.2805   -9.2059   31.5222 Cl  0  0  0  0  0  0  0  0  0  0  0  0
   -2.0933   -7.3158   33.2718 C   0  0  0  0  0  0  0  0  0  0  0  0
   -2.9483   -6.2984   33.7028 C   0  0  0  0  0  0  0  0  0  0  0  0
 43 44  1  0
 44 37  1  0
 37 38  2  0
 38 39  1  0
 39 40  2  0
 40 41  1  0
 41 36  1  0
 36 34  1  0
 34 33  1  0
 33 30  1  0
 30 31  1  0
 30 29  1  0
 29 45  1  0
 45 46  1  0
 46 47  2  0
 47 48  1  0
 48 49  2  0
 49 50  1  0
 49 51  1  0
 51 52  2  0
 29  1  1  0
  1  2  1  0
  2  3  2  0
  2  5  1  0
  5  6  2  0
  6  7  1  0
  7 11  1  0
 11 12  2  0
 11 13  1  0
 13 15  1  0
 15 16  1  0
 15 17  1  0
 17 18  2  0
 18 19  1  0
 19 20  2  0
 20 21  1  0
 21 22  2  0
  7  8  2  0
  8  9  1  0
  9 23  1  0
 23 24  1  0
 23 25  1  0
 25 26  1  0
 25 27  2  0
 25 28  2  0
  9 10  2  0
 41 42  2  0
 42 37  1  0
 52 46  1  0
 10  5  1  0
 22 17  1  0
 34 35  1  0
 31 32  1  0
  1  4  1  0
 13 14  1  0
M  END
> <minimizedAffinity>
-12.35836

> <CNNscore>
0.9776744246

> <CNNaffinity>
8.2585144043

> <CNN_VS>
8.0741386414

> <CNNaffinity_variance>
1.0546413660

$$$$



 52 55  0  0  0  0  0  0  0  0999 V2000
   -3.6772   -3.8420   31.7802 N   0  0  0  0  0  0  0  0  0  0  0  0
   -3.5675   -3.4276   30.4758 C   0  0  0  0  0  0  0  0  0  0  0  0
   -4.5217   -3.1481   29.7630 O   0  0  0  0  0  0  0  0  0  0  0  0
   -2.8576   -4.0579   32.2810 H   0  0  0  0  0  0  0  0  0  0  0  0
   -2.1871   -3.3444   29.9427 C   0  0  0  0  0  0  0  0  0  0  0  0
   -1.1735   -4.0598   30.5851 C   0  0  0  0  0  0  0  0  0  0  0  0
    0.1393   -3.9770   30.1108 C   0  0  0  0  0  0  0  0  0  0  0  0
    0.4393   -3.1677   29.0075 C   0  0  0  0  0  0  0  0  0  0  0  0
   -0.5793   -2.4563   28.3724 C   0  0  0  0  0  0  0  0  0  0  0  0
   -1.8971   -2.5654   28.8178 C   0  0  0  0  0  0  0  0  0  0  0  0
    1.2017   -4.7237   30.8300 C   0  0  0  0  0  0  0  0  0  0  0  0
    1.6104   -4.3196   31.9107 O   0  0  0  0  0  0  0  0  0  0  0  0
    1.6495   -5.8702   30.2148 N   0  0  0  0  0  0  0  0  0  0  0  0
    1.3114   -6.0987   29.3188 H   0  0  0  0  0  0  0  0  0  0  0  0
    2.6119   -6.7535   30.8584 C   0  0  0  0  0  0  0  0  0  0  0  0
    2.4263   -6.7756   32.3803 C   0  0  0  0  0  0  0  0  0  0  0  0
    4.0140   -6.3358   30.4490 C   0  0  0  0  0  0  0  0  0  0  0  0
    4.4307   -6.3574   29.1075 C   0  0  0  0  0  0  0  0  0  0  0  0
    5.7373   -6.0066   28.7614 C   0  0  0  0  0  0  0  0  0  0  0  0
    6.6474   -5.6371   29.7496 C   0  0  0  0  0  0  0  0  0  0  0  0
    6.2507   -5.6161   31.0859 C   0  0  0  0  0  0  0  0  0  0  0  0
    4.9446   -5.9667   31.4341 C   0  0  0  0  0  0  0  0  0  0  0  0
   -0.2189   -1.6330   27.2471 N   0  0  0  0  0  0  0  0  0  0  0  0
   -1.3310   -0.8249   26.6877 C   0  0  0  0  0  0  0  0  0  0  0  0
    1.2460   -0.7459   27.4135 S   0  0  0  0  0  0  0  0  0  0  0  0
    2.4155   -1.8542   26.6551 C   0  0  0  0  0  0  0  0  0  0  0  0
    1.1468    0.4249   26.5666 O   0  0  0  0  0  0  0  0  0  0  0  0
    1.5671   -0.6150   28.8202 O   0  0  0  0  0  0  0  0  0  0  0  0
   -4.9805   -3.9748   32.4563 C   0  0  0  0  0  0  0  0  0  0  0  0
   -5.2653   -2.6883   33.2805 C   0  0  0  0  0  0  0  0  0  0  0  0
   -4.4282   -2.6318   34.4448 O   0  0  0  0  0  0  0  0  0  0  0  0
   -4.6527   -3.3638   35.0403 H   0  0  0  0  0  0  0  0  0  0  0  0
   -6.7544   -2.4445   33.6419 C   0  0  0  0  0  0  0  0  0  0  0  0
   -7.5875   -1.5696   32.8172 N   0  0  0  0  0  0  0  0  0  0  0  0
   -8.4104   -2.0961   32.5239 H   0  0  0  0  0  0  0  0  0  0  0  0
   -6.9242   -1.0576   31.6241 C   0  0  0  0  0  0  0  0  0  0  0  0
   -9.2187    1.8622   30.7410 C   0  0  0  0  0  0  0  0  0  0  0  0
   -8.3075    2.9204   30.7244 C   0  0  0  0  0  0  0  0  0  0  0  0
   -6.9579    2.7024   31.0025 C   0  0  0  0  0  0  0  0  0  0  0  0
   -6.5089    1.4161   31.2958 C   0  0  0  0  0  0  0  0  0  0  0  0
   -7.4061    0.3390   31.3072 C   0  0  0  0  0  0  0  0  0  0  0  0
   -8.7658    0.5751   31.0379 C   0  0  0  0  0  0  0  0  0  0  0  0
  -10.9650    1.9578   29.1325 C   0  0  0  0  0  0  0  0  0  0  0  0
  -10.5094    2.2151   30.4544 O   0  0  0  0  0  0  0  0  0  0  0  0
   -4.9856   -5.2717   33.2979 C   0  0  0  0  0  0  0  0  0  0  0  0
   -3.9782   -6.3043   32.8275 C   0  0  0  0  0  0  0  0  0  0  0  0
   -2.8851   -6.6483   33.6370 C   0  0  0  0  0  0  0  0  0  0  0  0
   -1.9561   -7.5989   33.2058 C   0  0  0  0  0  0  0  0  0  0  0  0
   -2.1160   -8.2104   31.9642 C   0  0  0  0  0  0  0  0  0  0  0  0
   -0.9665   -9.3781   31.4337 Cl  0  0  0  0  0  0  0  0  0  0  0  0
   -3.1968   -7.8817   31.1495 C   0  0  0  0  0  0  0  0  0  0  0  0
   -4.1280   -6.9340   31.5817 C   0  0  0  0  0  0  0  0  0  0  0  0
 43 44  1  0
 44 37  1  0
 37 38  2  0
 38 39  1  0
 39 40  2  0
 40 41  1  0
 41 36  1  0
 36 34  1  0
 34 33  1  0
 33 30  1  0
 30 31  1  0
 30 29  1  0
 29 45  1  0
 45 46  1  0
 46 47  2  0
 47 48  1  0
 48 49  2  0
 49 50  1  0
 49 51  1  0
 51 52  2  0
 29  1  1  0
  1  2  1  0
  2  3  2  0
  2  5  1  0
  5  6  2  0
  6  7  1  0
  7 11  1  0
 11 12  2  0
 11 13  1  0
 13 15  1  0
 15 16  1  0
 15 17  1  0
 17 18  2  0
 18 19  1  0
 19 20  2  0
 20 21  1  0
 21 22  2  0
  7  8  2  0
  8  9  1  0
  9 23  1  0
 23 24  1  0
 23 25  1  0
 25 26  1  0
 25 27  2  0
 25 28  2  0
  9 10  2  0
 41 42  2  0
 42 37  1  0
 52 46  1  0
 10  5  1  0
 22 17  1  0
 34 35  1  0
 31 32  1  0
  1  4  1  0
 13 14  1  0
M  END
> <minimizedAffinity>
-11.17126

> <CNNscore>
0.9654555917

> <CNNaffinity>
7.7829341888

> <CNN_VS>
7.5140771866

> <CNNaffinity_variance>
1.5504089594

$$$$



 52 55  0  0  0  0  0  0  0  0999 V2000
   -3.6889   -3.5752   31.8699 N   0  0  0  0  0  0  0  0  0  0  0  0
   -3.6025   -3.4709   30.5036 C   0  0  0  0  0  0  0  0  0  0  0  0
   -4.5641   -3.5292   29.7496 O   0  0  0  0  0  0  0  0  0  0  0  0
   -2.8629   -3.5285   32.4036 H   0  0  0  0  0  0  0  0  0  0  0  0
   -2.2358   -3.2922   29.9588 C   0  0  0  0  0  0  0  0  0  0  0  0
   -1.2239   -4.1570   30.3831 C   0  0  0  0  0  0  0  0  0  0  0  0
    0.0769   -3.9911   29.8975 C   0  0  0  0  0  0  0  0  0  0  0  0
    0.3672   -2.9527   29.0033 C   0  0  0  0  0  0  0  0  0  0  0  0
   -0.6496   -2.0934   28.5852 C   0  0  0  0  0  0  0  0  0  0  0  0
   -1.9568   -2.2780   29.0368 C   0  0  0  0  0  0  0  0  0  0  0  0
    1.1389   -4.9052   30.3876 C   0  0  0  0  0  0  0  0  0  0  0  0
    2.0361   -5.2616   29.6350 O   0  0  0  0  0  0  0  0  0  0  0  0
    1.0437   -5.2807   31.7080 N   0  0  0  0  0  0  0  0  0  0  0  0
    0.2609   -4.9972   32.2334 H   0  0  0  0  0  0  0  0  0  0  0  0
    2.0743   -6.0878   32.3461 C   0  0  0  0  0  0  0  0  0  0  0  0
    1.4659   -7.2158   33.1879 C   0  0  0  0  0  0  0  0  0  0  0  0
    2.9792   -5.1778   33.1592 C   0  0  0  0  0  0  0  0  0  0  0  0
    4.3706   -5.1532   32.9661 C   0  0  0  0  0  0  0  0  0  0  0  0
    5.1850   -4.3369   33.7538 C   0  0  0  0  0  0  0  0  0  0  0  0
    4.6230   -3.5403   34.7493 C   0  0  0  0  0  0  0  0  0  0  0  0
    3.2446   -3.5578   34.9569 C   0  0  0  0  0  0  0  0  0  0  0  0
    2.4285   -4.3736   34.1704 C   0  0  0  0  0  0  0  0  0  0  0  0
   -0.2991   -1.0374   27.6709 N   0  0  0  0  0  0  0  0  0  0  0  0
    1.0422   -0.4424   27.8944 C   0  0  0  0  0  0  0  0  0  0  0  0
   -0.6344   -1.3480   26.0122 S   0  0  0  0  0  0  0  0  0  0  0  0
    0.9987   -1.2802   25.3053 C   0  0  0  0  0  0  0  0  0  0  0  0
   -1.0949   -2.7172   25.9080 O   0  0  0  0  0  0  0  0  0  0  0  0
   -1.4248   -0.2598   25.4735 O   0  0  0  0  0  0  0  0  0  0  0  0
   -4.9766   -3.7547   32.5651 C   0  0  0  0  0  0  0  0  0  0  0  0
   -5.3301   -2.4526   33.3363 C   0  0  0  0  0  0  0  0  0  0  0  0
   -5.9574   -2.7561   34.5908 O   0  0  0  0  0  0  0  0  0  0  0  0
   -6.8102   -3.1892   34.4294 H   0  0  0  0  0  0  0  0  0  0  0  0
   -6.1459   -1.4040   32.5347 C   0  0  0  0  0  0  0  0  0  0  0  0
   -7.5812   -1.2419   32.7655 N   0  0  0  0  0  0  0  0  0  0  0  0
   -7.7977   -1.6016   33.6951 H   0  0  0  0  0  0  0  0  0  0  0  0
   -8.4271   -1.9333   31.8002 C   0  0  0  0  0  0  0  0  0  0  0  0
   -9.3290    1.3394   30.0552 C   0  0  0  0  0  0  0  0  0  0  0  0
  -10.2337    0.8866   29.0925 C   0  0  0  0  0  0  0  0  0  0  0  0
  -10.5518   -0.4683   28.9957 C   0  0  0  0  0  0  0  0  0  0  0  0
   -9.9666   -1.3825   29.8699 C   0  0  0  0  0  0  0  0  0  0  0  0
   -9.0639   -0.9463   30.8498 C   0  0  0  0  0  0  0  0  0  0  0  0
   -8.7425    0.4203   30.9276 C   0  0  0  0  0  0  0  0  0  0  0  0
   -8.1051    3.1832   30.9204 C   0  0  0  0  0  0  0  0  0  0  0  0
   -9.1045    2.6892   30.0381 O   0  0  0  0  0  0  0  0  0  0  0  0
   -4.8981   -5.0118   33.4616 C   0  0  0  0  0  0  0  0  0  0  0  0
   -3.9683   -6.0837   32.9237 C   0  0  0  0  0  0  0  0  0  0  0  0
   -2.8212   -6.4527   33.6423 C   0  0  0  0  0  0  0  0  0  0  0  0
   -1.9636   -7.4394   33.1488 C   0  0  0  0  0  0  0  0  0  0  0  0
   -2.2491   -8.0622   31.9356 C   0  0  0  0  0  0  0  0  0  0  0  0
   -1.1875   -9.2745   31.3280 Cl  0  0  0  0  0  0  0  0  0  0  0  0
   -3.3851   -7.7089   31.2112 C   0  0  0  0  0  0  0  0  0  0  0  0
   -4.2448   -6.7250   31.7059 C   0  0  0  0  0  0  0  0  0  0  0  0
 43 44  1  0
 44 37  1  0
 37 38  2  0
 38 39  1  0
 39 40  2  0
 40 41  1  0
 41 36  1  0
 36 34  1  0
 34 33  1  0
 33 30  1  0
 30 31  1  0
 30 29  1  0
 29 45  1  0
 45 46  1  0
 46 47  2  0
 47 48  1  0
 48 49  2  0
 49 50  1  0
 49 51  1  0
 51 52  2  0
 29  1  1  0
  1  2  1  0
  2  3  2  0
  2  5  1  0
  5  6  2  0
  6  7  1  0
  7 11  1  0
 11 12  2  0
 11 13  1  0
 13 15  1  0
 15 16  1  0
 15 17  1  0
 17 18  2  0
 18 19  1  0
 19 20  2  0
 20 21  1  0
 21 22  2  0
  7  8  2  0
  8  9  1  0
  9 23  1  0
 23 24  1  0
 23 25  1  0
 25 26  1  0
 25 27  2  0
 25 28  2  0
  9 10  2  0
 41 42  2  0
 42 37  1  0
 52 46  1  0
 10  5  1  0
 22 17  1  0
 34 35  1  0
 31 32  1  0
  1  4  1  0
 13 14  1  0
M  END
> <minimizedAffinity>
-11.67478

> <CNNscore>
0.9573381543

> <CNNaffinity>
8.2163419724

> <CNN_VS>
7.8658175468

> <CNNaffinity_variance>
0.9502210617

$$$$



 52 55  0  0  0  0  0  0  0  0999 V2000
   -3.6650   -3.5739   31.8665 N   0  0  0  0  0  0  0  0  0  0  0  0
   -3.5366   -3.4258   30.5076 C   0  0  0  0  0  0  0  0  0  0  0  0
   -4.4749   -3.4567   29.7232 O   0  0  0  0  0  0  0  0  0  0  0  0
   -2.8556   -3.5471   32.4263 H   0  0  0  0  0  0  0  0  0  0  0  0
   -2.1536   -3.2338   30.0107 C   0  0  0  0  0  0  0  0  0  0  0  0
   -1.1342   -4.0348   30.5315 C   0  0  0  0  0  0  0  0  0  0  0  0
    0.1808   -3.8542   30.0917 C   0  0  0  0  0  0  0  0  0  0  0  0
    0.4770   -2.8639   29.1462 C   0  0  0  0  0  0  0  0  0  0  0  0
   -0.5473   -2.0682   28.6318 C   0  0  0  0  0  0  0  0  0  0  0  0
   -1.8667   -2.2698   29.0386 C   0  0  0  0  0  0  0  0  0  0  0  0
    1.2488   -4.6985   30.6834 C   0  0  0  0  0  0  0  0  0  0  0  0
    1.6445   -4.4785   31.8207 O   0  0  0  0  0  0  0  0  0  0  0  0
    1.7170   -5.7180   29.8866 N   0  0  0  0  0  0  0  0  0  0  0  0
    1.3882   -5.7953   28.9618 H   0  0  0  0  0  0  0  0  0  0  0  0
    2.6874   -6.6853   30.3797 C   0  0  0  0  0  0  0  0  0  0  0  0
    2.5785   -6.8688   31.8982 C   0  0  0  0  0  0  0  0  0  0  0  0
    4.0774   -6.2542   29.9438 C   0  0  0  0  0  0  0  0  0  0  0  0
    4.4048   -6.0704   28.5900 C   0  0  0  0  0  0  0  0  0  0  0  0
    5.7007   -5.7124   28.2124 C   0  0  0  0  0  0  0  0  0  0  0  0
    6.6887   -5.5404   29.1797 C   0  0  0  0  0  0  0  0  0  0  0  0
    6.3809   -5.7245   30.5268 C   0  0  0  0  0  0  0  0  0  0  0  0
    5.0856   -6.0827   30.9065 C   0  0  0  0  0  0  0  0  0  0  0  0
   -0.1907   -1.0596   27.6677 N   0  0  0  0  0  0  0  0  0  0  0  0
    1.2542   -0.7230   27.6270 C   0  0  0  0  0  0  0  0  0  0  0  0
   -0.8874   -1.2446   26.1054 S   0  0  0  0  0  0  0  0  0  0  0  0
    0.3847   -0.5516   25.0697 C   0  0  0  0  0  0  0  0  0  0  0  0
   -0.9526   -2.6632   25.8208 O   0  0  0  0  0  0  0  0  0  0  0  0
   -2.0728   -0.4169   26.0108 O   0  0  0  0  0  0  0  0  0  0  0  0
   -4.9736   -3.7718   32.5160 C   0  0  0  0  0  0  0  0  0  0  0  0
   -5.3558   -2.4877   33.3036 C   0  0  0  0  0  0  0  0  0  0  0  0
   -6.0494   -2.8190   34.5154 O   0  0  0  0  0  0  0  0  0  0  0  0
   -6.8963   -3.2395   34.2986 H   0  0  0  0  0  0  0  0  0  0  0  0
   -6.1207   -1.4101   32.4903 C   0  0  0  0  0  0  0  0  0  0  0  0
   -7.0056   -0.4586   33.1619 N   0  0  0  0  0  0  0  0  0  0  0  0
   -7.4786   -0.9453   33.9234 H   0  0  0  0  0  0  0  0  0  0  0  0
   -8.0206    0.1317   32.2975 C   0  0  0  0  0  0  0  0  0  0  0  0
  -10.9715   -1.6944   30.7079 C   0  0  0  0  0  0  0  0  0  0  0  0
  -11.2976   -2.6020   31.7181 C   0  0  0  0  0  0  0  0  0  0  0  0
  -10.5692   -2.6356   32.9074 C   0  0  0  0  0  0  0  0  0  0  0  0
   -9.5072   -1.7530   33.0958 C   0  0  0  0  0  0  0  0  0  0  0  0
   -9.1708   -0.8276   32.0979 C   0  0  0  0  0  0  0  0  0  0  0  0
   -9.9051   -0.8135   30.8989 C   0  0  0  0  0  0  0  0  0  0  0  0
  -13.1205   -1.3760   29.7456 C   0  0  0  0  0  0  0  0  0  0  0  0
  -11.7631   -1.7704   29.5942 O   0  0  0  0  0  0  0  0  0  0  0  0
   -4.9197   -5.0480   33.3871 C   0  0  0  0  0  0  0  0  0  0  0  0
   -3.9498   -6.0945   32.8708 C   0  0  0  0  0  0  0  0  0  0  0  0
   -4.1984   -6.7542   31.6578 C   0  0  0  0  0  0  0  0  0  0  0  0
   -3.3067   -7.7183   31.1805 C   0  0  0  0  0  0  0  0  0  0  0  0
   -2.1623   -8.0267   31.9129 C   0  0  0  0  0  0  0  0  0  0  0  0
   -1.0678   -9.2190   31.3241 Cl  0  0  0  0  0  0  0  0  0  0  0  0
   -1.8998   -7.3794   33.1179 C   0  0  0  0  0  0  0  0  0  0  0  0
   -2.7892   -6.4127   33.5938 C   0  0  0  0  0  0  0  0  0  0  0  0
 43 44  1  0
 44 37  1  0
 37 38  2  0
 38 39  1  0
 39 40  2  0
 40 41  1  0
 41 36  1  0
 36 34  1  0
 34 33  1  0
 33 30  1  0
 30 31  1  0
 30 29  1  0
 29 45  1  0
 45 46  1  0
 46 47  2  0
 47 48  1  0
 48 49  2  0
 49 50  1  0
 49 51  1  0
 51 52  2  0
 29  1  1  0
  1  2  1  0
  2  3  2  0
  2  5  1  0
  5  6  2  0
  6  7  1  0
  7 11  1  0
 11 12  2  0
 11 13  1  0
 13 15  1  0
 15 16  1  0
 15 17  1  0
 17 18  2  0
 18 19  1  0
 19 20  2  0
 20 21  1  0
 21 22  2  0
  7  8  2  0
  8  9  1  0
  9 23  1  0
 23 24  1  0
 23 25  1  0
 25 26  1  0
 25 27  2  0
 25 28  2  0
  9 10  2  0
 41 42  2  0
 42 37  1  0
 52 46  1  0
 10  5  1  0
 22 17  1  0
 34 35  1  0
 31 32  1  0
  1  4  1  0
 13 14  1  0
M  END
> <minimizedAffinity>
-10.88787

> <CNNscore>
0.8874190450

> <CNNaffinity>
7.5670166016

> <CNN_VS>
6.7151145935

> <CNNaffinity_variance>
1.5870219469

$$$$



 52 55  0  0  0  0  0  0  0  0999 V2000
   -3.2481   -3.7201   31.6612 N   0  0  0  0  0  0  0  0  0  0  0  0
   -2.9889   -3.4455   30.3412 C   0  0  0  0  0  0  0  0  0  0  0  0
   -3.8536   -3.2217   29.5051 O   0  0  0  0  0  0  0  0  0  0  0  0
   -2.4929   -3.8999   32.2667 H   0  0  0  0  0  0  0  0  0  0  0  0
   -1.5582   -3.4467   29.9543 C   0  0  0  0  0  0  0  0  0  0  0  0
   -1.0907   -2.4427   29.1026 C   0  0  0  0  0  0  0  0  0  0  0  0
    0.2508   -2.4390   28.7083 C   0  0  0  0  0  0  0  0  0  0  0  0
    1.1175   -3.4463   29.1515 C   0  0  0  0  0  0  0  0  0  0  0  0
    0.6419   -4.4453   30.0016 C   0  0  0  0  0  0  0  0  0  0  0  0
   -0.6864   -4.4321   30.4288 C   0  0  0  0  0  0  0  0  0  0  0  0
    0.7141   -1.3780   27.7791 C   0  0  0  0  0  0  0  0  0  0  0  0
    1.3015   -0.3961   28.2141 O   0  0  0  0  0  0  0  0  0  0  0  0
    0.4579   -1.5964   26.4449 N   0  0  0  0  0  0  0  0  0  0  0  0
   -0.0699   -2.3838   26.1791 H   0  0  0  0  0  0  0  0  0  0  0  0
    0.9495   -0.6896   25.4169 C   0  0  0  0  0  0  0  0  0  0  0  0
   -0.1969    0.0764   24.7461 C   0  0  0  0  0  0  0  0  0  0  0  0
    1.7829   -1.4789   24.4217 C   0  0  0  0  0  0  0  0  0  0  0  0
    3.1687   -1.2843   24.2980 C   0  0  0  0  0  0  0  0  0  0  0  0
    3.9060   -1.9940   23.3477 C   0  0  0  0  0  0  0  0  0  0  0  0
    3.2693   -2.9014   22.5036 C   0  0  0  0  0  0  0  0  0  0  0  0
    1.8938   -3.1016   22.6104 C   0  0  0  0  0  0  0  0  0  0  0  0
    1.1547   -2.3928   23.5598 C   0  0  0  0  0  0  0  0  0  0  0  0
    1.5701   -5.4622   30.4237 N   0  0  0  0  0  0  0  0  0  0  0  0
    0.9412   -6.6734   31.0070 C   0  0  0  0  0  0  0  0  0  0  0  0
    2.8337   -5.8232   29.3131 S   0  0  0  0  0  0  0  0  0  0  0  0
    2.4139   -7.4857   28.8322 C   0  0  0  0  0  0  0  0  0  0  0  0
    2.6504   -4.9771   28.1520 O   0  0  0  0  0  0  0  0  0  0  0  0
    4.0983   -5.8439   30.0198 O   0  0  0  0  0  0  0  0  0  0  0  0
   -4.6188   -3.7550   32.2029 C   0  0  0  0  0  0  0  0  0  0  0  0
   -4.9124   -2.4211   32.9444 C   0  0  0  0  0  0  0  0  0  0  0  0
   -4.8300   -2.5980   34.3661 O   0  0  0  0  0  0  0  0  0  0  0  0
   -5.5290   -3.2040   34.6576 H   0  0  0  0  0  0  0  0  0  0  0  0
   -6.2298   -1.7089   32.5383 C   0  0  0  0  0  0  0  0  0  0  0  0
   -7.0087   -2.1796   31.3932 N   0  0  0  0  0  0  0  0  0  0  0  0
   -6.6882   -1.6816   30.5627 H   0  0  0  0  0  0  0  0  0  0  0  0
   -8.4469   -1.9767   31.5203 C   0  0  0  0  0  0  0  0  0  0  0  0
   -9.9916    0.7291   29.3153 C   0  0  0  0  0  0  0  0  0  0  0  0
   -9.5791    1.8839   29.9838 C   0  0  0  0  0  0  0  0  0  0  0  0
   -8.8113    1.7984   31.1454 C   0  0  0  0  0  0  0  0  0  0  0  0
   -8.4457    0.5498   31.6451 C   0  0  0  0  0  0  0  0  0  0  0  0
   -8.8411   -0.6207   30.9828 C   0  0  0  0  0  0  0  0  0  0  0  0
   -9.6257   -0.5203   29.8204 C   0  0  0  0  0  0  0  0  0  0  0  0
  -10.2877    0.3531   26.9879 C   0  0  0  0  0  0  0  0  0  0  0  0
  -10.7413    0.9555   28.1932 O   0  0  0  0  0  0  0  0  0  0  0  0
   -4.7829   -5.0124   33.0873 C   0  0  0  0  0  0  0  0  0  0  0  0
   -3.8980   -6.1707   32.6655 C   0  0  0  0  0  0  0  0  0  0  0  0
   -2.8822   -6.6327   33.5158 C   0  0  0  0  0  0  0  0  0  0  0  0
   -2.0660   -7.6991   33.1295 C   0  0  0  0  0  0  0  0  0  0  0  0
   -2.2621   -8.3089   31.8922 C   0  0  0  0  0  0  0  0  0  0  0  0
   -1.2512   -9.6199   31.4170 Cl  0  0  0  0  0  0  0  0  0  0  0  0
   -3.2675   -7.8635   31.0374 C   0  0  0  0  0  0  0  0  0  0  0  0
   -4.0862   -6.7997   31.4247 C   0  0  0  0  0  0  0  0  0  0  0  0
 43 44  1  0
 44 37  1  0
 37 38  2  0
 38 39  1  0
 39 40  2  0
 40 41  1  0
 41 36  1  0
 36 34  1  0
 34 33  1  0
 33 30  1  0
 30 31  1  0
 30 29  1  0
 29 45  1  0
 45 46  1  0
 46 47  2  0
 47 48  1  0
 48 49  2  0
 49 50  1  0
 49 51  1  0
 51 52  2  0
 29  1  1  0
  1  2  1  0
  2  3  2  0
  2  5  1  0
  5  6  2  0
  6  7  1  0
  7 11  1  0
 11 12  2  0
 11 13  1  0
 13 15  1  0
 15 16  1  0
 15 17  1  0
 17 18  2  0
 18 19  1  0
 19 20  2  0
 20 21  1  0
 21 22  2  0
  7  8  2  0
  8  9  1  0
  9 23  1  0
 23 24  1  0
 23 25  1  0
 25 26  1  0
 25 27  2  0
 25 28  2  0
  9 10  2  0
 41 42  2  0
 42 37  1  0
 52 46  1  0
 10  5  1  0
 22 17  1  0
 34 35  1  0
 31 32  1  0
  1  4  1  0
 13 14  1  0
M  END
> <minimizedAffinity>
-8.73493

> <CNNscore>
0.3215808272

> <CNNaffinity>
7.2145667076

> <CNN_VS>
2.3200662136

> <CNNaffinity_variance>
0.3993632495

$$$$



 52 55  0  0  0  0  0  0  0  0999 V2000
    1.2335   -5.3318   31.3140 N   0  0  0  0  0  0  0  0  0  0  0  0
    1.3181   -4.7283   30.0836 C   0  0  0  0  0  0  0  0  0  0  0  0
    2.2595   -4.8683   29.3150 O   0  0  0  0  0  0  0  0  0  0  0  0
    0.4445   -5.1566   31.8762 H   0  0  0  0  0  0  0  0  0  0  0  0
    0.1797   -3.8523   29.7187 C   0  0  0  0  0  0  0  0  0  0  0  0
   -1.0347   -4.0122   30.3906 C   0  0  0  0  0  0  0  0  0  0  0  0
   -2.1271   -3.2104   30.0458 C   0  0  0  0  0  0  0  0  0  0  0  0
   -2.0092   -2.2633   29.0204 C   0  0  0  0  0  0  0  0  0  0  0  0
   -0.7926   -2.1107   28.3543 C   0  0  0  0  0  0  0  0  0  0  0  0
    0.3114   -2.8815   28.7204 C   0  0  0  0  0  0  0  0  0  0  0  0
   -3.4140   -3.4216   30.7551 C   0  0  0  0  0  0  0  0  0  0  0  0
   -4.3189   -4.0411   30.2115 O   0  0  0  0  0  0  0  0  0  0  0  0
   -3.4883   -2.9041   32.0280 N   0  0  0  0  0  0  0  0  0  0  0  0
   -2.7379   -2.3691   32.3742 H   0  0  0  0  0  0  0  0  0  0  0  0
   -4.6515   -3.1296   32.8747 C   0  0  0  0  0  0  0  0  0  0  0  0
   -5.0242   -4.6157   32.9360 C   0  0  0  0  0  0  0  0  0  0  0  0
   -5.7963   -2.2623   32.3797 C   0  0  0  0  0  0  0  0  0  0  0  0
   -7.1378   -2.6534   32.5257 C   0  0  0  0  0  0  0  0  0  0  0  0
   -8.1706   -1.8569   32.0266 C   0  0  0  0  0  0  0  0  0  0  0  0
   -7.8785   -0.6639   31.3688 C   0  0  0  0  0  0  0  0  0  0  0  0
   -6.5521   -0.2649   31.2111 C   0  0  0  0  0  0  0  0  0  0  0  0
   -5.5178   -1.0600   31.7092 C   0  0  0  0  0  0  0  0  0  0  0  0
   -0.7242   -1.1288   27.3031 N   0  0  0  0  0  0  0  0  0  0  0  0
    0.4614   -0.2379   27.3620 C   0  0  0  0  0  0  0  0  0  0  0  0
   -1.0556   -1.7113   25.7184 S   0  0  0  0  0  0  0  0  0  0  0  0
   -1.1206   -0.1916   24.7924 C   0  0  0  0  0  0  0  0  0  0  0  0
    0.1105   -2.4430   25.2686 O   0  0  0  0  0  0  0  0  0  0  0  0
   -2.3666   -2.3279   25.7015 O   0  0  0  0  0  0  0  0  0  0  0  0
    2.2838   -6.2330   31.8219 C   0  0  0  0  0  0  0  0  0  0  0  0
    3.1957   -6.6750   30.6436 C   0  0  0  0  0  0  0  0  0  0  0  0
    4.3972   -5.8913   30.6056 O   0  0  0  0  0  0  0  0  0  0  0  0
    4.1743   -4.9667   30.4147 H   0  0  0  0  0  0  0  0  0  0  0  0
    2.5094   -6.7264   29.2529 C   0  0  0  0  0  0  0  0  0  0  0  0
    2.6806   -7.8875   28.3801 N   0  0  0  0  0  0  0  0  0  0  0  0
    2.7551   -8.7191   28.9660 H   0  0  0  0  0  0  0  0  0  0  0  0
    3.8580   -7.8265   27.5225 C   0  0  0  0  0  0  0  0  0  0  0  0
    6.1476  -10.8506   27.0955 C   0  0  0  0  0  0  0  0  0  0  0  0
    5.2525  -11.7907   26.5804 C   0  0  0  0  0  0  0  0  0  0  0  0
    3.9128  -11.4604   26.3750 C   0  0  0  0  0  0  0  0  0  0  0  0
    3.4594  -10.1786   26.6811 C   0  0  0  0  0  0  0  0  0  0  0  0
    4.3445   -9.2177   27.1894 C   0  0  0  0  0  0  0  0  0  0  0  0
    5.6893   -9.5681   27.4037 C   0  0  0  0  0  0  0  0  0  0  0  0
    7.6935  -12.6328   26.8128 C   0  0  0  0  0  0  0  0  0  0  0  0
    7.4286  -11.3063   27.2504 O   0  0  0  0  0  0  0  0  0  0  0  0
    1.6218   -7.4088   32.5766 C   0  0  0  0  0  0  0  0  0  0  0  0
    0.1174   -7.4787   32.3913 C   0  0  0  0  0  0  0  0  0  0  0  0
   -0.4273   -7.9529   31.1884 C   0  0  0  0  0  0  0  0  0  0  0  0
   -1.8124   -8.0180   31.0154 C   0  0  0  0  0  0  0  0  0  0  0  0
   -2.6590   -7.6105   32.0441 C   0  0  0  0  0  0  0  0  0  0  0  0
   -4.3657   -7.6876   31.8259 Cl  0  0  0  0  0  0  0  0  0  0  0  0
   -2.1343   -7.1394   33.2452 C   0  0  0  0  0  0  0  0  0  0  0  0
   -0.7495   -7.0774   33.4200 C   0  0  0  0  0  0  0  0  0  0  0  0
 43 44  1  0
 44 37  1  0
 37 38  2  0
 38 39  1  0
 39 40  2  0
 40 41  1  0
 41 36  1  0
 36 34  1  0
 34 33  1  0
 33 30  1  0
 30 31  1  0
 30 29  1  0
 29 45  1  0
 45 46  1  0
 46 47  2  0
 47 48  1  0
 48 49  2  0
 49 50  1  0
 49 51  1  0
 51 52  2  0
 29  1  1  0
  1  2  1  0
  2  3  2  0
  2  5  1  0
  5  6  2  0
  6  7  1  0
  7 11  1  0
 11 12  2  0
 11 13  1  0
 13 15  1  0
 15 16  1  0
 15 17  1  0
 17 18  2  0
 18 19  1  0
 19 20  2  0
 20 21  1  0
 21 22  2  0
  7  8  2  0
  8  9  1  0
  9 23  1  0
 23 24  1  0
 23 25  1  0
 25 26  1  0
 25 27  2  0
 25 28  2  0
  9 10  2  0
 41 42  2  0
 42 37  1  0
 52 46  1  0
 10  5  1  0
 22 17  1  0
 34 35  1  0
 31 32  1  0
  1  4  1  0
 13 14  1  0
M  END
> <minimizedAffinity>
-8.98059

> <CNNscore>
0.3144546151

> <CNNaffinity>
6.7885570526

> <CNN_VS>
2.1346931458

> <CNNaffinity_variance>
1.5158749819

$$$$



 52 55  0  0  0  0  0  0  0  0999 V2000
    0.8254   -5.1668   31.0277 N   0  0  0  0  0  0  0  0  0  0  0  0
    0.8960   -4.4866   29.8371 C   0  0  0  0  0  0  0  0  0  0  0  0
    1.8604   -4.5197   29.0851 O   0  0  0  0  0  0  0  0  0  0  0  0
    0.0151   -5.0767   31.5795 H   0  0  0  0  0  0  0  0  0  0  0  0
   -0.2895   -3.6652   29.4959 C   0  0  0  0  0  0  0  0  0  0  0  0
   -1.4464   -3.8004   30.2674 C   0  0  0  0  0  0  0  0  0  0  0  0
   -2.5826   -3.0504   29.9482 C   0  0  0  0  0  0  0  0  0  0  0  0
   -2.5662   -2.1806   28.8503 C   0  0  0  0  0  0  0  0  0  0  0  0
   -1.4065   -2.0522   28.0850 C   0  0  0  0  0  0  0  0  0  0  0  0
   -0.2580   -2.7694   28.4222 C   0  0  0  0  0  0  0  0  0  0  0  0
   -3.8075   -3.2356   30.7661 C   0  0  0  0  0  0  0  0  0  0  0  0
   -4.7647   -3.8449   30.3070 O   0  0  0  0  0  0  0  0  0  0  0  0
   -3.7656   -2.7069   32.0359 N   0  0  0  0  0  0  0  0  0  0  0  0
   -2.9804   -2.1812   32.3122 H   0  0  0  0  0  0  0  0  0  0  0  0
   -4.8558   -2.9072   32.9803 C   0  0  0  0  0  0  0  0  0  0  0  0
   -5.1857   -4.3946   33.1528 C   0  0  0  0  0  0  0  0  0  0  0  0
   -6.0559   -2.0936   32.5266 C   0  0  0  0  0  0  0  0  0  0  0  0
   -5.9089   -0.8962   31.8066 C   0  0  0  0  0  0  0  0  0  0  0  0
   -7.0267   -0.1460   31.4354 C   0  0  0  0  0  0  0  0  0  0  0  0
   -8.3052   -0.5765   31.7841 C   0  0  0  0  0  0  0  0  0  0  0  0
   -8.4672   -1.7597   32.5033 C   0  0  0  0  0  0  0  0  0  0  0  0
   -7.3506   -2.5112   32.8756 C   0  0  0  0  0  0  0  0  0  0  0  0
   -1.4422   -1.1506   26.9626 N   0  0  0  0  0  0  0  0  0  0  0  0
   -0.3607   -0.1343   26.9480 C   0  0  0  0  0  0  0  0  0  0  0  0
   -1.7038   -1.8834   25.4280 S   0  0  0  0  0  0  0  0  0  0  0  0
   -1.9547   -0.4546   24.3951 C   0  0  0  0  0  0  0  0  0  0  0  0
   -0.4584   -2.4997   25.0196 O   0  0  0  0  0  0  0  0  0  0  0  0
   -2.9302   -2.6536   25.4701 O   0  0  0  0  0  0  0  0  0  0  0  0
    1.9217   -6.0276   31.5079 C   0  0  0  0  0  0  0  0  0  0  0  0
    2.9873   -6.1762   30.3865 C   0  0  0  0  0  0  0  0  0  0  0  0
    2.6006   -7.1880   29.4450 O   0  0  0  0  0  0  0  0  0  0  0  0
    2.5824   -8.0511   29.8872 H   0  0  0  0  0  0  0  0  0  0  0  0
    4.4448   -6.3860   30.8757 C   0  0  0  0  0  0  0  0  0  0  0  0
    5.5410   -5.6003   30.3098 N   0  0  0  0  0  0  0  0  0  0  0  0
    5.3811   -4.6189   30.5374 H   0  0  0  0  0  0  0  0  0  0  0  0
    5.6793   -5.7164   28.8630 C   0  0  0  0  0  0  0  0  0  0  0  0
    6.3533   -2.4897   26.9386 C   0  0  0  0  0  0  0  0  0  0  0  0
    7.6951   -2.2669   27.2553 C   0  0  0  0  0  0  0  0  0  0  0  0
    8.3849   -3.1456   28.0909 C   0  0  0  0  0  0  0  0  0  0  0  0
    7.7336   -4.2613   28.6137 C   0  0  0  0  0  0  0  0  0  0  0  0
    6.3899   -4.5080   28.2992 C   0  0  0  0  0  0  0  0  0  0  0  0
    5.7031   -3.6071   27.4663 C   0  0  0  0  0  0  0  0  0  0  0  0
    4.7190   -1.9778   25.2915 C   0  0  0  0  0  0  0  0  0  0  0  0
    5.7975   -1.5503   26.1132 O   0  0  0  0  0  0  0  0  0  0  0  0
    1.3344   -7.3720   31.9959 C   0  0  0  0  0  0  0  0  0  0  0  0
   -0.1819   -7.3877   32.0502 C   0  0  0  0  0  0  0  0  0  0  0  0
   -0.9277   -7.7600   30.9216 C   0  0  0  0  0  0  0  0  0  0  0  0
   -2.3242   -7.7751   30.9693 C   0  0  0  0  0  0  0  0  0  0  0  0
   -2.9813   -7.4192   32.1452 C   0  0  0  0  0  0  0  0  0  0  0  0
   -4.7026   -7.4344   32.1991 Cl  0  0  0  0  0  0  0  0  0  0  0  0
   -2.2555   -7.0494   33.2750 C   0  0  0  0  0  0  0  0  0  0  0  0
   -0.8592   -7.0376   33.2290 C   0  0  0  0  0  0  0  0  0  0  0  0
 43 44  1  0
 44 37  1  0
 37 38  2  0
 38 39  1  0
 39 40  2  0
 40 41  1  0
 41 36  1  0
 36 34  1  0
 34 33  1  0
 33 30  1  0
 30 31  1  0
 30 29  1  0
 29 45  1  0
 45 46  1  0
 46 47  2  0
 47 48  1  0
 48 49  2  0
 49 50  1  0
 49 51  1  0
 51 52  2  0
 29  1  1  0
  1  2  1  0
  2  3  2  0
  2  5  1  0
  5  6  2  0
  6  7  1  0
  7 11  1  0
 11 12  2  0
 11 13  1  0
 13 15  1  0
 15 16  1  0
 15 17  1  0
 17 18  2  0
 18 19  1  0
 19 20  2  0
 20 21  1  0
 21 22  2  0
  7  8  2  0
  8  9  1  0
  9 23  1  0
 23 24  1  0
 23 25  1  0
 25 26  1  0
 25 27  2  0
 25 28  2  0
  9 10  2  0
 41 42  2  0
 42 37  1  0
 52 46  1  0
 10  5  1  0
 22 17  1  0
 34 35  1  0
 31 32  1  0
  1  4  1  0
 13 14  1  0
M  END
> <minimizedAffinity>
-9.04839

> <CNNscore>
0.2331000865

> <CNNaffinity>
6.7956089973

> <CNN_VS>
1.5840570927

> <CNNaffinity_variance>
1.5198167562

$$$$



 52 55  0  0  0  0  0  0  0  0999 V2000
    0.3558   -5.8671   30.3708 N   0  0  0  0  0  0  0  0  0  0  0  0
    0.4738   -4.5242   30.6313 C   0  0  0  0  0  0  0  0  0  0  0  0
    1.2870   -4.0461   31.4103 O   0  0  0  0  0  0  0  0  0  0  0  0
   -0.3341   -6.1696   29.7369 H   0  0  0  0  0  0  0  0  0  0  0  0
   -0.4756   -3.6444   29.9094 C   0  0  0  0  0  0  0  0  0  0  0  0
   -1.7879   -3.5427   30.3778 C   0  0  0  0  0  0  0  0  0  0  0  0
   -2.7047   -2.7351   29.6978 C   0  0  0  0  0  0  0  0  0  0  0  0
   -2.3138   -2.0448   28.5432 C   0  0  0  0  0  0  0  0  0  0  0  0
   -1.0012   -2.1526   28.0823 C   0  0  0  0  0  0  0  0  0  0  0  0
   -0.0722   -2.9266   28.7787 C   0  0  0  0  0  0  0  0  0  0  0  0
   -4.1002   -2.6685   30.1997 C   0  0  0  0  0  0  0  0  0  0  0  0
   -4.9267   -3.4891   29.8232 O   0  0  0  0  0  0  0  0  0  0  0  0
   -4.3650   -1.6640   31.1021 N   0  0  0  0  0  0  0  0  0  0  0  0
   -3.6611   -1.0085   31.3123 H   0  0  0  0  0  0  0  0  0  0  0  0
   -5.6623   -1.5482   31.7534 C   0  0  0  0  0  0  0  0  0  0  0  0
   -6.5828   -2.7187   31.3877 C   0  0  0  0  0  0  0  0  0  0  0  0
   -6.2692   -0.1997   31.4056 C   0  0  0  0  0  0  0  0  0  0  0  0
   -5.5089    0.8244   30.8166 C   0  0  0  0  0  0  0  0  0  0  0  0
   -6.0803    2.0689   30.5430 C   0  0  0  0  0  0  0  0  0  0  0  0
   -7.4153    2.3105   30.8602 C   0  0  0  0  0  0  0  0  0  0  0  0
   -8.1814    1.3062   31.4501 C   0  0  0  0  0  0  0  0  0  0  0  0
   -7.6119    0.0611   31.7247 C   0  0  0  0  0  0  0  0  0  0  0  0
   -0.6504   -1.4294   26.8874 N   0  0  0  0  0  0  0  0  0  0  0  0
   -1.7390   -0.5901   26.3276 C   0  0  0  0  0  0  0  0  0  0  0  0
    0.8722   -0.6288   26.9225 S   0  0  0  0  0  0  0  0  0  0  0  0
    1.9480   -1.8923   26.2764 C   0  0  0  0  0  0  0  0  0  0  0  0
    0.8263    0.4411   25.9474 O   0  0  0  0  0  0  0  0  0  0  0  0
    1.2376   -0.3592   28.2983 O   0  0  0  0  0  0  0  0  0  0  0  0
    1.2269   -6.8714   31.0079 C   0  0  0  0  0  0  0  0  0  0  0  0
    0.8256   -7.0263   32.5013 C   0  0  0  0  0  0  0  0  0  0  0  0
   -0.4235   -6.3712   32.7654 O   0  0  0  0  0  0  0  0  0  0  0  0
   -0.3219   -5.4157   32.6327 H   0  0  0  0  0  0  0  0  0  0  0  0
    1.9110   -6.6107   33.5294 C   0  0  0  0  0  0  0  0  0  0  0  0
    1.6829   -5.4903   34.4416 N   0  0  0  0  0  0  0  0  0  0  0  0
    0.6764   -5.3512   34.5311 H   0  0  0  0  0  0  0  0  0  0  0  0
    2.2808   -4.2325   34.0101 C   0  0  0  0  0  0  0  0  0  0  0  0
    5.9870   -4.6681   33.2076 C   0  0  0  0  0  0  0  0  0  0  0  0
    6.5638   -4.3610   34.4419 C   0  0  0  0  0  0  0  0  0  0  0  0
    5.7678   -4.0075   35.5317 C   0  0  0  0  0  0  0  0  0  0  0  0
    4.3818   -3.9635   35.3932 C   0  0  0  0  0  0  0  0  0  0  0  0
    3.7831   -4.2783   34.1653 C   0  0  0  0  0  0  0  0  0  0  0  0
    4.5981   -4.6203   33.0717 C   0  0  0  0  0  0  0  0  0  0  0  0
    6.3532   -5.6142   31.0590 C   0  0  0  0  0  0  0  0  0  0  0  0
    6.8811   -4.9943   32.2244 O   0  0  0  0  0  0  0  0  0  0  0  0
    2.7045   -6.4695   30.7949 C   0  0  0  0  0  0  0  0  0  0  0  0
    3.1767   -6.6306   29.3618 C   0  0  0  0  0  0  0  0  0  0  0  0
    3.6744   -7.8635   28.9140 C   0  0  0  0  0  0  0  0  0  0  0  0
    4.1098   -8.0141   27.5947 C   0  0  0  0  0  0  0  0  0  0  0  0
    4.0488   -6.9337   26.7173 C   0  0  0  0  0  0  0  0  0  0  0  0
    4.5907   -7.1215   25.0933 Cl  0  0  0  0  0  0  0  0  0  0  0  0
    3.5553   -5.7037   27.1456 C   0  0  0  0  0  0  0  0  0  0  0  0
    3.1164   -5.5535   28.4635 C   0  0  0  0  0  0  0  0  0  0  0  0
 43 44  1  0
 44 37  1  0
 37 38  2  0
 38 39  1  0
 39 40  2  0
 40 41  1  0
 41 36  1  0
 36 34  1  0
 34 33  1  0
 33 30  1  0
 30 31  1  0
 30 29  1  0
 29 45  1  0
 45 46  1  0
 46 47  2  0
 47 48  1  0
 48 49  2  0
 49 50  1  0
 49 51  1  0
 51 52  2  0
 29  1  1  0
  1  2  1  0
  2  3  2  0
  2  5  1  0
  5  6  2  0
  6  7  1  0
  7 11  1  0
 11 12  2  0
 11 13  1  0
 13 15  1  0
 15 16  1  0
 15 17  1  0
 17 18  2  0
 18 19  1  0
 19 20  2  0
 20 21  1  0
 21 22  2  0
  7  8  2  0
  8  9  1  0
  9 23  1  0
 23 24  1  0
 23 25  1  0
 25 26  1  0
 25 27  2  0
 25 28  2  0
  9 10  2  0
 41 42  2  0
 42 37  1  0
 52 46  1  0
 10  5  1  0
 22 17  1  0
 34 35  1  0
 31 32  1  0
  1  4  1  0
 13 14  1  0
M  END
> <minimizedAffinity>
-9.50911

> <CNNscore>
0.1909558475

> <CNNaffinity>
6.6860980988

> <CNN_VS>
1.2767494917

> <CNNaffinity_variance>
1.0994694233

$$$$



 52 55  0  0  0  0  0  0  0  0999 V2000
    2.6545   -5.8053   29.7023 N   0  0  0  0  0  0  0  0  0  0  0  0
    3.6475   -6.5707   29.1428 C   0  0  0  0  0  0  0  0  0  0  0  0
    3.6925   -7.7914   29.2110 O   0  0  0  0  0  0  0  0  0  0  0  0
    2.6998   -4.8261   29.6100 H   0  0  0  0  0  0  0  0  0  0  0  0
    4.7139   -5.8222   28.4364 C   0  0  0  0  0  0  0  0  0  0  0  0
    4.4489   -5.3153   27.1617 C   0  0  0  0  0  0  0  0  0  0  0  0
    5.4490   -4.6252   26.4697 C   0  0  0  0  0  0  0  0  0  0  0  0
    6.7153   -4.4577   27.0447 C   0  0  0  0  0  0  0  0  0  0  0  0
    6.9713   -4.9677   28.3181 C   0  0  0  0  0  0  0  0  0  0  0  0
    5.9653   -5.6236   29.0286 C   0  0  0  0  0  0  0  0  0  0  0  0
    5.1500   -4.1232   25.1051 C   0  0  0  0  0  0  0  0  0  0  0  0
    3.9925   -3.9049   24.7723 O   0  0  0  0  0  0  0  0  0  0  0  0
    6.2402   -3.9119   24.2923 N   0  0  0  0  0  0  0  0  0  0  0  0
    7.1357   -4.1650   24.6135 H   0  0  0  0  0  0  0  0  0  0  0  0
    6.0996   -3.3225   22.9682 C   0  0  0  0  0  0  0  0  0  0  0  0
    4.7912   -2.5336   22.8385 C   0  0  0  0  0  0  0  0  0  0  0  0
    6.2234   -4.4200   21.9250 C   0  0  0  0  0  0  0  0  0  0  0  0
    6.8159   -4.1872   20.6726 C   0  0  0  0  0  0  0  0  0  0  0  0
    6.8819   -5.2023   19.7158 C   0  0  0  0  0  0  0  0  0  0  0  0
    6.3509   -6.4603   19.9931 C   0  0  0  0  0  0  0  0  0  0  0  0
    5.7547   -6.7052   21.2292 C   0  0  0  0  0  0  0  0  0  0  0  0
    5.6876   -5.6915   22.1872 C   0  0  0  0  0  0  0  0  0  0  0  0
    8.2906   -4.7757   28.8626 N   0  0  0  0  0  0  0  0  0  0  0  0
    8.7606   -3.3679   28.8694 C   0  0  0  0  0  0  0  0  0  0  0  0
    8.6157   -5.6054   30.3345 S   0  0  0  0  0  0  0  0  0  0  0  0
    7.1698   -5.2011   31.2921 C   0  0  0  0  0  0  0  0  0  0  0  0
    8.5673   -7.0259   30.0557 O   0  0  0  0  0  0  0  0  0  0  0  0
    9.7781   -5.0160   30.9674 O   0  0  0  0  0  0  0  0  0  0  0  0
    1.5227   -6.3996   30.4367 C   0  0  0  0  0  0  0  0  0  0  0  0
    0.4451   -5.3088   30.6903 C   0  0  0  0  0  0  0  0  0  0  0  0
    1.0159   -4.1706   31.3520 O   0  0  0  0  0  0  0  0  0  0  0  0
    1.3208   -4.4296   32.2357 H   0  0  0  0  0  0  0  0  0  0  0  0
   -0.8400   -5.7964   31.4104 C   0  0  0  0  0  0  0  0  0  0  0  0
   -2.1622   -5.4217   30.9098 N   0  0  0  0  0  0  0  0  0  0  0  0
   -2.2008   -4.4048   30.8400 H   0  0  0  0  0  0  0  0  0  0  0  0
   -3.2700   -5.8639   31.7483 C   0  0  0  0  0  0  0  0  0  0  0  0
   -5.2101   -2.5838   31.5329 C   0  0  0  0  0  0  0  0  0  0  0  0
   -5.7854   -2.5315   32.8044 C   0  0  0  0  0  0  0  0  0  0  0  0
   -5.5587   -3.5496   33.7309 C   0  0  0  0  0  0  0  0  0  0  0  0
   -4.7466   -4.6297   33.3901 C   0  0  0  0  0  0  0  0  0  0  0  0
   -4.1516   -4.6953   32.1225 C   0  0  0  0  0  0  0  0  0  0  0  0
   -4.3991   -3.6688   31.1939 C   0  0  0  0  0  0  0  0  0  0  0  0
   -6.1189   -0.3964   31.3449 C   0  0  0  0  0  0  0  0  0  0  0  0
   -5.5167   -1.5242   30.7231 O   0  0  0  0  0  0  0  0  0  0  0  0
    2.0506   -7.0699   31.7260 C   0  0  0  0  0  0  0  0  0  0  0  0
    2.4961   -6.0798   32.7861 C   0  0  0  0  0  0  0  0  0  0  0  0
    1.6793   -5.8138   33.8954 C   0  0  0  0  0  0  0  0  0  0  0  0
    2.0874   -4.9023   34.8728 C   0  0  0  0  0  0  0  0  0  0  0  0
    3.3139   -4.2536   34.7463 C   0  0  0  0  0  0  0  0  0  0  0  0
    3.8117   -3.1272   35.9503 Cl  0  0  0  0  0  0  0  0  0  0  0  0
    4.1374   -4.5082   33.6522 C   0  0  0  0  0  0  0  0  0  0  0  0
    3.7315   -5.4221   32.6766 C   0  0  0  0  0  0  0  0  0  0  0  0
 43 44  1  0
 44 37  1  0
 37 38  2  0
 38 39  1  0
 39 40  2  0
 40 41  1  0
 41 36  1  0
 36 34  1  0
 34 33  1  0
 33 30  1  0
 30 31  1  0
 30 29  1  0
 29 45  1  0
 45 46  1  0
 46 47  2  0
 47 48  1  0
 48 49  2  0
 49 50  1  0
 49 51  1  0
 51 52  2  0
 29  1  1  0
  1  2  1  0
  2  3  2  0
  2  5  1  0
  5  6  2  0
  6  7  1  0
  7 11  1  0
 11 12  2  0
 11 13  1  0
 13 15  1  0
 15 16  1  0
 15 17  1  0
 17 18  2  0
 18 19  1  0
 19 20  2  0
 20 21  1  0
 21 22  2  0
  7  8  2  0
  8  9  1  0
  9 23  1  0
 23 24  1  0
 23 25  1  0
 25 26  1  0
 25 27  2  0
 25 28  2  0
  9 10  2  0
 41 42  2  0
 42 37  1  0
 52 46  1  0
 10  5  1  0
 22 17  1  0
 34 35  1  0
 31 32  1  0
  1  4  1  0
 13 14  1  0
M  END
> <minimizedAffinity>
-7.99621

> <CNNscore>
0.1692831665

> <CNNaffinity>
6.2883071899

> <CNN_VS>
1.0645045042

> <CNNaffinity_variance>
1.3435007334

$$$$
