


 37 41  0  0  0  0  0  0  0  0999 V2000
   24.6878   28.9117   17.9884 C   0  0  0  0  0  0  0  0  0  0  0  0
   23.6830   29.6656   18.5682 C   0  0  0  0  0  0  0  0  0  0  0  0
   23.6149   29.7251   19.9494 C   0  0  0  0  0  0  0  0  0  0  0  0
   24.5092   29.0676   20.6994 N   0  0  0  0  0  0  0  0  0  0  0  0
   25.4282   28.3287   20.0659 C   0  0  0  0  0  0  0  0  0  0  0  0
   25.5505   28.2084   18.7371 N   0  0  0  0  0  0  0  0  0  0  0  0
   22.6503   30.5095   20.5777 N   0  0  0  0  0  0  0  0  0  0  0  0
   22.7914   31.9769   20.5130 C   0  0  0  0  0  0  0  0  0  0  0  0
   21.4369   32.6910   20.2839 C   0  0  0  0  0  0  0  0  0  0  0  0
   20.3219   32.2810   21.1586 N   0  0  0  0  0  0  0  0  0  0  0  0
   20.2501   33.0934   22.3698 C   0  0  0  0  0  0  0  0  0  0  0  0
   20.3927   30.8407   21.4984 C   0  0  0  0  0  0  0  0  0  0  0  0
   21.2693   29.9979   20.5450 C   0  0  0  0  0  0  0  0  0  0  0  0
   24.7428   28.8414   16.5737 N   0  0  0  0  0  0  0  0  0  0  0  0
   23.9662   29.1870   16.0770 H   0  0  0  0  0  0  0  0  0  0  0  0
   29.0199   26.9637   14.8456 C   0  0  0  0  0  0  0  0  0  0  0  0
   27.6512   27.5063   15.0141 C   0  0  0  0  0  0  0  0  0  0  0  0
   27.0291   27.9304   16.2151 C   0  0  0  0  0  0  0  0  0  0  0  0
   25.7702   28.3403   15.8434 C   0  0  0  0  0  0  0  0  0  0  0  0
   25.7113   28.1496   14.4866 N   0  0  0  0  0  0  0  0  0  0  0  0
   26.8369   27.6352   13.9580 N   0  0  0  0  0  0  0  0  0  0  0  0
   24.9171   28.3692   13.9479 H   0  0  0  0  0  0  0  0  0  0  0  0
   26.5848   27.4237   21.0642 S   0  0  0  0  0  0  0  0  0  0  0  0
   27.3548   26.4353   19.8000 C   0  0  0  0  0  0  0  0  0  0  0  0
   28.5916   26.8200   19.2701 C   0  0  0  0  0  0  0  0  0  0  0  0
   29.2216   26.0489   18.2834 C   0  0  0  0  0  0  0  0  0  0  0  0
   28.6211   24.8800   17.8208 C   0  0  0  0  0  0  0  0  0  0  0  0
   27.3856   24.5056   18.3635 C   0  0  0  0  0  0  0  0  0  0  0  0
   26.7927   23.3816   17.9302 F   0  0  0  0  0  0  0  0  0  0  0  0
   26.7517   25.2635   19.3442 C   0  0  0  0  0  0  0  0  0  0  0  0
   29.1744   24.0364   16.8356 N   0  0  0  0  0  0  0  0  0  0  0  0
   30.3777   23.3784   16.8734 C   0  0  0  0  0  0  0  0  0  0  0  0
   31.2022   23.3760   17.7760 O   0  0  0  0  0  0  0  0  0  0  0  0
   28.6328   23.9038   16.0242 H   0  0  0  0  0  0  0  0  0  0  0  0
   30.6284   22.5541   15.6588 C   0  0  0  0  0  0  0  0  0  0  0  0
   32.0509   22.2744   15.2287 C   0  0  0  0  0  0  0  0  0  0  0  0
   31.1792   23.1616   14.3891 C   0  0  0  0  0  0  0  0  0  0  0  0
 16 17  1  0
 17 18  1  0
 18 19  2  0
 19 14  1  0
 14  1  1  0
  1  2  2  0
  2  3  1  0
  3  7  1  0
  7  8  1  0
  8  9  1  0
  9 10  1  0
 10 11  1  0
 10 12  1  0
 12 13  1  0
  3  4  2  0
  4  5  1  0
  5 23  1  0
 23 24  1  0
 24 25  2  0
 25 26  1  0
 26 27  2  0
 27 31  1  0
 31 32  1  0
 32 33  2  0
 32 35  1  0
 35 36  1  0
 36 37  1  0
 27 28  1  0
 28 29  1  0
 28 30  2  0
  5  6  2  0
 19 20  1  0
 20 21  1  0
 21 17  2  0
  6  1  1  0
 13  7  1  0
 30 24  1  0
 37 35  1  0
 14 15  1  0
 31 34  1  0
 20 22  1  0
M  END
> <minimizedAffinity>
-10.01153

> <CNNscore>
0.9861372113

> <CNNaffinity>
8.6908340454

> <CNN_VS>
8.5703544617

> <CNNaffinity_variance>
0.0177823994

$$$$



 37 41  0  0  0  0  0  0  0  0999 V2000
   24.3707   28.9712   18.9397 C   0  0  0  0  0  0  0  0  0  0  0  0
   23.2134   29.1924   19.6650 C   0  0  0  0  0  0  0  0  0  0  0  0
   23.1906   28.8279   21.0001 C   0  0  0  0  0  0  0  0  0  0  0  0
   24.2713   28.2779   21.5694 N   0  0  0  0  0  0  0  0  0  0  0  0
   25.3399   28.0604   20.7930 C   0  0  0  0  0  0  0  0  0  0  0  0
   25.4347   28.3705   19.4931 N   0  0  0  0  0  0  0  0  0  0  0  0
   22.0648   29.0748   21.7824 N   0  0  0  0  0  0  0  0  0  0  0  0
   20.9412   29.8154   21.1771 C   0  0  0  0  0  0  0  0  0  0  0  0
   19.5644   29.2340   21.5814 C   0  0  0  0  0  0  0  0  0  0  0  0
   19.3523   28.9873   23.0203 N   0  0  0  0  0  0  0  0  0  0  0  0
   18.7706   30.1451   23.6935 C   0  0  0  0  0  0  0  0  0  0  0  0
   20.6022   28.5639   23.6939 C   0  0  0  0  0  0  0  0  0  0  0  0
   21.6928   28.0218   22.7430 C   0  0  0  0  0  0  0  0  0  0  0  0
   24.3827   29.3317   17.5689 N   0  0  0  0  0  0  0  0  0  0  0  0
   23.7437   30.0234   17.2814 H   0  0  0  0  0  0  0  0  0  0  0  0
   28.0554   27.2825   14.9009 C   0  0  0  0  0  0  0  0  0  0  0  0
   26.7965   27.9033   15.3764 C   0  0  0  0  0  0  0  0  0  0  0  0
   26.4692   28.2948   16.6989 C   0  0  0  0  0  0  0  0  0  0  0  0
   25.1963   28.8085   16.6179 C   0  0  0  0  0  0  0  0  0  0  0  0
   24.8451   28.7037   15.2963 N   0  0  0  0  0  0  0  0  0  0  0  0
   25.7949   28.1487   14.5212 N   0  0  0  0  0  0  0  0  0  0  0  0
   23.9764   29.0072   14.9462 H   0  0  0  0  0  0  0  0  0  0  0  0
   26.7551   27.2911   21.5406 S   0  0  0  0  0  0  0  0  0  0  0  0
   27.4059   26.4319   20.1242 C   0  0  0  0  0  0  0  0  0  0  0  0
   28.5146   26.9479   19.4438 C   0  0  0  0  0  0  0  0  0  0  0  0
   29.0512   26.2801   18.3341 C   0  0  0  0  0  0  0  0  0  0  0  0
   28.4853   25.0843   17.8974 C   0  0  0  0  0  0  0  0  0  0  0  0
   27.3789   24.5782   18.5909 C   0  0  0  0  0  0  0  0  0  0  0  0
   26.8213   23.4264   18.1846 F   0  0  0  0  0  0  0  0  0  0  0  0
   26.8387   25.2327   19.6944 C   0  0  0  0  0  0  0  0  0  0  0  0
   28.9524   24.3376   16.7962 N   0  0  0  0  0  0  0  0  0  0  0  0
   30.0838   24.5576   16.0520 C   0  0  0  0  0  0  0  0  0  0  0  0
   30.9235   25.4326   16.2062 O   0  0  0  0  0  0  0  0  0  0  0  0
   28.4010   23.5668   16.5297 H   0  0  0  0  0  0  0  0  0  0  0  0
   30.2745   23.5506   14.9717 C   0  0  0  0  0  0  0  0  0  0  0  0
   31.2938   22.4483   15.1520 C   0  0  0  0  0  0  0  0  0  0  0  0
   31.5289   23.5209   14.1291 C   0  0  0  0  0  0  0  0  0  0  0  0
 16 17  1  0
 17 18  1  0
 18 19  2  0
 19 14  1  0
 14  1  1  0
  1  2  2  0
  2  3  1  0
  3  7  1  0
  7  8  1  0
  8  9  1  0
  9 10  1  0
 10 11  1  0
 10 12  1  0
 12 13  1  0
  3  4  2  0
  4  5  1  0
  5 23  1  0
 23 24  1  0
 24 25  2  0
 25 26  1  0
 26 27  2  0
 27 31  1  0
 31 32  1  0
 32 33  2  0
 32 35  1  0
 35 36  1  0
 36 37  1  0
 27 28  1  0
 28 29  1  0
 28 30  2  0
  5  6  2  0
 19 20  1  0
 20 21  1  0
 21 17  2  0
  6  1  1  0
 13  7  1  0
 30 24  1  0
 37 35  1  0
 14 15  1  0
 31 34  1  0
 20 22  1  0
M  END
> <minimizedAffinity>
-10.05395

> <CNNscore>
0.9273359776

> <CNNaffinity>
8.5855016708

> <CNN_VS>
7.9616446495

> <CNNaffinity_variance>
0.0190613437

$$$$



 37 41  0  0  0  0  0  0  0  0999 V2000
   23.8814   29.3565   18.5615 C   0  0  0  0  0  0  0  0  0  0  0  0
   22.9233   30.2570   18.9922 C   0  0  0  0  0  0  0  0  0  0  0  0
   22.6037   30.2880   20.3386 C   0  0  0  0  0  0  0  0  0  0  0  0
   23.2168   29.4636   21.1983 N   0  0  0  0  0  0  0  0  0  0  0  0
   24.1045   28.5944   20.7000 C   0  0  0  0  0  0  0  0  0  0  0  0
   24.4565   28.4926   19.4113 N   0  0  0  0  0  0  0  0  0  0  0  0
   21.6805   31.2101   20.8262 N   0  0  0  0  0  0  0  0  0  0  0  0
   21.7611   32.6024   20.3440 C   0  0  0  0  0  0  0  0  0  0  0  0
   20.3654   33.2159   20.0742 C   0  0  0  0  0  0  0  0  0  0  0  0
   19.3609   33.0585   21.1432 N   0  0  0  0  0  0  0  0  0  0  0  0
   19.3836   34.1755   22.0833 C   0  0  0  0  0  0  0  0  0  0  0  0
   19.5179   31.7702   21.8577 C   0  0  0  0  0  0  0  0  0  0  0  0
   20.3227   30.7009   21.0853 C   0  0  0  0  0  0  0  0  0  0  0  0
   24.1929   29.3182   17.1792 N   0  0  0  0  0  0  0  0  0  0  0  0
   23.6050   29.8240   16.5728 H   0  0  0  0  0  0  0  0  0  0  0  0
   27.8532   27.5464   14.3036 C   0  0  0  0  0  0  0  0  0  0  0  0
   26.8710   27.8121   15.3810 C   0  0  0  0  0  0  0  0  0  0  0  0
   25.8654   28.8107   15.4097 C   0  0  0  0  0  0  0  0  0  0  0  0
   25.2292   28.6467   16.6177 C   0  0  0  0  0  0  0  0  0  0  0  0
   25.8642   27.5927   17.2231 N   0  0  0  0  0  0  0  0  0  0  0  0
   26.8717   27.0727   16.4982 N   0  0  0  0  0  0  0  0  0  0  0  0
   25.6063   27.2476   18.1084 H   0  0  0  0  0  0  0  0  0  0  0  0
   24.8830   27.4735   21.8362 S   0  0  0  0  0  0  0  0  0  0  0  0
   26.2386   26.9215   20.8234 C   0  0  0  0  0  0  0  0  0  0  0  0
   26.2181   25.6363   20.2702 C   0  0  0  0  0  0  0  0  0  0  0  0
   27.2691   25.1865   19.4588 C   0  0  0  0  0  0  0  0  0  0  0  0
   28.3501   26.0226   19.1886 C   0  0  0  0  0  0  0  0  0  0  0  0
   28.3547   27.3075   19.7458 C   0  0  0  0  0  0  0  0  0  0  0  0
   29.3880   28.1272   19.4952 F   0  0  0  0  0  0  0  0  0  0  0  0
   27.3158   27.7644   20.5521 C   0  0  0  0  0  0  0  0  0  0  0  0
   29.4518   25.6653   18.3842 N   0  0  0  0  0  0  0  0  0  0  0  0
   29.4702   24.7930   17.3253 C   0  0  0  0  0  0  0  0  0  0  0  0
   28.5321   24.1660   16.8550 O   0  0  0  0  0  0  0  0  0  0  0  0
   30.3098   26.0925   18.6092 H   0  0  0  0  0  0  0  0  0  0  0  0
   30.8129   24.6743   16.6926 C   0  0  0  0  0  0  0  0  0  0  0  0
   31.4658   23.3150   16.5796 C   0  0  0  0  0  0  0  0  0  0  0  0
   32.0447   24.3453   17.5044 C   0  0  0  0  0  0  0  0  0  0  0  0
 16 17  1  0
 17 18  1  0
 18 19  2  0
 19 14  1  0
 14  1  1  0
  1  2  2  0
  2  3  1  0
  3  7  1  0
  7  8  1  0
  8  9  1  0
  9 10  1  0
 10 11  1  0
 10 12  1  0
 12 13  1  0
  3  4  2  0
  4  5  1  0
  5 23  1  0
 23 24  1  0
 24 25  2  0
 25 26  1  0
 26 27  2  0
 27 31  1  0
 31 32  1  0
 32 33  2  0
 32 35  1  0
 35 36  1  0
 36 37  1  0
 27 28  1  0
 28 29  1  0
 28 30  2  0
  5  6  2  0
 19 20  1  0
 20 21  1  0
 21 17  2  0
  6  1  1  0
 13  7  1  0
 30 24  1  0
 37 35  1  0
 14 15  1  0
 31 34  1  0
 20 22  1  0
M  END
> <minimizedAffinity>
-9.11399

> <CNNscore>
0.8212967515

> <CNNaffinity>
7.9397711754

> <CNN_VS>
6.5209083557

> <CNNaffinity_variance>
0.0001395704

$$$$



 37 41  0  0  0  0  0  0  0  0999 V2000
   24.7863   28.6805   18.6047 C   0  0  0  0  0  0  0  0  0  0  0  0
   23.7096   29.2858   19.2278 C   0  0  0  0  0  0  0  0  0  0  0  0
   23.4040   28.9158   20.5261 C   0  0  0  0  0  0  0  0  0  0  0  0
   24.1429   27.9944   21.1583 N   0  0  0  0  0  0  0  0  0  0  0  0
   25.1447   27.4262   20.4761 C   0  0  0  0  0  0  0  0  0  0  0  0
   25.4935   27.7184   19.2159 N   0  0  0  0  0  0  0  0  0  0  0  0
   22.3590   29.5320   21.2107 N   0  0  0  0  0  0  0  0  0  0  0  0
   22.6089   30.0111   22.5839 C   0  0  0  0  0  0  0  0  0  0  0  0
   21.9508   31.3853   22.8590 C   0  0  0  0  0  0  0  0  0  0  0  0
   20.5332   31.5235   22.4747 N   0  0  0  0  0  0  0  0  0  0  0  0
   19.6333   31.1649   23.5673 C   0  0  0  0  0  0  0  0  0  0  0  0
   20.2162   30.7405   21.2576 C   0  0  0  0  0  0  0  0  0  0  0  0
   21.4446   30.3568   20.4023 C   0  0  0  0  0  0  0  0  0  0  0  0
   25.0846   29.0518   17.2695 N   0  0  0  0  0  0  0  0  0  0  0  0
   24.5863   29.8131   16.8938 H   0  0  0  0  0  0  0  0  0  0  0  0
   28.9520   26.6610   15.2363 C   0  0  0  0  0  0  0  0  0  0  0  0
   27.6929   27.3969   15.4998 C   0  0  0  0  0  0  0  0  0  0  0  0
   27.1847   27.8237   16.7522 C   0  0  0  0  0  0  0  0  0  0  0  0
   25.9956   28.4512   16.4636 C   0  0  0  0  0  0  0  0  0  0  0  0
   25.8639   28.3719   15.1008 N   0  0  0  0  0  0  0  0  0  0  0  0
   26.8761   27.7283   14.4908 N   0  0  0  0  0  0  0  0  0  0  0  0
   25.0978   28.7517   14.6128 H   0  0  0  0  0  0  0  0  0  0  0  0
   26.0944   26.1739   21.3026 S   0  0  0  0  0  0  0  0  0  0  0  0
   25.3545   26.2617   22.9190 C   0  0  0  0  0  0  0  0  0  0  0  0
   24.1814   25.5481   23.1891 C   0  0  0  0  0  0  0  0  0  0  0  0
   23.5895   25.5928   24.4591 C   0  0  0  0  0  0  0  0  0  0  0  0
   24.1705   26.3494   25.4744 C   0  0  0  0  0  0  0  0  0  0  0  0
   25.3465   27.0548   25.1904 C   0  0  0  0  0  0  0  0  0  0  0  0
   25.9208   27.7885   26.1571 F   0  0  0  0  0  0  0  0  0  0  0  0
   25.9430   27.0167   23.9330 C   0  0  0  0  0  0  0  0  0  0  0  0
   23.6550   26.4563   26.7825 N   0  0  0  0  0  0  0  0  0  0  0  0
   23.9842   25.7000   27.8789 C   0  0  0  0  0  0  0  0  0  0  0  0
   24.8037   24.7954   27.9462 O   0  0  0  0  0  0  0  0  0  0  0  0
   22.9785   27.1570   26.9262 H   0  0  0  0  0  0  0  0  0  0  0  0
   23.2516   26.1091   29.1091 C   0  0  0  0  0  0  0  0  0  0  0  0
   23.9599   26.9374   30.1574 C   0  0  0  0  0  0  0  0  0  0  0  0
   23.5806   25.5175   30.4605 C   0  0  0  0  0  0  0  0  0  0  0  0
 16 17  1  0
 17 18  1  0
 18 19  2  0
 19 14  1  0
 14  1  1  0
  1  2  2  0
  2  3  1  0
  3  7  1  0
  7  8  1  0
  8  9  1  0
  9 10  1  0
 10 11  1  0
 10 12  1  0
 12 13  1  0
  3  4  2  0
  4  5  1  0
  5 23  1  0
 23 24  1  0
 24 25  2  0
 25 26  1  0
 26 27  2  0
 27 31  1  0
 31 32  1  0
 32 33  2  0
 32 35  1  0
 35 36  1  0
 36 37  1  0
 27 28  1  0
 28 29  1  0
 28 30  2  0
  5  6  2  0
 19 20  1  0
 20 21  1  0
 21 17  2  0
  6  1  1  0
 13  7  1  0
 30 24  1  0
 37 35  1  0
 14 15  1  0
 31 34  1  0
 20 22  1  0
M  END
> <minimizedAffinity>
-7.72507

> <CNNscore>
0.6728583574

> <CNNaffinity>
7.2550015450

> <CNN_VS>
4.8815884590

> <CNNaffinity_variance>
0.0097105727

$$$$



 37 41  0  0  0  0  0  0  0  0999 V2000
   24.8660   28.3713   18.2189 C   0  0  0  0  0  0  0  0  0  0  0  0
   23.9262   29.1364   18.8865 C   0  0  0  0  0  0  0  0  0  0  0  0
   23.6760   28.8606   20.2196 C   0  0  0  0  0  0  0  0  0  0  0  0
   24.3373   27.8757   20.8420 N   0  0  0  0  0  0  0  0  0  0  0  0
   25.2032   27.1550   20.1190 C   0  0  0  0  0  0  0  0  0  0  0  0
   25.4891   27.3495   18.8246 N   0  0  0  0  0  0  0  0  0  0  0  0
   22.7737   29.6346   20.9456 N   0  0  0  0  0  0  0  0  0  0  0  0
   21.5552   30.1121   20.2641 C   0  0  0  0  0  0  0  0  0  0  0  0
   20.3011   30.0278   21.1681 C   0  0  0  0  0  0  0  0  0  0  0  0
   20.4312   30.5898   22.5260 N   0  0  0  0  0  0  0  0  0  0  0  0
   20.0514   31.9989   22.5729 C   0  0  0  0  0  0  0  0  0  0  0  0
   21.7955   30.3973   23.0706 C   0  0  0  0  0  0  0  0  0  0  0  0
   22.6171   29.2922   22.3698 C   0  0  0  0  0  0  0  0  0  0  0  0
   25.1063   28.6479   16.8495 N   0  0  0  0  0  0  0  0  0  0  0  0
   24.4802   29.2597   16.3990 H   0  0  0  0  0  0  0  0  0  0  0  0
   29.2782   26.5851   15.0758 C   0  0  0  0  0  0  0  0  0  0  0  0
   27.9602   27.2385   15.2549 C   0  0  0  0  0  0  0  0  0  0  0  0
   27.3121   27.5621   16.4733 C   0  0  0  0  0  0  0  0  0  0  0  0
   26.1222   28.1446   16.1047 C   0  0  0  0  0  0  0  0  0  0  0  0
   26.1251   28.1416   14.7333 N   0  0  0  0  0  0  0  0  0  0  0  0
   27.2254   27.5885   14.1907 N   0  0  0  0  0  0  0  0  0  0  0  0
   25.3886   28.5107   14.1943 H   0  0  0  0  0  0  0  0  0  0  0  0
   26.0457   25.8224   20.9362 S   0  0  0  0  0  0  0  0  0  0  0  0
   25.5167   26.1212   22.6092 C   0  0  0  0  0  0  0  0  0  0  0  0
   25.9360   27.2769   23.2776 C   0  0  0  0  0  0  0  0  0  0  0  0
   25.5204   27.5382   24.5908 C   0  0  0  0  0  0  0  0  0  0  0  0
   24.6749   26.6460   25.2465 C   0  0  0  0  0  0  0  0  0  0  0  0
   24.2603   25.4960   24.5633 C   0  0  0  0  0  0  0  0  0  0  0  0
   23.4447   24.6255   25.1795 F   0  0  0  0  0  0  0  0  0  0  0  0
   24.6663   25.2273   23.2591 C   0  0  0  0  0  0  0  0  0  0  0  0
   24.1999   26.8200   26.5627 N   0  0  0  0  0  0  0  0  0  0  0  0
   22.9720   27.2883   26.9570 C   0  0  0  0  0  0  0  0  0  0  0  0
   22.0373   27.6300   26.2471 O   0  0  0  0  0  0  0  0  0  0  0  0
   24.8235   26.5765   27.2846 H   0  0  0  0  0  0  0  0  0  0  0  0
   22.8087   27.3186   28.4368 C   0  0  0  0  0  0  0  0  0  0  0  0
   23.0930   28.5976   29.1918 C   0  0  0  0  0  0  0  0  0  0  0  0
   23.9991   27.4138   29.3633 C   0  0  0  0  0  0  0  0  0  0  0  0
 16 17  1  0
 17 18  1  0
 18 19  2  0
 19 14  1  0
 14  1  1  0
  1  2  2  0
  2  3  1  0
  3  7  1  0
  7  8  1  0
  8  9  1  0
  9 10  1  0
 10 11  1  0
 10 12  1  0
 12 13  1  0
  3  4  2  0
  4  5  1  0
  5 23  1  0
 23 24  1  0
 24 25  2  0
 25 26  1  0
 26 27  2  0
 27 31  1  0
 31 32  1  0
 32 33  2  0
 32 35  1  0
 35 36  1  0
 36 37  1  0
 27 28  1  0
 28 29  1  0
 28 30  2  0
  5  6  2  0
 19 20  1  0
 20 21  1  0
 21 17  2  0
  6  1  1  0
 13  7  1  0
 30 24  1  0
 37 35  1  0
 14 15  1  0
 31 34  1  0
 20 22  1  0
M  END
> <minimizedAffinity>
-7.66727

> <CNNscore>
0.6097113490

> <CNNaffinity>
7.3406720161

> <CNN_VS>
4.4756908417

> <CNNaffinity_variance>
0.0042463266

$$$$



 37 41  0  0  0  0  0  0  0  0999 V2000
   24.0992   28.7525   19.2755 C   0  0  0  0  0  0  0  0  0  0  0  0
   23.0035   29.1424   20.0249 C   0  0  0  0  0  0  0  0  0  0  0  0
   22.8642   28.6349   21.3051 C   0  0  0  0  0  0  0  0  0  0  0  0
   23.7776   27.7892   21.8003 N   0  0  0  0  0  0  0  0  0  0  0  0
   24.7891   27.4292   21.0008 C   0  0  0  0  0  0  0  0  0  0  0  0
   24.9853   27.8634   19.7486 N   0  0  0  0  0  0  0  0  0  0  0  0
   21.8035   29.0357   22.1142 N   0  0  0  0  0  0  0  0  0  0  0  0
   20.6242   29.6455   21.4701 C   0  0  0  0  0  0  0  0  0  0  0  0
   19.2931   29.1602   22.0946 C   0  0  0  0  0  0  0  0  0  0  0  0
   19.2035   29.2041   23.5665 N   0  0  0  0  0  0  0  0  0  0  0  0
   18.6639   30.4742   24.0436 C   0  0  0  0  0  0  0  0  0  0  0  0
   20.5100   28.9184   24.2040 C   0  0  0  0  0  0  0  0  0  0  0  0
   21.5257   28.1950   23.2916 C   0  0  0  0  0  0  0  0  0  0  0  0
   24.2279   29.2628   17.9593 N   0  0  0  0  0  0  0  0  0  0  0  0
   23.6595   30.0295   17.7180 H   0  0  0  0  0  0  0  0  0  0  0  0
   27.9470   27.3083   15.2845 C   0  0  0  0  0  0  0  0  0  0  0  0
   26.6882   27.9309   15.7577 C   0  0  0  0  0  0  0  0  0  0  0  0
   26.3177   28.2292   17.0930 C   0  0  0  0  0  0  0  0  0  0  0  0
   25.0648   28.7887   17.0028 C   0  0  0  0  0  0  0  0  0  0  0  0
   24.7661   28.7981   15.6643 N   0  0  0  0  0  0  0  0  0  0  0  0
   25.7307   28.2743   14.8858 N   0  0  0  0  0  0  0  0  0  0  0  0
   23.9221   29.1559   15.3054 H   0  0  0  0  0  0  0  0  0  0  0  0
   25.9739   26.2740   21.6453 S   0  0  0  0  0  0  0  0  0  0  0  0
   25.3259   26.0746   23.2910 C   0  0  0  0  0  0  0  0  0  0  0  0
   24.3691   25.0865   23.5491 C   0  0  0  0  0  0  0  0  0  0  0  0
   23.8554   24.9038   24.8407 C   0  0  0  0  0  0  0  0  0  0  0  0
   24.2997   25.7063   25.8892 C   0  0  0  0  0  0  0  0  0  0  0  0
   25.2605   26.6880   25.6164 C   0  0  0  0  0  0  0  0  0  0  0  0
   25.7008   27.4700   26.6150 F   0  0  0  0  0  0  0  0  0  0  0  0
   25.7777   26.8774   24.3379 C   0  0  0  0  0  0  0  0  0  0  0  0
   23.8478   25.5993   27.2206 N   0  0  0  0  0  0  0  0  0  0  0  0
   23.8759   24.4920   28.0302 C   0  0  0  0  0  0  0  0  0  0  0  0
   24.3155   23.3822   27.7665 O   0  0  0  0  0  0  0  0  0  0  0  0
   23.4669   26.4164   27.6163 H   0  0  0  0  0  0  0  0  0  0  0  0
   23.3304   24.7524   29.3912 C   0  0  0  0  0  0  0  0  0  0  0  0
   22.7658   26.1163   29.7192 C   0  0  0  0  0  0  0  0  0  0  0  0
   24.0400   25.6613   30.3683 C   0  0  0  0  0  0  0  0  0  0  0  0
 16 17  1  0
 17 18  1  0
 18 19  2  0
 19 14  1  0
 14  1  1  0
  1  2  2  0
  2  3  1  0
  3  7  1  0
  7  8  1  0
  8  9  1  0
  9 10  1  0
 10 11  1  0
 10 12  1  0
 12 13  1  0
  3  4  2  0
  4  5  1  0
  5 23  1  0
 23 24  1  0
 24 25  2  0
 25 26  1  0
 26 27  2  0
 27 31  1  0
 31 32  1  0
 32 33  2  0
 32 35  1  0
 35 36  1  0
 36 37  1  0
 27 28  1  0
 28 29  1  0
 28 30  2  0
  5  6  2  0
 19 20  1  0
 20 21  1  0
 21 17  2  0
  6  1  1  0
 13  7  1  0
 30 24  1  0
 37 35  1  0
 14 15  1  0
 31 34  1  0
 20 22  1  0
M  END
> <minimizedAffinity>
-8.02569

> <CNNscore>
0.4435723424

> <CNNaffinity>
6.8960385323

> <CNN_VS>
3.0588920116

> <CNNaffinity_variance>
0.0073236688

$$$$



 37 41  0  0  0  0  0  0  0  0999 V2000
   25.1618   27.6332   19.0973 C   0  0  0  0  0  0  0  0  0  0  0  0
   26.1922   26.9699   18.4550 C   0  0  0  0  0  0  0  0  0  0  0  0
   26.9483   26.0649   19.1796 C   0  0  0  0  0  0  0  0  0  0  0  0
   26.6780   25.8399   20.4723 N   0  0  0  0  0  0  0  0  0  0  0  0
   25.6903   26.5483   21.0330 C   0  0  0  0  0  0  0  0  0  0  0  0
   24.9246   27.4505   20.4048 N   0  0  0  0  0  0  0  0  0  0  0  0
   27.9649   25.3383   18.5640 N   0  0  0  0  0  0  0  0  0  0  0  0
   27.6479   23.9938   18.0450 C   0  0  0  0  0  0  0  0  0  0  0  0
   28.3153   23.7168   16.6757 C   0  0  0  0  0  0  0  0  0  0  0  0
   29.7545   24.0240   16.5721 N   0  0  0  0  0  0  0  0  0  0  0  0
   30.5851   22.8739   16.9176 C   0  0  0  0  0  0  0  0  0  0  0  0
   30.1241   25.2013   17.3921 C   0  0  0  0  0  0  0  0  0  0  0  0
   28.9384   26.1144   17.7766 C   0  0  0  0  0  0  0  0  0  0  0  0
   24.4012   28.5707   18.3542 N   0  0  0  0  0  0  0  0  0  0  0  0
   24.3934   28.4666   17.3753 H   0  0  0  0  0  0  0  0  0  0  0  0
   22.4408   32.2413   21.0910 C   0  0  0  0  0  0  0  0  0  0  0  0
   22.7655   31.2424   20.0456 C   0  0  0  0  0  0  0  0  0  0  0  0
   23.7951   30.2684   20.0678 C   0  0  0  0  0  0  0  0  0  0  0  0
   23.6832   29.5985   18.8722 C   0  0  0  0  0  0  0  0  0  0  0  0
   22.6266   30.1851   18.2240 N   0  0  0  0  0  0  0  0  0  0  0  0
   22.0564   31.1928   18.9099 N   0  0  0  0  0  0  0  0  0  0  0  0
   22.3134   29.8952   17.3368 H   0  0  0  0  0  0  0  0  0  0  0  0
   25.3636   26.2792   22.7577 S   0  0  0  0  0  0  0  0  0  0  0  0
   23.8012   27.1205   22.8963 C   0  0  0  0  0  0  0  0  0  0  0  0
   22.6136   26.4385   22.6086 C   0  0  0  0  0  0  0  0  0  0  0  0
   21.3716   27.0784   22.7243 C   0  0  0  0  0  0  0  0  0  0  0  0
   21.3062   28.4079   23.1351 C   0  0  0  0  0  0  0  0  0  0  0  0
   22.5028   29.0761   23.4235 C   0  0  0  0  0  0  0  0  0  0  0  0
   22.4587   30.3575   23.8217 F   0  0  0  0  0  0  0  0  0  0  0  0
   23.7412   28.4500   23.3128 C   0  0  0  0  0  0  0  0  0  0  0  0
   20.1088   29.1373   23.2847 N   0  0  0  0  0  0  0  0  0  0  0  0
   19.3500   29.7166   22.2992 C   0  0  0  0  0  0  0  0  0  0  0  0
   19.5493   29.7001   21.0932 O   0  0  0  0  0  0  0  0  0  0  0  0
   19.7778   29.2435   24.2058 H   0  0  0  0  0  0  0  0  0  0  0  0
   18.1317   30.3927   22.8246 C   0  0  0  0  0  0  0  0  0  0  0  0
   16.7673   29.9382   22.3574 C   0  0  0  0  0  0  0  0  0  0  0  0
   17.2831   31.2874   21.9506 C   0  0  0  0  0  0  0  0  0  0  0  0
 16 17  1  0
 17 18  1  0
 18 19  2  0
 19 14  1  0
 14  1  1  0
  1  2  2  0
  2  3  1  0
  3  7  1  0
  7  8  1  0
  8  9  1  0
  9 10  1  0
 10 11  1  0
 10 12  1  0
 12 13  1  0
  3  4  2  0
  4  5  1  0
  5 23  1  0
 23 24  1  0
 24 25  2  0
 25 26  1  0
 26 27  2  0
 27 31  1  0
 31 32  1  0
 32 33  2  0
 32 35  1  0
 35 36  1  0
 36 37  1  0
 27 28  1  0
 28 29  1  0
 28 30  2  0
  5  6  2  0
 19 20  1  0
 20 21  1  0
 21 17  2  0
  6  1  1  0
 13  7  1  0
 30 24  1  0
 37 35  1  0
 14 15  1  0
 31 34  1  0
 20 22  1  0
M  END
> <minimizedAffinity>
-7.73728

> <CNNscore>
0.0907392204

> <CNNaffinity>
5.6196289062

> <CNN_VS>
0.5099207163

> <CNNaffinity_variance>
1.1864777803

$$$$



 37 41  0  0  0  0  0  0  0  0999 V2000
   25.1238   28.4097   19.2284 C   0  0  0  0  0  0  0  0  0  0  0  0
   26.0767   27.9112   18.3579 C   0  0  0  0  0  0  0  0  0  0  0  0
   26.8091   26.8022   18.7448 C   0  0  0  0  0  0  0  0  0  0  0  0
   26.5899   26.2288   19.9355 N   0  0  0  0  0  0  0  0  0  0  0  0
   25.6784   26.7919   20.7380 C   0  0  0  0  0  0  0  0  0  0  0  0
   24.9411   27.8710   20.4432 N   0  0  0  0  0  0  0  0  0  0  0  0
   27.7454   26.2361   17.8827 N   0  0  0  0  0  0  0  0  0  0  0  0
   28.0830   24.8100   18.0558 C   0  0  0  0  0  0  0  0  0  0  0  0
   28.2307   24.0697   16.7040 C   0  0  0  0  0  0  0  0  0  0  0  0
   29.0810   24.7197   15.6885 N   0  0  0  0  0  0  0  0  0  0  0  0
   30.4722   24.2864   15.7820 C   0  0  0  0  0  0  0  0  0  0  0  0
   28.9872   26.1966   15.7589 C   0  0  0  0  0  0  0  0  0  0  0  0
   27.7356   26.7267   16.4938 C   0  0  0  0  0  0  0  0  0  0  0  0
   24.3881   29.5552   18.8335 N   0  0  0  0  0  0  0  0  0  0  0  0
   24.5455   29.8978   17.9241 H   0  0  0  0  0  0  0  0  0  0  0  0
   20.3973   31.7633   20.8347 C   0  0  0  0  0  0  0  0  0  0  0  0
   21.7455   31.2240   20.5381 C   0  0  0  0  0  0  0  0  0  0  0  0
   22.1541   30.4940   19.3939 C   0  0  0  0  0  0  0  0  0  0  0  0
   23.4865   30.2214   19.5974 C   0  0  0  0  0  0  0  0  0  0  0  0
   23.7927   30.7873   20.8084 N   0  0  0  0  0  0  0  0  0  0  0  0
   22.7514   31.3949   21.4063 N   0  0  0  0  0  0  0  0  0  0  0  0
   24.6933   30.7522   21.2047 H   0  0  0  0  0  0  0  0  0  0  0  0
   25.4219   26.0551   22.3332 S   0  0  0  0  0  0  0  0  0  0  0  0
   24.1173   27.1051   22.9364 C   0  0  0  0  0  0  0  0  0  0  0  0
   24.4066   28.1182   23.8574 C   0  0  0  0  0  0  0  0  0  0  0  0
   23.3964   28.9648   24.3351 C   0  0  0  0  0  0  0  0  0  0  0  0
   22.0855   28.8085   23.8901 C   0  0  0  0  0  0  0  0  0  0  0  0
   21.8121   27.7931   22.9652 C   0  0  0  0  0  0  0  0  0  0  0  0
   20.5545   27.6286   22.5248 F   0  0  0  0  0  0  0  0  0  0  0  0
   22.8078   26.9475   22.4839 C   0  0  0  0  0  0  0  0  0  0  0  0
   21.0021   29.6089   24.3073 N   0  0  0  0  0  0  0  0  0  0  0  0
   20.0075   29.2797   25.1932 C   0  0  0  0  0  0  0  0  0  0  0  0
   19.8719   28.2346   25.8128 O   0  0  0  0  0  0  0  0  0  0  0  0
   20.9537   30.5112   23.9164 H   0  0  0  0  0  0  0  0  0  0  0  0
   19.0350   30.3857   25.4133 C   0  0  0  0  0  0  0  0  0  0  0  0
   18.0880   30.7774   24.3014 C   0  0  0  0  0  0  0  0  0  0  0  0
   19.1805   31.7188   24.7161 C   0  0  0  0  0  0  0  0  0  0  0  0
 16 17  1  0
 17 18  1  0
 18 19  2  0
 19 14  1  0
 14  1  1  0
  1  2  2  0
  2  3  1  0
  3  7  1  0
  7  8  1  0
  8  9  1  0
  9 10  1  0
 10 11  1  0
 10 12  1  0
 12 13  1  0
  3  4  2  0
  4  5  1  0
  5 23  1  0
 23 24  1  0
 24 25  2  0
 25 26  1  0
 26 27  2  0
 27 31  1  0
 31 32  1  0
 32 33  2  0
 32 35  1  0
 35 36  1  0
 36 37  1  0
 27 28  1  0
 28 29  1  0
 28 30  2  0
  5  6  2  0
 19 20  1  0
 20 21  1  0
 21 17  2  0
  6  1  1  0
 13  7  1  0
 30 24  1  0
 37 35  1  0
 14 15  1  0
 31 34  1  0
 20 22  1  0
M  END
> <minimizedAffinity>
-7.22383

> <CNNscore>
0.0716033652

> <CNNaffinity>
5.1334724426

> <CNN_VS>
0.3675739169

> <CNNaffinity_variance>
1.6105089188

$$$$



 37 41  0  0  0  0  0  0  0  0999 V2000
   31.2713   23.0854   16.2026 C   0  0  0  0  0  0  0  0  0  0  0  0
   30.1751   23.9072   16.3956 C   0  0  0  0  0  0  0  0  0  0  0  0
   30.1625   24.7437   17.4983 C   0  0  0  0  0  0  0  0  0  0  0  0
   31.1952   24.7533   18.3516 N   0  0  0  0  0  0  0  0  0  0  0  0
   32.2018   23.9022   18.1185 C   0  0  0  0  0  0  0  0  0  0  0  0
   32.2811   23.0535   17.0849 N   0  0  0  0  0  0  0  0  0  0  0  0
   29.1026   25.6230   17.7081 N   0  0  0  0  0  0  0  0  0  0  0  0
   27.7292   25.1250   17.5004 C   0  0  0  0  0  0  0  0  0  0  0  0
   26.7447   25.6404   18.5785 C   0  0  0  0  0  0  0  0  0  0  0  0
   26.7715   27.0896   18.8536 N   0  0  0  0  0  0  0  0  0  0  0  0
   25.8291   27.8229   18.0134 C   0  0  0  0  0  0  0  0  0  0  0  0
   28.1371   27.6481   18.7185 C   0  0  0  0  0  0  0  0  0  0  0  0
   29.2703   26.6007   18.7971 C   0  0  0  0  0  0  0  0  0  0  0  0
   31.2714   22.2194   15.0804 N   0  0  0  0  0  0  0  0  0  0  0  0
   30.7144   21.4097   15.1387 H   0  0  0  0  0  0  0  0  0  0  0  0
   33.9008   23.9300   11.2117 C   0  0  0  0  0  0  0  0  0  0  0  0
   33.1391   23.1105   12.1836 C   0  0  0  0  0  0  0  0  0  0  0  0
   32.5526   23.5342   13.4024 C   0  0  0  0  0  0  0  0  0  0  0  0
   31.9707   22.4071   13.9333 C   0  0  0  0  0  0  0  0  0  0  0  0
   32.2283   21.4059   13.0321 N   0  0  0  0  0  0  0  0  0  0  0  0
   32.9445   21.8032   11.9643 N   0  0  0  0  0  0  0  0  0  0  0  0
   31.9173   20.4800   13.1553 H   0  0  0  0  0  0  0  0  0  0  0  0
   33.5486   23.8868   19.2757 S   0  0  0  0  0  0  0  0  0  0  0  0
   33.6781   22.1335   19.5537 C   0  0  0  0  0  0  0  0  0  0  0  0
   32.9447   21.5344   20.5840 C   0  0  0  0  0  0  0  0  0  0  0  0
   33.0219   20.1532   20.8116 C   0  0  0  0  0  0  0  0  0  0  0  0
   33.8314   19.3564   20.0050 C   0  0  0  0  0  0  0  0  0  0  0  0
   34.5561   19.9695   18.9754 C   0  0  0  0  0  0  0  0  0  0  0  0
   35.3407   19.2169   18.1876 F   0  0  0  0  0  0  0  0  0  0  0  0
   34.4861   21.3399   18.7402 C   0  0  0  0  0  0  0  0  0  0  0  0
   33.9741   17.9612   20.1510 N   0  0  0  0  0  0  0  0  0  0  0  0
   33.1235   16.9795   19.7091 C   0  0  0  0  0  0  0  0  0  0  0  0
   32.0821   17.1165   19.0838 O   0  0  0  0  0  0  0  0  0  0  0  0
   34.7799   17.6551   20.6266 H   0  0  0  0  0  0  0  0  0  0  0  0
   33.6063   15.6065   20.0239 C   0  0  0  0  0  0  0  0  0  0  0  0
   33.2124   14.9600   21.3330 C   0  0  0  0  0  0  0  0  0  0  0  0
   34.6403   15.3572   21.0978 C   0  0  0  0  0  0  0  0  0  0  0  0
 16 17  1  0
 17 18  1  0
 18 19  2  0
 19 14  1  0
 14  1  1  0
  1  2  2  0
  2  3  1  0
  3  7  1  0
  7  8  1  0
  8  9  1  0
  9 10  1  0
 10 11  1  0
 10 12  1  0
 12 13  1  0
  3  4  2  0
  4  5  1  0
  5 23  1  0
 23 24  1  0
 24 25  2  0
 25 26  1  0
 26 27  2  0
 27 31  1  0
 31 32  1  0
 32 33  2  0
 32 35  1  0
 35 36  1  0
 36 37  1  0
 27 28  1  0
 28 29  1  0
 28 30  2  0
  5  6  2  0
 19 20  1  0
 20 21  1  0
 21 17  2  0
  6  1  1  0
 13  7  1  0
 30 24  1  0
 37 35  1  0
 14 15  1  0
 31 34  1  0
 20 22  1  0
M  END
> <minimizedAffinity>
-7.05498

> <CNNscore>
0.0643418059

> <CNNaffinity>
5.6685633659

> <CNN_VS>
0.3647255898

> <CNNaffinity_variance>
2.3661525249

$$$$
