


 30 30  0  0  0  0  0  0  0  0999 V2000
   -2.9522   35.8126  100.0249 C   0  0  0  0  0  0  0  0  0  0  0  0
   -3.7908   35.8080   98.8858 C   0  0  0  0  0  0  0  0  0  0  0  0
   -5.1608   35.5455   98.9789 C   0  0  0  0  0  0  0  0  0  0  0  0
   -6.0734   35.5113   97.5183 Cl  0  0  0  0  0  0  0  0  0  0  0  0
   -5.6990   35.2959  100.2321 C   0  0  0  0  0  0  0  0  0  0  0  0
   -4.9035   35.3043  101.3848 C   0  0  0  0  0  0  0  0  0  0  0  0
   -3.5240   35.5769  101.2971 C   0  0  0  0  0  0  0  0  0  0  0  0
   -7.1040   35.0044  100.3833 N   0  0  0  0  0  0  0  0  0  0  0  0
   -7.7408   35.7474  101.1404 O   0  0  0  0  0  0  0  0  0  0  0  0
   -7.5600   34.0723   99.7133 O   0  0  0  0  0  0  0  0  0  0  0  0
   -1.4750   36.0947   99.8118 C   0  0  0  0  0  0  0  0  0  0  0  0
   -0.6995   34.9837   99.0506 C   0  0  0  0  0  0  0  0  0  0  0  0
    0.6577   34.7920   99.5913 N   0  0  0  0  0  0  0  0  0  0  0  0
    1.1897   35.6561   99.4887 H   0  0  0  0  0  0  0  0  0  0  0  0
    1.1245   34.0426   99.0804 H   0  0  0  0  0  0  0  0  0  0  0  0
   -0.6261   35.3619   97.5390 C   0  0  0  0  0  0  0  0  0  0  0  0
   -1.1270   34.2718   96.5289 N   0  0  0  0  0  0  0  0  0  0  0  0
   -1.8955   35.0434   95.4161 C   0  0  0  0  0  0  0  0  0  0  0  0
   -2.1409   33.3028   97.1163 C   0  0  0  0  0  0  0  0  0  0  0  0
    0.0443   33.5972   95.8374 C   0  0  0  0  0  0  0  0  0  0  0  0
    0.7499   32.7511   93.6460 C   0  0  0  0  0  0  0  0  0  0  0  0
   -0.1514   32.4375   94.8759 N   0  0  0  0  0  0  0  0  0  0  0  0
   -1.5743   32.3410   94.3188 C   0  0  0  0  0  0  0  0  0  0  0  0
    0.2818   31.0694   95.3798 C   0  0  0  0  0  0  0  0  0  0  0  0
   -2.7358   35.5884  102.5943 C   0  0  0  0  0  0  0  0  0  0  0  0
   -2.5713   34.1930  103.1899 C   0  0  0  0  0  0  0  0  0  0  0  0
   -2.9739   34.1844  104.6385 C   0  0  0  0  0  0  0  0  0  0  0  0
   -4.1248   34.1094  105.0546 O   0  0  0  0  0  0  0  0  0  0  0  0
   -1.9148   34.2304  105.4622 O   0  0  0  0  0  0  0  0  0  0  0  0
   -1.0488   34.2876  105.1091 H   0  0  0  0  0  0  0  0  0  0  0  0
 21 22  1  0
 22 23  1  0
 22 24  1  0
 22 20  1  0
 20 17  1  0
 17 18  1  0
 17 19  1  0
 17 16  1  0
 16 12  1  0
 12 13  1  0
 12 11  1  0
 11  1  1  0
  1  2  2  0
  2  3  1  0
  3  4  1  0
  3  5  2  0
  5  8  1  0
  8  9  2  0
  8 10  1  0
  5  6  1  0
  6  7  2  0
  7 25  1  0
 25 26  1  0
 26 27  1  0
 27 28  2  0
 27 29  1  0
  7  1  1  0
 13 14  1  0
 13 15  1  0
 29 30  1  0
M  CHG 1   8   1
M  CHG 1  10  -1
M  CHG 1  17   1
M  CHG 1  22   1
M  END
> <minimizedAffinity>
-8.18995

> <CNNscore>
0.4303814769

> <CNNaffinity>
5.6156353951

> <CNN_VS>
2.4168653488

> <CNNaffinity_variance>
0.2658387721

$$$$



 30 30  0  0  0  0  0  0  0  0999 V2000
   -3.6989   34.9366   97.7874 C   0  0  0  0  0  0  0  0  0  0  0  0
   -2.7838   34.5656   96.7747 C   0  0  0  0  0  0  0  0  0  0  0  0
   -1.4014   34.6008   96.9800 C   0  0  0  0  0  0  0  0  0  0  0  0
   -0.3815   34.1804   95.6569 Cl  0  0  0  0  0  0  0  0  0  0  0  0
   -0.9307   35.0020   98.2210 C   0  0  0  0  0  0  0  0  0  0  0  0
   -1.8056   35.3648   99.2529 C   0  0  0  0  0  0  0  0  0  0  0  0
   -3.1997   35.3226   99.0535 C   0  0  0  0  0  0  0  0  0  0  0  0
    0.4867   35.0709   98.4819 N   0  0  0  0  0  0  0  0  0  0  0  0
    1.1889   35.5433   97.5795 O   0  0  0  0  0  0  0  0  0  0  0  0
    0.8723   34.6977   99.5944 O   0  0  0  0  0  0  0  0  0  0  0  0
   -5.1800   34.8768   97.4558 C   0  0  0  0  0  0  0  0  0  0  0  0
   -5.6780   35.9811   96.4823 C   0  0  0  0  0  0  0  0  0  0  0  0
   -6.9446   36.5824   96.9353 N   0  0  0  0  0  0  0  0  0  0  0  0
   -7.6678   35.8640   96.9726 H   0  0  0  0  0  0  0  0  0  0  0  0
   -7.2259   37.3144   96.2830 H   0  0  0  0  0  0  0  0  0  0  0  0
   -5.8562   35.3615   95.0618 C   0  0  0  0  0  0  0  0  0  0  0  0
   -5.0943   36.0797   93.8943 N   0  0  0  0  0  0  0  0  0  0  0  0
   -4.0272   35.0628   93.3931 C   0  0  0  0  0  0  0  0  0  0  0  0
   -4.3054   37.3041   94.3307 C   0  0  0  0  0  0  0  0  0  0  0  0
   -6.0205   36.3282   92.7172 C   0  0  0  0  0  0  0  0  0  0  0  0
   -4.7966   38.0924   91.5315 C   0  0  0  0  0  0  0  0  0  0  0  0
   -6.1910   37.7094   92.1082 N   0  0  0  0  0  0  0  0  0  0  0  0
   -6.5128   38.7947   93.1391 C   0  0  0  0  0  0  0  0  0  0  0  0
   -7.1710   37.8142   90.9497 C   0  0  0  0  0  0  0  0  0  0  0  0
   -4.0799   35.7102  100.2278 C   0  0  0  0  0  0  0  0  0  0  0  0
   -5.5611   35.7426   99.8614 C   0  0  0  0  0  0  0  0  0  0  0  0
   -6.4013   35.2529  101.0082 C   0  0  0  0  0  0  0  0  0  0  0  0
   -7.4955   34.7095  100.9047 O   0  0  0  0  0  0  0  0  0  0  0  0
   -5.8025   35.4397  102.1951 O   0  0  0  0  0  0  0  0  0  0  0  0
   -4.9656   35.8591  102.2368 H   0  0  0  0  0  0  0  0  0  0  0  0
 21 22  1  0
 22 23  1  0
 22 24  1  0
 22 20  1  0
 20 17  1  0
 17 18  1  0
 17 19  1  0
 17 16  1  0
 16 12  1  0
 12 13  1  0
 12 11  1  0
 11  1  1  0
  1  2  2  0
  2  3  1  0
  3  4  1  0
  3  5  2  0
  5  8  1  0
  8  9  2  0
  8 10  1  0
  5  6  1  0
  6  7  2  0
  7 25  1  0
 25 26  1  0
 26 27  1  0
 27 28  2  0
 27 29  1  0
  7  1  1  0
 13 14  1  0
 13 15  1  0
 29 30  1  0
M  CHG 1   8   1
M  CHG 1  10  -1
M  CHG 1  17   1
M  CHG 1  22   1
M  END
> <minimizedAffinity>
-6.27356

> <CNNscore>
0.3927910924

> <CNNaffinity>
5.5449428558

> <CNN_VS>
2.1780042648

> <CNNaffinity_variance>
0.1797920465

$$$$



 30 30  0  0  0  0  0  0  0  0999 V2000
   -2.9818   35.8247   99.9991 C   0  0  0  0  0  0  0  0  0  0  0  0
   -3.8366   35.8221   98.8721 C   0  0  0  0  0  0  0  0  0  0  0  0
   -5.2059   35.5637   98.9849 C   0  0  0  0  0  0  0  0  0  0  0  0
   -6.1395   35.5315   97.5375 Cl  0  0  0  0  0  0  0  0  0  0  0  0
   -5.7270   35.3165  100.2459 C   0  0  0  0  0  0  0  0  0  0  0  0
   -4.9150   35.3231  101.3871 C   0  0  0  0  0  0  0  0  0  0  0  0
   -3.5361   35.5915  101.2795 C   0  0  0  0  0  0  0  0  0  0  0  0
   -7.1305   35.0293  100.4173 N   0  0  0  0  0  0  0  0  0  0  0  0
   -7.7501   35.7634  101.1969 O   0  0  0  0  0  0  0  0  0  0  0  0
   -7.6028   34.1098   99.7412 O   0  0  0  0  0  0  0  0  0  0  0  0
   -1.5069   36.1023   99.7647 C   0  0  0  0  0  0  0  0  0  0  0  0
   -0.6808   34.8807   99.2746 C   0  0  0  0  0  0  0  0  0  0  0  0
    0.4398   34.5757  100.1814 N   0  0  0  0  0  0  0  0  0  0  0  0
    1.0739   35.3739  100.2187 H   0  0  0  0  0  0  0  0  0  0  0  0
    0.9428   33.7578   99.8373 H   0  0  0  0  0  0  0  0  0  0  0  0
   -0.1447   35.1744   97.8394 C   0  0  0  0  0  0  0  0  0  0  0  0
   -0.8589   34.4171   96.6666 N   0  0  0  0  0  0  0  0  0  0  0  0
   -1.7539   33.3358   97.3404 C   0  0  0  0  0  0  0  0  0  0  0  0
    0.0875   33.6448   95.7611 C   0  0  0  0  0  0  0  0  0  0  0  0
   -1.8073   35.3419   95.9247 C   0  0  0  0  0  0  0  0  0  0  0  0
   -1.9942   34.6685   93.5735 C   0  0  0  0  0  0  0  0  0  0  0  0
   -2.7979   34.8196   94.8982 N   0  0  0  0  0  0  0  0  0  0  0  0
   -3.9217   35.8088   94.5774 C   0  0  0  0  0  0  0  0  0  0  0  0
   -3.4015   33.4532   95.1848 C   0  0  0  0  0  0  0  0  0  0  0  0
   -2.7294   35.6013  102.5653 C   0  0  0  0  0  0  0  0  0  0  0  0
   -2.5587   34.2054  103.1580 C   0  0  0  0  0  0  0  0  0  0  0  0
   -2.9413   34.1969  104.6121 C   0  0  0  0  0  0  0  0  0  0  0  0
   -4.0877   34.1452  105.0437 O   0  0  0  0  0  0  0  0  0  0  0  0
   -1.8701   34.2139  105.4212 O   0  0  0  0  0  0  0  0  0  0  0  0
   -1.0080   34.2538  105.0563 H   0  0  0  0  0  0  0  0  0  0  0  0
 21 22  1  0
 22 23  1  0
 22 24  1  0
 22 20  1  0
 20 17  1  0
 17 18  1  0
 17 19  1  0
 17 16  1  0
 16 12  1  0
 12 13  1  0
 12 11  1  0
 11  1  1  0
  1  2  2  0
  2  3  1  0
  3  4  1  0
  3  5  2  0
  5  8  1  0
  8  9  2  0
  8 10  1  0
  5  6  1  0
  6  7  2  0
  7 25  1  0
 25 26  1  0
 26 27  1  0
 27 28  2  0
 27 29  1  0
  7  1  1  0
 13 14  1  0
 13 15  1  0
 29 30  1  0
M  CHG 1   8   1
M  CHG 1  10  -1
M  CHG 1  17   1
M  CHG 1  22   1
M  END
> <minimizedAffinity>
-8.19120

> <CNNscore>
0.3833262622

> <CNNaffinity>
5.6647377014

> <CNN_VS>
2.1714427471

> <CNNaffinity_variance>
0.2375038117

$$$$



 30 30  0  0  0  0  0  0  0  0999 V2000
   -2.4444   35.8491   99.8790 C   0  0  0  0  0  0  0  0  0  0  0  0
   -3.4504   36.0064   98.8972 C   0  0  0  0  0  0  0  0  0  0  0  0
   -4.8050   35.8271   99.1930 C   0  0  0  0  0  0  0  0  0  0  0  0
   -5.9372   35.9898   97.9050 Cl  0  0  0  0  0  0  0  0  0  0  0  0
   -5.1563   35.4975  100.4932 C   0  0  0  0  0  0  0  0  0  0  0  0
   -4.1902   35.3456  101.4959 C   0  0  0  0  0  0  0  0  0  0  0  0
   -2.8246   35.5337  101.2045 C   0  0  0  0  0  0  0  0  0  0  0  0
   -6.5384   35.2863  100.8496 N   0  0  0  0  0  0  0  0  0  0  0  0
   -7.1076   34.3342  100.3016 O   0  0  0  0  0  0  0  0  0  0  0  0
   -7.0210   36.0402  101.7006 O   0  0  0  0  0  0  0  0  0  0  0  0
   -1.0018   36.0520   99.4491 C   0  0  0  0  0  0  0  0  0  0  0  0
   -0.4089   34.9049   98.5843 C   0  0  0  0  0  0  0  0  0  0  0  0
    1.0309   34.7164   98.8340 N   0  0  0  0  0  0  0  0  0  0  0  0
    1.5331   35.5698   98.5892 H   0  0  0  0  0  0  0  0  0  0  0  0
    1.3763   33.9435   98.2650 H   0  0  0  0  0  0  0  0  0  0  0  0
   -0.6542   35.2274   97.0779 C   0  0  0  0  0  0  0  0  0  0  0  0
   -1.2238   34.0561   96.2044 N   0  0  0  0  0  0  0  0  0  0  0  0
   -1.8714   34.7296   94.9589 C   0  0  0  0  0  0  0  0  0  0  0  0
   -2.3492   33.2789   96.8689 C   0  0  0  0  0  0  0  0  0  0  0  0
   -0.1008   33.1841   95.6717 C   0  0  0  0  0  0  0  0  0  0  0  0
   -0.4882   30.8681   96.3804 C   0  0  0  0  0  0  0  0  0  0  0  0
   -0.3569   31.7877   95.1312 N   0  0  0  0  0  0  0  0  0  0  0  0
    0.8190   31.2180   94.3329 C   0  0  0  0  0  0  0  0  0  0  0  0
   -1.6387   31.6030   94.3335 C   0  0  0  0  0  0  0  0  0  0  0  0
   -1.8426   35.3720  102.3506 C   0  0  0  0  0  0  0  0  0  0  0  0
   -0.9893   36.6183  102.5686 C   0  0  0  0  0  0  0  0  0  0  0  0
   -1.8140   37.7285  103.1587 C   0  0  0  0  0  0  0  0  0  0  0  0
   -2.0795   37.8597  104.3485 O   0  0  0  0  0  0  0  0  0  0  0  0
   -2.2145   38.6137  102.2324 O   0  0  0  0  0  0  0  0  0  0  0  0
   -1.9933   38.4816  101.3315 H   0  0  0  0  0  0  0  0  0  0  0  0
 21 22  1  0
 22 23  1  0
 22 24  1  0
 22 20  1  0
 20 17  1  0
 17 18  1  0
 17 19  1  0
 17 16  1  0
 16 12  1  0
 12 13  1  0
 12 11  1  0
 11  1  1  0
  1  2  2  0
  2  3  1  0
  3  4  1  0
  3  5  2  0
  5  8  1  0
  8  9  2  0
  8 10  1  0
  5  6  1  0
  6  7  2  0
  7 25  1  0
 25 26  1  0
 26 27  1  0
 27 28  2  0
 27 29  1  0
  7  1  1  0
 13 14  1  0
 13 15  1  0
 29 30  1  0
M  CHG 1   8   1
M  CHG 1  10  -1
M  CHG 1  17   1
M  CHG 1  22   1
M  END
> <minimizedAffinity>
-7.86821

> <CNNscore>
0.2649148107

> <CNNaffinity>
5.2677817345

> <CNN_VS>
1.3955134153

> <CNNaffinity_variance>
0.7958083153

$$$$



 30 30  0  0  0  0  0  0  0  0999 V2000
   -3.2216   35.3773   98.3856 C   0  0  0  0  0  0  0  0  0  0  0  0
   -4.4672   35.1835   97.7440 C   0  0  0  0  0  0  0  0  0  0  0  0
   -5.6668   35.1353   98.4602 C   0  0  0  0  0  0  0  0  0  0  0  0
   -7.1172   34.8386   97.5795 Cl  0  0  0  0  0  0  0  0  0  0  0  0
   -5.6179   35.2954   99.8367 C   0  0  0  0  0  0  0  0  0  0  0  0
   -4.4054   35.5019  100.5065 C   0  0  0  0  0  0  0  0  0  0  0  0
   -3.1948   35.5599   99.7881 C   0  0  0  0  0  0  0  0  0  0  0  0
   -6.8245   35.2392  100.6260 N   0  0  0  0  0  0  0  0  0  0  0  0
   -6.9470   36.1021  101.5041 O   0  0  0  0  0  0  0  0  0  0  0  0
   -7.6494   34.3686  100.3307 O   0  0  0  0  0  0  0  0  0  0  0  0
   -1.9763   35.3988   97.5160 C   0  0  0  0  0  0  0  0  0  0  0  0
   -1.1804   34.0645   97.4794 C   0  0  0  0  0  0  0  0  0  0  0  0
   -0.0477   34.0744   98.4217 N   0  0  0  0  0  0  0  0  0  0  0  0
    0.6002   34.8198   98.1667 H   0  0  0  0  0  0  0  0  0  0  0  0
    0.4347   33.1765   98.3829 H   0  0  0  0  0  0  0  0  0  0  0  0
   -0.6673   33.8203   96.0266 C   0  0  0  0  0  0  0  0  0  0  0  0
   -0.2060   32.3589   95.6933 N   0  0  0  0  0  0  0  0  0  0  0  0
   -0.4549   32.1713   94.1679 C   0  0  0  0  0  0  0  0  0  0  0  0
   -1.0354   31.2786   96.3693 C   0  0  0  0  0  0  0  0  0  0  0  0
    1.2910   32.2059   95.8947 C   0  0  0  0  0  0  0  0  0  0  0  0
    2.4184   32.5282   93.7403 C   0  0  0  0  0  0  0  0  0  0  0  0
    2.1688   31.4957   94.8784 N   0  0  0  0  0  0  0  0  0  0  0  0
    1.4789   30.3083   94.2013 C   0  0  0  0  0  0  0  0  0  0  0  0
    3.5431   31.0636   95.3663 C   0  0  0  0  0  0  0  0  0  0  0  0
   -1.9270   35.8083  100.5849 C   0  0  0  0  0  0  0  0  0  0  0  0
   -1.7799   37.2672  101.0082 C   0  0  0  0  0  0  0  0  0  0  0  0
   -1.8085   37.3896  102.5065 C   0  0  0  0  0  0  0  0  0  0  0  0
   -2.1911   38.3730  103.1308 O   0  0  0  0  0  0  0  0  0  0  0  0
   -1.3965   36.2675  103.1176 O   0  0  0  0  0  0  0  0  0  0  0  0
   -1.1106   35.5347  102.6085 H   0  0  0  0  0  0  0  0  0  0  0  0
 21 22  1  0
 22 23  1  0
 22 24  1  0
 22 20  1  0
 20 17  1  0
 17 18  1  0
 17 19  1  0
 17 16  1  0
 16 12  1  0
 12 13  1  0
 12 11  1  0
 11  1  1  0
  1  2  2  0
  2  3  1  0
  3  4  1  0
  3  5  2  0
  5  8  1  0
  8  9  2  0
  8 10  1  0
  5  6  1  0
  6  7  2  0
  7 25  1  0
 25 26  1  0
 26 27  1  0
 27 28  2  0
 27 29  1  0
  7  1  1  0
 13 14  1  0
 13 15  1  0
 29 30  1  0
M  CHG 1   8   1
M  CHG 1  10  -1
M  CHG 1  17   1
M  CHG 1  22   1
M  END
> <minimizedAffinity>
-7.28378

> <CNNscore>
0.2104427963

> <CNNaffinity>
5.1425189972

> <CNN_VS>
1.0822061300

> <CNNaffinity_variance>
0.4716544151

$$$$



 30 30  0  0  0  0  0  0  0  0999 V2000
   -2.8503   35.3072   98.8240 C   0  0  0  0  0  0  0  0  0  0  0  0
   -4.0210   34.8917   98.1477 C   0  0  0  0  0  0  0  0  0  0  0  0
   -5.2673   34.8603   98.7804 C   0  0  0  0  0  0  0  0  0  0  0  0
   -6.6141   34.2834   97.8746 Cl  0  0  0  0  0  0  0  0  0  0  0  0
   -5.3425   35.2622  100.1053 C   0  0  0  0  0  0  0  0  0  0  0  0
   -4.2079   35.6923  100.8049 C   0  0  0  0  0  0  0  0  0  0  0  0
   -2.9514   35.7339  100.1689 C   0  0  0  0  0  0  0  0  0  0  0  0
   -6.6009   35.2353  100.8108 N   0  0  0  0  0  0  0  0  0  0  0  0
   -6.8173   36.1764  101.5842 O   0  0  0  0  0  0  0  0  0  0  0  0
   -7.3713   34.3054  100.5508 O   0  0  0  0  0  0  0  0  0  0  0  0
   -1.5443   35.2898   98.0486 C   0  0  0  0  0  0  0  0  0  0  0  0
   -1.6847   34.9560   96.5373 C   0  0  0  0  0  0  0  0  0  0  0  0
   -2.6332   35.8584   95.8612 N   0  0  0  0  0  0  0  0  0  0  0  0
   -3.5575   35.7561   96.2803 H   0  0  0  0  0  0  0  0  0  0  0  0
   -2.6810   35.6209   94.8704 H   0  0  0  0  0  0  0  0  0  0  0  0
   -2.1526   33.4756   96.3867 C   0  0  0  0  0  0  0  0  0  0  0  0
   -1.1540   32.5053   95.6650 N   0  0  0  0  0  0  0  0  0  0  0  0
   -0.8591   31.3640   96.6822 C   0  0  0  0  0  0  0  0  0  0  0  0
    0.1995   33.1263   95.3578 C   0  0  0  0  0  0  0  0  0  0  0  0
   -1.8147   31.8406   94.4706 C   0  0  0  0  0  0  0  0  0  0  0  0
    0.2051   30.4535   94.3577 C   0  0  0  0  0  0  0  0  0  0  0  0
   -1.0542   30.8955   93.5562 N   0  0  0  0  0  0  0  0  0  0  0  0
   -0.5120   31.5727   92.2946 C   0  0  0  0  0  0  0  0  0  0  0  0
   -1.7772   29.6157   93.1651 C   0  0  0  0  0  0  0  0  0  0  0  0
   -1.7754   36.2322  100.9892 C   0  0  0  0  0  0  0  0  0  0  0  0
   -2.0732   36.2496  102.4859 C   0  0  0  0  0  0  0  0  0  0  0  0
   -2.0254   37.6546  103.0192 C   0  0  0  0  0  0  0  0  0  0  0  0
   -1.7568   37.9662  104.1743 O   0  0  0  0  0  0  0  0  0  0  0  0
   -2.2764   38.5693  102.0693 O   0  0  0  0  0  0  0  0  0  0  0  0
   -2.4783   38.2950  101.1964 H   0  0  0  0  0  0  0  0  0  0  0  0
 21 22  1  0
 22 23  1  0
 22 24  1  0
 22 20  1  0
 20 17  1  0
 17 18  1  0
 17 19  1  0
 17 16  1  0
 16 12  1  0
 12 13  1  0
 12 11  1  0
 11  1  1  0
  1  2  2  0
  2  3  1  0
  3  4  1  0
  3  5  2  0
  5  8  1  0
  8  9  2  0
  8 10  1  0
  5  6  1  0
  6  7  2  0
  7 25  1  0
 25 26  1  0
 26 27  1  0
 27 28  2  0
 27 29  1  0
  7  1  1  0
 13 14  1  0
 13 15  1  0
 29 30  1  0
M  CHG 1   8   1
M  CHG 1  10  -1
M  CHG 1  17   1
M  CHG 1  22   1
M  END
> <minimizedAffinity>
-7.42968

> <CNNscore>
0.1823850274

> <CNNaffinity>
4.9475784302

> <CNN_VS>
0.9023642540

> <CNNaffinity_variance>
0.6708381772

$$$$



 30 30  0  0  0  0  0  0  0  0999 V2000
   -2.9427   35.5651   99.3260 C   0  0  0  0  0  0  0  0  0  0  0  0
   -4.0432   35.6923   98.4466 C   0  0  0  0  0  0  0  0  0  0  0  0
   -5.3632   35.6485   98.9049 C   0  0  0  0  0  0  0  0  0  0  0  0
   -6.6237   35.7581   97.7360 Cl  0  0  0  0  0  0  0  0  0  0  0  0
   -5.5824   35.4869  100.2645 C   0  0  0  0  0  0  0  0  0  0  0  0
   -4.5187   35.3703  101.1682 C   0  0  0  0  0  0  0  0  0  0  0  0
   -3.1867   35.4225  100.7121 C   0  0  0  0  0  0  0  0  0  0  0  0
   -6.9248   35.4200  100.7892 N   0  0  0  0  0  0  0  0  0  0  0  0
   -7.6309   34.4925  100.3748 O   0  0  0  0  0  0  0  0  0  0  0  0
   -7.2395   36.2614  101.6370 O   0  0  0  0  0  0  0  0  0  0  0  0
   -1.5492   35.6113   98.7231 C   0  0  0  0  0  0  0  0  0  0  0  0
   -1.2478   34.4949   97.6849 C   0  0  0  0  0  0  0  0  0  0  0  0
    0.0746   33.8831   97.9043 N   0  0  0  0  0  0  0  0  0  0  0  0
    0.7991   34.5938   97.8025 H   0  0  0  0  0  0  0  0  0  0  0  0
    0.2251   33.1435   97.2182 H   0  0  0  0  0  0  0  0  0  0  0  0
   -1.3264   35.1024   96.2503 C   0  0  0  0  0  0  0  0  0  0  0  0
   -2.1122   34.2607   95.1856 N   0  0  0  0  0  0  0  0  0  0  0  0
   -2.9198   33.2015   95.9918 C   0  0  0  0  0  0  0  0  0  0  0  0
   -1.2213   33.4576   94.2512 C   0  0  0  0  0  0  0  0  0  0  0  0
   -3.1424   35.1182   94.4725 C   0  0  0  0  0  0  0  0  0  0  0  0
   -4.6647   35.8833   92.7079 C   0  0  0  0  0  0  0  0  0  0  0  0
   -3.5074   34.8886   93.0158 N   0  0  0  0  0  0  0  0  0  0  0  0
   -4.0881   33.4981   92.7448 C   0  0  0  0  0  0  0  0  0  0  0  0
   -2.4159   35.1815   91.9977 C   0  0  0  0  0  0  0  0  0  0  0  0
   -2.0913   35.3101  101.7569 C   0  0  0  0  0  0  0  0  0  0  0  0
   -2.5149   35.8750  103.1099 C   0  0  0  0  0  0  0  0  0  0  0  0
   -1.6200   37.0145  103.5118 C   0  0  0  0  0  0  0  0  0  0  0  0
   -1.9651   37.9890  104.1712 O   0  0  0  0  0  0  0  0  0  0  0  0
   -0.3550   36.8397  103.0981 O   0  0  0  0  0  0  0  0  0  0  0  0
   -0.1268   36.0825  102.5956 H   0  0  0  0  0  0  0  0  0  0  0  0
 21 22  1  0
 22 23  1  0
 22 24  1  0
 22 20  1  0
 20 17  1  0
 17 18  1  0
 17 19  1  0
 17 16  1  0
 16 12  1  0
 12 13  1  0
 12 11  1  0
 11  1  1  0
  1  2  2  0
  2  3  1  0
  3  4  1  0
  3  5  2  0
  5  8  1  0
  8  9  2  0
  8 10  1  0
  5  6  1  0
  6  7  2  0
  7 25  1  0
 25 26  1  0
 26 27  1  0
 27 28  2  0
 27 29  1  0
  7  1  1  0
 13 14  1  0
 13 15  1  0
 29 30  1  0
M  CHG 1   8   1
M  CHG 1  10  -1
M  CHG 1  17   1
M  CHG 1  22   1
M  END
> <minimizedAffinity>
-7.33967

> <CNNscore>
0.1684145629

> <CNNaffinity>
5.1456584930

> <CNN_VS>
0.8666038513

> <CNNaffinity_variance>
0.3196904957

$$$$



 30 30  0  0  0  0  0  0  0  0999 V2000
   -0.1849   35.0989  100.8698 C   0  0  0  0  0  0  0  0  0  0  0  0
    1.2128   35.0712  100.6544 C   0  0  0  0  0  0  0  0  0  0  0  0
    2.1111   34.7524  101.6771 C   0  0  0  0  0  0  0  0  0  0  0  0
    3.7941   34.8047  101.3136 Cl  0  0  0  0  0  0  0  0  0  0  0  0
    1.6003   34.4457  102.9292 C   0  0  0  0  0  0  0  0  0  0  0  0
    0.2221   34.4499  103.1782 C   0  0  0  0  0  0  0  0  0  0  0  0
   -0.6875   34.7621  102.1485 C   0  0  0  0  0  0  0  0  0  0  0  0
    2.4834   34.1242  104.0240 N   0  0  0  0  0  0  0  0  0  0  0  0
    2.8362   35.0690  104.7407 O   0  0  0  0  0  0  0  0  0  0  0  0
    2.7745   32.9341  104.1806 O   0  0  0  0  0  0  0  0  0  0  0  0
   -1.0721   35.4724   99.6948 C   0  0  0  0  0  0  0  0  0  0  0  0
   -0.5278   35.0476   98.3025 C   0  0  0  0  0  0  0  0  0  0  0  0
    0.4359   36.0255   97.7677 N   0  0  0  0  0  0  0  0  0  0  0  0
   -0.0253   36.9275   97.6493 H   0  0  0  0  0  0  0  0  0  0  0  0
    0.7845   35.7009   96.8657 H   0  0  0  0  0  0  0  0  0  0  0  0
   -1.7268   34.8829   97.3184 C   0  0  0  0  0  0  0  0  0  0  0  0
   -1.6635   33.6489   96.3526 N   0  0  0  0  0  0  0  0  0  0  0  0
   -3.0063   32.8856   96.5483 C   0  0  0  0  0  0  0  0  0  0  0  0
   -0.5777   32.6437   96.7029 C   0  0  0  0  0  0  0  0  0  0  0  0
   -1.6454   34.0984   94.9025 C   0  0  0  0  0  0  0  0  0  0  0  0
   -1.8113   33.9077   92.4627 C   0  0  0  0  0  0  0  0  0  0  0  0
   -2.3016   33.2828   93.8016 N   0  0  0  0  0  0  0  0  0  0  0  0
   -3.8269   33.4135   93.7728 C   0  0  0  0  0  0  0  0  0  0  0  0
   -1.9250   31.8102   93.7439 C   0  0  0  0  0  0  0  0  0  0  0  0
   -2.1652   34.7238  102.4936 C   0  0  0  0  0  0  0  0  0  0  0  0
   -2.4582   33.8488  103.7092 C   0  0  0  0  0  0  0  0  0  0  0  0
   -3.8832   34.0232  104.1563 C   0  0  0  0  0  0  0  0  0  0  0  0
   -4.3193   33.7339  105.2651 O   0  0  0  0  0  0  0  0  0  0  0  0
   -4.6511   34.5797  103.2061 O   0  0  0  0  0  0  0  0  0  0  0  0
   -4.2841   34.7878  102.3695 H   0  0  0  0  0  0  0  0  0  0  0  0
 21 22  1  0
 22 23  1  0
 22 24  1  0
 22 20  1  0
 20 17  1  0
 17 18  1  0
 17 19  1  0
 17 16  1  0
 16 12  1  0
 12 13  1  0
 12 11  1  0
 11  1  1  0
  1  2  2  0
  2  3  1  0
  3  4  1  0
  3  5  2  0
  5  8  1  0
  8  9  2  0
  8 10  1  0
  5  6  1  0
  6  7  2  0
  7 25  1  0
 25 26  1  0
 26 27  1  0
 27 28  2  0
 27 29  1  0
  7  1  1  0
 13 14  1  0
 13 15  1  0
 29 30  1  0
M  CHG 1   8   1
M  CHG 1  10  -1
M  CHG 1  17   1
M  CHG 1  22   1
M  END
> <minimizedAffinity>
-7.34207

> <CNNscore>
0.1482362151

> <CNNaffinity>
5.5704154968

> <CNN_VS>
0.8257372975

> <CNNaffinity_variance>
0.1777002215

$$$$



 30 30  0  0  0  0  0  0  0  0999 V2000
   -3.2557   35.8835  100.3980 C   0  0  0  0  0  0  0  0  0  0  0  0
   -3.3672   36.0277   98.9954 C   0  0  0  0  0  0  0  0  0  0  0  0
   -4.5359   35.6853   98.3087 C   0  0  0  0  0  0  0  0  0  0  0  0
   -4.5380   35.8505   96.5940 Cl  0  0  0  0  0  0  0  0  0  0  0  0
   -5.6109   35.2031   99.0397 C   0  0  0  0  0  0  0  0  0  0  0  0
   -5.5434   35.0582  100.4311 C   0  0  0  0  0  0  0  0  0  0  0  0
   -4.3708   35.4101  101.1285 C   0  0  0  0  0  0  0  0  0  0  0  0
   -6.8356   34.8206   98.3795 N   0  0  0  0  0  0  0  0  0  0  0  0
   -7.2060   35.5444   97.4469 O   0  0  0  0  0  0  0  0  0  0  0  0
   -7.3836   33.7841   98.7680 O   0  0  0  0  0  0  0  0  0  0  0  0
   -1.9366   36.2706  101.0440 C   0  0  0  0  0  0  0  0  0  0  0  0
   -2.0465   37.3392  102.1671 C   0  0  0  0  0  0  0  0  0  0  0  0
   -2.1022   38.7066  101.6209 N   0  0  0  0  0  0  0  0  0  0  0  0
   -1.2457   38.9006  101.1021 H   0  0  0  0  0  0  0  0  0  0  0  0
   -2.1950   39.3748  102.3859 H   0  0  0  0  0  0  0  0  0  0  0  0
   -0.8247   37.1940  103.1259 C   0  0  0  0  0  0  0  0  0  0  0  0
    0.5914   37.3344  102.4667 N   0  0  0  0  0  0  0  0  0  0  0  0
    1.1576   38.6982  102.9604 C   0  0  0  0  0  0  0  0  0  0  0  0
    0.5606   37.4400  100.9502 C   0  0  0  0  0  0  0  0  0  0  0  0
    1.5401   36.2725  102.9934 C   0  0  0  0  0  0  0  0  0  0  0  0
    1.1301   34.9686  100.9566 C   0  0  0  0  0  0  0  0  0  0  0  0
    1.5315   34.8515  102.4562 N   0  0  0  0  0  0  0  0  0  0  0  0
    0.4572   33.9656  103.0931 C   0  0  0  0  0  0  0  0  0  0  0  0
    2.8636   34.1179  102.4814 C   0  0  0  0  0  0  0  0  0  0  0  0
   -4.3853   35.2437  102.6372 C   0  0  0  0  0  0  0  0  0  0  0  0
   -3.3616   34.2208  103.1216 C   0  0  0  0  0  0  0  0  0  0  0  0
   -3.3557   34.1474  104.6234 C   0  0  0  0  0  0  0  0  0  0  0  0
   -4.3056   33.8091  105.3208 O   0  0  0  0  0  0  0  0  0  0  0  0
   -2.1592   34.4620  105.1444 O   0  0  0  0  0  0  0  0  0  0  0  0
   -1.4550   34.7164  104.5810 H   0  0  0  0  0  0  0  0  0  0  0  0
 21 22  1  0
 22 23  1  0
 22 24  1  0
 22 20  1  0
 20 17  1  0
 17 18  1  0
 17 19  1  0
 17 16  1  0
 16 12  1  0
 12 13  1  0
 12 11  1  0
 11  1  1  0
  1  2  2  0
  2  3  1  0
  3  4  1  0
  3  5  2  0
  5  8  1  0
  8  9  2  0
  8 10  1  0
  5  6  1  0
  6  7  2  0
  7 25  1  0
 25 26  1  0
 26 27  1  0
 27 28  2  0
 27 29  1  0
  7  1  1  0
 13 14  1  0
 13 15  1  0
 29 30  1  0
M  CHG 1   8   1
M  CHG 1  10  -1
M  CHG 1  17   1
M  CHG 1  22   1
M  END
> <minimizedAffinity>
-8.31126

> <CNNscore>
0.1460021287

> <CNNaffinity>
5.3663520813

> <CNN_VS>
0.7834988236

> <CNNaffinity_variance>
0.6474394798

$$$$
