


 28 30  0  0  0  0  0  0  0  0999 V2000
   56.4165   74.0672   19.5666 C   0  0  0  0  0  0  0  0  0  0  0  0
   56.3063   73.7702   18.2215 C   0  0  0  0  0  0  0  0  0  0  0  0
   57.3935   73.0789   17.1109 Cl  0  0  0  0  0  0  0  0  0  0  0  0
   55.0667   74.0948   17.7494 N   0  0  0  0  0  0  0  0  0  0  0  0
   54.3515   74.6413   18.7781 C   0  0  0  0  0  0  0  0  0  0  0  0
   55.1499   74.6116   19.8946 C   0  0  0  0  0  0  0  0  0  0  0  0
   54.7138   75.0656   21.1426 N   0  0  0  0  0  0  0  0  0  0  0  0
   53.4564   75.3856   21.1427 C   0  0  0  0  0  0  0  0  0  0  0  0
   52.5323   75.3347   20.1256 N   0  0  0  0  0  0  0  0  0  0  0  0
   52.9560   75.1240   18.7682 C   0  0  0  0  0  0  0  0  0  0  0  0
   52.8492   76.2829   17.9067 N   0  0  0  0  0  0  0  0  0  0  0  0
   54.7446   73.9590   16.8291 H   0  0  0  0  0  0  0  0  0  0  0  0
   51.5751   75.4432   20.3282 H   0  0  0  0  0  0  0  0  0  0  0  0
   53.4693   77.0178   18.2471 H   0  0  0  0  0  0  0  0  0  0  0  0
   51.8870   76.6214   17.9099 H   0  0  0  0  0  0  0  0  0  0  0  0
   58.2043   72.0764   21.9039 C   0  0  0  0  0  0  0  0  0  0  0  0
   57.8292   72.3740   20.5113 N   0  0  0  0  0  0  0  0  0  0  0  0
   57.6029   73.8367   20.4454 C   0  0  0  0  0  0  0  0  0  0  0  0
   57.4639   74.3459   21.8925 C   0  0  0  0  0  0  0  0  0  0  0  0
   58.6527   75.0691   22.2781 O   0  0  0  0  0  0  0  0  0  0  0  0
   57.3736   73.0691   22.7287 C   0  0  0  0  0  0  0  0  0  0  0  0
   57.9151   73.3072   24.0328 O   0  0  0  0  0  0  0  0  0  0  0  0
   56.9769   71.8731   20.2603 H   0  0  0  0  0  0  0  0  0  0  0  0
   59.4281   74.4956   22.1742 H   0  0  0  0  0  0  0  0  0  0  0  0
   58.8230   73.6386   23.9503 H   0  0  0  0  0  0  0  0  0  0  0  0
   57.9140   70.6064   22.2398 C   0  0  0  0  0  0  0  0  0  0  0  0
   56.2351   68.4185   22.5736 C   0  0  0  0  0  0  0  0  0  0  0  0
   56.1418   70.2261   22.5074 S   0  0  0  0  0  0  0  0  0  0  0  0
 27 28  1  0
 28 26  1  0
 16 26  1  0
 16 17  1  0
 17 18  1  0
 18  1  1  0
  1  2  2  0
  2  3  1  0
  2  4  1  0
  4  5  1  0
  5  6  2  0
  6  7  1  0
  7  8  2  0
  8  9  1  0
  9 10  1  0
 10 11  1  0
 18 19  1  0
 19 20  1  0
 19 21  1  0
 21 22  1  0
 21 16  1  0
  6  1  1  0
 10  5  1  0
 17 23  1  0
  4 12  1  0
  9 13  1  0
 11 14  1  0
 11 15  1  0
 20 24  1  0
 22 25  1  0
M  END
> <minimizedAffinity>
-6.55115

> <CNNscore>
0.7663329840

> <CNNaffinity>
8.1642980576

> <CNN_VS>
6.2565708160

> <CNNaffinity_variance>
1.8009843826

$$$$



 28 30  0  0  0  0  0  0  0  0999 V2000
   45.3783   76.7286   24.6678 C   0  0  0  0  0  0  0  0  0  0  0  0
   45.9995   77.8603   24.1749 C   0  0  0  0  0  0  0  0  0  0  0  0
   46.2397   78.4344   22.5919 Cl  0  0  0  0  0  0  0  0  0  0  0  0
   46.4754   78.6383   25.1912 N   0  0  0  0  0  0  0  0  0  0  0  0
   46.1981   78.0086   26.3723 C   0  0  0  0  0  0  0  0  0  0  0  0
   45.5124   76.8575   26.0727 C   0  0  0  0  0  0  0  0  0  0  0  0
   45.0411   75.9855   27.0582 N   0  0  0  0  0  0  0  0  0  0  0  0
   45.2119   76.4521   28.2568 C   0  0  0  0  0  0  0  0  0  0  0  0
   45.7649   77.6412   28.6708 N   0  0  0  0  0  0  0  0  0  0  0  0
   46.4922   78.4662   27.7451 C   0  0  0  0  0  0  0  0  0  0  0  0
   47.9253   78.4987   27.9495 N   0  0  0  0  0  0  0  0  0  0  0  0
   46.9375   79.5018   25.0908 H   0  0  0  0  0  0  0  0  0  0  0  0
   45.6622   77.9291   29.6066 H   0  0  0  0  0  0  0  0  0  0  0  0
   48.3108   77.5658   27.8035 H   0  0  0  0  0  0  0  0  0  0  0  0
   48.1260   78.8045   28.9017 H   0  0  0  0  0  0  0  0  0  0  0  0
   45.4748   73.5836   23.0178 C   0  0  0  0  0  0  0  0  0  0  0  0
   45.3434   74.3650   24.2591 N   0  0  0  0  0  0  0  0  0  0  0  0
   44.7126   75.6498   23.8766 C   0  0  0  0  0  0  0  0  0  0  0  0
   44.8304   75.7821   22.3465 C   0  0  0  0  0  0  0  0  0  0  0  0
   43.5430   75.5610   21.7310 O   0  0  0  0  0  0  0  0  0  0  0  0
   45.7678   74.6426   21.9460 C   0  0  0  0  0  0  0  0  0  0  0  0
   45.4529   74.2022   20.6204 O   0  0  0  0  0  0  0  0  0  0  0  0
   46.2617   74.5311   24.6709 H   0  0  0  0  0  0  0  0  0  0  0  0
   43.2067   74.6886   21.9892 H   0  0  0  0  0  0  0  0  0  0  0  0
   44.5169   73.9513   20.5768 H   0  0  0  0  0  0  0  0  0  0  0  0
   46.5826   72.5294   23.1571 C   0  0  0  0  0  0  0  0  0  0  0  0
   44.3424   70.9599   22.6724 C   0  0  0  0  0  0  0  0  0  0  0  0
   46.1433   70.8773   22.4980 S   0  0  0  0  0  0  0  0  0  0  0  0
 27 28  1  0
 28 26  1  0
 16 26  1  0
 16 17  1  0
 17 18  1  0
 18  1  1  0
  1  2  2  0
  2  3  1  0
  2  4  1  0
  4  5  1  0
  5  6  2  0
  6  7  1  0
  7  8  2  0
  8  9  1  0
  9 10  1  0
 10 11  1  0
 18 19  1  0
 19 20  1  0
 19 21  1  0
 21 22  1  0
 21 16  1  0
  6  1  1  0
 10  5  1  0
 17 23  1  0
  4 12  1  0
  9 13  1  0
 11 14  1  0
 11 15  1  0
 20 24  1  0
 22 25  1  0
M  END
> <minimizedAffinity>
-4.98299

> <CNNscore>
0.4736927152

> <CNNaffinity>
5.4416823387

> <CNN_VS>
2.5776853561

> <CNNaffinity_variance>
0.2926848829

$$$$



 28 30  0  0  0  0  0  0  0  0999 V2000
   57.4983   72.3100   21.7984 C   0  0  0  0  0  0  0  0  0  0  0  0
   58.7045   71.8570   22.2979 C   0  0  0  0  0  0  0  0  0  0  0  0
   60.2726   72.5158   22.2706 Cl  0  0  0  0  0  0  0  0  0  0  0  0
   58.5495   70.6621   22.9405 N   0  0  0  0  0  0  0  0  0  0  0  0
   57.2357   70.2970   22.8446 C   0  0  0  0  0  0  0  0  0  0  0  0
   56.5793   71.2982   22.1725 C   0  0  0  0  0  0  0  0  0  0  0  0
   55.2034   71.2630   21.9288 N   0  0  0  0  0  0  0  0  0  0  0  0
   54.6212   70.2618   22.5137 C   0  0  0  0  0  0  0  0  0  0  0  0
   55.1515   69.2758   23.3123 N   0  0  0  0  0  0  0  0  0  0  0  0
   56.5753   69.0991   23.4008 C   0  0  0  0  0  0  0  0  0  0  0  0
   57.0869   67.9140   22.7448 N   0  0  0  0  0  0  0  0  0  0  0  0
   59.2597   70.1527   23.3936 H   0  0  0  0  0  0  0  0  0  0  0  0
   54.5524   68.6876   23.8264 H   0  0  0  0  0  0  0  0  0  0  0  0
   56.9081   67.9763   21.7425 H   0  0  0  0  0  0  0  0  0  0  0  0
   56.6216   67.0886   23.1225 H   0  0  0  0  0  0  0  0  0  0  0  0
   55.2811   74.6457   20.2980 C   0  0  0  0  0  0  0  0  0  0  0  0
   55.9387   74.1084   21.5012 N   0  0  0  0  0  0  0  0  0  0  0  0
   57.2518   73.5845   21.0581 C   0  0  0  0  0  0  0  0  0  0  0  0
   57.2030   73.4601   19.5236 C   0  0  0  0  0  0  0  0  0  0  0  0
   57.9965   74.5035   18.9179 O   0  0  0  0  0  0  0  0  0  0  0  0
   55.7329   73.6985   19.1779 C   0  0  0  0  0  0  0  0  0  0  0  0
   55.6324   74.2820   17.8742 O   0  0  0  0  0  0  0  0  0  0  0  0
   55.3775   73.3588   21.9055 H   0  0  0  0  0  0  0  0  0  0  0  0
   57.6751   75.3687   19.2165 H   0  0  0  0  0  0  0  0  0  0  0  0
   56.1622   75.0939   17.8416 H   0  0  0  0  0  0  0  0  0  0  0  0
   53.7580   74.6885   20.4877 C   0  0  0  0  0  0  0  0  0  0  0  0
   52.4518   75.0813   18.0676 C   0  0  0  0  0  0  0  0  0  0  0  0
   52.9145   76.0163   19.5483 S   0  0  0  0  0  0  0  0  0  0  0  0
 27 28  1  0
 28 26  1  0
 16 26  1  0
 16 17  1  0
 17 18  1  0
 18  1  1  0
  1  2  2  0
  2  3  1  0
  2  4  1  0
  4  5  1  0
  5  6  2  0
  6  7  1  0
  7  8  2  0
  8  9  1  0
  9 10  1  0
 10 11  1  0
 18 19  1  0
 19 20  1  0
 19 21  1  0
 21 22  1  0
 21 16  1  0
  6  1  1  0
 10  5  1  0
 17 23  1  0
  4 12  1  0
  9 13  1  0
 11 14  1  0
 11 15  1  0
 20 24  1  0
 22 25  1  0
M  END
> <minimizedAffinity>
-4.87392

> <CNNscore>
0.2669927180

> <CNNaffinity>
6.8172659874

> <CNN_VS>
1.8201603889

> <CNNaffinity_variance>
0.1909431964

$$$$



 28 30  0  0  0  0  0  0  0  0999 V2000
   61.9560   66.0586   29.1477 C   0  0  0  0  0  0  0  0  0  0  0  0
   61.3270   66.4467   27.9801 C   0  0  0  0  0  0  0  0  0  0  0  0
   61.5688   67.7679   26.9364 Cl  0  0  0  0  0  0  0  0  0  0  0  0
   60.3488   65.5590   27.6338 N   0  0  0  0  0  0  0  0  0  0  0  0
   60.3016   64.5855   28.5921 C   0  0  0  0  0  0  0  0  0  0  0  0
   61.2865   64.8626   29.5077 C   0  0  0  0  0  0  0  0  0  0  0  0
   61.5404   64.0414   30.6099 N   0  0  0  0  0  0  0  0  0  0  0  0
   60.8391   62.9499   30.5877 C   0  0  0  0  0  0  0  0  0  0  0  0
   59.9232   62.5077   29.6623 N   0  0  0  0  0  0  0  0  0  0  0  0
   59.4266   63.3973   28.6481 C   0  0  0  0  0  0  0  0  0  0  0  0
   58.0510   63.8150   28.8204 N   0  0  0  0  0  0  0  0  0  0  0  0
   59.7775   65.6111   26.8337 H   0  0  0  0  0  0  0  0  0  0  0  0
   59.6056   61.5764   29.6945 H   0  0  0  0  0  0  0  0  0  0  0  0
   57.9643   64.3520   29.6833 H   0  0  0  0  0  0  0  0  0  0  0  0
   57.4496   62.9926   28.8699 H   0  0  0  0  0  0  0  0  0  0  0  0
   64.9740   65.9598   31.0199 C   0  0  0  0  0  0  0  0  0  0  0  0
   64.2769   65.8726   29.7256 N   0  0  0  0  0  0  0  0  0  0  0  0
   63.0888   66.7511   29.8335 C   0  0  0  0  0  0  0  0  0  0  0  0
   62.8735   67.0514   31.3288 C   0  0  0  0  0  0  0  0  0  0  0  0
   63.2627   68.4110   31.6207 O   0  0  0  0  0  0  0  0  0  0  0  0
   63.8369   66.1017   32.0411 C   0  0  0  0  0  0  0  0  0  0  0  0
   64.2623   66.6843   33.2780 O   0  0  0  0  0  0  0  0  0  0  0  0
   63.9898   64.9110   29.5431 H   0  0  0  0  0  0  0  0  0  0  0  0
   64.1868   68.5461   31.3587 H   0  0  0  0  0  0  0  0  0  0  0  0
   64.6519   67.5562   33.1077 H   0  0  0  0  0  0  0  0  0  0  0  0
   65.8506   64.7196   31.2466 C   0  0  0  0  0  0  0  0  0  0  0  0
   67.5712   66.8470   31.7271 C   0  0  0  0  0  0  0  0  0  0  0  0
   67.4628   65.0671   32.0447 S   0  0  0  0  0  0  0  0  0  0  0  0
 27 28  1  0
 28 26  1  0
 16 26  1  0
 16 17  1  0
 17 18  1  0
 18  1  1  0
  1  2  2  0
  2  3  1  0
  2  4  1  0
  4  5  1  0
  5  6  2  0
  6  7  1  0
  7  8  2  0
  8  9  1  0
  9 10  1  0
 10 11  1  0
 18 19  1  0
 19 20  1  0
 19 21  1  0
 21 22  1  0
 21 16  1  0
  6  1  1  0
 10  5  1  0
 17 23  1  0
  4 12  1  0
  9 13  1  0
 11 14  1  0
 11 15  1  0
 20 24  1  0
 22 25  1  0
M  END
> <minimizedAffinity>
-4.74119

> <CNNscore>
0.1913368702

> <CNNaffinity>
4.2738113403

> <CNN_VS>
0.8177376986

> <CNNaffinity_variance>
0.0099622430

$$$$



 28 30  0  0  0  0  0  0  0  0999 V2000
   45.8831   77.3980   25.9390 C   0  0  0  0  0  0  0  0  0  0  0  0
   45.3744   76.4038   26.7527 C   0  0  0  0  0  0  0  0  0  0  0  0
   45.1451   76.3100   28.4356 Cl  0  0  0  0  0  0  0  0  0  0  0  0
   44.9791   75.3241   26.0160 N   0  0  0  0  0  0  0  0  0  0  0  0
   45.2529   75.5844   24.7024 C   0  0  0  0  0  0  0  0  0  0  0  0
   45.7824   76.8494   24.6363 C   0  0  0  0  0  0  0  0  0  0  0  0
   46.1454   77.4498   23.4273 N   0  0  0  0  0  0  0  0  0  0  0  0
   45.8075   76.7364   22.3976 C   0  0  0  0  0  0  0  0  0  0  0  0
   45.1622   75.5235   22.3373 N   0  0  0  0  0  0  0  0  0  0  0  0
   44.9862   74.7336   23.5253 C   0  0  0  0  0  0  0  0  0  0  0  0
   45.8034   73.5403   23.5936 N   0  0  0  0  0  0  0  0  0  0  0  0
   44.5686   74.5019   26.3693 H   0  0  0  0  0  0  0  0  0  0  0  0
   44.8188   75.1943   21.4754 H   0  0  0  0  0  0  0  0  0  0  0  0
   46.7885   73.8037   23.6165 H   0  0  0  0  0  0  0  0  0  0  0  0
   45.6258   72.9593   22.7743 H   0  0  0  0  0  0  0  0  0  0  0  0
   46.0132   80.0665   28.2811 C   0  0  0  0  0  0  0  0  0  0  0  0
   46.4651   78.7347   27.8441 N   0  0  0  0  0  0  0  0  0  0  0  0
   46.3937   78.7365   26.3643 C   0  0  0  0  0  0  0  0  0  0  0  0
   45.5263   79.9392   25.9475 C   0  0  0  0  0  0  0  0  0  0  0  0
   46.3591   80.9802   25.3926 O   0  0  0  0  0  0  0  0  0  0  0  0
   44.9272   80.4388   27.2624 C   0  0  0  0  0  0  0  0  0  0  0  0
   44.6933   81.8492   27.1808 O   0  0  0  0  0  0  0  0  0  0  0  0
   45.8554   78.0118   28.2263 H   0  0  0  0  0  0  0  0  0  0  0  0
   47.0340   81.2344   26.0412 H   0  0  0  0  0  0  0  0  0  0  0  0
   45.5198   82.3010   26.9491 H   0  0  0  0  0  0  0  0  0  0  0  0
   45.5045   80.0167   29.7291 C   0  0  0  0  0  0  0  0  0  0  0  0
   43.5386   81.1448   31.3353 C   0  0  0  0  0  0  0  0  0  0  0  0
   45.0185   81.6436   30.4176 S   0  0  0  0  0  0  0  0  0  0  0  0
 27 28  1  0
 28 26  1  0
 16 26  1  0
 16 17  1  0
 17 18  1  0
 18  1  1  0
  1  2  2  0
  2  3  1  0
  2  4  1  0
  4  5  1  0
  5  6  2  0
  6  7  1  0
  7  8  2  0
  8  9  1  0
  9 10  1  0
 10 11  1  0
 18 19  1  0
 19 20  1  0
 19 21  1  0
 21 22  1  0
 21 16  1  0
  6  1  1  0
 10  5  1  0
 17 23  1  0
  4 12  1  0
  9 13  1  0
 11 14  1  0
 11 15  1  0
 20 24  1  0
 22 25  1  0
M  END
> <minimizedAffinity>
-5.04932

> <CNNscore>
0.1636162698

> <CNNaffinity>
4.7903480530

> <CNN_VS>
0.7837789059

> <CNNaffinity_variance>
0.4268893301

$$$$



 28 30  0  0  0  0  0  0  0  0999 V2000
   45.9045   80.7988   26.6591 C   0  0  0  0  0  0  0  0  0  0  0  0
   45.8389   81.8888   25.8123 C   0  0  0  0  0  0  0  0  0  0  0  0
   46.2740   82.0966   24.1811 Cl  0  0  0  0  0  0  0  0  0  0  0  0
   45.2986   82.9697   26.4483 N   0  0  0  0  0  0  0  0  0  0  0  0
   45.0285   82.6103   27.7391 C   0  0  0  0  0  0  0  0  0  0  0  0
   45.3706   81.2879   27.8773 C   0  0  0  0  0  0  0  0  0  0  0  0
   45.1898   80.5859   29.0724 N   0  0  0  0  0  0  0  0  0  0  0  0
   44.5566   81.2816   29.9659 C   0  0  0  0  0  0  0  0  0  0  0  0
   44.0550   82.5602   29.8968 N   0  0  0  0  0  0  0  0  0  0  0  0
   44.4180   83.4259   28.8081 C   0  0  0  0  0  0  0  0  0  0  0  0
   45.3097   84.5110   29.1601 N   0  0  0  0  0  0  0  0  0  0  0  0
   45.1327   83.8534   26.0472 H   0  0  0  0  0  0  0  0  0  0  0  0
   43.4438   82.8845   30.5971 H   0  0  0  0  0  0  0  0  0  0  0  0
   46.2003   84.1294   29.4790 H   0  0  0  0  0  0  0  0  0  0  0  0
   44.8912   85.0666   29.9061 H   0  0  0  0  0  0  0  0  0  0  0  0
   45.3791   77.5238   25.3858 C   0  0  0  0  0  0  0  0  0  0  0  0
   45.6513   78.9517   25.1494 N   0  0  0  0  0  0  0  0  0  0  0  0
   46.4084   79.4311   26.3292 C   0  0  0  0  0  0  0  0  0  0  0  0
   46.2421   78.3782   27.4410 C   0  0  0  0  0  0  0  0  0  0  0  0
   47.4687   77.6336   27.6037 O   0  0  0  0  0  0  0  0  0  0  0  0
   45.1644   77.4366   26.9030 C   0  0  0  0  0  0  0  0  0  0  0  0
   45.3707   76.1191   27.4247 O   0  0  0  0  0  0  0  0  0  0  0  0
   44.7763   79.4676   25.0577 H   0  0  0  0  0  0  0  0  0  0  0  0
   47.7134   77.2251   26.7586 H   0  0  0  0  0  0  0  0  0  0  0  0
   46.2691   75.8232   27.2097 H   0  0  0  0  0  0  0  0  0  0  0  0
   44.1648   77.0621   24.5671 C   0  0  0  0  0  0  0  0  0  0  0  0
   45.6549   75.4390   22.8754 C   0  0  0  0  0  0  0  0  0  0  0  0
   44.2464   75.3193   24.0079 S   0  0  0  0  0  0  0  0  0  0  0  0
 27 28  1  0
 28 26  1  0
 16 26  1  0
 16 17  1  0
 17 18  1  0
 18  1  1  0
  1  2  2  0
  2  3  1  0
  2  4  1  0
  4  5  1  0
  5  6  2  0
  6  7  1  0
  7  8  2  0
  8  9  1  0
  9 10  1  0
 10 11  1  0
 18 19  1  0
 19 20  1  0
 19 21  1  0
 21 22  1  0
 21 16  1  0
  6  1  1  0
 10  5  1  0
 17 23  1  0
  4 12  1  0
  9 13  1  0
 11 14  1  0
 11 15  1  0
 20 24  1  0
 22 25  1  0
M  END
> <minimizedAffinity>
-6.24738

> <CNNscore>
0.1393433958

> <CNNaffinity>
3.5286948681

> <CNN_VS>
0.4917003214

> <CNNaffinity_variance>
1.7053483725

$$$$



 28 30  0  0  0  0  0  0  0  0999 V2000
   57.9313   65.1811   23.7508 C   0  0  0  0  0  0  0  0  0  0  0  0
   56.7514   65.8234   23.4270 C   0  0  0  0  0  0  0  0  0  0  0  0
   55.7477   66.8802   24.3040 Cl  0  0  0  0  0  0  0  0  0  0  0  0
   56.3749   65.5371   22.1461 N   0  0  0  0  0  0  0  0  0  0  0  0
   57.2927   64.6728   21.6179 C   0  0  0  0  0  0  0  0  0  0  0  0
   58.2567   64.4636   22.5728 C   0  0  0  0  0  0  0  0  0  0  0  0
   59.3721   63.6514   22.3492 N   0  0  0  0  0  0  0  0  0  0  0  0
   59.4479   63.2393   21.1213 C   0  0  0  0  0  0  0  0  0  0  0  0
   58.6176   63.4880   20.0537 N   0  0  0  0  0  0  0  0  0  0  0  0
   57.3312   64.0958   20.2591 C   0  0  0  0  0  0  0  0  0  0  0  0
   56.1998   63.2112   20.0751 N   0  0  0  0  0  0  0  0  0  0  0  0
   55.5811   65.8913   21.6838 H   0  0  0  0  0  0  0  0  0  0  0  0
   58.9058   63.2484   19.1434 H   0  0  0  0  0  0  0  0  0  0  0  0
   56.2342   62.4660   20.7707 H   0  0  0  0  0  0  0  0  0  0  0  0
   56.2343   62.8052   19.1400 H   0  0  0  0  0  0  0  0  0  0  0  0
   60.9699   65.1110   25.5907 C   0  0  0  0  0  0  0  0  0  0  0  0
   60.0052   65.8470   24.7562 N   0  0  0  0  0  0  0  0  0  0  0  0
   58.6750   65.2617   25.0445 C   0  0  0  0  0  0  0  0  0  0  0  0
   58.9094   63.9172   25.7585 C   0  0  0  0  0  0  0  0  0  0  0  0
   58.5855   64.0392   27.1604 O   0  0  0  0  0  0  0  0  0  0  0  0
   60.4137   63.6807   25.6213 C   0  0  0  0  0  0  0  0  0  0  0  0
   60.8859   62.9182   26.7375 O   0  0  0  0  0  0  0  0  0  0  0  0
   60.2342   65.7342   23.7687 H   0  0  0  0  0  0  0  0  0  0  0  0
   59.1157   64.7498   27.5540 H   0  0  0  0  0  0  0  0  0  0  0  0
   60.6508   63.3721   27.5618 H   0  0  0  0  0  0  0  0  0  0  0  0
   62.3826   65.2069   24.9965 C   0  0  0  0  0  0  0  0  0  0  0  0
   63.2777   64.5587   22.4479 C   0  0  0  0  0  0  0  0  0  0  0  0
   62.8945   63.7439   24.0195 S   0  0  0  0  0  0  0  0  0  0  0  0
 27 28  1  0
 28 26  1  0
 16 26  1  0
 16 17  1  0
 17 18  1  0
 18  1  1  0
  1  2  2  0
  2  3  1  0
  2  4  1  0
  4  5  1  0
  5  6  2  0
  6  7  1  0
  7  8  2  0
  8  9  1  0
  9 10  1  0
 10 11  1  0
 18 19  1  0
 19 20  1  0
 19 21  1  0
 21 22  1  0
 21 16  1  0
  6  1  1  0
 10  5  1  0
 17 23  1  0
  4 12  1  0
  9 13  1  0
 11 14  1  0
 11 15  1  0
 20 24  1  0
 22 25  1  0
M  END
> <minimizedAffinity>
-4.50041

> <CNNscore>
0.1351487786

> <CNNaffinity>
4.2491478920

> <CNN_VS>
0.5742671490

> <CNNaffinity_variance>
0.2458203584

$$$$



 28 30  0  0  0  0  0  0  0  0999 V2000
   62.5875   66.1180   28.3960 C   0  0  0  0  0  0  0  0  0  0  0  0
   61.7920   67.0051   29.0960 C   0  0  0  0  0  0  0  0  0  0  0  0
   60.3152   67.7596   28.7176 Cl  0  0  0  0  0  0  0  0  0  0  0  0
   62.3277   67.2794   30.3218 N   0  0  0  0  0  0  0  0  0  0  0  0
   63.5058   66.5952   30.4319 C   0  0  0  0  0  0  0  0  0  0  0  0
   63.6673   65.8675   29.2789 C   0  0  0  0  0  0  0  0  0  0  0  0
   64.7597   65.0203   29.0718 N   0  0  0  0  0  0  0  0  0  0  0  0
   65.5090   64.9100   30.1252 C   0  0  0  0  0  0  0  0  0  0  0  0
   65.3761   65.4848   31.3674 N   0  0  0  0  0  0  0  0  0  0  0  0
   64.4358   66.5516   31.5781 C   0  0  0  0  0  0  0  0  0  0  0  0
   65.0269   67.8588   31.7738 N   0  0  0  0  0  0  0  0  0  0  0  0
   61.9341   67.8673   31.0064 H   0  0  0  0  0  0  0  0  0  0  0  0
   65.9281   65.1639   32.1167 H   0  0  0  0  0  0  0  0  0  0  0  0
   65.5279   68.1352   30.9294 H   0  0  0  0  0  0  0  0  0  0  0  0
   65.6771   67.8239   32.5589 H   0  0  0  0  0  0  0  0  0  0  0  0
   61.6045   63.4384   26.2803 C   0  0  0  0  0  0  0  0  0  0  0  0
   61.2428   64.5595   27.1641 N   0  0  0  0  0  0  0  0  0  0  0  0
   62.3297   65.5580   27.0348 C   0  0  0  0  0  0  0  0  0  0  0  0
   63.5269   64.8509   26.3721 C   0  0  0  0  0  0  0  0  0  0  0  0
   63.6637   65.2894   25.0031 O   0  0  0  0  0  0  0  0  0  0  0  0
   63.1350   63.3731   26.3769 C   0  0  0  0  0  0  0  0  0  0  0  0
   63.7403   62.7098   25.2616 O   0  0  0  0  0  0  0  0  0  0  0  0
   61.1705   64.2391   28.1297 H   0  0  0  0  0  0  0  0  0  0  0  0
   62.8377   65.1175   24.5245 H   0  0  0  0  0  0  0  0  0  0  0  0
   63.4891   63.1621   24.4411 H   0  0  0  0  0  0  0  0  0  0  0  0
   60.9060   62.1474   26.7311 C   0  0  0  0  0  0  0  0  0  0  0  0
   58.9784   60.9373   28.3239 C   0  0  0  0  0  0  0  0  0  0  0  0
   60.2862   62.1835   28.4549 S   0  0  0  0  0  0  0  0  0  0  0  0
 27 28  1  0
 28 26  1  0
 16 26  1  0
 16 17  1  0
 17 18  1  0
 18  1  1  0
  1  2  2  0
  2  3  1  0
  2  4  1  0
  4  5  1  0
  5  6  2  0
  6  7  1  0
  7  8  2  0
  8  9  1  0
  9 10  1  0
 10 11  1  0
 18 19  1  0
 19 20  1  0
 19 21  1  0
 21 22  1  0
 21 16  1  0
  6  1  1  0
 10  5  1  0
 17 23  1  0
  4 12  1  0
  9 13  1  0
 11 14  1  0
 11 15  1  0
 20 24  1  0
 22 25  1  0
M  END
> <minimizedAffinity>
-4.33857

> <CNNscore>
0.1345542520

> <CNNaffinity>
4.4023742676

> <CNN_VS>
0.5923581719

> <CNNaffinity_variance>
0.2134187818

$$$$



 28 30  0  0  0  0  0  0  0  0999 V2000
   62.9271   66.8807   29.1425 C   0  0  0  0  0  0  0  0  0  0  0  0
   61.5799   67.1878   29.1638 C   0  0  0  0  0  0  0  0  0  0  0  0
   60.3881   67.1860   27.9502 Cl  0  0  0  0  0  0  0  0  0  0  0  0
   61.1773   67.5327   30.4222 N   0  0  0  0  0  0  0  0  0  0  0  0
   62.2686   67.4859   31.2438 C   0  0  0  0  0  0  0  0  0  0  0  0
   63.3355   67.0702   30.4862 C   0  0  0  0  0  0  0  0  0  0  0  0
   64.6109   66.8793   31.0252 N   0  0  0  0  0  0  0  0  0  0  0  0
   64.6295   67.0124   32.3157 C   0  0  0  0  0  0  0  0  0  0  0  0
   63.6059   67.2978   33.1886 N   0  0  0  0  0  0  0  0  0  0  0  0
   62.3345   67.7519   32.6949 C   0  0  0  0  0  0  0  0  0  0  0  0
   62.0434   69.1478   32.9463 N   0  0  0  0  0  0  0  0  0  0  0  0
   60.2611   67.7731   30.6906 H   0  0  0  0  0  0  0  0  0  0  0  0
   63.7447   67.1906   34.1573 H   0  0  0  0  0  0  0  0  0  0  0  0
   62.7210   69.7304   32.4545 H   0  0  0  0  0  0  0  0  0  0  0  0
   62.1002   69.3319   33.9479 H   0  0  0  0  0  0  0  0  0  0  0  0
   63.1401   65.4779   25.8852 C   0  0  0  0  0  0  0  0  0  0  0  0
   62.8981   66.6409   26.7557 N   0  0  0  0  0  0  0  0  0  0  0  0
   63.7309   66.4362   27.9637 C   0  0  0  0  0  0  0  0  0  0  0  0
   64.1651   64.9584   27.9777 C   0  0  0  0  0  0  0  0  0  0  0  0
   65.5620   64.8506   27.6283 O   0  0  0  0  0  0  0  0  0  0  0  0
   63.3312   64.3155   26.8692 C   0  0  0  0  0  0  0  0  0  0  0  0
   64.0487   63.2129   26.3035 O   0  0  0  0  0  0  0  0  0  0  0  0
   61.9118   66.6917   27.0111 H   0  0  0  0  0  0  0  0  0  0  0  0
   65.7108   65.2583   26.7609 H   0  0  0  0  0  0  0  0  0  0  0  0
   64.9159   63.5168   25.9927 H   0  0  0  0  0  0  0  0  0  0  0  0
   61.9666   65.2743   24.9160 C   0  0  0  0  0  0  0  0  0  0  0  0
   59.1919   65.2809   25.0512 C   0  0  0  0  0  0  0  0  0  0  0  0
   60.5927   64.2673   25.5908 S   0  0  0  0  0  0  0  0  0  0  0  0
 27 28  1  0
 28 26  1  0
 16 26  1  0
 16 17  1  0
 17 18  1  0
 18  1  1  0
  1  2  2  0
  2  3  1  0
  2  4  1  0
  4  5  1  0
  5  6  2  0
  6  7  1  0
  7  8  2  0
  8  9  1  0
  9 10  1  0
 10 11  1  0
 18 19  1  0
 19 20  1  0
 19 21  1  0
 21 22  1  0
 21 16  1  0
  6  1  1  0
 10  5  1  0
 17 23  1  0
  4 12  1  0
  9 13  1  0
 11 14  1  0
 11 15  1  0
 20 24  1  0
 22 25  1  0
M  END
> <minimizedAffinity>
-5.57203

> <CNNscore>
0.1096377969

> <CNNaffinity>
5.0284342766

> <CNN_VS>
0.5513064265

> <CNNaffinity_variance>
0.0722003505

$$$$
