


 42 46  0  0  0  0  0  0  0  0999 V2000
   12.7703   47.7883   61.1619 C   0  0  0  0  0  0  0  0  0  0  0  0
   11.8557   47.0059   61.8735 C   0  0  0  0  0  0  0  0  0  0  0  0
   11.9253   46.9244   63.2752 C   0  0  0  0  0  0  0  0  0  0  0  0
   12.9319   47.5951   63.9689 C   0  0  0  0  0  0  0  0  0  0  0  0
   12.9613   47.4843   65.3249 O   0  0  0  0  0  0  0  0  0  0  0  0
   13.8636   48.3331   63.2642 C   0  0  0  0  0  0  0  0  0  0  0  0
   13.7650   48.4368   61.8682 C   0  0  0  0  0  0  0  0  0  0  0  0
   14.7410   49.2576   61.3420 O   0  0  0  0  0  0  0  0  0  0  0  0
   15.4300   49.7903   62.4277 C   0  0  0  0  0  0  0  0  0  0  0  0
   16.0628   50.9696   62.3948 C   0  0  0  0  0  0  0  0  0  0  0  0
   16.4344   51.5966   63.6473 C   0  0  0  0  0  0  0  0  0  0  0  0
   17.3376   52.6306   63.5517 O   0  0  0  0  0  0  0  0  0  0  0  0
   15.8735   51.2352   64.8170 C   0  0  0  0  0  0  0  0  0  0  0  0
   14.9419   50.0639   64.8281 C   0  0  0  0  0  0  0  0  0  0  0  0
   14.1134   49.9173   65.7290 O   0  0  0  0  0  0  0  0  0  0  0  0
   15.1088   49.0440   63.7078 C   0  0  0  0  0  0  0  0  0  0  0  0
   16.2062   48.0403   64.0783 C   0  0  0  0  0  0  0  0  0  0  0  0
   12.3116   46.9744   65.7675 H   0  0  0  0  0  0  0  0  0  0  0  0
   17.7077   52.8541   62.7204 H   0  0  0  0  0  0  0  0  0  0  0  0
   11.5047   48.3770   59.2219 N   0  0  0  0  0  0  0  0  0  0  0  0
   12.6991   47.8921   59.7004 C   0  0  0  0  0  0  0  0  0  0  0  0
   13.6499   47.5376   59.0152 O   0  0  0  0  0  0  0  0  0  0  0  0
   10.8397   48.7268   59.8580 H   0  0  0  0  0  0  0  0  0  0  0  0
   11.2008   48.3864   57.8094 C   0  0  0  0  0  0  0  0  0  0  0  0
    9.3261   49.9041   57.0132 C   0  0  0  0  0  0  0  0  0  0  0  0
    7.9636   50.1533   56.8017 C   0  0  0  0  0  0  0  0  0  0  0  0
    7.0027   49.1977   57.1183 C   0  0  0  0  0  0  0  0  0  0  0  0
    7.3713   47.9624   57.6547 C   0  0  0  0  0  0  0  0  0  0  0  0
    6.3762   47.0116   57.9370 C   0  0  0  0  0  0  0  0  0  0  0  0
    6.7127   45.7651   58.4533 C   0  0  0  0  0  0  0  0  0  0  0  0
    5.4806   44.6087   58.7800 Cl  0  0  0  0  0  0  0  0  0  0  0  0
    8.0397   45.4481   58.6960 C   0  0  0  0  0  0  0  0  0  0  0  0
    9.0381   46.3892   58.4220 C   0  0  0  0  0  0  0  0  0  0  0  0
    8.7395   47.6727   57.8974 C   0  0  0  0  0  0  0  0  0  0  0  0
    9.7249   48.6699   57.5898 C   0  0  0  0  0  0  0  0  0  0  0  0
   10.6536   50.9315   55.1310 C   0  0  0  0  0  0  0  0  0  0  0  0
   10.3047   50.9916   56.6115 C   0  0  0  0  0  0  0  0  0  0  0  0
   16.2493   51.8978   66.0841 C   0  0  0  0  0  0  0  0  0  0  0  0
   15.4698   53.1093   66.5207 C   0  0  0  0  0  0  0  0  0  0  0  0
   17.1832   51.4525   66.7505 O   0  0  0  0  0  0  0  0  0  0  0  0
   10.8295   46.3863   61.2080 O   0  0  0  0  0  0  0  0  0  0  0  0
   10.2234   45.3865   62.0318 C   0  0  0  0  0  0  0  0  0  0  0  0
 36 37  1  0
 37 25  1  0
 25 26  2  0
 26 27  1  0
 27 28  2  0
 28 29  1  0
 29 30  2  0
 30 31  1  0
 30 32  1  0
 32 33  2  0
 33 34  1  0
 34 35  2  0
 35 24  1  0
 24 20  1  0
 20 21  1  0
 21 22  2  0
 21  1  1  0
  1  2  2  0
  2 41  1  0
 41 42  1  0
  2  3  1  0
  3  4  2  0
  4  5  1  0
  4  6  1  0
  6  7  2  0
  7  8  1  0
  8  9  1  0
  9 10  2  0
 10 11  1  0
 11 12  1  0
 11 13  2  0
 13 38  1  0
 38 39  1  0
 38 40  2  0
 13 14  1  0
 14 15  2  0
 14 16  1  0
 16 17  1  0
 35 25  1  0
  7  1  1  0
 16  9  1  0
 34 28  1  0
 16  6  1  0
 20 23  1  0
  5 18  1  0
 12 19  1  0
M  END
> <minimizedAffinity>
-10.81462

> <CNNscore>
0.8437522650

> <CNNaffinity>
7.5981273651

> <CNN_VS>
6.4109373093

> <CNNaffinity_variance>
0.1108167395

$$$$



 42 46  0  0  0  0  0  0  0  0999 V2000
   12.1292   47.3731   60.8094 C   0  0  0  0  0  0  0  0  0  0  0  0
   11.2989   46.6006   61.6272 C   0  0  0  0  0  0  0  0  0  0  0  0
   11.5414   46.5114   63.0090 C   0  0  0  0  0  0  0  0  0  0  0  0
   12.6366   47.1641   63.5738 C   0  0  0  0  0  0  0  0  0  0  0  0
   12.8330   47.0463   64.9152 O   0  0  0  0  0  0  0  0  0  0  0  0
   13.4841   47.8919   62.7607 C   0  0  0  0  0  0  0  0  0  0  0  0
   13.2139   48.0038   61.3882 C   0  0  0  0  0  0  0  0  0  0  0  0
   14.1288   48.8128   60.7469 O   0  0  0  0  0  0  0  0  0  0  0  0
   14.9556   49.3303   61.7397 C   0  0  0  0  0  0  0  0  0  0  0  0
   15.5970   50.5005   61.6317 C   0  0  0  0  0  0  0  0  0  0  0  0
   16.1311   51.1159   62.8300 C   0  0  0  0  0  0  0  0  0  0  0  0
   17.0308   52.1372   62.6256 O   0  0  0  0  0  0  0  0  0  0  0  0
   15.7151   50.7570   64.0593 C   0  0  0  0  0  0  0  0  0  0  0  0
   14.7747   49.5993   64.1831 C   0  0  0  0  0  0  0  0  0  0  0  0
   14.0628   49.4604   65.1798 O   0  0  0  0  0  0  0  0  0  0  0  0
   14.7853   48.5826   63.0476 C   0  0  0  0  0  0  0  0  0  0  0  0
   15.9052   47.5613   63.2754 C   0  0  0  0  0  0  0  0  0  0  0  0
   12.2360   46.5438   65.4338 H   0  0  0  0  0  0  0  0  0  0  0  0
   17.2977   52.3593   61.7553 H   0  0  0  0  0  0  0  0  0  0  0  0
   10.5795   47.7955   59.0398 N   0  0  0  0  0  0  0  0  0  0  0  0
   11.8780   47.4850   59.3686 C   0  0  0  0  0  0  0  0  0  0  0  0
   12.7859   47.2833   58.5721 O   0  0  0  0  0  0  0  0  0  0  0  0
    9.9476   48.0351   59.7557 H   0  0  0  0  0  0  0  0  0  0  0  0
   10.1187   47.7791   57.6705 C   0  0  0  0  0  0  0  0  0  0  0  0
    7.7434   47.0135   58.1435 C   0  0  0  0  0  0  0  0  0  0  0  0
    6.3598   47.2306   58.1023 C   0  0  0  0  0  0  0  0  0  0  0  0
    5.8347   48.4105   57.5839 C   0  0  0  0  0  0  0  0  0  0  0  0
    6.6738   49.4119   57.0914 C   0  0  0  0  0  0  0  0  0  0  0  0
    6.1095   50.6012   56.6003 C   0  0  0  0  0  0  0  0  0  0  0  0
    6.9192   51.6251   56.1212 C   0  0  0  0  0  0  0  0  0  0  0  0
    6.2098   53.0799   55.5362 Cl  0  0  0  0  0  0  0  0  0  0  0  0
    8.2974   51.4805   56.1231 C   0  0  0  0  0  0  0  0  0  0  0  0
    8.8693   50.2985   56.6063 C   0  0  0  0  0  0  0  0  0  0  0  0
    8.0813   49.2284   57.1018 C   0  0  0  0  0  0  0  0  0  0  0  0
    8.6171   48.0006   57.6171 C   0  0  0  0  0  0  0  0  0  0  0  0
    7.1725   44.6159   58.6782 C   0  0  0  0  0  0  0  0  0  0  0  0
    8.2273   45.7110   58.7524 C   0  0  0  0  0  0  0  0  0  0  0  0
   16.2557   51.4080   65.2717 C   0  0  0  0  0  0  0  0  0  0  0  0
   15.5615   52.6350   65.7993 C   0  0  0  0  0  0  0  0  0  0  0  0
   17.2534   50.9407   65.8203 O   0  0  0  0  0  0  0  0  0  0  0  0
   10.1886   45.9992   61.0930 O   0  0  0  0  0  0  0  0  0  0  0  0
    9.9806   44.7109   61.6783 C   0  0  0  0  0  0  0  0  0  0  0  0
 36 37  1  0
 37 25  1  0
 25 26  2  0
 26 27  1  0
 27 28  2  0
 28 29  1  0
 29 30  2  0
 30 31  1  0
 30 32  1  0
 32 33  2  0
 33 34  1  0
 34 35  2  0
 35 24  1  0
 24 20  1  0
 20 21  1  0
 21 22  2  0
 21  1  1  0
  1  2  2  0
  2 41  1  0
 41 42  1  0
  2  3  1  0
  3  4  2  0
  4  5  1  0
  4  6  1  0
  6  7  2  0
  7  8  1  0
  8  9  1  0
  9 10  2  0
 10 11  1  0
 11 12  1  0
 11 13  2  0
 13 38  1  0
 38 39  1  0
 38 40  2  0
 13 14  1  0
 14 15  2  0
 14 16  1  0
 16 17  1  0
 35 25  1  0
  7  1  1  0
 16  9  1  0
 34 28  1  0
 16  6  1  0
 20 23  1  0
  5 18  1  0
 12 19  1  0
M  END
> <minimizedAffinity>
-10.68632

> <CNNscore>
0.8275131583

> <CNNaffinity>
7.5929121971

> <CNN_VS>
6.2832345963

> <CNNaffinity_variance>
0.1635152549

$$$$



 42 46  0  0  0  0  0  0  0  0999 V2000
   16.8246   51.7552   63.1090 C   0  0  0  0  0  0  0  0  0  0  0  0
   16.7741   51.8120   64.5051 C   0  0  0  0  0  0  0  0  0  0  0  0
   17.5330   52.7637   65.2084 C   0  0  0  0  0  0  0  0  0  0  0  0
   18.3739   53.6386   64.5215 C   0  0  0  0  0  0  0  0  0  0  0  0
   19.0915   54.5407   65.2448 O   0  0  0  0  0  0  0  0  0  0  0  0
   18.4590   53.5550   63.1449 C   0  0  0  0  0  0  0  0  0  0  0  0
   17.6713   52.6251   62.4492 C   0  0  0  0  0  0  0  0  0  0  0  0
   17.8426   52.7235   61.0839 O   0  0  0  0  0  0  0  0  0  0  0  0
   18.6807   53.8146   60.8733 C   0  0  0  0  0  0  0  0  0  0  0  0
   18.6753   54.5448   59.7512 C   0  0  0  0  0  0  0  0  0  0  0  0
   19.3082   55.8483   59.7648 C   0  0  0  0  0  0  0  0  0  0  0  0
   19.5423   56.4105   58.5305 O   0  0  0  0  0  0  0  0  0  0  0  0
   19.5803   56.4945   60.9144 C   0  0  0  0  0  0  0  0  0  0  0  0
   19.3398   55.7796   62.2071 C   0  0  0  0  0  0  0  0  0  0  0  0
   19.1874   56.4016   63.2604 O   0  0  0  0  0  0  0  0  0  0  0  0
   19.3490   54.2562   62.1606 C   0  0  0  0  0  0  0  0  0  0  0  0
   20.7890   53.7420   62.2659 C   0  0  0  0  0  0  0  0  0  0  0  0
   19.0068   54.5670   66.1775 H   0  0  0  0  0  0  0  0  0  0  0  0
   19.3404   55.9308   57.7513 H   0  0  0  0  0  0  0  0  0  0  0  0
   16.1272   49.4863   62.8306 N   0  0  0  0  0  0  0  0  0  0  0  0
   16.0267   50.7757   62.3636 C   0  0  0  0  0  0  0  0  0  0  0  0
   15.3642   51.1342   61.3983 O   0  0  0  0  0  0  0  0  0  0  0  0
   16.6079   49.3174   63.6730 H   0  0  0  0  0  0  0  0  0  0  0  0
   15.5453   48.3731   62.1168 C   0  0  0  0  0  0  0  0  0  0  0  0
   13.0828   48.0141   61.6080 C   0  0  0  0  0  0  0  0  0  0  0  0
   11.7677   47.7898   62.0364 C   0  0  0  0  0  0  0  0  0  0  0  0
   11.4669   47.6607   63.3890 C   0  0  0  0  0  0  0  0  0  0  0  0
   12.4692   47.7499   64.3569 C   0  0  0  0  0  0  0  0  0  0  0  0
   12.1328   47.5876   65.7113 C   0  0  0  0  0  0  0  0  0  0  0  0
   13.1111   47.6513   66.6974 C   0  0  0  0  0  0  0  0  0  0  0  0
   12.6814   47.4367   68.3500 Cl  0  0  0  0  0  0  0  0  0  0  0  0
   14.4337   47.8774   66.3512 C   0  0  0  0  0  0  0  0  0  0  0  0
   14.7789   48.0443   65.0056 C   0  0  0  0  0  0  0  0  0  0  0  0
   13.8133   47.9892   63.9682 C   0  0  0  0  0  0  0  0  0  0  0  0
   14.1151   48.1438   62.5735 C   0  0  0  0  0  0  0  0  0  0  0  0
   12.0279   48.0190   59.3172 C   0  0  0  0  0  0  0  0  0  0  0  0
   13.3221   48.1128   60.1131 C   0  0  0  0  0  0  0  0  0  0  0  0
   20.2089   57.8327   60.9111 C   0  0  0  0  0  0  0  0  0  0  0  0
   19.3185   59.0453   60.8601 C   0  0  0  0  0  0  0  0  0  0  0  0
   21.4353   57.9295   60.9481 O   0  0  0  0  0  0  0  0  0  0  0  0
   15.9108   50.9941   65.1875 O   0  0  0  0  0  0  0  0  0  0  0  0
   15.1814   51.7355   66.1692 C   0  0  0  0  0  0  0  0  0  0  0  0
 36 37  1  0
 37 25  1  0
 25 26  2  0
 26 27  1  0
 27 28  2  0
 28 29  1  0
 29 30  2  0
 30 31  1  0
 30 32  1  0
 32 33  2  0
 33 34  1  0
 34 35  2  0
 35 24  1  0
 24 20  1  0
 20 21  1  0
 21 22  2  0
 21  1  1  0
  1  2  2  0
  2 41  1  0
 41 42  1  0
  2  3  1  0
  3  4  2  0
  4  5  1  0
  4  6  1  0
  6  7  2  0
  7  8  1  0
  8  9  1  0
  9 10  2  0
 10 11  1  0
 11 12  1  0
 11 13  2  0
 13 38  1  0
 38 39  1  0
 38 40  2  0
 13 14  1  0
 14 15  2  0
 14 16  1  0
 16 17  1  0
 35 25  1  0
  7  1  1  0
 16  9  1  0
 34 28  1  0
 16  6  1  0
 20 23  1  0
  5 18  1  0
 12 19  1  0
M  END
> <minimizedAffinity>
-8.48611

> <CNNscore>
0.6158463955

> <CNNaffinity>
6.5540928841

> <CNN_VS>
4.0363144875

> <CNNaffinity_variance>
0.2141674310

$$$$



 42 46  0  0  0  0  0  0  0  0999 V2000
   12.2833   47.2781   60.9914 C   0  0  0  0  0  0  0  0  0  0  0  0
   11.2441   46.8693   61.8326 C   0  0  0  0  0  0  0  0  0  0  0  0
   11.3502   47.0256   63.2257 C   0  0  0  0  0  0  0  0  0  0  0  0
   12.5108   47.5574   63.7866 C   0  0  0  0  0  0  0  0  0  0  0  0
   12.5694   47.6869   65.1400 O   0  0  0  0  0  0  0  0  0  0  0  0
   13.5569   47.9210   62.9603 C   0  0  0  0  0  0  0  0  0  0  0  0
   13.4278   47.7937   61.5688 C   0  0  0  0  0  0  0  0  0  0  0  0
   14.5431   48.2581   60.9029 O   0  0  0  0  0  0  0  0  0  0  0  0
   15.3792   48.8017   61.8739 C   0  0  0  0  0  0  0  0  0  0  0  0
   16.2627   49.7766   61.6266 C   0  0  0  0  0  0  0  0  0  0  0  0
   16.8184   50.5137   62.7437 C   0  0  0  0  0  0  0  0  0  0  0  0
   17.9292   51.2758   62.4620 O   0  0  0  0  0  0  0  0  0  0  0  0
   16.2380   50.5071   63.9588 C   0  0  0  0  0  0  0  0  0  0  0  0
   15.0648   49.6052   64.1826 C   0  0  0  0  0  0  0  0  0  0  0  0
   14.2621   49.8182   65.0936 O   0  0  0  0  0  0  0  0  0  0  0  0
   14.9485   48.3912   63.2684 C   0  0  0  0  0  0  0  0  0  0  0  0
   15.8019   47.2431   63.8186 C   0  0  0  0  0  0  0  0  0  0  0  0
   11.8390   47.4291   65.6673 H   0  0  0  0  0  0  0  0  0  0  0  0
   18.3064   51.2551   61.6045 H   0  0  0  0  0  0  0  0  0  0  0  0
   10.8890   47.0984   59.0587 N   0  0  0  0  0  0  0  0  0  0  0  0
   12.1783   47.1328   59.5356 C   0  0  0  0  0  0  0  0  0  0  0  0
   13.1920   47.0311   58.8564 O   0  0  0  0  0  0  0  0  0  0  0  0
   10.1446   47.2872   59.6747 H   0  0  0  0  0  0  0  0  0  0  0  0
   10.5989   46.7925   57.6768 C   0  0  0  0  0  0  0  0  0  0  0  0
   11.5181   48.4510   55.9868 C   0  0  0  0  0  0  0  0  0  0  0  0
   11.3889   49.6264   55.2351 C   0  0  0  0  0  0  0  0  0  0  0  0
   10.2397   50.4069   55.3176 C   0  0  0  0  0  0  0  0  0  0  0  0
    9.1824   50.0385   56.1517 C   0  0  0  0  0  0  0  0  0  0  0  0
    8.0266   50.8364   56.1891 C   0  0  0  0  0  0  0  0  0  0  0  0
    6.9488   50.4858   56.9947 C   0  0  0  0  0  0  0  0  0  0  0  0
    5.5363   51.4688   57.0168 Cl  0  0  0  0  0  0  0  0  0  0  0  0
    7.0057   49.3404   57.7726 C   0  0  0  0  0  0  0  0  0  0  0  0
    8.1536   48.5409   57.7456 C   0  0  0  0  0  0  0  0  0  0  0  0
    9.2763   48.8622   56.9407 C   0  0  0  0  0  0  0  0  0  0  0  0
   10.4726   48.0724   56.8689 C   0  0  0  0  0  0  0  0  0  0  0  0
   13.3200   47.7109   54.3850 C   0  0  0  0  0  0  0  0  0  0  0  0
   12.7932   47.6477   55.8117 C   0  0  0  0  0  0  0  0  0  0  0  0
   16.8064   51.2799   65.0837 C   0  0  0  0  0  0  0  0  0  0  0  0
   16.1565   52.5842   65.4612 C   0  0  0  0  0  0  0  0  0  0  0  0
   17.7907   50.8481   65.6833 O   0  0  0  0  0  0  0  0  0  0  0  0
   10.0773   46.3960   61.2901 O   0  0  0  0  0  0  0  0  0  0  0  0
    9.9041   45.0093   61.5945 C   0  0  0  0  0  0  0  0  0  0  0  0
 36 37  1  0
 37 25  1  0
 25 26  2  0
 26 27  1  0
 27 28  2  0
 28 29  1  0
 29 30  2  0
 30 31  1  0
 30 32  1  0
 32 33  2  0
 33 34  1  0
 34 35  2  0
 35 24  1  0
 24 20  1  0
 20 21  1  0
 21 22  2  0
 21  1  1  0
  1  2  2  0
  2 41  1  0
 41 42  1  0
  2  3  1  0
  3  4  2  0
  4  5  1  0
  4  6  1  0
  6  7  2  0
  7  8  1  0
  8  9  1  0
  9 10  2  0
 10 11  1  0
 11 12  1  0
 11 13  2  0
 13 38  1  0
 38 39  1  0
 38 40  2  0
 13 14  1  0
 14 15  2  0
 14 16  1  0
 16 17  1  0
 35 25  1  0
  7  1  1  0
 16  9  1  0
 34 28  1  0
 16  6  1  0
 20 23  1  0
  5 18  1  0
 12 19  1  0
M  END
> <minimizedAffinity>
-8.88119

> <CNNscore>
0.6058650017

> <CNNaffinity>
7.2078881264

> <CNN_VS>
4.3670072556

> <CNNaffinity_variance>
0.1586483866

$$$$



 42 46  0  0  0  0  0  0  0  0999 V2000
   15.2438   50.4653   68.1593 C   0  0  0  0  0  0  0  0  0  0  0  0
   15.3819   49.4511   69.1117 C   0  0  0  0  0  0  0  0  0  0  0  0
   15.1114   49.7041   70.4679 C   0  0  0  0  0  0  0  0  0  0  0  0
   14.7373   50.9815   70.8833 C   0  0  0  0  0  0  0  0  0  0  0  0
   14.4887   51.1798   72.2064 O   0  0  0  0  0  0  0  0  0  0  0  0
   14.6432   51.9964   69.9502 C   0  0  0  0  0  0  0  0  0  0  0  0
   14.8812   51.7258   68.5940 C   0  0  0  0  0  0  0  0  0  0  0  0
   14.6847   52.8394   67.8039 O   0  0  0  0  0  0  0  0  0  0  0  0
   14.2027   53.8362   68.6473 C   0  0  0  0  0  0  0  0  0  0  0  0
   13.4249   54.8435   68.2317 C   0  0  0  0  0  0  0  0  0  0  0  0
   12.6903   55.6097   69.2183 C   0  0  0  0  0  0  0  0  0  0  0  0
   12.1639   56.8020   68.7762 O   0  0  0  0  0  0  0  0  0  0  0  0
   12.4775   55.1457   70.4643 C   0  0  0  0  0  0  0  0  0  0  0  0
   13.1356   53.8639   70.8689 C   0  0  0  0  0  0  0  0  0  0  0  0
   12.6987   53.1909   71.8047 O   0  0  0  0  0  0  0  0  0  0  0  0
   14.3942   53.4682   70.1056 C   0  0  0  0  0  0  0  0  0  0  0  0
   15.6140   54.1651   70.7184 C   0  0  0  0  0  0  0  0  0  0  0  0
   14.5630   50.4663   72.8091 H   0  0  0  0  0  0  0  0  0  0  0  0
   12.3333   57.0935   67.9019 H   0  0  0  0  0  0  0  0  0  0  0  0
   14.5941   49.3859   66.1285 N   0  0  0  0  0  0  0  0  0  0  0  0
   15.5099   50.2097   66.7396 C   0  0  0  0  0  0  0  0  0  0  0  0
   16.4965   50.6991   66.2046 O   0  0  0  0  0  0  0  0  0  0  0  0
   13.7819   49.1239   66.6194 H   0  0  0  0  0  0  0  0  0  0  0  0
   14.7933   48.8950   64.7843 C   0  0  0  0  0  0  0  0  0  0  0  0
   12.5456   47.7876   65.2007 C   0  0  0  0  0  0  0  0  0  0  0  0
   11.3760   47.1818   64.7229 C   0  0  0  0  0  0  0  0  0  0  0  0
   11.1524   47.0330   63.3575 C   0  0  0  0  0  0  0  0  0  0  0  0
   12.0883   47.4855   62.4253 C   0  0  0  0  0  0  0  0  0  0  0  0
   11.8166   47.3429   61.0543 C   0  0  0  0  0  0  0  0  0  0  0  0
   12.7195   47.8011   60.1012 C   0  0  0  0  0  0  0  0  0  0  0  0
   12.3629   47.6294   58.4263 Cl  0  0  0  0  0  0  0  0  0  0  0  0
   13.9022   48.4050   60.4974 C   0  0  0  0  0  0  0  0  0  0  0  0
   14.1842   48.5485   61.8603 C   0  0  0  0  0  0  0  0  0  0  0  0
   13.2930   48.0936   62.8656 C   0  0  0  0  0  0  0  0  0  0  0  0
   13.5291   48.2248   64.2752 C   0  0  0  0  0  0  0  0  0  0  0  0
   12.9512   46.5988   67.3876 C   0  0  0  0  0  0  0  0  0  0  0  0
   12.6916   47.9338   66.7037 C   0  0  0  0  0  0  0  0  0  0  0  0
   11.7093   55.9311   71.4537 C   0  0  0  0  0  0  0  0  0  0  0  0
   12.4346   56.4877   72.6495 C   0  0  0  0  0  0  0  0  0  0  0  0
   10.5038   56.1120   71.2840 O   0  0  0  0  0  0  0  0  0  0  0  0
   15.6959   48.1788   68.7085 O   0  0  0  0  0  0  0  0  0  0  0  0
   16.9305   47.7537   69.2920 C   0  0  0  0  0  0  0  0  0  0  0  0
 36 37  1  0
 37 25  1  0
 25 26  2  0
 26 27  1  0
 27 28  2  0
 28 29  1  0
 29 30  2  0
 30 31  1  0
 30 32  1  0
 32 33  2  0
 33 34  1  0
 34 35  2  0
 35 24  1  0
 24 20  1  0
 20 21  1  0
 21 22  2  0
 21  1  1  0
  1  2  2  0
  2 41  1  0
 41 42  1  0
  2  3  1  0
  3  4  2  0
  4  5  1  0
  4  6  1  0
  6  7  2  0
  7  8  1  0
  8  9  1  0
  9 10  2  0
 10 11  1  0
 11 12  1  0
 11 13  2  0
 13 38  1  0
 38 39  1  0
 38 40  2  0
 13 14  1  0
 14 15  2  0
 14 16  1  0
 16 17  1  0
 35 25  1  0
  7  1  1  0
 16  9  1  0
 34 28  1  0
 16  6  1  0
 20 23  1  0
  5 18  1  0
 12 19  1  0
M  END
> <minimizedAffinity>
-9.17974

> <CNNscore>
0.4254783988

> <CNNaffinity>
6.5118021965

> <CNN_VS>
2.7706310749

> <CNNaffinity_variance>
0.2193979472

$$$$



 42 46  0  0  0  0  0  0  0  0999 V2000
   16.8336   51.4054   63.2156 C   0  0  0  0  0  0  0  0  0  0  0  0
   16.5201   51.6353   64.5586 C   0  0  0  0  0  0  0  0  0  0  0  0
   17.1612   52.6605   65.2757 C   0  0  0  0  0  0  0  0  0  0  0  0
   18.1451   53.4365   64.6639 C   0  0  0  0  0  0  0  0  0  0  0  0
   18.7404   54.4153   65.3984 O   0  0  0  0  0  0  0  0  0  0  0  0
   18.4882   53.1821   63.3498 C   0  0  0  0  0  0  0  0  0  0  0  0
   17.8180   52.1797   62.6319 C   0  0  0  0  0  0  0  0  0  0  0  0
   18.2492   52.1066   61.3237 O   0  0  0  0  0  0  0  0  0  0  0  0
   19.1466   53.1561   61.1492 C   0  0  0  0  0  0  0  0  0  0  0  0
   19.3784   53.7415   59.9678 C   0  0  0  0  0  0  0  0  0  0  0  0
   20.0387   55.0314   59.9466 C   0  0  0  0  0  0  0  0  0  0  0  0
   20.5214   55.4341   58.7223 O   0  0  0  0  0  0  0  0  0  0  0  0
   20.1074   55.8128   61.0410 C   0  0  0  0  0  0  0  0  0  0  0  0
   19.6023   55.2658   62.3393 C   0  0  0  0  0  0  0  0  0  0  0  0
   19.2720   56.0149   63.2610 O   0  0  0  0  0  0  0  0  0  0  0  0
   19.5713   53.7483   62.4787 C   0  0  0  0  0  0  0  0  0  0  0  0
   20.9476   53.2392   62.9210 C   0  0  0  0  0  0  0  0  0  0  0  0
   18.4805   54.5577   66.2873 H   0  0  0  0  0  0  0  0  0  0  0  0
   20.4563   54.8632   57.9821 H   0  0  0  0  0  0  0  0  0  0  0  0
   16.3107   49.0855   62.9781 N   0  0  0  0  0  0  0  0  0  0  0  0
   16.1614   50.3477   62.4533 C   0  0  0  0  0  0  0  0  0  0  0  0
   15.5523   50.6256   61.4281 O   0  0  0  0  0  0  0  0  0  0  0  0
   16.7358   48.9798   63.8598 H   0  0  0  0  0  0  0  0  0  0  0  0
   15.8597   47.9105   62.2686 C   0  0  0  0  0  0  0  0  0  0  0  0
   13.7978   47.6838   63.7345 C   0  0  0  0  0  0  0  0  0  0  0  0
   12.4115   47.5389   63.8775 C   0  0  0  0  0  0  0  0  0  0  0  0
   11.5784   47.4816   62.7643 C   0  0  0  0  0  0  0  0  0  0  0  0
   12.1023   47.5686   61.4729 C   0  0  0  0  0  0  0  0  0  0  0  0
   11.2284   47.5343   60.3733 C   0  0  0  0  0  0  0  0  0  0  0  0
   11.7173   47.6385   59.0757 C   0  0  0  0  0  0  0  0  0  0  0  0
   10.6298   47.6079   57.7422 Cl  0  0  0  0  0  0  0  0  0  0  0  0
   13.0782   47.7770   58.8544 C   0  0  0  0  0  0  0  0  0  0  0  0
   13.9574   47.8084   59.9423 C   0  0  0  0  0  0  0  0  0  0  0  0
   13.5023   47.7031   61.2815 C   0  0  0  0  0  0  0  0  0  0  0  0
   14.3595   47.7395   62.4322 C   0  0  0  0  0  0  0  0  0  0  0  0
   13.7610   47.9734   66.2396 C   0  0  0  0  0  0  0  0  0  0  0  0
   14.6251   47.7664   65.0036 C   0  0  0  0  0  0  0  0  0  0  0  0
   20.7676   57.1350   60.9984 C   0  0  0  0  0  0  0  0  0  0  0  0
   22.1566   57.2637   61.5641 C   0  0  0  0  0  0  0  0  0  0  0  0
   20.1753   58.0959   60.5079 O   0  0  0  0  0  0  0  0  0  0  0  0
   15.5168   50.9156   65.1547 O   0  0  0  0  0  0  0  0  0  0  0  0
   14.9810   51.6265   66.2742 C   0  0  0  0  0  0  0  0  0  0  0  0
 36 37  1  0
 37 25  1  0
 25 26  2  0
 26 27  1  0
 27 28  2  0
 28 29  1  0
 29 30  2  0
 30 31  1  0
 30 32  1  0
 32 33  2  0
 33 34  1  0
 34 35  2  0
 35 24  1  0
 24 20  1  0
 20 21  1  0
 21 22  2  0
 21  1  1  0
  1  2  2  0
  2 41  1  0
 41 42  1  0
  2  3  1  0
  3  4  2  0
  4  5  1  0
  4  6  1  0
  6  7  2  0
  7  8  1  0
  8  9  1  0
  9 10  2  0
 10 11  1  0
 11 12  1  0
 11 13  2  0
 13 38  1  0
 38 39  1  0
 38 40  2  0
 13 14  1  0
 14 15  2  0
 14 16  1  0
 16 17  1  0
 35 25  1  0
  7  1  1  0
 16  9  1  0
 34 28  1  0
 16  6  1  0
 20 23  1  0
  5 18  1  0
 12 19  1  0
M  END
> <minimizedAffinity>
-7.89053

> <CNNscore>
0.3394972086

> <CNNaffinity>
6.2388648987

> <CNN_VS>
2.1180772781

> <CNNaffinity_variance>
0.2127095014

$$$$



 42 46  0  0  0  0  0  0  0  0999 V2000
   16.9745   50.7361   63.0574 C   0  0  0  0  0  0  0  0  0  0  0  0
   18.3215   50.5323   62.7428 C   0  0  0  0  0  0  0  0  0  0  0  0
   19.3189   50.7307   63.7135 C   0  0  0  0  0  0  0  0  0  0  0  0
   18.9773   51.1693   64.9923 C   0  0  0  0  0  0  0  0  0  0  0  0
   19.9770   51.3504   65.8977 O   0  0  0  0  0  0  0  0  0  0  0  0
   17.6509   51.4140   65.2923 C   0  0  0  0  0  0  0  0  0  0  0  0
   16.6593   51.1796   64.3274 C   0  0  0  0  0  0  0  0  0  0  0  0
   15.3935   51.4212   64.8197 O   0  0  0  0  0  0  0  0  0  0  0  0
   15.5502   51.7177   66.1706 C   0  0  0  0  0  0  0  0  0  0  0  0
   14.6002   51.5032   67.0892 C   0  0  0  0  0  0  0  0  0  0  0  0
   14.9724   51.5021   68.4898 C   0  0  0  0  0  0  0  0  0  0  0  0
   13.9296   51.5859   69.3840 O   0  0  0  0  0  0  0  0  0  0  0  0
   16.2511   51.3545   68.8854 C   0  0  0  0  0  0  0  0  0  0  0  0
   17.3212   51.3258   67.8394 C   0  0  0  0  0  0  0  0  0  0  0  0
   18.4211   50.8178   68.0670 O   0  0  0  0  0  0  0  0  0  0  0  0
   17.0003   52.0006   66.5110 C   0  0  0  0  0  0  0  0  0  0  0  0
   17.2844   53.5035   66.6098 C   0  0  0  0  0  0  0  0  0  0  0  0
   20.8650   51.1736   65.6568 H   0  0  0  0  0  0  0  0  0  0  0  0
   13.0520   51.6884   69.0720 H   0  0  0  0  0  0  0  0  0  0  0  0
   15.3832   49.2548   62.0649 N   0  0  0  0  0  0  0  0  0  0  0  0
   15.9240   50.5190   62.0569 C   0  0  0  0  0  0  0  0  0  0  0  0
   15.6145   51.4214   61.2894 O   0  0  0  0  0  0  0  0  0  0  0  0
   15.6306   48.6318   62.7859 H   0  0  0  0  0  0  0  0  0  0  0  0
   14.4611   48.8174   61.0422 C   0  0  0  0  0  0  0  0  0  0  0  0
   12.2463   47.5901   60.8409 C   0  0  0  0  0  0  0  0  0  0  0  0
   11.1728   46.9049   61.4251 C   0  0  0  0  0  0  0  0  0  0  0  0
   11.1299   46.6767   62.7972 C   0  0  0  0  0  0  0  0  0  0  0  0
   12.1577   47.1238   63.6297 C   0  0  0  0  0  0  0  0  0  0  0  0
   12.0940   46.8518   65.0066 C   0  0  0  0  0  0  0  0  0  0  0  0
   13.1114   47.2665   65.8590 C   0  0  0  0  0  0  0  0  0  0  0  0
   13.0219   46.9121   67.5408 Cl  0  0  0  0  0  0  0  0  0  0  0  0
   14.2027   47.9562   65.3554 C   0  0  0  0  0  0  0  0  0  0  0  0
   14.2740   48.2356   63.9863 C   0  0  0  0  0  0  0  0  0  0  0  0
   13.2581   47.8336   63.0818 C   0  0  0  0  0  0  0  0  0  0  0  0
   13.2870   48.0858   61.6691 C   0  0  0  0  0  0  0  0  0  0  0  0
   11.0379   48.6030   58.8726 C   0  0  0  0  0  0  0  0  0  0  0  0
   12.2237   47.7676   59.3343 C   0  0  0  0  0  0  0  0  0  0  0  0
   16.6125   51.3361   70.3188 C   0  0  0  0  0  0  0  0  0  0  0  0
   16.8738   50.0081   70.9775 C   0  0  0  0  0  0  0  0  0  0  0  0
   16.6907   52.3953   70.9408 O   0  0  0  0  0  0  0  0  0  0  0  0
   18.6648   50.0492   61.5064 O   0  0  0  0  0  0  0  0  0  0  0  0
   20.0498   49.6946   61.4688 C   0  0  0  0  0  0  0  0  0  0  0  0
 36 37  1  0
 37 25  1  0
 25 26  2  0
 26 27  1  0
 27 28  2  0
 28 29  1  0
 29 30  2  0
 30 31  1  0
 30 32  1  0
 32 33  2  0
 33 34  1  0
 34 35  2  0
 35 24  1  0
 24 20  1  0
 20 21  1  0
 21 22  2  0
 21  1  1  0
  1  2  2  0
  2 41  1  0
 41 42  1  0
  2  3  1  0
  3  4  2  0
  4  5  1  0
  4  6  1  0
  6  7  2  0
  7  8  1  0
  8  9  1  0
  9 10  2  0
 10 11  1  0
 11 12  1  0
 11 13  2  0
 13 38  1  0
 38 39  1  0
 38 40  2  0
 13 14  1  0
 14 15  2  0
 14 16  1  0
 16 17  1  0
 35 25  1  0
  7  1  1  0
 16  9  1  0
 34 28  1  0
 16  6  1  0
 20 23  1  0
  5 18  1  0
 12 19  1  0
M  END
> <minimizedAffinity>
-8.69929

> <CNNscore>
0.3300350010

> <CNNaffinity>
6.5278167725

> <CNN_VS>
2.1544079781

> <CNNaffinity_variance>
0.1277016401

$$$$



 42 46  0  0  0  0  0  0  0  0999 V2000
   13.5955   48.1368   60.4036 C   0  0  0  0  0  0  0  0  0  0  0  0
   12.8434   47.7939   61.5313 C   0  0  0  0  0  0  0  0  0  0  0  0
   13.2543   48.1992   62.8131 C   0  0  0  0  0  0  0  0  0  0  0  0
   14.4382   48.9173   62.9771 C   0  0  0  0  0  0  0  0  0  0  0  0
   14.7972   49.2853   64.2372 O   0  0  0  0  0  0  0  0  0  0  0  0
   15.2061   49.2191   61.8687 C   0  0  0  0  0  0  0  0  0  0  0  0
   14.7698   48.8406   60.5898 C   0  0  0  0  0  0  0  0  0  0  0  0
   15.6295   49.2750   59.6023 O   0  0  0  0  0  0  0  0  0  0  0  0
   16.5959   50.0486   60.2387 C   0  0  0  0  0  0  0  0  0  0  0  0
   17.2668   51.0371   59.6345 C   0  0  0  0  0  0  0  0  0  0  0  0
   17.9730   52.0022   60.4530 C   0  0  0  0  0  0  0  0  0  0  0  0
   18.8816   52.7952   59.7898 O   0  0  0  0  0  0  0  0  0  0  0  0
   17.7007   52.1582   61.7624 C   0  0  0  0  0  0  0  0  0  0  0  0
   16.7359   51.2127   62.4067 C   0  0  0  0  0  0  0  0  0  0  0  0
   16.1502   51.5121   63.4492 O   0  0  0  0  0  0  0  0  0  0  0  0
   16.5608   49.8524   61.7417 C   0  0  0  0  0  0  0  0  0  0  0  0
   17.6568   48.8946   62.2217 C   0  0  0  0  0  0  0  0  0  0  0  0
   14.2499   49.0622   64.9642 H   0  0  0  0  0  0  0  0  0  0  0  0
   19.0456   52.6575   58.8776 H   0  0  0  0  0  0  0  0  0  0  0  0
   11.9683   48.2667   58.6580 N   0  0  0  0  0  0  0  0  0  0  0  0
   13.1695   47.7315   59.0597 C   0  0  0  0  0  0  0  0  0  0  0  0
   13.8587   46.9581   58.4070 O   0  0  0  0  0  0  0  0  0  0  0  0
   11.5396   48.9555   59.2157 H   0  0  0  0  0  0  0  0  0  0  0  0
   11.3191   47.8441   57.4383 C   0  0  0  0  0  0  0  0  0  0  0  0
    9.4977   49.5564   56.9889 C   0  0  0  0  0  0  0  0  0  0  0  0
    8.1474   49.9304   56.9870 C   0  0  0  0  0  0  0  0  0  0  0  0
    7.1571   49.0420   57.3953 C   0  0  0  0  0  0  0  0  0  0  0  0
    7.4829   47.7514   57.8172 C   0  0  0  0  0  0  0  0  0  0  0  0
    6.4546   46.8726   58.1967 C   0  0  0  0  0  0  0  0  0  0  0  0
    6.7450   45.5747   58.6027 C   0  0  0  0  0  0  0  0  0  0  0  0
    5.4705   44.5086   59.0510 Cl  0  0  0  0  0  0  0  0  0  0  0  0
    8.0585   45.1345   58.6375 C   0  0  0  0  0  0  0  0  0  0  0  0
    9.0904   46.0030   58.2653 C   0  0  0  0  0  0  0  0  0  0  0  0
    8.8396   47.3349   57.8472 C   0  0  0  0  0  0  0  0  0  0  0  0
    9.8591   48.2622   57.4462 C   0  0  0  0  0  0  0  0  0  0  0  0
   10.7320   50.4894   54.9973 C   0  0  0  0  0  0  0  0  0  0  0  0
   10.5056   50.5795   56.5000 C   0  0  0  0  0  0  0  0  0  0  0  0
   18.4166   53.1608   62.5799 C   0  0  0  0  0  0  0  0  0  0  0  0
   18.3729   54.6028   62.1501 C   0  0  0  0  0  0  0  0  0  0  0  0
   19.0296   52.8017   63.5848 O   0  0  0  0  0  0  0  0  0  0  0  0
   11.6505   47.1358   61.3778 O   0  0  0  0  0  0  0  0  0  0  0  0
   11.0806   46.8185   62.6506 C   0  0  0  0  0  0  0  0  0  0  0  0
 36 37  1  0
 37 25  1  0
 25 26  2  0
 26 27  1  0
 27 28  2  0
 28 29  1  0
 29 30  2  0
 30 31  1  0
 30 32  1  0
 32 33  2  0
 33 34  1  0
 34 35  2  0
 35 24  1  0
 24 20  1  0
 20 21  1  0
 21 22  2  0
 21  1  1  0
  1  2  2  0
  2 41  1  0
 41 42  1  0
  2  3  1  0
  3  4  2  0
  4  5  1  0
  4  6  1  0
  6  7  2  0
  7  8  1  0
  8  9  1  0
  9 10  2  0
 10 11  1  0
 11 12  1  0
 11 13  2  0
 13 38  1  0
 38 39  1  0
 38 40  2  0
 13 14  1  0
 14 15  2  0
 14 16  1  0
 16 17  1  0
 35 25  1  0
  7  1  1  0
 16  9  1  0
 34 28  1  0
 16  6  1  0
 20 23  1  0
  5 18  1  0
 12 19  1  0
M  END
> <minimizedAffinity>
-10.37976

> <CNNscore>
0.3274843693

> <CNNaffinity>
6.9827265739

> <CNN_VS>
2.2867338657

> <CNNaffinity_variance>
0.2394719124

$$$$



 42 46  0  0  0  0  0  0  0  0999 V2000
   15.8497   50.7483   65.9777 C   0  0  0  0  0  0  0  0  0  0  0  0
   16.8320   51.4293   65.2523 C   0  0  0  0  0  0  0  0  0  0  0  0
   17.2774   52.6959   65.6691 C   0  0  0  0  0  0  0  0  0  0  0  0
   16.7164   53.3034   66.7919 C   0  0  0  0  0  0  0  0  0  0  0  0
   17.1771   54.5312   67.1556 O   0  0  0  0  0  0  0  0  0  0  0  0
   15.7142   52.6517   67.4847 C   0  0  0  0  0  0  0  0  0  0  0  0
   15.3009   51.3727   67.0814 C   0  0  0  0  0  0  0  0  0  0  0  0
   14.3372   50.8537   67.9210 O   0  0  0  0  0  0  0  0  0  0  0  0
   14.1918   51.7678   68.9605 C   0  0  0  0  0  0  0  0  0  0  0  0
   13.7806   51.4305   70.1890 C   0  0  0  0  0  0  0  0  0  0  0  0
   14.0023   52.3603   71.2782 C   0  0  0  0  0  0  0  0  0  0  0  0
   13.2980   52.1053   72.4328 O   0  0  0  0  0  0  0  0  0  0  0  0
   14.8957   53.3636   71.1855 C   0  0  0  0  0  0  0  0  0  0  0  0
   15.5735   53.5943   69.8713 C   0  0  0  0  0  0  0  0  0  0  0  0
   16.6448   54.2005   69.8046 O   0  0  0  0  0  0  0  0  0  0  0  0
   14.8480   53.0935   68.6279 C   0  0  0  0  0  0  0  0  0  0  0  0
   13.8276   54.1394   68.1654 C   0  0  0  0  0  0  0  0  0  0  0  0
   17.8586   54.9415   66.6604 H   0  0  0  0  0  0  0  0  0  0  0  0
   12.6841   51.3980   72.4605 H   0  0  0  0  0  0  0  0  0  0  0  0
   16.2862   48.7204   64.7908 N   0  0  0  0  0  0  0  0  0  0  0  0
   15.3870   49.4204   65.5603 C   0  0  0  0  0  0  0  0  0  0  0  0
   14.2712   49.0324   65.8826 O   0  0  0  0  0  0  0  0  0  0  0  0
   17.1950   49.0789   64.6696 H   0  0  0  0  0  0  0  0  0  0  0  0
   15.9313   47.4722   64.1555 C   0  0  0  0  0  0  0  0  0  0  0  0
   15.7498   48.3372   61.7741 C   0  0  0  0  0  0  0  0  0  0  0  0
   15.0019   48.5628   60.6109 C   0  0  0  0  0  0  0  0  0  0  0  0
   13.6680   48.1744   60.5300 C   0  0  0  0  0  0  0  0  0  0  0  0
   13.0385   47.5472   61.6069 C   0  0  0  0  0  0  0  0  0  0  0  0
   11.6985   47.1446   61.4799 C   0  0  0  0  0  0  0  0  0  0  0  0
   11.0495   46.5000   62.5272 C   0  0  0  0  0  0  0  0  0  0  0  0
    9.4118   46.0024   62.3476 Cl  0  0  0  0  0  0  0  0  0  0  0  0
   11.7221   46.2483   63.7123 C   0  0  0  0  0  0  0  0  0  0  0  0
   13.0556   46.6486   63.8506 C   0  0  0  0  0  0  0  0  0  0  0  0
   13.7549   47.3106   62.8093 C   0  0  0  0  0  0  0  0  0  0  0  0
   15.1239   47.7330   62.8957 C   0  0  0  0  0  0  0  0  0  0  0  0
   17.6030   49.4081   60.4404 C   0  0  0  0  0  0  0  0  0  0  0  0
   17.2046   48.7672   61.7624 C   0  0  0  0  0  0  0  0  0  0  0  0
   15.1245   54.2925   72.3127 C   0  0  0  0  0  0  0  0  0  0  0  0
   14.6121   55.7032   72.1974 C   0  0  0  0  0  0  0  0  0  0  0  0
   15.7244   53.9000   73.3131 O   0  0  0  0  0  0  0  0  0  0  0  0
   17.4292   50.8195   64.1793 O   0  0  0  0  0  0  0  0  0  0  0  0
   18.7453   51.3390   63.9704 C   0  0  0  0  0  0  0  0  0  0  0  0
 36 37  1  0
 37 25  1  0
 25 26  2  0
 26 27  1  0
 27 28  2  0
 28 29  1  0
 29 30  2  0
 30 31  1  0
 30 32  1  0
 32 33  2  0
 33 34  1  0
 34 35  2  0
 35 24  1  0
 24 20  1  0
 20 21  1  0
 21 22  2  0
 21  1  1  0
  1  2  2  0
  2 41  1  0
 41 42  1  0
  2  3  1  0
  3  4  2  0
  4  5  1  0
  4  6  1  0
  6  7  2  0
  7  8  1  0
  8  9  1  0
  9 10  2  0
 10 11  1  0
 11 12  1  0
 11 13  2  0
 13 38  1  0
 38 39  1  0
 38 40  2  0
 13 14  1  0
 14 15  2  0
 14 16  1  0
 16 17  1  0
 35 25  1  0
  7  1  1  0
 16  9  1  0
 34 28  1  0
 16  6  1  0
 20 23  1  0
  5 18  1  0
 12 19  1  0
M  END
> <minimizedAffinity>
-8.16597

> <CNNscore>
0.2887863517

> <CNNaffinity>
6.4802813530

> <CNN_VS>
1.8714168072

> <CNNaffinity_variance>
0.1267697811

$$$$
