


 20 20  0  0  0  0  0  0  0  0999 V2000
   -0.8932   -5.1274   -6.7936 S   0  0  0  0  0  0  0  0  0  0  0  0
   -0.2045   -4.8705   -8.0381 O   0  0  0  0  0  0  0  0  0  0  0  0
   -0.3616   -6.0306   -5.7985 O   0  0  0  0  0  0  0  0  0  0  0  0
   -5.1342   -6.5336   -7.7678 C   0  0  0  0  0  0  0  0  0  0  0  0
   -4.7913   -6.1823   -6.4593 C   0  0  0  0  0  0  0  0  0  0  0  0
   -3.4920   -5.7543   -6.1631 C   0  0  0  0  0  0  0  0  0  0  0  0
   -2.5375   -5.6676   -7.1817 C   0  0  0  0  0  0  0  0  0  0  0  0
   -2.8578   -6.0366   -8.4869 C   0  0  0  0  0  0  0  0  0  0  0  0
   -4.1540   -6.4568   -8.7662 C   0  0  0  0  0  0  0  0  0  0  0  0
   -4.4562   -6.7884  -10.0306 F   0  0  0  0  0  0  0  0  0  0  0  0
   -6.7371   -6.6704   -9.5246 C   0  0  0  0  0  0  0  0  0  0  0  0
   -6.3691   -6.9536   -8.1809 O   0  0  0  0  0  0  0  0  0  0  0  0
   -1.1325   -3.6558   -6.0277 N   0  0  0  0  0  0  0  0  0  0  0  0
   -2.0972   -3.3788   -6.2093 H   0  0  0  0  0  0  0  0  0  0  0  0
   -0.9234   -3.5601   -4.5669 C   0  0  0  0  0  0  0  0  0  0  0  0
   -0.8286   -4.9707   -4.0037 C   0  0  0  0  0  0  0  0  0  0  0  0
   -2.0994   -2.8373   -3.9296 C   0  0  0  0  0  0  0  0  0  0  0  0
   -2.3298   -1.6391   -4.0048 O   0  0  0  0  0  0  0  0  0  0  0  0
   -2.9150   -3.6541   -3.2371 O   0  0  0  0  0  0  0  0  0  0  0  0
   -2.7276   -4.5708   -3.1869 H   0  0  0  0  0  0  0  0  0  0  0  0
 11 12  1  0
 12  4  1  0
  4  5  2  0
  5  6  1  0
  6  7  2  0
  7  1  1  0
  1  2  2  0
  1  3  2  0
  1 13  1  0
 13 15  1  0
 15 16  1  0
 15 17  1  0
 17 18  2  0
 17 19  1  0
  7  8  1  0
  8  9  2  0
  9 10  1  0
  9  4  1  0
 13 14  1  0
 19 20  1  0
M  END
> <minimizedAffinity>
-8.04905

> <CNNscore>
0.9715568423

> <CNNaffinity>
5.6462764740

> <CNN_VS>
5.4856786728

> <CNNaffinity_variance>
0.1444852203

$$$$



 20 20  0  0  0  0  0  0  0  0999 V2000
   -0.7317   -4.8140   -5.2016 S   0  0  0  0  0  0  0  0  0  0  0  0
    0.4809   -5.3509   -5.7765 O   0  0  0  0  0  0  0  0  0  0  0  0
   -1.0557   -4.9858   -3.8037 O   0  0  0  0  0  0  0  0  0  0  0  0
   -4.2748   -6.4065   -7.6145 C   0  0  0  0  0  0  0  0  0  0  0  0
   -4.4592   -5.9589   -6.3034 C   0  0  0  0  0  0  0  0  0  0  0  0
   -3.3728   -5.4740   -5.5661 C   0  0  0  0  0  0  0  0  0  0  0  0
   -2.1014   -5.4271   -6.1471 C   0  0  0  0  0  0  0  0  0  0  0  0
   -1.8974   -5.8915   -7.4452 C   0  0  0  0  0  0  0  0  0  0  0  0
   -2.9874   -6.3674   -8.1663 C   0  0  0  0  0  0  0  0  0  0  0  0
   -2.7824   -6.7912   -9.4226 F   0  0  0  0  0  0  0  0  0  0  0  0
   -5.2757   -6.4163   -9.7761 C   0  0  0  0  0  0  0  0  0  0  0  0
   -5.2570   -6.8894   -8.4356 O   0  0  0  0  0  0  0  0  0  0  0  0
   -0.7534   -3.1648   -5.5005 N   0  0  0  0  0  0  0  0  0  0  0  0
   -1.4384   -3.0049   -6.2391 H   0  0  0  0  0  0  0  0  0  0  0  0
   -1.0820   -2.2358   -4.3980 C   0  0  0  0  0  0  0  0  0  0  0  0
   -1.3262   -0.8560   -4.9917 C   0  0  0  0  0  0  0  0  0  0  0  0
    0.0824   -2.1698   -3.4226 C   0  0  0  0  0  0  0  0  0  0  0  0
    0.0045   -2.2661   -2.2064 O   0  0  0  0  0  0  0  0  0  0  0  0
    1.2723   -1.9866   -4.0249 O   0  0  0  0  0  0  0  0  0  0  0  0
    1.3189   -1.9142   -4.9579 H   0  0  0  0  0  0  0  0  0  0  0  0
 11 12  1  0
 12  4  1  0
  4  5  2  0
  5  6  1  0
  6  7  2  0
  7  1  1  0
  1  2  2  0
  1  3  2  0
  1 13  1  0
 13 15  1  0
 15 16  1  0
 15 17  1  0
 17 18  2  0
 17 19  1  0
  7  8  1  0
  8  9  2  0
  9 10  1  0
  9  4  1  0
 13 14  1  0
 19 20  1  0
M  END
> <minimizedAffinity>
-7.28696

> <CNNscore>
0.9041949511

> <CNNaffinity>
5.3453974724

> <CNN_VS>
4.8332815170

> <CNNaffinity_variance>
0.5388404727

$$$$



 20 20  0  0  0  0  0  0  0  0999 V2000
   -0.6942   -5.4045   -4.4204 S   0  0  0  0  0  0  0  0  0  0  0  0
    0.4147   -6.3060   -4.6369 O   0  0  0  0  0  0  0  0  0  0  0  0
   -1.4577   -5.4134   -3.1933 O   0  0  0  0  0  0  0  0  0  0  0  0
   -3.6212   -5.9224   -7.8955 C   0  0  0  0  0  0  0  0  0  0  0  0
   -2.2522   -5.7870   -8.1414 C   0  0  0  0  0  0  0  0  0  0  0  0
   -1.3584   -5.6263   -7.0762 C   0  0  0  0  0  0  0  0  0  0  0  0
   -1.8360   -5.6124   -5.7618 C   0  0  0  0  0  0  0  0  0  0  0  0
   -3.2007   -5.7229   -5.5019 C   0  0  0  0  0  0  0  0  0  0  0  0
   -4.0760   -5.8852   -6.5706 C   0  0  0  0  0  0  0  0  0  0  0  0
   -5.3852   -6.0125   -6.3064 F   0  0  0  0  0  0  0  0  0  0  0  0
   -5.5594   -7.1063   -8.6139 C   0  0  0  0  0  0  0  0  0  0  0  0
   -4.5872   -6.0960   -8.8488 O   0  0  0  0  0  0  0  0  0  0  0  0
   -0.1290   -3.8397   -4.6231 N   0  0  0  0  0  0  0  0  0  0  0  0
   -0.2517   -3.6038   -5.6079 H   0  0  0  0  0  0  0  0  0  0  0  0
   -0.7381   -2.7449   -3.8376 C   0  0  0  0  0  0  0  0  0  0  0  0
   -1.6103   -3.3616   -2.7537 C   0  0  0  0  0  0  0  0  0  0  0  0
   -1.5954   -1.8799   -4.7478 C   0  0  0  0  0  0  0  0  0  0  0  0
   -1.1825   -1.0489   -5.5436 O   0  0  0  0  0  0  0  0  0  0  0  0
   -2.9153   -2.1048   -4.6083 O   0  0  0  0  0  0  0  0  0  0  0  0
   -3.2193   -2.7445   -3.9949 H   0  0  0  0  0  0  0  0  0  0  0  0
 11 12  1  0
 12  4  1  0
  4  5  2  0
  5  6  1  0
  6  7  2  0
  7  1  1  0
  1  2  2  0
  1  3  2  0
  1 13  1  0
 13 15  1  0
 15 16  1  0
 15 17  1  0
 17 18  2  0
 17 19  1  0
  7  8  1  0
  8  9  2  0
  9 10  1  0
  9  4  1  0
 13 14  1  0
 19 20  1  0
M  END
> <minimizedAffinity>
-7.21544

> <CNNscore>
0.9020919800

> <CNNaffinity>
5.7376174927

> <CNN_VS>
5.1758584976

> <CNNaffinity_variance>
0.4508120120

$$$$



 20 20  0  0  0  0  0  0  0  0999 V2000
   -1.7229   -5.3774   -6.7742 S   0  0  0  0  0  0  0  0  0  0  0  0
   -0.8008   -4.8891   -7.7745 O   0  0  0  0  0  0  0  0  0  0  0  0
   -1.3576   -6.4199   -5.8424 O   0  0  0  0  0  0  0  0  0  0  0  0
   -5.5304   -6.6978   -8.9356 C   0  0  0  0  0  0  0  0  0  0  0  0
   -4.3538   -6.4719   -9.6552 C   0  0  0  0  0  0  0  0  0  0  0  0
   -3.1902   -6.0656   -8.9917 C   0  0  0  0  0  0  0  0  0  0  0  0
   -3.2026   -5.8961   -7.6035 C   0  0  0  0  0  0  0  0  0  0  0  0
   -4.3741   -6.0948   -6.8752 C   0  0  0  0  0  0  0  0  0  0  0  0
   -5.5214   -6.5015   -7.5482 C   0  0  0  0  0  0  0  0  0  0  0  0
   -6.6371   -6.7110   -6.8332 F   0  0  0  0  0  0  0  0  0  0  0  0
   -6.6693   -7.9636  -10.6013 C   0  0  0  0  0  0  0  0  0  0  0  0
   -6.7225   -7.1065   -9.4684 O   0  0  0  0  0  0  0  0  0  0  0  0
   -2.2240   -4.0671   -5.8569 N   0  0  0  0  0  0  0  0  0  0  0  0
   -2.9219   -4.4137   -5.1987 H   0  0  0  0  0  0  0  0  0  0  0  0
   -1.2249   -3.3129   -5.0698 C   0  0  0  0  0  0  0  0  0  0  0  0
   -1.2220   -3.8605   -3.6499 C   0  0  0  0  0  0  0  0  0  0  0  0
   -1.6016   -1.8401   -5.0448 C   0  0  0  0  0  0  0  0  0  0  0  0
   -0.9128   -0.9175   -5.4555 O   0  0  0  0  0  0  0  0  0  0  0  0
   -2.8143   -1.6093   -4.5081 O   0  0  0  0  0  0  0  0  0  0  0  0
   -3.3328   -2.3250   -4.1968 H   0  0  0  0  0  0  0  0  0  0  0  0
 11 12  1  0
 12  4  1  0
  4  5  2  0
  5  6  1  0
  6  7  2  0
  7  1  1  0
  1  2  2  0
  1  3  2  0
  1 13  1  0
 13 15  1  0
 15 16  1  0
 15 17  1  0
 17 18  2  0
 17 19  1  0
  7  8  1  0
  8  9  2  0
  9 10  1  0
  9  4  1  0
 13 14  1  0
 19 20  1  0
M  END
> <minimizedAffinity>
-8.35174

> <CNNscore>
0.8307470679

> <CNNaffinity>
5.2053108215

> <CNN_VS>
4.3242964745

> <CNNaffinity_variance>
0.2516140640

$$$$



 20 20  0  0  0  0  0  0  0  0999 V2000
   -1.5566   -4.9859   -5.7280 S   0  0  0  0  0  0  0  0  0  0  0  0
   -1.6650   -3.5466   -5.6518 O   0  0  0  0  0  0  0  0  0  0  0  0
   -0.3595   -5.6375   -6.2086 O   0  0  0  0  0  0  0  0  0  0  0  0
   -5.0724   -6.5458   -8.2015 C   0  0  0  0  0  0  0  0  0  0  0  0
   -5.2283   -6.2941   -6.8357 C   0  0  0  0  0  0  0  0  0  0  0  0
   -4.1501   -5.8188   -6.0802 C   0  0  0  0  0  0  0  0  0  0  0  0
   -2.9166   -5.5848   -6.6965 C   0  0  0  0  0  0  0  0  0  0  0  0
   -2.7391   -5.8532   -8.0525 C   0  0  0  0  0  0  0  0  0  0  0  0
   -3.8208   -6.3220   -8.7906 C   0  0  0  0  0  0  0  0  0  0  0  0
   -3.6435   -6.5558  -10.0997 F   0  0  0  0  0  0  0  0  0  0  0  0
   -7.1735   -7.6399   -8.4517 C   0  0  0  0  0  0  0  0  0  0  0  0
   -6.0510   -6.9989   -9.0436 O   0  0  0  0  0  0  0  0  0  0  0  0
   -1.8592   -5.6038   -4.1995 N   0  0  0  0  0  0  0  0  0  0  0  0
   -2.8360   -5.8970   -4.1847 H   0  0  0  0  0  0  0  0  0  0  0  0
   -1.0577   -6.7466   -3.7115 C   0  0  0  0  0  0  0  0  0  0  0  0
   -1.6228   -8.0219   -4.3200 C   0  0  0  0  0  0  0  0  0  0  0  0
   -1.1496   -6.8236   -2.1958 C   0  0  0  0  0  0  0  0  0  0  0  0
   -0.2626   -6.5278   -1.4084 O   0  0  0  0  0  0  0  0  0  0  0  0
   -2.3426   -7.2660   -1.7561 O   0  0  0  0  0  0  0  0  0  0  0  0
   -3.0145   -7.4896   -2.3697 H   0  0  0  0  0  0  0  0  0  0  0  0
 11 12  1  0
 12  4  1  0
  4  5  2  0
  5  6  1  0
  6  7  2  0
  7  1  1  0
  1  2  2  0
  1  3  2  0
  1 13  1  0
 13 15  1  0
 15 16  1  0
 15 17  1  0
 17 18  2  0
 17 19  1  0
  7  8  1  0
  8  9  2  0
  9 10  1  0
  9  4  1  0
 13 14  1  0
 19 20  1  0
M  END
> <minimizedAffinity>
-7.20634

> <CNNscore>
0.7325033545

> <CNNaffinity>
4.8487014771

> <CNN_VS>
3.5516901016

> <CNNaffinity_variance>
0.2035170794

$$$$



 20 20  0  0  0  0  0  0  0  0999 V2000
   -1.5080   -5.1543   -6.7846 S   0  0  0  0  0  0  0  0  0  0  0  0
   -1.8651   -4.0979   -5.8650 O   0  0  0  0  0  0  0  0  0  0  0  0
   -0.4851   -4.9785   -7.7903 O   0  0  0  0  0  0  0  0  0  0  0  0
   -5.3130   -6.4910   -8.9405 C   0  0  0  0  0  0  0  0  0  0  0  0
   -4.1588   -6.1905   -9.6690 C   0  0  0  0  0  0  0  0  0  0  0  0
   -2.9960   -5.7795   -9.0071 C   0  0  0  0  0  0  0  0  0  0  0  0
   -2.9863   -5.6798   -7.6120 C   0  0  0  0  0  0  0  0  0  0  0  0
   -4.1362   -5.9534   -6.8736 C   0  0  0  0  0  0  0  0  0  0  0  0
   -5.2829   -6.3639   -7.5454 C   0  0  0  0  0  0  0  0  0  0  0  0
   -6.3770   -6.6456   -6.8218 F   0  0  0  0  0  0  0  0  0  0  0  0
   -6.7790   -8.3054   -9.4229 C   0  0  0  0  0  0  0  0  0  0  0  0
   -6.5016   -6.9119   -9.4716 O   0  0  0  0  0  0  0  0  0  0  0  0
   -1.0661   -6.4937   -5.8790 N   0  0  0  0  0  0  0  0  0  0  0  0
   -0.0681   -6.6397   -6.0305 H   0  0  0  0  0  0  0  0  0  0  0  0
   -1.2834   -6.4796   -4.4164 C   0  0  0  0  0  0  0  0  0  0  0  0
    0.0429   -6.1676   -3.7386 C   0  0  0  0  0  0  0  0  0  0  0  0
   -1.7775   -7.8435   -3.9610 C   0  0  0  0  0  0  0  0  0  0  0  0
   -1.8261   -8.8537   -4.6476 O   0  0  0  0  0  0  0  0  0  0  0  0
   -2.1812   -7.8624   -2.6769 O   0  0  0  0  0  0  0  0  0  0  0  0
   -2.1390   -7.0815   -2.1609 H   0  0  0  0  0  0  0  0  0  0  0  0
 11 12  1  0
 12  4  1  0
  4  5  2  0
  5  6  1  0
  6  7  2  0
  7  1  1  0
  1  2  2  0
  1  3  2  0
  1 13  1  0
 13 15  1  0
 15 16  1  0
 15 17  1  0
 17 18  2  0
 17 19  1  0
  7  8  1  0
  8  9  2  0
  9 10  1  0
  9  4  1  0
 13 14  1  0
 19 20  1  0
M  END
> <minimizedAffinity>
-7.64353

> <CNNscore>
0.6425101161

> <CNNaffinity>
4.3416523933

> <CNN_VS>
2.7895555496

> <CNNaffinity_variance>
0.7065806389

$$$$



 20 20  0  0  0  0  0  0  0  0999 V2000
   -1.0851   -4.7498   -5.8646 S   0  0  0  0  0  0  0  0  0  0  0  0
   -1.2443   -3.3136   -5.8300 O   0  0  0  0  0  0  0  0  0  0  0  0
    0.1510   -5.3715   -6.2819 O   0  0  0  0  0  0  0  0  0  0  0  0
   -4.4277   -6.4584   -8.4759 C   0  0  0  0  0  0  0  0  0  0  0  0
   -3.1697   -6.1948   -9.0246 C   0  0  0  0  0  0  0  0  0  0  0  0
   -2.1488   -5.6697   -8.2238 C   0  0  0  0  0  0  0  0  0  0  0  0
   -2.3854   -5.4187   -6.8684 C   0  0  0  0  0  0  0  0  0  0  0  0
   -3.6414   -5.6543   -6.3123 C   0  0  0  0  0  0  0  0  0  0  0  0
   -4.6447   -6.1793   -7.1200 C   0  0  0  0  0  0  0  0  0  0  0  0
   -5.8431   -6.4225   -6.5680 F   0  0  0  0  0  0  0  0  0  0  0  0
   -6.6914   -7.1973   -8.4125 C   0  0  0  0  0  0  0  0  0  0  0  0
   -5.4968   -6.9801   -9.1520 O   0  0  0  0  0  0  0  0  0  0  0  0
   -1.4264   -5.3397   -4.3333 N   0  0  0  0  0  0  0  0  0  0  0  0
   -1.0010   -6.2645   -4.2685 H   0  0  0  0  0  0  0  0  0  0  0  0
   -0.9797   -4.5749   -3.1491 C   0  0  0  0  0  0  0  0  0  0  0  0
   -0.9782   -5.5098   -1.9484 C   0  0  0  0  0  0  0  0  0  0  0  0
   -1.9391   -3.4232   -2.8942 C   0  0  0  0  0  0  0  0  0  0  0  0
   -1.6546   -2.3569   -2.3686 O   0  0  0  0  0  0  0  0  0  0  0  0
   -3.1946   -3.6736   -3.3102 O   0  0  0  0  0  0  0  0  0  0  0  0
   -3.4001   -4.4949   -3.7117 H   0  0  0  0  0  0  0  0  0  0  0  0
 11 12  1  0
 12  4  1  0
  4  5  2  0
  5  6  1  0
  6  7  2  0
  7  1  1  0
  1  2  2  0
  1  3  2  0
  1 13  1  0
 13 15  1  0
 15 16  1  0
 15 17  1  0
 17 18  2  0
 17 19  1  0
  7  8  1  0
  8  9  2  0
  9 10  1  0
  9  4  1  0
 13 14  1  0
 19 20  1  0
M  END
> <minimizedAffinity>
-7.57754

> <CNNscore>
0.6127337813

> <CNNaffinity>
4.8429880142

> <CNN_VS>
2.9674623013

> <CNNaffinity_variance>
0.1445162296

$$$$



 20 20  0  0  0  0  0  0  0  0999 V2000
   -6.9253   -7.7893   -9.8224 S   0  0  0  0  0  0  0  0  0  0  0  0
   -6.6928   -9.2145   -9.7611 O   0  0  0  0  0  0  0  0  0  0  0  0
   -7.0914   -7.0956  -11.0793 O   0  0  0  0  0  0  0  0  0  0  0  0
   -3.5295   -5.7283   -7.5567 C   0  0  0  0  0  0  0  0  0  0  0  0
   -3.4176   -5.9678   -8.9290 C   0  0  0  0  0  0  0  0  0  0  0  0
   -4.4573   -6.6008   -9.6199 C   0  0  0  0  0  0  0  0  0  0  0  0
   -5.6159   -6.9846   -8.9368 C   0  0  0  0  0  0  0  0  0  0  0  0
   -5.7325   -6.7736   -7.5642 C   0  0  0  0  0  0  0  0  0  0  0  0
   -4.6922   -6.1405   -6.8921 C   0  0  0  0  0  0  0  0  0  0  0  0
   -4.8255   -5.9232   -5.5749 F   0  0  0  0  0  0  0  0  0  0  0  0
   -1.2240   -5.3684   -7.0777 C   0  0  0  0  0  0  0  0  0  0  0  0
   -2.5895   -5.1103   -6.7779 O   0  0  0  0  0  0  0  0  0  0  0  0
   -8.2866   -7.4527   -8.9043 N   0  0  0  0  0  0  0  0  0  0  0  0
   -8.8685   -6.8211   -9.4547 H   0  0  0  0  0  0  0  0  0  0  0  0
   -9.1542   -8.5666   -8.4649 C   0  0  0  0  0  0  0  0  0  0  0  0
  -10.4059   -8.5684   -9.3306 C   0  0  0  0  0  0  0  0  0  0  0  0
   -9.5444   -8.3655   -7.0092 C   0  0  0  0  0  0  0  0  0  0  0  0
  -10.1734   -9.1556   -6.3205 O   0  0  0  0  0  0  0  0  0  0  0  0
   -9.1262   -7.1904   -6.5030 O   0  0  0  0  0  0  0  0  0  0  0  0
   -8.6448   -6.5932   -7.0411 H   0  0  0  0  0  0  0  0  0  0  0  0
 11 12  1  0
 12  4  1  0
  4  5  2  0
  5  6  1  0
  6  7  2  0
  7  1  1  0
  1  2  2  0
  1  3  2  0
  1 13  1  0
 13 15  1  0
 15 16  1  0
 15 17  1  0
 17 18  2  0
 17 19  1  0
  7  8  1  0
  8  9  2  0
  9 10  1  0
  9  4  1  0
 13 14  1  0
 19 20  1  0
M  END
> <minimizedAffinity>
-8.17474

> <CNNscore>
0.5995028019

> <CNNaffinity>
4.8846397400

> <CNN_VS>
2.9283552170

> <CNNaffinity_variance>
0.5169248581

$$$$



 20 20  0  0  0  0  0  0  0  0999 V2000
   -2.8374   -5.9301   -8.4323 S   0  0  0  0  0  0  0  0  0  0  0  0
   -2.7534   -4.5405   -8.8211 O   0  0  0  0  0  0  0  0  0  0  0  0
   -2.0278   -6.9493   -9.0604 O   0  0  0  0  0  0  0  0  0  0  0  0
   -7.2060   -7.2411   -8.7615 C   0  0  0  0  0  0  0  0  0  0  0  0
   -6.6707   -6.8777   -7.5228 C   0  0  0  0  0  0  0  0  0  0  0  0
   -5.3326   -6.4789   -7.4241 C   0  0  0  0  0  0  0  0  0  0  0  0
   -4.5325   -6.4335   -8.5704 C   0  0  0  0  0  0  0  0  0  0  0  0
   -5.0454   -6.8153   -9.8087 C   0  0  0  0  0  0  0  0  0  0  0  0
   -6.3778   -7.2061   -9.8912 C   0  0  0  0  0  0  0  0  0  0  0  0
   -6.8660   -7.5502  -11.0926 F   0  0  0  0  0  0  0  0  0  0  0  0
   -9.0416   -8.6100   -8.1049 C   0  0  0  0  0  0  0  0  0  0  0  0
   -8.4969   -7.6356   -8.9852 O   0  0  0  0  0  0  0  0  0  0  0  0
   -2.5323   -6.0207   -6.7867 N   0  0  0  0  0  0  0  0  0  0  0  0
   -2.7004   -6.9865   -6.5052 H   0  0  0  0  0  0  0  0  0  0  0  0
   -1.1937   -5.6497   -6.2794 C   0  0  0  0  0  0  0  0  0  0  0  0
   -0.7529   -6.7054   -5.2759 C   0  0  0  0  0  0  0  0  0  0  0  0
   -1.2661   -4.2953   -5.5922 C   0  0  0  0  0  0  0  0  0  0  0  0
   -0.4867   -3.8777   -4.7482 O   0  0  0  0  0  0  0  0  0  0  0  0
   -2.3074   -3.5459   -6.0000 O   0  0  0  0  0  0  0  0  0  0  0  0
   -2.8979   -3.8773   -6.6477 H   0  0  0  0  0  0  0  0  0  0  0  0
 11 12  1  0
 12  4  1  0
  4  5  2  0
  5  6  1  0
  6  7  2  0
  7  1  1  0
  1  2  2  0
  1  3  2  0
  1 13  1  0
 13 15  1  0
 15 16  1  0
 15 17  1  0
 17 18  2  0
 17 19  1  0
  7  8  1  0
  8  9  2  0
  9 10  1  0
  9  4  1  0
 13 14  1  0
 19 20  1  0
M  END
> <minimizedAffinity>
-7.56539

> <CNNscore>
0.5217910409

> <CNNaffinity>
4.5216593742

> <CNN_VS>
2.3593614101

> <CNNaffinity_variance>
0.3633023202

$$$$
