


 17 18  0  0  0  0  0  0  0  0999 V2000
    9.2101    5.3860   23.8479 C   0  0  0  0  0  0  0  0  0  0  0  0
    8.6247    5.6030   25.0871 C   0  0  0  0  0  0  0  0  0  0  0  0
    8.2617    4.5177   25.8937 C   0  0  0  0  0  0  0  0  0  0  0  0
    7.3808    4.9303   27.7494 I   0  0  0  0  0  0  0  0  0  0  0  0
    8.4833    3.1820   25.4614 C   0  0  0  0  0  0  0  0  0  0  0  0
    8.2114    1.9064   26.0831 C   0  0  0  0  0  0  0  0  0  0  0  0
    8.5816    0.8293   25.3074 C   0  0  0  0  0  0  0  0  0  0  0  0
    9.2847    1.3313   23.8388 S   0  0  0  0  0  0  0  0  0  0  0  0
    9.0775    2.9995   24.2078 C   0  0  0  0  0  0  0  0  0  0  0  0
    9.4443    4.0884   23.3927 C   0  0  0  0  0  0  0  0  0  0  0  0
    8.4222   -0.5662   25.6756 C   0  0  0  0  0  0  0  0  0  0  0  0
    8.6088   -1.5037   24.7737 N   0  0  0  0  0  0  0  0  0  0  0  0
    8.0948   -0.8525   26.9153 N   0  0  0  0  0  0  0  0  0  0  0  0
    8.8536   -1.2584   23.8522 H   0  0  0  0  0  0  0  0  0  0  0  0
    8.5038   -2.4512   25.0195 H   0  0  0  0  0  0  0  0  0  0  0  0
    7.9616   -0.1285   27.5690 H   0  0  0  0  0  0  0  0  0  0  0  0
    7.9828   -1.7910   27.1906 H   0  0  0  0  0  0  0  0  0  0  0  0
  1  2  2  0
  2  3  1  0
  3  4  1  0
  3  5  2  0
  5  6  1  0
  6  7  2  0
  7 11  1  0
 11 12  1  0
 11 13  2  0
  7  8  1  0
  8  9  1  0
  9 10  2  0
 10  1  1  0
  9  5  1  0
 12 14  1  0
 12 15  1  0
 13 16  1  0
 13 17  1  0
M  CHG 1  13   1
M  END
> <minimizedAffinity>
-6.66737

> <CNNscore>
0.9664039016

> <CNNaffinity>
5.1211791039

> <CNN_VS>
4.9491276741

> <CNNaffinity_variance>
0.1881535798

$$$$



 17 18  0  0  0  0  0  0  0  0999 V2000
    9.2755    5.9835   24.4654 C   0  0  0  0  0  0  0  0  0  0  0  0
    8.6116    6.0259   25.6830 C   0  0  0  0  0  0  0  0  0  0  0  0
    8.2036    4.8391   26.3039 C   0  0  0  0  0  0  0  0  0  0  0  0
    7.2046    4.9893   28.1395 I   0  0  0  0  0  0  0  0  0  0  0  0
    8.4588    3.5768   25.7024 C   0  0  0  0  0  0  0  0  0  0  0  0
    8.1545    2.2274   26.1195 C   0  0  0  0  0  0  0  0  0  0  0  0
    8.5786    1.2691   25.2248 C   0  0  0  0  0  0  0  0  0  0  0  0
    9.3709    1.9704   23.8893 S   0  0  0  0  0  0  0  0  0  0  0  0
    9.1324    3.5707   24.4759 C   0  0  0  0  0  0  0  0  0  0  0  0
    9.5447    4.7622   23.8475 C   0  0  0  0  0  0  0  0  0  0  0  0
    8.4031   -0.1637   25.3816 C   0  0  0  0  0  0  0  0  0  0  0  0
    8.3718   -0.6886   26.5861 N   0  0  0  0  0  0  0  0  0  0  0  0
    8.2767   -0.9004   24.3011 N   0  0  0  0  0  0  0  0  0  0  0  0
    8.4693   -0.1111   27.3774 H   0  0  0  0  0  0  0  0  0  0  0  0
    8.2510   -1.6594   26.6970 H   0  0  0  0  0  0  0  0  0  0  0  0
    8.3042   -0.4787   23.4119 H   0  0  0  0  0  0  0  0  0  0  0  0
    8.1546   -1.8740   24.3806 H   0  0  0  0  0  0  0  0  0  0  0  0
  1  2  2  0
  2  3  1  0
  3  4  1  0
  3  5  2  0
  5  6  1  0
  6  7  2  0
  7 11  1  0
 11 12  1  0
 11 13  2  0
  7  8  1  0
  8  9  1  0
  9 10  2  0
 10  1  1  0
  9  5  1  0
 12 14  1  0
 12 15  1  0
 13 16  1  0
 13 17  1  0
M  CHG 1  13   1
M  END
> <minimizedAffinity>
-6.31134

> <CNNscore>
0.9583899379

> <CNNaffinity>
4.9264121056

> <CNN_VS>
4.7214236259

> <CNNaffinity_variance>
0.2689150274

$$$$



 17 18  0  0  0  0  0  0  0  0999 V2000
   10.1578    2.2613   22.9911 C   0  0  0  0  0  0  0  0  0  0  0  0
    9.6559    1.0817   23.5220 C   0  0  0  0  0  0  0  0  0  0  0  0
    8.9100    1.1044   24.7067 C   0  0  0  0  0  0  0  0  0  0  0  0
    8.1901   -0.7199   25.4439 I   0  0  0  0  0  0  0  0  0  0  0  0
    8.6553    2.3276   25.3843 C   0  0  0  0  0  0  0  0  0  0  0  0
    7.9294    2.6288   26.5967 C   0  0  0  0  0  0  0  0  0  0  0  0
    7.9278    3.9694   26.9151 C   0  0  0  0  0  0  0  0  0  0  0  0
    8.7702    4.8871   25.7526 S   0  0  0  0  0  0  0  0  0  0  0  0
    9.1742    3.4982   24.8201 C   0  0  0  0  0  0  0  0  0  0  0  0
    9.9253    3.4802   23.6284 C   0  0  0  0  0  0  0  0  0  0  0  0
    7.2838    4.5569   28.0764 C   0  0  0  0  0  0  0  0  0  0  0  0
    6.1276    5.1669   27.9415 N   0  0  0  0  0  0  0  0  0  0  0  0
    7.8830    4.4570   29.2413 N   0  0  0  0  0  0  0  0  0  0  0  0
    5.7026    5.2260   27.0555 H   0  0  0  0  0  0  0  0  0  0  0  0
    5.6864    5.5648   28.7266 H   0  0  0  0  0  0  0  0  0  0  0  0
    8.7490    3.9940   29.3113 H   0  0  0  0  0  0  0  0  0  0  0  0
    7.4660    4.8451   30.0442 H   0  0  0  0  0  0  0  0  0  0  0  0
  1  2  2  0
  2  3  1  0
  3  4  1  0
  3  5  2  0
  5  6  1  0
  6  7  2  0
  7 11  1  0
 11 12  1  0
 11 13  2  0
  7  8  1  0
  8  9  1  0
  9 10  2  0
 10  1  1  0
  9  5  1  0
 12 14  1  0
 12 15  1  0
 13 16  1  0
 13 17  1  0
M  CHG 1  13   1
M  END
> <minimizedAffinity>
-4.94457

> <CNNscore>
0.4127259851

> <CNNaffinity>
4.6145157814

> <CNN_VS>
1.9045305252

> <CNNaffinity_variance>
0.3384493589

$$$$



 17 18  0  0  0  0  0  0  0  0999 V2000
   12.8779    7.2744   22.7876 C   0  0  0  0  0  0  0  0  0  0  0  0
   11.5641    7.6497   23.0295 C   0  0  0  0  0  0  0  0  0  0  0  0
   11.0506    8.8212   22.4601 C   0  0  0  0  0  0  0  0  0  0  0  0
    9.0585    9.3189   22.8764 I   0  0  0  0  0  0  0  0  0  0  0  0
   11.8600    9.6436   21.6300 C   0  0  0  0  0  0  0  0  0  0  0  0
   11.5867   10.8775   20.9298 C   0  0  0  0  0  0  0  0  0  0  0  0
   12.6701   11.3604   20.2284 C   0  0  0  0  0  0  0  0  0  0  0  0
   14.0182   10.3288   20.3759 S   0  0  0  0  0  0  0  0  0  0  0  0
   13.1790    9.2342   21.4053 C   0  0  0  0  0  0  0  0  0  0  0  0
   13.7000    8.0564   21.9762 C   0  0  0  0  0  0  0  0  0  0  0  0
   12.6857   12.5799   19.4405 C   0  0  0  0  0  0  0  0  0  0  0  0
   13.8335   13.1039   19.0730 N   0  0  0  0  0  0  0  0  0  0  0  0
   11.5373   13.1275   19.1127 N   0  0  0  0  0  0  0  0  0  0  0  0
   14.6783   12.6708   19.3337 H   0  0  0  0  0  0  0  0  0  0  0  0
   13.8487   13.9295   18.5369 H   0  0  0  0  0  0  0  0  0  0  0  0
   10.6932   12.7119   19.4026 H   0  0  0  0  0  0  0  0  0  0  0  0
   11.5208   13.9535   18.5772 H   0  0  0  0  0  0  0  0  0  0  0  0
  1  2  2  0
  2  3  1  0
  3  4  1  0
  3  5  2  0
  5  6  1  0
  6  7  2  0
  7 11  1  0
 11 12  1  0
 11 13  2  0
  7  8  1  0
  8  9  1  0
  9 10  2  0
 10  1  1  0
  9  5  1  0
 12 14  1  0
 12 15  1  0
 13 16  1  0
 13 17  1  0
M  CHG 1  13   1
M  END
> <minimizedAffinity>
-4.43431

> <CNNscore>
0.3479035497

> <CNNaffinity>
3.8224143982

> <CNN_VS>
1.3298314810

> <CNNaffinity_variance>
0.4959824085

$$$$



 17 18  0  0  0  0  0  0  0  0999 V2000
   19.4739    9.5490   28.5187 C   0  0  0  0  0  0  0  0  0  0  0  0
   18.0878    9.5831   28.5714 C   0  0  0  0  0  0  0  0  0  0  0  0
   17.3651   10.3148   27.6213 C   0  0  0  0  0  0  0  0  0  0  0  0
   15.2754   10.3176   27.7720 I   0  0  0  0  0  0  0  0  0  0  0  0
   18.0329   11.0327   26.5922 C   0  0  0  0  0  0  0  0  0  0  0  0
   17.5409   11.8495   25.5067 C   0  0  0  0  0  0  0  0  0  0  0  0
   18.5426   12.3802   24.7234 C   0  0  0  0  0  0  0  0  0  0  0  0
   20.0820   11.8848   25.2599 S   0  0  0  0  0  0  0  0  0  0  0  0
   19.4308   10.9746   26.5673 C   0  0  0  0  0  0  0  0  0  0  0  0
   20.1620   10.2399   27.5213 C   0  0  0  0  0  0  0  0  0  0  0  0
   18.3420   13.2402   23.5707 C   0  0  0  0  0  0  0  0  0  0  0  0
   19.0768   13.0698   22.4946 N   0  0  0  0  0  0  0  0  0  0  0  0
   17.4186   14.1723   23.6390 N   0  0  0  0  0  0  0  0  0  0  0  0
   19.7614   12.3626   22.4729 H   0  0  0  0  0  0  0  0  0  0  0  0
   18.9427   13.6493   21.7101 H   0  0  0  0  0  0  0  0  0  0  0  0
   16.8836   14.2761   24.4588 H   0  0  0  0  0  0  0  0  0  0  0  0
   17.2617   14.7669   22.8702 H   0  0  0  0  0  0  0  0  0  0  0  0
  1  2  2  0
  2  3  1  0
  3  4  1  0
  3  5  2  0
  5  6  1  0
  6  7  2  0
  7 11  1  0
 11 12  1  0
 11 13  2  0
  7  8  1  0
  8  9  1  0
  9 10  2  0
 10  1  1  0
  9  5  1  0
 12 14  1  0
 12 15  1  0
 13 16  1  0
 13 17  1  0
M  CHG 1  13   1
M  END
> <minimizedAffinity>
-4.20882

> <CNNscore>
0.3209853768

> <CNNaffinity>
3.5167977810

> <CNN_VS>
1.1288406849

> <CNNaffinity_variance>
0.4681117535

$$$$



 17 18  0  0  0  0  0  0  0  0999 V2000
   12.0012   13.3377   19.3696 C   0  0  0  0  0  0  0  0  0  0  0  0
   13.2249   13.8825   19.0076 C   0  0  0  0  0  0  0  0  0  0  0  0
   14.4143   13.3261   19.4934 C   0  0  0  0  0  0  0  0  0  0  0  0
   16.2199   14.2092   18.9018 I   0  0  0  0  0  0  0  0  0  0  0  0
   14.3914   12.2009   20.3615 C   0  0  0  0  0  0  0  0  0  0  0  0
   15.4483   11.4449   20.9932 C   0  0  0  0  0  0  0  0  0  0  0  0
   14.9874   10.4115   21.7796 C   0  0  0  0  0  0  0  0  0  0  0  0
   13.2865   10.3158   21.7491 S   0  0  0  0  0  0  0  0  0  0  0  0
   13.1406   11.6754   20.7042 C   0  0  0  0  0  0  0  0  0  0  0  0
   11.9412   12.2320   20.2180 C   0  0  0  0  0  0  0  0  0  0  0  0
   15.8211    9.4937   22.5352 C   0  0  0  0  0  0  0  0  0  0  0  0
   17.0469    9.8414   22.8577 N   0  0  0  0  0  0  0  0  0  0  0  0
   15.3174    8.3303   22.8798 N   0  0  0  0  0  0  0  0  0  0  0  0
   17.3970   10.7202   22.5852 H   0  0  0  0  0  0  0  0  0  0  0  0
   17.6149    9.2230   23.3716 H   0  0  0  0  0  0  0  0  0  0  0  0
   14.3956    8.0977   22.6238 H   0  0  0  0  0  0  0  0  0  0  0  0
   15.8616    7.6911   23.3941 H   0  0  0  0  0  0  0  0  0  0  0  0
  1  2  2  0
  2  3  1  0
  3  4  1  0
  3  5  2  0
  5  6  1  0
  6  7  2  0
  7 11  1  0
 11 12  1  0
 11 13  2  0
  7  8  1  0
  8  9  1  0
  9 10  2  0
 10  1  1  0
  9  5  1  0
 12 14  1  0
 12 15  1  0
 13 16  1  0
 13 17  1  0
M  CHG 1  13   1
M  END
> <minimizedAffinity>
-4.94502

> <CNNscore>
0.2751224041

> <CNNaffinity>
3.7832651138

> <CNN_VS>
1.0408610106

> <CNNaffinity_variance>
0.4638864994

$$$$



 17 18  0  0  0  0  0  0  0  0999 V2000
   13.1918    7.8645   23.6416 C   0  0  0  0  0  0  0  0  0  0  0  0
   13.8132    8.8273   24.4240 C   0  0  0  0  0  0  0  0  0  0  0  0
   14.0810   10.0967   23.8973 C   0  0  0  0  0  0  0  0  0  0  0  0
   15.0241   11.4929   25.1426 I   0  0  0  0  0  0  0  0  0  0  0  0
   13.7251   10.4208   22.5599 C   0  0  0  0  0  0  0  0  0  0  0  0
   13.8811   11.6291   21.7832 C   0  0  0  0  0  0  0  0  0  0  0  0
   13.3973   11.5197   20.4976 C   0  0  0  0  0  0  0  0  0  0  0  0
   12.7252    9.9801   20.2134 S   0  0  0  0  0  0  0  0  0  0  0  0
   13.0980    9.4272   21.7999 C   0  0  0  0  0  0  0  0  0  0  0  0
   12.8267    8.1486   22.3256 C   0  0  0  0  0  0  0  0  0  0  0  0
   13.4262   12.5709   19.4963 C   0  0  0  0  0  0  0  0  0  0  0  0
   14.5547   13.1923   19.2359 N   0  0  0  0  0  0  0  0  0  0  0  0
   12.3100   12.8704   18.8715 N   0  0  0  0  0  0  0  0  0  0  0  0
   15.3754   12.9459   19.7206 H   0  0  0  0  0  0  0  0  0  0  0  0
   14.5792   13.9041   18.5563 H   0  0  0  0  0  0  0  0  0  0  0  0
   11.4799   12.3874   19.0879 H   0  0  0  0  0  0  0  0  0  0  0  0
   12.3037   13.5778   18.1868 H   0  0  0  0  0  0  0  0  0  0  0  0
  1  2  2  0
  2  3  1  0
  3  4  1  0
  3  5  2  0
  5  6  1  0
  6  7  2  0
  7 11  1  0
 11 12  1  0
 11 13  2  0
  7  8  1  0
  8  9  1  0
  9 10  2  0
 10  1  1  0
  9  5  1  0
 12 14  1  0
 12 15  1  0
 13 16  1  0
 13 17  1  0
M  CHG 1  13   1
M  END
> <minimizedAffinity>
-3.91296

> <CNNscore>
0.2196773887

> <CNNaffinity>
3.7620093822

> <CNN_VS>
0.8264284134

> <CNNaffinity_variance>
0.3143916428

$$$$



 17 18  0  0  0  0  0  0  0  0999 V2000
    7.8794    8.8492   22.5395 C   0  0  0  0  0  0  0  0  0  0  0  0
    9.0802    8.2810   22.9401 C   0  0  0  0  0  0  0  0  0  0  0  0
   10.2946    8.8901   22.6017 C   0  0  0  0  0  0  0  0  0  0  0  0
   12.0633    7.9675   23.2424 I   0  0  0  0  0  0  0  0  0  0  0  0
   10.3207   10.0934   21.8455 C   0  0  0  0  0  0  0  0  0  0  0  0
   11.4109   10.9143   21.3711 C   0  0  0  0  0  0  0  0  0  0  0  0
   10.9955   12.0150   20.6539 C   0  0  0  0  0  0  0  0  0  0  0  0
    9.2959   12.0950   20.5636 S   0  0  0  0  0  0  0  0  0  0  0  0
    9.0917   10.6402   21.4601 C   0  0  0  0  0  0  0  0  0  0  0  0
    7.8674   10.0307   21.7982 C   0  0  0  0  0  0  0  0  0  0  0  0
   11.8702   13.0073   20.0550 C   0  0  0  0  0  0  0  0  0  0  0  0
   12.2812   12.8513   18.8164 N   0  0  0  0  0  0  0  0  0  0  0  0
   12.2263   14.0449   20.7779 N   0  0  0  0  0  0  0  0  0  0  0  0
   11.9976   12.0631   18.2993 H   0  0  0  0  0  0  0  0  0  0  0  0
   12.8727   13.5227   18.4058 H   0  0  0  0  0  0  0  0  0  0  0  0
   11.9024   14.1347   21.7032 H   0  0  0  0  0  0  0  0  0  0  0  0
   12.8170   14.7328   20.3942 H   0  0  0  0  0  0  0  0  0  0  0  0
  1  2  2  0
  2  3  1  0
  3  4  1  0
  3  5  2  0
  5  6  1  0
  6  7  2  0
  7 11  1  0
 11 12  1  0
 11 13  2  0
  7  8  1  0
  8  9  1  0
  9 10  2  0
 10  1  1  0
  9  5  1  0
 12 14  1  0
 12 15  1  0
 13 16  1  0
 13 17  1  0
M  CHG 1  13   1
M  END
> <minimizedAffinity>
-3.76822

> <CNNscore>
0.2120091468

> <CNNaffinity>
3.4746847153

> <CNN_VS>
0.7366649508

> <CNNaffinity_variance>
0.2450499535

$$$$



 17 18  0  0  0  0  0  0  0  0999 V2000
   15.7331   14.6268   18.4136 C   0  0  0  0  0  0  0  0  0  0  0  0
   14.4266   14.2180   18.6401 C   0  0  0  0  0  0  0  0  0  0  0  0
   14.1425   13.3022   19.6604 C   0  0  0  0  0  0  0  0  0  0  0  0
   12.1448   12.7340   19.9359 I   0  0  0  0  0  0  0  0  0  0  0  0
   15.1800   12.7764   20.4774 C   0  0  0  0  0  0  0  0  0  0  0  0
   15.1642   11.8392   21.5770 C   0  0  0  0  0  0  0  0  0  0  0  0
   16.4139   11.5881   22.1002 C   0  0  0  0  0  0  0  0  0  0  0  0
   17.6173   12.4918   21.3012 S   0  0  0  0  0  0  0  0  0  0  0  0
   16.4852   13.2117   20.2231 C   0  0  0  0  0  0  0  0  0  0  0  0
   16.7758   14.1329   19.1976 C   0  0  0  0  0  0  0  0  0  0  0  0
   16.6981   10.6874   23.2031 C   0  0  0  0  0  0  0  0  0  0  0  0
   16.3163   11.0059   24.4197 N   0  0  0  0  0  0  0  0  0  0  0  0
   17.3337    9.5664   22.9474 N   0  0  0  0  0  0  0  0  0  0  0  0
   15.8416   11.8532   24.5807 H   0  0  0  0  0  0  0  0  0  0  0  0
   16.5051   10.3972   25.1701 H   0  0  0  0  0  0  0  0  0  0  0  0
   17.6073    9.3549   22.0256 H   0  0  0  0  0  0  0  0  0  0  0  0
   17.5365    8.9379   23.6775 H   0  0  0  0  0  0  0  0  0  0  0  0
  1  2  2  0
  2  3  1  0
  3  4  1  0
  3  5  2  0
  5  6  1  0
  6  7  2  0
  7 11  1  0
 11 12  1  0
 11 13  2  0
  7  8  1  0
  8  9  1  0
  9 10  2  0
 10  1  1  0
  9  5  1  0
 12 14  1  0
 12 15  1  0
 13 16  1  0
 13 17  1  0
M  CHG 1  13   1
M  END
> <minimizedAffinity>
-4.94469

> <CNNscore>
0.2106278837

> <CNNaffinity>
3.5956985950

> <CNN_VS>
0.7573543787

> <CNNaffinity_variance>
0.4924031794

$$$$
