


 28 30  0  0  0  0  0  0  0  0999 V2000
    4.4621    5.8979   21.6371 C   0  0  0  0  0  0  0  0  0  0  0  0
    5.7223    6.4122   21.8012 C   0  0  0  0  0  0  0  0  0  0  0  0
    6.3280    5.7276   22.8364 N   0  0  0  0  0  0  0  0  0  0  0  0
    5.4917    4.7844   23.3437 N   0  0  0  0  0  0  0  0  0  0  0  0
    4.3591    4.8880   22.6242 C   0  0  0  0  0  0  0  0  0  0  0  0
    7.6239    5.9816   23.3979 C   0  0  0  0  0  0  0  0  0  0  0  0
    8.3368    7.0896   22.8940 C   0  0  0  0  0  0  0  0  0  0  0  0
    9.5671    7.4514   23.4293 C   0  0  0  0  0  0  0  0  0  0  0  0
   10.1079    6.7157   24.4745 C   0  0  0  0  0  0  0  0  0  0  0  0
    9.4445    5.5948   24.9897 C   0  0  0  0  0  0  0  0  0  0  0  0
   10.0565    4.8801   26.0338 C   0  0  0  0  0  0  0  0  0  0  0  0
    9.4656    3.7377   26.5593 C   0  0  0  0  0  0  0  0  0  0  0  0
   10.2364    2.8778   27.8336 Cl  0  0  0  0  0  0  0  0  0  0  0  0
    8.2645    3.2834   26.0455 C   0  0  0  0  0  0  0  0  0  0  0  0
    7.6445    3.9909   25.0095 C   0  0  0  0  0  0  0  0  0  0  0  0
    8.1885    5.1854   24.4556 C   0  0  0  0  0  0  0  0  0  0  0  0
    2.5187    6.7416   18.7298 N   0  0  0  0  0  0  0  0  0  0  0  0
    3.6519    6.3258   19.3658 C   0  0  0  0  0  0  0  0  0  0  0  0
    4.6514    6.0511   18.7164 O   0  0  0  0  0  0  0  0  0  0  0  0
    3.4901    6.2647   20.7221 N   0  0  0  0  0  0  0  0  0  0  0  0
    2.5077    6.8267   17.7490 H   0  0  0  0  0  0  0  0  0  0  0  0
    1.7120    6.9565   19.2516 H   0  0  0  0  0  0  0  0  0  0  0  0
    2.6042    6.5027   21.0796 H   0  0  0  0  0  0  0  0  0  0  0  0
    3.1933    4.0365   22.8840 C   0  0  0  0  0  0  0  0  0  0  0  0
    2.2750    4.0037   21.8723 N   0  0  0  0  0  0  0  0  0  0  0  0
    3.0461    3.3895   23.9173 O   0  0  0  0  0  0  0  0  0  0  0  0
    2.4226    4.5343   21.0563 H   0  0  0  0  0  0  0  0  0  0  0  0
    1.4660    3.4495   21.9595 H   0  0  0  0  0  0  0  0  0  0  0  0
 17 18  1  0
 18 19  2  0
 18 20  1  0
 20  1  1  0
  1  2  2  0
  2  3  1  0
  3  6  1  0
  6  7  2  0
  7  8  1  0
  8  9  2  0
  9 10  1  0
 10 11  2  0
 11 12  1  0
 12 13  1  0
 12 14  2  0
 14 15  1  0
 15 16  2  0
  3  4  1  0
  4  5  2  0
  5 24  1  0
 24 25  1  0
 24 26  2  0
  5  1  1  0
 16  6  1  0
 16 10  1  0
 17 21  1  0
 17 22  1  0
 20 23  1  0
 25 27  1  0
 25 28  1  0
M  END
> <minimizedAffinity>
-8.70709

> <CNNscore>
0.9345245361

> <CNNaffinity>
7.0160326958

> <CNN_VS>
6.5566549301

> <CNNaffinity_variance>
0.1722780317

$$$$



 28 30  0  0  0  0  0  0  0  0999 V2000
    5.4668    4.6884   23.1171 C   0  0  0  0  0  0  0  0  0  0  0  0
    5.9168    3.9200   24.1594 C   0  0  0  0  0  0  0  0  0  0  0  0
    7.1797    4.3639   24.4990 N   0  0  0  0  0  0  0  0  0  0  0  0
    7.5555    5.3995   23.7035 N   0  0  0  0  0  0  0  0  0  0  0  0
    6.5237    5.5953   22.8619 C   0  0  0  0  0  0  0  0  0  0  0  0
    8.0555    3.8027   25.4875 C   0  0  0  0  0  0  0  0  0  0  0  0
    7.4823    2.9203   26.4272 C   0  0  0  0  0  0  0  0  0  0  0  0
    8.2687    2.2759   27.3745 C   0  0  0  0  0  0  0  0  0  0  0  0
    9.6382    2.4997   27.4020 C   0  0  0  0  0  0  0  0  0  0  0  0
   10.2449    3.3852   26.5022 C   0  0  0  0  0  0  0  0  0  0  0  0
   11.6331    3.5841   26.5971 C   0  0  0  0  0  0  0  0  0  0  0  0
   12.2851    4.4791   25.7580 C   0  0  0  0  0  0  0  0  0  0  0  0
   13.9838    4.7085   25.8967 Cl  0  0  0  0  0  0  0  0  0  0  0  0
   11.5640    5.1977   24.8216 C   0  0  0  0  0  0  0  0  0  0  0  0
   10.1824    5.0029   24.7157 C   0  0  0  0  0  0  0  0  0  0  0  0
    9.4681    4.0751   25.5271 C   0  0  0  0  0  0  0  0  0  0  0  0
    2.0980    4.0787   22.0120 N   0  0  0  0  0  0  0  0  0  0  0  0
    3.1246    4.0036   22.9076 C   0  0  0  0  0  0  0  0  0  0  0  0
    2.9591    3.4413   23.9812 O   0  0  0  0  0  0  0  0  0  0  0  0
    4.2575    4.6151   22.4471 N   0  0  0  0  0  0  0  0  0  0  0  0
    1.2264    3.6748   22.2273 H   0  0  0  0  0  0  0  0  0  0  0  0
    2.2289    4.5368   21.1505 H   0  0  0  0  0  0  0  0  0  0  0  0
    4.2091    5.0409   21.5607 H   0  0  0  0  0  0  0  0  0  0  0  0
    6.5537    6.6317   21.8242 C   0  0  0  0  0  0  0  0  0  0  0  0
    7.6785    7.4079   21.8268 N   0  0  0  0  0  0  0  0  0  0  0  0
    5.6538    6.7931   21.0045 O   0  0  0  0  0  0  0  0  0  0  0  0
    8.3821    7.2529   22.4978 H   0  0  0  0  0  0  0  0  0  0  0  0
    7.7853    8.1221   21.1576 H   0  0  0  0  0  0  0  0  0  0  0  0
 17 18  1  0
 18 19  2  0
 18 20  1  0
 20  1  1  0
  1  2  2  0
  2  3  1  0
  3  6  1  0
  6  7  2  0
  7  8  1  0
  8  9  2  0
  9 10  1  0
 10 11  2  0
 11 12  1  0
 12 13  1  0
 12 14  2  0
 14 15  1  0
 15 16  2  0
  3  4  1  0
  4  5  2  0
  5 24  1  0
 24 25  1  0
 24 26  2  0
  5  1  1  0
 16  6  1  0
 16 10  1  0
 17 21  1  0
 17 22  1  0
 20 23  1  0
 25 27  1  0
 25 28  1  0
M  END
> <minimizedAffinity>
-6.92642

> <CNNscore>
0.8913688064

> <CNNaffinity>
6.7444825172

> <CNN_VS>
6.0118212700

> <CNNaffinity_variance>
0.2057777643

$$$$



 28 30  0  0  0  0  0  0  0  0999 V2000
    5.0174    4.9037   22.7234 C   0  0  0  0  0  0  0  0  0  0  0  0
    5.7684    5.7807   21.9844 C   0  0  0  0  0  0  0  0  0  0  0  0
    6.9999    5.9050   22.5970 N   0  0  0  0  0  0  0  0  0  0  0  0
    7.0631    5.1302   23.7115 N   0  0  0  0  0  0  0  0  0  0  0  0
    5.8630    4.5268   23.7947 C   0  0  0  0  0  0  0  0  0  0  0  0
    8.0741    6.7733   22.2080 C   0  0  0  0  0  0  0  0  0  0  0  0
    7.8256    7.6664   21.1447 C   0  0  0  0  0  0  0  0  0  0  0  0
    8.7844    8.5915   20.7496 C   0  0  0  0  0  0  0  0  0  0  0  0
   10.0060    8.6422   21.4062 C   0  0  0  0  0  0  0  0  0  0  0  0
   10.3028    7.7588   22.4519 C   0  0  0  0  0  0  0  0  0  0  0  0
   11.5664    7.8478   23.0608 C   0  0  0  0  0  0  0  0  0  0  0  0
   11.9328    6.9734   24.0764 C   0  0  0  0  0  0  0  0  0  0  0  0
   13.4865    7.0996   24.8026 Cl  0  0  0  0  0  0  0  0  0  0  0  0
   11.0525    5.9908   24.4919 C   0  0  0  0  0  0  0  0  0  0  0  0
    9.7900    5.8973   23.8957 C   0  0  0  0  0  0  0  0  0  0  0  0
    9.3499    6.7871   22.8739 C   0  0  0  0  0  0  0  0  0  0  0  0
    1.5083    4.5453   22.0170 N   0  0  0  0  0  0  0  0  0  0  0  0
    2.6627    5.2599   22.1511 C   0  0  0  0  0  0  0  0  0  0  0  0
    2.6602    6.4676   21.9567 O   0  0  0  0  0  0  0  0  0  0  0  0
    3.7229    4.4684   22.4966 N   0  0  0  0  0  0  0  0  0  0  0  0
    0.6721    5.0026   21.7701 H   0  0  0  0  0  0  0  0  0  0  0  0
    1.5113    3.5723   22.1671 H   0  0  0  0  0  0  0  0  0  0  0  0
    3.5504    3.5039   22.5926 H   0  0  0  0  0  0  0  0  0  0  0  0
    5.5297    3.6081   24.8887 C   0  0  0  0  0  0  0  0  0  0  0  0
    6.6099    3.0886   25.5453 N   0  0  0  0  0  0  0  0  0  0  0  0
    4.3776    3.3283   25.2086 O   0  0  0  0  0  0  0  0  0  0  0  0
    7.5212    3.3330   25.2640 H   0  0  0  0  0  0  0  0  0  0  0  0
    6.4768    2.4699   26.2994 H   0  0  0  0  0  0  0  0  0  0  0  0
 17 18  1  0
 18 19  2  0
 18 20  1  0
 20  1  1  0
  1  2  2  0
  2  3  1  0
  3  6  1  0
  6  7  2  0
  7  8  1  0
  8  9  2  0
  9 10  1  0
 10 11  2  0
 11 12  1  0
 12 13  1  0
 12 14  2  0
 14 15  1  0
 15 16  2  0
  3  4  1  0
  4  5  2  0
  5 24  1  0
 24 25  1  0
 24 26  2  0
  5  1  1  0
 16  6  1  0
 16 10  1  0
 17 21  1  0
 17 22  1  0
 20 23  1  0
 25 27  1  0
 25 28  1  0
M  END
> <minimizedAffinity>
-7.19638

> <CNNscore>
0.8903614283

> <CNNaffinity>
6.6962833405

> <CNN_VS>
5.9621124268

> <CNNaffinity_variance>
0.1256326884

$$$$



 28 30  0  0  0  0  0  0  0  0999 V2000
    4.7596    5.3484   22.0385 C   0  0  0  0  0  0  0  0  0  0  0  0
    5.8246    6.1621   21.7498 C   0  0  0  0  0  0  0  0  0  0  0  0
    6.7539    6.0187   22.7613 N   0  0  0  0  0  0  0  0  0  0  0  0
    6.3166    5.1330   23.6943 N   0  0  0  0  0  0  0  0  0  0  0  0
    5.1072    4.7292   23.2634 C   0  0  0  0  0  0  0  0  0  0  0  0
    7.9890    6.7346   22.9068 C   0  0  0  0  0  0  0  0  0  0  0  0
    8.5060    6.8654   24.2127 C   0  0  0  0  0  0  0  0  0  0  0  0
    9.7316    7.4805   24.4379 C   0  0  0  0  0  0  0  0  0  0  0  0
   10.4622    7.9754   23.3668 C   0  0  0  0  0  0  0  0  0  0  0  0
    9.9756    7.8869   22.0563 C   0  0  0  0  0  0  0  0  0  0  0  0
   10.7545    8.4274   21.0186 C   0  0  0  0  0  0  0  0  0  0  0  0
   10.3068    8.4044   19.7036 C   0  0  0  0  0  0  0  0  0  0  0  0
   11.2760    9.0763   18.4520 Cl  0  0  0  0  0  0  0  0  0  0  0  0
    9.0733    7.8549   19.4041 C   0  0  0  0  0  0  0  0  0  0  0  0
    8.2927    7.3095   20.4294 C   0  0  0  0  0  0  0  0  0  0  0  0
    8.7161    7.2766   21.7892 C   0  0  0  0  0  0  0  0  0  0  0  0
    2.0747    5.3552   19.6442 N   0  0  0  0  0  0  0  0  0  0  0  0
    3.3106    5.7132   20.0978 C   0  0  0  0  0  0  0  0  0  0  0  0
    4.0208    6.4459   19.4232 O   0  0  0  0  0  0  0  0  0  0  0  0
    3.5954    5.1572   21.3141 N   0  0  0  0  0  0  0  0  0  0  0  0
    1.7521    5.6917   18.7771 H   0  0  0  0  0  0  0  0  0  0  0  0
    1.5055    4.7603   20.1840 H   0  0  0  0  0  0  0  0  0  0  0  0
    2.9122    4.5690   21.7097 H   0  0  0  0  0  0  0  0  0  0  0  0
    4.2943    3.7695   24.0184 C   0  0  0  0  0  0  0  0  0  0  0  0
    4.9130    3.2371   25.1145 N   0  0  0  0  0  0  0  0  0  0  0  0
    3.1446    3.4679   23.7096 O   0  0  0  0  0  0  0  0  0  0  0  0
    5.8359    3.4997   25.3349 H   0  0  0  0  0  0  0  0  0  0  0  0
    4.4357    2.5910   25.6838 H   0  0  0  0  0  0  0  0  0  0  0  0
 17 18  1  0
 18 19  2  0
 18 20  1  0
 20  1  1  0
  1  2  2  0
  2  3  1  0
  3  6  1  0
  6  7  2  0
  7  8  1  0
  8  9  2  0
  9 10  1  0
 10 11  2  0
 11 12  1  0
 12 13  1  0
 12 14  2  0
 14 15  1  0
 15 16  2  0
  3  4  1  0
  4  5  2  0
  5 24  1  0
 24 25  1  0
 24 26  2  0
  5  1  1  0
 16  6  1  0
 16 10  1  0
 17 21  1  0
 17 22  1  0
 20 23  1  0
 25 27  1  0
 25 28  1  0
M  END
> <minimizedAffinity>
-8.44655

> <CNNscore>
0.8835126758

> <CNNaffinity>
6.8739485741

> <CNN_VS>
6.0732207298

> <CNNaffinity_variance>
0.1499872655

$$$$



 28 30  0  0  0  0  0  0  0  0999 V2000
    4.8568    5.3087   21.9034 C   0  0  0  0  0  0  0  0  0  0  0  0
    5.9766    6.0183   21.5541 C   0  0  0  0  0  0  0  0  0  0  0  0
    6.9256    5.8242   22.5385 N   0  0  0  0  0  0  0  0  0  0  0  0
    6.4474    5.0071   23.5132 N   0  0  0  0  0  0  0  0  0  0  0  0
    5.1934    4.6973   23.1353 C   0  0  0  0  0  0  0  0  0  0  0  0
    8.2219    6.4342   22.6204 C   0  0  0  0  0  0  0  0  0  0  0  0
    8.4169    7.6289   21.8962 C   0  0  0  0  0  0  0  0  0  0  0  0
    9.6172    8.3247   21.9754 C   0  0  0  0  0  0  0  0  0  0  0  0
   10.6428    7.8423   22.7763 C   0  0  0  0  0  0  0  0  0  0  0  0
   10.4997    6.6481   23.4942 C   0  0  0  0  0  0  0  0  0  0  0  0
   11.5842    6.2030   24.2697 C   0  0  0  0  0  0  0  0  0  0  0  0
   11.5159    5.0065   24.9725 C   0  0  0  0  0  0  0  0  0  0  0  0
   12.8580    4.4809   25.9105 Cl  0  0  0  0  0  0  0  0  0  0  0  0
   10.3731    4.2303   24.9040 C   0  0  0  0  0  0  0  0  0  0  0  0
    9.2859    4.6673   24.1391 C   0  0  0  0  0  0  0  0  0  0  0  0
    9.2889    5.9002   23.4253 C   0  0  0  0  0  0  0  0  0  0  0  0
    2.1016    5.4728   19.5962 N   0  0  0  0  0  0  0  0  0  0  0  0
    3.3799    5.7327   19.9961 C   0  0  0  0  0  0  0  0  0  0  0  0
    4.1293    6.3717   19.2707 O   0  0  0  0  0  0  0  0  0  0  0  0
    3.6555    5.1983   21.2242 N   0  0  0  0  0  0  0  0  0  0  0  0
    1.7806    5.8052   18.7268 H   0  0  0  0  0  0  0  0  0  0  0  0
    1.5002    4.9530   20.1769 H   0  0  0  0  0  0  0  0  0  0  0  0
    2.9362    4.6901   21.6642 H   0  0  0  0  0  0  0  0  0  0  0  0
    4.3286    3.8339   23.9468 C   0  0  0  0  0  0  0  0  0  0  0  0
    4.8851    3.4132   25.1219 N   0  0  0  0  0  0  0  0  0  0  0  0
    3.1895    3.5161   23.6158 O   0  0  0  0  0  0  0  0  0  0  0  0
    5.8011    3.6858   25.3582 H   0  0  0  0  0  0  0  0  0  0  0  0
    4.3700    2.8375   25.7322 H   0  0  0  0  0  0  0  0  0  0  0  0
 17 18  1  0
 18 19  2  0
 18 20  1  0
 20  1  1  0
  1  2  2  0
  2  3  1  0
  3  6  1  0
  6  7  2  0
  7  8  1  0
  8  9  2  0
  9 10  1  0
 10 11  2  0
 11 12  1  0
 12 13  1  0
 12 14  2  0
 14 15  1  0
 15 16  2  0
  3  4  1  0
  4  5  2  0
  5 24  1  0
 24 25  1  0
 24 26  2  0
  5  1  1  0
 16  6  1  0
 16 10  1  0
 17 21  1  0
 17 22  1  0
 20 23  1  0
 25 27  1  0
 25 28  1  0
M  END
> <minimizedAffinity>
-7.44076

> <CNNscore>
0.8627047539

> <CNNaffinity>
6.9434661865

> <CNN_VS>
5.9901614189

> <CNNaffinity_variance>
0.3491207063

$$$$



 28 30  0  0  0  0  0  0  0  0999 V2000
    5.0609    5.2408   22.0326 C   0  0  0  0  0  0  0  0  0  0  0  0
    6.3701    5.4928   22.3516 C   0  0  0  0  0  0  0  0  0  0  0  0
    6.6624    4.8079   23.5147 N   0  0  0  0  0  0  0  0  0  0  0  0
    5.5760    4.1200   23.9537 N   0  0  0  0  0  0  0  0  0  0  0  0
    4.6027    4.3839   23.0624 C   0  0  0  0  0  0  0  0  0  0  0  0
    7.8944    4.8408   24.2497 C   0  0  0  0  0  0  0  0  0  0  0  0
    8.0216    3.9442   25.3313 C   0  0  0  0  0  0  0  0  0  0  0  0
    9.2062    3.8580   26.0526 C   0  0  0  0  0  0  0  0  0  0  0  0
   10.2832    4.6633   25.7092 C   0  0  0  0  0  0  0  0  0  0  0  0
   10.1923    5.5833   24.6570 C   0  0  0  0  0  0  0  0  0  0  0  0
   11.3120    6.3846   24.3742 C   0  0  0  0  0  0  0  0  0  0  0  0
   11.2690    7.3419   23.3683 C   0  0  0  0  0  0  0  0  0  0  0  0
   12.6506    8.3133   23.0443 Cl  0  0  0  0  0  0  0  0  0  0  0  0
   10.1085    7.5241   22.6381 C   0  0  0  0  0  0  0  0  0  0  0  0
    8.9901    6.7278   22.9084 C   0  0  0  0  0  0  0  0  0  0  0  0
    8.9886    5.7099   23.9051 C   0  0  0  0  0  0  0  0  0  0  0  0
    2.7142    6.7968   19.7934 N   0  0  0  0  0  0  0  0  0  0  0  0
    3.2369    6.5276   21.0246 C   0  0  0  0  0  0  0  0  0  0  0  0
    2.7284    7.0156   22.0245 O   0  0  0  0  0  0  0  0  0  0  0  0
    4.3279    5.7064   20.9543 N   0  0  0  0  0  0  0  0  0  0  0  0
    1.9242    7.3783   19.7105 H   0  0  0  0  0  0  0  0  0  0  0  0
    3.1272    6.4095   18.9880 H   0  0  0  0  0  0  0  0  0  0  0  0
    4.6178    5.4210   20.0578 H   0  0  0  0  0  0  0  0  0  0  0  0
    3.2520    3.8285   23.2000 C   0  0  0  0  0  0  0  0  0  0  0  0
    2.5956    3.6277   22.0182 N   0  0  0  0  0  0  0  0  0  0  0  0
    2.7433    3.5497   24.2823 O   0  0  0  0  0  0  0  0  0  0  0  0
    3.0314    3.8618   21.1670 H   0  0  0  0  0  0  0  0  0  0  0  0
    1.6868    3.2490   22.0181 H   0  0  0  0  0  0  0  0  0  0  0  0
 17 18  1  0
 18 19  2  0
 18 20  1  0
 20  1  1  0
  1  2  2  0
  2  3  1  0
  3  6  1  0
  6  7  2  0
  7  8  1  0
  8  9  2  0
  9 10  1  0
 10 11  2  0
 11 12  1  0
 12 13  1  0
 12 14  2  0
 14 15  1  0
 15 16  2  0
  3  4  1  0
  4  5  2  0
  5 24  1  0
 24 25  1  0
 24 26  2  0
  5  1  1  0
 16  6  1  0
 16 10  1  0
 17 21  1  0
 17 22  1  0
 20 23  1  0
 25 27  1  0
 25 28  1  0
M  END
> <minimizedAffinity>
-7.27527

> <CNNscore>
0.8127306700

> <CNNaffinity>
6.7956032753

> <CNN_VS>
5.5229949951

> <CNNaffinity_variance>
0.3262405097

$$$$



 28 30  0  0  0  0  0  0  0  0999 V2000
    6.2535    4.7791   22.9095 C   0  0  0  0  0  0  0  0  0  0  0  0
    7.5727    4.8868   23.2666 C   0  0  0  0  0  0  0  0  0  0  0  0
    7.7436    4.2198   24.4638 N   0  0  0  0  0  0  0  0  0  0  0  0
    6.5691    3.6838   24.8876 N   0  0  0  0  0  0  0  0  0  0  0  0
    5.6634    4.0248   23.9524 C   0  0  0  0  0  0  0  0  0  0  0  0
    8.9466    4.1363   25.2416 C   0  0  0  0  0  0  0  0  0  0  0  0
   10.1345    4.6017   24.6398 C   0  0  0  0  0  0  0  0  0  0  0  0
   11.3316    4.6245   25.3453 C   0  0  0  0  0  0  0  0  0  0  0  0
   11.3654    4.1842   26.6611 C   0  0  0  0  0  0  0  0  0  0  0  0
   10.2141    3.6929   27.2896 C   0  0  0  0  0  0  0  0  0  0  0  0
   10.3206    3.2420   28.6166 C   0  0  0  0  0  0  0  0  0  0  0  0
    9.2225    2.7080   29.2795 C   0  0  0  0  0  0  0  0  0  0  0  0
    9.3792    2.1587   30.9015 Cl  0  0  0  0  0  0  0  0  0  0  0  0
    8.0069    2.6039   28.6281 C   0  0  0  0  0  0  0  0  0  0  0  0
    7.8892    3.0549   27.3086 C   0  0  0  0  0  0  0  0  0  0  0  0
    8.9726    3.6404   26.5924 C   0  0  0  0  0  0  0  0  0  0  0  0
    4.2046    6.5332   20.5291 N   0  0  0  0  0  0  0  0  0  0  0  0
    4.6612    6.2627   21.7859 C   0  0  0  0  0  0  0  0  0  0  0  0
    4.2170    6.8803   22.7438 O   0  0  0  0  0  0  0  0  0  0  0  0
    5.6163    5.2842   21.7890 N   0  0  0  0  0  0  0  0  0  0  0  0
    3.5131    7.2208   20.3939 H   0  0  0  0  0  0  0  0  0  0  0  0
    4.5666    6.0408   19.7572 H   0  0  0  0  0  0  0  0  0  0  0  0
    5.8736    4.9054   20.9174 H   0  0  0  0  0  0  0  0  0  0  0  0
    4.2522    3.6393   24.0607 C   0  0  0  0  0  0  0  0  0  0  0  0
    3.5968    3.5353   22.8660 N   0  0  0  0  0  0  0  0  0  0  0  0
    3.6940    3.4131   25.1308 O   0  0  0  0  0  0  0  0  0  0  0  0
    4.0731    3.7236   22.0252 H   0  0  0  0  0  0  0  0  0  0  0  0
    2.6484    3.2721   22.8461 H   0  0  0  0  0  0  0  0  0  0  0  0
 17 18  1  0
 18 19  2  0
 18 20  1  0
 20  1  1  0
  1  2  2  0
  2  3  1  0
  3  6  1  0
  6  7  2  0
  7  8  1  0
  8  9  2  0
  9 10  1  0
 10 11  2  0
 11 12  1  0
 12 13  1  0
 12 14  2  0
 14 15  1  0
 15 16  2  0
  3  4  1  0
  4  5  2  0
  5 24  1  0
 24 25  1  0
 24 26  2  0
  5  1  1  0
 16  6  1  0
 16 10  1  0
 17 21  1  0
 17 22  1  0
 20 23  1  0
 25 27  1  0
 25 28  1  0
M  END
> <minimizedAffinity>
-7.01014

> <CNNscore>
0.7024698853

> <CNNaffinity>
6.3516292572

> <CNN_VS>
4.4618282318

> <CNNaffinity_variance>
0.2249548435

$$$$



 28 30  0  0  0  0  0  0  0  0999 V2000
    5.3767    5.4111   22.7476 C   0  0  0  0  0  0  0  0  0  0  0  0
    5.9440    6.3570   21.9335 C   0  0  0  0  0  0  0  0  0  0  0  0
    7.3160    6.2455   22.0461 N   0  0  0  0  0  0  0  0  0  0  0  0
    7.6483    5.2515   22.9109 N   0  0  0  0  0  0  0  0  0  0  0  0
    6.4772    4.7476   23.3420 C   0  0  0  0  0  0  0  0  0  0  0  0
    8.3040    7.0821   21.4271 C   0  0  0  0  0  0  0  0  0  0  0  0
    9.2152    7.7393   22.2801 C   0  0  0  0  0  0  0  0  0  0  0  0
   10.2484    8.5115   21.7632 C   0  0  0  0  0  0  0  0  0  0  0  0
   10.3910    8.6423   20.3889 C   0  0  0  0  0  0  0  0  0  0  0  0
    9.4951    8.0255   19.5065 C   0  0  0  0  0  0  0  0  0  0  0  0
    9.6822    8.2153   18.1264 C   0  0  0  0  0  0  0  0  0  0  0  0
    8.8036    7.6611   17.2039 C   0  0  0  0  0  0  0  0  0  0  0  0
    9.0511    7.9116   15.5206 Cl  0  0  0  0  0  0  0  0  0  0  0  0
    7.7201    6.9210   17.6413 C   0  0  0  0  0  0  0  0  0  0  0  0
    7.5280    6.7217   19.0130 C   0  0  0  0  0  0  0  0  0  0  0  0
    8.4149    7.2386   20.0008 C   0  0  0  0  0  0  0  0  0  0  0  0
    1.8751    4.6214   22.5096 N   0  0  0  0  0  0  0  0  0  0  0  0
    3.1265    4.8015   21.9967 C   0  0  0  0  0  0  0  0  0  0  0  0
    3.3250    4.6447   20.8000 O   0  0  0  0  0  0  0  0  0  0  0  0
    4.0349    5.1442   22.9596 N   0  0  0  0  0  0  0  0  0  0  0  0
    1.1309    4.3716   21.9155 H   0  0  0  0  0  0  0  0  0  0  0  0
    1.7164    4.7412   23.4738 H   0  0  0  0  0  0  0  0  0  0  0  0
    3.7057    5.2065   23.8853 H   0  0  0  0  0  0  0  0  0  0  0  0
    6.4144    3.6513   24.3146 C   0  0  0  0  0  0  0  0  0  0  0  0
    5.5089    2.6732   24.0128 N   0  0  0  0  0  0  0  0  0  0  0  0
    7.1209    3.5968   25.3176 O   0  0  0  0  0  0  0  0  0  0  0  0
    4.9573    2.7467   23.2006 H   0  0  0  0  0  0  0  0  0  0  0  0
    5.4082    1.8951   24.6075 H   0  0  0  0  0  0  0  0  0  0  0  0
 17 18  1  0
 18 19  2  0
 18 20  1  0
 20  1  1  0
  1  2  2  0
  2  3  1  0
  3  6  1  0
  6  7  2  0
  7  8  1  0
  8  9  2  0
  9 10  1  0
 10 11  2  0
 11 12  1  0
 12 13  1  0
 12 14  2  0
 14 15  1  0
 15 16  2  0
  3  4  1  0
  4  5  2  0
  5 24  1  0
 24 25  1  0
 24 26  2  0
  5  1  1  0
 16  6  1  0
 16 10  1  0
 17 21  1  0
 17 22  1  0
 20 23  1  0
 25 27  1  0
 25 28  1  0
M  END
> <minimizedAffinity>
-6.79563

> <CNNscore>
0.5302594900

> <CNNaffinity>
6.4711437225

> <CNN_VS>
3.4313852787

> <CNNaffinity_variance>
0.1575103551

$$$$



 28 30  0  0  0  0  0  0  0  0999 V2000
    4.7835    5.7166   21.5991 C   0  0  0  0  0  0  0  0  0  0  0  0
    5.9451    6.1155   22.2082 C   0  0  0  0  0  0  0  0  0  0  0  0
    6.7225    6.7535   21.2618 N   0  0  0  0  0  0  0  0  0  0  0  0
    6.0922    6.7775   20.0583 N   0  0  0  0  0  0  0  0  0  0  0  0
    4.9205    6.1458   20.2569 C   0  0  0  0  0  0  0  0  0  0  0  0
    8.0500    7.2688   21.4396 C   0  0  0  0  0  0  0  0  0  0  0  0
    8.5754    7.2531   22.7487 C   0  0  0  0  0  0  0  0  0  0  0  0
    9.8781    7.6661   23.0008 C   0  0  0  0  0  0  0  0  0  0  0  0
   10.6786    8.1016   21.9541 C   0  0  0  0  0  0  0  0  0  0  0  0
   10.1895    8.1548   20.6427 C   0  0  0  0  0  0  0  0  0  0  0  0
   11.0443    8.6263   19.6315 C   0  0  0  0  0  0  0  0  0  0  0  0
   10.6035    8.7386   18.3187 C   0  0  0  0  0  0  0  0  0  0  0  0
   11.6670    9.3226   17.1001 Cl  0  0  0  0  0  0  0  0  0  0  0  0
    9.3031    8.3954   17.9958 C   0  0  0  0  0  0  0  0  0  0  0  0
    8.4458    7.9199   18.9943 C   0  0  0  0  0  0  0  0  0  0  0  0
    8.8541    7.7537   20.3490 C   0  0  0  0  0  0  0  0  0  0  0  0
    2.5442    3.5633   23.4130 N   0  0  0  0  0  0  0  0  0  0  0  0
    3.7761    4.0462   23.0802 C   0  0  0  0  0  0  0  0  0  0  0  0
    4.7771    3.5858   23.6115 O   0  0  0  0  0  0  0  0  0  0  0  0
    3.7051    5.0443   22.1484 N   0  0  0  0  0  0  0  0  0  0  0  0
    2.4616    2.8400   24.0758 H   0  0  0  0  0  0  0  0  0  0  0  0
    1.7379    3.9381   22.9904 H   0  0  0  0  0  0  0  0  0  0  0  0
    2.8078    5.3082   21.8409 H   0  0  0  0  0  0  0  0  0  0  0  0
    3.9502    5.9505   19.1742 C   0  0  0  0  0  0  0  0  0  0  0  0
    2.7135    5.5386   19.5851 N   0  0  0  0  0  0  0  0  0  0  0  0
    4.2097    6.1490   17.9905 O   0  0  0  0  0  0  0  0  0  0  0  0
    2.5375    5.3883   20.5420 H   0  0  0  0  0  0  0  0  0  0  0  0
    1.9987    5.3922   18.9242 H   0  0  0  0  0  0  0  0  0  0  0  0
 17 18  1  0
 18 19  2  0
 18 20  1  0
 20  1  1  0
  1  2  2  0
  2  3  1  0
  3  6  1  0
  6  7  2  0
  7  8  1  0
  8  9  2  0
  9 10  1  0
 10 11  2  0
 11 12  1  0
 12 13  1  0
 12 14  2  0
 14 15  1  0
 15 16  2  0
  3  4  1  0
  4  5  2  0
  5 24  1  0
 24 25  1  0
 24 26  2  0
  5  1  1  0
 16  6  1  0
 16 10  1  0
 17 21  1  0
 17 22  1  0
 20 23  1  0
 25 27  1  0
 25 28  1  0
M  END
> <minimizedAffinity>
-7.61238

> <CNNscore>
0.4642702639

> <CNNaffinity>
6.4260764122

> <CNN_VS>
2.9834361076

> <CNNaffinity_variance>
0.1218880191

$$$$
