


 28 31  0  0  0  0  0  0  0  0999 V2000
   13.9714   -2.2242   10.9779 C   0  0  0  0  0  0  0  0  0  0  0  0
   13.0607   -1.2648   10.6808 N   0  0  0  0  0  0  0  0  0  0  0  0
   13.4333   -0.2117    9.9295 C   0  0  0  0  0  0  0  0  0  0  0  0
   14.6338    0.0326    9.3989 N   0  0  0  0  0  0  0  0  0  0  0  0
   15.5028   -0.9404    9.6986 C   0  0  0  0  0  0  0  0  0  0  0  0
   16.7956   -0.9142    9.2822 O   0  0  0  0  0  0  0  0  0  0  0  0
   17.4140   -2.0431    9.7454 C   0  0  0  0  0  0  0  0  0  0  0  0
   16.4995   -2.8030   10.4624 C   0  0  0  0  0  0  0  0  0  0  0  0
   15.2651   -2.0805   10.4491 C   0  0  0  0  0  0  0  0  0  0  0  0
   18.8243   -2.1586    9.3706 C   0  0  0  0  0  0  0  0  0  0  0  0
   19.6810   -3.0727   10.0007 C   0  0  0  0  0  0  0  0  0  0  0  0
   21.0289   -3.1654    9.6352 C   0  0  0  0  0  0  0  0  0  0  0  0
   21.5320   -2.3448    8.6298 C   0  0  0  0  0  0  0  0  0  0  0  0
   23.3518   -2.4698    8.1367 Br  0  0  0  0  0  0  0  0  0  0  0  0
   20.7002   -1.4351    7.9848 C   0  0  0  0  0  0  0  0  0  0  0  0
   19.3541   -1.3458    8.3540 C   0  0  0  0  0  0  0  0  0  0  0  0
   16.8014   -4.0662   11.1013 C   0  0  0  0  0  0  0  0  0  0  0  0
   17.0621   -4.1196   12.4742 C   0  0  0  0  0  0  0  0  0  0  0  0
   17.3360   -5.3444   13.0845 C   0  0  0  0  0  0  0  0  0  0  0  0
   17.3472   -6.5160   12.3275 C   0  0  0  0  0  0  0  0  0  0  0  0
   17.0855   -6.4673   10.9586 C   0  0  0  0  0  0  0  0  0  0  0  0
   16.8120   -5.2447   10.3442 C   0  0  0  0  0  0  0  0  0  0  0  0
   13.6075   -3.2829   11.7977 N   0  0  0  0  0  0  0  0  0  0  0  0
   14.2660   -3.9678   12.0555 H   0  0  0  0  0  0  0  0  0  0  0  0
   12.2338   -3.3604   12.2682 C   0  0  0  0  0  0  0  0  0  0  0  0
   10.6837   -2.3389   13.8471 O   0  0  0  0  0  0  0  0  0  0  0  0
   12.0464   -2.7016   13.6389 C   0  0  0  0  0  0  0  0  0  0  0  0
   10.5890   -1.9246   14.7191 H   0  0  0  0  0  0  0  0  0  0  0  0
 26 27  1  0
 27 25  1  0
 25 23  1  0
 23  1  1  0
  1  2  2  0
  2  3  1  0
  3  4  2  0
  4  5  1  0
  5  6  1  0
  6  7  1  0
  7 10  1  0
 10 11  2  0
 11 12  1  0
 12 13  2  0
 13 14  1  0
 13 15  1  0
 15 16  2  0
  7  8  2  0
  8 17  1  0
 17 18  2  0
 18 19  1  0
 19 20  2  0
 20 21  1  0
 21 22  2  0
  8  9  1  0
  9  1  1  0
  9  5  2  0
 16 10  1  0
 22 17  1  0
 26 28  1  0
 23 24  1  0
M  END
> <minimizedAffinity>
-8.19630

> <CNNscore>
0.9029482007

> <CNNaffinity>
6.9846096039

> <CNN_VS>
6.3067407608

> <CNNaffinity_variance>
0.0581382327

$$$$



 28 31  0  0  0  0  0  0  0  0999 V2000
   14.7047   -1.6725   10.5095 C   0  0  0  0  0  0  0  0  0  0  0  0
   13.9962   -0.5878   10.1101 N   0  0  0  0  0  0  0  0  0  0  0  0
   14.6011    0.3586    9.3680 C   0  0  0  0  0  0  0  0  0  0  0  0
   15.8650    0.3793    8.9383 N   0  0  0  0  0  0  0  0  0  0  0  0
   16.5300   -0.7117    9.3370 C   0  0  0  0  0  0  0  0  0  0  0  0
   17.8384   -0.9167    9.0346 O   0  0  0  0  0  0  0  0  0  0  0  0
   18.2178   -2.1133    9.5782 C   0  0  0  0  0  0  0  0  0  0  0  0
   17.1326   -2.6823   10.2315 C   0  0  0  0  0  0  0  0  0  0  0  0
   16.0429   -1.7661   10.0923 C   0  0  0  0  0  0  0  0  0  0  0  0
   19.6142   -2.4758    9.3310 C   0  0  0  0  0  0  0  0  0  0  0  0
   20.3549   -1.8888    8.2949 C   0  0  0  0  0  0  0  0  0  0  0  0
   21.6872   -2.2521    8.0675 C   0  0  0  0  0  0  0  0  0  0  0  0
   22.2936   -3.2056    8.8802 C   0  0  0  0  0  0  0  0  0  0  0  0
   24.0924   -3.6961    8.5730 Br  0  0  0  0  0  0  0  0  0  0  0  0
   21.5819   -3.7968    9.9192 C   0  0  0  0  0  0  0  0  0  0  0  0
   20.2505   -3.4309   10.1420 C   0  0  0  0  0  0  0  0  0  0  0  0
   17.1639   -3.9519   10.9257 C   0  0  0  0  0  0  0  0  0  0  0  0
   17.3877   -3.9979   12.3055 C   0  0  0  0  0  0  0  0  0  0  0  0
   17.3998   -5.2255   12.9691 C   0  0  0  0  0  0  0  0  0  0  0  0
   17.1860   -6.4067   12.2585 C   0  0  0  0  0  0  0  0  0  0  0  0
   16.9602   -6.3649   10.8830 C   0  0  0  0  0  0  0  0  0  0  0  0
   16.9481   -5.1397   10.2154 C   0  0  0  0  0  0  0  0  0  0  0  0
   14.1016   -2.6231   11.3207 N   0  0  0  0  0  0  0  0  0  0  0  0
   14.1740   -3.5820   11.1098 H   0  0  0  0  0  0  0  0  0  0  0  0
   13.3604   -2.1743   12.4884 C   0  0  0  0  0  0  0  0  0  0  0  0
   11.3724   -2.5658   13.8427 O   0  0  0  0  0  0  0  0  0  0  0  0
   11.9567   -2.7846   12.5611 C   0  0  0  0  0  0  0  0  0  0  0  0
   10.4863   -2.9597   13.8656 H   0  0  0  0  0  0  0  0  0  0  0  0
 26 27  1  0
 27 25  1  0
 25 23  1  0
 23  1  1  0
  1  2  2  0
  2  3  1  0
  3  4  2  0
  4  5  1  0
  5  6  1  0
  6  7  1  0
  7 10  1  0
 10 11  2  0
 11 12  1  0
 12 13  2  0
 13 14  1  0
 13 15  1  0
 15 16  2  0
  7  8  2  0
  8 17  1  0
 17 18  2  0
 18 19  1  0
 19 20  2  0
 20 21  1  0
 21 22  2  0
  8  9  1  0
  9  1  1  0
  9  5  2  0
 16 10  1  0
 22 17  1  0
 26 28  1  0
 23 24  1  0
M  END
> <minimizedAffinity>
-7.96606

> <CNNscore>
0.8924253583

> <CNNaffinity>
6.7901320457

> <CNN_VS>
6.0596861839

> <CNNaffinity_variance>
0.0195158552

$$$$



 28 31  0  0  0  0  0  0  0  0999 V2000
   18.0004   -2.4594    9.8800 C   0  0  0  0  0  0  0  0  0  0  0  0
   18.5317   -1.6962    8.8934 N   0  0  0  0  0  0  0  0  0  0  0  0
   17.7942   -0.7071    8.3549 C   0  0  0  0  0  0  0  0  0  0  0  0
   16.5502   -0.3443    8.6764 N   0  0  0  0  0  0  0  0  0  0  0  0
   16.0629   -1.1071    9.6624 C   0  0  0  0  0  0  0  0  0  0  0  0
   14.8092   -0.9408   10.1584 O   0  0  0  0  0  0  0  0  0  0  0  0
   14.6185   -1.8640   11.1497 C   0  0  0  0  0  0  0  0  0  0  0  0
   15.7706   -2.6259   11.2916 C   0  0  0  0  0  0  0  0  0  0  0  0
   16.7012   -2.1491   10.3154 C   0  0  0  0  0  0  0  0  0  0  0  0
   13.3023   -1.8053   11.7876 C   0  0  0  0  0  0  0  0  0  0  0  0
   12.5544   -2.9643   12.0405 C   0  0  0  0  0  0  0  0  0  0  0  0
   11.2942   -2.8899   12.6448 C   0  0  0  0  0  0  0  0  0  0  0  0
   10.7714   -1.6517   13.0064 C   0  0  0  0  0  0  0  0  0  0  0  0
    9.0698   -1.5514   13.8219 Br  0  0  0  0  0  0  0  0  0  0  0  0
   11.4974   -0.4881   12.7725 C   0  0  0  0  0  0  0  0  0  0  0  0
   12.7560   -0.5676   12.1678 C   0  0  0  0  0  0  0  0  0  0  0  0
   15.9328   -3.7018   12.2461 C   0  0  0  0  0  0  0  0  0  0  0  0
   15.7785   -5.0325   11.8445 C   0  0  0  0  0  0  0  0  0  0  0  0
   15.9530   -6.0640   12.7682 C   0  0  0  0  0  0  0  0  0  0  0  0
   16.2840   -5.7697   14.0910 C   0  0  0  0  0  0  0  0  0  0  0  0
   16.4409   -4.4442   14.4949 C   0  0  0  0  0  0  0  0  0  0  0  0
   16.2666   -3.4097   13.5748 C   0  0  0  0  0  0  0  0  0  0  0  0
   18.7356   -3.5152   10.3997 N   0  0  0  0  0  0  0  0  0  0  0  0
   18.2906   -4.3481   10.6781 H   0  0  0  0  0  0  0  0  0  0  0  0
   20.1766   -3.3665   10.5250 C   0  0  0  0  0  0  0  0  0  0  0  0
   19.7619   -4.9249   12.3523 O   0  0  0  0  0  0  0  0  0  0  0  0
   20.7794   -4.3404   11.5429 C   0  0  0  0  0  0  0  0  0  0  0  0
   20.1658   -5.5364   12.9878 H   0  0  0  0  0  0  0  0  0  0  0  0
 26 27  1  0
 27 25  1  0
 25 23  1  0
 23  1  1  0
  1  2  2  0
  2  3  1  0
  3  4  2  0
  4  5  1  0
  5  6  1  0
  6  7  1  0
  7 10  1  0
 10 11  2  0
 11 12  1  0
 12 13  2  0
 13 14  1  0
 13 15  1  0
 15 16  2  0
  7  8  2  0
  8 17  1  0
 17 18  2  0
 18 19  1  0
 19 20  2  0
 20 21  1  0
 21 22  2  0
  8  9  1  0
  9  1  1  0
  9  5  2  0
 16 10  1  0
 22 17  1  0
 26 28  1  0
 23 24  1  0
M  END
> <minimizedAffinity>
-7.78484

> <CNNscore>
0.6392596364

> <CNNaffinity>
6.4965057373

> <CNN_VS>
4.1529541016

> <CNNaffinity_variance>
0.0589021184

$$$$



 28 31  0  0  0  0  0  0  0  0999 V2000
   14.9512   -1.5791   10.5758 C   0  0  0  0  0  0  0  0  0  0  0  0
   14.6940   -0.6083    9.6650 N   0  0  0  0  0  0  0  0  0  0  0  0
   15.6994   -0.1319    8.9070 C   0  0  0  0  0  0  0  0  0  0  0  0
   16.9814   -0.5045    8.9178 N   0  0  0  0  0  0  0  0  0  0  0  0
   17.1966   -1.4732    9.8160 C   0  0  0  0  0  0  0  0  0  0  0  0
   18.4260   -2.0126   10.0232 O   0  0  0  0  0  0  0  0  0  0  0  0
   18.3115   -2.9715   10.9922 C   0  0  0  0  0  0  0  0  0  0  0  0
   16.9876   -3.0486   11.4039 C   0  0  0  0  0  0  0  0  0  0  0  0
   16.2670   -2.0649   10.6560 C   0  0  0  0  0  0  0  0  0  0  0  0
   19.5652   -3.6500   11.3244 C   0  0  0  0  0  0  0  0  0  0  0  0
   20.7948   -2.9761   11.3046 C   0  0  0  0  0  0  0  0  0  0  0  0
   21.9854   -3.6416   11.6180 C   0  0  0  0  0  0  0  0  0  0  0  0
   21.9557   -4.9907   11.9594 C   0  0  0  0  0  0  0  0  0  0  0  0
   23.5632   -5.8893   12.3823 Br  0  0  0  0  0  0  0  0  0  0  0  0
   20.7473   -5.6793   11.9933 C   0  0  0  0  0  0  0  0  0  0  0  0
   19.5602   -5.0099   11.6787 C   0  0  0  0  0  0  0  0  0  0  0  0
   16.4935   -3.9542   12.4190 C   0  0  0  0  0  0  0  0  0  0  0  0
   16.6736   -3.6626   13.7749 C   0  0  0  0  0  0  0  0  0  0  0  0
   16.1791   -4.5334   14.7468 C   0  0  0  0  0  0  0  0  0  0  0  0
   15.5029   -5.6932   14.3678 C   0  0  0  0  0  0  0  0  0  0  0  0
   15.3193   -5.9864   13.0169 C   0  0  0  0  0  0  0  0  0  0  0  0
   15.8127   -5.1188   12.0417 C   0  0  0  0  0  0  0  0  0  0  0  0
   13.9302   -2.0342   11.3978 N   0  0  0  0  0  0  0  0  0  0  0  0
   13.9270   -2.9616   11.7282 H   0  0  0  0  0  0  0  0  0  0  0  0
   12.8650   -1.1136   11.7614 C   0  0  0  0  0  0  0  0  0  0  0  0
   11.1461   -0.6245   13.4184 O   0  0  0  0  0  0  0  0  0  0  0  0
   11.9932   -1.6483   12.9025 C   0  0  0  0  0  0  0  0  0  0  0  0
   10.6046   -0.9850   14.1380 H   0  0  0  0  0  0  0  0  0  0  0  0
 26 27  1  0
 27 25  1  0
 25 23  1  0
 23  1  1  0
  1  2  2  0
  2  3  1  0
  3  4  2  0
  4  5  1  0
  5  6  1  0
  6  7  1  0
  7 10  1  0
 10 11  2  0
 11 12  1  0
 12 13  2  0
 13 14  1  0
 13 15  1  0
 15 16  2  0
  7  8  2  0
  8 17  1  0
 17 18  2  0
 18 19  1  0
 19 20  2  0
 20 21  1  0
 21 22  2  0
  8  9  1  0
  9  1  1  0
  9  5  2  0
 16 10  1  0
 22 17  1  0
 26 28  1  0
 23 24  1  0
M  END
> <minimizedAffinity>
-7.34500

> <CNNscore>
0.4869371653

> <CNNaffinity>
6.3843650818

> <CNN_VS>
3.1087846756

> <CNNaffinity_variance>
0.0324901938

$$$$



 28 31  0  0  0  0  0  0  0  0999 V2000
   23.2736   -3.1566    5.7871 C   0  0  0  0  0  0  0  0  0  0  0  0
   22.5848   -3.1396    4.6195 N   0  0  0  0  0  0  0  0  0  0  0  0
   22.7463   -2.1051    3.7734 C   0  0  0  0  0  0  0  0  0  0  0  0
   23.5369   -1.0397    3.9231 N   0  0  0  0  0  0  0  0  0  0  0  0
   24.2124   -1.0963    5.0772 C   0  0  0  0  0  0  0  0  0  0  0  0
   25.0747   -0.1204    5.4636 O   0  0  0  0  0  0  0  0  0  0  0  0
   25.6017   -0.4744    6.6754 C   0  0  0  0  0  0  0  0  0  0  0  0
   25.0717   -1.6976    7.0639 C   0  0  0  0  0  0  0  0  0  0  0  0
   24.1567   -2.0931    6.0380 C   0  0  0  0  0  0  0  0  0  0  0  0
   26.5599    0.4868    7.2237 C   0  0  0  0  0  0  0  0  0  0  0  0
   27.5541    1.0719    6.4262 C   0  0  0  0  0  0  0  0  0  0  0  0
   28.4671    1.9838    6.9679 C   0  0  0  0  0  0  0  0  0  0  0  0
   28.3905    2.3230    8.3157 C   0  0  0  0  0  0  0  0  0  0  0  0
   29.6233    3.5541    9.0470 Br  0  0  0  0  0  0  0  0  0  0  0  0
   27.4085    1.7616    9.1257 C   0  0  0  0  0  0  0  0  0  0  0  0
   26.4988    0.8502    8.5798 C   0  0  0  0  0  0  0  0  0  0  0  0
   25.4008   -2.3826    8.2957 C   0  0  0  0  0  0  0  0  0  0  0  0
   24.8710   -1.9422    9.5128 C   0  0  0  0  0  0  0  0  0  0  0  0
   25.1806   -2.6189   10.6933 C   0  0  0  0  0  0  0  0  0  0  0  0
   26.0157   -3.7358   10.6607 C   0  0  0  0  0  0  0  0  0  0  0  0
   26.5442   -4.1795    9.4489 C   0  0  0  0  0  0  0  0  0  0  0  0
   26.2378   -3.5054    8.2662 C   0  0  0  0  0  0  0  0  0  0  0  0
   23.0690   -4.1925    6.6874 N   0  0  0  0  0  0  0  0  0  0  0  0
   23.3055   -5.1182    6.4500 H   0  0  0  0  0  0  0  0  0  0  0  0
   22.4982   -3.8831    7.9885 C   0  0  0  0  0  0  0  0  0  0  0  0
   21.4788   -1.7551    8.5982 O   0  0  0  0  0  0  0  0  0  0  0  0
   21.2697   -2.9729    7.8874 C   0  0  0  0  0  0  0  0  0  0  0  0
   20.6900   -1.1959    8.5205 H   0  0  0  0  0  0  0  0  0  0  0  0
 26 27  1  0
 27 25  1  0
 25 23  1  0
 23  1  1  0
  1  2  2  0
  2  3  1  0
  3  4  2  0
  4  5  1  0
  5  6  1  0
  6  7  1  0
  7 10  1  0
 10 11  2  0
 11 12  1  0
 12 13  2  0
 13 14  1  0
 13 15  1  0
 15 16  2  0
  7  8  2  0
  8 17  1  0
 17 18  2  0
 18 19  1  0
 19 20  2  0
 20 21  1  0
 21 22  2  0
  8  9  1  0
  9  1  1  0
  9  5  2  0
 16 10  1  0
 22 17  1  0
 26 28  1  0
 23 24  1  0
M  END
> <minimizedAffinity>
-3.29361

> <CNNscore>
0.3854339123

> <CNNaffinity>
5.7666549683

> <CNN_VS>
2.2226643562

> <CNNaffinity_variance>
1.6393070221

$$$$



 28 31  0  0  0  0  0  0  0  0999 V2000
   26.1644    4.5463    7.4821 C   0  0  0  0  0  0  0  0  0  0  0  0
   26.0857    5.8397    7.8807 N   0  0  0  0  0  0  0  0  0  0  0  0
   26.5217    6.1794    9.1082 C   0  0  0  0  0  0  0  0  0  0  0  0
   27.0577    5.3837   10.0367 N   0  0  0  0  0  0  0  0  0  0  0  0
   27.1343    4.1191    9.6050 C   0  0  0  0  0  0  0  0  0  0  0  0
   27.6339    3.1172   10.3744 O   0  0  0  0  0  0  0  0  0  0  0  0
   27.5794    1.9578    9.6503 C   0  0  0  0  0  0  0  0  0  0  0  0
   27.0429    2.2265    8.3982 C   0  0  0  0  0  0  0  0  0  0  0  0
   26.7362    3.6235    8.3739 C   0  0  0  0  0  0  0  0  0  0  0  0
   28.0913    0.7800   10.3527 C   0  0  0  0  0  0  0  0  0  0  0  0
   28.5228   -0.3605    9.6601 C   0  0  0  0  0  0  0  0  0  0  0  0
   29.0028   -1.4812   10.3475 C   0  0  0  0  0  0  0  0  0  0  0  0
   29.0595   -1.4690   11.7381 C   0  0  0  0  0  0  0  0  0  0  0  0
   29.7074   -2.9822   12.6660 Br  0  0  0  0  0  0  0  0  0  0  0  0
   28.6441   -0.3466   12.4475 C   0  0  0  0  0  0  0  0  0  0  0  0
   28.1646    0.7706   11.7561 C   0  0  0  0  0  0  0  0  0  0  0  0
   26.8337    1.2365    7.3633 C   0  0  0  0  0  0  0  0  0  0  0  0
   27.6870    1.1793    6.2568 C   0  0  0  0  0  0  0  0  0  0  0  0
   27.4876    0.2107    5.2721 C   0  0  0  0  0  0  0  0  0  0  0  0
   26.4399   -0.7026    5.3915 C   0  0  0  0  0  0  0  0  0  0  0  0
   25.5882   -0.6503    6.4945 C   0  0  0  0  0  0  0  0  0  0  0  0
   25.7835    0.3170    7.4810 C   0  0  0  0  0  0  0  0  0  0  0  0
   25.6656    4.1814    6.2398 N   0  0  0  0  0  0  0  0  0  0  0  0
   24.9039    3.5620    6.1666 H   0  0  0  0  0  0  0  0  0  0  0  0
   26.2906    4.7324    5.0481 C   0  0  0  0  0  0  0  0  0  0  0  0
   25.6570    5.6278    2.8719 O   0  0  0  0  0  0  0  0  0  0  0  0
   25.3473    5.6499    4.2631 C   0  0  0  0  0  0  0  0  0  0  0  0
   25.0485    6.2145    2.3959 H   0  0  0  0  0  0  0  0  0  0  0  0
 26 27  1  0
 27 25  1  0
 25 23  1  0
 23  1  1  0
  1  2  2  0
  2  3  1  0
  3  4  2  0
  4  5  1  0
  5  6  1  0
  6  7  1  0
  7 10  1  0
 10 11  2  0
 11 12  1  0
 12 13  2  0
 13 14  1  0
 13 15  1  0
 15 16  2  0
  7  8  2  0
  8 17  1  0
 17 18  2  0
 18 19  1  0
 19 20  2  0
 20 21  1  0
 21 22  2  0
  8  9  1  0
  9  1  1  0
  9  5  2  0
 16 10  1  0
 22 17  1  0
 26 28  1  0
 23 24  1  0
M  END
> <minimizedAffinity>
-3.47472

> <CNNscore>
0.3440561593

> <CNNaffinity>
5.1638484001

> <CNN_VS>
1.7766538858

> <CNNaffinity_variance>
0.2013222426

$$$$



 28 31  0  0  0  0  0  0  0  0999 V2000
   13.4123   -3.1548   11.8168 C   0  0  0  0  0  0  0  0  0  0  0  0
   12.3010   -2.4019   11.6265 N   0  0  0  0  0  0  0  0  0  0  0  0
   12.3804   -1.2863   10.8772 C   0  0  0  0  0  0  0  0  0  0  0  0
   13.4527   -0.7927   10.2534 N   0  0  0  0  0  0  0  0  0  0  0  0
   14.5263   -1.5676   10.4495 C   0  0  0  0  0  0  0  0  0  0  0  0
   15.7436   -1.2694    9.9254 O   0  0  0  0  0  0  0  0  0  0  0  0
   16.6199   -2.2505   10.3011 C   0  0  0  0  0  0  0  0  0  0  0  0
   15.9490   -3.1913   11.0711 C   0  0  0  0  0  0  0  0  0  0  0  0
   14.5962   -2.7402   11.1841 C   0  0  0  0  0  0  0  0  0  0  0  0
   17.9844   -2.0671    9.8042 C   0  0  0  0  0  0  0  0  0  0  0  0
   19.0980   -2.5203   10.5262 C   0  0  0  0  0  0  0  0  0  0  0  0
   20.3966   -2.3304   10.0402 C   0  0  0  0  0  0  0  0  0  0  0  0
   20.5931   -1.6872    8.8216 C   0  0  0  0  0  0  0  0  0  0  0  0
   22.3465   -1.4306    8.1656 Br  0  0  0  0  0  0  0  0  0  0  0  0
   19.5040   -1.2350    8.0833 C   0  0  0  0  0  0  0  0  0  0  0  0
   18.2081   -1.4266    8.5735 C   0  0  0  0  0  0  0  0  0  0  0  0
   16.5599   -4.3713   11.6448 C   0  0  0  0  0  0  0  0  0  0  0  0
   16.3648   -4.6835   12.9940 C   0  0  0  0  0  0  0  0  0  0  0  0
   16.9443   -5.8322   13.5344 C   0  0  0  0  0  0  0  0  0  0  0  0
   17.7157   -6.6711   12.7301 C   0  0  0  0  0  0  0  0  0  0  0  0
   17.9109   -6.3645   11.3837 C   0  0  0  0  0  0  0  0  0  0  0  0
   17.3339   -5.2165   10.8394 C   0  0  0  0  0  0  0  0  0  0  0  0
   13.3486   -4.2748   12.6335 N   0  0  0  0  0  0  0  0  0  0  0  0
   13.8875   -5.0739   12.4329 H   0  0  0  0  0  0  0  0  0  0  0  0
   12.4698   -4.2443   13.7915 C   0  0  0  0  0  0  0  0  0  0  0  0
   13.2739   -5.7479   15.5328 O   0  0  0  0  0  0  0  0  0  0  0  0
   13.2352   -4.3868   15.1113 C   0  0  0  0  0  0  0  0  0  0  0  0
   13.7622   -5.8139   16.3683 H   0  0  0  0  0  0  0  0  0  0  0  0
 26 27  1  0
 27 25  1  0
 25 23  1  0
 23  1  1  0
  1  2  2  0
  2  3  1  0
  3  4  2  0
  4  5  1  0
  5  6  1  0
  6  7  1  0
  7 10  1  0
 10 11  2  0
 11 12  1  0
 12 13  2  0
 13 14  1  0
 13 15  1  0
 15 16  2  0
  7  8  2  0
  8 17  1  0
 17 18  2  0
 18 19  1  0
 19 20  2  0
 20 21  1  0
 21 22  2  0
  8  9  1  0
  9  1  1  0
  9  5  2  0
 16 10  1  0
 22 17  1  0
 26 28  1  0
 23 24  1  0
M  END
> <minimizedAffinity>
-7.12210

> <CNNscore>
0.3013040423

> <CNNaffinity>
6.3323693275

> <CNN_VS>
1.9079685211

> <CNNaffinity_variance>
0.0401910506

$$$$



 28 31  0  0  0  0  0  0  0  0999 V2000
   27.0316   -4.9363    7.1545 C   0  0  0  0  0  0  0  0  0  0  0  0
   28.1354   -4.1745    6.9558 N   0  0  0  0  0  0  0  0  0  0  0  0
   28.0398   -2.8355    7.0575 C   0  0  0  0  0  0  0  0  0  0  0  0
   26.9572   -2.1111    7.3504 N   0  0  0  0  0  0  0  0  0  0  0  0
   25.8913   -2.8944    7.5551 C   0  0  0  0  0  0  0  0  0  0  0  0
   24.6662   -2.3909    7.8567 O   0  0  0  0  0  0  0  0  0  0  0  0
   23.8012   -3.4398    8.0080 C   0  0  0  0  0  0  0  0  0  0  0  0
   24.4872   -4.6300    7.8058 C   0  0  0  0  0  0  0  0  0  0  0  0
   25.8379   -4.2775    7.4935 C   0  0  0  0  0  0  0  0  0  0  0  0
   22.4299   -3.0512    8.3416 C   0  0  0  0  0  0  0  0  0  0  0  0
   21.7569   -2.0450    7.6336 C   0  0  0  0  0  0  0  0  0  0  0  0
   20.4483   -1.6805    7.9702 C   0  0  0  0  0  0  0  0  0  0  0  0
   19.7977   -2.3247    9.0186 C   0  0  0  0  0  0  0  0  0  0  0  0
   18.0309   -1.8323    9.4730 Br  0  0  0  0  0  0  0  0  0  0  0  0
   20.4416   -3.3312    9.7312 C   0  0  0  0  0  0  0  0  0  0  0  0
   21.7497   -3.6914    9.3915 C   0  0  0  0  0  0  0  0  0  0  0  0
   23.8910   -5.9465    7.8844 C   0  0  0  0  0  0  0  0  0  0  0  0
   23.8862   -6.6494    9.0935 C   0  0  0  0  0  0  0  0  0  0  0  0
   23.2944   -7.9113    9.1637 C   0  0  0  0  0  0  0  0  0  0  0  0
   22.7050   -8.4714    8.0303 C   0  0  0  0  0  0  0  0  0  0  0  0
   22.7056   -7.7728    6.8234 C   0  0  0  0  0  0  0  0  0  0  0  0
   23.2969   -6.5111    6.7484 C   0  0  0  0  0  0  0  0  0  0  0  0
   27.1123   -6.3124    6.9963 N   0  0  0  0  0  0  0  0  0  0  0  0
   27.3215   -6.8945    7.7622 H   0  0  0  0  0  0  0  0  0  0  0  0
   26.8816   -6.8774    5.6765 C   0  0  0  0  0  0  0  0  0  0  0  0
   27.9185   -7.8452    3.6947 O   0  0  0  0  0  0  0  0  0  0  0  0
   28.1833   -7.2859    4.9788 C   0  0  0  0  0  0  0  0  0  0  0  0
   28.7550   -8.0960    3.2725 H   0  0  0  0  0  0  0  0  0  0  0  0
 26 27  1  0
 27 25  1  0
 25 23  1  0
 23  1  1  0
  1  2  2  0
  2  3  1  0
  3  4  2  0
  4  5  1  0
  5  6  1  0
  6  7  1  0
  7 10  1  0
 10 11  2  0
 11 12  1  0
 12 13  2  0
 13 14  1  0
 13 15  1  0
 15 16  2  0
  7  8  2  0
  8 17  1  0
 17 18  2  0
 18 19  1  0
 19 20  2  0
 20 21  1  0
 21 22  2  0
  8  9  1  0
  9  1  1  0
  9  5  2  0
 16 10  1  0
 22 17  1  0
 26 28  1  0
 23 24  1  0
M  END
> <minimizedAffinity>
-3.39419

> <CNNscore>
0.2248063684

> <CNNaffinity>
5.7942872047

> <CNN_VS>
1.3025926352

> <CNNaffinity_variance>
0.5675017238

$$$$



 28 31  0  0  0  0  0  0  0  0999 V2000
   27.2605    5.8490    9.5070 C   0  0  0  0  0  0  0  0  0  0  0  0
   27.5155    5.4298   10.7709 N   0  0  0  0  0  0  0  0  0  0  0  0
   27.5902    4.1100   11.0256 C   0  0  0  0  0  0  0  0  0  0  0  0
   27.4501    3.0999   10.1639 N   0  0  0  0  0  0  0  0  0  0  0  0
   27.2150    3.5491    8.9252 C   0  0  0  0  0  0  0  0  0  0  0  0
   27.0249    2.7123    7.8722 O   0  0  0  0  0  0  0  0  0  0  0  0
   26.8149    3.4748    6.7560 C   0  0  0  0  0  0  0  0  0  0  0  0
   26.8785    4.8180    7.1022 C   0  0  0  0  0  0  0  0  0  0  0  0
   27.1190    4.8679    8.5114 C   0  0  0  0  0  0  0  0  0  0  0  0
   26.5959    2.7064    5.5295 C   0  0  0  0  0  0  0  0  0  0  0  0
   27.5996    1.8962    4.9792 C   0  0  0  0  0  0  0  0  0  0  0  0
   27.3761    1.1736    3.8017 C   0  0  0  0  0  0  0  0  0  0  0  0
   26.1410    1.2519    3.1647 C   0  0  0  0  0  0  0  0  0  0  0  0
   25.8395    0.2764    1.5748 Br  0  0  0  0  0  0  0  0  0  0  0  0
   25.1269    2.0430    3.6951 C   0  0  0  0  0  0  0  0  0  0  0  0
   25.3554    2.7638    4.8718 C   0  0  0  0  0  0  0  0  0  0  0  0
   26.7021    5.9154    6.1752 C   0  0  0  0  0  0  0  0  0  0  0  0
   25.4353    6.4714    5.9705 C   0  0  0  0  0  0  0  0  0  0  0  0
   25.2776    7.5402    5.0872 C   0  0  0  0  0  0  0  0  0  0  0  0
   26.3824    8.0567    4.4101 C   0  0  0  0  0  0  0  0  0  0  0  0
   27.6477    7.5067    4.6132 C   0  0  0  0  0  0  0  0  0  0  0  0
   27.8098    6.4374    5.4949 C   0  0  0  0  0  0  0  0  0  0  0  0
   27.1275    7.2060    9.2498 N   0  0  0  0  0  0  0  0  0  0  0  0
   26.2386    7.6066    9.1135 H   0  0  0  0  0  0  0  0  0  0  0  0
   28.3277    8.0245    9.1858 C   0  0  0  0  0  0  0  0  0  0  0  0
   26.7497    9.8312    9.6160 O   0  0  0  0  0  0  0  0  0  0  0  0
   28.0117    9.5161    9.0329 C   0  0  0  0  0  0  0  0  0  0  0  0
   26.5710   10.7784    9.5076 H   0  0  0  0  0  0  0  0  0  0  0  0
 26 27  1  0
 27 25  1  0
 25 23  1  0
 23  1  1  0
  1  2  2  0
  2  3  1  0
  3  4  2  0
  4  5  1  0
  5  6  1  0
  6  7  1  0
  7 10  1  0
 10 11  2  0
 11 12  1  0
 12 13  2  0
 13 14  1  0
 13 15  1  0
 15 16  2  0
  7  8  2  0
  8 17  1  0
 17 18  2  0
 18 19  1  0
 19 20  2  0
 20 21  1  0
 21 22  2  0
  8  9  1  0
  9  1  1  0
  9  5  2  0
 16 10  1  0
 22 17  1  0
 26 28  1  0
 23 24  1  0
M  END
> <minimizedAffinity>
-4.02062

> <CNNscore>
0.1997312754

> <CNNaffinity>
4.6199336052

> <CNN_VS>
0.9227452278

> <CNNaffinity_variance>
0.0351474248

$$$$
