


 45 49  0  0  0  0  0  0  0  0999 V2000
  -26.5312  -54.0575  -11.6991 C   0  0  0  0  0  0  0  0  0  0  0  0
  -24.7620  -52.5170  -12.5395 N   0  0  0  0  0  0  0  0  0  0  0  0
  -25.6497  -52.7910  -11.5212 C   0  0  0  0  0  0  0  0  0  0  0  0
  -25.6558  -52.1353  -10.4773 O   0  0  0  0  0  0  0  0  0  0  0  0
  -24.7054  -53.1353  -13.3035 H   0  0  0  0  0  0  0  0  0  0  0  0
  -23.9085  -51.3437  -12.5179 C   0  0  0  0  0  0  0  0  0  0  0  0
  -18.4364  -47.9100  -11.3475 N   0  0  0  0  0  0  0  0  0  0  0  0
  -19.4705  -48.7971  -11.6359 C   0  0  0  0  0  0  0  0  0  0  0  0
  -20.7784  -48.3580  -11.7088 C   0  0  0  0  0  0  0  0  0  0  0  0
  -21.7801  -49.2891  -11.9711 C   0  0  0  0  0  0  0  0  0  0  0  0
  -21.4652  -50.6493  -12.1631 C   0  0  0  0  0  0  0  0  0  0  0  0
  -22.4291  -51.6694  -12.4344 C   0  0  0  0  0  0  0  0  0  0  0  0
  -21.9908  -53.0002  -12.5483 C   0  0  0  0  0  0  0  0  0  0  0  0
  -20.6410  -53.3147  -12.4485 C   0  0  0  0  0  0  0  0  0  0  0  0
  -19.7114  -52.3052  -12.2087 C   0  0  0  0  0  0  0  0  0  0  0  0
  -20.0929  -50.9828  -12.0554 C   0  0  0  0  0  0  0  0  0  0  0  0
  -19.1267  -50.0815  -11.8010 N   0  0  0  0  0  0  0  0  0  0  0  0
  -18.6304  -46.9537  -11.2161 H   0  0  0  0  0  0  0  0  0  0  0  0
  -17.5114  -48.2390  -11.2751 H   0  0  0  0  0  0  0  0  0  0  0  0
  -27.0912  -54.4198  -10.3876 N   0  0  0  0  0  0  0  0  0  0  0  0
  -26.6004  -55.4833   -9.6532 C   0  0  0  0  0  0  0  0  0  0  0  0
  -25.5743  -56.0937   -9.9256 O   0  0  0  0  0  0  0  0  0  0  0  0
  -27.8364  -53.8900  -10.0228 H   0  0  0  0  0  0  0  0  0  0  0  0
  -27.4241  -55.8951   -8.4828 C   0  0  0  0  0  0  0  0  0  0  0  0
  -28.4672  -55.0895   -8.0043 C   0  0  0  0  0  0  0  0  0  0  0  0
  -29.2188  -55.5017   -6.9018 C   0  0  0  0  0  0  0  0  0  0  0  0
  -28.9215  -56.7149   -6.2781 C   0  0  0  0  0  0  0  0  0  0  0  0
  -29.6784  -57.1249   -5.1727 N   0  0  0  0  0  0  0  0  0  0  0  0
  -29.4585  -58.2931   -4.4972 C   0  0  0  0  0  0  0  0  0  0  0  0
  -30.1357  -58.6296   -3.5313 O   0  0  0  0  0  0  0  0  0  0  0  0
  -28.3552  -59.1541   -4.9803 C   0  0  0  0  0  0  0  0  0  0  0  0
  -27.6098  -58.7927   -6.0332 C   0  0  0  0  0  0  0  0  0  0  0  0
  -26.5743  -59.5615   -6.5183 O   0  0  0  0  0  0  0  0  0  0  0  0
  -27.8726  -57.5274   -6.7368 C   0  0  0  0  0  0  0  0  0  0  0  0
  -27.1218  -57.1044   -7.8411 C   0  0  0  0  0  0  0  0  0  0  0  0
  -30.4083  -56.5400   -4.8657 H   0  0  0  0  0  0  0  0  0  0  0  0
  -26.3640  -60.3770   -6.1076 H   0  0  0  0  0  0  0  0  0  0  0  0
  -27.5545  -53.9721  -12.8483 C   0  0  0  0  0  0  0  0  0  0  0  0
  -28.0226  -55.3254  -13.3403 C   0  0  0  0  0  0  0  0  0  0  0  0
  -29.3410  -55.5044  -13.7879 C   0  0  0  0  0  0  0  0  0  0  0  0
  -29.7701  -56.7544  -14.2393 C   0  0  0  0  0  0  0  0  0  0  0  0
  -28.8837  -57.8298  -14.2489 C   0  0  0  0  0  0  0  0  0  0  0  0
  -29.4144  -59.3688  -14.8047 Cl  0  0  0  0  0  0  0  0  0  0  0  0
  -27.5712  -57.6655  -13.8111 C   0  0  0  0  0  0  0  0  0  0  0  0
  -27.1426  -56.4169  -13.3574 C   0  0  0  0  0  0  0  0  0  0  0  0
  7  8  1  0
  8  9  2  0
  9 10  1  0
 10 11  2  0
 11 12  1  0
 12  6  1  0
  6  2  1  0
  2  3  1  0
  3  4  2  0
  3  1  1  0
  1 38  1  0
 38 39  1  0
 39 40  2  0
 40 41  1  0
 41 42  2  0
 42 43  1  0
 42 44  1  0
 44 45  2  0
  1 20  1  0
 20 21  1  0
 21 22  2  0
 21 24  1  0
 24 25  2  0
 25 26  1  0
 26 27  2  0
 27 28  1  0
 28 29  1  0
 29 30  2  0
 29 31  1  0
 31 32  2  0
 32 33  1  0
 32 34  1  0
 34 35  2  0
 12 13  2  0
 13 14  1  0
 14 15  2  0
 15 16  1  0
 16 17  2  0
 17  8  1  0
 16 11  1  0
 45 39  1  0
 35 24  1  0
 34 27  1  0
  7 18  1  0
  7 19  1  0
  2  5  1  0
 20 23  1  0
 28 36  1  0
 33 37  1  0
M  END
> <minimizedAffinity>
-10.01327

> <CNNscore>
0.9561414719

> <CNNaffinity>
8.0020093918

> <CNN_VS>
7.6510529518

> <CNNaffinity_variance>
0.0216045734

$$$$



 45 49  0  0  0  0  0  0  0  0999 V2000
  -26.3623  -53.8765  -11.3052 C   0  0  0  0  0  0  0  0  0  0  0  0
  -24.6705  -52.5009  -12.5115 N   0  0  0  0  0  0  0  0  0  0  0  0
  -25.4517  -52.6205  -11.3822 C   0  0  0  0  0  0  0  0  0  0  0  0
  -25.3421  -51.8372  -10.4365 O   0  0  0  0  0  0  0  0  0  0  0  0
  -24.7006  -53.2127  -13.1910 H   0  0  0  0  0  0  0  0  0  0  0  0
  -23.8051  -51.3564  -12.7278 C   0  0  0  0  0  0  0  0  0  0  0  0
  -18.6350  -47.6104  -11.1975 N   0  0  0  0  0  0  0  0  0  0  0  0
  -19.5981  -48.5631  -11.5205 C   0  0  0  0  0  0  0  0  0  0  0  0
  -20.8842  -48.1833  -11.8530 C   0  0  0  0  0  0  0  0  0  0  0  0
  -21.8187  -49.1750  -12.1395 C   0  0  0  0  0  0  0  0  0  0  0  0
  -21.4584  -50.5368  -12.0961 C   0  0  0  0  0  0  0  0  0  0  0  0
  -22.3530  -51.6167  -12.3737 C   0  0  0  0  0  0  0  0  0  0  0  0
  -21.8836  -52.9347  -12.2386 C   0  0  0  0  0  0  0  0  0  0  0  0
  -20.5622  -53.1862  -11.8900 C   0  0  0  0  0  0  0  0  0  0  0  0
  -19.6963  -52.1222  -11.6472 C   0  0  0  0  0  0  0  0  0  0  0  0
  -20.1157  -50.8053  -11.7338 C   0  0  0  0  0  0  0  0  0  0  0  0
  -19.2146  -49.8453  -11.4564 N   0  0  0  0  0  0  0  0  0  0  0  0
  -18.8608  -46.6525  -11.2273 H   0  0  0  0  0  0  0  0  0  0  0  0
  -17.7285  -47.8947  -10.9394 H   0  0  0  0  0  0  0  0  0  0  0  0
  -26.8302  -54.1932  -12.6637 N   0  0  0  0  0  0  0  0  0  0  0  0
  -26.0449  -54.8920  -13.5616 C   0  0  0  0  0  0  0  0  0  0  0  0
  -24.9958  -55.4520  -13.2692 O   0  0  0  0  0  0  0  0  0  0  0  0
  -27.7279  -53.8992  -12.9411 H   0  0  0  0  0  0  0  0  0  0  0  0
  -26.5324  -54.9102  -14.9687 C   0  0  0  0  0  0  0  0  0  0  0  0
  -27.7532  -55.5093  -15.3108 C   0  0  0  0  0  0  0  0  0  0  0  0
  -28.1808  -55.5136  -16.6403 C   0  0  0  0  0  0  0  0  0  0  0  0
  -27.3842  -54.9241  -17.6237 C   0  0  0  0  0  0  0  0  0  0  0  0
  -27.8173  -54.9301  -18.9561 N   0  0  0  0  0  0  0  0  0  0  0  0
  -27.1041  -54.3813  -19.9853 C   0  0  0  0  0  0  0  0  0  0  0  0
  -27.5054  -54.3998  -21.1445 O   0  0  0  0  0  0  0  0  0  0  0  0
  -25.8073  -53.7520  -19.6471 C   0  0  0  0  0  0  0  0  0  0  0  0
  -25.3612  -53.7295  -18.3841 C   0  0  0  0  0  0  0  0  0  0  0  0
  -24.1623  -53.1549  -18.0223 O   0  0  0  0  0  0  0  0  0  0  0  0
  -26.1537  -54.3311  -17.3000 C   0  0  0  0  0  0  0  0  0  0  0  0
  -25.7311  -54.3344  -15.9645 C   0  0  0  0  0  0  0  0  0  0  0  0
  -28.6823  -55.3526  -19.1624 H   0  0  0  0  0  0  0  0  0  0  0  0
  -23.6179  -52.7574  -18.6732 H   0  0  0  0  0  0  0  0  0  0  0  0
  -25.7583  -55.0614  -10.5265 C   0  0  0  0  0  0  0  0  0  0  0  0
  -26.6023  -55.5018   -9.3492 C   0  0  0  0  0  0  0  0  0  0  0  0
  -26.0024  -56.0728   -8.2157 C   0  0  0  0  0  0  0  0  0  0  0  0
  -26.7840  -56.4797   -7.1322 C   0  0  0  0  0  0  0  0  0  0  0  0
  -28.1672  -56.3150   -7.1746 C   0  0  0  0  0  0  0  0  0  0  0  0
  -29.1282  -56.8174   -5.8391 Cl  0  0  0  0  0  0  0  0  0  0  0  0
  -28.7756  -55.7463   -8.2915 C   0  0  0  0  0  0  0  0  0  0  0  0
  -27.9951  -55.3418   -9.3759 C   0  0  0  0  0  0  0  0  0  0  0  0
  7  8  1  0
  8  9  2  0
  9 10  1  0
 10 11  2  0
 11 12  1  0
 12  6  1  0
  6  2  1  0
  2  3  1  0
  3  4  2  0
  3  1  1  0
  1 38  1  0
 38 39  1  0
 39 40  2  0
 40 41  1  0
 41 42  2  0
 42 43  1  0
 42 44  1  0
 44 45  2  0
  1 20  1  0
 20 21  1  0
 21 22  2  0
 21 24  1  0
 24 25  2  0
 25 26  1  0
 26 27  2  0
 27 28  1  0
 28 29  1  0
 29 30  2  0
 29 31  1  0
 31 32  2  0
 32 33  1  0
 32 34  1  0
 34 35  2  0
 12 13  2  0
 13 14  1  0
 14 15  2  0
 15 16  1  0
 16 17  2  0
 17  8  1  0
 16 11  1  0
 45 39  1  0
 35 24  1  0
 34 27  1  0
  7 18  1  0
  7 19  1  0
  2  5  1  0
 20 23  1  0
 28 36  1  0
 33 37  1  0
M  END
> <minimizedAffinity>
-11.17312

> <CNNscore>
0.7839009166

> <CNNaffinity>
7.5979218483

> <CNN_VS>
5.9560179710

> <CNNaffinity_variance>
0.0883612856

$$$$



 45 49  0  0  0  0  0  0  0  0999 V2000
  -25.8585  -54.4434  -14.2492 C   0  0  0  0  0  0  0  0  0  0  0  0
  -24.1189  -52.9775  -13.2322 N   0  0  0  0  0  0  0  0  0  0  0  0
  -25.4399  -53.3701  -13.2074 C   0  0  0  0  0  0  0  0  0  0  0  0
  -26.2124  -52.9788  -12.3298 O   0  0  0  0  0  0  0  0  0  0  0  0
  -23.5056  -53.4037  -13.8737 H   0  0  0  0  0  0  0  0  0  0  0  0
  -23.6059  -51.9543  -12.3403 C   0  0  0  0  0  0  0  0  0  0  0  0
  -18.9896  -47.3854  -11.3815 N   0  0  0  0  0  0  0  0  0  0  0  0
  -19.8112  -48.4862  -11.6109 C   0  0  0  0  0  0  0  0  0  0  0  0
  -21.1789  -48.3339  -11.7332 C   0  0  0  0  0  0  0  0  0  0  0  0
  -21.9605  -49.4689  -11.9328 C   0  0  0  0  0  0  0  0  0  0  0  0
  -21.3678  -50.7450  -12.0132 C   0  0  0  0  0  0  0  0  0  0  0  0
  -22.0940  -51.9599  -12.2144 C   0  0  0  0  0  0  0  0  0  0  0  0
  -21.3888  -53.1759  -12.2178 C   0  0  0  0  0  0  0  0  0  0  0  0
  -20.0065  -53.1961  -12.0779 C   0  0  0  0  0  0  0  0  0  0  0  0
  -19.3109  -52.0011  -11.9078 C   0  0  0  0  0  0  0  0  0  0  0  0
  -19.9598  -50.7786  -11.8638 C   0  0  0  0  0  0  0  0  0  0  0  0
  -19.2067  -49.6804  -11.6701 N   0  0  0  0  0  0  0  0  0  0  0  0
  -19.3794  -46.4829  -11.3282 H   0  0  0  0  0  0  0  0  0  0  0  0
  -18.0191  -47.5096  -11.2726 H   0  0  0  0  0  0  0  0  0  0  0  0
  -27.2633  -54.8049  -14.0027 N   0  0  0  0  0  0  0  0  0  0  0  0
  -27.6285  -56.0711  -13.5848 C   0  0  0  0  0  0  0  0  0  0  0  0
  -26.8370  -56.9308  -13.2185 O   0  0  0  0  0  0  0  0  0  0  0  0
  -27.9629  -54.1259  -14.1392 H   0  0  0  0  0  0  0  0  0  0  0  0
  -29.0865  -56.3711  -13.6304 C   0  0  0  0  0  0  0  0  0  0  0  0
  -29.9170  -55.8105  -14.6112 C   0  0  0  0  0  0  0  0  0  0  0  0
  -31.2814  -56.1082  -14.6247 C   0  0  0  0  0  0  0  0  0  0  0  0
  -31.8117  -56.9605  -13.6543 C   0  0  0  0  0  0  0  0  0  0  0  0
  -33.1809  -57.2570  -13.6719 N   0  0  0  0  0  0  0  0  0  0  0  0
  -33.7886  -58.0768  -12.7620 C   0  0  0  0  0  0  0  0  0  0  0  0
  -34.9903  -58.3206  -12.7988 O   0  0  0  0  0  0  0  0  0  0  0  0
  -32.9311  -58.6716  -11.7118 C   0  0  0  0  0  0  0  0  0  0  0  0
  -31.6184  -58.4088  -11.6636 C   0  0  0  0  0  0  0  0  0  0  0  0
  -30.7819  -58.9397  -10.7061 O   0  0  0  0  0  0  0  0  0  0  0  0
  -30.9964  -57.5203  -12.6581 C   0  0  0  0  0  0  0  0  0  0  0  0
  -29.6297  -57.2135  -12.6502 C   0  0  0  0  0  0  0  0  0  0  0  0
  -33.7356  -56.8529  -14.3777 H   0  0  0  0  0  0  0  0  0  0  0  0
  -31.1259  -59.5119  -10.0486 H   0  0  0  0  0  0  0  0  0  0  0  0
  -25.5192  -54.0881  -15.7099 C   0  0  0  0  0  0  0  0  0  0  0  0
  -26.0502  -55.0903  -16.7129 C   0  0  0  0  0  0  0  0  0  0  0  0
  -27.0674  -54.7301  -17.6107 C   0  0  0  0  0  0  0  0  0  0  0  0
  -27.5563  -55.6575  -18.5334 C   0  0  0  0  0  0  0  0  0  0  0  0
  -27.0292  -56.9472  -18.5656 C   0  0  0  0  0  0  0  0  0  0  0  0
  -27.6331  -58.0883  -19.7025 Cl  0  0  0  0  0  0  0  0  0  0  0  0
  -26.0167  -57.3173  -17.6830 C   0  0  0  0  0  0  0  0  0  0  0  0
  -25.5295  -56.3914  -16.7589 C   0  0  0  0  0  0  0  0  0  0  0  0
  7  8  1  0
  8  9  2  0
  9 10  1  0
 10 11  2  0
 11 12  1  0
 12  6  1  0
  6  2  1  0
  2  3  1  0
  3  4  2  0
  3  1  1  0
  1 38  1  0
 38 39  1  0
 39 40  2  0
 40 41  1  0
 41 42  2  0
 42 43  1  0
 42 44  1  0
 44 45  2  0
  1 20  1  0
 20 21  1  0
 21 22  2  0
 21 24  1  0
 24 25  2  0
 25 26  1  0
 26 27  2  0
 27 28  1  0
 28 29  1  0
 29 30  2  0
 29 31  1  0
 31 32  2  0
 32 33  1  0
 32 34  1  0
 34 35  2  0
 12 13  2  0
 13 14  1  0
 14 15  2  0
 15 16  1  0
 16 17  2  0
 17  8  1  0
 16 11  1  0
 45 39  1  0
 35 24  1  0
 34 27  1  0
  7 18  1  0
  7 19  1  0
  2  5  1  0
 20 23  1  0
 28 36  1  0
 33 37  1  0
M  END
> <minimizedAffinity>
-9.67405

> <CNNscore>
0.7252541780

> <CNNaffinity>
7.4872059822

> <CNN_VS>
5.4301276207

> <CNNaffinity_variance>
0.0417714864

$$$$



 45 49  0  0  0  0  0  0  0  0999 V2000
  -26.3161  -54.3670  -12.1005 C   0  0  0  0  0  0  0  0  0  0  0  0
  -24.4847  -52.6989  -12.3702 N   0  0  0  0  0  0  0  0  0  0  0  0
  -25.5982  -53.0669  -11.6458 C   0  0  0  0  0  0  0  0  0  0  0  0
  -25.9309  -52.4632  -10.6237 O   0  0  0  0  0  0  0  0  0  0  0  0
  -24.1825  -53.2760  -13.1083 H   0  0  0  0  0  0  0  0  0  0  0  0
  -23.7450  -51.4856  -12.0763 C   0  0  0  0  0  0  0  0  0  0  0  0
  -18.5440  -47.5279  -11.4518 N   0  0  0  0  0  0  0  0  0  0  0  0
  -19.5095  -48.5165  -11.6248 C   0  0  0  0  0  0  0  0  0  0  0  0
  -20.8538  -48.1979  -11.6315 C   0  0  0  0  0  0  0  0  0  0  0  0
  -21.7815  -49.2259  -11.7784 C   0  0  0  0  0  0  0  0  0  0  0  0
  -21.3572  -50.5621  -11.9223 C   0  0  0  0  0  0  0  0  0  0  0  0
  -22.2399  -51.6760  -12.0763 C   0  0  0  0  0  0  0  0  0  0  0  0
  -21.6908  -52.9678  -12.1521 C   0  0  0  0  0  0  0  0  0  0  0  0
  -20.3145  -53.1574  -12.1277 C   0  0  0  0  0  0  0  0  0  0  0  0
  -19.4670  -52.0589  -12.0023 C   0  0  0  0  0  0  0  0  0  0  0  0
  -19.9563  -50.7683  -11.8906 C   0  0  0  0  0  0  0  0  0  0  0  0
  -19.0618  -49.7733  -11.7476 N   0  0  0  0  0  0  0  0  0  0  0  0
  -18.8152  -46.5863  -11.3561 H   0  0  0  0  0  0  0  0  0  0  0  0
  -17.5902  -47.7705  -11.4253 H   0  0  0  0  0  0  0  0  0  0  0  0
  -26.5455  -55.2081  -10.9153 N   0  0  0  0  0  0  0  0  0  0  0  0
  -27.6912  -55.0940  -10.1501 C   0  0  0  0  0  0  0  0  0  0  0  0
  -28.6720  -54.4350  -10.4719 O   0  0  0  0  0  0  0  0  0  0  0  0
  -25.8638  -55.8709  -10.6600 H   0  0  0  0  0  0  0  0  0  0  0  0
  -27.6709  -55.8115   -8.8452 C   0  0  0  0  0  0  0  0  0  0  0  0
  -26.4896  -55.9395   -8.1007 C   0  0  0  0  0  0  0  0  0  0  0  0
  -26.5024  -56.6221   -6.8823 C   0  0  0  0  0  0  0  0  0  0  0  0
  -27.6944  -57.1791   -6.4154 C   0  0  0  0  0  0  0  0  0  0  0  0
  -27.7029  -57.8625   -5.1924 N   0  0  0  0  0  0  0  0  0  0  0  0
  -28.8198  -58.4424   -4.6581 C   0  0  0  0  0  0  0  0  0  0  0  0
  -28.8010  -59.0360   -3.5847 O   0  0  0  0  0  0  0  0  0  0  0  0
  -30.0759  -58.3272   -5.4333 C   0  0  0  0  0  0  0  0  0  0  0  0
  -30.1043  -57.6824   -6.6072 C   0  0  0  0  0  0  0  0  0  0  0  0
  -31.2492  -57.5493   -7.3623 O   0  0  0  0  0  0  0  0  0  0  0  0
  -28.8830  -57.0707   -7.1544 C   0  0  0  0  0  0  0  0  0  0  0  0
  -28.8602  -56.3873   -8.3769 C   0  0  0  0  0  0  0  0  0  0  0  0
  -26.8585  -57.9288   -4.6905 H   0  0  0  0  0  0  0  0  0  0  0  0
  -32.0551  -57.9199   -7.0605 H   0  0  0  0  0  0  0  0  0  0  0  0
  -27.5519  -54.1403  -12.9931 C   0  0  0  0  0  0  0  0  0  0  0  0
  -27.6092  -55.0663  -14.1896 C   0  0  0  0  0  0  0  0  0  0  0  0
  -28.8166  -55.6793  -14.5597 C   0  0  0  0  0  0  0  0  0  0  0  0
  -28.8657  -56.5344  -15.6628 C   0  0  0  0  0  0  0  0  0  0  0  0
  -27.7102  -56.7781  -16.4029 C   0  0  0  0  0  0  0  0  0  0  0  0
  -27.7726  -57.8321  -17.7609 Cl  0  0  0  0  0  0  0  0  0  0  0  0
  -26.5059  -56.1734  -16.0493 C   0  0  0  0  0  0  0  0  0  0  0  0
  -26.4558  -55.3207  -14.9452 C   0  0  0  0  0  0  0  0  0  0  0  0
  7  8  1  0
  8  9  2  0
  9 10  1  0
 10 11  2  0
 11 12  1  0
 12  6  1  0
  6  2  1  0
  2  3  1  0
  3  4  2  0
  3  1  1  0
  1 38  1  0
 38 39  1  0
 39 40  2  0
 40 41  1  0
 41 42  2  0
 42 43  1  0
 42 44  1  0
 44 45  2  0
  1 20  1  0
 20 21  1  0
 21 22  2  0
 21 24  1  0
 24 25  2  0
 25 26  1  0
 26 27  2  0
 27 28  1  0
 28 29  1  0
 29 30  2  0
 29 31  1  0
 31 32  2  0
 32 33  1  0
 32 34  1  0
 34 35  2  0
 12 13  2  0
 13 14  1  0
 14 15  2  0
 15 16  1  0
 16 17  2  0
 17  8  1  0
 16 11  1  0
 45 39  1  0
 35 24  1  0
 34 27  1  0
  7 18  1  0
  7 19  1  0
  2  5  1  0
 20 23  1  0
 28 36  1  0
 33 37  1  0
M  END
> <minimizedAffinity>
-10.56120

> <CNNscore>
0.6942290664

> <CNNaffinity>
7.2487654686

> <CNN_VS>
5.0323038101

> <CNNaffinity_variance>
0.1373947412

$$$$



 45 49  0  0  0  0  0  0  0  0999 V2000
  -26.1192  -54.2402  -11.8567 C   0  0  0  0  0  0  0  0  0  0  0  0
  -24.4980  -52.5694  -12.7452 N   0  0  0  0  0  0  0  0  0  0  0  0
  -25.3461  -52.9010  -11.7105 C   0  0  0  0  0  0  0  0  0  0  0  0
  -25.3944  -52.2313  -10.6765 O   0  0  0  0  0  0  0  0  0  0  0  0
  -24.3990  -53.1930  -13.5006 H   0  0  0  0  0  0  0  0  0  0  0  0
  -23.7470  -51.3278  -12.7534 C   0  0  0  0  0  0  0  0  0  0  0  0
  -18.6655  -47.4387  -11.2846 N   0  0  0  0  0  0  0  0  0  0  0  0
  -19.6013  -48.4099  -11.6319 C   0  0  0  0  0  0  0  0  0  0  0  0
  -20.9384  -48.0879  -11.7630 C   0  0  0  0  0  0  0  0  0  0  0  0
  -21.8392  -49.1004  -12.0830 C   0  0  0  0  0  0  0  0  0  0  0  0
  -21.3950  -50.4242  -12.2740 C   0  0  0  0  0  0  0  0  0  0  0  0
  -22.2499  -51.5219  -12.6023 C   0  0  0  0  0  0  0  0  0  0  0  0
  -21.6893  -52.8065  -12.7089 C   0  0  0  0  0  0  0  0  0  0  0  0
  -20.3229  -53.0011  -12.5476 C   0  0  0  0  0  0  0  0  0  0  0  0
  -19.4998  -51.9167  -12.2527 C   0  0  0  0  0  0  0  0  0  0  0  0
  -20.0049  -50.6359  -12.1040 C   0  0  0  0  0  0  0  0  0  0  0  0
  -19.1365  -49.6560  -11.7938 N   0  0  0  0  0  0  0  0  0  0  0  0
  -18.9503  -46.5056  -11.1526 H   0  0  0  0  0  0  0  0  0  0  0  0
  -17.7191  -47.6852  -11.1712 H   0  0  0  0  0  0  0  0  0  0  0  0
  -25.1421  -55.3402  -11.8676 N   0  0  0  0  0  0  0  0  0  0  0  0
  -25.0277  -56.2041  -12.9408 C   0  0  0  0  0  0  0  0  0  0  0  0
  -25.5801  -56.0379  -14.0211 O   0  0  0  0  0  0  0  0  0  0  0  0
  -24.5530  -55.4645  -11.0886 H   0  0  0  0  0  0  0  0  0  0  0  0
  -24.1935  -57.4159  -12.7089 C   0  0  0  0  0  0  0  0  0  0  0  0
  -24.7704  -58.6401  -12.3422 C   0  0  0  0  0  0  0  0  0  0  0  0
  -23.9605  -59.7575  -12.1277 C   0  0  0  0  0  0  0  0  0  0  0  0
  -22.5766  -59.6456  -12.2750 C   0  0  0  0  0  0  0  0  0  0  0  0
  -21.7679  -60.7692  -12.0594 N   0  0  0  0  0  0  0  0  0  0  0  0
  -20.4058  -60.7540  -12.1768 C   0  0  0  0  0  0  0  0  0  0  0  0
  -19.7196  -61.7522  -11.9824 O   0  0  0  0  0  0  0  0  0  0  0  0
  -19.7757  -59.4684  -12.5538 C   0  0  0  0  0  0  0  0  0  0  0  0
  -20.5179  -58.3735  -12.7659 C   0  0  0  0  0  0  0  0  0  0  0  0
  -19.9759  -57.1569  -13.1190 O   0  0  0  0  0  0  0  0  0  0  0  0
  -21.9821  -58.4244  -12.6295 C   0  0  0  0  0  0  0  0  0  0  0  0
  -22.8018  -57.3081  -12.8393 C   0  0  0  0  0  0  0  0  0  0  0  0
  -22.2042  -61.6157  -11.8099 H   0  0  0  0  0  0  0  0  0  0  0  0
  -19.0485  -57.0686  -13.2196 H   0  0  0  0  0  0  0  0  0  0  0  0
  -27.2931  -54.4154  -10.8736 C   0  0  0  0  0  0  0  0  0  0  0  0
  -27.1740  -55.6510  -10.0067 C   0  0  0  0  0  0  0  0  0  0  0  0
  -27.8292  -56.8396  -10.3655 C   0  0  0  0  0  0  0  0  0  0  0  0
  -27.7188  -57.9770   -9.5627 C   0  0  0  0  0  0  0  0  0  0  0  0
  -26.9511  -57.9334   -8.4005 C   0  0  0  0  0  0  0  0  0  0  0  0
  -26.8169  -59.3354   -7.4127 Cl  0  0  0  0  0  0  0  0  0  0  0  0
  -26.2923  -56.7617   -8.0343 C   0  0  0  0  0  0  0  0  0  0  0  0
  -26.4044  -55.6237   -8.8350 C   0  0  0  0  0  0  0  0  0  0  0  0
  7  8  1  0
  8  9  2  0
  9 10  1  0
 10 11  2  0
 11 12  1  0
 12  6  1  0
  6  2  1  0
  2  3  1  0
  3  4  2  0
  3  1  1  0
  1 38  1  0
 38 39  1  0
 39 40  2  0
 40 41  1  0
 41 42  2  0
 42 43  1  0
 42 44  1  0
 44 45  2  0
  1 20  1  0
 20 21  1  0
 21 22  2  0
 21 24  1  0
 24 25  2  0
 25 26  1  0
 26 27  2  0
 27 28  1  0
 28 29  1  0
 29 30  2  0
 29 31  1  0
 31 32  2  0
 32 33  1  0
 32 34  1  0
 34 35  2  0
 12 13  2  0
 13 14  1  0
 14 15  2  0
 15 16  1  0
 16 17  2  0
 17  8  1  0
 16 11  1  0
 45 39  1  0
 35 24  1  0
 34 27  1  0
  7 18  1  0
  7 19  1  0
  2  5  1  0
 20 23  1  0
 28 36  1  0
 33 37  1  0
M  END
> <minimizedAffinity>
-8.82207

> <CNNscore>
0.4915170074

> <CNNaffinity>
6.8474078178

> <CNN_VS>
3.3656175137

> <CNNaffinity_variance>
0.1898261309

$$$$



 45 49  0  0  0  0  0  0  0  0999 V2000
  -26.8386  -55.9782  -12.4829 C   0  0  0  0  0  0  0  0  0  0  0  0
  -25.2933  -54.0295  -12.6375 N   0  0  0  0  0  0  0  0  0  0  0  0
  -26.5914  -54.4726  -12.7736 C   0  0  0  0  0  0  0  0  0  0  0  0
  -27.5192  -53.6917  -12.9956 O   0  0  0  0  0  0  0  0  0  0  0  0
  -24.6004  -54.6633  -12.3417 H   0  0  0  0  0  0  0  0  0  0  0  0
  -24.9183  -52.6559  -12.9175 C   0  0  0  0  0  0  0  0  0  0  0  0
  -19.8693  -48.8117  -11.2342 N   0  0  0  0  0  0  0  0  0  0  0  0
  -20.8182  -49.6942  -11.7444 C   0  0  0  0  0  0  0  0  0  0  0  0
  -22.1068  -49.7117  -11.2463 C   0  0  0  0  0  0  0  0  0  0  0  0
  -23.0108  -50.6326  -11.7694 C   0  0  0  0  0  0  0  0  0  0  0  0
  -22.6204  -51.5241  -12.7887 C   0  0  0  0  0  0  0  0  0  0  0  0
  -23.4818  -52.5000  -13.3797 C   0  0  0  0  0  0  0  0  0  0  0  0
  -22.9527  -53.3698  -14.3490 C   0  0  0  0  0  0  0  0  0  0  0  0
  -21.6312  -53.2535  -14.7625 C   0  0  0  0  0  0  0  0  0  0  0  0
  -20.8117  -52.2807  -14.1945 C   0  0  0  0  0  0  0  0  0  0  0  0
  -21.2729  -51.4202  -13.2124 C   0  0  0  0  0  0  0  0  0  0  0  0
  -20.4009  -50.5300  -12.7048 N   0  0  0  0  0  0  0  0  0  0  0  0
  -20.1198  -48.1746  -10.5266 H   0  0  0  0  0  0  0  0  0  0  0  0
  -18.9480  -48.8249  -11.5811 H   0  0  0  0  0  0  0  0  0  0  0  0
  -27.5513  -56.0913  -11.2007 N   0  0  0  0  0  0  0  0  0  0  0  0
  -27.1151  -56.9338  -10.1951 C   0  0  0  0  0  0  0  0  0  0  0  0
  -26.0353  -57.5114  -10.2002 O   0  0  0  0  0  0  0  0  0  0  0  0
  -28.3617  -55.5517  -11.0547 H   0  0  0  0  0  0  0  0  0  0  0  0
  -28.0679  -57.1447   -9.0701 C   0  0  0  0  0  0  0  0  0  0  0  0
  -29.4285  -56.8304   -9.1970 C   0  0  0  0  0  0  0  0  0  0  0  0
  -30.2960  -57.0358   -8.1219 C   0  0  0  0  0  0  0  0  0  0  0  0
  -29.7994  -57.5492   -6.9224 C   0  0  0  0  0  0  0  0  0  0  0  0
  -30.6733  -57.7542   -5.8466 N   0  0  0  0  0  0  0  0  0  0  0  0
  -30.2777  -58.2487   -4.6349 C   0  0  0  0  0  0  0  0  0  0  0  0
  -31.0630  -58.4189   -3.7079 O   0  0  0  0  0  0  0  0  0  0  0  0
  -28.8429  -58.5780   -4.4767 C   0  0  0  0  0  0  0  0  0  0  0  0
  -27.9787  -58.3931   -5.4834 C   0  0  0  0  0  0  0  0  0  0  0  0
  -26.6360  -58.6859   -5.3826 O   0  0  0  0  0  0  0  0  0  0  0  0
  -28.4379  -57.8575   -6.7747 C   0  0  0  0  0  0  0  0  0  0  0  0
  -27.5744  -57.6450   -7.8570 C   0  0  0  0  0  0  0  0  0  0  0  0
  -31.6240  -57.5301   -5.9700 H   0  0  0  0  0  0  0  0  0  0  0  0
  -26.2903  -59.0296   -4.5824 H   0  0  0  0  0  0  0  0  0  0  0  0
  -27.4630  -56.7645  -13.6520 C   0  0  0  0  0  0  0  0  0  0  0  0
  -28.9664  -56.9098  -13.5458 C   0  0  0  0  0  0  0  0  0  0  0  0
  -29.5309  -57.9927  -12.8534 C   0  0  0  0  0  0  0  0  0  0  0  0
  -30.9179  -58.1248  -12.7589 C   0  0  0  0  0  0  0  0  0  0  0  0
  -31.7469  -57.1746  -13.3522 C   0  0  0  0  0  0  0  0  0  0  0  0
  -33.4552  -57.3395  -13.2351 Cl  0  0  0  0  0  0  0  0  0  0  0  0
  -31.2003  -56.0927  -14.0392 C   0  0  0  0  0  0  0  0  0  0  0  0
  -29.8139  -55.9616  -14.1362 C   0  0  0  0  0  0  0  0  0  0  0  0
  7  8  1  0
  8  9  2  0
  9 10  1  0
 10 11  2  0
 11 12  1  0
 12  6  1  0
  6  2  1  0
  2  3  1  0
  3  4  2  0
  3  1  1  0
  1 38  1  0
 38 39  1  0
 39 40  2  0
 40 41  1  0
 41 42  2  0
 42 43  1  0
 42 44  1  0
 44 45  2  0
  1 20  1  0
 20 21  1  0
 21 22  2  0
 21 24  1  0
 24 25  2  0
 25 26  1  0
 26 27  2  0
 27 28  1  0
 28 29  1  0
 29 30  2  0
 29 31  1  0
 31 32  2  0
 32 33  1  0
 32 34  1  0
 34 35  2  0
 12 13  2  0
 13 14  1  0
 14 15  2  0
 15 16  1  0
 16 17  2  0
 17  8  1  0
 16 11  1  0
 45 39  1  0
 35 24  1  0
 34 27  1  0
  7 18  1  0
  7 19  1  0
  2  5  1  0
 20 23  1  0
 28 36  1  0
 33 37  1  0
M  END
> <minimizedAffinity>
-8.49686

> <CNNscore>
0.4534758031

> <CNNaffinity>
7.0253577232

> <CNN_VS>
3.1858296394

> <CNNaffinity_variance>
0.1666207910

$$$$



 45 49  0  0  0  0  0  0  0  0999 V2000
  -25.9282  -54.6560  -13.5737 C   0  0  0  0  0  0  0  0  0  0  0  0
  -24.0691  -53.3484  -12.5525 N   0  0  0  0  0  0  0  0  0  0  0  0
  -25.4339  -53.4689  -12.7025 C   0  0  0  0  0  0  0  0  0  0  0  0
  -26.2170  -52.7470  -12.0817 O   0  0  0  0  0  0  0  0  0  0  0  0
  -23.4813  -54.0191  -12.9695 H   0  0  0  0  0  0  0  0  0  0  0  0
  -23.4734  -52.2616  -11.7976 C   0  0  0  0  0  0  0  0  0  0  0  0
  -19.0052  -47.4716  -11.3562 N   0  0  0  0  0  0  0  0  0  0  0  0
  -19.7959  -48.6074  -11.5117 C   0  0  0  0  0  0  0  0  0  0  0  0
  -21.1696  -48.5352  -11.3828 C   0  0  0  0  0  0  0  0  0  0  0  0
  -21.9139  -49.7042  -11.5183 C   0  0  0  0  0  0  0  0  0  0  0  0
  -21.2792  -50.9337  -11.7864 C   0  0  0  0  0  0  0  0  0  0  0  0
  -21.9651  -52.1787  -11.9385 C   0  0  0  0  0  0  0  0  0  0  0  0
  -21.2094  -53.3455  -12.1465 C   0  0  0  0  0  0  0  0  0  0  0  0
  -19.8251  -53.2861  -12.2520 C   0  0  0  0  0  0  0  0  0  0  0  0
  -19.1737  -52.0611  -12.1264 C   0  0  0  0  0  0  0  0  0  0  0  0
  -19.8673  -50.8865  -11.8878 C   0  0  0  0  0  0  0  0  0  0  0  0
  -19.1501  -49.7557  -11.7556 N   0  0  0  0  0  0  0  0  0  0  0  0
  -19.4258  -46.6000  -11.1753 H   0  0  0  0  0  0  0  0  0  0  0  0
  -18.0257  -47.5402  -11.4272 H   0  0  0  0  0  0  0  0  0  0  0  0
  -27.1328  -55.2212  -12.9457 N   0  0  0  0  0  0  0  0  0  0  0  0
  -27.0567  -56.1849  -11.9574 C   0  0  0  0  0  0  0  0  0  0  0  0
  -26.0189  -56.5203  -11.4004 O   0  0  0  0  0  0  0  0  0  0  0  0
  -28.0180  -54.9042  -13.2376 H   0  0  0  0  0  0  0  0  0  0  0  0
  -28.3411  -56.8508  -11.6039 C   0  0  0  0  0  0  0  0  0  0  0  0
  -28.9702  -57.7392  -12.4877 C   0  0  0  0  0  0  0  0  0  0  0  0
  -30.1765  -58.3446  -12.1286 C   0  0  0  0  0  0  0  0  0  0  0  0
  -30.7522  -58.0554  -10.8900 C   0  0  0  0  0  0  0  0  0  0  0  0
  -31.9621  -58.6654  -10.5335 N   0  0  0  0  0  0  0  0  0  0  0  0
  -32.6007  -58.4410   -9.3456 C   0  0  0  0  0  0  0  0  0  0  0  0
  -33.6603  -58.9878   -9.0570 O   0  0  0  0  0  0  0  0  0  0  0  0
  -31.9579  -57.4985   -8.4019 C   0  0  0  0  0  0  0  0  0  0  0  0
  -30.8019  -56.8959   -8.7103 C   0  0  0  0  0  0  0  0  0  0  0  0
  -30.1672  -56.0131   -7.8640 O   0  0  0  0  0  0  0  0  0  0  0  0
  -30.1417  -57.1589   -9.9988 C   0  0  0  0  0  0  0  0  0  0  0  0
  -28.9338  -56.5538  -10.3687 C   0  0  0  0  0  0  0  0  0  0  0  0
  -32.3749  -59.2896  -11.1732 H   0  0  0  0  0  0  0  0  0  0  0  0
  -30.5442  -55.8097   -7.0306 H   0  0  0  0  0  0  0  0  0  0  0  0
  -26.0588  -54.3398  -15.0764 C   0  0  0  0  0  0  0  0  0  0  0  0
  -24.7484  -53.9487  -15.7262 C   0  0  0  0  0  0  0  0  0  0  0  0
  -24.5648  -52.6546  -16.2383 C   0  0  0  0  0  0  0  0  0  0  0  0
  -23.3555  -52.2976  -16.8387 C   0  0  0  0  0  0  0  0  0  0  0  0
  -22.3235  -53.2301  -16.9271 C   0  0  0  0  0  0  0  0  0  0  0  0
  -20.8348  -52.7885  -17.6675 Cl  0  0  0  0  0  0  0  0  0  0  0  0
  -22.4905  -54.5168  -16.4195 C   0  0  0  0  0  0  0  0  0  0  0  0
  -23.7000  -54.8749  -15.8216 C   0  0  0  0  0  0  0  0  0  0  0  0
  7  8  1  0
  8  9  2  0
  9 10  1  0
 10 11  2  0
 11 12  1  0
 12  6  1  0
  6  2  1  0
  2  3  1  0
  3  4  2  0
  3  1  1  0
  1 38  1  0
 38 39  1  0
 39 40  2  0
 40 41  1  0
 41 42  2  0
 42 43  1  0
 42 44  1  0
 44 45  2  0
  1 20  1  0
 20 21  1  0
 21 22  2  0
 21 24  1  0
 24 25  2  0
 25 26  1  0
 26 27  2  0
 27 28  1  0
 28 29  1  0
 29 30  2  0
 29 31  1  0
 31 32  2  0
 32 33  1  0
 32 34  1  0
 34 35  2  0
 12 13  2  0
 13 14  1  0
 14 15  2  0
 15 16  1  0
 16 17  2  0
 17  8  1  0
 16 11  1  0
 45 39  1  0
 35 24  1  0
 34 27  1  0
  7 18  1  0
  7 19  1  0
  2  5  1  0
 20 23  1  0
 28 36  1  0
 33 37  1  0
M  END
> <minimizedAffinity>
-9.64021

> <CNNscore>
0.4203725159

> <CNNaffinity>
6.8386025429

> <CNN_VS>
2.8747606277

> <CNNaffinity_variance>
0.2433947772

$$$$



 45 49  0  0  0  0  0  0  0  0999 V2000
  -25.9196  -54.5676  -13.8401 C   0  0  0  0  0  0  0  0  0  0  0  0
  -24.1241  -53.0836  -12.9552 N   0  0  0  0  0  0  0  0  0  0  0  0
  -25.4610  -53.4155  -12.9048 C   0  0  0  0  0  0  0  0  0  0  0  0
  -26.2207  -52.9074  -12.0774 O   0  0  0  0  0  0  0  0  0  0  0  0
  -23.5262  -53.5964  -13.5457 H   0  0  0  0  0  0  0  0  0  0  0  0
  -23.5725  -52.0001  -12.1630 C   0  0  0  0  0  0  0  0  0  0  0  0
  -18.9811  -47.3719  -11.3864 N   0  0  0  0  0  0  0  0  0  0  0  0
  -19.7972  -48.4819  -11.5898 C   0  0  0  0  0  0  0  0  0  0  0  0
  -21.1722  -48.3512  -11.6239 C   0  0  0  0  0  0  0  0  0  0  0  0
  -21.9460  -49.4953  -11.8008 C   0  0  0  0  0  0  0  0  0  0  0  0
  -21.3386  -50.7586  -11.9472 C   0  0  0  0  0  0  0  0  0  0  0  0
  -22.0558  -51.9815  -12.1310 C   0  0  0  0  0  0  0  0  0  0  0  0
  -21.3324  -53.1844  -12.2060 C   0  0  0  0  0  0  0  0  0  0  0  0
  -19.9439  -53.1830  -12.1524 C   0  0  0  0  0  0  0  0  0  0  0  0
  -19.2587  -51.9799  -11.9981 C   0  0  0  0  0  0  0  0  0  0  0  0
  -19.9236  -50.7704  -11.8859 C   0  0  0  0  0  0  0  0  0  0  0  0
  -19.1780  -49.6635  -11.7139 N   0  0  0  0  0  0  0  0  0  0  0  0
  -19.3816  -46.4778  -11.2883 H   0  0  0  0  0  0  0  0  0  0  0  0
  -18.0038  -47.4812  -11.3406 H   0  0  0  0  0  0  0  0  0  0  0  0
  -27.1685  -55.1306  -13.3032 N   0  0  0  0  0  0  0  0  0  0  0  0
  -27.2052  -56.3666  -12.6852 C   0  0  0  0  0  0  0  0  0  0  0  0
  -26.2116  -57.0111  -12.3736 O   0  0  0  0  0  0  0  0  0  0  0  0
  -28.0014  -54.6125  -13.3865 H   0  0  0  0  0  0  0  0  0  0  0  0
  -28.5636  -56.9218  -12.4308 C   0  0  0  0  0  0  0  0  0  0  0  0
  -28.7991  -57.8246  -11.3842 C   0  0  0  0  0  0  0  0  0  0  0  0
  -30.0837  -58.3307  -11.1740 C   0  0  0  0  0  0  0  0  0  0  0  0
  -31.1268  -57.9370  -12.0143 C   0  0  0  0  0  0  0  0  0  0  0  0
  -32.4141  -58.4467  -11.7995 N   0  0  0  0  0  0  0  0  0  0  0  0
  -33.4945  -58.1215  -12.5717 C   0  0  0  0  0  0  0  0  0  0  0  0
  -34.6122  -58.5820  -12.3630 O   0  0  0  0  0  0  0  0  0  0  0  0
  -33.2654  -57.1770  -13.6885 C   0  0  0  0  0  0  0  0  0  0  0  0
  -32.0475  -56.6712  -13.9242 C   0  0  0  0  0  0  0  0  0  0  0  0
  -31.7874  -55.7892  -14.9503 O   0  0  0  0  0  0  0  0  0  0  0  0
  -30.9056  -57.0437  -13.0743 C   0  0  0  0  0  0  0  0  0  0  0  0
  -29.6133  -56.5437  -13.2797 C   0  0  0  0  0  0  0  0  0  0  0  0
  -32.5479  -59.0732  -11.0520 H   0  0  0  0  0  0  0  0  0  0  0  0
  -32.4787  -55.5184  -15.5220 H   0  0  0  0  0  0  0  0  0  0  0  0
  -25.9543  -54.2046  -15.3376 C   0  0  0  0  0  0  0  0  0  0  0  0
  -24.5874  -53.9094  -15.9179 C   0  0  0  0  0  0  0  0  0  0  0  0
  -23.5846  -54.8918  -15.9159 C   0  0  0  0  0  0  0  0  0  0  0  0
  -22.3242  -54.6157  -16.4502 C   0  0  0  0  0  0  0  0  0  0  0  0
  -22.0611  -53.3589  -16.9920 C   0  0  0  0  0  0  0  0  0  0  0  0
  -20.5077  -53.0206  -17.6492 Cl  0  0  0  0  0  0  0  0  0  0  0  0
  -23.0481  -52.3757  -17.0041 C   0  0  0  0  0  0  0  0  0  0  0  0
  -24.3073  -52.6503  -16.4678 C   0  0  0  0  0  0  0  0  0  0  0  0
  7  8  1  0
  8  9  2  0
  9 10  1  0
 10 11  2  0
 11 12  1  0
 12  6  1  0
  6  2  1  0
  2  3  1  0
  3  4  2  0
  3  1  1  0
  1 38  1  0
 38 39  1  0
 39 40  2  0
 40 41  1  0
 41 42  2  0
 42 43  1  0
 42 44  1  0
 44 45  2  0
  1 20  1  0
 20 21  1  0
 21 22  2  0
 21 24  1  0
 24 25  2  0
 25 26  1  0
 26 27  2  0
 27 28  1  0
 28 29  1  0
 29 30  2  0
 29 31  1  0
 31 32  2  0
 32 33  1  0
 32 34  1  0
 34 35  2  0
 12 13  2  0
 13 14  1  0
 14 15  2  0
 15 16  1  0
 16 17  2  0
 17  8  1  0
 16 11  1  0
 45 39  1  0
 35 24  1  0
 34 27  1  0
  7 18  1  0
  7 19  1  0
  2  5  1  0
 20 23  1  0
 28 36  1  0
 33 37  1  0
M  END
> <minimizedAffinity>
-9.72774

> <CNNscore>
0.3807947934

> <CNNaffinity>
6.9789252281

> <CNN_VS>
2.6575384140

> <CNNaffinity_variance>
0.2096798420

$$$$



 45 49  0  0  0  0  0  0  0  0999 V2000
  -26.4111  -54.1943  -11.3914 C   0  0  0  0  0  0  0  0  0  0  0  0
  -24.8171  -52.3694  -11.9726 N   0  0  0  0  0  0  0  0  0  0  0  0
  -25.5167  -53.4650  -12.4309 C   0  0  0  0  0  0  0  0  0  0  0  0
  -25.5234  -53.7725  -13.6248 O   0  0  0  0  0  0  0  0  0  0  0  0
  -24.9329  -52.0854  -11.0371 H   0  0  0  0  0  0  0  0  0  0  0  0
  -23.9149  -51.6223  -12.8291 C   0  0  0  0  0  0  0  0  0  0  0  0
  -19.0360  -47.5331  -11.2232 N   0  0  0  0  0  0  0  0  0  0  0  0
  -19.9267  -48.5490  -11.5612 C   0  0  0  0  0  0  0  0  0  0  0  0
  -21.2321  -48.2579  -11.9077 C   0  0  0  0  0  0  0  0  0  0  0  0
  -22.0920  -49.3108  -12.2090 C   0  0  0  0  0  0  0  0  0  0  0  0
  -21.6384  -50.6444  -12.1663 C   0  0  0  0  0  0  0  0  0  0  0  0
  -22.4525  -51.7826  -12.4586 C   0  0  0  0  0  0  0  0  0  0  0  0
  -21.8942  -53.0655  -12.3227 C   0  0  0  0  0  0  0  0  0  0  0  0
  -20.5627  -53.2261  -11.9592 C   0  0  0  0  0  0  0  0  0  0  0  0
  -19.7758  -52.1057  -11.7021 C   0  0  0  0  0  0  0  0  0  0  0  0
  -20.2847  -50.8207  -11.7889 C   0  0  0  0  0  0  0  0  0  0  0  0
  -19.4558  -49.8017  -11.4972 N   0  0  0  0  0  0  0  0  0  0  0  0
  -19.3274  -46.5931  -11.2522 H   0  0  0  0  0  0  0  0  0  0  0  0
  -18.1150  -47.7549  -10.9552 H   0  0  0  0  0  0  0  0  0  0  0  0
  -27.4339  -54.9625  -12.1185 N   0  0  0  0  0  0  0  0  0  0  0  0
  -28.6822  -54.4367  -12.3950 C   0  0  0  0  0  0  0  0  0  0  0  0
  -28.9874  -53.2623  -12.2288 O   0  0  0  0  0  0  0  0  0  0  0  0
  -27.2234  -55.8769  -12.4166 H   0  0  0  0  0  0  0  0  0  0  0  0
  -29.6954  -55.4064  -12.8959 C   0  0  0  0  0  0  0  0  0  0  0  0
  -30.3681  -55.1985  -14.1084 C   0  0  0  0  0  0  0  0  0  0  0  0
  -31.3162  -56.1245  -14.5490 C   0  0  0  0  0  0  0  0  0  0  0  0
  -31.5925  -57.2519  -13.7732 C   0  0  0  0  0  0  0  0  0  0  0  0
  -32.5439  -58.1787  -14.2191 N   0  0  0  0  0  0  0  0  0  0  0  0
  -32.8819  -59.3079  -13.5265 C   0  0  0  0  0  0  0  0  0  0  0  0
  -33.7191  -60.1043  -13.9386 O   0  0  0  0  0  0  0  0  0  0  0  0
  -32.1902  -59.5414  -12.2384 C   0  0  0  0  0  0  0  0  0  0  0  0
  -31.2762  -58.6756  -11.7805 C   0  0  0  0  0  0  0  0  0  0  0  0
  -30.6070  -58.8518  -10.5890 O   0  0  0  0  0  0  0  0  0  0  0  0
  -30.9371  -57.4687  -12.5509 C   0  0  0  0  0  0  0  0  0  0  0  0
  -29.9901  -56.5329  -12.1152 C   0  0  0  0  0  0  0  0  0  0  0  0
  -32.9936  -58.0074  -15.0780 H   0  0  0  0  0  0  0  0  0  0  0  0
  -30.7846  -59.6036  -10.0586 H   0  0  0  0  0  0  0  0  0  0  0  0
  -25.6364  -54.9847  -10.3189 C   0  0  0  0  0  0  0  0  0  0  0  0
  -26.5070  -55.4621   -9.1758 C   0  0  0  0  0  0  0  0  0  0  0  0
  -26.0508  -56.4606   -8.3009 C   0  0  0  0  0  0  0  0  0  0  0  0
  -26.8570  -56.9001   -7.2487 C   0  0  0  0  0  0  0  0  0  0  0  0
  -28.1205  -56.3420   -7.0637 C   0  0  0  0  0  0  0  0  0  0  0  0
  -29.1124  -56.8852   -5.7673 Cl  0  0  0  0  0  0  0  0  0  0  0  0
  -28.5846  -55.3476   -7.9220 C   0  0  0  0  0  0  0  0  0  0  0  0
  -27.7801  -54.9097   -8.9755 C   0  0  0  0  0  0  0  0  0  0  0  0
  7  8  1  0
  8  9  2  0
  9 10  1  0
 10 11  2  0
 11 12  1  0
 12  6  1  0
  6  2  1  0
  2  3  1  0
  3  4  2  0
  3  1  1  0
  1 38  1  0
 38 39  1  0
 39 40  2  0
 40 41  1  0
 41 42  2  0
 42 43  1  0
 42 44  1  0
 44 45  2  0
  1 20  1  0
 20 21  1  0
 21 22  2  0
 21 24  1  0
 24 25  2  0
 25 26  1  0
 26 27  2  0
 27 28  1  0
 28 29  1  0
 29 30  2  0
 29 31  1  0
 31 32  2  0
 32 33  1  0
 32 34  1  0
 34 35  2  0
 12 13  2  0
 13 14  1  0
 14 15  2  0
 15 16  1  0
 16 17  2  0
 17  8  1  0
 16 11  1  0
 45 39  1  0
 35 24  1  0
 34 27  1  0
  7 18  1  0
  7 19  1  0
  2  5  1  0
 20 23  1  0
 28 36  1  0
 33 37  1  0
M  END
> <minimizedAffinity>
-10.37107

> <CNNscore>
0.3762794435

> <CNNaffinity>
6.9178886414

> <CNN_VS>
2.6030592918

> <CNNaffinity_variance>
0.2407637089

$$$$
