


 31 34  0  0  0  0  0  0  0  0999 V2000
  -17.7712  -33.2257    3.5274 C   0  0  0  0  0  0  0  0  0  0  0  0
  -16.7777  -32.1385    3.2447 C   0  0  0  0  0  0  0  0  0  0  0  0
  -16.3525  -32.0481    1.9788 C   0  0  0  0  0  0  0  0  0  0  0  0
  -15.4345  -31.0813    1.6026 O   0  0  0  0  0  0  0  0  0  0  0  0
  -16.8403  -32.9397    1.0167 N   0  0  0  0  0  0  0  0  0  0  0  0
  -16.5087  -32.9754   -0.2990 N   0  0  0  0  0  0  0  0  0  0  0  0
  -17.2356  -33.9851   -0.7840 C   0  0  0  0  0  0  0  0  0  0  0  0
  -18.0378  -34.6171    0.1914 C   0  0  0  0  0  0  0  0  0  0  0  0
  -17.7653  -33.9247    1.3577 C   0  0  0  0  0  0  0  0  0  0  0  0
  -18.2350  -34.0662    2.6394 N   0  0  0  0  0  0  0  0  0  0  0  0
  -15.1012  -30.4791    2.2384 H   0  0  0  0  0  0  0  0  0  0  0  0
  -18.9418  -35.7396   -0.0089 C   0  0  0  0  0  0  0  0  0  0  0  0
  -19.1059  -36.2046   -1.1304 O   0  0  0  0  0  0  0  0  0  0  0  0
  -19.5474  -36.1799    1.1524 N   0  0  0  0  0  0  0  0  0  0  0  0
  -19.3001  -35.6980    1.9745 H   0  0  0  0  0  0  0  0  0  0  0  0
  -20.4718  -37.2282    1.3111 C   0  0  0  0  0  0  0  0  0  0  0  0
  -20.8878  -37.7244    2.5501 C   0  0  0  0  0  0  0  0  0  0  0  0
  -21.8116  -38.7725    2.6172 C   0  0  0  0  0  0  0  0  0  0  0  0
  -22.3172  -39.3217    1.4467 C   0  0  0  0  0  0  0  0  0  0  0  0
  -23.2017  -40.3249    1.5136 F   0  0  0  0  0  0  0  0  0  0  0  0
  -21.9170  -38.8432    0.2067 C   0  0  0  0  0  0  0  0  0  0  0  0
  -20.9943  -37.7966    0.1393 C   0  0  0  0  0  0  0  0  0  0  0  0
  -18.2757  -33.3351    4.9572 C   0  0  0  0  0  0  0  0  0  0  0  0
  -19.3688  -37.3881    5.9805 C   0  0  0  0  0  0  0  0  0  0  0  0
  -18.0281  -37.0525    5.7740 C   0  0  0  0  0  0  0  0  0  0  0  0
  -17.6764  -35.7407    5.4460 C   0  0  0  0  0  0  0  0  0  0  0  0
  -18.6606  -34.7496    5.3192 C   0  0  0  0  0  0  0  0  0  0  0  0
  -20.0032  -35.0929    5.5288 C   0  0  0  0  0  0  0  0  0  0  0  0
  -20.3553  -36.4050    5.8575 C   0  0  0  0  0  0  0  0  0  0  0  0
  -20.0271  -39.8223    6.5899 N   0  0  0  0  0  0  0  0  0  0  0  0
  -19.7315  -38.7334    6.3183 C   0  0  0  0  0  0  0  0  0  0  0  0
 30 31  3  0
 31 24  1  0
 24 25  2  0
 25 26  1  0
 26 27  2  0
 27 23  1  0
 23  1  1  0
  1  2  1  0
  2  3  2  0
  3  4  1  0
  3  5  1  0
  5  6  1  0
  6  7  2  0
  7  8  1  0
  8 12  1  0
 12 13  2  0
 12 14  1  0
 14 16  1  0
 16 17  2  0
 17 18  1  0
 18 19  2  0
 19 20  1  0
 19 21  1  0
 21 22  2  0
  8  9  2  0
  9 10  1  0
 27 28  1  0
 28 29  2  0
 29 24  1  0
 10  1  2  0
  9  5  1  0
 22 16  1  0
  4 11  1  0
 14 15  1  0
M  END
> <minimizedAffinity>
-10.64056

> <CNNscore>
0.9519683719

> <CNNaffinity>
8.2727642059

> <CNN_VS>
7.8754100800

> <CNNaffinity_variance>
0.2411200553

$$$$



 31 34  0  0  0  0  0  0  0  0999 V2000
  -18.3401  -35.1841   -0.6558 C   0  0  0  0  0  0  0  0  0  0  0  0
  -17.4590  -34.3731   -1.5585 C   0  0  0  0  0  0  0  0  0  0  0  0
  -16.7975  -33.3640   -0.9794 C   0  0  0  0  0  0  0  0  0  0  0  0
  -15.9548  -32.5481   -1.7163 O   0  0  0  0  0  0  0  0  0  0  0  0
  -16.9544  -33.1259    0.3908 N   0  0  0  0  0  0  0  0  0  0  0  0
  -16.3557  -32.1492    1.1187 N   0  0  0  0  0  0  0  0  0  0  0  0
  -16.8183  -32.3444    2.3561 C   0  0  0  0  0  0  0  0  0  0  0  0
  -17.7143  -33.4316    2.4542 C   0  0  0  0  0  0  0  0  0  0  0  0
  -17.7926  -33.9263    1.1646 C   0  0  0  0  0  0  0  0  0  0  0  0
  -18.4973  -34.9731    0.6251 N   0  0  0  0  0  0  0  0  0  0  0  0
  -15.8422  -32.6982   -2.6344 H   0  0  0  0  0  0  0  0  0  0  0  0
  -18.3887  -33.9075    3.6527 C   0  0  0  0  0  0  0  0  0  0  0  0
  -18.5186  -33.1674    4.6202 O   0  0  0  0  0  0  0  0  0  0  0  0
  -18.8315  -35.2131    3.5601 N   0  0  0  0  0  0  0  0  0  0  0  0
  -18.6507  -35.6679    2.7059 H   0  0  0  0  0  0  0  0  0  0  0  0
  -19.5074  -35.9760    4.5295 C   0  0  0  0  0  0  0  0  0  0  0  0
  -20.8162  -35.7241    4.9512 C   0  0  0  0  0  0  0  0  0  0  0  0
  -21.4132  -36.5333    5.9235 C   0  0  0  0  0  0  0  0  0  0  0  0
  -20.7012  -37.5915    6.4716 C   0  0  0  0  0  0  0  0  0  0  0  0
  -21.2749  -38.3648    7.4022 F   0  0  0  0  0  0  0  0  0  0  0  0
  -19.4006  -37.8583    6.0665 C   0  0  0  0  0  0  0  0  0  0  0  0
  -18.8041  -37.0503    5.0955 C   0  0  0  0  0  0  0  0  0  0  0  0
  -19.0891  -36.3431   -1.2935 C   0  0  0  0  0  0  0  0  0  0  0  0
  -21.9946  -38.0693    1.3987 C   0  0  0  0  0  0  0  0  0  0  0  0
  -21.5348  -36.7655    1.6027 C   0  0  0  0  0  0  0  0  0  0  0  0
  -20.5975  -36.2081    0.7293 C   0  0  0  0  0  0  0  0  0  0  0  0
  -20.1077  -36.9477   -0.3570 C   0  0  0  0  0  0  0  0  0  0  0  0
  -20.5739  -38.2543   -0.5563 C   0  0  0  0  0  0  0  0  0  0  0  0
  -21.5120  -38.8120    0.3169 C   0  0  0  0  0  0  0  0  0  0  0  0
  -23.7344  -39.1076    3.0189 N   0  0  0  0  0  0  0  0  0  0  0  0
  -22.9572  -38.6426    2.2932 C   0  0  0  0  0  0  0  0  0  0  0  0
 30 31  3  0
 31 24  1  0
 24 25  2  0
 25 26  1  0
 26 27  2  0
 27 23  1  0
 23  1  1  0
  1  2  1  0
  2  3  2  0
  3  4  1  0
  3  5  1  0
  5  6  1  0
  6  7  2  0
  7  8  1  0
  8 12  1  0
 12 13  2  0
 12 14  1  0
 14 16  1  0
 16 17  2  0
 17 18  1  0
 18 19  2  0
 19 20  1  0
 19 21  1  0
 21 22  2  0
  8  9  2  0
  9 10  1  0
 27 28  1  0
 28 29  2  0
 29 24  1  0
 10  1  2  0
  9  5  1  0
 22 16  1  0
  4 11  1  0
 14 15  1  0
M  END
> <minimizedAffinity>
-10.13408

> <CNNscore>
0.9101611376

> <CNNaffinity>
7.9518008232

> <CNN_VS>
7.2374200821

> <CNNaffinity_variance>
0.1336403489

$$$$



 31 34  0  0  0  0  0  0  0  0999 V2000
  -18.3939  -35.1517   -0.0927 C   0  0  0  0  0  0  0  0  0  0  0  0
  -17.6996  -34.4539   -1.2240 C   0  0  0  0  0  0  0  0  0  0  0  0
  -16.9756  -33.3781   -0.8927 C   0  0  0  0  0  0  0  0  0  0  0  0
  -16.2912  -32.6553   -1.8561 O   0  0  0  0  0  0  0  0  0  0  0  0
  -16.9040  -32.9740    0.4453 N   0  0  0  0  0  0  0  0  0  0  0  0
  -16.2159  -31.9123    0.9367 N   0  0  0  0  0  0  0  0  0  0  0  0
  -16.4569  -31.9558    2.2494 C   0  0  0  0  0  0  0  0  0  0  0  0
  -17.2952  -33.0267    2.6299 C   0  0  0  0  0  0  0  0  0  0  0  0
  -17.5782  -33.6769    1.4420 C   0  0  0  0  0  0  0  0  0  0  0  0
  -18.3370  -34.7853    1.1613 N   0  0  0  0  0  0  0  0  0  0  0  0
  -16.3320  -32.9168   -2.7549 H   0  0  0  0  0  0  0  0  0  0  0  0
  -17.7442  -33.3546    3.9747 C   0  0  0  0  0  0  0  0  0  0  0  0
  -18.8929  -33.1030    4.3180 O   0  0  0  0  0  0  0  0  0  0  0  0
  -16.7708  -33.9458    4.7572 N   0  0  0  0  0  0  0  0  0  0  0  0
  -15.8974  -34.0835    4.3242 H   0  0  0  0  0  0  0  0  0  0  0  0
  -16.8674  -34.3762    6.0929 C   0  0  0  0  0  0  0  0  0  0  0  0
  -15.9083  -34.1067    7.0736 C   0  0  0  0  0  0  0  0  0  0  0  0
  -16.0828  -34.5750    8.3799 C   0  0  0  0  0  0  0  0  0  0  0  0
  -17.2148  -35.3111    8.7028 C   0  0  0  0  0  0  0  0  0  0  0  0
  -17.3797  -35.7583    9.9543 F   0  0  0  0  0  0  0  0  0  0  0  0
  -18.1787  -35.5894    7.7436 C   0  0  0  0  0  0  0  0  0  0  0  0
  -18.0046  -35.1219    6.4389 C   0  0  0  0  0  0  0  0  0  0  0  0
  -19.2103  -36.3838   -0.4482 C   0  0  0  0  0  0  0  0  0  0  0  0
  -21.5004  -37.8522    2.9087 C   0  0  0  0  0  0  0  0  0  0  0  0
  -20.1250  -37.6395    3.0352 C   0  0  0  0  0  0  0  0  0  0  0  0
  -19.3868  -37.1618    1.9495 C   0  0  0  0  0  0  0  0  0  0  0  0
  -20.0142  -36.8928    0.7243 C   0  0  0  0  0  0  0  0  0  0  0  0
  -21.3941  -37.1073    0.6047 C   0  0  0  0  0  0  0  0  0  0  0  0
  -22.1329  -37.5846    1.6909 C   0  0  0  0  0  0  0  0  0  0  0  0
  -22.8764  -38.7380    4.9217 N   0  0  0  0  0  0  0  0  0  0  0  0
  -22.2597  -38.3412    4.0221 C   0  0  0  0  0  0  0  0  0  0  0  0
 30 31  3  0
 31 24  1  0
 24 25  2  0
 25 26  1  0
 26 27  2  0
 27 23  1  0
 23  1  1  0
  1  2  1  0
  2  3  2  0
  3  4  1  0
  3  5  1  0
  5  6  1  0
  6  7  2  0
  7  8  1  0
  8 12  1  0
 12 13  2  0
 12 14  1  0
 14 16  1  0
 16 17  2  0
 17 18  1  0
 18 19  2  0
 19 20  1  0
 19 21  1  0
 21 22  2  0
  8  9  2  0
  9 10  1  0
 27 28  1  0
 28 29  2  0
 29 24  1  0
 10  1  2  0
  9  5  1  0
 22 16  1  0
  4 11  1  0
 14 15  1  0
M  END
> <minimizedAffinity>
-9.46953

> <CNNscore>
0.7966462374

> <CNNaffinity>
7.6510200500

> <CNN_VS>
6.0951561928

> <CNNaffinity_variance>
0.1409171671

$$$$



 31 34  0  0  0  0  0  0  0  0999 V2000
  -18.0799  -33.8746    0.8123 C   0  0  0  0  0  0  0  0  0  0  0  0
  -17.0620  -32.7964    0.5882 C   0  0  0  0  0  0  0  0  0  0  0  0
  -16.4897  -32.2932    1.6885 C   0  0  0  0  0  0  0  0  0  0  0  0
  -15.5355  -31.2927    1.6016 O   0  0  0  0  0  0  0  0  0  0  0  0
  -16.8556  -32.7823    2.9477 N   0  0  0  0  0  0  0  0  0  0  0  0
  -16.3688  -32.3778    4.1483 N   0  0  0  0  0  0  0  0  0  0  0  0
  -17.0198  -33.1407    5.0300 C   0  0  0  0  0  0  0  0  0  0  0  0
  -17.9298  -34.0385    4.4298 C   0  0  0  0  0  0  0  0  0  0  0  0
  -17.8110  -33.7889    3.0742 C   0  0  0  0  0  0  0  0  0  0  0  0
  -18.4324  -34.3407    1.9821 N   0  0  0  0  0  0  0  0  0  0  0  0
  -15.2829  -30.9577    0.7638 H   0  0  0  0  0  0  0  0  0  0  0  0
  -18.7864  -35.0019    5.1048 C   0  0  0  0  0  0  0  0  0  0  0  0
  -19.4018  -34.6771    6.1131 O   0  0  0  0  0  0  0  0  0  0  0  0
  -18.8113  -36.2437    4.4995 N   0  0  0  0  0  0  0  0  0  0  0  0
  -18.2610  -36.3367    3.6885 H   0  0  0  0  0  0  0  0  0  0  0  0
  -19.5217  -37.3922    4.8932 C   0  0  0  0  0  0  0  0  0  0  0  0
  -20.5282  -37.9903    4.1293 C   0  0  0  0  0  0  0  0  0  0  0  0
  -21.1863  -39.1322    4.5977 C   0  0  0  0  0  0  0  0  0  0  0  0
  -20.8370  -39.6733    5.8276 C   0  0  0  0  0  0  0  0  0  0  0  0
  -21.4684  -40.7666    6.2739 F   0  0  0  0  0  0  0  0  0  0  0  0
  -19.8404  -39.0944    6.6012 C   0  0  0  0  0  0  0  0  0  0  0  0
  -19.1831  -37.9539    6.1337 C   0  0  0  0  0  0  0  0  0  0  0  0
  -18.7309  -34.4676   -0.4268 C   0  0  0  0  0  0  0  0  0  0  0  0
  -21.2290  -37.8705    0.4948 C   0  0  0  0  0  0  0  0  0  0  0  0
  -20.3182  -37.9331   -0.5633 C   0  0  0  0  0  0  0  0  0  0  0  0
  -19.5093  -36.8327   -0.8578 C   0  0  0  0  0  0  0  0  0  0  0  0
  -19.6023  -35.6565   -0.0994 C   0  0  0  0  0  0  0  0  0  0  0  0
  -20.5170  -35.6011    0.9610 C   0  0  0  0  0  0  0  0  0  0  0  0
  -21.3260  -36.7019    1.2563 C   0  0  0  0  0  0  0  0  0  0  0  0
  -22.7319  -39.9114    1.0479 N   0  0  0  0  0  0  0  0  0  0  0  0
  -22.0591  -38.9991    0.7992 C   0  0  0  0  0  0  0  0  0  0  0  0
 30 31  3  0
 31 24  1  0
 24 25  2  0
 25 26  1  0
 26 27  2  0
 27 23  1  0
 23  1  1  0
  1  2  1  0
  2  3  2  0
  3  4  1  0
  3  5  1  0
  5  6  1  0
  6  7  2  0
  7  8  1  0
  8 12  1  0
 12 13  2  0
 12 14  1  0
 14 16  1  0
 16 17  2  0
 17 18  1  0
 18 19  2  0
 19 20  1  0
 19 21  1  0
 21 22  2  0
  8  9  2  0
  9 10  1  0
 27 28  1  0
 28 29  2  0
 29 24  1  0
 10  1  2  0
  9  5  1  0
 22 16  1  0
  4 11  1  0
 14 15  1  0
M  END
> <minimizedAffinity>
-10.25328

> <CNNscore>
0.6284525394

> <CNNaffinity>
7.5061612129

> <CNN_VS>
4.7172660828

> <CNNaffinity_variance>
0.0553058796

$$$$



 31 34  0  0  0  0  0  0  0  0999 V2000
  -17.2898  -33.1518    1.0903 C   0  0  0  0  0  0  0  0  0  0  0  0
  -16.6479  -33.2715   -0.2598 C   0  0  0  0  0  0  0  0  0  0  0  0
  -17.1228  -34.2413   -1.0504 C   0  0  0  0  0  0  0  0  0  0  0  0
  -16.6051  -34.4442   -2.3191 O   0  0  0  0  0  0  0  0  0  0  0  0
  -18.1587  -35.0646   -0.5944 N   0  0  0  0  0  0  0  0  0  0  0  0
  -18.7441  -36.0838   -1.2731 N   0  0  0  0  0  0  0  0  0  0  0  0
  -19.6661  -36.5446   -0.4241 C   0  0  0  0  0  0  0  0  0  0  0  0
  -19.6950  -35.8477    0.8038 C   0  0  0  0  0  0  0  0  0  0  0  0
  -18.7052  -34.8897    0.6756 C   0  0  0  0  0  0  0  0  0  0  0  0
  -18.2572  -33.9138    1.5301 N   0  0  0  0  0  0  0  0  0  0  0  0
  -15.9115  -33.8991   -2.6348 H   0  0  0  0  0  0  0  0  0  0  0  0
  -20.5778  -36.0968    1.9336 C   0  0  0  0  0  0  0  0  0  0  0  0
  -20.7420  -35.2341    2.7876 O   0  0  0  0  0  0  0  0  0  0  0  0
  -21.1644  -37.3478    1.9155 N   0  0  0  0  0  0  0  0  0  0  0  0
  -20.9295  -37.9207    1.1501 H   0  0  0  0  0  0  0  0  0  0  0  0
  -22.0541  -37.9078    2.8501 C   0  0  0  0  0  0  0  0  0  0  0  0
  -23.1227  -38.7428    2.5108 C   0  0  0  0  0  0  0  0  0  0  0  0
  -23.9614  -39.2562    3.5054 C   0  0  0  0  0  0  0  0  0  0  0  0
  -23.7302  -38.9342    4.8359 C   0  0  0  0  0  0  0  0  0  0  0  0
  -24.5345  -39.4271    5.7864 F   0  0  0  0  0  0  0  0  0  0  0  0
  -22.6746  -38.1068    5.1935 C   0  0  0  0  0  0  0  0  0  0  0  0
  -21.8368  -37.5939    4.2004 C   0  0  0  0  0  0  0  0  0  0  0  0
  -16.7723  -32.0469    1.9971 C   0  0  0  0  0  0  0  0  0  0  0  0
  -15.8997  -33.4940    5.9738 C   0  0  0  0  0  0  0  0  0  0  0  0
  -15.0411  -33.7935    4.9126 C   0  0  0  0  0  0  0  0  0  0  0  0
  -15.3235  -33.3221    3.6280 C   0  0  0  0  0  0  0  0  0  0  0  0
  -16.4679  -32.5474    3.3888 C   0  0  0  0  0  0  0  0  0  0  0  0
  -17.3240  -32.2499    4.4578 C   0  0  0  0  0  0  0  0  0  0  0  0
  -17.0415  -32.7207    5.7431 C   0  0  0  0  0  0  0  0  0  0  0  0
  -15.3748  -34.3670    8.3596 N   0  0  0  0  0  0  0  0  0  0  0  0
  -15.6109  -33.9758    7.2928 C   0  0  0  0  0  0  0  0  0  0  0  0
 30 31  3  0
 31 24  1  0
 24 25  2  0
 25 26  1  0
 26 27  2  0
 27 23  1  0
 23  1  1  0
  1  2  1  0
  2  3  2  0
  3  4  1  0
  3  5  1  0
  5  6  1  0
  6  7  2  0
  7  8  1  0
  8 12  1  0
 12 13  2  0
 12 14  1  0
 14 16  1  0
 16 17  2  0
 17 18  1  0
 18 19  2  0
 19 20  1  0
 19 21  1  0
 21 22  2  0
  8  9  2  0
  9 10  1  0
 27 28  1  0
 28 29  2  0
 29 24  1  0
 10  1  2  0
  9  5  1  0
 22 16  1  0
  4 11  1  0
 14 15  1  0
M  END
> <minimizedAffinity>
-10.52304

> <CNNscore>
0.5625609159

> <CNNaffinity>
7.1901564598

> <CNN_VS>
4.0449008942

> <CNNaffinity_variance>
0.0766564086

$$$$



 31 34  0  0  0  0  0  0  0  0999 V2000
  -21.6399  -37.5877    3.5610 C   0  0  0  0  0  0  0  0  0  0  0  0
  -22.5030  -38.7635    3.2127 C   0  0  0  0  0  0  0  0  0  0  0  0
  -22.4489  -39.1734    1.9398 C   0  0  0  0  0  0  0  0  0  0  0  0
  -23.2038  -40.2505    1.5051 O   0  0  0  0  0  0  0  0  0  0  0  0
  -21.6179  -38.5089    1.0307 N   0  0  0  0  0  0  0  0  0  0  0  0
  -21.4542  -38.8031   -0.2842 N   0  0  0  0  0  0  0  0  0  0  0  0
  -20.5671  -37.8982   -0.7056 C   0  0  0  0  0  0  0  0  0  0  0  0
  -20.1467  -37.0109    0.3094 C   0  0  0  0  0  0  0  0  0  0  0  0
  -20.8432  -37.4222    1.4318 C   0  0  0  0  0  0  0  0  0  0  0  0
  -20.8597  -36.9565    2.7226 N   0  0  0  0  0  0  0  0  0  0  0  0
  -23.7636  -40.7028    2.1050 H   0  0  0  0  0  0  0  0  0  0  0  0
  -19.1926  -35.9197    0.1811 C   0  0  0  0  0  0  0  0  0  0  0  0
  -18.6816  -35.6741   -0.9048 O   0  0  0  0  0  0  0  0  0  0  0  0
  -18.9569  -35.2453    1.3639 N   0  0  0  0  0  0  0  0  0  0  0  0
  -19.4565  -35.5679    2.1485 H   0  0  0  0  0  0  0  0  0  0  0  0
  -18.0948  -34.1573    1.5911 C   0  0  0  0  0  0  0  0  0  0  0  0
  -17.9042  -33.5566    2.8389 C   0  0  0  0  0  0  0  0  0  0  0  0
  -17.0273  -32.4756    2.9761 C   0  0  0  0  0  0  0  0  0  0  0  0
  -16.3433  -31.9979    1.8664 C   0  0  0  0  0  0  0  0  0  0  0  0
  -15.5042  -30.9629    2.0002 F   0  0  0  0  0  0  0  0  0  0  0  0
  -16.5186  -32.5804    0.6187 C   0  0  0  0  0  0  0  0  0  0  0  0
  -17.3944  -33.6599    0.4815 C   0  0  0  0  0  0  0  0  0  0  0  0
  -21.6783  -37.1164    5.0058 C   0  0  0  0  0  0  0  0  0  0  0  0
  -17.8250  -35.7031    6.3565 C   0  0  0  0  0  0  0  0  0  0  0  0
  -18.9109  -34.8262    6.2883 C   0  0  0  0  0  0  0  0  0  0  0  0
  -20.1568  -35.2858    5.8540 C   0  0  0  0  0  0  0  0  0  0  0  0
  -20.3314  -36.6267    5.4815 C   0  0  0  0  0  0  0  0  0  0  0  0
  -19.2384  -37.5009    5.5535 C   0  0  0  0  0  0  0  0  0  0  0  0
  -17.9921  -37.0416    5.9884 C   0  0  0  0  0  0  0  0  0  0  0  0
  -15.5114  -34.8509    7.1634 N   0  0  0  0  0  0  0  0  0  0  0  0
  -16.5461  -35.2335    6.8030 C   0  0  0  0  0  0  0  0  0  0  0  0
 30 31  3  0
 31 24  1  0
 24 25  2  0
 25 26  1  0
 26 27  2  0
 27 23  1  0
 23  1  1  0
  1  2  1  0
  2  3  2  0
  3  4  1  0
  3  5  1  0
  5  6  1  0
  6  7  2  0
  7  8  1  0
  8 12  1  0
 12 13  2  0
 12 14  1  0
 14 16  1  0
 16 17  2  0
 17 18  1  0
 18 19  2  0
 19 20  1  0
 19 21  1  0
 21 22  2  0
  8  9  2  0
  9 10  1  0
 27 28  1  0
 28 29  2  0
 29 24  1  0
 10  1  2  0
  9  5  1  0
 22 16  1  0
  4 11  1  0
 14 15  1  0
M  END
> <minimizedAffinity>
-9.30787

> <CNNscore>
0.5442619324

> <CNNaffinity>
7.4747347832

> <CNN_VS>
4.0682134628

> <CNNaffinity_variance>
0.0757481232

$$$$



 31 34  0  0  0  0  0  0  0  0999 V2000
  -19.2465  -34.9157    1.3173 C   0  0  0  0  0  0  0  0  0  0  0  0
  -18.7581  -34.5122   -0.0420 C   0  0  0  0  0  0  0  0  0  0  0  0
  -17.7805  -33.5984   -0.0659 C   0  0  0  0  0  0  0  0  0  0  0  0
  -17.2521  -33.1511   -1.2657 O   0  0  0  0  0  0  0  0  0  0  0  0
  -17.2799  -33.0849    1.1360 N   0  0  0  0  0  0  0  0  0  0  0  0
  -16.2963  -32.1602    1.2764 N   0  0  0  0  0  0  0  0  0  0  0  0
  -16.1832  -32.0130    2.5988 C   0  0  0  0  0  0  0  0  0  0  0  0
  -17.0785  -32.8230    3.3313 C   0  0  0  0  0  0  0  0  0  0  0  0
  -17.7860  -33.5118    2.3622 C   0  0  0  0  0  0  0  0  0  0  0  0
  -18.7892  -34.4442    2.4481 N   0  0  0  0  0  0  0  0  0  0  0  0
  -17.5797  -33.4879   -2.0764 H   0  0  0  0  0  0  0  0  0  0  0  0
  -17.2077  -32.9012    4.7786 C   0  0  0  0  0  0  0  0  0  0  0  0
  -17.6912  -31.9656    5.4043 O   0  0  0  0  0  0  0  0  0  0  0  0
  -16.7450  -34.0877    5.3148 N   0  0  0  0  0  0  0  0  0  0  0  0
  -16.3906  -34.7409    4.6691 H   0  0  0  0  0  0  0  0  0  0  0  0
  -16.7151  -34.4822    6.6647 C   0  0  0  0  0  0  0  0  0  0  0  0
  -15.5663  -34.4621    7.4610 C   0  0  0  0  0  0  0  0  0  0  0  0
  -15.6252  -34.8738    8.7964 C   0  0  0  0  0  0  0  0  0  0  0  0
  -16.8313  -35.3042    9.3325 C   0  0  0  0  0  0  0  0  0  0  0  0
  -16.8852  -35.6977   10.6113 F   0  0  0  0  0  0  0  0  0  0  0  0
  -17.9833  -35.3316    8.5585 C   0  0  0  0  0  0  0  0  0  0  0  0
  -17.9247  -34.9207    7.2247 C   0  0  0  0  0  0  0  0  0  0  0  0
  -20.3475  -35.9627    1.3645 C   0  0  0  0  0  0  0  0  0  0  0  0
  -20.2033  -38.3062    4.9917 C   0  0  0  0  0  0  0  0  0  0  0  0
  -19.2439  -37.3182    4.7546 C   0  0  0  0  0  0  0  0  0  0  0  0
  -19.2940  -36.5594    3.5825 C   0  0  0  0  0  0  0  0  0  0  0  0
  -20.3025  -36.7805    2.6331 C   0  0  0  0  0  0  0  0  0  0  0  0
  -21.2621  -37.7722    2.8778 C   0  0  0  0  0  0  0  0  0  0  0  0
  -21.2126  -38.5310    4.0506 C   0  0  0  0  0  0  0  0  0  0  0  0
  -20.1138  -39.7176    7.1666 N   0  0  0  0  0  0  0  0  0  0  0  0
  -20.1542  -39.0850    6.1945 C   0  0  0  0  0  0  0  0  0  0  0  0
 30 31  3  0
 31 24  1  0
 24 25  2  0
 25 26  1  0
 26 27  2  0
 27 23  1  0
 23  1  1  0
  1  2  1  0
  2  3  2  0
  3  4  1  0
  3  5  1  0
  5  6  1  0
  6  7  2  0
  7  8  1  0
  8 12  1  0
 12 13  2  0
 12 14  1  0
 14 16  1  0
 16 17  2  0
 17 18  1  0
 18 19  2  0
 19 20  1  0
 19 21  1  0
 21 22  2  0
  8  9  2  0
  9 10  1  0
 27 28  1  0
 28 29  2  0
 29 24  1  0
 10  1  2  0
  9  5  1  0
 22 16  1  0
  4 11  1  0
 14 15  1  0
M  END
> <minimizedAffinity>
-9.40634

> <CNNscore>
0.4350129664

> <CNNaffinity>
7.3260040283

> <CNN_VS>
3.1869068146

> <CNNaffinity_variance>
0.3321497142

$$$$



 31 34  0  0  0  0  0  0  0  0999 V2000
  -17.5526  -33.4884    1.4946 C   0  0  0  0  0  0  0  0  0  0  0  0
  -16.8300  -33.4682    0.1807 C   0  0  0  0  0  0  0  0  0  0  0  0
  -17.2522  -34.3496   -0.7337 C   0  0  0  0  0  0  0  0  0  0  0  0
  -16.6580  -34.4203   -1.9831 O   0  0  0  0  0  0  0  0  0  0  0  0
  -18.3101  -35.2138   -0.4293 N   0  0  0  0  0  0  0  0  0  0  0  0
  -18.8491  -36.1556   -1.2445 N   0  0  0  0  0  0  0  0  0  0  0  0
  -19.8186  -36.7005   -0.5052 C   0  0  0  0  0  0  0  0  0  0  0  0
  -19.9245  -36.1351    0.7845 C   0  0  0  0  0  0  0  0  0  0  0  0
  -18.9329  -35.1709    0.8166 C   0  0  0  0  0  0  0  0  0  0  0  0
  -18.5414  -34.2902    1.7935 N   0  0  0  0  0  0  0  0  0  0  0  0
  -15.9490  -33.8467   -2.1979 H   0  0  0  0  0  0  0  0  0  0  0  0
  -20.8727  -36.4987    1.8268 C   0  0  0  0  0  0  0  0  0  0  0  0
  -22.0186  -36.8164    1.5322 O   0  0  0  0  0  0  0  0  0  0  0  0
  -20.3452  -36.4418    3.1027 N   0  0  0  0  0  0  0  0  0  0  0  0
  -19.4004  -36.1723    3.1647 H   0  0  0  0  0  0  0  0  0  0  0  0
  -20.9848  -36.7196    4.3244 C   0  0  0  0  0  0  0  0  0  0  0  0
  -22.0544  -37.6088    4.4637 C   0  0  0  0  0  0  0  0  0  0  0  0
  -22.6340  -37.8257    5.7181 C   0  0  0  0  0  0  0  0  0  0  0  0
  -22.1434  -37.1537    6.8295 C   0  0  0  0  0  0  0  0  0  0  0  0
  -22.6999  -37.3631    8.0294 F   0  0  0  0  0  0  0  0  0  0  0  0
  -21.0821  -36.2668    6.7122 C   0  0  0  0  0  0  0  0  0  0  0  0
  -20.5032  -36.0500    5.4596 C   0  0  0  0  0  0  0  0  0  0  0  0
  -17.0955  -32.4849    2.5410 C   0  0  0  0  0  0  0  0  0  0  0  0
  -16.0188  -34.3996    6.2618 C   0  0  0  0  0  0  0  0  0  0  0  0
  -15.0281  -34.0382    5.3447 C   0  0  0  0  0  0  0  0  0  0  0  0
  -15.3781  -33.4165    4.1435 C   0  0  0  0  0  0  0  0  0  0  0  0
  -16.7222  -33.1503    3.8441 C   0  0  0  0  0  0  0  0  0  0  0  0
  -17.7105  -33.5144    4.7688 C   0  0  0  0  0  0  0  0  0  0  0  0
  -17.3606  -34.1358    5.9708 C   0  0  0  0  0  0  0  0  0  0  0  0
  -15.3699  -35.5505    8.4944 N   0  0  0  0  0  0  0  0  0  0  0  0
  -15.6614  -35.0366    7.4955 C   0  0  0  0  0  0  0  0  0  0  0  0
 30 31  3  0
 31 24  1  0
 24 25  2  0
 25 26  1  0
 26 27  2  0
 27 23  1  0
 23  1  1  0
  1  2  1  0
  2  3  2  0
  3  4  1  0
  3  5  1  0
  5  6  1  0
  6  7  2  0
  7  8  1  0
  8 12  1  0
 12 13  2  0
 12 14  1  0
 14 16  1  0
 16 17  2  0
 17 18  1  0
 18 19  2  0
 19 20  1  0
 19 21  1  0
 21 22  2  0
  8  9  2  0
  9 10  1  0
 27 28  1  0
 28 29  2  0
 29 24  1  0
 10  1  2  0
  9  5  1  0
 22 16  1  0
  4 11  1  0
 14 15  1  0
M  END
> <minimizedAffinity>
-9.60106

> <CNNscore>
0.4286048114

> <CNNaffinity>
7.1936182976

> <CNN_VS>
3.0832195282

> <CNNaffinity_variance>
0.1037755832

$$$$



 31 34  0  0  0  0  0  0  0  0999 V2000
  -20.9442  -36.8923    3.6705 C   0  0  0  0  0  0  0  0  0  0  0  0
  -22.0136  -37.9419    3.6109 C   0  0  0  0  0  0  0  0  0  0  0  0
  -22.2374  -38.4827    2.4073 C   0  0  0  0  0  0  0  0  0  0  0  0
  -23.2020  -39.4616    2.2338 O   0  0  0  0  0  0  0  0  0  0  0  0
  -21.4877  -38.0578    1.3045 N   0  0  0  0  0  0  0  0  0  0  0  0
  -21.5952  -38.5071    0.0282 N   0  0  0  0  0  0  0  0  0  0  0  0
  -20.6729  -37.8057   -0.6357 C   0  0  0  0  0  0  0  0  0  0  0  0
  -19.9623  -36.8997    0.1818 C   0  0  0  0  0  0  0  0  0  0  0  0
  -20.5081  -37.0760    1.4408 C   0  0  0  0  0  0  0  0  0  0  0  0
  -20.2366  -36.4848    2.6491 N   0  0  0  0  0  0  0  0  0  0  0  0
  -23.7099  -39.7537    2.9650 H   0  0  0  0  0  0  0  0  0  0  0  0
  -18.8978  -35.9964   -0.2288 C   0  0  0  0  0  0  0  0  0  0  0  0
  -18.4380  -35.1860    0.5665 O   0  0  0  0  0  0  0  0  0  0  0  0
  -18.5030  -36.1632   -1.5424 N   0  0  0  0  0  0  0  0  0  0  0  0
  -18.9729  -36.8670   -2.0455 H   0  0  0  0  0  0  0  0  0  0  0  0
  -17.5159  -35.4567   -2.2533 C   0  0  0  0  0  0  0  0  0  0  0  0
  -16.7042  -36.0245   -3.2396 C   0  0  0  0  0  0  0  0  0  0  0  0
  -15.7443  -35.2485   -3.8975 C   0  0  0  0  0  0  0  0  0  0  0  0
  -15.5981  -33.9077   -3.5682 C   0  0  0  0  0  0  0  0  0  0  0  0
  -14.6785  -33.1668   -4.1996 F   0  0  0  0  0  0  0  0  0  0  0  0
  -16.3943  -33.3251   -2.5918 C   0  0  0  0  0  0  0  0  0  0  0  0
  -17.3529  -34.0999   -1.9345 C   0  0  0  0  0  0  0  0  0  0  0  0
  -20.6668  -36.2763    5.0323 C   0  0  0  0  0  0  0  0  0  0  0  0
  -21.7046  -38.9315    8.2793 C   0  0  0  0  0  0  0  0  0  0  0  0
  -22.6109  -37.9582    7.8501 C   0  0  0  0  0  0  0  0  0  0  0  0
  -22.2747  -37.1026    6.7980 C   0  0  0  0  0  0  0  0  0  0  0  0
  -21.0281  -37.2086    6.1639 C   0  0  0  0  0  0  0  0  0  0  0  0
  -20.1244  -38.1877    6.5987 C   0  0  0  0  0  0  0  0  0  0  0  0
  -20.4608  -39.0442    7.6507 C   0  0  0  0  0  0  0  0  0  0  0  0
  -22.3296  -40.5229   10.2304 N   0  0  0  0  0  0  0  0  0  0  0  0
  -22.0485  -39.8111    9.3579 C   0  0  0  0  0  0  0  0  0  0  0  0
 30 31  3  0
 31 24  1  0
 24 25  2  0
 25 26  1  0
 26 27  2  0
 27 23  1  0
 23  1  1  0
  1  2  1  0
  2  3  2  0
  3  4  1  0
  3  5  1  0
  5  6  1  0
  6  7  2  0
  7  8  1  0
  8 12  1  0
 12 13  2  0
 12 14  1  0
 14 16  1  0
 16 17  2  0
 17 18  1  0
 18 19  2  0
 19 20  1  0
 19 21  1  0
 21 22  2  0
  8  9  2  0
  9 10  1  0
 27 28  1  0
 28 29  2  0
 29 24  1  0
 10  1  2  0
  9  5  1  0
 22 16  1  0
  4 11  1  0
 14 15  1  0
M  END
> <minimizedAffinity>
-8.73196

> <CNNscore>
0.3591119945

> <CNNaffinity>
6.9874215126

> <CNN_VS>
2.5092668533

> <CNNaffinity_variance>
0.0049884487

$$$$
