


 33 36  0  0  0  0  0  0  0  0999 V2000
    8.3573   38.2217   59.9655 C   0  0  0  0  0  0  0  0  0  0  0  0
    7.3582   38.0274   59.0897 N   0  0  0  0  0  0  0  0  0  0  0  0
    6.2780   37.3559   59.5109 C   0  0  0  0  0  0  0  0  0  0  0  0
    6.1099   36.8504   60.7266 N   0  0  0  0  0  0  0  0  0  0  0  0
    7.1317   37.0523   61.5671 C   0  0  0  0  0  0  0  0  0  0  0  0
    6.8219   36.4013   63.1359 Cl  0  0  0  0  0  0  0  0  0  0  0  0
    8.3087   37.7122   61.2551 C   0  0  0  0  0  0  0  0  0  0  0  0
    9.4155   37.9005   62.2460 C   0  0  0  0  0  0  0  0  0  0  0  0
    9.4953   38.9262   59.5437 N   0  0  0  0  0  0  0  0  0  0  0  0
   10.3360   38.4720   59.3067 H   0  0  0  0  0  0  0  0  0  0  0  0
    9.3495   40.3796   59.4796 C   0  0  0  0  0  0  0  0  0  0  0  0
   13.4525   43.0457   57.3953 C   0  0  0  0  0  0  0  0  0  0  0  0
   12.5267   42.2871   58.2800 C   0  0  0  0  0  0  0  0  0  0  0  0
   12.8061   41.9295   59.5141 N   0  0  0  0  0  0  0  0  0  0  0  0
   11.7397   41.2366   60.0658 C   0  0  0  0  0  0  0  0  0  0  0  0
   11.8599   40.7535   61.4678 C   0  0  0  0  0  0  0  0  0  0  0  0
   10.6512   41.0763   59.2221 C   0  0  0  0  0  0  0  0  0  0  0  0
   10.9745   41.8239   57.7129 S   0  0  0  0  0  0  0  0  0  0  0  0
    5.2531   37.0997   58.6304 O   0  0  0  0  0  0  0  0  0  0  0  0
    5.4138   35.8973   57.8801 C   0  0  0  0  0  0  0  0  0  0  0  0
    5.2636   36.1349   56.3744 C   0  0  0  0  0  0  0  0  0  0  0  0
    4.9630   34.8674   55.5701 C   0  0  0  0  0  0  0  0  0  0  0  0
    3.6723   34.9534   54.7956 C   0  0  0  0  0  0  0  0  0  0  0  0
    3.5913   34.4749   53.4936 C   0  0  0  0  0  0  0  0  0  0  0  0
    2.3854   34.5978   52.8124 C   0  0  0  0  0  0  0  0  0  0  0  0
    1.2883   35.1951   53.4449 C   0  0  0  0  0  0  0  0  0  0  0  0
    0.0488   35.3364   52.7993 C   0  0  0  0  0  0  0  0  0  0  0  0
   -1.0102   35.9376   53.4672 C   0  0  0  0  0  0  0  0  0  0  0  0
   -2.1931   36.0672   52.8519 F   0  0  0  0  0  0  0  0  0  0  0  0
   -0.8569   36.4084   54.7612 C   0  0  0  0  0  0  0  0  0  0  0  0
    0.3800   36.2667   55.3974 C   0  0  0  0  0  0  0  0  0  0  0  0
    1.4599   35.6615   54.7654 C   0  0  0  0  0  0  0  0  0  0  0  0
    2.6262   35.5465   55.4199 N   0  0  0  0  0  0  0  0  0  0  0  0
 12 13  1  0
 13 14  2  0
 14 15  1  0
 15 16  1  0
 15 17  2  0
 17 11  1  0
 11  9  1  0
  9  1  1  0
  1  2  2  0
  2  3  1  0
  3 19  1  0
 19 20  1  0
 20 21  1  0
 21 22  1  0
 22 23  1  0
 23 24  2  0
 24 25  1  0
 25 26  2  0
 26 27  1  0
 27 28  2  0
 28 29  1  0
 28 30  1  0
 30 31  2  0
 31 32  1  0
 32 33  2  0
  3  4  2  0
  4  5  1  0
  5  6  1  0
  5  7  2  0
  7  8  1  0
 17 18  1  0
 18 13  1  0
  7  1  1  0
 33 23  1  0
 32 26  1  0
  9 10  1  0
M  END
> <minimizedAffinity>
-10.31116

> <CNNscore>
0.9839501977

> <CNNaffinity>
8.9358491898

> <CNN_VS>
8.7924308777

> <CNNaffinity_variance>
0.1537484378

$$$$



 33 36  0  0  0  0  0  0  0  0999 V2000
    8.2507   38.3285   59.9312 C   0  0  0  0  0  0  0  0  0  0  0  0
    7.2656   38.1004   59.0477 N   0  0  0  0  0  0  0  0  0  0  0  0
    6.2330   37.3435   59.4428 C   0  0  0  0  0  0  0  0  0  0  0  0
    6.1005   36.7837   60.6390 N   0  0  0  0  0  0  0  0  0  0  0  0
    7.1077   37.0222   61.4875 C   0  0  0  0  0  0  0  0  0  0  0  0
    6.8440   36.2950   63.0309 Cl  0  0  0  0  0  0  0  0  0  0  0  0
    8.2378   37.7700   61.2012 C   0  0  0  0  0  0  0  0  0  0  0  0
    9.3309   37.9951   62.1995 C   0  0  0  0  0  0  0  0  0  0  0  0
    9.3387   39.1221   59.5368 N   0  0  0  0  0  0  0  0  0  0  0  0
   10.0815   38.7646   58.9985 H   0  0  0  0  0  0  0  0  0  0  0  0
    9.2960   40.5153   59.9785 C   0  0  0  0  0  0  0  0  0  0  0  0
   10.9493   43.1972   55.6935 C   0  0  0  0  0  0  0  0  0  0  0  0
   10.2221   42.7121   56.8980 C   0  0  0  0  0  0  0  0  0  0  0  0
    9.1633   43.2985   57.4119 N   0  0  0  0  0  0  0  0  0  0  0  0
    8.7241   42.6033   58.5278 C   0  0  0  0  0  0  0  0  0  0  0  0
    7.5239   43.1077   59.2479 C   0  0  0  0  0  0  0  0  0  0  0  0
    9.4744   41.4819   58.8471 C   0  0  0  0  0  0  0  0  0  0  0  0
   10.7467   41.2954   57.7123 S   0  0  0  0  0  0  0  0  0  0  0  0
    5.2263   37.0522   58.5523 O   0  0  0  0  0  0  0  0  0  0  0  0
    5.4554   35.8788   57.7744 C   0  0  0  0  0  0  0  0  0  0  0  0
    5.3063   36.1460   56.2735 C   0  0  0  0  0  0  0  0  0  0  0  0
    6.4314   35.5545   55.4202 C   0  0  0  0  0  0  0  0  0  0  0  0
    6.0425   34.2634   54.7455 C   0  0  0  0  0  0  0  0  0  0  0  0
    4.7390   34.0516   54.3135 C   0  0  0  0  0  0  0  0  0  0  0  0
    4.4238   32.8355   53.7177 C   0  0  0  0  0  0  0  0  0  0  0  0
    5.4154   31.8586   53.5666 C   0  0  0  0  0  0  0  0  0  0  0  0
    5.1460   30.6176   52.9662 C   0  0  0  0  0  0  0  0  0  0  0  0
    6.1622   29.6793   52.8403 C   0  0  0  0  0  0  0  0  0  0  0  0
    5.9050   28.4981   52.2629 F   0  0  0  0  0  0  0  0  0  0  0  0
    7.4383   29.9487   53.3079 C   0  0  0  0  0  0  0  0  0  0  0  0
    7.6994   31.1849   53.9065 C   0  0  0  0  0  0  0  0  0  0  0  0
    6.7111   32.1530   54.0412 C   0  0  0  0  0  0  0  0  0  0  0  0
    7.0125   33.3257   54.6206 N   0  0  0  0  0  0  0  0  0  0  0  0
 12 13  1  0
 13 14  2  0
 14 15  1  0
 15 16  1  0
 15 17  2  0
 17 11  1  0
 11  9  1  0
  9  1  1  0
  1  2  2  0
  2  3  1  0
  3 19  1  0
 19 20  1  0
 20 21  1  0
 21 22  1  0
 22 23  1  0
 23 24  2  0
 24 25  1  0
 25 26  2  0
 26 27  1  0
 27 28  2  0
 28 29  1  0
 28 30  1  0
 30 31  2  0
 31 32  1  0
 32 33  2  0
  3  4  2  0
  4  5  1  0
  5  6  1  0
  5  7  2  0
  7  8  1  0
 17 18  1  0
 18 13  1  0
  7  1  1  0
 33 23  1  0
 32 26  1  0
  9 10  1  0
M  END
> <minimizedAffinity>
-9.02639

> <CNNscore>
0.9300479293

> <CNNaffinity>
8.5473585129

> <CNN_VS>
7.9494528770

> <CNNaffinity_variance>
0.0449278355

$$$$



 33 36  0  0  0  0  0  0  0  0999 V2000
    9.2523   39.2252   60.2110 C   0  0  0  0  0  0  0  0  0  0  0  0
    8.6540   38.9726   59.0357 N   0  0  0  0  0  0  0  0  0  0  0  0
    7.7199   38.0126   59.0023 C   0  0  0  0  0  0  0  0  0  0  0  0
    7.3365   37.2734   60.0359 N   0  0  0  0  0  0  0  0  0  0  0  0
    7.9641   37.5449   61.1865 C   0  0  0  0  0  0  0  0  0  0  0  0
    7.3841   36.5716   62.4891 Cl  0  0  0  0  0  0  0  0  0  0  0  0
    8.9571   38.4957   61.3536 C   0  0  0  0  0  0  0  0  0  0  0  0
    9.6210   38.7462   62.6723 C   0  0  0  0  0  0  0  0  0  0  0  0
   10.2307   40.2298   60.2665 N   0  0  0  0  0  0  0  0  0  0  0  0
   10.0791   41.0851   60.7298 H   0  0  0  0  0  0  0  0  0  0  0  0
   11.4900   39.9216   59.5906 C   0  0  0  0  0  0  0  0  0  0  0  0
   14.2929   43.3876   56.6892 C   0  0  0  0  0  0  0  0  0  0  0  0
   13.2188   42.6202   57.3767 C   0  0  0  0  0  0  0  0  0  0  0  0
   11.9381   42.9091   57.3046 N   0  0  0  0  0  0  0  0  0  0  0  0
   11.2000   42.0078   58.0560 C   0  0  0  0  0  0  0  0  0  0  0  0
    9.7208   42.1628   58.0932 C   0  0  0  0  0  0  0  0  0  0  0  0
   11.9500   41.0346   58.6984 C   0  0  0  0  0  0  0  0  0  0  0  0
   13.6122   41.2535   58.3373 S   0  0  0  0  0  0  0  0  0  0  0  0
    7.1161   37.6957   57.8080 O   0  0  0  0  0  0  0  0  0  0  0  0
    6.1485   36.6519   57.9010 C   0  0  0  0  0  0  0  0  0  0  0  0
    5.1703   36.6681   56.7224 C   0  0  0  0  0  0  0  0  0  0  0  0
    4.9766   35.3044   56.0541 C   0  0  0  0  0  0  0  0  0  0  0  0
    3.7550   35.2489   55.1720 C   0  0  0  0  0  0  0  0  0  0  0  0
    3.8161   34.6739   53.9086 C   0  0  0  0  0  0  0  0  0  0  0  0
    2.6686   34.6674   53.1234 C   0  0  0  0  0  0  0  0  0  0  0  0
    1.4870   35.2344   53.6159 C   0  0  0  0  0  0  0  0  0  0  0  0
    0.3019   35.2465   52.8618 C   0  0  0  0  0  0  0  0  0  0  0  0
   -0.8452   35.8226   53.3924 C   0  0  0  0  0  0  0  0  0  0  0  0
   -1.9760   35.8289   52.6740 F   0  0  0  0  0  0  0  0  0  0  0  0
   -0.8332   36.3941   54.6545 C   0  0  0  0  0  0  0  0  0  0  0  0
    0.3501   36.3808   55.3989 C   0  0  0  0  0  0  0  0  0  0  0  0
    1.5151   35.8048   54.9061 C   0  0  0  0  0  0  0  0  0  0  0  0
    2.6251   35.8145   55.6609 N   0  0  0  0  0  0  0  0  0  0  0  0
 12 13  1  0
 13 14  2  0
 14 15  1  0
 15 16  1  0
 15 17  2  0
 17 11  1  0
 11  9  1  0
  9  1  1  0
  1  2  2  0
  2  3  1  0
  3 19  1  0
 19 20  1  0
 20 21  1  0
 21 22  1  0
 22 23  1  0
 23 24  2  0
 24 25  1  0
 25 26  2  0
 26 27  1  0
 27 28  2  0
 28 29  1  0
 28 30  1  0
 30 31  2  0
 31 32  1  0
 32 33  2  0
  3  4  2  0
  4  5  1  0
  5  6  1  0
  5  7  2  0
  7  8  1  0
 17 18  1  0
 18 13  1  0
  7  1  1  0
 33 23  1  0
 32 26  1  0
  9 10  1  0
M  END
> <minimizedAffinity>
-9.94187

> <CNNscore>
0.9246143699

> <CNNaffinity>
8.5864057541

> <CNN_VS>
7.9391140938

> <CNNaffinity_variance>
0.1414881051

$$$$



 33 36  0  0  0  0  0  0  0  0999 V2000
    8.0922   38.1939   58.8843 C   0  0  0  0  0  0  0  0  0  0  0  0
    7.1470   37.8699   57.9872 N   0  0  0  0  0  0  0  0  0  0  0  0
    6.0900   37.1678   58.4173 C   0  0  0  0  0  0  0  0  0  0  0  0
    5.8967   36.7499   59.6622 N   0  0  0  0  0  0  0  0  0  0  0  0
    6.8657   37.0801   60.5244 C   0  0  0  0  0  0  0  0  0  0  0  0
    6.5237   36.5363   62.1268 Cl  0  0  0  0  0  0  0  0  0  0  0  0
    8.0150   37.7851   60.2079 C   0  0  0  0  0  0  0  0  0  0  0  0
    9.0627   38.1189   61.2243 C   0  0  0  0  0  0  0  0  0  0  0  0
    9.2050   38.9323   58.4533 N   0  0  0  0  0  0  0  0  0  0  0  0
    9.7211   38.6847   57.6522 H   0  0  0  0  0  0  0  0  0  0  0  0
    9.5471   40.0937   59.2728 C   0  0  0  0  0  0  0  0  0  0  0  0
   14.0306   41.7439   56.9357 C   0  0  0  0  0  0  0  0  0  0  0  0
   12.9544   41.3903   57.9011 C   0  0  0  0  0  0  0  0  0  0  0  0
   13.0443   41.5485   59.2033 N   0  0  0  0  0  0  0  0  0  0  0  0
   11.8776   41.1235   59.8198 C   0  0  0  0  0  0  0  0  0  0  0  0
   11.7807   41.2316   61.3004 C   0  0  0  0  0  0  0  0  0  0  0  0
   10.9068   40.6391   58.9566 C   0  0  0  0  0  0  0  0  0  0  0  0
   11.4712   40.7340   57.3400 S   0  0  0  0  0  0  0  0  0  0  0  0
    5.1229   36.7803   57.5196 O   0  0  0  0  0  0  0  0  0  0  0  0
    5.2541   35.4352   57.0634 C   0  0  0  0  0  0  0  0  0  0  0  0
    5.5195   35.3627   55.5566 C   0  0  0  0  0  0  0  0  0  0  0  0
    6.9317   34.8954   55.1941 C   0  0  0  0  0  0  0  0  0  0  0  0
    6.9650   33.4912   54.6459 C   0  0  0  0  0  0  0  0  0  0  0  0
    8.1743   32.8529   54.3994 C   0  0  0  0  0  0  0  0  0  0  0  0
    8.1533   31.5666   53.8719 C   0  0  0  0  0  0  0  0  0  0  0  0
    6.9272   30.9466   53.6022 C   0  0  0  0  0  0  0  0  0  0  0  0
    6.8557   29.6468   53.0744 C   0  0  0  0  0  0  0  0  0  0  0  0
    5.6158   29.0742   52.8216 C   0  0  0  0  0  0  0  0  0  0  0  0
    5.5492   27.8325   52.3230 F   0  0  0  0  0  0  0  0  0  0  0  0
    4.4468   29.7731   53.0756 C   0  0  0  0  0  0  0  0  0  0  0  0
    4.5249   31.0673   53.5988 C   0  0  0  0  0  0  0  0  0  0  0  0
    5.7467   31.6698   53.8744 C   0  0  0  0  0  0  0  0  0  0  0  0
    5.7689   32.9134   54.3791 N   0  0  0  0  0  0  0  0  0  0  0  0
 12 13  1  0
 13 14  2  0
 14 15  1  0
 15 16  1  0
 15 17  2  0
 17 11  1  0
 11  9  1  0
  9  1  1  0
  1  2  2  0
  2  3  1  0
  3 19  1  0
 19 20  1  0
 20 21  1  0
 21 22  1  0
 22 23  1  0
 23 24  2  0
 24 25  1  0
 25 26  2  0
 26 27  1  0
 27 28  2  0
 28 29  1  0
 28 30  1  0
 30 31  2  0
 31 32  1  0
 32 33  2  0
  3  4  2  0
  4  5  1  0
  5  6  1  0
  5  7  2  0
  7  8  1  0
 17 18  1  0
 18 13  1  0
  7  1  1  0
 33 23  1  0
 32 26  1  0
  9 10  1  0
M  END
> <minimizedAffinity>
-9.04733

> <CNNscore>
0.9183974266

> <CNNaffinity>
8.5618181229

> <CNN_VS>
7.8631515503

> <CNNaffinity_variance>
0.1495340765

$$$$



 33 36  0  0  0  0  0  0  0  0999 V2000
    9.1996   39.8137   60.0323 C   0  0  0  0  0  0  0  0  0  0  0  0
    8.0957   39.3304   59.4398 N   0  0  0  0  0  0  0  0  0  0  0  0
    7.5145   38.2523   59.9831 C   0  0  0  0  0  0  0  0  0  0  0  0
    7.9432   37.6055   61.0599 N   0  0  0  0  0  0  0  0  0  0  0  0
    9.0527   38.1081   61.6147 C   0  0  0  0  0  0  0  0  0  0  0  0
    9.5238   37.2384   63.0298 Cl  0  0  0  0  0  0  0  0  0  0  0  0
    9.7593   39.2028   61.1452 C   0  0  0  0  0  0  0  0  0  0  0  0
   10.9981   39.7116   61.8150 C   0  0  0  0  0  0  0  0  0  0  0  0
    9.8202   40.9446   59.4799 N   0  0  0  0  0  0  0  0  0  0  0  0
   10.5164   41.4486   59.9602 H   0  0  0  0  0  0  0  0  0  0  0  0
    9.3642   41.3248   58.1438 C   0  0  0  0  0  0  0  0  0  0  0  0
   12.1612   39.9459   53.8354 C   0  0  0  0  0  0  0  0  0  0  0  0
   11.7013   40.4944   55.1403 C   0  0  0  0  0  0  0  0  0  0  0  0
   12.4610   41.1792   55.9666 N   0  0  0  0  0  0  0  0  0  0  0  0
   11.7380   41.5453   57.0913 C   0  0  0  0  0  0  0  0  0  0  0  0
   12.4246   42.3394   58.1455 C   0  0  0  0  0  0  0  0  0  0  0  0
   10.4181   41.1208   57.0979 C   0  0  0  0  0  0  0  0  0  0  0  0
   10.0814   40.2569   55.6552 S   0  0  0  0  0  0  0  0  0  0  0  0
    6.4075   37.7028   59.3799 O   0  0  0  0  0  0  0  0  0  0  0  0
    6.6328   37.2498   58.0463 C   0  0  0  0  0  0  0  0  0  0  0  0
    5.4488   36.4422   57.5058 C   0  0  0  0  0  0  0  0  0  0  0  0
    5.7953   35.5529   56.3087 C   0  0  0  0  0  0  0  0  0  0  0  0
    4.6433   35.3783   55.3517 C   0  0  0  0  0  0  0  0  0  0  0  0
    4.8643   34.9840   54.0377 C   0  0  0  0  0  0  0  0  0  0  0  0
    3.7718   34.8591   53.1869 C   0  0  0  0  0  0  0  0  0  0  0  0
    2.4843   35.1304   53.6655 C   0  0  0  0  0  0  0  0  0  0  0  0
    1.3500   35.0129   52.8453 C   0  0  0  0  0  0  0  0  0  0  0  0
    0.0932   35.2948   53.3649 C   0  0  0  0  0  0  0  0  0  0  0  0
   -0.9882   35.1774   52.5828 F   0  0  0  0  0  0  0  0  0  0  0  0
   -0.0555   35.6994   54.6816 C   0  0  0  0  0  0  0  0  0  0  0  0
    1.0776   35.8166   55.4921 C   0  0  0  0  0  0  0  0  0  0  0  0
    2.3506   35.5336   55.0111 C   0  0  0  0  0  0  0  0  0  0  0  0
    3.4070   35.6583   55.8298 N   0  0  0  0  0  0  0  0  0  0  0  0
 12 13  1  0
 13 14  2  0
 14 15  1  0
 15 16  1  0
 15 17  2  0
 17 11  1  0
 11  9  1  0
  9  1  1  0
  1  2  2  0
  2  3  1  0
  3 19  1  0
 19 20  1  0
 20 21  1  0
 21 22  1  0
 22 23  1  0
 23 24  2  0
 24 25  1  0
 25 26  2  0
 26 27  1  0
 27 28  2  0
 28 29  1  0
 28 30  1  0
 30 31  2  0
 31 32  1  0
 32 33  2  0
  3  4  2  0
  4  5  1  0
  5  6  1  0
  5  7  2  0
  7  8  1  0
 17 18  1  0
 18 13  1  0
  7  1  1  0
 33 23  1  0
 32 26  1  0
  9 10  1  0
M  END
> <minimizedAffinity>
-8.95912

> <CNNscore>
0.8991235495

> <CNNaffinity>
8.5994920731

> <CNN_VS>
7.7320060730

> <CNNaffinity_variance>
0.2227386087

$$$$



 33 36  0  0  0  0  0  0  0  0999 V2000
    8.3155   38.2589   59.8412 C   0  0  0  0  0  0  0  0  0  0  0  0
    7.3233   38.0346   58.9647 N   0  0  0  0  0  0  0  0  0  0  0  0
    6.2661   37.3259   59.3835 C   0  0  0  0  0  0  0  0  0  0  0  0
    6.1151   36.8106   60.5973 N   0  0  0  0  0  0  0  0  0  0  0  0
    7.1297   37.0435   61.4386 C   0  0  0  0  0  0  0  0  0  0  0  0
    6.8420   36.3768   63.0049 Cl  0  0  0  0  0  0  0  0  0  0  0  0
    8.2840   37.7434   61.1289 C   0  0  0  0  0  0  0  0  0  0  0  0
    9.3840   37.9650   62.1205 C   0  0  0  0  0  0  0  0  0  0  0  0
    9.4293   39.0025   59.4220 N   0  0  0  0  0  0  0  0  0  0  0  0
   10.2678   38.5747   59.1336 H   0  0  0  0  0  0  0  0  0  0  0  0
    9.2617   40.4548   59.4420 C   0  0  0  0  0  0  0  0  0  0  0  0
   13.2171   43.2403   57.2321 C   0  0  0  0  0  0  0  0  0  0  0  0
   12.3451   42.4491   58.1424 C   0  0  0  0  0  0  0  0  0  0  0  0
   12.6825   42.0807   59.3587 N   0  0  0  0  0  0  0  0  0  0  0  0
   11.6548   41.3566   59.9430 C   0  0  0  0  0  0  0  0  0  0  0  0
   11.8429   40.8569   61.3317 C   0  0  0  0  0  0  0  0  0  0  0  0
   10.5364   41.1839   59.1421 C   0  0  0  0  0  0  0  0  0  0  0  0
   10.7814   41.9594   57.6321 S   0  0  0  0  0  0  0  0  0  0  0  0
    5.2503   37.0389   58.5020 O   0  0  0  0  0  0  0  0  0  0  0  0
    5.3852   35.7805   57.8441 C   0  0  0  0  0  0  0  0  0  0  0  0
    5.7246   35.9417   56.3592 C   0  0  0  0  0  0  0  0  0  0  0  0
    5.5440   34.6636   55.5360 C   0  0  0  0  0  0  0  0  0  0  0  0
    4.2949   34.6784   54.6916 C   0  0  0  0  0  0  0  0  0  0  0  0
    3.1819   35.4132   55.0816 C   0  0  0  0  0  0  0  0  0  0  0  0
    2.0455   35.3766   54.2812 C   0  0  0  0  0  0  0  0  0  0  0  0
    2.0450   34.6082   53.1108 C   0  0  0  0  0  0  0  0  0  0  0  0
    0.9230   34.5446   52.2680 C   0  0  0  0  0  0  0  0  0  0  0  0
    0.9695   33.7668   51.1182 C   0  0  0  0  0  0  0  0  0  0  0  0
   -0.0996   33.7112   50.3128 F   0  0  0  0  0  0  0  0  0  0  0  0
    2.1072   33.0448   50.7959 C   0  0  0  0  0  0  0  0  0  0  0  0
    3.2197   33.1106   51.6400 C   0  0  0  0  0  0  0  0  0  0  0  0
    3.2148   33.8858   52.7937 C   0  0  0  0  0  0  0  0  0  0  0  0
    4.3093   33.9183   53.5701 N   0  0  0  0  0  0  0  0  0  0  0  0
 12 13  1  0
 13 14  2  0
 14 15  1  0
 15 16  1  0
 15 17  2  0
 17 11  1  0
 11  9  1  0
  9  1  1  0
  1  2  2  0
  2  3  1  0
  3 19  1  0
 19 20  1  0
 20 21  1  0
 21 22  1  0
 22 23  1  0
 23 24  2  0
 24 25  1  0
 25 26  2  0
 26 27  1  0
 27 28  2  0
 28 29  1  0
 28 30  1  0
 30 31  2  0
 31 32  1  0
 32 33  2  0
  3  4  2  0
  4  5  1  0
  5  6  1  0
  5  7  2  0
  7  8  1  0
 17 18  1  0
 18 13  1  0
  7  1  1  0
 33 23  1  0
 32 26  1  0
  9 10  1  0
M  END
> <minimizedAffinity>
-8.88666

> <CNNscore>
0.8573132157

> <CNNaffinity>
8.3781538010

> <CNN_VS>
7.1827020645

> <CNNaffinity_variance>
0.0656159893

$$$$



 33 36  0  0  0  0  0  0  0  0999 V2000
    9.1510   38.6767   59.4955 C   0  0  0  0  0  0  0  0  0  0  0  0
    8.5525   38.4160   58.3220 N   0  0  0  0  0  0  0  0  0  0  0  0
    7.4521   37.6518   58.3366 C   0  0  0  0  0  0  0  0  0  0  0  0
    6.9007   37.1144   59.4177 N   0  0  0  0  0  0  0  0  0  0  0  0
    7.5323   37.3852   60.5663 C   0  0  0  0  0  0  0  0  0  0  0  0
    6.7344   36.6855   61.9280 Cl  0  0  0  0  0  0  0  0  0  0  0  0
    8.6845   38.1438   60.6885 C   0  0  0  0  0  0  0  0  0  0  0  0
    9.3422   38.4055   62.0081 C   0  0  0  0  0  0  0  0  0  0  0  0
   10.3027   39.4784   59.5008 N   0  0  0  0  0  0  0  0  0  0  0  0
   10.5526   40.0333   60.2747 H   0  0  0  0  0  0  0  0  0  0  0  0
   11.1069   39.4350   58.2805 C   0  0  0  0  0  0  0  0  0  0  0  0
   12.8887   44.2962   57.0637 C   0  0  0  0  0  0  0  0  0  0  0  0
   12.7404   42.8905   57.5296 C   0  0  0  0  0  0  0  0  0  0  0  0
   13.7068   42.1824   58.0713 N   0  0  0  0  0  0  0  0  0  0  0  0
   13.2492   40.9144   58.3945 C   0  0  0  0  0  0  0  0  0  0  0  0
   14.1982   39.9611   59.0303 C   0  0  0  0  0  0  0  0  0  0  0  0
   11.9187   40.6793   58.0834 C   0  0  0  0  0  0  0  0  0  0  0  0
   11.2314   42.0861   57.3837 S   0  0  0  0  0  0  0  0  0  0  0  0
    6.8364   37.3274   57.1504 O   0  0  0  0  0  0  0  0  0  0  0  0
    5.4784   36.9142   57.2904 C   0  0  0  0  0  0  0  0  0  0  0  0
    5.2937   35.4282   56.9679 C   0  0  0  0  0  0  0  0  0  0  0  0
    5.0888   35.1340   55.4795 C   0  0  0  0  0  0  0  0  0  0  0  0
    6.2036   34.3130   54.8824 C   0  0  0  0  0  0  0  0  0  0  0  0
    6.0532   32.9456   54.6867 C   0  0  0  0  0  0  0  0  0  0  0  0
    7.1183   32.2277   54.1543 C   0  0  0  0  0  0  0  0  0  0  0  0
    8.3086   32.8895   53.8296 C   0  0  0  0  0  0  0  0  0  0  0  0
    9.4092   32.2078   53.2846 C   0  0  0  0  0  0  0  0  0  0  0  0
   10.5699   32.9073   52.9804 C   0  0  0  0  0  0  0  0  0  0  0  0
   11.6170   32.2566   52.4560 F   0  0  0  0  0  0  0  0  0  0  0  0
   10.6592   34.2697   53.2160 C   0  0  0  0  0  0  0  0  0  0  0  0
    9.5610   34.9420   53.7607 C   0  0  0  0  0  0  0  0  0  0  0  0
    8.3793   34.2783   54.0687 C   0  0  0  0  0  0  0  0  0  0  0  0
    7.3518   34.9690   54.5873 N   0  0  0  0  0  0  0  0  0  0  0  0
 12 13  1  0
 13 14  2  0
 14 15  1  0
 15 16  1  0
 15 17  2  0
 17 11  1  0
 11  9  1  0
  9  1  1  0
  1  2  2  0
  2  3  1  0
  3 19  1  0
 19 20  1  0
 20 21  1  0
 21 22  1  0
 22 23  1  0
 23 24  2  0
 24 25  1  0
 25 26  2  0
 26 27  1  0
 27 28  2  0
 28 29  1  0
 28 30  1  0
 30 31  2  0
 31 32  1  0
 32 33  2  0
  3  4  2  0
  4  5  1  0
  5  6  1  0
  5  7  2  0
  7  8  1  0
 17 18  1  0
 18 13  1  0
  7  1  1  0
 33 23  1  0
 32 26  1  0
  9 10  1  0
M  END
> <minimizedAffinity>
-8.60123

> <CNNscore>
0.8507038355

> <CNNaffinity>
8.4701452255

> <CNN_VS>
7.2055850029

> <CNNaffinity_variance>
0.1795807630

$$$$



 33 36  0  0  0  0  0  0  0  0999 V2000
    8.3220   38.5586   59.8819 C   0  0  0  0  0  0  0  0  0  0  0  0
    7.5285   38.3306   58.8229 N   0  0  0  0  0  0  0  0  0  0  0  0
    6.5641   37.4092   58.9500 C   0  0  0  0  0  0  0  0  0  0  0  0
    6.3272   36.6859   60.0374 N   0  0  0  0  0  0  0  0  0  0  0  0
    7.1463   36.9315   61.0671 C   0  0  0  0  0  0  0  0  0  0  0  0
    6.7506   35.9821   62.4537 Cl  0  0  0  0  0  0  0  0  0  0  0  0
    8.1904   37.8414   61.0622 C   0  0  0  0  0  0  0  0  0  0  0  0
    9.0720   38.0645   62.2518 C   0  0  0  0  0  0  0  0  0  0  0  0
    9.3355   39.5227   59.7690 N   0  0  0  0  0  0  0  0  0  0  0  0
    9.2196   40.4462   60.0898 H   0  0  0  0  0  0  0  0  0  0  0  0
   10.5749   39.0646   59.1432 C   0  0  0  0  0  0  0  0  0  0  0  0
   14.1278   42.6785   57.5297 C   0  0  0  0  0  0  0  0  0  0  0  0
   13.2268   41.7964   58.3204 C   0  0  0  0  0  0  0  0  0  0  0  0
   13.1442   41.8051   59.6327 N   0  0  0  0  0  0  0  0  0  0  0  0
   12.2172   40.8676   60.0612 C   0  0  0  0  0  0  0  0  0  0  0  0
   11.9727   40.7320   61.5224 C   0  0  0  0  0  0  0  0  0  0  0  0
   11.6041   40.1497   59.0459 C   0  0  0  0  0  0  0  0  0  0  0  0
   12.1981   40.6761   57.5256 S   0  0  0  0  0  0  0  0  0  0  0  0
    5.7595   37.1173   57.8736 O   0  0  0  0  0  0  0  0  0  0  0  0
    6.4342   36.4656   56.7991 C   0  0  0  0  0  0  0  0  0  0  0  0
    7.3731   37.4156   56.0495 C   0  0  0  0  0  0  0  0  0  0  0  0
    8.3476   36.7104   55.1023 C   0  0  0  0  0  0  0  0  0  0  0  0
    9.4270   37.6245   54.5801 C   0  0  0  0  0  0  0  0  0  0  0  0
    9.3922   38.9884   54.8432 C   0  0  0  0  0  0  0  0  0  0  0  0
   10.3980   39.7936   54.3204 C   0  0  0  0  0  0  0  0  0  0  0  0
   11.4149   39.2205   53.5472 C   0  0  0  0  0  0  0  0  0  0  0  0
   12.4546   39.9923   53.0027 C   0  0  0  0  0  0  0  0  0  0  0  0
   13.4403   39.3788   52.2404 C   0  0  0  0  0  0  0  0  0  0  0  0
   14.4340   40.1155   51.7260 F   0  0  0  0  0  0  0  0  0  0  0  0
   13.4064   38.0143   52.0027 C   0  0  0  0  0  0  0  0  0  0  0  0
   12.3677   37.2521   52.5455 C   0  0  0  0  0  0  0  0  0  0  0  0
   11.3691   37.8284   53.3218 C   0  0  0  0  0  0  0  0  0  0  0  0
   10.3947   37.0532   53.8233 N   0  0  0  0  0  0  0  0  0  0  0  0
 12 13  1  0
 13 14  2  0
 14 15  1  0
 15 16  1  0
 15 17  2  0
 17 11  1  0
 11  9  1  0
  9  1  1  0
  1  2  2  0
  2  3  1  0
  3 19  1  0
 19 20  1  0
 20 21  1  0
 21 22  1  0
 22 23  1  0
 23 24  2  0
 24 25  1  0
 25 26  2  0
 26 27  1  0
 27 28  2  0
 28 29  1  0
 28 30  1  0
 30 31  2  0
 31 32  1  0
 32 33  2  0
  3  4  2  0
  4  5  1  0
  5  6  1  0
  5  7  2  0
  7  8  1  0
 17 18  1  0
 18 13  1  0
  7  1  1  0
 33 23  1  0
 32 26  1  0
  9 10  1  0
M  END
> <minimizedAffinity>
-8.04654

> <CNNscore>
0.8415536880

> <CNNaffinity>
8.5848741531

> <CNN_VS>
7.2246327400

> <CNNaffinity_variance>
0.0868352279

$$$$



 33 36  0  0  0  0  0  0  0  0999 V2000
    8.1532   38.3045   59.3707 C   0  0  0  0  0  0  0  0  0  0  0  0
    7.1232   38.0111   58.5608 N   0  0  0  0  0  0  0  0  0  0  0  0
    6.1189   37.2810   59.0644 C   0  0  0  0  0  0  0  0  0  0  0  0
    6.0555   36.8073   60.3026 N   0  0  0  0  0  0  0  0  0  0  0  0
    7.1056   37.1087   61.0758 C   0  0  0  0  0  0  0  0  0  0  0  0
    6.9311   36.4923   62.6790 Cl  0  0  0  0  0  0  0  0  0  0  0  0
    8.2132   37.8377   60.6759 C   0  0  0  0  0  0  0  0  0  0  0  0
    9.3573   38.1366   61.5945 C   0  0  0  0  0  0  0  0  0  0  0  0
    9.2127   39.0714   58.8622 N   0  0  0  0  0  0  0  0  0  0  0  0
    9.9994   38.6619   58.4349 H   0  0  0  0  0  0  0  0  0  0  0  0
    9.0706   40.5191   59.0092 C   0  0  0  0  0  0  0  0  0  0  0  0
   14.0432   42.3552   58.5738 C   0  0  0  0  0  0  0  0  0  0  0  0
   12.5825   42.1044   58.4377 C   0  0  0  0  0  0  0  0  0  0  0  0
   11.7846   42.7802   57.6405 N   0  0  0  0  0  0  0  0  0  0  0  0
   10.4865   42.3052   57.7458 C   0  0  0  0  0  0  0  0  0  0  0  0
    9.4318   42.9393   56.9098 C   0  0  0  0  0  0  0  0  0  0  0  0
   10.3207   41.2591   58.6404 C   0  0  0  0  0  0  0  0  0  0  0  0
   11.8303   40.8604   59.3499 S   0  0  0  0  0  0  0  0  0  0  0  0
    5.0674   36.9240   58.2531 O   0  0  0  0  0  0  0  0  0  0  0  0
    5.2068   35.6407   57.6462 C   0  0  0  0  0  0  0  0  0  0  0  0
    5.0608   35.7064   56.1229 C   0  0  0  0  0  0  0  0  0  0  0  0
    5.9166   34.6844   55.3699 C   0  0  0  0  0  0  0  0  0  0  0  0
    7.2363   35.2480   54.9072 C   0  0  0  0  0  0  0  0  0  0  0  0
    7.6052   36.5488   55.2274 C   0  0  0  0  0  0  0  0  0  0  0  0
    8.8219   37.0310   54.7581 C   0  0  0  0  0  0  0  0  0  0  0  0
    9.6427   36.2052   53.9802 C   0  0  0  0  0  0  0  0  0  0  0  0
   10.8824   36.6461   53.4885 C   0  0  0  0  0  0  0  0  0  0  0  0
   11.6608   35.7910   52.7192 C   0  0  0  0  0  0  0  0  0  0  0  0
   12.8452   36.2112   52.2551 F   0  0  0  0  0  0  0  0  0  0  0  0
   11.2255   34.5094   52.4229 C   0  0  0  0  0  0  0  0  0  0  0  0
    9.9897   34.0775   52.9135 C   0  0  0  0  0  0  0  0  0  0  0  0
    9.1874   34.9006   53.6949 C   0  0  0  0  0  0  0  0  0  0  0  0
    8.0102   34.4383   54.1448 N   0  0  0  0  0  0  0  0  0  0  0  0
 12 13  1  0
 13 14  2  0
 14 15  1  0
 15 16  1  0
 15 17  2  0
 17 11  1  0
 11  9  1  0
  9  1  1  0
  1  2  2  0
  2  3  1  0
  3 19  1  0
 19 20  1  0
 20 21  1  0
 21 22  1  0
 22 23  1  0
 23 24  2  0
 24 25  1  0
 25 26  2  0
 26 27  1  0
 27 28  2  0
 28 29  1  0
 28 30  1  0
 30 31  2  0
 31 32  1  0
 32 33  2  0
  3  4  2  0
  4  5  1  0
  5  6  1  0
  5  7  2  0
  7  8  1  0
 17 18  1  0
 18 13  1  0
  7  1  1  0
 33 23  1  0
 32 26  1  0
  9 10  1  0
M  END
> <minimizedAffinity>
-8.17224

> <CNNscore>
0.8075530529

> <CNNaffinity>
8.4624586105

> <CNN_VS>
6.8338842392

> <CNNaffinity_variance>
0.0623857379

$$$$
