


 20 20  0  0  0  0  0  0  0  0999 V2000
   -0.8855   -5.1442   -6.6292 S   0  0  0  0  0  0  0  0  0  0  0  0
   -0.2892   -4.9018   -7.9233 O   0  0  0  0  0  0  0  0  0  0  0  0
   -0.3242   -6.0939   -5.6954 O   0  0  0  0  0  0  0  0  0  0  0  0
   -5.2691   -6.2945   -7.2687 C   0  0  0  0  0  0  0  0  0  0  0  0
   -4.7959   -5.9778   -5.9897 C   0  0  0  0  0  0  0  0  0  0  0  0
   -3.4555   -5.6293   -5.7955 C   0  0  0  0  0  0  0  0  0  0  0  0
   -2.5844   -5.5870   -6.8862 C   0  0  0  0  0  0  0  0  0  0  0  0
   -3.0300   -5.9229   -8.1645 C   0  0  0  0  0  0  0  0  0  0  0  0
   -4.3709   -6.2647   -8.3513 C   0  0  0  0  0  0  0  0  0  0  0  0
   -4.8874   -6.6401   -9.9590 Cl  0  0  0  0  0  0  0  0  0  0  0  0
   -6.7942   -7.8370   -8.2725 C   0  0  0  0  0  0  0  0  0  0  0  0
   -6.5664   -6.6323   -7.5531 O   0  0  0  0  0  0  0  0  0  0  0  0
   -0.9788   -3.6768   -5.8244 N   0  0  0  0  0  0  0  0  0  0  0  0
   -1.9399   -3.3476   -5.9156 H   0  0  0  0  0  0  0  0  0  0  0  0
   -0.6371   -3.6190   -4.3867 C   0  0  0  0  0  0  0  0  0  0  0  0
   -0.7390   -5.0252   -3.8138 C   0  0  0  0  0  0  0  0  0  0  0  0
   -1.6151   -2.7054   -3.6651 C   0  0  0  0  0  0  0  0  0  0  0  0
   -1.4723   -2.2492   -2.5400 O   0  0  0  0  0  0  0  0  0  0  0  0
   -2.7117   -2.4194   -4.3914 O   0  0  0  0  0  0  0  0  0  0  0  0
   -2.8093   -2.7754   -5.2526 H   0  0  0  0  0  0  0  0  0  0  0  0
 11 12  1  0
 12  4  1  0
  4  5  2  0
  5  6  1  0
  6  7  2  0
  7  1  1  0
  1  2  2  0
  1  3  2  0
  1 13  1  0
 13 15  1  0
 15 16  1  0
 15 17  1  0
 17 18  2  0
 17 19  1  0
  7  8  1  0
  8  9  2  0
  9 10  1  0
  9  4  1  0
 13 14  1  0
 19 20  1  0
M  END
> <minimizedAffinity>
-7.79016

> <CNNscore>
0.9622552991

> <CNNaffinity>
5.7844429016

> <CNN_VS>
5.5661106110

> <CNNaffinity_variance>
0.0943450704

$$$$



 20 20  0  0  0  0  0  0  0  0999 V2000
   -1.1699   -5.7887   -4.7164 S   0  0  0  0  0  0  0  0  0  0  0  0
    0.2191   -5.7922   -5.1160 O   0  0  0  0  0  0  0  0  0  0  0  0
   -1.7000   -6.7611   -3.7878 O   0  0  0  0  0  0  0  0  0  0  0  0
   -3.7088   -5.9522   -8.5210 C   0  0  0  0  0  0  0  0  0  0  0  0
   -2.3365   -5.6842   -8.5924 C   0  0  0  0  0  0  0  0  0  0  0  0
   -1.5626   -5.6317   -7.4286 C   0  0  0  0  0  0  0  0  0  0  0  0
   -2.1604   -5.8580   -6.1870 C   0  0  0  0  0  0  0  0  0  0  0  0
   -3.5303   -6.1021   -6.0921 C   0  0  0  0  0  0  0  0  0  0  0  0
   -4.2954   -6.1582   -7.2589 C   0  0  0  0  0  0  0  0  0  0  0  0
   -5.9837   -6.4981   -7.0964 Cl  0  0  0  0  0  0  0  0  0  0  0  0
   -5.3401   -7.2035   -9.7401 C   0  0  0  0  0  0  0  0  0  0  0  0
   -4.5392   -6.0365   -9.6080 O   0  0  0  0  0  0  0  0  0  0  0  0
   -1.5166   -4.2774   -4.0794 N   0  0  0  0  0  0  0  0  0  0  0  0
   -1.4933   -4.3697   -3.0638 H   0  0  0  0  0  0  0  0  0  0  0  0
   -0.6507   -3.1307   -4.4289 C   0  0  0  0  0  0  0  0  0  0  0  0
    0.1217   -2.7176   -3.1845 C   0  0  0  0  0  0  0  0  0  0  0  0
   -1.5084   -1.9681   -4.9025 C   0  0  0  0  0  0  0  0  0  0  0  0
   -1.1273   -1.0283   -5.5850 O   0  0  0  0  0  0  0  0  0  0  0  0
   -2.7882   -2.0490   -4.4933 O   0  0  0  0  0  0  0  0  0  0  0  0
   -3.0679   -2.7746   -3.9704 H   0  0  0  0  0  0  0  0  0  0  0  0
 11 12  1  0
 12  4  1  0
  4  5  2  0
  5  6  1  0
  6  7  2  0
  7  1  1  0
  1  2  2  0
  1  3  2  0
  1 13  1  0
 13 15  1  0
 15 16  1  0
 15 17  1  0
 17 18  2  0
 17 19  1  0
  7  8  1  0
  8  9  2  0
  9 10  1  0
  9  4  1  0
 13 14  1  0
 19 20  1  0
M  END
> <minimizedAffinity>
-7.23622

> <CNNscore>
0.7778171301

> <CNNaffinity>
5.4001464844

> <CNN_VS>
4.2003264427

> <CNNaffinity_variance>
0.4317049086

$$$$



 20 20  0  0  0  0  0  0  0  0999 V2000
   -1.8137   -5.4144   -6.6912 S   0  0  0  0  0  0  0  0  0  0  0  0
   -0.7662   -4.9519   -7.5731 O   0  0  0  0  0  0  0  0  0  0  0  0
   -1.5898   -6.4654   -5.7246 O   0  0  0  0  0  0  0  0  0  0  0  0
   -5.3721   -6.6420   -9.2950 C   0  0  0  0  0  0  0  0  0  0  0  0
   -4.1296   -6.3599   -9.8753 C   0  0  0  0  0  0  0  0  0  0  0  0
   -3.0440   -5.9821   -9.0785 C   0  0  0  0  0  0  0  0  0  0  0  0
   -3.1970   -5.8951   -7.6932 C   0  0  0  0  0  0  0  0  0  0  0  0
   -4.4327   -6.1478   -7.0978 C   0  0  0  0  0  0  0  0  0  0  0  0
   -5.5105   -6.5297   -7.8993 C   0  0  0  0  0  0  0  0  0  0  0  0
   -7.0148   -6.8669   -7.1147 Cl  0  0  0  0  0  0  0  0  0  0  0  0
   -6.6968   -8.4259  -10.1755 C   0  0  0  0  0  0  0  0  0  0  0  0
   -6.4835   -7.0321   -9.9953 O   0  0  0  0  0  0  0  0  0  0  0  0
   -2.3873   -4.0908   -5.8376 N   0  0  0  0  0  0  0  0  0  0  0  0
   -3.1896   -4.4110   -5.2952 H   0  0  0  0  0  0  0  0  0  0  0  0
   -1.4838   -3.3899   -4.8997 C   0  0  0  0  0  0  0  0  0  0  0  0
   -1.8059   -3.8554   -3.4871 C   0  0  0  0  0  0  0  0  0  0  0  0
   -1.7052   -1.8892   -5.0018 C   0  0  0  0  0  0  0  0  0  0  0  0
   -0.9330   -1.0835   -5.5006 O   0  0  0  0  0  0  0  0  0  0  0  0
   -2.8758   -1.4863   -4.4732 O   0  0  0  0  0  0  0  0  0  0  0  0
   -3.4591   -2.1138   -4.0937 H   0  0  0  0  0  0  0  0  0  0  0  0
 11 12  1  0
 12  4  1  0
  4  5  2  0
  5  6  1  0
  6  7  2  0
  7  1  1  0
  1  2  2  0
  1  3  2  0
  1 13  1  0
 13 15  1  0
 15 16  1  0
 15 17  1  0
 17 18  2  0
 17 19  1  0
  7  8  1  0
  8  9  2  0
  9 10  1  0
  9  4  1  0
 13 14  1  0
 19 20  1  0
M  END
> <minimizedAffinity>
-7.89326

> <CNNscore>
0.7258635759

> <CNNaffinity>
5.3808302879

> <CNN_VS>
3.9057486057

> <CNNaffinity_variance>
0.1485992521

$$$$



 20 20  0  0  0  0  0  0  0  0999 V2000
   -3.1642   -5.7210   -8.2191 S   0  0  0  0  0  0  0  0  0  0  0  0
   -2.9861   -4.5663   -9.0699 O   0  0  0  0  0  0  0  0  0  0  0  0
   -2.1571   -6.7519   -8.1098 O   0  0  0  0  0  0  0  0  0  0  0  0
   -7.0884   -7.7419   -9.4295 C   0  0  0  0  0  0  0  0  0  0  0  0
   -6.0688   -7.5476  -10.3690 C   0  0  0  0  0  0  0  0  0  0  0  0
   -4.8714   -6.9274   -9.9983 C   0  0  0  0  0  0  0  0  0  0  0  0
   -4.6868   -6.5074   -8.6792 C   0  0  0  0  0  0  0  0  0  0  0  0
   -5.6996   -6.6693   -7.7340 C   0  0  0  0  0  0  0  0  0  0  0  0
   -6.8902   -7.2942   -8.1104 C   0  0  0  0  0  0  0  0  0  0  0  0
   -8.1049   -7.5050   -6.8970 Cl  0  0  0  0  0  0  0  0  0  0  0  0
   -9.4426   -7.8630   -9.0346 C   0  0  0  0  0  0  0  0  0  0  0  0
   -8.2855   -8.3516   -9.7003 O   0  0  0  0  0  0  0  0  0  0  0  0
   -3.4599   -5.1713   -6.6634 N   0  0  0  0  0  0  0  0  0  0  0  0
   -4.0623   -5.8605   -6.2133 H   0  0  0  0  0  0  0  0  0  0  0  0
   -2.3192   -4.9344   -5.7525 C   0  0  0  0  0  0  0  0  0  0  0  0
   -2.2419   -6.0946   -4.7706 C   0  0  0  0  0  0  0  0  0  0  0  0
   -2.5355   -3.6376   -4.9889 C   0  0  0  0  0  0  0  0  0  0  0  0
   -3.1125   -3.5251   -3.9171 O   0  0  0  0  0  0  0  0  0  0  0  0
   -2.0201   -2.5609   -5.6111 O   0  0  0  0  0  0  0  0  0  0  0  0
   -1.5801   -2.6603   -6.4323 H   0  0  0  0  0  0  0  0  0  0  0  0
 11 12  1  0
 12  4  1  0
  4  5  2  0
  5  6  1  0
  6  7  2  0
  7  1  1  0
  1  2  2  0
  1  3  2  0
  1 13  1  0
 13 15  1  0
 15 16  1  0
 15 17  1  0
 17 18  2  0
 17 19  1  0
  7  8  1  0
  8  9  2  0
  9 10  1  0
  9  4  1  0
 13 14  1  0
 19 20  1  0
M  END
> <minimizedAffinity>
-6.83751

> <CNNscore>
0.6488915682

> <CNNaffinity>
4.9379506111

> <CNN_VS>
3.2041945457

> <CNNaffinity_variance>
0.2995086908

$$$$



 20 20  0  0  0  0  0  0  0  0999 V2000
    0.2605   -1.1684   -1.1903 S   0  0  0  0  0  0  0  0  0  0  0  0
    0.0014    0.1875   -0.7623 O   0  0  0  0  0  0  0  0  0  0  0  0
   -0.4605   -2.2939   -0.6404 O   0  0  0  0  0  0  0  0  0  0  0  0
    4.7272   -1.9822   -0.6115 C   0  0  0  0  0  0  0  0  0  0  0  0
    3.8379   -2.0968    0.4637 C   0  0  0  0  0  0  0  0  0  0  0  0
    2.4737   -1.8450    0.2859 C   0  0  0  0  0  0  0  0  0  0  0  0
    1.9929   -1.4863   -0.9752 C   0  0  0  0  0  0  0  0  0  0  0  0
    2.8656   -1.3425   -2.0536 C   0  0  0  0  0  0  0  0  0  0  0  0
    4.2255   -1.6008   -1.8695 C   0  0  0  0  0  0  0  0  0  0  0  0
    5.2658   -1.4436   -3.2426 Cl  0  0  0  0  0  0  0  0  0  0  0  0
    6.9056   -1.1781   -0.0452 C   0  0  0  0  0  0  0  0  0  0  0  0
    6.0739   -2.2231   -0.5320 O   0  0  0  0  0  0  0  0  0  0  0  0
    0.0525   -1.2304   -2.8525 N   0  0  0  0  0  0  0  0  0  0  0  0
    0.9767   -1.3617   -3.2636 H   0  0  0  0  0  0  0  0  0  0  0  0
   -0.8291   -2.2669   -3.4315 C   0  0  0  0  0  0  0  0  0  0  0  0
    0.0360   -3.4381   -3.8743 C   0  0  0  0  0  0  0  0  0  0  0  0
   -1.5660   -1.6980   -4.6336 C   0  0  0  0  0  0  0  0  0  0  0  0
   -1.0507   -1.1392   -5.5909 O   0  0  0  0  0  0  0  0  0  0  0  0
   -2.9006   -1.8598   -4.5656 O   0  0  0  0  0  0  0  0  0  0  0  0
   -3.2834   -2.2898   -3.8263 H   0  0  0  0  0  0  0  0  0  0  0  0
 11 12  1  0
 12  4  1  0
  4  5  2  0
  5  6  1  0
  6  7  2  0
  7  1  1  0
  1  2  2  0
  1  3  2  0
  1 13  1  0
 13 15  1  0
 15 16  1  0
 15 17  1  0
 17 18  2  0
 17 19  1  0
  7  8  1  0
  8  9  2  0
  9 10  1  0
  9  4  1  0
 13 14  1  0
 19 20  1  0
M  END
> <minimizedAffinity>
-5.12124

> <CNNscore>
0.6337969899

> <CNNaffinity>
4.4679660797

> <CNN_VS>
2.8317835331

> <CNNaffinity_variance>
0.4499284327

$$$$



 20 20  0  0  0  0  0  0  0  0999 V2000
   -6.9517   -7.7377   -9.6634 S   0  0  0  0  0  0  0  0  0  0  0  0
   -6.8337   -9.1373   -9.3227 O   0  0  0  0  0  0  0  0  0  0  0  0
   -7.1173   -7.2954  -11.0294 O   0  0  0  0  0  0  0  0  0  0  0  0
   -3.3001   -5.5680   -7.9584 C   0  0  0  0  0  0  0  0  0  0  0  0
   -3.3924   -5.8362   -9.3294 C   0  0  0  0  0  0  0  0  0  0  0  0
   -4.5076   -6.5018   -9.8484 C   0  0  0  0  0  0  0  0  0  0  0  0
   -5.5414   -6.8933   -8.9951 C   0  0  0  0  0  0  0  0  0  0  0  0
   -5.4575   -6.6577   -7.6229 C   0  0  0  0  0  0  0  0  0  0  0  0
   -4.3434   -5.9879   -7.1130 C   0  0  0  0  0  0  0  0  0  0  0  0
   -4.2977   -5.6865   -5.4102 Cl  0  0  0  0  0  0  0  0  0  0  0  0
   -1.1572   -5.6894   -6.9067 C   0  0  0  0  0  0  0  0  0  0  0  0
   -2.2537   -4.9102   -7.3665 O   0  0  0  0  0  0  0  0  0  0  0  0
   -8.2376   -7.1047   -8.7942 N   0  0  0  0  0  0  0  0  0  0  0  0
   -8.5497   -6.2695   -9.2897 H   0  0  0  0  0  0  0  0  0  0  0  0
   -9.4343   -7.9421   -8.5626 C   0  0  0  0  0  0  0  0  0  0  0  0
   -9.0120   -9.1717   -7.7716 C   0  0  0  0  0  0  0  0  0  0  0  0
  -10.0215   -8.3746   -9.8967 C   0  0  0  0  0  0  0  0  0  0  0  0
  -11.1036   -8.0294  -10.3486 O   0  0  0  0  0  0  0  0  0  0  0  0
   -9.2229   -9.2128  -10.5835 O   0  0  0  0  0  0  0  0  0  0  0  0
   -8.3958   -9.4699  -10.2262 H   0  0  0  0  0  0  0  0  0  0  0  0
 11 12  1  0
 12  4  1  0
  4  5  2  0
  5  6  1  0
  6  7  2  0
  7  1  1  0
  1  2  2  0
  1  3  2  0
  1 13  1  0
 13 15  1  0
 15 16  1  0
 15 17  1  0
 17 18  2  0
 17 19  1  0
  7  8  1  0
  8  9  2  0
  9 10  1  0
  9  4  1  0
 13 14  1  0
 19 20  1  0
M  END
> <minimizedAffinity>
-7.25679

> <CNNscore>
0.5810050368

> <CNNaffinity>
4.8761501312

> <CNN_VS>
2.8330678940

> <CNNaffinity_variance>
0.7474102378

$$$$



 20 20  0  0  0  0  0  0  0  0999 V2000
   -2.9881   -5.9328   -8.4257 S   0  0  0  0  0  0  0  0  0  0  0  0
   -2.9373   -4.5831   -8.9400 O   0  0  0  0  0  0  0  0  0  0  0  0
   -2.1948   -6.9979   -8.9959 O   0  0  0  0  0  0  0  0  0  0  0  0
   -7.3570   -7.2969   -8.4477 C   0  0  0  0  0  0  0  0  0  0  0  0
   -6.7636   -6.8291   -7.2691 C   0  0  0  0  0  0  0  0  0  0  0  0
   -5.4277   -6.4153   -7.2634 C   0  0  0  0  0  0  0  0  0  0  0  0
   -4.6825   -6.4595   -8.4436 C   0  0  0  0  0  0  0  0  0  0  0  0
   -5.2474   -6.9454   -9.6226 C   0  0  0  0  0  0  0  0  0  0  0  0
   -6.5834   -7.3517   -9.6217 C   0  0  0  0  0  0  0  0  0  0  0  0
   -7.2525   -7.9146  -11.1143 Cl  0  0  0  0  0  0  0  0  0  0  0  0
   -9.1293   -8.6593   -7.6018 C   0  0  0  0  0  0  0  0  0  0  0  0
   -8.6603   -7.7082   -8.5485 O   0  0  0  0  0  0  0  0  0  0  0  0
   -2.6116   -5.8743   -6.7933 N   0  0  0  0  0  0  0  0  0  0  0  0
   -3.1819   -6.5820   -6.3305 H   0  0  0  0  0  0  0  0  0  0  0  0
   -1.2136   -6.0992   -6.3665 C   0  0  0  0  0  0  0  0  0  0  0  0
   -1.2250   -7.0271   -5.1603 C   0  0  0  0  0  0  0  0  0  0  0  0
   -0.5775   -4.7734   -5.9801 C   0  0  0  0  0  0  0  0  0  0  0  0
   -1.1458   -3.6920   -5.9366 O   0  0  0  0  0  0  0  0  0  0  0  0
    0.7291   -4.8787   -5.6741 O   0  0  0  0  0  0  0  0  0  0  0  0
    1.1532   -5.7135   -5.7114 H   0  0  0  0  0  0  0  0  0  0  0  0
 11 12  1  0
 12  4  1  0
  4  5  2  0
  5  6  1  0
  6  7  2  0
  7  1  1  0
  1  2  2  0
  1  3  2  0
  1 13  1  0
 13 15  1  0
 15 16  1  0
 15 17  1  0
 17 18  2  0
 17 19  1  0
  7  8  1  0
  8  9  2  0
  9 10  1  0
  9  4  1  0
 13 14  1  0
 19 20  1  0
M  END
> <minimizedAffinity>
-7.45687

> <CNNscore>
0.5774616599

> <CNNaffinity>
4.2789649963

> <CNN_VS>
2.4709382057

> <CNNaffinity_variance>
0.6898283958

$$$$



 20 20  0  0  0  0  0  0  0  0999 V2000
   -7.1967   -8.0353   -9.8980 S   0  0  0  0  0  0  0  0  0  0  0  0
   -7.2685   -6.9067  -10.7979 O   0  0  0  0  0  0  0  0  0  0  0  0
   -6.4797   -9.2422  -10.2419 O   0  0  0  0  0  0  0  0  0  0  0  0
  -11.4671   -9.2520   -8.7881 C   0  0  0  0  0  0  0  0  0  0  0  0
  -10.4404   -9.3127   -7.8382 C   0  0  0  0  0  0  0  0  0  0  0  0
   -9.1355   -8.9433   -8.1798 C   0  0  0  0  0  0  0  0  0  0  0  0
   -8.8557   -8.5012   -9.4746 C   0  0  0  0  0  0  0  0  0  0  0  0
   -9.8591   -8.4570  -10.4423 C   0  0  0  0  0  0  0  0  0  0  0  0
  -11.1606   -8.8223  -10.0923 C   0  0  0  0  0  0  0  0  0  0  0  0
  -12.3799   -8.7189  -11.3151 Cl  0  0  0  0  0  0  0  0  0  0  0  0
  -13.1606  -10.9370   -8.7125 C   0  0  0  0  0  0  0  0  0  0  0  0
  -12.7740   -9.5802   -8.5383 O   0  0  0  0  0  0  0  0  0  0  0  0
   -6.5574   -7.4939   -8.4461 N   0  0  0  0  0  0  0  0  0  0  0  0
   -6.1453   -8.3032   -7.9818 H   0  0  0  0  0  0  0  0  0  0  0  0
   -5.5267   -6.4336   -8.4619 C   0  0  0  0  0  0  0  0  0  0  0  0
   -4.4840   -6.7955   -9.5097 C   0  0  0  0  0  0  0  0  0  0  0  0
   -4.8637   -6.3448   -7.0965 C   0  0  0  0  0  0  0  0  0  0  0  0
   -5.4353   -6.1476   -6.0341 O   0  0  0  0  0  0  0  0  0  0  0  0
   -3.5280   -6.5053   -7.1416 O   0  0  0  0  0  0  0  0  0  0  0  0
   -3.1016   -6.6558   -7.9623 H   0  0  0  0  0  0  0  0  0  0  0  0
 11 12  1  0
 12  4  1  0
  4  5  2  0
  5  6  1  0
  6  7  2  0
  7  1  1  0
  1  2  2  0
  1  3  2  0
  1 13  1  0
 13 15  1  0
 15 16  1  0
 15 17  1  0
 17 18  2  0
 17 19  1  0
  7  8  1  0
  8  9  2  0
  9 10  1  0
  9  4  1  0
 13 14  1  0
 19 20  1  0
M  END
> <minimizedAffinity>
-6.43908

> <CNNscore>
0.5522685051

> <CNNaffinity>
4.6551704407

> <CNN_VS>
2.5709040165

> <CNNaffinity_variance>
0.3413729668

$$$$



 20 20  0  0  0  0  0  0  0  0999 V2000
   -6.7969   -7.6519   -9.6680 S   0  0  0  0  0  0  0  0  0  0  0  0
   -6.5627   -9.0781   -9.6803 O   0  0  0  0  0  0  0  0  0  0  0  0
   -6.8043   -6.8686  -10.8826 O   0  0  0  0  0  0  0  0  0  0  0  0
   -3.7773   -5.7437   -6.8064 C   0  0  0  0  0  0  0  0  0  0  0  0
   -5.0616   -6.0818   -6.3636 C   0  0  0  0  0  0  0  0  0  0  0  0
   -5.9841   -6.6622   -7.2400 C   0  0  0  0  0  0  0  0  0  0  0  0
   -5.6190   -6.9157   -8.5639 C   0  0  0  0  0  0  0  0  0  0  0  0
   -4.3529   -6.5637   -9.0314 C   0  0  0  0  0  0  0  0  0  0  0  0
   -3.4356   -5.9895   -8.1490 C   0  0  0  0  0  0  0  0  0  0  0  0
   -1.8658   -5.6010   -8.7632 Cl  0  0  0  0  0  0  0  0  0  0  0  0
   -2.2036   -6.0108   -5.0274 C   0  0  0  0  0  0  0  0  0  0  0  0
   -2.8070   -5.1860   -6.0155 O   0  0  0  0  0  0  0  0  0  0  0  0
   -8.2681   -7.3801   -8.9120 N   0  0  0  0  0  0  0  0  0  0  0  0
   -8.8298   -6.8141   -9.5481 H   0  0  0  0  0  0  0  0  0  0  0  0
   -9.0996   -8.5364   -8.5139 C   0  0  0  0  0  0  0  0  0  0  0  0
  -10.3291   -8.5728   -9.4101 C   0  0  0  0  0  0  0  0  0  0  0  0
   -9.5329   -8.3797   -7.0650 C   0  0  0  0  0  0  0  0  0  0  0  0
  -10.1340   -9.2132   -6.4030 O   0  0  0  0  0  0  0  0  0  0  0  0
   -9.1911   -7.1916   -6.5323 O   0  0  0  0  0  0  0  0  0  0  0  0
   -8.7305   -6.5612   -7.0503 H   0  0  0  0  0  0  0  0  0  0  0  0
 11 12  1  0
 12  4  1  0
  4  5  2  0
  5  6  1  0
  6  7  2  0
  7  1  1  0
  1  2  2  0
  1  3  2  0
  1 13  1  0
 13 15  1  0
 15 16  1  0
 15 17  1  0
 17 18  2  0
 17 19  1  0
  7  8  1  0
  8  9  2  0
  9 10  1  0
  9  4  1  0
 13 14  1  0
 19 20  1  0
M  END
> <minimizedAffinity>
-7.64603

> <CNNscore>
0.4912318587

> <CNNaffinity>
4.8730368614

> <CNN_VS>
2.3937909603

> <CNNaffinity_variance>
0.8520317078

$$$$
