


 33 36  0  0  0  0  0  0  0  0999 V2000
   -7.5530  -22.8929   23.9255 C   0  0  0  0  0  0  0  0  0  0  0  0
   -6.4754  -22.3172   23.3536 N   0  0  0  0  0  0  0  0  0  0  0  0
   -6.6435  -21.3565   22.4075 C   0  0  0  0  0  0  0  0  0  0  0  0
   -7.9336  -20.9788   22.0417 C   0  0  0  0  0  0  0  0  0  0  0  0
   -8.4518  -20.0685   21.1457 N   0  0  0  0  0  0  0  0  0  0  0  0
   -9.7556  -20.1865   21.2663 C   0  0  0  0  0  0  0  0  0  0  0  0
  -10.6435  -19.4716   20.5603 F   0  0  0  0  0  0  0  0  0  0  0  0
  -10.1038  -21.1254   22.1953 N   0  0  0  0  0  0  0  0  0  0  0  0
   -8.9496  -21.6444   22.7009 C   0  0  0  0  0  0  0  0  0  0  0  0
   -8.8363  -22.5969   23.6337 N   0  0  0  0  0  0  0  0  0  0  0  0
  -11.0194  -21.3801   22.4522 H   0  0  0  0  0  0  0  0  0  0  0  0
   -7.4072  -23.8993   24.8796 N   0  0  0  0  0  0  0  0  0  0  0  0
   -8.1721  -23.9559   25.4968 H   0  0  0  0  0  0  0  0  0  0  0  0
   -4.3289  -26.6931   25.5722 C   0  0  0  0  0  0  0  0  0  0  0  0
   -5.0044  -26.1494   26.6632 C   0  0  0  0  0  0  0  0  0  0  0  0
   -6.0328  -25.2246   26.4471 C   0  0  0  0  0  0  0  0  0  0  0  0
   -6.4148  -24.8462   25.1542 C   0  0  0  0  0  0  0  0  0  0  0  0
   -5.7207  -25.4185   24.0727 C   0  0  0  0  0  0  0  0  0  0  0  0
   -4.6884  -26.3403   24.2722 C   0  0  0  0  0  0  0  0  0  0  0  0
   -3.6900  -28.8546   27.0126 N   0  0  0  0  0  0  0  0  0  0  0  0
   -3.0187  -27.8574   25.8325 S   0  0  0  0  0  0  0  0  0  0  0  0
   -2.8916  -28.6790   24.6506 O   0  0  0  0  0  0  0  0  0  0  0  0
   -1.8994  -27.1622   26.4220 O   0  0  0  0  0  0  0  0  0  0  0  0
   -3.0231  -29.5858   27.2594 H   0  0  0  0  0  0  0  0  0  0  0  0
   -4.5438  -29.2806   26.6523 H   0  0  0  0  0  0  0  0  0  0  0  0
   -5.5493  -20.7643   21.8091 O   0  0  0  0  0  0  0  0  0  0  0  0
   -4.3250  -20.9891   22.5085 C   0  0  0  0  0  0  0  0  0  0  0  0
   -3.3333  -21.6917   21.5649 C   0  0  0  0  0  0  0  0  0  0  0  0
   -4.0626  -22.6531   20.6067 C   0  0  0  0  0  0  0  0  0  0  0  0
   -4.3222  -22.0205   19.2447 C   0  0  0  0  0  0  0  0  0  0  0  0
   -3.0206  -21.6175   18.5489 C   0  0  0  0  0  0  0  0  0  0  0  0
   -1.9049  -21.2284   19.5202 C   0  0  0  0  0  0  0  0  0  0  0  0
   -2.4617  -20.6601   20.8190 C   0  0  0  0  0  0  0  0  0  0  0  0
 20 21  1  0
 21 22  2  0
 21 23  2  0
 21 14  1  0
 14 15  2  0
 15 16  1  0
 16 17  2  0
 17 12  1  0
 12  1  1  0
  1  2  2  0
  2  3  1  0
  3 26  1  0
 26 27  1  0
 27 28  1  0
 28 29  1  0
 29 30  1  0
 30 31  1  0
 31 32  1  0
 32 33  1  0
  3  4  2  0
  4  5  1  0
  5  6  2  0
  6  7  1  0
  6  8  1  0
  8  9  1  0
  9 10  2  0
 17 18  1  0
 18 19  2  0
 19 14  1  0
 10  1  1  0
 33 28  1  0
  9  4  1  0
 20 24  1  0
 20 25  1  0
 12 13  1  0
  8 11  1  0
M  END
> <minimizedAffinity>
-9.36565

> <CNNscore>
0.9710527062

> <CNNaffinity>
7.3810896873

> <CNN_VS>
7.1674270630

> <CNNaffinity_variance>
0.0477469228

$$$$



 33 36  0  0  0  0  0  0  0  0999 V2000
   -6.9416  -23.4898   23.6659 C   0  0  0  0  0  0  0  0  0  0  0  0
   -5.9575  -23.3667   22.7514 N   0  0  0  0  0  0  0  0  0  0  0  0
   -5.9459  -22.3006   21.9090 C   0  0  0  0  0  0  0  0  0  0  0  0
   -6.9559  -21.3458   22.0044 C   0  0  0  0  0  0  0  0  0  0  0  0
   -7.2428  -20.1784   21.3300 N   0  0  0  0  0  0  0  0  0  0  0  0
   -8.3427  -19.7294   21.8930 C   0  0  0  0  0  0  0  0  0  0  0  0
   -8.9682  -18.6013   21.5265 F   0  0  0  0  0  0  0  0  0  0  0  0
   -8.7783  -20.5473   22.8966 N   0  0  0  0  0  0  0  0  0  0  0  0
   -7.9032  -21.5885   22.9808 C   0  0  0  0  0  0  0  0  0  0  0  0
   -7.9608  -22.6214   23.8295 N   0  0  0  0  0  0  0  0  0  0  0  0
   -9.5769  -20.4099   23.4557 H   0  0  0  0  0  0  0  0  0  0  0  0
   -6.9903  -24.5877   24.5241 N   0  0  0  0  0  0  0  0  0  0  0  0
   -7.9088  -24.8941   24.7027 H   0  0  0  0  0  0  0  0  0  0  0  0
   -4.1912  -26.9151   26.6476 C   0  0  0  0  0  0  0  0  0  0  0  0
   -4.1744  -26.9447   25.2544 C   0  0  0  0  0  0  0  0  0  0  0  0
   -5.0950  -26.1720   24.5366 C   0  0  0  0  0  0  0  0  0  0  0  0
   -6.0233  -25.3504   25.1876 C   0  0  0  0  0  0  0  0  0  0  0  0
   -6.0103  -25.3346   26.5942 C   0  0  0  0  0  0  0  0  0  0  0  0
   -5.1001  -26.1039   27.3255 C   0  0  0  0  0  0  0  0  0  0  0  0
   -3.6449  -29.4470   27.3158 N   0  0  0  0  0  0  0  0  0  0  0  0
   -3.0377  -27.8960   27.5680 S   0  0  0  0  0  0  0  0  0  0  0  0
   -1.7609  -27.8599   26.8923 O   0  0  0  0  0  0  0  0  0  0  0  0
   -3.1867  -27.5828   28.9692 O   0  0  0  0  0  0  0  0  0  0  0  0
   -3.0592  -30.1249   27.8034 H   0  0  0  0  0  0  0  0  0  0  0  0
   -3.6449  -29.6538   26.3170 H   0  0  0  0  0  0  0  0  0  0  0  0
   -4.9488  -22.1663   20.9637 O   0  0  0  0  0  0  0  0  0  0  0  0
   -3.9379  -23.1706   21.0537 C   0  0  0  0  0  0  0  0  0  0  0  0
   -2.5691  -22.5273   20.7708 C   0  0  0  0  0  0  0  0  0  0  0  0
   -1.4863  -23.0849   21.7145 C   0  0  0  0  0  0  0  0  0  0  0  0
   -0.6723  -24.1965   21.0629 C   0  0  0  0  0  0  0  0  0  0  0  0
    0.0542  -23.7070   19.8085 C   0  0  0  0  0  0  0  0  0  0  0  0
   -0.6849  -22.5879   19.0732 C   0  0  0  0  0  0  0  0  0  0  0  0
   -2.1911  -22.6753   19.2824 C   0  0  0  0  0  0  0  0  0  0  0  0
 20 21  1  0
 21 22  2  0
 21 23  2  0
 21 14  1  0
 14 15  2  0
 15 16  1  0
 16 17  2  0
 17 12  1  0
 12  1  1  0
  1  2  2  0
  2  3  1  0
  3 26  1  0
 26 27  1  0
 27 28  1  0
 28 29  1  0
 29 30  1  0
 30 31  1  0
 31 32  1  0
 32 33  1  0
  3  4  2  0
  4  5  1  0
  5  6  2  0
  6  7  1  0
  6  8  1  0
  8  9  1  0
  9 10  2  0
 17 18  1  0
 18 19  2  0
 19 14  1  0
 10  1  1  0
 33 28  1  0
  9  4  1  0
 20 24  1  0
 20 25  1  0
 12 13  1  0
  8 11  1  0
M  END
> <minimizedAffinity>
-8.74833

> <CNNscore>
0.7608765364

> <CNNaffinity>
6.8874220848

> <CNN_VS>
5.2404780388

> <CNNaffinity_variance>
0.0217157546

$$$$



 33 36  0  0  0  0  0  0  0  0999 V2000
   -7.6979  -21.6462   22.2745 C   0  0  0  0  0  0  0  0  0  0  0  0
   -6.5784  -21.0999   21.7566 N   0  0  0  0  0  0  0  0  0  0  0  0
   -6.6682  -20.2333   20.7139 C   0  0  0  0  0  0  0  0  0  0  0  0
   -7.9223  -19.9206   20.1939 C   0  0  0  0  0  0  0  0  0  0  0  0
   -8.3646  -19.1078   19.1723 N   0  0  0  0  0  0  0  0  0  0  0  0
   -9.6721  -19.2447   19.1790 C   0  0  0  0  0  0  0  0  0  0  0  0
  -10.4978  -18.6177   18.3287 F   0  0  0  0  0  0  0  0  0  0  0  0
  -10.0948  -20.1031   20.1538 N   0  0  0  0  0  0  0  0  0  0  0  0
   -8.9875  -20.5470   20.8125 C   0  0  0  0  0  0  0  0  0  0  0  0
   -8.9511  -21.4079   21.8361 N   0  0  0  0  0  0  0  0  0  0  0  0
  -11.0272  -20.3546   20.3452 H   0  0  0  0  0  0  0  0  0  0  0  0
   -7.6304  -22.5580   23.3274 N   0  0  0  0  0  0  0  0  0  0  0  0
   -8.4133  -22.5145   23.9227 H   0  0  0  0  0  0  0  0  0  0  0  0
   -4.9442  -25.5437   24.6044 C   0  0  0  0  0  0  0  0  0  0  0  0
   -4.7413  -24.9390   23.3653 C   0  0  0  0  0  0  0  0  0  0  0  0
   -5.6227  -23.9419   22.9314 C   0  0  0  0  0  0  0  0  0  0  0  0
   -6.6967  -23.5209   23.7251 C   0  0  0  0  0  0  0  0  0  0  0  0
   -6.8708  -24.1433   24.9746 C   0  0  0  0  0  0  0  0  0  0  0  0
   -6.0016  -25.1438   25.4202 C   0  0  0  0  0  0  0  0  0  0  0  0
   -2.5201  -25.9048   25.6761 N   0  0  0  0  0  0  0  0  0  0  0  0
   -3.8412  -26.8141   25.1609 S   0  0  0  0  0  0  0  0  0  0  0  0
   -4.3942  -27.4133   26.3540 O   0  0  0  0  0  0  0  0  0  0  0  0
   -3.4266  -27.5927   24.0184 O   0  0  0  0  0  0  0  0  0  0  0  0
   -1.7946  -26.5289   26.0290 H   0  0  0  0  0  0  0  0  0  0  0  0
   -2.8131  -25.2698   26.4186 H   0  0  0  0  0  0  0  0  0  0  0  0
   -5.5300  -19.6726   20.1697 O   0  0  0  0  0  0  0  0  0  0  0  0
   -4.8678  -20.5216   19.2320 C   0  0  0  0  0  0  0  0  0  0  0  0
   -3.3943  -20.6714   19.6489 C   0  0  0  0  0  0  0  0  0  0  0  0
   -3.2577  -21.5564   20.9027 C   0  0  0  0  0  0  0  0  0  0  0  0
   -2.9096  -22.9986   20.5537 C   0  0  0  0  0  0  0  0  0  0  0  0
   -1.5785  -23.0958   19.8057 C   0  0  0  0  0  0  0  0  0  0  0  0
   -1.2683  -21.8664   18.9502 C   0  0  0  0  0  0  0  0  0  0  0  0
   -2.5399  -21.1797   18.4691 C   0  0  0  0  0  0  0  0  0  0  0  0
 20 21  1  0
 21 22  2  0
 21 23  2  0
 21 14  1  0
 14 15  2  0
 15 16  1  0
 16 17  2  0
 17 12  1  0
 12  1  1  0
  1  2  2  0
  2  3  1  0
  3 26  1  0
 26 27  1  0
 27 28  1  0
 28 29  1  0
 29 30  1  0
 30 31  1  0
 31 32  1  0
 32 33  1  0
  3  4  2  0
  4  5  1  0
  5  6  2  0
  6  7  1  0
  6  8  1  0
  8  9  1  0
  9 10  2  0
 17 18  1  0
 18 19  2  0
 19 14  1  0
 10  1  1  0
 33 28  1  0
  9  4  1  0
 20 24  1  0
 20 25  1  0
 12 13  1  0
  8 11  1  0
M  END
> <minimizedAffinity>
-8.77164

> <CNNscore>
0.6018117070

> <CNNaffinity>
7.1210217476

> <CNN_VS>
4.2855143547

> <CNNaffinity_variance>
0.0671892613

$$$$



 33 36  0  0  0  0  0  0  0  0999 V2000
   -6.5342  -24.8146   24.8398 C   0  0  0  0  0  0  0  0  0  0  0  0
   -5.6719  -24.9291   23.8087 N   0  0  0  0  0  0  0  0  0  0  0  0
   -4.5583  -25.6965   23.9398 C   0  0  0  0  0  0  0  0  0  0  0  0
   -4.3239  -26.3573   25.1437 C   0  0  0  0  0  0  0  0  0  0  0  0
   -3.3271  -27.1894   25.6060 N   0  0  0  0  0  0  0  0  0  0  0  0
   -3.6819  -27.4833   26.8373 C   0  0  0  0  0  0  0  0  0  0  0  0
   -2.9745  -28.2770   27.6543 F   0  0  0  0  0  0  0  0  0  0  0  0
   -4.8573  -26.8840   27.1913 N   0  0  0  0  0  0  0  0  0  0  0  0
   -5.2819  -26.1574   26.1194 C   0  0  0  0  0  0  0  0  0  0  0  0
   -6.3897  -25.4111   26.0410 N   0  0  0  0  0  0  0  0  0  0  0  0
   -5.3133  -26.9625   28.0603 H   0  0  0  0  0  0  0  0  0  0  0  0
   -7.6704  -24.0125   24.7393 N   0  0  0  0  0  0  0  0  0  0  0  0
   -8.3886  -24.2867   25.3544 H   0  0  0  0  0  0  0  0  0  0  0  0
   -8.5755  -20.7075   22.2861 C   0  0  0  0  0  0  0  0  0  0  0  0
   -9.6214  -21.4340   22.8520 C   0  0  0  0  0  0  0  0  0  0  0  0
   -9.3348  -22.5306   23.6734 C   0  0  0  0  0  0  0  0  0  0  0  0
   -8.0159  -22.9046   23.9581 C   0  0  0  0  0  0  0  0  0  0  0  0
   -6.9812  -22.1470   23.3798 C   0  0  0  0  0  0  0  0  0  0  0  0
   -7.2512  -21.0516   22.5538 C   0  0  0  0  0  0  0  0  0  0  0  0
   -7.7189  -19.4773   20.0706 N   0  0  0  0  0  0  0  0  0  0  0  0
   -8.9250  -19.3232   21.2365 S   0  0  0  0  0  0  0  0  0  0  0  0
  -10.1707  -19.5711   20.5474 O   0  0  0  0  0  0  0  0  0  0  0  0
   -8.6732  -18.1112   21.9790 O   0  0  0  0  0  0  0  0  0  0  0  0
   -7.8074  -18.7244   19.3882 H   0  0  0  0  0  0  0  0  0  0  0  0
   -7.8148  -20.3767   19.5990 H   0  0  0  0  0  0  0  0  0  0  0  0
   -3.6639  -25.8164   22.8949 O   0  0  0  0  0  0  0  0  0  0  0  0
   -2.7714  -24.7080   22.7776 C   0  0  0  0  0  0  0  0  0  0  0  0
   -3.0762  -23.9587   21.4688 C   0  0  0  0  0  0  0  0  0  0  0  0
   -3.6666  -22.5637   21.7505 C   0  0  0  0  0  0  0  0  0  0  0  0
   -2.6093  -21.4679   21.6859 C   0  0  0  0  0  0  0  0  0  0  0  0
   -1.9543  -21.3922   20.3053 C   0  0  0  0  0  0  0  0  0  0  0  0
   -1.8944  -22.7395   19.5839 C   0  0  0  0  0  0  0  0  0  0  0  0
   -1.8264  -23.9017   20.5660 C   0  0  0  0  0  0  0  0  0  0  0  0
 20 21  1  0
 21 22  2  0
 21 23  2  0
 21 14  1  0
 14 15  2  0
 15 16  1  0
 16 17  2  0
 17 12  1  0
 12  1  1  0
  1  2  2  0
  2  3  1  0
  3 26  1  0
 26 27  1  0
 27 28  1  0
 28 29  1  0
 29 30  1  0
 30 31  1  0
 31 32  1  0
 32 33  1  0
  3  4  2  0
  4  5  1  0
  5  6  2  0
  6  7  1  0
  6  8  1  0
  8  9  1  0
  9 10  2  0
 17 18  1  0
 18 19  2  0
 19 14  1  0
 10  1  1  0
 33 28  1  0
  9  4  1  0
 20 24  1  0
 20 25  1  0
 12 13  1  0
  8 11  1  0
M  END
> <minimizedAffinity>
-9.20285

> <CNNscore>
0.3834301233

> <CNNaffinity>
6.8216629028

> <CNN_VS>
2.6156311035

> <CNNaffinity_variance>
0.2729973495

$$$$



 33 36  0  0  0  0  0  0  0  0999 V2000
   -4.0083  -24.4378   21.7062 C   0  0  0  0  0  0  0  0  0  0  0  0
   -4.0443  -25.4543   22.5924 N   0  0  0  0  0  0  0  0  0  0  0  0
   -4.9957  -25.4730   23.5624 C   0  0  0  0  0  0  0  0  0  0  0  0
   -5.9244  -24.4366   23.6260 C   0  0  0  0  0  0  0  0  0  0  0  0
   -6.9885  -24.1479   24.4532 N   0  0  0  0  0  0  0  0  0  0  0  0
   -7.4720  -23.0156   23.9925 C   0  0  0  0  0  0  0  0  0  0  0  0
   -8.5258  -22.3774   24.5219 F   0  0  0  0  0  0  0  0  0  0  0  0
   -6.7745  -22.5607   22.9097 N   0  0  0  0  0  0  0  0  0  0  0  0
   -5.7786  -23.4573   22.6619 C   0  0  0  0  0  0  0  0  0  0  0  0
   -4.8597  -23.3916   21.6916 N   0  0  0  0  0  0  0  0  0  0  0  0
   -6.9575  -21.7372   22.4020 H   0  0  0  0  0  0  0  0  0  0  0  0
   -3.0262  -24.3821   20.7178 N   0  0  0  0  0  0  0  0  0  0  0  0
   -3.2772  -24.8700   19.9004 H   0  0  0  0  0  0  0  0  0  0  0  0
    0.7289  -22.4745   20.5735 C   0  0  0  0  0  0  0  0  0  0  0  0
    0.6668  -23.8556   20.3982 C   0  0  0  0  0  0  0  0  0  0  0  0
   -0.5747  -24.5012   20.4381 C   0  0  0  0  0  0  0  0  0  0  0  0
   -1.7634  -23.7866   20.6305 C   0  0  0  0  0  0  0  0  0  0  0  0
   -1.6699  -22.3927   20.7956 C   0  0  0  0  0  0  0  0  0  0  0  0
   -0.4370  -21.7338   20.7625 C   0  0  0  0  0  0  0  0  0  0  0  0
    2.2548  -20.9303   19.0107 N   0  0  0  0  0  0  0  0  0  0  0  0
    2.2951  -21.6465   20.5349 S   0  0  0  0  0  0  0  0  0  0  0  0
    2.2624  -20.5556   21.4819 O   0  0  0  0  0  0  0  0  0  0  0  0
    3.3393  -22.6431   20.5303 O   0  0  0  0  0  0  0  0  0  0  0  0
    3.1183  -20.4097   18.8567 H   0  0  0  0  0  0  0  0  0  0  0  0
    1.4596  -20.2940   18.9550 H   0  0  0  0  0  0  0  0  0  0  0  0
   -5.0394  -26.5035   24.4801 O   0  0  0  0  0  0  0  0  0  0  0  0
   -3.8208  -26.6751   25.2042 C   0  0  0  0  0  0  0  0  0  0  0  0
   -4.1444  -26.7965   26.7035 C   0  0  0  0  0  0  0  0  0  0  0  0
   -2.8595  -26.7774   27.5536 C   0  0  0  0  0  0  0  0  0  0  0  0
   -2.5641  -25.3931   28.1186 C   0  0  0  0  0  0  0  0  0  0  0  0
   -3.6926  -24.8977   29.0251 C   0  0  0  0  0  0  0  0  0  0  0  0
   -5.0711  -25.4289   28.6288 C   0  0  0  0  0  0  0  0  0  0  0  0
   -5.1564  -25.7150   27.1352 C   0  0  0  0  0  0  0  0  0  0  0  0
 20 21  1  0
 21 22  2  0
 21 23  2  0
 21 14  1  0
 14 15  2  0
 15 16  1  0
 16 17  2  0
 17 12  1  0
 12  1  1  0
  1  2  2  0
  2  3  1  0
  3 26  1  0
 26 27  1  0
 27 28  1  0
 28 29  1  0
 29 30  1  0
 30 31  1  0
 31 32  1  0
 32 33  1  0
  3  4  2  0
  4  5  1  0
  5  6  2  0
  6  7  1  0
  6  8  1  0
  8  9  1  0
  9 10  2  0
 17 18  1  0
 18 19  2  0
 19 14  1  0
 10  1  1  0
 33 28  1  0
  9  4  1  0
 20 24  1  0
 20 25  1  0
 12 13  1  0
  8 11  1  0
M  END
> <minimizedAffinity>
-8.43707

> <CNNscore>
0.1790582091

> <CNNaffinity>
5.4040374756

> <CNN_VS>
0.9676373005

> <CNNaffinity_variance>
0.8636596799

$$$$



 33 36  0  0  0  0  0  0  0  0999 V2000
   -5.7087  -25.1961   24.3228 C   0  0  0  0  0  0  0  0  0  0  0  0
   -4.9586  -24.9940   23.2200 N   0  0  0  0  0  0  0  0  0  0  0  0
   -5.2125  -23.9295   22.4145 C   0  0  0  0  0  0  0  0  0  0  0  0
   -6.2490  -23.0585   22.7429 C   0  0  0  0  0  0  0  0  0  0  0  0
   -6.7649  -21.9170   22.1677 N   0  0  0  0  0  0  0  0  0  0  0  0
   -7.7484  -21.5578   22.9628 C   0  0  0  0  0  0  0  0  0  0  0  0
   -8.5240  -20.4829   22.7605 F   0  0  0  0  0  0  0  0  0  0  0  0
   -7.8914  -22.4088   24.0216 N   0  0  0  0  0  0  0  0  0  0  0  0
   -6.9407  -23.3770   23.8961 C   0  0  0  0  0  0  0  0  0  0  0  0
   -6.7326  -24.4120   24.7182 N   0  0  0  0  0  0  0  0  0  0  0  0
   -8.5582  -22.3361   24.7423 H   0  0  0  0  0  0  0  0  0  0  0  0
   -5.4850  -26.2953   25.1512 N   0  0  0  0  0  0  0  0  0  0  0  0
   -6.0846  -27.0511   24.9551 H   0  0  0  0  0  0  0  0  0  0  0  0
   -2.9308  -27.0444   28.4184 C   0  0  0  0  0  0  0  0  0  0  0  0
   -2.8746  -27.8885   27.3109 C   0  0  0  0  0  0  0  0  0  0  0  0
   -3.7134  -27.6477   26.2165 C   0  0  0  0  0  0  0  0  0  0  0  0
   -4.5975  -26.5619   26.1990 C   0  0  0  0  0  0  0  0  0  0  0  0
   -4.6254  -25.7223   27.3274 C   0  0  0  0  0  0  0  0  0  0  0  0
   -3.7969  -25.9521   28.4301 C   0  0  0  0  0  0  0  0  0  0  0  0
   -2.0188  -25.8890   30.6520 N   0  0  0  0  0  0  0  0  0  0  0  0
   -1.8811  -27.3441   29.8143 S   0  0  0  0  0  0  0  0  0  0  0  0
   -2.5054  -28.3407   30.6540 O   0  0  0  0  0  0  0  0  0  0  0  0
   -0.5204  -27.4608   29.3468 O   0  0  0  0  0  0  0  0  0  0  0  0
   -1.4497  -25.9283   31.4976 H   0  0  0  0  0  0  0  0  0  0  0  0
   -2.9945  -25.7338   30.9057 H   0  0  0  0  0  0  0  0  0  0  0  0
   -4.4572  -23.7151   21.2789 O   0  0  0  0  0  0  0  0  0  0  0  0
   -3.0686  -23.5169   21.5461 C   0  0  0  0  0  0  0  0  0  0  0  0
   -2.6560  -22.1256   21.0348 C   0  0  0  0  0  0  0  0  0  0  0  0
   -3.0802  -21.9235   19.5674 C   0  0  0  0  0  0  0  0  0  0  0  0
   -4.3931  -21.1586   19.4482 C   0  0  0  0  0  0  0  0  0  0  0  0
   -4.2952  -19.7636   20.0687 C   0  0  0  0  0  0  0  0  0  0  0  0
   -3.3144  -19.6842   21.2396 C   0  0  0  0  0  0  0  0  0  0  0  0
   -3.1938  -21.0182   21.9647 C   0  0  0  0  0  0  0  0  0  0  0  0
 20 21  1  0
 21 22  2  0
 21 23  2  0
 21 14  1  0
 14 15  2  0
 15 16  1  0
 16 17  2  0
 17 12  1  0
 12  1  1  0
  1  2  2  0
  2  3  1  0
  3 26  1  0
 26 27  1  0
 27 28  1  0
 28 29  1  0
 29 30  1  0
 30 31  1  0
 31 32  1  0
 32 33  1  0
  3  4  2  0
  4  5  1  0
  5  6  2  0
  6  7  1  0
  6  8  1  0
  8  9  1  0
  9 10  2  0
 17 18  1  0
 18 19  2  0
 19 14  1  0
 10  1  1  0
 33 28  1  0
  9  4  1  0
 20 24  1  0
 20 25  1  0
 12 13  1  0
  8 11  1  0
M  END
> <minimizedAffinity>
-7.79532

> <CNNscore>
0.1693379134

> <CNNaffinity>
6.3833351135

> <CNN_VS>
1.0809406042

> <CNNaffinity_variance>
0.0370990075

$$$$



 33 36  0  0  0  0  0  0  0  0999 V2000
   -4.0267  -23.8915   21.7018 C   0  0  0  0  0  0  0  0  0  0  0  0
   -3.8400  -25.0636   22.3429 N   0  0  0  0  0  0  0  0  0  0  0  0
   -4.7141  -25.4544   23.3071 C   0  0  0  0  0  0  0  0  0  0  0  0
   -5.7958  -24.6338   23.6193 C   0  0  0  0  0  0  0  0  0  0  0  0
   -6.8404  -24.7183   24.5145 N   0  0  0  0  0  0  0  0  0  0  0  0
   -7.5316  -23.6160   24.3261 C   0  0  0  0  0  0  0  0  0  0  0  0
   -8.6421  -23.2994   25.0077 F   0  0  0  0  0  0  0  0  0  0  0  0
   -6.9864  -22.8263   23.3540 N   0  0  0  0  0  0  0  0  0  0  0  0
   -5.8730  -23.4616   22.8914 C   0  0  0  0  0  0  0  0  0  0  0  0
   -5.0386  -23.0313   21.9381 N   0  0  0  0  0  0  0  0  0  0  0  0
   -7.3336  -21.9586   23.0447 H   0  0  0  0  0  0  0  0  0  0  0  0
   -3.1296  -23.4559   20.7272 N   0  0  0  0  0  0  0  0  0  0  0  0
   -3.5738  -23.1833   19.8920 H   0  0  0  0  0  0  0  0  0  0  0  0
    1.0601  -23.0010   20.7299 C   0  0  0  0  0  0  0  0  0  0  0  0
    0.4915  -24.0082   19.9525 C   0  0  0  0  0  0  0  0  0  0  0  0
   -0.8992  -24.1667   19.9380 C   0  0  0  0  0  0  0  0  0  0  0  0
   -1.7383  -23.3206   20.6733 C   0  0  0  0  0  0  0  0  0  0  0  0
   -1.1359  -22.3075   21.4414 C   0  0  0  0  0  0  0  0  0  0  0  0
    0.2518  -22.1391   21.4697 C   0  0  0  0  0  0  0  0  0  0  0  0
    3.1383  -22.3863   19.1618 N   0  0  0  0  0  0  0  0  0  0  0  0
    2.8200  -22.7960   20.7645 S   0  0  0  0  0  0  0  0  0  0  0  0
    3.1307  -21.6169   21.5400 O   0  0  0  0  0  0  0  0  0  0  0  0
    3.4251  -24.0806   21.0236 O   0  0  0  0  0  0  0  0  0  0  0  0
    4.1402  -22.2372   19.0416 H   0  0  0  0  0  0  0  0  0  0  0  0
    2.6362  -21.5310   18.9234 H   0  0  0  0  0  0  0  0  0  0  0  0
   -4.5308  -26.6481   23.9760 O   0  0  0  0  0  0  0  0  0  0  0  0
   -4.5158  -26.5096   25.3970 C   0  0  0  0  0  0  0  0  0  0  0  0
   -3.1147  -26.8729   25.9187 C   0  0  0  0  0  0  0  0  0  0  0  0
   -2.6599  -25.8956   27.0197 C   0  0  0  0  0  0  0  0  0  0  0  0
   -2.9077  -26.4488   28.4181 C   0  0  0  0  0  0  0  0  0  0  0  0
   -2.1468  -27.7549   28.6545 C   0  0  0  0  0  0  0  0  0  0  0  0
   -1.9485  -28.5839   27.3846 C   0  0  0  0  0  0  0  0  0  0  0  0
   -3.0650  -28.3455   26.3763 C   0  0  0  0  0  0  0  0  0  0  0  0
 20 21  1  0
 21 22  2  0
 21 23  2  0
 21 14  1  0
 14 15  2  0
 15 16  1  0
 16 17  2  0
 17 12  1  0
 12  1  1  0
  1  2  2  0
  2  3  1  0
  3 26  1  0
 26 27  1  0
 27 28  1  0
 28 29  1  0
 29 30  1  0
 30 31  1  0
 31 32  1  0
 32 33  1  0
  3  4  2  0
  4  5  1  0
  5  6  2  0
  6  7  1  0
  6  8  1  0
  8  9  1  0
  9 10  2  0
 17 18  1  0
 18 19  2  0
 19 14  1  0
 10  1  1  0
 33 28  1  0
  9  4  1  0
 20 24  1  0
 20 25  1  0
 12 13  1  0
  8 11  1  0
M  END
> <minimizedAffinity>
-7.17447

> <CNNscore>
0.1447587162

> <CNNaffinity>
5.0343871117

> <CNN_VS>
0.7287713885

> <CNNaffinity_variance>
0.9620378613

$$$$



 33 36  0  0  0  0  0  0  0  0999 V2000
   -5.9892  -24.2595   23.3953 C   0  0  0  0  0  0  0  0  0  0  0  0
   -6.9115  -23.3023   23.6255 N   0  0  0  0  0  0  0  0  0  0  0  0
   -6.8557  -22.1301   22.9406 C   0  0  0  0  0  0  0  0  0  0  0  0
   -5.8415  -21.9347   22.0057 C   0  0  0  0  0  0  0  0  0  0  0  0
   -5.4972  -20.9006   21.1619 N   0  0  0  0  0  0  0  0  0  0  0  0
   -4.4295  -21.3298   20.5262 C   0  0  0  0  0  0  0  0  0  0  0  0
   -3.7674  -20.6177   19.6029 F   0  0  0  0  0  0  0  0  0  0  0  0
   -4.0692  -22.5883   20.9164 N   0  0  0  0  0  0  0  0  0  0  0  0
   -4.9613  -22.9907   21.8648 C   0  0  0  0  0  0  0  0  0  0  0  0
   -4.9712  -24.1596   22.5159 N   0  0  0  0  0  0  0  0  0  0  0  0
   -3.3060  -23.1085   20.5756 H   0  0  0  0  0  0  0  0  0  0  0  0
   -6.0093  -25.4604   24.1037 N   0  0  0  0  0  0  0  0  0  0  0  0
   -6.5191  -26.1671   23.6454 H   0  0  0  0  0  0  0  0  0  0  0  0
   -4.2159  -26.7331   27.6988 C   0  0  0  0  0  0  0  0  0  0  0  0
   -5.3230  -25.8889   27.7592 C   0  0  0  0  0  0  0  0  0  0  0  0
   -5.9318  -25.4631   26.5728 C   0  0  0  0  0  0  0  0  0  0  0  0
   -5.4656  -25.8836   25.3212 C   0  0  0  0  0  0  0  0  0  0  0  0
   -4.3520  -26.7427   25.2923 C   0  0  0  0  0  0  0  0  0  0  0  0
   -3.7303  -27.1733   26.4683 C   0  0  0  0  0  0  0  0  0  0  0  0
   -3.6327  -25.9212   30.1799 N   0  0  0  0  0  0  0  0  0  0  0  0
   -3.4302  -27.2714   29.1931 S   0  0  0  0  0  0  0  0  0  0  0  0
   -4.2349  -28.3149   29.7861 O   0  0  0  0  0  0  0  0  0  0  0  0
   -2.0182  -27.4270   28.9370 O   0  0  0  0  0  0  0  0  0  0  0  0
   -3.2153  -26.1017   31.0929 H   0  0  0  0  0  0  0  0  0  0  0  0
   -4.6280  -25.7290   30.2930 H   0  0  0  0  0  0  0  0  0  0  0  0
   -7.7890  -21.1393   23.1716 O   0  0  0  0  0  0  0  0  0  0  0  0
   -9.1365  -21.5661   22.9692 C   0  0  0  0  0  0  0  0  0  0  0  0
   -9.8838  -20.4915   22.1603 C   0  0  0  0  0  0  0  0  0  0  0  0
   -9.2935  -19.0914   22.4161 C   0  0  0  0  0  0  0  0  0  0  0  0
   -8.3052  -18.6771   21.3324 C   0  0  0  0  0  0  0  0  0  0  0  0
   -8.9648  -18.6255   19.9528 C   0  0  0  0  0  0  0  0  0  0  0  0
  -10.1105  -19.6251   19.7868 C   0  0  0  0  0  0  0  0  0  0  0  0
   -9.9149  -20.8565   20.6616 C   0  0  0  0  0  0  0  0  0  0  0  0
 20 21  1  0
 21 22  2  0
 21 23  2  0
 21 14  1  0
 14 15  2  0
 15 16  1  0
 16 17  2  0
 17 12  1  0
 12  1  1  0
  1  2  2  0
  2  3  1  0
  3 26  1  0
 26 27  1  0
 27 28  1  0
 28 29  1  0
 29 30  1  0
 30 31  1  0
 31 32  1  0
 32 33  1  0
  3  4  2  0
  4  5  1  0
  5  6  2  0
  6  7  1  0
  6  8  1  0
  8  9  1  0
  9 10  2  0
 17 18  1  0
 18 19  2  0
 19 14  1  0
 10  1  1  0
 33 28  1  0
  9  4  1  0
 20 24  1  0
 20 25  1  0
 12 13  1  0
  8 11  1  0
M  END
> <minimizedAffinity>
-10.02531

> <CNNscore>
0.1397369355

> <CNNaffinity>
5.5388092995

> <CNN_VS>
0.7739762664

> <CNNaffinity_variance>
1.2387031317

$$$$



 33 36  0  0  0  0  0  0  0  0999 V2000
   -4.2100  -23.7023   21.2517 C   0  0  0  0  0  0  0  0  0  0  0  0
   -3.9894  -24.8705   21.8894 N   0  0  0  0  0  0  0  0  0  0  0  0
   -4.7700  -25.2237   22.9440 C   0  0  0  0  0  0  0  0  0  0  0  0
   -5.7920  -24.3693   23.3517 C   0  0  0  0  0  0  0  0  0  0  0  0
   -6.7411  -24.4127   24.3503 N   0  0  0  0  0  0  0  0  0  0  0  0
   -7.4189  -23.2943   24.2154 C   0  0  0  0  0  0  0  0  0  0  0  0
   -8.4449  -22.9377   25.0017 F   0  0  0  0  0  0  0  0  0  0  0  0
   -6.9557  -22.5332   23.1800 N   0  0  0  0  0  0  0  0  0  0  0  0
   -5.9127  -23.2054   22.6166 C   0  0  0  0  0  0  0  0  0  0  0  0
   -5.1694  -22.8113   21.5761 N   0  0  0  0  0  0  0  0  0  0  0  0
   -7.3099  -21.6604   22.8937 H   0  0  0  0  0  0  0  0  0  0  0  0
   -3.4065  -23.3051   20.1836 N   0  0  0  0  0  0  0  0  0  0  0  0
   -3.9251  -22.9556   19.4232 H   0  0  0  0  0  0  0  0  0  0  0  0
    0.7459  -23.4402   19.4764 C   0  0  0  0  0  0  0  0  0  0  0  0
    0.0120  -22.3641   18.9810 C   0  0  0  0  0  0  0  0  0  0  0  0
   -1.3671  -22.3039   19.2136 C   0  0  0  0  0  0  0  0  0  0  0  0
   -2.0268  -23.2931   19.9530 C   0  0  0  0  0  0  0  0  0  0  0  0
   -1.2581  -24.3624   20.4479 C   0  0  0  0  0  0  0  0  0  0  0  0
    0.1194  -24.4390   20.2204 C   0  0  0  0  0  0  0  0  0  0  0  0
    2.8661  -21.9158   18.8964 N   0  0  0  0  0  0  0  0  0  0  0  0
    2.4906  -23.5333   19.1806 S   0  0  0  0  0  0  0  0  0  0  0  0
    3.1497  -23.8771   20.4197 O   0  0  0  0  0  0  0  0  0  0  0  0
    2.7083  -24.2623   17.9540 O   0  0  0  0  0  0  0  0  0  0  0  0
    3.8645  -21.8266   18.7080 H   0  0  0  0  0  0  0  0  0  0  0  0
    2.6242  -21.3613   19.7176 H   0  0  0  0  0  0  0  0  0  0  0  0
   -4.5504  -26.4129   23.6101 O   0  0  0  0  0  0  0  0  0  0  0  0
   -3.5877  -26.3100   24.6595 C   0  0  0  0  0  0  0  0  0  0  0  0
   -4.1933  -26.8884   25.9503 C   0  0  0  0  0  0  0  0  0  0  0  0
   -3.1321  -27.6436   26.7733 C   0  0  0  0  0  0  0  0  0  0  0  0
   -2.5467  -26.7821   27.8860 C   0  0  0  0  0  0  0  0  0  0  0  0
   -3.6211  -26.3264   28.8754 C   0  0  0  0  0  0  0  0  0  0  0  0
   -5.0017  -26.1541   28.2401 C   0  0  0  0  0  0  0  0  0  0  0  0
   -4.9012  -25.7862   26.7655 C   0  0  0  0  0  0  0  0  0  0  0  0
 20 21  1  0
 21 22  2  0
 21 23  2  0
 21 14  1  0
 14 15  2  0
 15 16  1  0
 16 17  2  0
 17 12  1  0
 12  1  1  0
  1  2  2  0
  2  3  1  0
  3 26  1  0
 26 27  1  0
 27 28  1  0
 28 29  1  0
 29 30  1  0
 30 31  1  0
 31 32  1  0
 32 33  1  0
  3  4  2  0
  4  5  1  0
  5  6  2  0
  6  7  1  0
  6  8  1  0
  8  9  1  0
  9 10  2  0
 17 18  1  0
 18 19  2  0
 19 14  1  0
 10  1  1  0
 33 28  1  0
  9  4  1  0
 20 24  1  0
 20 25  1  0
 12 13  1  0
  8 11  1  0
M  END
> <minimizedAffinity>
-7.97925

> <CNNscore>
0.1367487162

> <CNNaffinity>
4.9023752213

> <CNN_VS>
0.6703935266

> <CNNaffinity_variance>
1.3851509094

$$$$
