


 25 28  0  0  0  0  0  0  0  0999 V2000
   -0.6886    2.9347   22.5221 C   0  0  0  0  0  0  0  0  0  0  0  0
   -1.1554    1.6473   22.7667 C   0  0  0  0  0  0  0  0  0  0  0  0
   -2.1002    1.0339   21.9221 C   0  0  0  0  0  0  0  0  0  0  0  0
   -2.5543    1.7756   20.8254 C   0  0  0  0  0  0  0  0  0  0  0  0
   -2.0719    3.0168   20.5887 N   0  0  0  0  0  0  0  0  0  0  0  0
   -1.1392    3.5852   21.4326 N   0  0  0  0  0  0  0  0  0  0  0  0
   -3.5491    1.3163   19.8401 C   0  0  0  0  0  0  0  0  0  0  0  0
   -4.8705    1.0166   20.2034 C   0  0  0  0  0  0  0  0  0  0  0  0
   -5.7957    0.5664   19.2562 C   0  0  0  0  0  0  0  0  0  0  0  0
   -5.4290    0.4142   17.9120 C   0  0  0  0  0  0  0  0  0  0  0  0
   -6.3448   -0.0389   16.9487 C   0  0  0  0  0  0  0  0  0  0  0  0
   -5.9639   -0.1789   15.6133 C   0  0  0  0  0  0  0  0  0  0  0  0
   -4.6646    0.1333   15.2247 C   0  0  0  0  0  0  0  0  0  0  0  0
   -3.7432    0.5847   16.1711 C   0  0  0  0  0  0  0  0  0  0  0  0
   -4.1101    0.7285   17.5190 C   0  0  0  0  0  0  0  0  0  0  0  0
   -3.1931    1.1781   18.4856 C   0  0  0  0  0  0  0  0  0  0  0  0
   -2.5227   -0.3478   22.2122 C   0  0  0  0  0  0  0  0  0  0  0  0
   -3.2592   -0.6576   23.3616 C   0  0  0  0  0  0  0  0  0  0  0  0
   -3.6294   -1.9739   23.5873 C   0  0  0  0  0  0  0  0  0  0  0  0
   -3.3289   -2.9913   22.7538 N   0  0  0  0  0  0  0  0  0  0  0  0
   -2.6261   -2.6790   21.6467 C   0  0  0  0  0  0  0  0  0  0  0  0
   -2.2085   -1.3944   21.3360 C   0  0  0  0  0  0  0  0  0  0  0  0
    1.2234    4.3735   22.6714 C   0  0  0  0  0  0  0  0  0  0  0  0
    0.2737    3.5147   23.3797 N   0  0  0  0  0  0  0  0  0  0  0  0
    0.9038    2.5290   24.2615 C   0  0  0  0  0  0  0  0  0  0  0  0
 23 24  1  0
 24 25  1  0
 24  1  1  0
  1  2  2  0
  2  3  1  0
  3 17  1  0
 17 18  2  0
 18 19  1  0
 19 20  2  0
 20 21  1  0
 21 22  2  0
  3  4  2  0
  4  7  1  0
  7  8  2  0
  8  9  1  0
  9 10  2  0
 10 11  1  0
 11 12  2  0
 12 13  1  0
 13 14  2  0
 14 15  1  0
 15 16  2  0
  4  5  1  0
  5  6  2  0
  6  1  1  0
 22 17  1  0
 16  7  1  0
 15 10  1  0
M  END
> <minimizedAffinity>
-10.52914

> <CNNscore>
0.9885807633

> <CNNaffinity>
7.5257110596

> <CNN_VS>
7.4397730827

> <CNNaffinity_variance>
0.0029990990

$$$$



 25 28  0  0  0  0  0  0  0  0999 V2000
   -2.3375    3.3127   23.8360 C   0  0  0  0  0  0  0  0  0  0  0  0
   -2.5026    1.9318   23.7984 C   0  0  0  0  0  0  0  0  0  0  0  0
   -2.8128    1.2597   22.6008 C   0  0  0  0  0  0  0  0  0  0  0  0
   -2.9520    2.0401   21.4472 C   0  0  0  0  0  0  0  0  0  0  0  0
   -2.7643    3.3786   21.4967 N   0  0  0  0  0  0  0  0  0  0  0  0
   -2.4524    4.0048   22.6866 N   0  0  0  0  0  0  0  0  0  0  0  0
   -3.2885    1.5266   20.1076 C   0  0  0  0  0  0  0  0  0  0  0  0
   -2.3123    1.3370   19.1182 C   0  0  0  0  0  0  0  0  0  0  0  0
   -2.6541    0.8638   17.8473 C   0  0  0  0  0  0  0  0  0  0  0  0
   -3.9840    0.5537   17.5317 C   0  0  0  0  0  0  0  0  0  0  0  0
   -4.3447    0.0798   16.2600 C   0  0  0  0  0  0  0  0  0  0  0  0
   -5.6734   -0.2296   15.9650 C   0  0  0  0  0  0  0  0  0  0  0  0
   -6.6564   -0.0707   16.9371 C   0  0  0  0  0  0  0  0  0  0  0  0
   -6.3130    0.3995   18.2057 C   0  0  0  0  0  0  0  0  0  0  0  0
   -4.9811    0.7177   18.5174 C   0  0  0  0  0  0  0  0  0  0  0  0
   -4.6190    1.1962   19.7891 C   0  0  0  0  0  0  0  0  0  0  0  0
   -2.9330   -0.2089   22.6198 C   0  0  0  0  0  0  0  0  0  0  0  0
   -2.2626   -1.0062   21.6846 C   0  0  0  0  0  0  0  0  0  0  0  0
   -2.4118   -2.3826   21.7461 C   0  0  0  0  0  0  0  0  0  0  0  0
   -3.1663   -3.0151   22.6685 N   0  0  0  0  0  0  0  0  0  0  0  0
   -3.8007   -2.2369   23.5681 C   0  0  0  0  0  0  0  0  0  0  0  0
   -3.7158   -0.8536   23.5859 C   0  0  0  0  0  0  0  0  0  0  0  0
   -1.4409    5.2887   24.8553 C   0  0  0  0  0  0  0  0  0  0  0  0
   -2.0086    3.9545   25.0515 N   0  0  0  0  0  0  0  0  0  0  0  0
   -1.2227    3.0971   25.9422 C   0  0  0  0  0  0  0  0  0  0  0  0
 23 24  1  0
 24 25  1  0
 24  1  1  0
  1  2  2  0
  2  3  1  0
  3 17  1  0
 17 18  2  0
 18 19  1  0
 19 20  2  0
 20 21  1  0
 21 22  2  0
  3  4  2  0
  4  7  1  0
  7  8  2  0
  8  9  1  0
  9 10  2  0
 10 11  1  0
 11 12  2  0
 12 13  1  0
 13 14  2  0
 14 15  1  0
 15 16  2  0
  4  5  1  0
  5  6  2  0
  6  1  1  0
 22 17  1  0
 16  7  1  0
 15 10  1  0
M  END
> <minimizedAffinity>
-9.48872

> <CNNscore>
0.9654684663

> <CNNaffinity>
7.3214850426

> <CNN_VS>
7.0686631203

> <CNNaffinity_variance>
0.0394374393

$$$$



 25 28  0  0  0  0  0  0  0  0999 V2000
   -0.6886   -0.9843   23.4170 C   0  0  0  0  0  0  0  0  0  0  0  0
   -0.7808    0.3674   23.1013 C   0  0  0  0  0  0  0  0  0  0  0  0
   -1.6244    0.8273   22.0722 C   0  0  0  0  0  0  0  0  0  0  0  0
   -2.3659   -0.1341   21.3756 C   0  0  0  0  0  0  0  0  0  0  0  0
   -2.2827   -1.4416   21.7116 N   0  0  0  0  0  0  0  0  0  0  0  0
   -1.4516   -1.8573   22.7322 N   0  0  0  0  0  0  0  0  0  0  0  0
   -3.2880    0.1455   20.2608 C   0  0  0  0  0  0  0  0  0  0  0  0
   -4.6720    0.2676   20.4545 C   0  0  0  0  0  0  0  0  0  0  0  0
   -5.5326    0.5171   19.3807 C   0  0  0  0  0  0  0  0  0  0  0  0
   -5.0316    0.6647   18.0801 C   0  0  0  0  0  0  0  0  0  0  0  0
   -5.8819    0.9133   16.9905 C   0  0  0  0  0  0  0  0  0  0  0  0
   -5.3651    1.0634   15.7027 C   0  0  0  0  0  0  0  0  0  0  0  0
   -3.9933    0.9684   15.4888 C   0  0  0  0  0  0  0  0  0  0  0  0
   -3.1357    0.7215   16.5621 C   0  0  0  0  0  0  0  0  0  0  0  0
   -3.6403    0.5655   17.8634 C   0  0  0  0  0  0  0  0  0  0  0  0
   -2.7905    0.3125   18.9548 C   0  0  0  0  0  0  0  0  0  0  0  0
   -1.7087    2.2759   21.8153 C   0  0  0  0  0  0  0  0  0  0  0  0
   -2.6573    3.0760   22.4632 C   0  0  0  0  0  0  0  0  0  0  0  0
   -2.6946    4.4328   22.1835 C   0  0  0  0  0  0  0  0  0  0  0  0
   -1.8576    5.0443   21.3200 N   0  0  0  0  0  0  0  0  0  0  0  0
   -0.9438    4.2645   20.7083 C   0  0  0  0  0  0  0  0  0  0  0  0
   -0.8304    2.8994   20.9201 C   0  0  0  0  0  0  0  0  0  0  0  0
   -0.5509   -1.5509   25.7425 C   0  0  0  0  0  0  0  0  0  0  0  0
    0.1545   -1.4109   24.4682 N   0  0  0  0  0  0  0  0  0  0  0  0
    1.3867   -0.6230   24.5520 C   0  0  0  0  0  0  0  0  0  0  0  0
 23 24  1  0
 24 25  1  0
 24  1  1  0
  1  2  2  0
  2  3  1  0
  3 17  1  0
 17 18  2  0
 18 19  1  0
 19 20  2  0
 20 21  1  0
 21 22  2  0
  3  4  2  0
  4  7  1  0
  7  8  2  0
  8  9  1  0
  9 10  2  0
 10 11  1  0
 11 12  2  0
 12 13  1  0
 13 14  2  0
 14 15  1  0
 15 16  2  0
  4  5  1  0
  5  6  2  0
  6  1  1  0
 22 17  1  0
 16  7  1  0
 15 10  1  0
M  END
> <minimizedAffinity>
-9.71737

> <CNNscore>
0.9376642704

> <CNNaffinity>
6.9857177734

> <CNN_VS>
6.5502581596

> <CNNaffinity_variance>
0.0019522841

$$$$



 25 28  0  0  0  0  0  0  0  0999 V2000
   -1.5338    0.1422   24.7229 C   0  0  0  0  0  0  0  0  0  0  0  0
   -1.4650    1.4090   24.1521 C   0  0  0  0  0  0  0  0  0  0  0  0
   -1.9054    1.6488   22.8366 C   0  0  0  0  0  0  0  0  0  0  0  0
   -2.4136    0.5568   22.1234 C   0  0  0  0  0  0  0  0  0  0  0  0
   -2.4958   -0.6630   22.7018 N   0  0  0  0  0  0  0  0  0  0  0  0
   -2.0626   -0.8614   23.9973 N   0  0  0  0  0  0  0  0  0  0  0  0
   -2.9070    0.6016   20.7356 C   0  0  0  0  0  0  0  0  0  0  0  0
   -2.0602    0.8915   19.6554 C   0  0  0  0  0  0  0  0  0  0  0  0
   -2.5510    0.9452   18.3469 C   0  0  0  0  0  0  0  0  0  0  0  0
   -3.9041    0.6977   18.0782 C   0  0  0  0  0  0  0  0  0  0  0  0
   -4.4136    0.7498   16.7706 C   0  0  0  0  0  0  0  0  0  0  0  0
   -5.7629    0.4946   16.5206 C   0  0  0  0  0  0  0  0  0  0  0  0
   -6.6180    0.1832   17.5734 C   0  0  0  0  0  0  0  0  0  0  0  0
   -6.1260    0.1278   18.8785 C   0  0  0  0  0  0  0  0  0  0  0  0
   -4.7715    0.3844   19.1468 C   0  0  0  0  0  0  0  0  0  0  0  0
   -4.2607    0.3367   20.4560 C   0  0  0  0  0  0  0  0  0  0  0  0
   -1.8449    3.0219   22.3051 C   0  0  0  0  0  0  0  0  0  0  0  0
   -0.7753    3.4474   21.5084 C   0  0  0  0  0  0  0  0  0  0  0  0
   -0.7669    4.7503   21.0360 C   0  0  0  0  0  0  0  0  0  0  0  0
   -1.7420    5.6472   21.2908 N   0  0  0  0  0  0  0  0  0  0  0  0
   -2.7701    5.2230   22.0526 C   0  0  0  0  0  0  0  0  0  0  0  0
   -2.8664    3.9420   22.5729 C   0  0  0  0  0  0  0  0  0  0  0  0
    0.0207    0.8041   26.4239 C   0  0  0  0  0  0  0  0  0  0  0  0
   -1.0997   -0.0608   26.0525 N   0  0  0  0  0  0  0  0  0  0  0  0
   -0.8880   -1.4769   26.3620 C   0  0  0  0  0  0  0  0  0  0  0  0
 23 24  1  0
 24 25  1  0
 24  1  1  0
  1  2  2  0
  2  3  1  0
  3 17  1  0
 17 18  2  0
 18 19  1  0
 19 20  2  0
 20 21  1  0
 21 22  2  0
  3  4  2  0
  4  7  1  0
  7  8  2  0
  8  9  1  0
  9 10  2  0
 10 11  1  0
 11 12  2  0
 12 13  1  0
 13 14  2  0
 14 15  1  0
 15 16  2  0
  4  5  1  0
  5  6  2  0
  6  1  1  0
 22 17  1  0
 16  7  1  0
 15 10  1  0
M  END
> <minimizedAffinity>
-8.70137

> <CNNscore>
0.8265777826

> <CNNaffinity>
6.8011322021

> <CNN_VS>
5.6216650009

> <CNNaffinity_variance>
0.0880033970

$$$$



 25 28  0  0  0  0  0  0  0  0999 V2000
   -4.5737    0.6288   18.7987 C   0  0  0  0  0  0  0  0  0  0  0  0
   -3.8397    1.6320   19.4233 C   0  0  0  0  0  0  0  0  0  0  0  0
   -3.2539    1.4366   20.6885 C   0  0  0  0  0  0  0  0  0  0  0  0
   -3.4436    0.1896   21.2953 C   0  0  0  0  0  0  0  0  0  0  0  0
   -4.1396   -0.7828   20.6635 N   0  0  0  0  0  0  0  0  0  0  0  0
   -4.6936   -0.5604   19.4190 N   0  0  0  0  0  0  0  0  0  0  0  0
   -2.9259   -0.2008   22.6185 C   0  0  0  0  0  0  0  0  0  0  0  0
   -3.7306   -0.8443   23.5706 C   0  0  0  0  0  0  0  0  0  0  0  0
   -3.2250   -1.1924   24.8272 C   0  0  0  0  0  0  0  0  0  0  0  0
   -1.8927   -0.9176   25.1649 C   0  0  0  0  0  0  0  0  0  0  0  0
   -1.3698   -1.2583   26.4229 C   0  0  0  0  0  0  0  0  0  0  0  0
   -0.0389   -0.9825   26.7402 C   0  0  0  0  0  0  0  0  0  0  0  0
    0.7850   -0.3647   25.8042 C   0  0  0  0  0  0  0  0  0  0  0  0
    0.2793   -0.0201   24.5497 C   0  0  0  0  0  0  0  0  0  0  0  0
   -1.0582   -0.2885   24.2160 C   0  0  0  0  0  0  0  0  0  0  0  0
   -1.5844    0.0557   22.9583 C   0  0  0  0  0  0  0  0  0  0  0  0
   -2.4530    2.5244   21.2774 C   0  0  0  0  0  0  0  0  0  0  0  0
   -1.1794    2.8376   20.7881 C   0  0  0  0  0  0  0  0  0  0  0  0
   -0.4679    3.8692   21.3798 C   0  0  0  0  0  0  0  0  0  0  0  0
   -0.9333    4.6088   22.4077 N   0  0  0  0  0  0  0  0  0  0  0  0
   -2.1640    4.3025   22.8648 C   0  0  0  0  0  0  0  0  0  0  0  0
   -2.9500    3.2881   22.3411 C   0  0  0  0  0  0  0  0  0  0  0  0
   -6.3413    0.0604   17.2820 C   0  0  0  0  0  0  0  0  0  0  0  0
   -5.1336    0.8514   17.5201 N   0  0  0  0  0  0  0  0  0  0  0  0
   -4.1383    0.7574   16.4493 C   0  0  0  0  0  0  0  0  0  0  0  0
 23 24  1  0
 24 25  1  0
 24  1  1  0
  1  2  2  0
  2  3  1  0
  3 17  1  0
 17 18  2  0
 18 19  1  0
 19 20  2  0
 20 21  1  0
 21 22  2  0
  3  4  2  0
  4  7  1  0
  7  8  2  0
  8  9  1  0
  9 10  2  0
 10 11  1  0
 11 12  2  0
 12 13  1  0
 13 14  2  0
 14 15  1  0
 15 16  2  0
  4  5  1  0
  5  6  2  0
  6  1  1  0
 22 17  1  0
 16  7  1  0
 15 10  1  0
M  END
> <minimizedAffinity>
-7.40535

> <CNNscore>
0.3487431109

> <CNNaffinity>
6.2381567955

> <CNN_VS>
2.1755142212

> <CNNaffinity_variance>
0.0902737007

$$$$



 25 28  0  0  0  0  0  0  0  0999 V2000
   -0.7251    3.6188   22.1132 C   0  0  0  0  0  0  0  0  0  0  0  0
   -1.2728    2.3404   22.0812 C   0  0  0  0  0  0  0  0  0  0  0  0
   -1.2314    1.4932   23.2049 C   0  0  0  0  0  0  0  0  0  0  0  0
   -0.6119    1.9900   24.3576 C   0  0  0  0  0  0  0  0  0  0  0  0
   -0.1060    3.2441   24.3792 N   0  0  0  0  0  0  0  0  0  0  0  0
   -0.1713    4.0517   23.2618 N   0  0  0  0  0  0  0  0  0  0  0  0
   -0.4548    1.2535   25.6243 C   0  0  0  0  0  0  0  0  0  0  0  0
    0.5464    0.2871   25.8022 C   0  0  0  0  0  0  0  0  0  0  0  0
    0.6690   -0.4127   27.0068 C   0  0  0  0  0  0  0  0  0  0  0  0
   -0.2006   -0.1572   28.0759 C   0  0  0  0  0  0  0  0  0  0  0  0
   -0.0928   -0.8524   29.2913 C   0  0  0  0  0  0  0  0  0  0  0  0
   -0.9637   -0.5808   30.3476 C   0  0  0  0  0  0  0  0  0  0  0  0
   -1.9510    0.3891   30.2025 C   0  0  0  0  0  0  0  0  0  0  0  0
   -2.0705    1.0882   29.0003 C   0  0  0  0  0  0  0  0  0  0  0  0
   -1.2036    0.8249   27.9272 C   0  0  0  0  0  0  0  0  0  0  0  0
   -1.3129    1.5173   26.7082 C   0  0  0  0  0  0  0  0  0  0  0  0
   -1.8670    0.1665   23.1196 C   0  0  0  0  0  0  0  0  0  0  0  0
   -1.1932   -0.9292   22.5673 C   0  0  0  0  0  0  0  0  0  0  0  0
   -1.8382   -2.1545   22.5096 C   0  0  0  0  0  0  0  0  0  0  0  0
   -3.0900   -2.3658   22.9662 N   0  0  0  0  0  0  0  0  0  0  0  0
   -3.7254   -1.3048   23.5027 C   0  0  0  0  0  0  0  0  0  0  0  0
   -3.1655   -0.0407   23.6019 C   0  0  0  0  0  0  0  0  0  0  0  0
    0.4313    4.4440   20.1821 C   0  0  0  0  0  0  0  0  0  0  0  0
   -0.7997    4.4507   20.9730 N   0  0  0  0  0  0  0  0  0  0  0  0
   -1.2974    5.7915   21.2902 C   0  0  0  0  0  0  0  0  0  0  0  0
 23 24  1  0
 24 25  1  0
 24  1  1  0
  1  2  2  0
  2  3  1  0
  3 17  1  0
 17 18  2  0
 18 19  1  0
 19 20  2  0
 20 21  1  0
 21 22  2  0
  3  4  2  0
  4  7  1  0
  7  8  2  0
  8  9  1  0
  9 10  2  0
 10 11  1  0
 11 12  2  0
 12 13  1  0
 13 14  2  0
 14 15  1  0
 15 16  2  0
  4  5  1  0
  5  6  2  0
  6  1  1  0
 22 17  1  0
 16  7  1  0
 15 10  1  0
M  END
> <minimizedAffinity>
-6.56478

> <CNNscore>
0.2736567259

> <CNNaffinity>
5.9335169792

> <CNN_VS>
1.6237468719

> <CNNaffinity_variance>
0.0156165799

$$$$



 25 28  0  0  0  0  0  0  0  0999 V2000
   -3.1601    0.0547   20.5091 C   0  0  0  0  0  0  0  0  0  0  0  0
   -3.3661    1.1588   21.3301 C   0  0  0  0  0  0  0  0  0  0  0  0
   -2.7693    1.2523   22.6018 C   0  0  0  0  0  0  0  0  0  0  0  0
   -1.9609    0.1846   23.0088 C   0  0  0  0  0  0  0  0  0  0  0  0
   -1.7518   -0.8701   22.1884 N   0  0  0  0  0  0  0  0  0  0  0  0
   -2.3458   -0.9258   20.9437 N   0  0  0  0  0  0  0  0  0  0  0  0
   -1.2654    0.0891   24.3044 C   0  0  0  0  0  0  0  0  0  0  0  0
    0.0140    0.6294   24.5020 C   0  0  0  0  0  0  0  0  0  0  0  0
    0.6643    0.5142   25.7348 C   0  0  0  0  0  0  0  0  0  0  0  0
    0.0474   -0.1354   26.8127 C   0  0  0  0  0  0  0  0  0  0  0  0
    0.6871   -0.2618   28.0564 C   0  0  0  0  0  0  0  0  0  0  0  0
    0.0553   -0.9069   29.1207 C   0  0  0  0  0  0  0  0  0  0  0  0
   -1.2229   -1.4316   28.9554 C   0  0  0  0  0  0  0  0  0  0  0  0
   -1.8713   -1.3137   27.7250 C   0  0  0  0  0  0  0  0  0  0  0  0
   -1.2482   -0.6698   26.6435 C   0  0  0  0  0  0  0  0  0  0  0  0
   -1.8858   -0.5461   25.3964 C   0  0  0  0  0  0  0  0  0  0  0  0
   -2.9931    2.4673   23.4052 C   0  0  0  0  0  0  0  0  0  0  0  0
   -3.6449    2.4116   24.6428 C   0  0  0  0  0  0  0  0  0  0  0  0
   -3.8311    3.5847   25.3568 C   0  0  0  0  0  0  0  0  0  0  0  0
   -3.4111    4.7951   24.9342 N   0  0  0  0  0  0  0  0  0  0  0  0
   -2.7781    4.8345   23.7446 C   0  0  0  0  0  0  0  0  0  0  0  0
   -2.5475    3.7173   22.9573 C   0  0  0  0  0  0  0  0  0  0  0  0
   -2.9224    0.5872   18.1837 C   0  0  0  0  0  0  0  0  0  0  0  0
   -3.7597    0.0004   19.2304 N   0  0  0  0  0  0  0  0  0  0  0  0
   -5.1389    0.4943   19.2376 C   0  0  0  0  0  0  0  0  0  0  0  0
 23 24  1  0
 24 25  1  0
 24  1  1  0
  1  2  2  0
  2  3  1  0
  3 17  1  0
 17 18  2  0
 18 19  1  0
 19 20  2  0
 20 21  1  0
 21 22  2  0
  3  4  2  0
  4  7  1  0
  7  8  2  0
  8  9  1  0
  9 10  2  0
 10 11  1  0
 11 12  2  0
 12 13  1  0
 13 14  2  0
 14 15  1  0
 15 16  2  0
  4  5  1  0
  5  6  2  0
  6  1  1  0
 22 17  1  0
 16  7  1  0
 15 10  1  0
M  END
> <minimizedAffinity>
-7.34975

> <CNNscore>
0.2360698134

> <CNNaffinity>
5.8945884705

> <CNN_VS>
1.3915344477

> <CNNaffinity_variance>
0.0632654801

$$$$



 25 28  0  0  0  0  0  0  0  0999 V2000
    3.3263   10.9293   18.2578 C   0  0  0  0  0  0  0  0  0  0  0  0
    2.6220    9.7313   18.1923 C   0  0  0  0  0  0  0  0  0  0  0  0
    2.0494    9.1502   19.3397 C   0  0  0  0  0  0  0  0  0  0  0  0
    2.2211    9.8270   20.5528 C   0  0  0  0  0  0  0  0  0  0  0  0
    2.8878   11.0030   20.5946 N   0  0  0  0  0  0  0  0  0  0  0  0
    3.4295   11.5493   19.4487 N   0  0  0  0  0  0  0  0  0  0  0  0
    1.7132    9.3739   21.8597 C   0  0  0  0  0  0  0  0  0  0  0  0
    2.3684    9.6866   23.0601 C   0  0  0  0  0  0  0  0  0  0  0  0
    1.8793    9.2334   24.2894 C   0  0  0  0  0  0  0  0  0  0  0  0
    0.7105    8.4627   24.3556 C   0  0  0  0  0  0  0  0  0  0  0  0
    0.2071    7.9977   25.5814 C   0  0  0  0  0  0  0  0  0  0  0  0
   -0.9616    7.2362   25.6292 C   0  0  0  0  0  0  0  0  0  0  0  0
   -1.6414    6.9318   24.4537 C   0  0  0  0  0  0  0  0  0  0  0  0
   -1.1530    7.3868   23.2279 C   0  0  0  0  0  0  0  0  0  0  0  0
    0.0229    8.1519   23.1626 C   0  0  0  0  0  0  0  0  0  0  0  0
    0.5305    8.6147   21.9357 C   0  0  0  0  0  0  0  0  0  0  0  0
    1.2795    7.9018   19.1962 C   0  0  0  0  0  0  0  0  0  0  0  0
    1.8533    6.6564   19.4782 C   0  0  0  0  0  0  0  0  0  0  0  0
    1.0851    5.5132   19.3248 C   0  0  0  0  0  0  0  0  0  0  0  0
   -0.2028    5.5228   18.9231 N   0  0  0  0  0  0  0  0  0  0  0  0
   -0.7461    6.7287   18.6621 C   0  0  0  0  0  0  0  0  0  0  0  0
   -0.0585    7.9260   18.7831 C   0  0  0  0  0  0  0  0  0  0  0  0
    4.5090   10.5028   16.2164 C   0  0  0  0  0  0  0  0  0  0  0  0
    3.8733   11.4951   17.0838 N   0  0  0  0  0  0  0  0  0  0  0  0
    4.7090   12.6654   17.3636 C   0  0  0  0  0  0  0  0  0  0  0  0
 23 24  1  0
 24 25  1  0
 24  1  1  0
  1  2  2  0
  2  3  1  0
  3 17  1  0
 17 18  2  0
 18 19  1  0
 19 20  2  0
 20 21  1  0
 21 22  2  0
  3  4  2  0
  4  7  1  0
  7  8  2  0
  8  9  1  0
  9 10  2  0
 10 11  1  0
 11 12  2  0
 12 13  1  0
 13 14  2  0
 14 15  1  0
 15 16  2  0
  4  5  1  0
  5  6  2  0
  6  1  1  0
 22 17  1  0
 16  7  1  0
 15 10  1  0
M  END
> <minimizedAffinity>
-6.25673

> <CNNscore>
0.1617974043

> <CNNaffinity>
4.3562464714

> <CNN_VS>
0.7048293948

> <CNNaffinity_variance>
1.1117755175

$$$$



 25 28  0  0  0  0  0  0  0  0999 V2000
   -4.0608    0.7778   20.0274 C   0  0  0  0  0  0  0  0  0  0  0  0
   -3.4594    1.9296   20.5245 C   0  0  0  0  0  0  0  0  0  0  0  0
   -2.6168    1.8925   21.6517 C   0  0  0  0  0  0  0  0  0  0  0  0
   -2.4110    0.6466   22.2555 C   0  0  0  0  0  0  0  0  0  0  0  0
   -2.9840   -0.4671   21.7448 N   0  0  0  0  0  0  0  0  0  0  0  0
   -3.7982   -0.3962   20.6325 N   0  0  0  0  0  0  0  0  0  0  0  0
   -1.5799    0.4054   23.4482 C   0  0  0  0  0  0  0  0  0  0  0  0
   -0.3520   -0.2690   23.3737 C   0  0  0  0  0  0  0  0  0  0  0  0
    0.4148   -0.5023   24.5198 C   0  0  0  0  0  0  0  0  0  0  0  0
   -0.0191   -0.0559   25.7755 C   0  0  0  0  0  0  0  0  0  0  0  0
    0.7373   -0.2837   26.9365 C   0  0  0  0  0  0  0  0  0  0  0  0
    0.2927    0.1731   28.1781 C   0  0  0  0  0  0  0  0  0  0  0  0
   -0.9115    0.8639   28.2740 C   0  0  0  0  0  0  0  0  0  0  0  0
   -1.6743    1.0979   27.1288 C   0  0  0  0  0  0  0  0  0  0  0  0
   -1.2421    0.6425   25.8725 C   0  0  0  0  0  0  0  0  0  0  0  0
   -2.0004    0.8663   24.7097 C   0  0  0  0  0  0  0  0  0  0  0  0
   -1.9767    3.1408   22.1030 C   0  0  0  0  0  0  0  0  0  0  0  0
   -2.6623    4.0623   22.9033 C   0  0  0  0  0  0  0  0  0  0  0  0
   -2.0138    5.2216   23.2983 C   0  0  0  0  0  0  0  0  0  0  0  0
   -0.7416    5.5210   22.9636 N   0  0  0  0  0  0  0  0  0  0  0  0
   -0.0896    4.6222   22.1992 C   0  0  0  0  0  0  0  0  0  0  0  0
   -0.6534    3.4374   21.7527 C   0  0  0  0  0  0  0  0  0  0  0  0
   -6.1220    0.0751   19.0248 C   0  0  0  0  0  0  0  0  0  0  0  0
   -4.8870    0.8470   18.8828 N   0  0  0  0  0  0  0  0  0  0  0  0
   -4.1524    0.5744   17.6450 C   0  0  0  0  0  0  0  0  0  0  0  0
 23 24  1  0
 24 25  1  0
 24  1  1  0
  1  2  2  0
  2  3  1  0
  3 17  1  0
 17 18  2  0
 18 19  1  0
 19 20  2  0
 20 21  1  0
 21 22  2  0
  3  4  2  0
  4  7  1  0
  7  8  2  0
  8  9  1  0
  9 10  2  0
 10 11  1  0
 11 12  2  0
 12 13  1  0
 13 14  2  0
 14 15  1  0
 15 16  2  0
  4  5  1  0
  5  6  2  0
  6  1  1  0
 22 17  1  0
 16  7  1  0
 15 10  1  0
M  END
> <minimizedAffinity>
-7.27603

> <CNNscore>
0.1578030586

> <CNNaffinity>
5.9857897758

> <CNN_VS>
0.9445759058

> <CNNaffinity_variance>
0.2231000513

$$$$
