


 25 27  0  0  0  0  0  0  0  0999 V2000
    0.2823    5.1140   26.5965 C   0  0  0  0  0  0  0  0  0  0  0  0
    0.0209    3.7851   26.8453 C   0  0  0  0  0  0  0  0  0  0  0  0
    0.8006    3.2016   27.8089 C   0  0  0  0  0  0  0  0  0  0  0  0
    1.7613    3.8570   28.4812 N   0  0  0  0  0  0  0  0  0  0  0  0
    1.9580    5.1473   28.1816 C   0  0  0  0  0  0  0  0  0  0  0  0
    1.2456    5.7985   27.2494 N   0  0  0  0  0  0  0  0  0  0  0  0
   -1.0999    7.3488   23.7404 C   0  0  0  0  0  0  0  0  0  0  0  0
   -2.1656    6.8582   24.3235 N   0  0  0  0  0  0  0  0  0  0  0  0
   -1.8116    6.0282   25.3781 C   0  0  0  0  0  0  0  0  0  0  0  0
   -2.9104    5.3882   26.1507 C   0  0  0  0  0  0  0  0  0  0  0  0
   -0.4456    5.9018   25.5971 C   0  0  0  0  0  0  0  0  0  0  0  0
    0.3911    6.8412   24.4227 S   0  0  0  0  0  0  0  0  0  0  0  0
   -2.3754    8.7368   22.2508 C   0  0  0  0  0  0  0  0  0  0  0  0
   -1.1085    8.1889   22.6809 N   0  0  0  0  0  0  0  0  0  0  0  0
   -0.2734    8.4216   22.2143 H   0  0  0  0  0  0  0  0  0  0  0  0
    2.9251    5.9183   28.8192 N   0  0  0  0  0  0  0  0  0  0  0  0
    3.1167    5.6121   29.7350 H   0  0  0  0  0  0  0  0  0  0  0  0
    3.6854    7.0318   28.4476 C   0  0  0  0  0  0  0  0  0  0  0  0
    4.8346    7.4552   29.1234 C   0  0  0  0  0  0  0  0  0  0  0  0
    5.5543    8.5774   28.6972 C   0  0  0  0  0  0  0  0  0  0  0  0
    5.1303    9.2888   27.5849 C   0  0  0  0  0  0  0  0  0  0  0  0
    5.8601   10.3746   27.2044 O   0  0  0  0  0  0  0  0  0  0  0  0
    3.9958    8.8958   26.8892 C   0  0  0  0  0  0  0  0  0  0  0  0
    3.2819    7.7728   27.3219 C   0  0  0  0  0  0  0  0  0  0  0  0
    6.6226   10.6203   27.6904 H   0  0  0  0  0  0  0  0  0  0  0  0
 13 14  1  0
 14  7  1  0
  7  8  2  0
  8  9  1  0
  9 10  1  0
  9 11  2  0
 11  1  1  0
  1  2  2  0
  2  3  1  0
  3  4  2  0
  4  5  1  0
  5 16  1  0
 16 18  1  0
 18 19  2  0
 19 20  1  0
 20 21  2  0
 21 22  1  0
 21 23  1  0
 23 24  2  0
  5  6  2  0
 11 12  1  0
 12  7  1  0
  6  1  1  0
 24 18  1  0
 14 15  1  0
 16 17  1  0
 22 25  1  0
M  END
> <minimizedAffinity>
-9.54668

> <CNNscore>
0.9949392676

> <CNNaffinity>
7.6010880470

> <CNN_VS>
7.5626211166

> <CNNaffinity_variance>
0.0211775284

$$$$



 25 27  0  0  0  0  0  0  0  0999 V2000
    0.7051    5.8706   26.7892 C   0  0  0  0  0  0  0  0  0  0  0  0
    0.7262    4.7163   27.5396 C   0  0  0  0  0  0  0  0  0  0  0  0
    1.8108    4.5691   28.3636 C   0  0  0  0  0  0  0  0  0  0  0  0
    2.8005    5.4730   28.4537 N   0  0  0  0  0  0  0  0  0  0  0  0
    2.7103    6.5695   27.6903 C   0  0  0  0  0  0  0  0  0  0  0  0
    1.6876    6.7945   26.8513 N   0  0  0  0  0  0  0  0  0  0  0  0
   -1.8188    7.2251   24.1704 C   0  0  0  0  0  0  0  0  0  0  0  0
   -2.3267    6.0823   24.5609 N   0  0  0  0  0  0  0  0  0  0  0  0
   -1.5130    5.4810   25.5110 C   0  0  0  0  0  0  0  0  0  0  0  0
   -1.9494    4.1697   26.0622 C   0  0  0  0  0  0  0  0  0  0  0  0
   -0.3711    6.1967   25.8485 C   0  0  0  0  0  0  0  0  0  0  0  0
   -0.3326    7.6450   24.9195 S   0  0  0  0  0  0  0  0  0  0  0  0
   -1.5188    8.5965   22.2206 C   0  0  0  0  0  0  0  0  0  0  0  0
   -2.3713    8.0502   23.2525 N   0  0  0  0  0  0  0  0  0  0  0  0
   -3.3296    8.2732   23.2861 H   0  0  0  0  0  0  0  0  0  0  0  0
    3.6791    7.5682   27.7083 N   0  0  0  0  0  0  0  0  0  0  0  0
    3.6746    8.1209   26.8935 H   0  0  0  0  0  0  0  0  0  0  0  0
    4.6577    7.9611   28.6269 C   0  0  0  0  0  0  0  0  0  0  0  0
    5.6325    8.9295   28.3651 C   0  0  0  0  0  0  0  0  0  0  0  0
    6.5828    9.2812   29.3306 C   0  0  0  0  0  0  0  0  0  0  0  0
    6.5657    8.6660   30.5733 C   0  0  0  0  0  0  0  0  0  0  0  0
    7.5086    9.0382   31.4837 O   0  0  0  0  0  0  0  0  0  0  0  0
    5.6115    7.7026   30.8681 C   0  0  0  0  0  0  0  0  0  0  0  0
    4.6650    7.3567   29.8971 C   0  0  0  0  0  0  0  0  0  0  0  0
    8.1427    9.6912   31.2612 H   0  0  0  0  0  0  0  0  0  0  0  0
 13 14  1  0
 14  7  1  0
  7  8  2  0
  8  9  1  0
  9 10  1  0
  9 11  2  0
 11  1  1  0
  1  2  2  0
  2  3  1  0
  3  4  2  0
  4  5  1  0
  5 16  1  0
 16 18  1  0
 18 19  2  0
 19 20  1  0
 20 21  2  0
 21 22  1  0
 21 23  1  0
 23 24  2  0
  5  6  2  0
 11 12  1  0
 12  7  1  0
  6  1  1  0
 24 18  1  0
 14 15  1  0
 16 17  1  0
 22 25  1  0
M  END
> <minimizedAffinity>
-8.18311

> <CNNscore>
0.8760406971

> <CNNaffinity>
7.3304896355

> <CNN_VS>
6.4218072891

> <CNNaffinity_variance>
0.1047014371

$$$$



 25 27  0  0  0  0  0  0  0  0999 V2000
    0.1009    5.8853   26.2836 C   0  0  0  0  0  0  0  0  0  0  0  0
   -0.4726    4.6867   26.6449 C   0  0  0  0  0  0  0  0  0  0  0  0
   -1.6257    4.3613   25.9804 C   0  0  0  0  0  0  0  0  0  0  0  0
   -2.1811    5.1390   25.0364 N   0  0  0  0  0  0  0  0  0  0  0  0
   -1.5659    6.2913   24.7413 C   0  0  0  0  0  0  0  0  0  0  0  0
   -0.4364    6.6927   25.3443 N   0  0  0  0  0  0  0  0  0  0  0  0
    3.3167    6.7808   28.2631 C   0  0  0  0  0  0  0  0  0  0  0  0
    3.2443    7.6870   27.3198 N   0  0  0  0  0  0  0  0  0  0  0  0
    2.1246    7.4824   26.5256 C   0  0  0  0  0  0  0  0  0  0  0  0
    1.8929    8.4309   25.4029 C   0  0  0  0  0  0  0  0  0  0  0  0
    1.3323    6.4009   26.8895 C   0  0  0  0  0  0  0  0  0  0  0  0
    2.0455    5.6275   28.2515 S   0  0  0  0  0  0  0  0  0  0  0  0
    5.2337    7.7968   29.2951 C   0  0  0  0  0  0  0  0  0  0  0  0
    4.2912    6.7049   29.1975 N   0  0  0  0  0  0  0  0  0  0  0  0
    4.3573    5.9260   29.7960 H   0  0  0  0  0  0  0  0  0  0  0  0
   -2.0554    7.1687   23.7786 N   0  0  0  0  0  0  0  0  0  0  0  0
   -2.8668    6.8342   23.3326 H   0  0  0  0  0  0  0  0  0  0  0  0
   -1.6503    8.4204   23.3040 C   0  0  0  0  0  0  0  0  0  0  0  0
   -1.3371    9.5058   24.1289 C   0  0  0  0  0  0  0  0  0  0  0  0
   -0.9331   10.7329   23.5904 C   0  0  0  0  0  0  0  0  0  0  0  0
   -0.8365   10.8859   22.2155 C   0  0  0  0  0  0  0  0  0  0  0  0
   -0.4394   12.0969   21.7336 O   0  0  0  0  0  0  0  0  0  0  0  0
   -1.1373    9.8296   21.3674 C   0  0  0  0  0  0  0  0  0  0  0  0
   -1.5406    8.6061   21.9139 C   0  0  0  0  0  0  0  0  0  0  0  0
   -0.2417   12.7951   22.3264 H   0  0  0  0  0  0  0  0  0  0  0  0
 13 14  1  0
 14  7  1  0
  7  8  2  0
  8  9  1  0
  9 10  1  0
  9 11  2  0
 11  1  1  0
  1  2  2  0
  2  3  1  0
  3  4  2  0
  4  5  1  0
  5 16  1  0
 16 18  1  0
 18 19  2  0
 19 20  1  0
 20 21  2  0
 21 22  1  0
 21 23  1  0
 23 24  2  0
  5  6  2  0
 11 12  1  0
 12  7  1  0
  6  1  1  0
 24 18  1  0
 14 15  1  0
 16 17  1  0
 22 25  1  0
M  END
> <minimizedAffinity>
-8.11914

> <CNNscore>
0.6911026239

> <CNNaffinity>
6.9740371704

> <CNN_VS>
4.8197755814

> <CNNaffinity_variance>
0.0237861276

$$$$



 25 27  0  0  0  0  0  0  0  0999 V2000
   -0.7063    9.1557   23.9420 C   0  0  0  0  0  0  0  0  0  0  0  0
   -1.6123    9.4434   22.9458 C   0  0  0  0  0  0  0  0  0  0  0  0
   -2.6957    8.6078   22.8755 C   0  0  0  0  0  0  0  0  0  0  0  0
   -2.8870    7.5714   23.7086 N   0  0  0  0  0  0  0  0  0  0  0  0
   -1.9605    7.3539   24.6507 C   0  0  0  0  0  0  0  0  0  0  0  0
   -0.8658    8.1174   24.7901 N   0  0  0  0  0  0  0  0  0  0  0  0
    2.2557   11.6491   24.2105 C   0  0  0  0  0  0  0  0  0  0  0  0
    2.6279   10.6135   24.9213 N   0  0  0  0  0  0  0  0  0  0  0  0
    1.6471    9.6316   24.9116 C   0  0  0  0  0  0  0  0  0  0  0  0
    1.9146    8.3822   25.6740 C   0  0  0  0  0  0  0  0  0  0  0  0
    0.5150    9.9353   24.1659 C   0  0  0  0  0  0  0  0  0  0  0  0
    0.7046   11.5064   23.4895 S   0  0  0  0  0  0  0  0  0  0  0  0
    3.0290   13.7465   25.0910 C   0  0  0  0  0  0  0  0  0  0  0  0
    2.9879   12.7707   24.0251 N   0  0  0  0  0  0  0  0  0  0  0  0
    3.4805   12.9190   23.1856 H   0  0  0  0  0  0  0  0  0  0  0  0
   -2.0624    6.3100   25.5650 N   0  0  0  0  0  0  0  0  0  0  0  0
   -2.9865    6.1534   25.8662 H   0  0  0  0  0  0  0  0  0  0  0  0
   -1.1433    5.4337   26.1511 C   0  0  0  0  0  0  0  0  0  0  0  0
    0.0094    5.8468   26.8274 C   0  0  0  0  0  0  0  0  0  0  0  0
    0.8881    4.9178   27.3965 C   0  0  0  0  0  0  0  0  0  0  0  0
    0.6200    3.5610   27.2955 C   0  0  0  0  0  0  0  0  0  0  0  0
    1.5015    2.6913   27.8638 O   0  0  0  0  0  0  0  0  0  0  0  0
   -0.5155    3.1159   26.6336 C   0  0  0  0  0  0  0  0  0  0  0  0
   -1.3889    4.0512   26.0674 C   0  0  0  0  0  0  0  0  0  0  0  0
    2.2614    3.0161   28.3054 H   0  0  0  0  0  0  0  0  0  0  0  0
 13 14  1  0
 14  7  1  0
  7  8  2  0
  8  9  1  0
  9 10  1  0
  9 11  2  0
 11  1  1  0
  1  2  2  0
  2  3  1  0
  3  4  2  0
  4  5  1  0
  5 16  1  0
 16 18  1  0
 18 19  2  0
 19 20  1  0
 20 21  2  0
 21 22  1  0
 21 23  1  0
 23 24  2  0
  5  6  2  0
 11 12  1  0
 12  7  1  0
  6  1  1  0
 24 18  1  0
 14 15  1  0
 16 17  1  0
 22 25  1  0
M  END
> <minimizedAffinity>
-8.45124

> <CNNscore>
0.4421964884

> <CNNaffinity>
6.0601906776

> <CNN_VS>
2.6797950268

> <CNNaffinity_variance>
0.1878612041

$$$$



 25 27  0  0  0  0  0  0  0  0999 V2000
   -0.5959    6.8745   25.2091 C   0  0  0  0  0  0  0  0  0  0  0  0
   -1.3087    5.7274   24.9406 C   0  0  0  0  0  0  0  0  0  0  0  0
   -1.0074    4.6485   25.7293 C   0  0  0  0  0  0  0  0  0  0  0  0
   -0.0847    4.6791   26.7052 N   0  0  0  0  0  0  0  0  0  0  0  0
    0.5690    5.8307   26.9047 C   0  0  0  0  0  0  0  0  0  0  0  0
    0.3429    6.9355   26.1775 N   0  0  0  0  0  0  0  0  0  0  0  0
   -1.5710    9.9238   23.0151 C   0  0  0  0  0  0  0  0  0  0  0  0
   -0.4988   10.3093   23.6618 N   0  0  0  0  0  0  0  0  0  0  0  0
   -0.0375    9.3003   24.4957 C   0  0  0  0  0  0  0  0  0  0  0  0
    1.1805    9.5770   25.3043 C   0  0  0  0  0  0  0  0  0  0  0  0
   -0.7775    8.1249   24.4655 C   0  0  0  0  0  0  0  0  0  0  0  0
   -2.0904    8.3271   23.3714 S   0  0  0  0  0  0  0  0  0  0  0  0
   -1.6667   10.9261   20.8337 C   0  0  0  0  0  0  0  0  0  0  0  0
   -2.2595   10.6779   22.1287 N   0  0  0  0  0  0  0  0  0  0  0  0
   -3.1420   11.0484   22.3593 H   0  0  0  0  0  0  0  0  0  0  0  0
    1.5419    5.9710   27.8896 N   0  0  0  0  0  0  0  0  0  0  0  0
    1.3762    5.4017   28.6755 H   0  0  0  0  0  0  0  0  0  0  0  0
    2.7028    6.7414   28.0108 C   0  0  0  0  0  0  0  0  0  0  0  0
    3.1968    7.5756   27.0025 C   0  0  0  0  0  0  0  0  0  0  0  0
    4.3640    8.3252   27.1887 C   0  0  0  0  0  0  0  0  0  0  0  0
    5.0501    8.2485   28.3914 C   0  0  0  0  0  0  0  0  0  0  0  0
    6.1814    8.9949   28.5305 O   0  0  0  0  0  0  0  0  0  0  0  0
    4.5873    7.4329   29.4143 C   0  0  0  0  0  0  0  0  0  0  0  0
    3.4197    6.6866   29.2199 C   0  0  0  0  0  0  0  0  0  0  0  0
    6.4739    9.5381   27.8253 H   0  0  0  0  0  0  0  0  0  0  0  0
 13 14  1  0
 14  7  1  0
  7  8  2  0
  8  9  1  0
  9 10  1  0
  9 11  2  0
 11  1  1  0
  1  2  2  0
  2  3  1  0
  3  4  2  0
  4  5  1  0
  5 16  1  0
 16 18  1  0
 18 19  2  0
 19 20  1  0
 20 21  2  0
 21 22  1  0
 21 23  1  0
 23 24  2  0
  5  6  2  0
 11 12  1  0
 12  7  1  0
  6  1  1  0
 24 18  1  0
 14 15  1  0
 16 17  1  0
 22 25  1  0
M  END
> <minimizedAffinity>
-7.96865

> <CNNscore>
0.3936499655

> <CNNaffinity>
6.3528671265

> <CNN_VS>
2.5008058548

> <CNNaffinity_variance>
0.0373574495

$$$$



 25 27  0  0  0  0  0  0  0  0999 V2000
    0.4618    6.7431   25.9007 C   0  0  0  0  0  0  0  0  0  0  0  0
   -0.4972    5.8644   26.3526 C   0  0  0  0  0  0  0  0  0  0  0  0
   -1.5965    5.7265   25.5467 C   0  0  0  0  0  0  0  0  0  0  0  0
   -1.7543    6.3901   24.3894 N   0  0  0  0  0  0  0  0  0  0  0  0
   -0.7790    7.2292   24.0177 C   0  0  0  0  0  0  0  0  0  0  0  0
    0.3297    7.4306   24.7463 N   0  0  0  0  0  0  0  0  0  0  0  0
    3.6271    6.9759   28.1344 C   0  0  0  0  0  0  0  0  0  0  0  0
    3.7091    8.0095   27.3335 N   0  0  0  0  0  0  0  0  0  0  0  0
    2.6248    8.0488   26.4679 C   0  0  0  0  0  0  0  0  0  0  0  0
    2.5642    9.1675   25.4890 C   0  0  0  0  0  0  0  0  0  0  0  0
    1.7015    7.0237   26.6314 C   0  0  0  0  0  0  0  0  0  0  0  0
    2.2439    5.9883   27.8945 S   0  0  0  0  0  0  0  0  0  0  0  0
    5.2700    7.7286   29.7176 C   0  0  0  0  0  0  0  0  0  0  0  0
    4.5290    6.6574   29.0902 N   0  0  0  0  0  0  0  0  0  0  0  0
    4.6773    5.7201   29.3521 H   0  0  0  0  0  0  0  0  0  0  0  0
   -0.8413    7.9635   22.8374 N   0  0  0  0  0  0  0  0  0  0  0  0
    0.0189    7.9942   22.3596 H   0  0  0  0  0  0  0  0  0  0  0  0
   -1.8548    8.6675   22.1793 C   0  0  0  0  0  0  0  0  0  0  0  0
   -3.1821    8.7202   22.6175 C   0  0  0  0  0  0  0  0  0  0  0  0
   -4.1494    9.4477   21.9145 C   0  0  0  0  0  0  0  0  0  0  0  0
   -3.7960   10.1339   20.7624 C   0  0  0  0  0  0  0  0  0  0  0  0
   -4.7686   10.8293   20.1091 O   0  0  0  0  0  0  0  0  0  0  0  0
   -2.4880   10.1053   20.3001 C   0  0  0  0  0  0  0  0  0  0  0  0
   -1.5270    9.3755   21.0088 C   0  0  0  0  0  0  0  0  0  0  0  0
   -5.6448   10.8335   20.4409 H   0  0  0  0  0  0  0  0  0  0  0  0
 13 14  1  0
 14  7  1  0
  7  8  2  0
  8  9  1  0
  9 10  1  0
  9 11  2  0
 11  1  1  0
  1  2  2  0
  2  3  1  0
  3  4  2  0
  4  5  1  0
  5 16  1  0
 16 18  1  0
 18 19  2  0
 19 20  1  0
 20 21  2  0
 21 22  1  0
 21 23  1  0
 23 24  2  0
  5  6  2  0
 11 12  1  0
 12  7  1  0
  6  1  1  0
 24 18  1  0
 14 15  1  0
 16 17  1  0
 22 25  1  0
M  END
> <minimizedAffinity>
-8.13978

> <CNNscore>
0.3070981205

> <CNNaffinity>
6.1793732643

> <CNN_VS>
1.8976739645

> <CNNaffinity_variance>
0.1305866688

$$$$



 25 27  0  0  0  0  0  0  0  0999 V2000
   -2.3183    8.8898   22.8729 C   0  0  0  0  0  0  0  0  0  0  0  0
   -1.3243    9.8012   23.1512 C   0  0  0  0  0  0  0  0  0  0  0  0
   -0.4711    9.4514   24.1644 C   0  0  0  0  0  0  0  0  0  0  0  0
   -0.5735    8.3042   24.8560 N   0  0  0  0  0  0  0  0  0  0  0  0
   -1.5680    7.4694   24.5286 C   0  0  0  0  0  0  0  0  0  0  0  0
   -2.4526    7.7320   23.5543 N   0  0  0  0  0  0  0  0  0  0  0  0
   -4.6231    9.1007   19.7575 C   0  0  0  0  0  0  0  0  0  0  0  0
   -5.2727    9.7447   20.6954 N   0  0  0  0  0  0  0  0  0  0  0  0
   -4.5518    9.7461   21.8814 C   0  0  0  0  0  0  0  0  0  0  0  0
   -5.1519   10.4410   23.0522 C   0  0  0  0  0  0  0  0  0  0  0  0
   -3.3258    9.0950   21.8278 C   0  0  0  0  0  0  0  0  0  0  0  0
   -3.1084    8.4566   20.2445 S   0  0  0  0  0  0  0  0  0  0  0  0
   -4.9729    7.5965   17.9170 C   0  0  0  0  0  0  0  0  0  0  0  0
   -5.0594    8.9209   18.4903 N   0  0  0  0  0  0  0  0  0  0  0  0
   -5.4267    9.6726   17.9714 H   0  0  0  0  0  0  0  0  0  0  0  0
   -1.7626    6.2551   25.1797 N   0  0  0  0  0  0  0  0  0  0  0  0
   -2.6837    5.9181   25.0945 H   0  0  0  0  0  0  0  0  0  0  0  0
   -0.9399    5.4072   25.9282 C   0  0  0  0  0  0  0  0  0  0  0  0
    0.1581    5.8434   26.6771 C   0  0  0  0  0  0  0  0  0  0  0  0
    0.9401    4.9427   27.4094 C   0  0  0  0  0  0  0  0  0  0  0  0
    0.6286    3.5915   27.4008 C   0  0  0  0  0  0  0  0  0  0  0  0
    1.4158    2.7496   28.1274 O   0  0  0  0  0  0  0  0  0  0  0  0
   -0.4550    3.1241   26.6708 C   0  0  0  0  0  0  0  0  0  0  0  0
   -1.2316    4.0311   25.9413 C   0  0  0  0  0  0  0  0  0  0  0  0
    2.1421    3.0891   28.6124 H   0  0  0  0  0  0  0  0  0  0  0  0
 13 14  1  0
 14  7  1  0
  7  8  2  0
  8  9  1  0
  9 10  1  0
  9 11  2  0
 11  1  1  0
  1  2  2  0
  2  3  1  0
  3  4  2  0
  4  5  1  0
  5 16  1  0
 16 18  1  0
 18 19  2  0
 19 20  1  0
 20 21  2  0
 21 22  1  0
 21 23  1  0
 23 24  2  0
  5  6  2  0
 11 12  1  0
 12  7  1  0
  6  1  1  0
 24 18  1  0
 14 15  1  0
 16 17  1  0
 22 25  1  0
M  END
> <minimizedAffinity>
-9.78012

> <CNNscore>
0.2572784126

> <CNNaffinity>
5.4990296364

> <CNN_VS>
1.4147815704

> <CNNaffinity_variance>
0.5478035808

$$$$



 25 27  0  0  0  0  0  0  0  0999 V2000
   -0.5658    9.2390   23.9595 C   0  0  0  0  0  0  0  0  0  0  0  0
   -1.4165    9.7220   22.9904 C   0  0  0  0  0  0  0  0  0  0  0  0
   -2.5138    8.9444   22.7289 C   0  0  0  0  0  0  0  0  0  0  0  0
   -2.7676    7.7857   23.3595 N   0  0  0  0  0  0  0  0  0  0  0  0
   -1.8923    7.3805   24.2884 C   0  0  0  0  0  0  0  0  0  0  0  0
   -0.7888    8.0749   24.6059 N   0  0  0  0  0  0  0  0  0  0  0  0
    2.8106   10.5635   25.3409 C   0  0  0  0  0  0  0  0  0  0  0  0
    2.3578   11.5330   24.5848 N   0  0  0  0  0  0  0  0  0  0  0  0
    1.1385   11.1876   24.0190 C   0  0  0  0  0  0  0  0  0  0  0  0
    0.4840   12.1846   23.1294 C   0  0  0  0  0  0  0  0  0  0  0  0
    0.6604    9.9308   24.3683 C   0  0  0  0  0  0  0  0  0  0  0  0
    1.7998    9.1783   25.4159 S   0  0  0  0  0  0  0  0  0  0  0  0
    4.2439    9.5200   26.9623 C   0  0  0  0  0  0  0  0  0  0  0  0
    3.9743   10.5905   26.0288 N   0  0  0  0  0  0  0  0  0  0  0  0
    4.6216   11.3207   25.8974 H   0  0  0  0  0  0  0  0  0  0  0  0
   -2.0610    6.1976   25.0015 N   0  0  0  0  0  0  0  0  0  0  0  0
   -2.9820    5.8525   24.9585 H   0  0  0  0  0  0  0  0  0  0  0  0
   -1.2124    5.3902   25.7658 C   0  0  0  0  0  0  0  0  0  0  0  0
   -0.1109    5.8706   26.4816 C   0  0  0  0  0  0  0  0  0  0  0  0
    0.6977    5.0092   27.2322 C   0  0  0  0  0  0  0  0  0  0  0  0
    0.4096    3.6534   27.2752 C   0  0  0  0  0  0  0  0  0  0  0  0
    1.2223    2.8507   28.0179 O   0  0  0  0  0  0  0  0  0  0  0  0
   -0.6767    3.1428   26.5791 C   0  0  0  0  0  0  0  0  0  0  0  0
   -1.4800    4.0107   25.8310 C   0  0  0  0  0  0  0  0  0  0  0  0
    1.9499    3.2190   28.4793 H   0  0  0  0  0  0  0  0  0  0  0  0
 13 14  1  0
 14  7  1  0
  7  8  2  0
  8  9  1  0
  9 10  1  0
  9 11  2  0
 11  1  1  0
  1  2  2  0
  2  3  1  0
  3  4  2  0
  4  5  1  0
  5 16  1  0
 16 18  1  0
 18 19  2  0
 19 20  1  0
 20 21  2  0
 21 22  1  0
 21 23  1  0
 23 24  2  0
  5  6  2  0
 11 12  1  0
 12  7  1  0
  6  1  1  0
 24 18  1  0
 14 15  1  0
 16 17  1  0
 22 25  1  0
M  END
> <minimizedAffinity>
-8.68108

> <CNNscore>
0.2489636242

> <CNNaffinity>
5.7978072166

> <CNN_VS>
1.4434430599

> <CNNaffinity_variance>
0.3226146400

$$$$



 25 27  0  0  0  0  0  0  0  0999 V2000
    2.5395    6.3576   27.7359 C   0  0  0  0  0  0  0  0  0  0  0  0
    2.4711    5.1405   28.3761 C   0  0  0  0  0  0  0  0  0  0  0  0
    1.3629    4.3868   28.0920 C   0  0  0  0  0  0  0  0  0  0  0  0
    0.3937    4.7829   27.2503 N   0  0  0  0  0  0  0  0  0  0  0  0
    0.5300    5.9808   26.6675 C   0  0  0  0  0  0  0  0  0  0  0  0
    1.5787    6.7877   26.8905 N   0  0  0  0  0  0  0  0  0  0  0  0
    5.6257    8.5073   28.6931 C   0  0  0  0  0  0  0  0  0  0  0  0
    5.1427    9.0799   27.6182 N   0  0  0  0  0  0  0  0  0  0  0  0
    4.0202    8.4030   27.1621 C   0  0  0  0  0  0  0  0  0  0  0  0
    3.3461    8.9278   25.9440 C   0  0  0  0  0  0  0  0  0  0  0  0
    3.6466    7.3007   27.9208 C   0  0  0  0  0  0  0  0  0  0  0  0
    4.7618    7.1207   29.2192 S   0  0  0  0  0  0  0  0  0  0  0  0
    6.5146    9.6630   30.6027 C   0  0  0  0  0  0  0  0  0  0  0  0
    6.7156    8.9254   29.3757 N   0  0  0  0  0  0  0  0  0  0  0  0
    7.6228    8.7325   29.0454 H   0  0  0  0  0  0  0  0  0  0  0  0
   -0.4141    6.4855   25.7785 N   0  0  0  0  0  0  0  0  0  0  0  0
   -1.1680    5.8700   25.6301 H   0  0  0  0  0  0  0  0  0  0  0  0
   -0.5297    7.6732   25.0491 C   0  0  0  0  0  0  0  0  0  0  0  0
   -0.0922    8.9195   25.5094 C   0  0  0  0  0  0  0  0  0  0  0  0
   -0.2333   10.0716   24.7272 C   0  0  0  0  0  0  0  0  0  0  0  0
   -0.8143    9.9871   23.4709 C   0  0  0  0  0  0  0  0  0  0  0  0
   -0.9321   11.1328   22.7429 O   0  0  0  0  0  0  0  0  0  0  0  0
   -1.2575    8.7665   22.9817 C   0  0  0  0  0  0  0  0  0  0  0  0
   -1.1128    7.6195   23.7700 C   0  0  0  0  0  0  0  0  0  0  0  0
   -0.6253   11.9451   23.0948 H   0  0  0  0  0  0  0  0  0  0  0  0
 13 14  1  0
 14  7  1  0
  7  8  2  0
  8  9  1  0
  9 10  1  0
  9 11  2  0
 11  1  1  0
  1  2  2  0
  2  3  1  0
  3  4  2  0
  4  5  1  0
  5 16  1  0
 16 18  1  0
 18 19  2  0
 19 20  1  0
 20 21  2  0
 21 22  1  0
 21 23  1  0
 23 24  2  0
  5  6  2  0
 11 12  1  0
 12  7  1  0
  6  1  1  0
 24 18  1  0
 14 15  1  0
 16 17  1  0
 22 25  1  0
M  END
> <minimizedAffinity>
-8.03967

> <CNNscore>
0.2486991584

> <CNNaffinity>
5.9607868195

> <CNN_VS>
1.4824426174

> <CNNaffinity_variance>
0.1744000167

$$$$
