


 26 26  0  0  0  0  0  0  0  0999 V2000
   -1.4615   35.7637  101.9483 C   0  0  0  0  0  0  0  0  0  0  0  0
   -0.0649   35.9306  101.7937 C   0  0  0  0  0  0  0  0  0  0  0  0
    0.5086   35.7153  100.5265 C   0  0  0  0  0  0  0  0  0  0  0  0
   -0.2981   35.3696   99.4343 C   0  0  0  0  0  0  0  0  0  0  0  0
   -1.6740   35.2465   99.5491 C   0  0  0  0  0  0  0  0  0  0  0  0
   -2.7076   34.8897   98.2141 Cl  0  0  0  0  0  0  0  0  0  0  0  0
   -2.2377   35.4517  100.8088 C   0  0  0  0  0  0  0  0  0  0  0  0
   -3.5712   35.3676  100.9452 F   0  0  0  0  0  0  0  0  0  0  0  0
    0.3494   35.1606   98.1628 N   0  0  0  0  0  0  0  0  0  0  0  0
    0.5186   33.9898   97.8015 O   0  0  0  0  0  0  0  0  0  0  0  0
    0.7284   36.1718   97.5582 O   0  0  0  0  0  0  0  0  0  0  0  0
   -2.1790   35.9384  103.2783 C   0  0  0  0  0  0  0  0  0  0  0  0
   -1.3720   33.6253  103.6055 N   0  0  0  0  0  0  0  0  0  0  0  0
   -2.2806   34.6712  104.1521 C   0  0  0  0  0  0  0  0  0  0  0  0
   -0.4171   33.9831  103.5818 H   0  0  0  0  0  0  0  0  0  0  0  0
   -1.6664   33.3793  102.6604 H   0  0  0  0  0  0  0  0  0  0  0  0
   -3.7286   34.1638  104.2012 C   0  0  0  0  0  0  0  0  0  0  0  0
   -4.6253   34.4578  103.4267 O   0  0  0  0  0  0  0  0  0  0  0  0
   -3.9630   33.2797  105.1977 O   0  0  0  0  0  0  0  0  0  0  0  0
   -3.2764   33.0524  105.7935 H   0  0  0  0  0  0  0  0  0  0  0  0
    0.8671   36.3283  102.9212 C   0  0  0  0  0  0  0  0  0  0  0  0
    2.0253   37.1980  102.4409 C   0  0  0  0  0  0  0  0  0  0  0  0
    1.6442   38.6509  102.4413 C   0  0  0  0  0  0  0  0  0  0  0  0
    1.8677   39.4738  101.5715 O   0  0  0  0  0  0  0  0  0  0  0  0
    0.9930   38.9990  103.5682 O   0  0  0  0  0  0  0  0  0  0  0  0
    0.8266   38.3573  104.2304 H   0  0  0  0  0  0  0  0  0  0  0  0
 14 13  1  0
 14 12  1  0
 12  1  1  0
  1  2  2  0
  2 21  1  0
 21 22  1  0
 22 23  1  0
 23 24  2  0
 23 25  1  0
  2  3  1  0
  3  4  2  0
  4  9  1  0
  9 10  2  0
  9 11  1  0
  4  5  1  0
  5  6  1  0
  5  7  2  0
  7  8  1  0
 14 17  1  0
 17 18  2  0
 17 19  1  0
  7  1  1  0
 13 15  1  0
 13 16  1  0
 25 26  1  0
 19 20  1  0
M  CHG 1   9   1
M  CHG 1  11  -1
M  END
> <minimizedAffinity>
-8.11371

> <CNNscore>
0.8117275834

> <CNNaffinity>
6.2257676125

> <CNN_VS>
5.0536274910

> <CNNaffinity_variance>
0.1985209435

$$$$



 26 26  0  0  0  0  0  0  0  0999 V2000
   -1.0328   35.8183  102.5364 C   0  0  0  0  0  0  0  0  0  0  0  0
    0.3762   35.8060  102.6651 C   0  0  0  0  0  0  0  0  0  0  0  0
    1.1036   36.9466  102.2765 C   0  0  0  0  0  0  0  0  0  0  0  0
    0.4365   38.0821  101.7979 C   0  0  0  0  0  0  0  0  0  0  0  0
   -0.9456   38.1363  101.7070 C   0  0  0  0  0  0  0  0  0  0  0  0
   -1.8063   39.5389  101.1877 Cl  0  0  0  0  0  0  0  0  0  0  0  0
   -1.6625   37.0005  102.0845 C   0  0  0  0  0  0  0  0  0  0  0  0
   -3.0043   37.0329  102.0346 F   0  0  0  0  0  0  0  0  0  0  0  0
    1.2379   39.2179  101.4141 N   0  0  0  0  0  0  0  0  0  0  0  0
    0.7035   40.3318  101.4748 O   0  0  0  0  0  0  0  0  0  0  0  0
    2.3821   38.9798  101.0072 O   0  0  0  0  0  0  0  0  0  0  0  0
   -1.9122   34.6298  102.8948 C   0  0  0  0  0  0  0  0  0  0  0  0
   -1.7472   34.0408  105.2895 N   0  0  0  0  0  0  0  0  0  0  0  0
   -2.6064   34.7053  104.2703 C   0  0  0  0  0  0  0  0  0  0  0  0
   -0.8333   34.4931  105.3108 H   0  0  0  0  0  0  0  0  0  0  0  0
   -1.6338   33.0561  105.0488 H   0  0  0  0  0  0  0  0  0  0  0  0
   -3.9921   34.0472  104.2128 C   0  0  0  0  0  0  0  0  0  0  0  0
   -4.9407   34.4151  103.5381 O   0  0  0  0  0  0  0  0  0  0  0  0
   -4.0996   32.9352  104.9753 O   0  0  0  0  0  0  0  0  0  0  0  0
   -3.3730   32.6508  105.4940 H   0  0  0  0  0  0  0  0  0  0  0  0
    1.1645   34.6261  103.1986 C   0  0  0  0  0  0  0  0  0  0  0  0
    2.4719   34.4086  102.4424 C   0  0  0  0  0  0  0  0  0  0  0  0
    3.3310   33.3891  103.1343 C   0  0  0  0  0  0  0  0  0  0  0  0
    4.3070   32.8165  102.6832 O   0  0  0  0  0  0  0  0  0  0  0  0
    2.8995   33.1340  104.3848 O   0  0  0  0  0  0  0  0  0  0  0  0
    2.1475   33.5806  104.7212 H   0  0  0  0  0  0  0  0  0  0  0  0
 14 13  1  0
 14 12  1  0
 12  1  1  0
  1  2  2  0
  2 21  1  0
 21 22  1  0
 22 23  1  0
 23 24  2  0
 23 25  1  0
  2  3  1  0
  3  4  2  0
  4  9  1  0
  9 10  2  0
  9 11  1  0
  4  5  1  0
  5  6  1  0
  5  7  2  0
  7  8  1  0
 14 17  1  0
 17 18  2  0
 17 19  1  0
  7  1  1  0
 13 15  1  0
 13 16  1  0
 25 26  1  0
 19 20  1  0
M  CHG 1   9   1
M  CHG 1  11  -1
M  END
> <minimizedAffinity>
-8.11344

> <CNNscore>
0.7772964835

> <CNNaffinity>
6.4173903465

> <CNN_VS>
4.9882149696

> <CNNaffinity_variance>
0.0611291416

$$$$



 26 26  0  0  0  0  0  0  0  0999 V2000
   -1.5860   35.6272  101.9201 C   0  0  0  0  0  0  0  0  0  0  0  0
   -0.1746   35.6269  101.8189 C   0  0  0  0  0  0  0  0  0  0  0  0
    0.4157   35.4313  100.5562 C   0  0  0  0  0  0  0  0  0  0  0  0
   -0.3855   35.2687   99.4182 C   0  0  0  0  0  0  0  0  0  0  0  0
   -1.7694   35.3126   99.4837 C   0  0  0  0  0  0  0  0  0  0  0  0
   -2.7876   35.1849   98.0963 Cl  0  0  0  0  0  0  0  0  0  0  0  0
   -2.3509   35.4974  100.7383 C   0  0  0  0  0  0  0  0  0  0  0  0
   -3.6887   35.5730  100.8295 F   0  0  0  0  0  0  0  0  0  0  0  0
    0.2791   35.0704   98.1538 N   0  0  0  0  0  0  0  0  0  0  0  0
    0.3616   33.9092   97.7359 O   0  0  0  0  0  0  0  0  0  0  0  0
    0.7574   36.0753   97.6127 O   0  0  0  0  0  0  0  0  0  0  0  0
   -2.3264   35.7963  103.2381 C   0  0  0  0  0  0  0  0  0  0  0  0
   -1.6061   33.4490  103.5210 N   0  0  0  0  0  0  0  0  0  0  0  0
   -2.4760   34.5171  104.0873 C   0  0  0  0  0  0  0  0  0  0  0  0
   -0.6385   33.7715  103.5047 H   0  0  0  0  0  0  0  0  0  0  0  0
   -1.9083   33.2323  102.5712 H   0  0  0  0  0  0  0  0  0  0  0  0
   -3.9418   34.0629  104.1260 C   0  0  0  0  0  0  0  0  0  0  0  0
   -4.4255   33.2425  104.8897 O   0  0  0  0  0  0  0  0  0  0  0  0
   -4.7325   34.6957  103.2293 O   0  0  0  0  0  0  0  0  0  0  0  0
   -4.3637   35.3258  102.6420 H   0  0  0  0  0  0  0  0  0  0  0  0
    0.7559   35.8226  102.9995 C   0  0  0  0  0  0  0  0  0  0  0  0
    2.0746   35.0732  102.8330 C   0  0  0  0  0  0  0  0  0  0  0  0
    1.9637   33.6669  103.3488 C   0  0  0  0  0  0  0  0  0  0  0  0
    1.2436   32.7796  102.9270 O   0  0  0  0  0  0  0  0  0  0  0  0
    2.7802   33.4510  104.3985 O   0  0  0  0  0  0  0  0  0  0  0  0
    3.3298   34.1411  104.7143 H   0  0  0  0  0  0  0  0  0  0  0  0
 14 13  1  0
 14 12  1  0
 12  1  1  0
  1  2  2  0
  2 21  1  0
 21 22  1  0
 22 23  1  0
 23 24  2  0
 23 25  1  0
  2  3  1  0
  3  4  2  0
  4  9  1  0
  9 10  2  0
  9 11  1  0
  4  5  1  0
  5  6  1  0
  5  7  2  0
  7  8  1  0
 14 17  1  0
 17 18  2  0
 17 19  1  0
  7  1  1  0
 13 15  1  0
 13 16  1  0
 25 26  1  0
 19 20  1  0
M  CHG 1   9   1
M  CHG 1  11  -1
M  END
> <minimizedAffinity>
-8.08853

> <CNNscore>
0.6117070913

> <CNNaffinity>
6.0352191925

> <CNN_VS>
3.6917862892

> <CNNaffinity_variance>
0.0810717866

$$$$



 26 26  0  0  0  0  0  0  0  0999 V2000
   -2.1570   35.3574  100.4019 C   0  0  0  0  0  0  0  0  0  0  0  0
   -3.4442   35.3533   99.8142 C   0  0  0  0  0  0  0  0  0  0  0  0
   -3.5518   35.2378   98.4155 C   0  0  0  0  0  0  0  0  0  0  0  0
   -2.4021   35.1010   97.6264 C   0  0  0  0  0  0  0  0  0  0  0  0
   -1.1330   35.0544   98.1819 C   0  0  0  0  0  0  0  0  0  0  0  0
    0.3004   34.8186   97.2505 Cl  0  0  0  0  0  0  0  0  0  0  0  0
   -1.0299   35.1784   99.5677 C   0  0  0  0  0  0  0  0  0  0  0  0
    0.1843   35.1082  100.1376 F   0  0  0  0  0  0  0  0  0  0  0  0
   -2.5784   34.9888   96.1995 N   0  0  0  0  0  0  0  0  0  0  0  0
   -2.8696   36.0215   95.5841 O   0  0  0  0  0  0  0  0  0  0  0  0
   -2.4724   33.8559   95.7128 O   0  0  0  0  0  0  0  0  0  0  0  0
   -1.9249   35.5100  101.8975 C   0  0  0  0  0  0  0  0  0  0  0  0
    0.0620   36.1483  103.2218 N   0  0  0  0  0  0  0  0  0  0  0  0
   -0.9964   36.6699  102.3128 C   0  0  0  0  0  0  0  0  0  0  0  0
    0.5820   35.4089  102.7493 H   0  0  0  0  0  0  0  0  0  0  0  0
   -0.3697   35.7739  104.0667 H   0  0  0  0  0  0  0  0  0  0  0  0
   -1.7990   37.7865  102.9949 C   0  0  0  0  0  0  0  0  0  0  0  0
   -1.9242   37.9572  104.1972 O   0  0  0  0  0  0  0  0  0  0  0  0
   -2.3684   38.6557  102.1289 O   0  0  0  0  0  0  0  0  0  0  0  0
   -2.2738   38.5269  101.2057 H   0  0  0  0  0  0  0  0  0  0  0  0
   -4.7327   35.4706  100.6041 C   0  0  0  0  0  0  0  0  0  0  0  0
   -5.9380   35.7600   99.7142 C   0  0  0  0  0  0  0  0  0  0  0  0
   -6.9895   34.6989   99.8697 C   0  0  0  0  0  0  0  0  0  0  0  0
   -7.3259   33.8655   99.0474 O   0  0  0  0  0  0  0  0  0  0  0  0
   -7.5805   34.7508  101.0793 O   0  0  0  0  0  0  0  0  0  0  0  0
   -7.3136   35.3962  101.7039 H   0  0  0  0  0  0  0  0  0  0  0  0
 14 13  1  0
 14 12  1  0
 12  1  1  0
  1  2  2  0
  2 21  1  0
 21 22  1  0
 22 23  1  0
 23 24  2  0
 23 25  1  0
  2  3  1  0
  3  4  2  0
  4  9  1  0
  9 10  2  0
  9 11  1  0
  4  5  1  0
  5  6  1  0
  5  7  2  0
  7  8  1  0
 14 17  1  0
 17 18  2  0
 17 19  1  0
  7  1  1  0
 13 15  1  0
 13 16  1  0
 25 26  1  0
 19 20  1  0
M  CHG 1   9   1
M  CHG 1  11  -1
M  END
> <minimizedAffinity>
-7.93761

> <CNNscore>
0.4639860988

> <CNNaffinity>
5.7399749756

> <CNN_VS>
2.6632685661

> <CNNaffinity_variance>
0.1953941137

$$$$



 26 26  0  0  0  0  0  0  0  0999 V2000
   -2.8281   35.7923   99.9747 C   0  0  0  0  0  0  0  0  0  0  0  0
   -3.4030   35.5614  101.2469 C   0  0  0  0  0  0  0  0  0  0  0  0
   -4.7919   35.3519  101.3366 C   0  0  0  0  0  0  0  0  0  0  0  0
   -5.5826   35.3451  100.1798 C   0  0  0  0  0  0  0  0  0  0  0  0
   -5.0369   35.5215   98.9179 C   0  0  0  0  0  0  0  0  0  0  0  0
   -5.9666   35.4515   97.4658 Cl  0  0  0  0  0  0  0  0  0  0  0  0
   -3.6611   35.7379   98.8339 C   0  0  0  0  0  0  0  0  0  0  0  0
   -3.0993   35.8835   97.6227 F   0  0  0  0  0  0  0  0  0  0  0  0
   -6.9993   35.1270  100.3380 N   0  0  0  0  0  0  0  0  0  0  0  0
   -7.4711   34.0987   99.8381 O   0  0  0  0  0  0  0  0  0  0  0  0
   -7.6374   36.0135  100.9199 O   0  0  0  0  0  0  0  0  0  0  0  0
   -1.3455   36.0626   99.7674 C   0  0  0  0  0  0  0  0  0  0  0  0
    0.3245   34.4001  100.5132 N   0  0  0  0  0  0  0  0  0  0  0  0
   -0.4974   34.8426   99.3525 C   0  0  0  0  0  0  0  0  0  0  0  0
   -0.2878   34.1758  101.2975 H   0  0  0  0  0  0  0  0  0  0  0  0
    0.9625   35.1487  100.7832 H   0  0  0  0  0  0  0  0  0  0  0  0
    0.3955   35.1886   98.1527 C   0  0  0  0  0  0  0  0  0  0  0  0
    0.1351   35.9810   97.2612 O   0  0  0  0  0  0  0  0  0  0  0  0
    1.5883   34.5507   98.1588 O   0  0  0  0  0  0  0  0  0  0  0  0
    1.7905   33.9421   98.8419 H   0  0  0  0  0  0  0  0  0  0  0  0
   -2.6091   35.5281  102.5379 C   0  0  0  0  0  0  0  0  0  0  0  0
   -1.4706   36.5439  102.5487 C   0  0  0  0  0  0  0  0  0  0  0  0
   -1.8960   37.8228  103.2116 C   0  0  0  0  0  0  0  0  0  0  0  0
   -1.9660   38.0481  104.4066 O   0  0  0  0  0  0  0  0  0  0  0  0
   -2.2256   38.7696  102.3115 O   0  0  0  0  0  0  0  0  0  0  0  0
   -2.1678   38.5849  101.3948 H   0  0  0  0  0  0  0  0  0  0  0  0
 14 13  1  0
 14 12  1  0
 12  1  1  0
  1  2  2  0
  2 21  1  0
 21 22  1  0
 22 23  1  0
 23 24  2  0
 23 25  1  0
  2  3  1  0
  3  4  2  0
  4  9  1  0
  9 10  2  0
  9 11  1  0
  4  5  1  0
  5  6  1  0
  5  7  2  0
  7  8  1  0
 14 17  1  0
 17 18  2  0
 17 19  1  0
  7  1  1  0
 13 15  1  0
 13 16  1  0
 25 26  1  0
 19 20  1  0
M  CHG 1   9   1
M  CHG 1  11  -1
M  END
> <minimizedAffinity>
-8.31968

> <CNNscore>
0.3394369185

> <CNNaffinity>
5.0025229454

> <CNN_VS>
1.6980409622

> <CNNaffinity_variance>
0.2612070441

$$$$



 26 26  0  0  0  0  0  0  0  0999 V2000
   -2.8821   35.7420  100.0371 C   0  0  0  0  0  0  0  0  0  0  0  0
   -3.4662   35.5560  101.3123 C   0  0  0  0  0  0  0  0  0  0  0  0
   -4.8541   35.3379  101.3983 C   0  0  0  0  0  0  0  0  0  0  0  0
   -5.6343   35.2788  100.2359 C   0  0  0  0  0  0  0  0  0  0  0  0
   -5.0789   35.4105   98.9728 C   0  0  0  0  0  0  0  0  0  0  0  0
   -5.9950   35.2754   97.5166 Cl  0  0  0  0  0  0  0  0  0  0  0  0
   -3.7043   35.6356   98.8921 C   0  0  0  0  0  0  0  0  0  0  0  0
   -3.1329   35.7387   97.6811 F   0  0  0  0  0  0  0  0  0  0  0  0
   -7.0504   35.0545  100.3903 N   0  0  0  0  0  0  0  0  0  0  0  0
   -7.5449   34.1135   99.7579 O   0  0  0  0  0  0  0  0  0  0  0  0
   -7.6660   35.8545  101.1064 O   0  0  0  0  0  0  0  0  0  0  0  0
   -1.4000   36.0172   99.8321 C   0  0  0  0  0  0  0  0  0  0  0  0
    0.3514   34.5357  100.7523 N   0  0  0  0  0  0  0  0  0  0  0  0
   -0.5219   34.7762   99.5699 C   0  0  0  0  0  0  0  0  0  0  0  0
   -0.2275   34.4108  101.5828 H   0  0  0  0  0  0  0  0  0  0  0  0
    0.9701   35.3355  100.8864 H   0  0  0  0  0  0  0  0  0  0  0  0
    0.3199   34.9687   98.3007 C   0  0  0  0  0  0  0  0  0  0  0  0
    0.6515   34.0970   97.5130 O   0  0  0  0  0  0  0  0  0  0  0  0
    0.6656   36.2551   98.0657 O   0  0  0  0  0  0  0  0  0  0  0  0
    0.4123   36.9259   98.6688 H   0  0  0  0  0  0  0  0  0  0  0  0
   -2.6837   35.5803  102.6105 C   0  0  0  0  0  0  0  0  0  0  0  0
   -2.4931   34.1870  103.2025 C   0  0  0  0  0  0  0  0  0  0  0  0
   -2.9301   34.1477  104.6391 C   0  0  0  0  0  0  0  0  0  0  0  0
   -4.0705   34.0929  105.0635 O   0  0  0  0  0  0  0  0  0  0  0  0
   -1.8817   34.1884  105.4843 O   0  0  0  0  0  0  0  0  0  0  0  0
   -1.0088   34.2305  105.1463 H   0  0  0  0  0  0  0  0  0  0  0  0
 14 13  1  0
 14 12  1  0
 12  1  1  0
  1  2  2  0
  2 21  1  0
 21 22  1  0
 22 23  1  0
 23 24  2  0
 23 25  1  0
  2  3  1  0
  3  4  2  0
  4  9  1  0
  9 10  2  0
  9 11  1  0
  4  5  1  0
  5  6  1  0
  5  7  2  0
  7  8  1  0
 14 17  1  0
 17 18  2  0
 17 19  1  0
  7  1  1  0
 13 15  1  0
 13 16  1  0
 25 26  1  0
 19 20  1  0
M  CHG 1   9   1
M  CHG 1  11  -1
M  END
> <minimizedAffinity>
-8.80397

> <CNNscore>
0.3321343064

> <CNNaffinity>
5.0810971260

> <CNN_VS>
1.6876066923

> <CNNaffinity_variance>
0.1882591695

$$$$



 26 26  0  0  0  0  0  0  0  0999 V2000
   -3.2208   34.7988   98.2317 C   0  0  0  0  0  0  0  0  0  0  0  0
   -2.1124   35.1319   99.0457 C   0  0  0  0  0  0  0  0  0  0  0  0
   -0.8164   34.8375   98.5820 C   0  0  0  0  0  0  0  0  0  0  0  0
   -0.6318   34.2506   97.3230 C   0  0  0  0  0  0  0  0  0  0  0  0
   -1.6981   33.9583   96.4871 C   0  0  0  0  0  0  0  0  0  0  0  0
   -1.5072   33.2992   94.9037 Cl  0  0  0  0  0  0  0  0  0  0  0  0
   -2.9816   34.2431   96.9540 C   0  0  0  0  0  0  0  0  0  0  0  0
   -4.0329   33.9976   96.1551 F   0  0  0  0  0  0  0  0  0  0  0  0
    0.7201   33.9719   96.9057 N   0  0  0  0  0  0  0  0  0  0  0  0
    1.4906   34.9347   96.8092 O   0  0  0  0  0  0  0  0  0  0  0  0
    0.9861   32.7952   96.6296 O   0  0  0  0  0  0  0  0  0  0  0  0
   -4.6634   35.0418   98.6490 C   0  0  0  0  0  0  0  0  0  0  0  0
   -5.7100   36.9128   97.4189 N   0  0  0  0  0  0  0  0  0  0  0  0
   -5.6302   35.4283   97.5107 C   0  0  0  0  0  0  0  0  0  0  0  0
   -4.7777   37.2941   97.2582 H   0  0  0  0  0  0  0  0  0  0  0  0
   -6.0851   37.2877   98.2902 H   0  0  0  0  0  0  0  0  0  0  0  0
   -7.0194   34.8217   97.7529 C   0  0  0  0  0  0  0  0  0  0  0  0
   -8.0484   35.1107   97.1628 O   0  0  0  0  0  0  0  0  0  0  0  0
   -7.0342   33.8525   98.6963 O   0  0  0  0  0  0  0  0  0  0  0  0
   -6.2458   33.6289   99.1506 H   0  0  0  0  0  0  0  0  0  0  0  0
   -2.2320   35.7913  100.4054 C   0  0  0  0  0  0  0  0  0  0  0  0
   -3.6814   35.9221  100.8644 C   0  0  0  0  0  0  0  0  0  0  0  0
   -3.8999   35.2088  102.1682 C   0  0  0  0  0  0  0  0  0  0  0  0
   -3.0519   34.7302  102.8999 O   0  0  0  0  0  0  0  0  0  0  0  0
   -5.2072   35.1283  102.4837 O   0  0  0  0  0  0  0  0  0  0  0  0
   -5.8507   35.5002  101.9130 H   0  0  0  0  0  0  0  0  0  0  0  0
 14 13  1  0
 14 12  1  0
 12  1  1  0
  1  2  2  0
  2 21  1  0
 21 22  1  0
 22 23  1  0
 23 24  2  0
 23 25  1  0
  2  3  1  0
  3  4  2  0
  4  9  1  0
  9 10  2  0
  9 11  1  0
  4  5  1  0
  5  6  1  0
  5  7  2  0
  7  8  1  0
 14 17  1  0
 17 18  2  0
 17 19  1  0
  7  1  1  0
 13 15  1  0
 13 16  1  0
 25 26  1  0
 19 20  1  0
M  CHG 1   9   1
M  CHG 1  11  -1
M  END
> <minimizedAffinity>
-6.81379

> <CNNscore>
0.3215475380

> <CNNaffinity>
5.0123362541

> <CNN_VS>
1.6117043495

> <CNNaffinity_variance>
0.0047600870

$$$$



 26 26  0  0  0  0  0  0  0  0999 V2000
   -3.8087   35.1715   99.2348 C   0  0  0  0  0  0  0  0  0  0  0  0
   -2.9359   35.5755  100.2727 C   0  0  0  0  0  0  0  0  0  0  0  0
   -1.5549   35.6456  100.0098 C   0  0  0  0  0  0  0  0  0  0  0  0
   -1.0617   35.3468   98.7327 C   0  0  0  0  0  0  0  0  0  0  0  0
   -1.9005   34.9948   97.6869 C   0  0  0  0  0  0  0  0  0  0  0  0
   -1.3385   34.6864   96.0847 Cl  0  0  0  0  0  0  0  0  0  0  0  0
   -3.2678   34.9175   97.9537 C   0  0  0  0  0  0  0  0  0  0  0  0
   -4.1083   34.6070   96.9533 F   0  0  0  0  0  0  0  0  0  0  0  0
    0.3629   35.4352   98.5272 N   0  0  0  0  0  0  0  0  0  0  0  0
    1.0872   34.8354   99.3306 O   0  0  0  0  0  0  0  0  0  0  0  0
    0.7471   36.1467   97.5903 O   0  0  0  0  0  0  0  0  0  0  0  0
   -5.3121   35.0299   99.4190 C   0  0  0  0  0  0  0  0  0  0  0  0
   -6.0725   36.7399   97.8043 N   0  0  0  0  0  0  0  0  0  0  0  0
   -6.1655   35.2970   98.1619 C   0  0  0  0  0  0  0  0  0  0  0  0
   -5.0958   36.9892   97.6485 H   0  0  0  0  0  0  0  0  0  0  0  0
   -6.4501   37.3039   98.5657 H   0  0  0  0  0  0  0  0  0  0  0  0
   -7.6254   34.8883   98.4034 C   0  0  0  0  0  0  0  0  0  0  0  0
   -8.0196   33.7904   98.7634 O   0  0  0  0  0  0  0  0  0  0  0  0
   -8.5107   35.8944   98.2202 O   0  0  0  0  0  0  0  0  0  0  0  0
   -8.2106   36.7379   97.9439 H   0  0  0  0  0  0  0  0  0  0  0  0
   -3.3978   35.9393  101.6699 C   0  0  0  0  0  0  0  0  0  0  0  0
   -2.9202   34.9409  102.7203 C   0  0  0  0  0  0  0  0  0  0  0  0
   -2.3142   35.6478  103.8990 C   0  0  0  0  0  0  0  0  0  0  0  0
   -1.8839   36.7867  103.9366 O   0  0  0  0  0  0  0  0  0  0  0  0
   -2.2750   34.8601  104.9913 O   0  0  0  0  0  0  0  0  0  0  0  0
   -2.6090   33.9856  104.9505 H   0  0  0  0  0  0  0  0  0  0  0  0
 14 13  1  0
 14 12  1  0
 12  1  1  0
  1  2  2  0
  2 21  1  0
 21 22  1  0
 22 23  1  0
 23 24  2  0
 23 25  1  0
  2  3  1  0
  3  4  2  0
  4  9  1  0
  9 10  2  0
  9 11  1  0
  4  5  1  0
  5  6  1  0
  5  7  2  0
  7  8  1  0
 14 17  1  0
 17 18  2  0
 17 19  1  0
  7  1  1  0
 13 15  1  0
 13 16  1  0
 25 26  1  0
 19 20  1  0
M  CHG 1   9   1
M  CHG 1  11  -1
M  END
> <minimizedAffinity>
-7.98594

> <CNNscore>
0.2668932676

> <CNNaffinity>
4.8912620544

> <CNN_VS>
1.3054449558

> <CNNaffinity_variance>
0.0719299391

$$$$



 26 26  0  0  0  0  0  0  0  0999 V2000
   -2.3071   35.6793  100.3890 C   0  0  0  0  0  0  0  0  0  0  0  0
   -3.5052   35.4418  101.1034 C   0  0  0  0  0  0  0  0  0  0  0  0
   -4.6941   35.2238  100.3821 C   0  0  0  0  0  0  0  0  0  0  0  0
   -4.6801   35.2150   98.9810 C   0  0  0  0  0  0  0  0  0  0  0  0
   -3.5114   35.3979   98.2585 C   0  0  0  0  0  0  0  0  0  0  0  0
   -3.4420   35.3259   96.5357 Cl  0  0  0  0  0  0  0  0  0  0  0  0
   -2.3367   35.6228   98.9768 C   0  0  0  0  0  0  0  0  0  0  0  0
   -1.1836   35.7747   98.3052 F   0  0  0  0  0  0  0  0  0  0  0  0
   -5.9308   34.9881   98.3000 N   0  0  0  0  0  0  0  0  0  0  0  0
   -6.2549   33.8126   98.0922 O   0  0  0  0  0  0  0  0  0  0  0  0
   -6.5557   35.9917   97.9342 O   0  0  0  0  0  0  0  0  0  0  0  0
   -0.9746   35.9591  101.0674 C   0  0  0  0  0  0  0  0  0  0  0  0
    0.9235   37.5272  100.8498 N   0  0  0  0  0  0  0  0  0  0  0  0
   -0.5419   37.4395  101.1014 C   0  0  0  0  0  0  0  0  0  0  0  0
    1.1402   37.0988   99.9499 H   0  0  0  0  0  0  0  0  0  0  0  0
    1.4255   37.0364  101.5898 H   0  0  0  0  0  0  0  0  0  0  0  0
   -0.9025   38.0766  102.4506 C   0  0  0  0  0  0  0  0  0  0  0  0
   -0.1701   38.1779  103.4221 O   0  0  0  0  0  0  0  0  0  0  0  0
   -2.1526   38.5913  102.4938 O   0  0  0  0  0  0  0  0  0  0  0  0
   -2.7167   38.5149  101.7495 H   0  0  0  0  0  0  0  0  0  0  0  0
   -3.5932   35.4101  102.6164 C   0  0  0  0  0  0  0  0  0  0  0  0
   -2.8162   34.2445  103.2213 C   0  0  0  0  0  0  0  0  0  0  0  0
   -3.1091   34.1052  104.6879 C   0  0  0  0  0  0  0  0  0  0  0  0
   -4.1962   33.9401  105.2121 O   0  0  0  0  0  0  0  0  0  0  0  0
   -1.9905   34.1913  105.4339 O   0  0  0  0  0  0  0  0  0  0  0  0
   -1.1597   34.3183  105.0196 H   0  0  0  0  0  0  0  0  0  0  0  0
 14 13  1  0
 14 12  1  0
 12  1  1  0
  1  2  2  0
  2 21  1  0
 21 22  1  0
 22 23  1  0
 23 24  2  0
 23 25  1  0
  2  3  1  0
  3  4  2  0
  4  9  1  0
  9 10  2  0
  9 11  1  0
  4  5  1  0
  5  6  1  0
  5  7  2  0
  7  8  1  0
 14 17  1  0
 17 18  2  0
 17 19  1  0
  7  1  1  0
 13 15  1  0
 13 16  1  0
 25 26  1  0
 19 20  1  0
M  CHG 1   9   1
M  CHG 1  11  -1
M  END
> <minimizedAffinity>
-8.57078

> <CNNscore>
0.2579451799

> <CNNaffinity>
5.3226823807

> <CNN_VS>
1.3729602098

> <CNNaffinity_variance>
0.0202739183

$$$$
