


 25 26  0  0  0  0  0  0  0  0999 V2000
   -0.2632   43.7563    1.1102 C   0  0  0  0  0  0  0  0  0  0  0  0
    1.1567   44.3150    1.0000 C   0  0  0  0  0  0  0  0  0  0  0  0
    1.4632   44.7968    2.3980 C   0  0  0  0  0  0  0  0  0  0  0  0
    2.4291   45.8438    2.3502 O   0  0  0  0  0  0  0  0  0  0  0  0
    2.3037   46.7377    3.4529 C   0  0  0  0  0  0  0  0  0  0  0  0
    0.9933   47.5187    3.3636 C   0  0  0  0  0  0  0  0  0  0  0  0
   -0.1387   46.7079    2.7354 C   0  0  0  0  0  0  0  0  0  0  0  0
    0.0915   45.2136    2.9175 C   0  0  0  0  0  0  0  0  0  0  0  0
   -0.8927   44.4611    2.2004 O   0  0  0  0  0  0  0  0  0  0  0  0
   -0.9643   43.9903   -0.2374 C   0  0  0  0  0  0  0  0  0  0  0  0
   -1.2689   45.0760   -0.7092 O   0  0  0  0  0  0  0  0  0  0  0  0
   -1.2827   42.8562   -0.8937 O   0  0  0  0  0  0  0  0  0  0  0  0
   -1.0491   42.0241   -0.5318 H   0  0  0  0  0  0  0  0  0  0  0  0
   -0.2521   42.2450    1.4429 C   0  0  0  0  0  0  0  0  0  0  0  0
    1.0902   41.7030    2.0006 C   0  0  0  0  0  0  0  0  0  0  0  0
    1.0595   40.2429    2.0828 N   0  0  0  0  0  0  0  0  0  0  0  0
    0.3112   39.9535    2.7127 H   0  0  0  0  0  0  0  0  0  0  0  0
    1.9533   39.9035    2.4381 H   0  0  0  0  0  0  0  0  0  0  0  0
    1.3654   42.3235    3.3936 C   0  0  0  0  0  0  0  0  0  0  0  0
    2.3962   41.6165    4.3254 C   0  0  0  0  0  0  0  0  0  0  0  0
    1.7872   41.2696    5.7029 C   0  0  0  0  0  0  0  0  0  0  0  0
    2.8778   40.2942    3.6967 C   0  0  0  0  0  0  0  0  0  0  0  0
    3.6038   42.5685    4.6131 C   0  0  0  0  0  0  0  0  0  0  0  0
    2.9273   44.6520    5.9808 C   0  0  0  0  0  0  0  0  0  0  0  0
    3.6746   43.3316    5.9429 C   0  0  0  0  0  0  0  0  0  0  0  0
 24 25  1  0
 25 23  1  0
 23 20  1  0
 20 21  1  0
 20 22  1  0
 20 19  1  0
 19 15  1  0
 15 16  1  0
 15 14  1  0
  1 14  1  0
  1 10  1  0
 10 11  2  0
 10 12  1  0
  1  2  1  0
  3  2  1  0
  3  4  1  0
  4  5  1  0
  5  6  1  0
  6  7  1  0
  8  7  1  0
  8  9  1  0
  9  1  1  0
  8  3  1  0
 16 17  1  0
 16 18  1  0
 12 13  1  0
M  END
> <minimizedAffinity>
-5.07319

> <CNNscore>
0.6339298487

> <CNNaffinity>
6.5612854958

> <CNN_VS>
4.1593947411

> <CNNaffinity_variance>
0.3167341650

$$$$



 25 26  0  0  0  0  0  0  0  0999 V2000
   11.7050   41.3556    0.3830 C   0  0  0  0  0  0  0  0  0  0  0  0
   10.9259   40.0407    0.4505 C   0  0  0  0  0  0  0  0  0  0  0  0
   11.1115   39.5856    1.8784 C   0  0  0  0  0  0  0  0  0  0  0  0
   10.9939   38.1673    1.9554 O   0  0  0  0  0  0  0  0  0  0  0  0
   11.7437   37.6268    3.0401 C   0  0  0  0  0  0  0  0  0  0  0  0
   13.2420   37.8023    2.7962 C   0  0  0  0  0  0  0  0  0  0  0  0
   13.5722   39.0815    2.0294 C   0  0  0  0  0  0  0  0  0  0  0  0
   12.4902   40.1344    2.2290 C   0  0  0  0  0  0  0  0  0  0  0  0
   12.7324   41.2705    1.3924 O   0  0  0  0  0  0  0  0  0  0  0  0
   12.2733   41.4906   -1.0387 C   0  0  0  0  0  0  0  0  0  0  0  0
   13.4574   41.5541   -1.3355 O   0  0  0  0  0  0  0  0  0  0  0  0
   11.3312   41.5828   -1.9991 O   0  0  0  0  0  0  0  0  0  0  0  0
   10.4236   41.5342   -1.7713 H   0  0  0  0  0  0  0  0  0  0  0  0
   10.7982   42.5675    0.7051 C   0  0  0  0  0  0  0  0  0  0  0  0
   10.8450   43.7196   -0.3327 C   0  0  0  0  0  0  0  0  0  0  0  0
    9.5240   43.9314   -0.9240 N   0  0  0  0  0  0  0  0  0  0  0  0
    9.2256   43.0816   -1.4027 H   0  0  0  0  0  0  0  0  0  0  0  0
    9.5702   44.7000   -1.5930 H   0  0  0  0  0  0  0  0  0  0  0  0
   11.8891   43.3919   -1.4297 C   0  0  0  0  0  0  0  0  0  0  0  0
   12.5381   44.5769   -2.2080 C   0  0  0  0  0  0  0  0  0  0  0  0
   13.5247   45.3758   -1.3265 C   0  0  0  0  0  0  0  0  0  0  0  0
   13.3331   44.0576   -3.4221 C   0  0  0  0  0  0  0  0  0  0  0  0
   11.4372   45.5937   -2.6568 C   0  0  0  0  0  0  0  0  0  0  0  0
   12.0917   45.8767   -5.1389 C   0  0  0  0  0  0  0  0  0  0  0  0
   11.7088   46.5443   -3.8308 C   0  0  0  0  0  0  0  0  0  0  0  0
 24 25  1  0
 25 23  1  0
 23 20  1  0
 20 21  1  0
 20 22  1  0
 20 19  1  0
 19 15  1  0
 15 16  1  0
 15 14  1  0
  1 14  1  0
  1 10  1  0
 10 11  2  0
 10 12  1  0
  1  2  1  0
  3  2  1  0
  3  4  1  0
  4  5  1  0
  5  6  1  0
  6  7  1  0
  8  7  1  0
  8  9  1  0
  9  1  1  0
  8  3  1  0
 16 17  1  0
 16 18  1  0
 12 13  1  0
M  END
> <minimizedAffinity>
-0.49026

> <CNNscore>
0.5444589853

> <CNNaffinity>
4.4039192200

> <CNN_VS>
2.3977534771

> <CNNaffinity_variance>
0.0017851488

$$$$



 25 26  0  0  0  0  0  0  0  0999 V2000
    8.6605   54.5966   -6.4420 C   0  0  0  0  0  0  0  0  0  0  0  0
    7.3304   53.8780   -6.6766 C   0  0  0  0  0  0  0  0  0  0  0  0
    7.3063   53.6439   -8.1683 C   0  0  0  0  0  0  0  0  0  0  0  0
    5.9589   53.5570   -8.6247 O   0  0  0  0  0  0  0  0  0  0  0  0
    5.8272   53.9664   -9.9834 C   0  0  0  0  0  0  0  0  0  0  0  0
    6.1070   55.4623  -10.1220 C   0  0  0  0  0  0  0  0  0  0  0  0
    7.1593   55.9629   -9.1343 C   0  0  0  0  0  0  0  0  0  0  0  0
    8.0900   54.8356   -8.7076 C   0  0  0  0  0  0  0  0  0  0  0  0
    8.9762   55.2778   -7.6740 O   0  0  0  0  0  0  0  0  0  0  0  0
    8.4705   55.5587   -5.2585 C   0  0  0  0  0  0  0  0  0  0  0  0
    9.3634   56.0763   -4.6035 O   0  0  0  0  0  0  0  0  0  0  0  0
    7.1805   55.7821   -4.9354 O   0  0  0  0  0  0  0  0  0  0  0  0
    6.4963   55.3852   -5.4377 H   0  0  0  0  0  0  0  0  0  0  0  0
    9.7973   53.5944   -6.1289 C   0  0  0  0  0  0  0  0  0  0  0  0
   11.2287   54.1021   -6.4451 C   0  0  0  0  0  0  0  0  0  0  0  0
   11.5213   53.9567   -7.8709 N   0  0  0  0  0  0  0  0  0  0  0  0
   11.4665   52.9719   -8.1306 H   0  0  0  0  0  0  0  0  0  0  0  0
   12.4598   54.3073   -8.0628 H   0  0  0  0  0  0  0  0  0  0  0  0
   12.2600   53.3204   -5.5927 C   0  0  0  0  0  0  0  0  0  0  0  0
   11.9834   51.8145   -5.2981 C   0  0  0  0  0  0  0  0  0  0  0  0
   11.6347   51.5709   -3.8122 C   0  0  0  0  0  0  0  0  0  0  0  0
   10.7900   51.3091   -6.1325 C   0  0  0  0  0  0  0  0  0  0  0  0
   13.2647   50.9649   -5.5874 C   0  0  0  0  0  0  0  0  0  0  0  0
   12.4515   50.7375   -8.0279 C   0  0  0  0  0  0  0  0  0  0  0  0
   13.5476   50.4708   -7.0126 C   0  0  0  0  0  0  0  0  0  0  0  0
 24 25  1  0
 25 23  1  0
 23 20  1  0
 20 21  1  0
 20 22  1  0
 20 19  1  0
 19 15  1  0
 15 16  1  0
 15 14  1  0
  1 14  1  0
  1 10  1  0
 10 11  2  0
 10 12  1  0
  1  2  1  0
  3  2  1  0
  3  4  1  0
  4  5  1  0
  5  6  1  0
  6  7  1  0
  8  7  1  0
  8  9  1  0
  9  1  1  0
  8  3  1  0
 16 17  1  0
 16 18  1  0
 12 13  1  0
M  END
> <minimizedAffinity>
-1.52075

> <CNNscore>
0.4454290867

> <CNNaffinity>
4.2072343826

> <CNN_VS>
1.8740245104

> <CNNaffinity_variance>
0.0437571146

$$$$



 25 26  0  0  0  0  0  0  0  0999 V2000
    1.4560   45.0980    2.6538 C   0  0  0  0  0  0  0  0  0  0  0  0
    0.3258   44.0713    2.7471 C   0  0  0  0  0  0  0  0  0  0  0  0
    0.3362   43.4007    1.3941 C   0  0  0  0  0  0  0  0  0  0  0  0
   -0.9604   42.8903    1.0948 O   0  0  0  0  0  0  0  0  0  0  0  0
   -1.2020   42.8341   -0.3086 C   0  0  0  0  0  0  0  0  0  0  0  0
   -1.2786   44.2427   -0.8962 C   0  0  0  0  0  0  0  0  0  0  0  0
   -0.3576   45.2327   -0.1854 C   0  0  0  0  0  0  0  0  0  0  0  0
    0.8148   44.5159    0.4708 C   0  0  0  0  0  0  0  0  0  0  0  0
    1.5883   45.4294    1.2558 O   0  0  0  0  0  0  0  0  0  0  0  0
    1.0643   46.3057    3.5201 C   0  0  0  0  0  0  0  0  0  0  0  0
    0.8291   47.4344    3.1141 O   0  0  0  0  0  0  0  0  0  0  0  0
    1.0328   46.0443    4.8426 O   0  0  0  0  0  0  0  0  0  0  0  0
    1.2131   45.1790    5.1536 H   0  0  0  0  0  0  0  0  0  0  0  0
    2.7984   44.5081    3.1485 C   0  0  0  0  0  0  0  0  0  0  0  0
    2.9075   42.9626    3.0703 C   0  0  0  0  0  0  0  0  0  0  0  0
    1.6006   42.3441    3.2918 N   0  0  0  0  0  0  0  0  0  0  0  0
    1.2591   42.5941    4.2199 H   0  0  0  0  0  0  0  0  0  0  0  0
    1.6882   41.3302    3.2235 H   0  0  0  0  0  0  0  0  0  0  0  0
    3.9353   42.4582    4.1145 C   0  0  0  0  0  0  0  0  0  0  0  0
    3.4429   42.2070    5.5724 C   0  0  0  0  0  0  0  0  0  0  0  0
    2.1466   41.3661    5.6076 C   0  0  0  0  0  0  0  0  0  0  0  0
    4.5061   41.4352    6.3784 C   0  0  0  0  0  0  0  0  0  0  0  0
    3.0966   43.5660    6.2656 C   0  0  0  0  0  0  0  0  0  0  0  0
    3.7894   45.9451    6.9929 C   0  0  0  0  0  0  0  0  0  0  0  0
    4.2235   44.5282    6.6655 C   0  0  0  0  0  0  0  0  0  0  0  0
 24 25  1  0
 25 23  1  0
 23 20  1  0
 20 21  1  0
 20 22  1  0
 20 19  1  0
 19 15  1  0
 15 16  1  0
 15 14  1  0
  1 14  1  0
  1 10  1  0
 10 11  2  0
 10 12  1  0
  1  2  1  0
  3  2  1  0
  3  4  1  0
  4  5  1  0
  5  6  1  0
  6  7  1  0
  8  7  1  0
  8  9  1  0
  9  1  1  0
  8  3  1  0
 16 17  1  0
 16 18  1  0
 12 13  1  0
M  END
> <minimizedAffinity>
-4.93914

> <CNNscore>
0.4063112736

> <CNNaffinity>
5.9580826759

> <CNN_VS>
2.4208362103

> <CNNaffinity_variance>
0.1646444052

$$$$



 25 26  0  0  0  0  0  0  0  0999 V2000
   12.1635   43.4711   -2.4841 C   0  0  0  0  0  0  0  0  0  0  0  0
   11.2264   43.1295   -3.6441 C   0  0  0  0  0  0  0  0  0  0  0  0
   12.1619   42.6868   -4.7438 C   0  0  0  0  0  0  0  0  0  0  0  0
   11.5593   42.9145   -6.0152 O   0  0  0  0  0  0  0  0  0  0  0  0
   12.5300   43.1321   -7.0357 C   0  0  0  0  0  0  0  0  0  0  0  0
   13.2687   44.4490   -6.8009 C   0  0  0  0  0  0  0  0  0  0  0  0
   13.4391   44.7774   -5.3188 C   0  0  0  0  0  0  0  0  0  0  0  0
   13.4146   43.5124   -4.4713 C   0  0  0  0  0  0  0  0  0  0  0  0
   13.4260   43.8393   -3.0777 O   0  0  0  0  0  0  0  0  0  0  0  0
   11.5216   44.6167   -1.6853 C   0  0  0  0  0  0  0  0  0  0  0  0
   10.3254   44.7712   -1.4868 O   0  0  0  0  0  0  0  0  0  0  0  0
   12.4052   45.5231   -1.2206 O   0  0  0  0  0  0  0  0  0  0  0  0
   13.3221   45.4044   -1.3729 H   0  0  0  0  0  0  0  0  0  0  0  0
   12.3913   42.2492   -1.5623 C   0  0  0  0  0  0  0  0  0  0  0  0
   12.1534   42.5101   -0.0517 C   0  0  0  0  0  0  0  0  0  0  0  0
   13.3363   43.1190    0.5563 N   0  0  0  0  0  0  0  0  0  0  0  0
   14.1307   42.4863    0.4622 H   0  0  0  0  0  0  0  0  0  0  0  0
   13.1576   43.2958    1.5449 H   0  0  0  0  0  0  0  0  0  0  0  0
   11.7971   41.1796    0.6581 C   0  0  0  0  0  0  0  0  0  0  0  0
   10.7075   41.2071    1.7730 C   0  0  0  0  0  0  0  0  0  0  0  0
   10.5703   39.8399    2.4808 C   0  0  0  0  0  0  0  0  0  0  0  0
   11.0656   42.2441    2.8557 C   0  0  0  0  0  0  0  0  0  0  0  0
    9.3062   41.5145    1.1492 C   0  0  0  0  0  0  0  0  0  0  0  0
    7.8039   43.3147    0.0669 C   0  0  0  0  0  0  0  0  0  0  0  0
    8.7456   42.9425    1.1973 C   0  0  0  0  0  0  0  0  0  0  0  0
 24 25  1  0
 25 23  1  0
 23 20  1  0
 20 21  1  0
 20 22  1  0
 20 19  1  0
 19 15  1  0
 15 16  1  0
 15 14  1  0
  1 14  1  0
  1 10  1  0
 10 11  2  0
 10 12  1  0
  1  2  1  0
  3  2  1  0
  3  4  1  0
  4  5  1  0
  5  6  1  0
  6  7  1  0
  8  7  1  0
  8  9  1  0
  9  1  1  0
  8  3  1  0
 16 17  1  0
 16 18  1  0
 12 13  1  0
M  END
> <minimizedAffinity>
-4.01650

> <CNNscore>
0.3507749736

> <CNNaffinity>
3.8824679852

> <CNN_VS>
1.3618725538

> <CNNaffinity_variance>
0.4843572080

$$$$



 25 26  0  0  0  0  0  0  0  0999 V2000
    1.2688   44.6475    3.0002 C   0  0  0  0  0  0  0  0  0  0  0  0
    2.6890   44.4381    3.5287 C   0  0  0  0  0  0  0  0  0  0  0  0
    2.5198   44.4492    5.0292 C   0  0  0  0  0  0  0  0  0  0  0  0
    3.7313   44.8690    5.6516 O   0  0  0  0  0  0  0  0  0  0  0  0
    3.4966   45.4968    6.9093 C   0  0  0  0  0  0  0  0  0  0  0  0
    2.7683   46.8264    6.7172 C   0  0  0  0  0  0  0  0  0  0  0  0
    1.8049   46.8090    5.5318 C   0  0  0  0  0  0  0  0  0  0  0  0
    1.3378   45.3921    5.2265 C   0  0  0  0  0  0  0  0  0  0  0  0
    0.5557   45.3667    4.0278 O   0  0  0  0  0  0  0  0  0  0  0  0
    1.3705   45.4318    1.6822 C   0  0  0  0  0  0  0  0  0  0  0  0
    2.2479   46.2304    1.3880 O   0  0  0  0  0  0  0  0  0  0  0  0
    0.3498   45.2066    0.8303 O   0  0  0  0  0  0  0  0  0  0  0  0
   -0.3226   44.5944    1.0562 H   0  0  0  0  0  0  0  0  0  0  0  0
    0.5513   43.2982    2.7562 C   0  0  0  0  0  0  0  0  0  0  0  0
    1.4191   42.2031    2.0823 C   0  0  0  0  0  0  0  0  0  0  0  0
    0.6299   40.9934    1.8510 N   0  0  0  0  0  0  0  0  0  0  0  0
    0.2937   40.6310    2.7433 H   0  0  0  0  0  0  0  0  0  0  0  0
    1.2116   40.2899    1.3959 H   0  0  0  0  0  0  0  0  0  0  0  0
    2.6496   41.8917    2.9711 C   0  0  0  0  0  0  0  0  0  0  0  0
    2.5308   40.7436    4.0193 C   0  0  0  0  0  0  0  0  0  0  0  0
    1.4154   41.0182    5.0533 C   0  0  0  0  0  0  0  0  0  0  0  0
    2.1883   39.4101    3.3263 C   0  0  0  0  0  0  0  0  0  0  0  0
    3.8589   40.6212    4.8369 C   0  0  0  0  0  0  0  0  0  0  0  0
    5.2411   41.1403    6.9557 C   0  0  0  0  0  0  0  0  0  0  0  0
    4.1071   41.5494    6.0338 C   0  0  0  0  0  0  0  0  0  0  0  0
 24 25  1  0
 25 23  1  0
 23 20  1  0
 20 21  1  0
 20 22  1  0
 20 19  1  0
 19 15  1  0
 15 16  1  0
 15 14  1  0
  1 14  1  0
  1 10  1  0
 10 11  2  0
 10 12  1  0
  1  2  1  0
  3  2  1  0
  3  4  1  0
  4  5  1  0
  5  6  1  0
  6  7  1  0
  8  7  1  0
  8  9  1  0
  9  1  1  0
  8  3  1  0
 16 17  1  0
 16 18  1  0
 12 13  1  0
M  END
> <minimizedAffinity>
-5.46271

> <CNNscore>
0.2930865586

> <CNNaffinity>
6.1414647102

> <CNN_VS>
1.7999807596

> <CNNaffinity_variance>
0.1129995286

$$$$



 25 26  0  0  0  0  0  0  0  0999 V2000
    1.0629   44.2417    3.2278 C   0  0  0  0  0  0  0  0  0  0  0  0
    0.6430   43.2158    4.2821 C   0  0  0  0  0  0  0  0  0  0  0  0
    1.7531   42.1924    4.2504 C   0  0  0  0  0  0  0  0  0  0  0  0
    1.2600   40.9273    4.6835 O   0  0  0  0  0  0  0  0  0  0  0  0
    1.9880   39.8449    4.1096 C   0  0  0  0  0  0  0  0  0  0  0  0
    1.7447   39.7745    2.6026 C   0  0  0  0  0  0  0  0  0  0  0  0
    1.5387   41.1497    1.9702 C   0  0  0  0  0  0  0  0  0  0  0  0
    2.2103   42.2385    2.7964 C   0  0  0  0  0  0  0  0  0  0  0  0
    1.8884   43.5340    2.2795 O   0  0  0  0  0  0  0  0  0  0  0  0
   -0.2161   44.8148    2.5966 C   0  0  0  0  0  0  0  0  0  0  0  0
   -0.6364   45.9543    2.7347 O   0  0  0  0  0  0  0  0  0  0  0  0
   -0.9158   43.9211    1.8687 O   0  0  0  0  0  0  0  0  0  0  0  0
   -0.5934   43.0477    1.7631 H   0  0  0  0  0  0  0  0  0  0  0  0
    1.8998   45.3840    3.8520 C   0  0  0  0  0  0  0  0  0  0  0  0
    1.6589   45.6261    5.3652 C   0  0  0  0  0  0  0  0  0  0  0  0
    2.2046   46.9213    5.7708 N   0  0  0  0  0  0  0  0  0  0  0  0
    3.2102   46.9348    5.6008 H   0  0  0  0  0  0  0  0  0  0  0  0
    2.0256   47.0696    6.7640 H   0  0  0  0  0  0  0  0  0  0  0  0
    2.3024   44.4802    6.1862 C   0  0  0  0  0  0  0  0  0  0  0  0
    3.8366   44.2419    6.0431 C   0  0  0  0  0  0  0  0  0  0  0  0
    4.6512   45.1162    7.0232 C   0  0  0  0  0  0  0  0  0  0  0  0
    4.1877   42.7722    6.3474 C   0  0  0  0  0  0  0  0  0  0  0  0
    4.3123   44.6423    4.6075 C   0  0  0  0  0  0  0  0  0  0  0  0
    5.6053   44.1305    2.4314 C   0  0  0  0  0  0  0  0  0  0  0  0
    4.9704   43.5932    3.7009 C   0  0  0  0  0  0  0  0  0  0  0  0
 24 25  1  0
 25 23  1  0
 23 20  1  0
 20 21  1  0
 20 22  1  0
 20 19  1  0
 19 15  1  0
 15 16  1  0
 15 14  1  0
  1 14  1  0
  1 10  1  0
 10 11  2  0
 10 12  1  0
  1  2  1  0
  3  2  1  0
  3  4  1  0
  4  5  1  0
  5  6  1  0
  6  7  1  0
  8  7  1  0
  8  9  1  0
  9  1  1  0
  8  3  1  0
 16 17  1  0
 16 18  1  0
 12 13  1  0
M  END
> <minimizedAffinity>
-4.31835

> <CNNscore>
0.2671239376

> <CNNaffinity>
5.7532496452

> <CNN_VS>
1.5368306637

> <CNNaffinity_variance>
0.0920870975

$$$$



 25 26  0  0  0  0  0  0  0  0999 V2000
   11.7069   43.4901   -2.4617 C   0  0  0  0  0  0  0  0  0  0  0  0
   11.0196   42.9858   -3.7319 C   0  0  0  0  0  0  0  0  0  0  0  0
   12.1460   42.8785   -4.7321 C   0  0  0  0  0  0  0  0  0  0  0  0
   11.6356   43.0177   -6.0555 O   0  0  0  0  0  0  0  0  0  0  0  0
   12.6085   43.5499   -6.9505 C   0  0  0  0  0  0  0  0  0  0  0  0
   12.9345   44.9983   -6.5885 C   0  0  0  0  0  0  0  0  0  0  0  0
   12.8591   45.2656   -5.0864 C   0  0  0  0  0  0  0  0  0  0  0  0
   13.0935   43.9885   -4.2905 C   0  0  0  0  0  0  0  0  0  0  0  0
   12.8752   44.2178   -2.8945 O   0  0  0  0  0  0  0  0  0  0  0  0
   10.7011   44.3706   -1.7031 C   0  0  0  0  0  0  0  0  0  0  0  0
    9.5210   44.1135   -1.5148 O   0  0  0  0  0  0  0  0  0  0  0  0
   11.2158   45.5371   -1.2642 O   0  0  0  0  0  0  0  0  0  0  0  0
   12.1204   45.7339   -1.4087 H   0  0  0  0  0  0  0  0  0  0  0  0
   12.1636   42.3170   -1.5618 C   0  0  0  0  0  0  0  0  0  0  0  0
   12.3246   42.6639   -0.0583 C   0  0  0  0  0  0  0  0  0  0  0  0
   13.5192   43.4807    0.1547 N   0  0  0  0  0  0  0  0  0  0  0  0
   14.3443   42.9605   -0.1437 H   0  0  0  0  0  0  0  0  0  0  0  0
   13.6018   43.7104    1.1450 H   0  0  0  0  0  0  0  0  0  0  0  0
   12.3990   41.3587    0.7735 C   0  0  0  0  0  0  0  0  0  0  0  0
   11.2584   41.0700    1.7966 C   0  0  0  0  0  0  0  0  0  0  0  0
   11.1887   42.1466    2.9034 C   0  0  0  0  0  0  0  0  0  0  0  0
    9.8880   41.0557    1.0912 C   0  0  0  0  0  0  0  0  0  0  0  0
   11.5221   39.7128    2.5286 C   0  0  0  0  0  0  0  0  0  0  0  0
   12.5732   37.7391    1.2367 C   0  0  0  0  0  0  0  0  0  0  0  0
   11.3141   38.3889    1.7806 C   0  0  0  0  0  0  0  0  0  0  0  0
 24 25  1  0
 25 23  1  0
 23 20  1  0
 20 21  1  0
 20 22  1  0
 20 19  1  0
 19 15  1  0
 15 16  1  0
 15 14  1  0
  1 14  1  0
  1 10  1  0
 10 11  2  0
 10 12  1  0
  1  2  1  0
  3  2  1  0
  3  4  1  0
  4  5  1  0
  5  6  1  0
  6  7  1  0
  8  7  1  0
  8  9  1  0
  9  1  1  0
  8  3  1  0
 16 17  1  0
 16 18  1  0
 12 13  1  0
M  END
> <minimizedAffinity>
-3.93508

> <CNNscore>
0.2661887705

> <CNNaffinity>
3.9922645092

> <CNN_VS>
1.0626959801

> <CNNaffinity_variance>
0.2335506231

$$$$



 25 26  0  0  0  0  0  0  0  0999 V2000
    3.2489   43.5913    3.5286 C   0  0  0  0  0  0  0  0  0  0  0  0
    2.4598   44.8776    3.7799 C   0  0  0  0  0  0  0  0  0  0  0  0
    1.0192   44.4518    3.6261 C   0  0  0  0  0  0  0  0  0  0  0  0
    0.2229   45.5657    3.2305 O   0  0  0  0  0  0  0  0  0  0  0  0
   -0.9213   45.1656    2.4809 C   0  0  0  0  0  0  0  0  0  0  0  0
   -0.5019   44.5872    1.1301 C   0  0  0  0  0  0  0  0  0  0  0  0
    0.8324   43.8459    1.1909 C   0  0  0  0  0  0  0  0  0  0  0  0
    1.1089   43.3303    2.5969 C   0  0  0  0  0  0  0  0  0  0  0  0
    2.4231   42.7687    2.6782 O   0  0  0  0  0  0  0  0  0  0  0  0
    4.5825   43.9809    2.8712 C   0  0  0  0  0  0  0  0  0  0  0  0
    4.7157   44.6790    1.8766 O   0  0  0  0  0  0  0  0  0  0  0  0
    5.6653   43.4411    3.4665 O   0  0  0  0  0  0  0  0  0  0  0  0
    5.5628   42.9060    4.2289 H   0  0  0  0  0  0  0  0  0  0  0  0
    3.5152   42.8245    4.8461 C   0  0  0  0  0  0  0  0  0  0  0  0
    3.3542   41.2842    4.7560 C   0  0  0  0  0  0  0  0  0  0  0  0
    2.0915   40.8640    5.3630 N   0  0  0  0  0  0  0  0  0  0  0  0
    2.0827   41.1295    6.3478 H   0  0  0  0  0  0  0  0  0  0  0  0
    1.9960   39.8516    5.2829 H   0  0  0  0  0  0  0  0  0  0  0  0
    4.5529   40.5924    5.4528 C   0  0  0  0  0  0  0  0  0  0  0  0
    4.9581   41.0778    6.8780 C   0  0  0  0  0  0  0  0  0  0  0  0
    5.4134   42.5548    6.8777 C   0  0  0  0  0  0  0  0  0  0  0  0
    3.7639   40.9717    7.8468 C   0  0  0  0  0  0  0  0  0  0  0  0
    6.1765   40.2491    7.4032 C   0  0  0  0  0  0  0  0  0  0  0  0
    7.2177   37.8969    7.6319 C   0  0  0  0  0  0  0  0  0  0  0  0
    6.5374   38.9151    6.7354 C   0  0  0  0  0  0  0  0  0  0  0  0
 24 25  1  0
 25 23  1  0
 23 20  1  0
 20 21  1  0
 20 22  1  0
 20 19  1  0
 19 15  1  0
 15 16  1  0
 15 14  1  0
  1 14  1  0
  1 10  1  0
 10 11  2  0
 10 12  1  0
  1  2  1  0
  3  2  1  0
  3  4  1  0
  4  5  1  0
  5  6  1  0
  6  7  1  0
  8  7  1  0
  8  9  1  0
  9  1  1  0
  8  3  1  0
 16 17  1  0
 16 18  1  0
 12 13  1  0
M  END
> <minimizedAffinity>
0.83134

> <CNNscore>
0.2421624810

> <CNNaffinity>
5.3876080513

> <CNN_VS>
1.3046765327

> <CNNaffinity_variance>
0.0862555727

$$$$
