


 29 32  0  0  0  0  0  0  0  0999 V2000
   26.3707   30.5772   26.7626 C   0  0  0  0  0  0  0  0  0  0  0  0
   26.2019   31.9419   26.6830 C   0  0  0  0  0  0  0  0  0  0  0  0
   25.2212   32.4685   27.4836 C   0  0  0  0  0  0  0  0  0  0  0  0
   25.0203   33.7957   27.4465 F   0  0  0  0  0  0  0  0  0  0  0  0
   24.4495   31.7554   28.3094 N   0  0  0  0  0  0  0  0  0  0  0  0
   24.6974   30.4456   28.3164 C   0  0  0  0  0  0  0  0  0  0  0  0
   25.6182   29.8133   27.5801 N   0  0  0  0  0  0  0  0  0  0  0  0
   25.9534   28.0960   24.8167 C   0  0  0  0  0  0  0  0  0  0  0  0
   27.2222   28.8361   25.1155 C   0  0  0  0  0  0  0  0  0  0  0  0
   27.3827   29.8733   25.9641 C   0  0  0  0  0  0  0  0  0  0  0  0
   29.0400   30.4160   26.0174 S   0  0  0  0  0  0  0  0  0  0  0  0
   29.5329   29.1850   24.8517 C   0  0  0  0  0  0  0  0  0  0  0  0
   30.6810   29.0527   24.4589 O   0  0  0  0  0  0  0  0  0  0  0  0
   28.4113   28.4487   24.5015 N   0  0  0  0  0  0  0  0  0  0  0  0
   28.5026   27.3806   23.5296 C   0  0  0  0  0  0  0  0  0  0  0  0
   23.9743   29.6692   29.2071 N   0  0  0  0  0  0  0  0  0  0  0  0
   23.6253   28.4683   28.8642 C   0  0  0  0  0  0  0  0  0  0  0  0
   23.9879   27.7562   27.6053 C   0  0  0  0  0  0  0  0  0  0  0  0
   23.4016   26.5880   27.3122 C   0  0  0  0  0  0  0  0  0  0  0  0
   22.3730   25.9470   28.1165 C   0  0  0  0  0  0  0  0  0  0  0  0
   22.1353   26.4667   29.3353 C   0  0  0  0  0  0  0  0  0  0  0  0
   22.7916   27.6953   29.8848 C   0  0  0  0  0  0  0  0  0  0  0  0
   21.7307   24.8098   27.6169 N   0  0  0  0  0  0  0  0  0  0  0  0
   22.3795   23.8056   26.7466 C   0  0  0  0  0  0  0  0  0  0  0  0
   22.0506   22.3737   27.2386 C   0  0  0  0  0  0  0  0  0  0  0  0
   20.6832   22.1735   27.7729 N   0  0  0  0  0  0  0  0  0  0  0  0
   19.7941   23.2290   27.2489 C   0  0  0  0  0  0  0  0  0  0  0  0
   20.2506   24.6587   27.6413 C   0  0  0  0  0  0  0  0  0  0  0  0
   20.7052   22.2215   28.7916 H   0  0  0  0  0  0  0  0  0  0  0  0
  8  9  1  0
  9 10  2  0
 10  1  1  0
  1  2  2  0
  2  3  1  0
  3  4  1  0
  3  5  2  0
  5  6  1  0
  6 16  1  0
 16 17  2  0
 17 18  1  0
 18 19  2  0
 19 20  1  0
 20 23  1  0
 23 24  1  0
 24 25  1  0
 25 26  1  0
 26 27  1  0
 27 28  1  0
 20 21  2  0
 21 22  1  0
  6  7  2  0
 10 11  1  0
 11 12  1  0
 12 13  2  0
 12 14  1  0
 14 15  1  0
 14  9  1  0
  7  1  1  0
 22 17  1  0
 28 23  1  0
 26 29  1  0
M  END
> <minimizedAffinity>
-10.74111

> <CNNscore>
0.9780732393

> <CNNaffinity>
8.2201805115

> <CNN_VS>
8.0399389267

> <CNNaffinity_variance>
0.0097046951

$$$$



 29 32  0  0  0  0  0  0  0  0999 V2000
   28.0582   29.8490   25.7341 C   0  0  0  0  0  0  0  0  0  0  0  0
   29.3416   30.3364   25.8466 C   0  0  0  0  0  0  0  0  0  0  0  0
   30.2775   29.7417   25.0401 C   0  0  0  0  0  0  0  0  0  0  0  0
   31.5434   30.1845   25.1085 F   0  0  0  0  0  0  0  0  0  0  0  0
   30.0208   28.7520   24.1796 N   0  0  0  0  0  0  0  0  0  0  0  0
   28.7479   28.3578   24.1427 C   0  0  0  0  0  0  0  0  0  0  0  0
   27.7476   28.8521   24.8810 N   0  0  0  0  0  0  0  0  0  0  0  0
   25.8881   28.2395   27.4126 C   0  0  0  0  0  0  0  0  0  0  0  0
   26.0361   29.7246   27.2720 C   0  0  0  0  0  0  0  0  0  0  0  0
   26.9511   30.3883   26.5344 C   0  0  0  0  0  0  0  0  0  0  0  0
   26.7432   32.1169   26.6471 S   0  0  0  0  0  0  0  0  0  0  0  0
   25.3597   31.9303   27.7279 C   0  0  0  0  0  0  0  0  0  0  0  0
   24.7334   32.8721   28.1867 O   0  0  0  0  0  0  0  0  0  0  0  0
   25.1501   30.5747   27.9303 N   0  0  0  0  0  0  0  0  0  0  0  0
   24.0941   30.1129   28.8052 C   0  0  0  0  0  0  0  0  0  0  0  0
   28.4135   27.3833   23.2167 N   0  0  0  0  0  0  0  0  0  0  0  0
   27.5465   26.4738   23.5373 C   0  0  0  0  0  0  0  0  0  0  0  0
   26.7698   26.3860   24.8071 C   0  0  0  0  0  0  0  0  0  0  0  0
   26.0474   25.2885   25.0676 C   0  0  0  0  0  0  0  0  0  0  0  0
   25.9828   24.1118   24.2151 C   0  0  0  0  0  0  0  0  0  0  0  0
   26.5311   24.2116   22.9899 C   0  0  0  0  0  0  0  0  0  0  0  0
   27.2673   25.4104   22.4766 C   0  0  0  0  0  0  0  0  0  0  0  0
   25.3184   22.9723   24.6796 N   0  0  0  0  0  0  0  0  0  0  0  0
   25.7468   21.5867   24.3905 C   0  0  0  0  0  0  0  0  0  0  0  0
   25.7158   20.7329   25.6830 C   0  0  0  0  0  0  0  0  0  0  0  0
   24.6083   21.0253   26.6229 N   0  0  0  0  0  0  0  0  0  0  0  0
   23.5106   21.6902   25.8933 C   0  0  0  0  0  0  0  0  0  0  0  0
   23.9400   23.0288   25.2371 C   0  0  0  0  0  0  0  0  0  0  0  0
   24.9445   21.6387   27.3652 H   0  0  0  0  0  0  0  0  0  0  0  0
  8  9  1  0
  9 10  2  0
 10  1  1  0
  1  2  2  0
  2  3  1  0
  3  4  1  0
  3  5  2  0
  5  6  1  0
  6 16  1  0
 16 17  2  0
 17 18  1  0
 18 19  2  0
 19 20  1  0
 20 23  1  0
 23 24  1  0
 24 25  1  0
 25 26  1  0
 26 27  1  0
 27 28  1  0
 20 21  2  0
 21 22  1  0
  6  7  2  0
 10 11  1  0
 11 12  1  0
 12 13  2  0
 12 14  1  0
 14 15  1  0
 14  9  1  0
  7  1  1  0
 22 17  1  0
 28 23  1  0
 26 29  1  0
M  END
> <minimizedAffinity>
-10.29404

> <CNNscore>
0.9073502421

> <CNNaffinity>
8.0088901520

> <CNN_VS>
7.2668685913

> <CNNaffinity_variance>
0.0889903530

$$$$



 29 32  0  0  0  0  0  0  0  0999 V2000
   28.0896   29.5605   25.7064 C   0  0  0  0  0  0  0  0  0  0  0  0
   29.3278   30.1640   25.7097 C   0  0  0  0  0  0  0  0  0  0  0  0
   30.2457   29.6452   24.8332 C   0  0  0  0  0  0  0  0  0  0  0  0
   31.4670   30.2021   24.7942 F   0  0  0  0  0  0  0  0  0  0  0  0
   30.0118   28.6239   24.0036 N   0  0  0  0  0  0  0  0  0  0  0  0
   28.7817   28.1152   24.0743 C   0  0  0  0  0  0  0  0  0  0  0  0
   27.8035   28.5273   24.8888 N   0  0  0  0  0  0  0  0  0  0  0  0
   27.2506   32.5444   26.4205 C   0  0  0  0  0  0  0  0  0  0  0  0
   26.6196   31.2674   26.8876 C   0  0  0  0  0  0  0  0  0  0  0  0
   27.0064   30.0087   26.5913 C   0  0  0  0  0  0  0  0  0  0  0  0
   25.9943   28.8199   27.3700 S   0  0  0  0  0  0  0  0  0  0  0  0
   25.0167   30.0778   28.1310 C   0  0  0  0  0  0  0  0  0  0  0  0
   24.0698   29.8417   28.8642 O   0  0  0  0  0  0  0  0  0  0  0  0
   25.5214   31.3099   27.7439 N   0  0  0  0  0  0  0  0  0  0  0  0
   24.8979   32.5370   28.1902 C   0  0  0  0  0  0  0  0  0  0  0  0
   28.4639   27.1011   23.1858 N   0  0  0  0  0  0  0  0  0  0  0  0
   27.5648   26.2267   23.5156 C   0  0  0  0  0  0  0  0  0  0  0  0
   26.7353   26.2200   24.7546 C   0  0  0  0  0  0  0  0  0  0  0  0
   25.9790   25.1520   25.0401 C   0  0  0  0  0  0  0  0  0  0  0  0
   25.9233   23.9343   24.2464 C   0  0  0  0  0  0  0  0  0  0  0  0
   26.5232   23.9598   23.0417 C   0  0  0  0  0  0  0  0  0  0  0  0
   27.3057   25.1157   22.4995 C   0  0  0  0  0  0  0  0  0  0  0  0
   25.2157   22.8337   24.7400 N   0  0  0  0  0  0  0  0  0  0  0  0
   25.6281   21.4271   24.5446 C   0  0  0  0  0  0  0  0  0  0  0  0
   25.5222   20.6448   25.8778 C   0  0  0  0  0  0  0  0  0  0  0  0
   24.3801   21.0074   26.7494 N   0  0  0  0  0  0  0  0  0  0  0  0
   23.3299   21.6518   25.9364 C   0  0  0  0  0  0  0  0  0  0  0  0
   23.8153   22.9451   25.2304 C   0  0  0  0  0  0  0  0  0  0  0  0
   24.6955   21.6538   27.4727 H   0  0  0  0  0  0  0  0  0  0  0  0
  8  9  1  0
  9 10  2  0
 10  1  1  0
  1  2  2  0
  2  3  1  0
  3  4  1  0
  3  5  2  0
  5  6  1  0
  6 16  1  0
 16 17  2  0
 17 18  1  0
 18 19  2  0
 19 20  1  0
 20 23  1  0
 23 24  1  0
 24 25  1  0
 25 26  1  0
 26 27  1  0
 27 28  1  0
 20 21  2  0
 21 22  1  0
  6  7  2  0
 10 11  1  0
 11 12  1  0
 12 13  2  0
 12 14  1  0
 14 15  1  0
 14  9  1  0
  7  1  1  0
 22 17  1  0
 28 23  1  0
 26 29  1  0
M  END
> <minimizedAffinity>
-9.88258

> <CNNscore>
0.8663946390

> <CNNaffinity>
8.0091657639

> <CNN_VS>
6.9390983582

> <CNNaffinity_variance>
0.1214410067

$$$$



 29 32  0  0  0  0  0  0  0  0999 V2000
   26.2094   30.3281   26.8450 C   0  0  0  0  0  0  0  0  0  0  0  0
   26.1557   31.7040   26.8074 C   0  0  0  0  0  0  0  0  0  0  0  0
   25.2122   32.2855   27.6146 C   0  0  0  0  0  0  0  0  0  0  0  0
   25.1228   33.6254   27.6180 F   0  0  0  0  0  0  0  0  0  0  0  0
   24.3736   31.6140   28.4096 N   0  0  0  0  0  0  0  0  0  0  0  0
   24.5116   30.2886   28.3772 C   0  0  0  0  0  0  0  0  0  0  0  0
   25.3859   29.6047   27.6301 N   0  0  0  0  0  0  0  0  0  0  0  0
   29.0836   31.2452   25.8374 C   0  0  0  0  0  0  0  0  0  0  0  0
   28.4013   29.9286   25.6179 C   0  0  0  0  0  0  0  0  0  0  0  0
   27.1694   29.5673   26.0345 C   0  0  0  0  0  0  0  0  0  0  0  0
   26.7685   27.9433   25.5387 S   0  0  0  0  0  0  0  0  0  0  0  0
   28.3265   27.7521   24.7304 C   0  0  0  0  0  0  0  0  0  0  0  0
   28.6596   26.7341   24.1452 O   0  0  0  0  0  0  0  0  0  0  0  0
   29.0432   28.9282   24.8912 N   0  0  0  0  0  0  0  0  0  0  0  0
   30.3821   29.0563   24.3576 C   0  0  0  0  0  0  0  0  0  0  0  0
   23.7154   29.5480   29.2354 N   0  0  0  0  0  0  0  0  0  0  0  0
   23.3913   28.3346   28.9122 C   0  0  0  0  0  0  0  0  0  0  0  0
   23.8529   27.5736   27.7160 C   0  0  0  0  0  0  0  0  0  0  0  0
   23.2883   26.3951   27.4218 C   0  0  0  0  0  0  0  0  0  0  0  0
   22.1951   25.7865   28.1637 C   0  0  0  0  0  0  0  0  0  0  0  0
   21.8605   26.3537   29.3377 C   0  0  0  0  0  0  0  0  0  0  0  0
   22.4742   27.6026   29.8907 C   0  0  0  0  0  0  0  0  0  0  0  0
   21.5916   24.6308   27.6580 N   0  0  0  0  0  0  0  0  0  0  0  0
   22.2817   23.6406   26.8036 C   0  0  0  0  0  0  0  0  0  0  0  0
   21.9818   22.2025   27.2961 C   0  0  0  0  0  0  0  0  0  0  0  0
   20.6110   21.9686   27.8075 N   0  0  0  0  0  0  0  0  0  0  0  0
   19.7038   22.9983   27.2633 C   0  0  0  0  0  0  0  0  0  0  0  0
   20.1158   24.4411   27.6573 C   0  0  0  0  0  0  0  0  0  0  0  0
   20.6139   22.0212   28.8261 H   0  0  0  0  0  0  0  0  0  0  0  0
  8  9  1  0
  9 10  2  0
 10  1  1  0
  1  2  2  0
  2  3  1  0
  3  4  1  0
  3  5  2  0
  5  6  1  0
  6 16  1  0
 16 17  2  0
 17 18  1  0
 18 19  2  0
 19 20  1  0
 20 23  1  0
 23 24  1  0
 24 25  1  0
 25 26  1  0
 26 27  1  0
 27 28  1  0
 20 21  2  0
 21 22  1  0
  6  7  2  0
 10 11  1  0
 11 12  1  0
 12 13  2  0
 12 14  1  0
 14 15  1  0
 14  9  1  0
  7  1  1  0
 22 17  1  0
 28 23  1  0
 26 29  1  0
M  END
> <minimizedAffinity>
-10.55395

> <CNNscore>
0.8539838195

> <CNNaffinity>
7.9749751091

> <CNN_VS>
6.8104996681

> <CNNaffinity_variance>
0.0764998719

$$$$



 29 32  0  0  0  0  0  0  0  0999 V2000
   26.6959   29.6779   26.4568 C   0  0  0  0  0  0  0  0  0  0  0  0
   27.3386   30.8872   26.6042 C   0  0  0  0  0  0  0  0  0  0  0  0
   26.7478   31.7746   27.4663 C   0  0  0  0  0  0  0  0  0  0  0  0
   27.3386   32.9666   27.6488 F   0  0  0  0  0  0  0  0  0  0  0  0
   25.6238   31.5374   28.1492 N   0  0  0  0  0  0  0  0  0  0  0  0
   25.0846   30.3363   27.9407 C   0  0  0  0  0  0  0  0  0  0  0  0
   25.5597   29.3897   27.1231 N   0  0  0  0  0  0  0  0  0  0  0  0
   25.1833   27.0877   25.3982 C   0  0  0  0  0  0  0  0  0  0  0  0
   26.5794   27.5371   25.0882 C   0  0  0  0  0  0  0  0  0  0  0  0
   27.2117   28.6290   25.5674 C   0  0  0  0  0  0  0  0  0  0  0  0
   28.8403   28.7553   24.9545 S   0  0  0  0  0  0  0  0  0  0  0  0
   28.6576   27.2680   24.0209 C   0  0  0  0  0  0  0  0  0  0  0  0
   29.5429   26.7992   23.3235 O   0  0  0  0  0  0  0  0  0  0  0  0
   27.3783   26.7782   24.2356 N   0  0  0  0  0  0  0  0  0  0  0  0
   26.9263   25.5756   23.5699 C   0  0  0  0  0  0  0  0  0  0  0  0
   23.9574   30.0118   28.6776 N   0  0  0  0  0  0  0  0  0  0  0  0
   23.5874   28.7715   28.7587 C   0  0  0  0  0  0  0  0  0  0  0  0
   24.2989   27.5870   28.1985 C   0  0  0  0  0  0  0  0  0  0  0  0
   23.6995   26.3892   28.2059 C   0  0  0  0  0  0  0  0  0  0  0  0
   22.3508   26.1353   28.6878 C   0  0  0  0  0  0  0  0  0  0  0  0
   21.7379   27.1347   29.3491 C   0  0  0  0  0  0  0  0  0  0  0  0
   22.3095   28.5038   29.5521 C   0  0  0  0  0  0  0  0  0  0  0  0
   21.7866   24.8707   28.4926 N   0  0  0  0  0  0  0  0  0  0  0  0
   22.2071   23.6536   29.2196 C   0  0  0  0  0  0  0  0  0  0  0  0
   20.9676   22.8692   29.7185 C   0  0  0  0  0  0  0  0  0  0  0  0
   19.7966   22.8682   28.8106 N   0  0  0  0  0  0  0  0  0  0  0  0
   20.2430   23.1717   27.4366 C   0  0  0  0  0  0  0  0  0  0  0  0
   20.9355   24.5544   27.3137 C   0  0  0  0  0  0  0  0  0  0  0  0
   19.1285   23.5760   29.1157 H   0  0  0  0  0  0  0  0  0  0  0  0
  8  9  1  0
  9 10  2  0
 10  1  1  0
  1  2  2  0
  2  3  1  0
  3  4  1  0
  3  5  2  0
  5  6  1  0
  6 16  1  0
 16 17  2  0
 17 18  1  0
 18 19  2  0
 19 20  1  0
 20 23  1  0
 23 24  1  0
 24 25  1  0
 25 26  1  0
 26 27  1  0
 27 28  1  0
 20 21  2  0
 21 22  1  0
  6  7  2  0
 10 11  1  0
 11 12  1  0
 12 13  2  0
 12 14  1  0
 14 15  1  0
 14  9  1  0
  7  1  1  0
 22 17  1  0
 28 23  1  0
 26 29  1  0
M  END
> <minimizedAffinity>
-8.85286

> <CNNscore>
0.8519899845

> <CNNaffinity>
7.8407058716

> <CNN_VS>
6.6802029610

> <CNNaffinity_variance>
0.0518561304

$$$$



 29 32  0  0  0  0  0  0  0  0999 V2000
   27.6702   28.9186   25.5832 C   0  0  0  0  0  0  0  0  0  0  0  0
   28.8745   29.5041   25.2606 C   0  0  0  0  0  0  0  0  0  0  0  0
   29.6654   28.7991   24.3903 C   0  0  0  0  0  0  0  0  0  0  0  0
   30.8481   29.3298   24.0400 F   0  0  0  0  0  0  0  0  0  0  0  0
   29.3417   27.6181   23.8551 N   0  0  0  0  0  0  0  0  0  0  0  0
   28.1535   27.1417   24.2265 C   0  0  0  0  0  0  0  0  0  0  0  0
   27.2970   27.7288   25.0702 N   0  0  0  0  0  0  0  0  0  0  0  0
   27.3160   32.0201   26.1934 C   0  0  0  0  0  0  0  0  0  0  0  0
   26.5372   30.8700   26.7572 C   0  0  0  0  0  0  0  0  0  0  0  0
   26.7194   29.5570   26.5028 C   0  0  0  0  0  0  0  0  0  0  0  0
   25.5963   28.5628   27.3940 S   0  0  0  0  0  0  0  0  0  0  0  0
   24.8590   29.9809   28.1441 C   0  0  0  0  0  0  0  0  0  0  0  0
   23.9350   29.9167   28.9390 O   0  0  0  0  0  0  0  0  0  0  0  0
   25.5115   31.1085   27.6693 N   0  0  0  0  0  0  0  0  0  0  0  0
   25.1001   32.4312   28.0876 C   0  0  0  0  0  0  0  0  0  0  0  0
   27.7378   25.9546   23.6460 N   0  0  0  0  0  0  0  0  0  0  0  0
   26.5986   25.4423   23.9945 C   0  0  0  0  0  0  0  0  0  0  0  0
   25.5976   26.0369   24.9260 C   0  0  0  0  0  0  0  0  0  0  0  0
   24.5510   25.3048   25.3296 C   0  0  0  0  0  0  0  0  0  0  0  0
   24.3148   23.9167   24.9645 C   0  0  0  0  0  0  0  0  0  0  0  0
   25.0968   23.3946   24.0013 C   0  0  0  0  0  0  0  0  0  0  0  0
   26.2351   24.1098   23.3416 C   0  0  0  0  0  0  0  0  0  0  0  0
   23.2705   23.2205   25.5812 N   0  0  0  0  0  0  0  0  0  0  0  0
   22.7499   23.5303   26.9302 C   0  0  0  0  0  0  0  0  0  0  0  0
   21.2007   23.5532   26.9173 C   0  0  0  0  0  0  0  0  0  0  0  0
   20.5482   22.5514   26.0421 N   0  0  0  0  0  0  0  0  0  0  0  0
   21.4872   21.4419   25.7841 C   0  0  0  0  0  0  0  0  0  0  0  0
   22.7937   21.9013   25.0849 C   0  0  0  0  0  0  0  0  0  0  0  0
   20.2875   22.9893   25.1585 H   0  0  0  0  0  0  0  0  0  0  0  0
  8  9  1  0
  9 10  2  0
 10  1  1  0
  1  2  2  0
  2  3  1  0
  3  4  1  0
  3  5  2  0
  5  6  1  0
  6 16  1  0
 16 17  2  0
 17 18  1  0
 18 19  2  0
 19 20  1  0
 20 23  1  0
 23 24  1  0
 24 25  1  0
 25 26  1  0
 26 27  1  0
 27 28  1  0
 20 21  2  0
 21 22  1  0
  6  7  2  0
 10 11  1  0
 11 12  1  0
 12 13  2  0
 12 14  1  0
 14 15  1  0
 14  9  1  0
  7  1  1  0
 22 17  1  0
 28 23  1  0
 26 29  1  0
M  END
> <minimizedAffinity>
-9.39292

> <CNNscore>
0.7220768332

> <CNNaffinity>
7.8710875511

> <CNN_VS>
5.6835298538

> <CNNaffinity_variance>
0.1595552713

$$$$



 29 32  0  0  0  0  0  0  0  0999 V2000
   26.4338   29.2020   26.8899 C   0  0  0  0  0  0  0  0  0  0  0  0
   26.0591   30.3402   27.5692 C   0  0  0  0  0  0  0  0  0  0  0  0
   24.9016   30.2451   28.2979 C   0  0  0  0  0  0  0  0  0  0  0  0
   24.4956   31.3265   28.9828 F   0  0  0  0  0  0  0  0  0  0  0  0
   24.1456   29.1465   28.3841 N   0  0  0  0  0  0  0  0  0  0  0  0
   24.5989   28.0991   27.6952 C   0  0  0  0  0  0  0  0  0  0  0  0
   25.7060   28.0683   26.9445 N   0  0  0  0  0  0  0  0  0  0  0  0
   27.5284   26.7763   25.1477 C   0  0  0  0  0  0  0  0  0  0  0  0
   28.1185   28.1454   25.3040 C   0  0  0  0  0  0  0  0  0  0  0  0
   27.6504   29.1546   26.0683 C   0  0  0  0  0  0  0  0  0  0  0  0
   28.6655   30.5698   25.9651 S   0  0  0  0  0  0  0  0  0  0  0  0
   29.7686   29.7585   24.8506 C   0  0  0  0  0  0  0  0  0  0  0  0
   30.7643   30.2892   24.3850 O   0  0  0  0  0  0  0  0  0  0  0  0
   29.2939   28.4741   24.6321 N   0  0  0  0  0  0  0  0  0  0  0  0
   29.9808   27.5762   23.7290 C   0  0  0  0  0  0  0  0  0  0  0  0
   23.8913   26.9135   27.8069 N   0  0  0  0  0  0  0  0  0  0  0  0
   22.9878   26.7981   28.7300 C   0  0  0  0  0  0  0  0  0  0  0  0
   22.5388   27.8560   29.6799 C   0  0  0  0  0  0  0  0  0  0  0  0
   21.7274   27.5337   30.6957 C   0  0  0  0  0  0  0  0  0  0  0  0
   21.2614   26.1888   30.9954 C   0  0  0  0  0  0  0  0  0  0  0  0
   21.5051   25.2365   30.0759 C   0  0  0  0  0  0  0  0  0  0  0  0
   22.2854   25.4440   28.8148 C   0  0  0  0  0  0  0  0  0  0  0  0
   20.5478   25.9648   32.1771 N   0  0  0  0  0  0  0  0  0  0  0  0
   21.0958   26.1891   33.5321 C   0  0  0  0  0  0  0  0  0  0  0  0
   20.0714   26.9540   34.4074 C   0  0  0  0  0  0  0  0  0  0  0  0
   18.6485   26.6018   34.1915 N   0  0  0  0  0  0  0  0  0  0  0  0
   18.5642   25.2627   33.5759 C   0  0  0  0  0  0  0  0  0  0  0  0
   19.2858   25.1771   32.2053 C   0  0  0  0  0  0  0  0  0  0  0  0
   18.2177   27.2888   33.5728 H   0  0  0  0  0  0  0  0  0  0  0  0
  8  9  1  0
  9 10  2  0
 10  1  1  0
  1  2  2  0
  2  3  1  0
  3  4  1  0
  3  5  2  0
  5  6  1  0
  6 16  1  0
 16 17  2  0
 17 18  1  0
 18 19  2  0
 19 20  1  0
 20 23  1  0
 23 24  1  0
 24 25  1  0
 25 26  1  0
 26 27  1  0
 27 28  1  0
 20 21  2  0
 21 22  1  0
  6  7  2  0
 10 11  1  0
 11 12  1  0
 12 13  2  0
 12 14  1  0
 14 15  1  0
 14  9  1  0
  7  1  1  0
 22 17  1  0
 28 23  1  0
 26 29  1  0
M  END
> <minimizedAffinity>
-10.09302

> <CNNscore>
0.5590696931

> <CNNaffinity>
7.2091164589

> <CNN_VS>
4.0303983688

> <CNNaffinity_variance>
0.1381609738

$$$$



 29 32  0  0  0  0  0  0  0  0999 V2000
   26.3855   29.2899   26.8977 C   0  0  0  0  0  0  0  0  0  0  0  0
   26.0252   30.3760   27.6644 C   0  0  0  0  0  0  0  0  0  0  0  0
   24.8895   30.2233   28.4172 C   0  0  0  0  0  0  0  0  0  0  0  0
   24.4984   31.2521   29.1865 F   0  0  0  0  0  0  0  0  0  0  0  0
   24.1413   29.1164   28.4486 N   0  0  0  0  0  0  0  0  0  0  0  0
   24.5795   28.1221   27.6764 C   0  0  0  0  0  0  0  0  0  0  0  0
   25.6647   28.1504   26.8943 N   0  0  0  0  0  0  0  0  0  0  0  0
   28.2934   31.7497   26.2444 C   0  0  0  0  0  0  0  0  0  0  0  0
   28.4133   30.3326   25.7706 C   0  0  0  0  0  0  0  0  0  0  0  0
   27.5782   29.3073   26.0406 C   0  0  0  0  0  0  0  0  0  0  0  0
   28.0917   27.8319   25.2638 S   0  0  0  0  0  0  0  0  0  0  0  0
   29.4855   28.6391   24.5407 C   0  0  0  0  0  0  0  0  0  0  0  0
   30.2928   28.0715   23.8223 O   0  0  0  0  0  0  0  0  0  0  0  0
   29.4678   29.9679   24.9363 N   0  0  0  0  0  0  0  0  0  0  0  0
   30.5144   30.8765   24.5205 C   0  0  0  0  0  0  0  0  0  0  0  0
   23.8808   26.9270   27.7259 N   0  0  0  0  0  0  0  0  0  0  0  0
   22.9642   26.7644   28.6287 C   0  0  0  0  0  0  0  0  0  0  0  0
   22.4911   27.7767   29.6159 C   0  0  0  0  0  0  0  0  0  0  0  0
   21.6670   27.4043   30.6040 C   0  0  0  0  0  0  0  0  0  0  0  0
   21.2084   26.0439   30.8382 C   0  0  0  0  0  0  0  0  0  0  0  0
   21.4749   25.1341   29.8826 C   0  0  0  0  0  0  0  0  0  0  0  0
   22.2727   25.4022   28.6441 C   0  0  0  0  0  0  0  0  0  0  0  0
   20.4787   25.7634   31.9977 N   0  0  0  0  0  0  0  0  0  0  0  0
   19.1820   25.0527   32.0100 C   0  0  0  0  0  0  0  0  0  0  0  0
   19.1729   23.9682   33.1166 C   0  0  0  0  0  0  0  0  0  0  0  0
   19.8798   24.3200   34.3703 N   0  0  0  0  0  0  0  0  0  0  0  0
   19.9864   25.7886   34.4759 C   0  0  0  0  0  0  0  0  0  0  0  0
   20.7669   26.4278   33.2975 C   0  0  0  0  0  0  0  0  0  0  0  0
   20.8140   23.9106   34.3610 H   0  0  0  0  0  0  0  0  0  0  0  0
  8  9  1  0
  9 10  2  0
 10  1  1  0
  1  2  2  0
  2  3  1  0
  3  4  1  0
  3  5  2  0
  5  6  1  0
  6 16  1  0
 16 17  2  0
 17 18  1  0
 18 19  2  0
 19 20  1  0
 20 23  1  0
 23 24  1  0
 24 25  1  0
 25 26  1  0
 26 27  1  0
 27 28  1  0
 20 21  2  0
 21 22  1  0
  6  7  2  0
 10 11  1  0
 11 12  1  0
 12 13  2  0
 12 14  1  0
 14 15  1  0
 14  9  1  0
  7  1  1  0
 22 17  1  0
 28 23  1  0
 26 29  1  0
M  END
> <minimizedAffinity>
-10.63573

> <CNNscore>
0.4287578464

> <CNNaffinity>
6.9787373543

> <CNN_VS>
2.9921884537

> <CNNaffinity_variance>
0.2771563232

$$$$



 29 32  0  0  0  0  0  0  0  0999 V2000
   25.8406   27.8887   26.3206 C   0  0  0  0  0  0  0  0  0  0  0  0
   26.8662   27.1841   25.7300 C   0  0  0  0  0  0  0  0  0  0  0  0
   26.5719   25.8948   25.3680 C   0  0  0  0  0  0  0  0  0  0  0  0
   27.5371   25.1668   24.7834 F   0  0  0  0  0  0  0  0  0  0  0  0
   25.3856   25.3065   25.5480 N   0  0  0  0  0  0  0  0  0  0  0  0
   24.4602   26.0758   26.1215 C   0  0  0  0  0  0  0  0  0  0  0  0
   24.6255   27.3409   26.5244 N   0  0  0  0  0  0  0  0  0  0  0  0
   27.9520   30.0302   25.2846 C   0  0  0  0  0  0  0  0  0  0  0  0
   26.8805   30.2100   26.3174 C   0  0  0  0  0  0  0  0  0  0  0  0
   26.0086   29.2799   26.7607 C   0  0  0  0  0  0  0  0  0  0  0  0
   24.9445   29.9214   27.9855 S   0  0  0  0  0  0  0  0  0  0  0  0
   25.7172   31.5064   27.8974 C   0  0  0  0  0  0  0  0  0  0  0  0
   25.3778   32.4585   28.5817 O   0  0  0  0  0  0  0  0  0  0  0  0
   26.7257   31.4426   26.9480 N   0  0  0  0  0  0  0  0  0  0  0  0
   27.5188   32.6112   26.6330 C   0  0  0  0  0  0  0  0  0  0  0  0
   23.1917   25.5386   26.2669 N   0  0  0  0  0  0  0  0  0  0  0  0
   22.5324   25.7549   27.3624 C   0  0  0  0  0  0  0  0  0  0  0  0
   22.9546   26.6134   28.5061 C   0  0  0  0  0  0  0  0  0  0  0  0
   22.2503   26.5932   29.6453 C   0  0  0  0  0  0  0  0  0  0  0  0
   21.0940   25.7468   29.8952 C   0  0  0  0  0  0  0  0  0  0  0  0
   20.5815   25.0827   28.8425 C   0  0  0  0  0  0  0  0  0  0  0  0
   21.1604   25.0901   27.4615 C   0  0  0  0  0  0  0  0  0  0  0  0
   20.5469   25.7068   31.1815 N   0  0  0  0  0  0  0  0  0  0  0  0
   19.1617   25.2847   31.4810 C   0  0  0  0  0  0  0  0  0  0  0  0
   19.1447   24.3065   32.6824 C   0  0  0  0  0  0  0  0  0  0  0  0
   20.1220   24.5905   33.7593 N   0  0  0  0  0  0  0  0  0  0  0  0
   20.5274   26.0083   33.6902 C   0  0  0  0  0  0  0  0  0  0  0  0
   21.1892   26.3863   32.3390 C   0  0  0  0  0  0  0  0  0  0  0  0
   20.9421   23.9957   33.6405 H   0  0  0  0  0  0  0  0  0  0  0  0
  8  9  1  0
  9 10  2  0
 10  1  1  0
  1  2  2  0
  2  3  1  0
  3  4  1  0
  3  5  2  0
  5  6  1  0
  6 16  1  0
 16 17  2  0
 17 18  1  0
 18 19  2  0
 19 20  1  0
 20 23  1  0
 23 24  1  0
 24 25  1  0
 25 26  1  0
 26 27  1  0
 27 28  1  0
 20 21  2  0
 21 22  1  0
  6  7  2  0
 10 11  1  0
 11 12  1  0
 12 13  2  0
 12 14  1  0
 14 15  1  0
 14  9  1  0
  7  1  1  0
 22 17  1  0
 28 23  1  0
 26 29  1  0
M  END
> <minimizedAffinity>
-9.18532

> <CNNscore>
0.3787370324

> <CNNaffinity>
7.1721539497

> <CNN_VS>
2.7163603306

> <CNNaffinity_variance>
0.0651334524

$$$$
