


 34 37  0  0  0  0  0  0  0  0999 V2000
  -29.3804    2.4660   27.7745 N   0  0  0  0  0  0  0  0  0  0  0  0
  -29.7097    2.1005   26.4954 C   0  0  0  0  0  0  0  0  0  0  0  0
  -28.8844    1.5707   25.7509 O   0  0  0  0  0  0  0  0  0  0  0  0
  -30.0818    2.8187   28.3685 H   0  0  0  0  0  0  0  0  0  0  0  0
  -31.0924    2.3460   25.9827 C   0  0  0  0  0  0  0  0  0  0  0  0
  -31.2754    3.5347   25.2418 C   0  0  0  0  0  0  0  0  0  0  0  0
  -32.5197    3.8963   24.6953 C   0  0  0  0  0  0  0  0  0  0  0  0
  -33.6335    3.0802   24.8702 C   0  0  0  0  0  0  0  0  0  0  0  0
  -33.4791    1.9090   25.5943 C   0  0  0  0  0  0  0  0  0  0  0  0
  -32.2193    1.5497   26.1419 C   0  0  0  0  0  0  0  0  0  0  0  0
  -32.4431    0.2555   26.8379 C   0  0  0  0  0  0  0  0  0  0  0  0
  -31.6359   -0.4134   27.4454 O   0  0  0  0  0  0  0  0  0  0  0  0
  -33.8605   -0.1084   26.6716 C   0  0  0  0  0  0  0  0  0  0  0  0
  -34.5312   -1.2206   27.1441 C   0  0  0  0  0  0  0  0  0  0  0  0
  -35.8851   -1.3096   26.8349 C   0  0  0  0  0  0  0  0  0  0  0  0
  -36.7953   -2.6639   27.3860 Cl  0  0  0  0  0  0  0  0  0  0  0  0
  -36.5253   -0.3090   26.0782 C   0  0  0  0  0  0  0  0  0  0  0  0
  -35.8153    0.8080   25.6134 C   0  0  0  0  0  0  0  0  0  0  0  0
  -34.4677    0.9018   25.9183 C   0  0  0  0  0  0  0  0  0  0  0  0
  -28.0202    2.3457   28.2764 C   0  0  0  0  0  0  0  0  0  0  0  0
  -24.5311    5.0533   27.2355 C   0  0  0  0  0  0  0  0  0  0  0  0
  -24.9187    3.5736   27.2050 C   0  0  0  0  0  0  0  0  0  0  0  0
  -26.3457    3.4934   26.8521 N   0  0  0  0  0  0  0  0  0  0  0  0
  -26.9816    2.1872   27.1386 C   0  0  0  0  0  0  0  0  0  0  0  0
  -25.9974    1.0329   27.4375 C   0  0  0  0  0  0  0  0  0  0  0  0
  -25.2905    0.6984   26.2280 O   0  0  0  0  0  0  0  0  0  0  0  0
  -24.9781    1.3818   28.5345 C   0  0  0  0  0  0  0  0  0  0  0  0
  -25.4697    1.0318   29.8412 O   0  0  0  0  0  0  0  0  0  0  0  0
  -24.5657    2.8702   28.5353 C   0  0  0  0  0  0  0  0  0  0  0  0
  -25.1417    3.5491   29.6608 O   0  0  0  0  0  0  0  0  0  0  0  0
  -26.4368    3.6789   25.8533 H   0  0  0  0  0  0  0  0  0  0  0  0
  -24.7778    1.4662   25.9303 H   0  0  0  0  0  0  0  0  0  0  0  0
  -26.2565    1.5619   30.0434 H   0  0  0  0  0  0  0  0  0  0  0  0
  -26.1090    3.5210   29.5949 H   0  0  0  0  0  0  0  0  0  0  0  0
 22 21  1  0
 22 23  1  0
 23 24  1  0
 24 20  1  0
 20  1  1  0
  1  2  1  0
  2  3  2  0
  2  5  1  0
  5  6  2  0
  6  7  1  0
  7  8  2  0
  8  9  1  0
  9 10  2  0
 10 11  1  0
 11 12  2  0
 11 13  1  0
 13 14  2  0
 14 15  1  0
 15 16  1  0
 15 17  2  0
 17 18  1  0
 18 19  2  0
 24 25  1  0
 25 26  1  0
 25 27  1  0
 27 28  1  0
 27 29  1  0
 29 30  1  0
 29 22  1  0
 10  5  1  0
 19 13  1  0
 19  9  1  0
 23 31  1  0
  1  4  1  0
 26 32  1  0
 28 33  1  0
 30 34  1  0
M  END
> <minimizedAffinity>
-9.12404

> <CNNscore>
0.9066424370

> <CNNaffinity>
7.2651772499

> <CNN_VS>
6.5869178772

> <CNNaffinity_variance>
0.1720107943

$$$$



 34 37  0  0  0  0  0  0  0  0999 V2000
  -29.0994    1.4826   28.1014 N   0  0  0  0  0  0  0  0  0  0  0  0
  -29.6023    1.2371   26.8504 C   0  0  0  0  0  0  0  0  0  0  0  0
  -29.0269    1.6438   25.8406 O   0  0  0  0  0  0  0  0  0  0  0  0
  -29.5419    1.0812   28.8838 H   0  0  0  0  0  0  0  0  0  0  0  0
  -30.8725    0.4642   26.6962 C   0  0  0  0  0  0  0  0  0  0  0  0
  -30.7743   -0.9319   26.8873 C   0  0  0  0  0  0  0  0  0  0  0  0
  -31.8859   -1.7862   26.7770 C   0  0  0  0  0  0  0  0  0  0  0  0
  -33.1434   -1.2752   26.4693 C   0  0  0  0  0  0  0  0  0  0  0  0
  -33.2649    0.0915   26.2764 C   0  0  0  0  0  0  0  0  0  0  0  0
  -32.1383    0.9481   26.3908 C   0  0  0  0  0  0  0  0  0  0  0  0
  -32.6507    2.3168   26.1196 C   0  0  0  0  0  0  0  0  0  0  0  0
  -32.0296    3.3571   26.1117 O   0  0  0  0  0  0  0  0  0  0  0  0
  -34.0945    2.2138   25.8482 C   0  0  0  0  0  0  0  0  0  0  0  0
  -34.9934    3.2187   25.5442 C   0  0  0  0  0  0  0  0  0  0  0  0
  -36.3130    2.8310   25.3320 C   0  0  0  0  0  0  0  0  0  0  0  0
  -37.4970    4.0212   24.9479 Cl  0  0  0  0  0  0  0  0  0  0  0  0
  -36.6975    1.4793   25.4255 C   0  0  0  0  0  0  0  0  0  0  0  0
  -35.7598    0.4832   25.7359 C   0  0  0  0  0  0  0  0  0  0  0  0
  -34.4452    0.8633   25.9480 C   0  0  0  0  0  0  0  0  0  0  0  0
  -27.9279    2.3216   28.3020 C   0  0  0  0  0  0  0  0  0  0  0  0
  -24.5069    5.1035   27.2310 C   0  0  0  0  0  0  0  0  0  0  0  0
  -24.8658    3.6167   27.1967 C   0  0  0  0  0  0  0  0  0  0  0  0
  -26.2956    3.5104   26.8624 N   0  0  0  0  0  0  0  0  0  0  0  0
  -26.9018    2.1903   27.1495 C   0  0  0  0  0  0  0  0  0  0  0  0
  -25.8912    1.0539   27.4282 C   0  0  0  0  0  0  0  0  0  0  0  0
  -25.1941    0.7404   26.2075 O   0  0  0  0  0  0  0  0  0  0  0  0
  -24.8643    1.4165   28.5136 C   0  0  0  0  0  0  0  0  0  0  0  0
  -25.3312    1.0493   29.8247 O   0  0  0  0  0  0  0  0  0  0  0  0
  -24.4812    2.9127   28.5180 C   0  0  0  0  0  0  0  0  0  0  0  0
  -25.0552    3.5736   29.6551 O   0  0  0  0  0  0  0  0  0  0  0  0
  -26.4038    3.6998   25.8660 H   0  0  0  0  0  0  0  0  0  0  0  0
  -24.7007    1.5198   25.9075 H   0  0  0  0  0  0  0  0  0  0  0  0
  -26.1255    1.5626   30.0405 H   0  0  0  0  0  0  0  0  0  0  0  0
  -26.0227    3.5268   29.6020 H   0  0  0  0  0  0  0  0  0  0  0  0
 22 21  1  0
 22 23  1  0
 23 24  1  0
 24 20  1  0
 20  1  1  0
  1  2  1  0
  2  3  2  0
  2  5  1  0
  5  6  2  0
  6  7  1  0
  7  8  2  0
  8  9  1  0
  9 10  2  0
 10 11  1  0
 11 12  2  0
 11 13  1  0
 13 14  2  0
 14 15  1  0
 15 16  1  0
 15 17  2  0
 17 18  1  0
 18 19  2  0
 24 25  1  0
 25 26  1  0
 25 27  1  0
 27 28  1  0
 27 29  1  0
 29 30  1  0
 29 22  1  0
 10  5  1  0
 19 13  1  0
 19  9  1  0
 23 31  1  0
  1  4  1  0
 26 32  1  0
 28 33  1  0
 30 34  1  0
M  END
> <minimizedAffinity>
-8.71563

> <CNNscore>
0.8621816635

> <CNNaffinity>
7.1180415154

> <CNN_VS>
6.1370449066

> <CNNaffinity_variance>
0.1857152432

$$$$



 34 37  0  0  0  0  0  0  0  0999 V2000
  -29.1361    1.5579   27.8039 N   0  0  0  0  0  0  0  0  0  0  0  0
  -29.3882    0.2870   27.3575 C   0  0  0  0  0  0  0  0  0  0  0  0
  -28.5438   -0.6035   27.4578 O   0  0  0  0  0  0  0  0  0  0  0  0
  -29.8570    2.2278   27.7773 H   0  0  0  0  0  0  0  0  0  0  0  0
  -30.7079   -0.0358   26.7339 C   0  0  0  0  0  0  0  0  0  0  0  0
  -31.6696   -0.6192   27.5883 C   0  0  0  0  0  0  0  0  0  0  0  0
  -32.9554   -0.9738   27.1425 C   0  0  0  0  0  0  0  0  0  0  0  0
  -33.3300   -0.7586   25.8194 C   0  0  0  0  0  0  0  0  0  0  0  0
  -32.4033   -0.1882   24.9617 C   0  0  0  0  0  0  0  0  0  0  0  0
  -31.1075    0.1686   25.4193 C   0  0  0  0  0  0  0  0  0  0  0  0
  -30.4112    0.7387   24.2362 C   0  0  0  0  0  0  0  0  0  0  0  0
  -29.2814    1.1718   24.1734 O   0  0  0  0  0  0  0  0  0  0  0  0
  -31.3445    0.6951   23.0977 C   0  0  0  0  0  0  0  0  0  0  0  0
  -31.1432    1.1118   21.7954 C   0  0  0  0  0  0  0  0  0  0  0  0
  -32.2105    0.9491   20.9173 C   0  0  0  0  0  0  0  0  0  0  0  0
  -32.0430    1.4421   19.2756 Cl  0  0  0  0  0  0  0  0  0  0  0  0
  -33.4275    0.3866   21.3487 C   0  0  0  0  0  0  0  0  0  0  0  0
  -33.5992   -0.0266   22.6782 C   0  0  0  0  0  0  0  0  0  0  0  0
  -32.5404    0.1329   23.5564 C   0  0  0  0  0  0  0  0  0  0  0  0
  -27.8297    1.9419   28.3161 C   0  0  0  0  0  0  0  0  0  0  0  0
  -24.5081    4.8173   27.1814 C   0  0  0  0  0  0  0  0  0  0  0  0
  -24.7710    3.3147   27.2990 C   0  0  0  0  0  0  0  0  0  0  0  0
  -26.1584    3.0698   26.8723 N   0  0  0  0  0  0  0  0  0  0  0  0
  -26.7045    1.7518   27.2691 C   0  0  0  0  0  0  0  0  0  0  0  0
  -25.6530    0.7294   27.7584 C   0  0  0  0  0  0  0  0  0  0  0  0
  -24.8382    0.3278   26.6407 O   0  0  0  0  0  0  0  0  0  0  0  0
  -24.7448    1.2861   28.8672 C   0  0  0  0  0  0  0  0  0  0  0  0
  -25.2966    1.0400   30.1736 O   0  0  0  0  0  0  0  0  0  0  0  0
  -24.4559    2.7963   28.7207 C   0  0  0  0  0  0  0  0  0  0  0  0
  -25.1627    3.5412   29.7232 O   0  0  0  0  0  0  0  0  0  0  0  0
  -26.1942    3.1352   25.8550 H   0  0  0  0  0  0  0  0  0  0  0  0
  -24.3701    1.1005   26.2876 H   0  0  0  0  0  0  0  0  0  0  0  0
  -26.1361    1.5171   30.2652 H   0  0  0  0  0  0  0  0  0  0  0  0
  -26.1175    3.4203   29.6028 H   0  0  0  0  0  0  0  0  0  0  0  0
 22 21  1  0
 22 23  1  0
 23 24  1  0
 24 20  1  0
 20  1  1  0
  1  2  1  0
  2  3  2  0
  2  5  1  0
  5  6  2  0
  6  7  1  0
  7  8  2  0
  8  9  1  0
  9 10  2  0
 10 11  1  0
 11 12  2  0
 11 13  1  0
 13 14  2  0
 14 15  1  0
 15 16  1  0
 15 17  2  0
 17 18  1  0
 18 19  2  0
 24 25  1  0
 25 26  1  0
 25 27  1  0
 27 28  1  0
 27 29  1  0
 29 30  1  0
 29 22  1  0
 10  5  1  0
 19 13  1  0
 19  9  1  0
 23 31  1  0
  1  4  1  0
 26 32  1  0
 28 33  1  0
 30 34  1  0
M  END
> <minimizedAffinity>
-7.33356

> <CNNscore>
0.8618492484

> <CNNaffinity>
7.1529908180

> <CNN_VS>
6.1647996902

> <CNNaffinity_variance>
0.3572347164

$$$$



 34 37  0  0  0  0  0  0  0  0999 V2000
  -32.6385    4.7486   22.6289 N   0  0  0  0  0  0  0  0  0  0  0  0
  -33.6793    5.4335   23.1996 C   0  0  0  0  0  0  0  0  0  0  0  0
  -34.3066    4.9649   24.1498 O   0  0  0  0  0  0  0  0  0  0  0  0
  -32.1100    5.1818   21.9202 H   0  0  0  0  0  0  0  0  0  0  0  0
  -34.0708    6.7741   22.6664 C   0  0  0  0  0  0  0  0  0  0  0  0
  -33.6172    7.8899   23.4043 C   0  0  0  0  0  0  0  0  0  0  0  0
  -33.9054    9.2122   23.0219 C   0  0  0  0  0  0  0  0  0  0  0  0
  -34.6622    9.4705   21.8827 C   0  0  0  0  0  0  0  0  0  0  0  0
  -35.1194    8.3920   21.1427 C   0  0  0  0  0  0  0  0  0  0  0  0
  -34.8231    7.0596   21.5341 C   0  0  0  0  0  0  0  0  0  0  0  0
  -35.4717    6.1928   20.5156 C   0  0  0  0  0  0  0  0  0  0  0  0
  -35.4747    4.9824   20.4599 O   0  0  0  0  0  0  0  0  0  0  0  0
  -36.1429    7.0670   19.5388 C   0  0  0  0  0  0  0  0  0  0  0  0
  -36.8748    6.7157   18.4202 C   0  0  0  0  0  0  0  0  0  0  0  0
  -37.4031    7.7605   17.6680 C   0  0  0  0  0  0  0  0  0  0  0  0
  -38.3285    7.4097   16.2585 Cl  0  0  0  0  0  0  0  0  0  0  0  0
  -37.1941    9.1026   18.0405 C   0  0  0  0  0  0  0  0  0  0  0  0
  -36.4461    9.4254   19.1825 C   0  0  0  0  0  0  0  0  0  0  0  0
  -35.9180    8.3896   19.9349 C   0  0  0  0  0  0  0  0  0  0  0  0
  -32.2950    3.3973   23.0443 C   0  0  0  0  0  0  0  0  0  0  0  0
  -33.0997    0.5114   26.4520 C   0  0  0  0  0  0  0  0  0  0  0  0
  -31.9537    1.3264   25.8496 C   0  0  0  0  0  0  0  0  0  0  0  0
  -32.5128    2.6064   25.3846 N   0  0  0  0  0  0  0  0  0  0  0  0
  -31.6447    3.3576   24.4493 C   0  0  0  0  0  0  0  0  0  0  0  0
  -30.1822    2.8618   24.3740 C   0  0  0  0  0  0  0  0  0  0  0  0
  -29.5218    3.1681   25.6168 O   0  0  0  0  0  0  0  0  0  0  0  0
  -30.0732    1.3516   24.1066 C   0  0  0  0  0  0  0  0  0  0  0  0
  -30.0294    1.0679   22.6961 O   0  0  0  0  0  0  0  0  0  0  0  0
  -31.2148    0.5327   24.7482 C   0  0  0  0  0  0  0  0  0  0  0  0
  -32.1203    0.0602   23.7401 O   0  0  0  0  0  0  0  0  0  0  0  0
  -32.6835    3.1938   26.2008 H   0  0  0  0  0  0  0  0  0  0  0  0
  -29.9648    2.7005   26.3421 H   0  0  0  0  0  0  0  0  0  0  0  0
  -30.8641    1.3422   22.2851 H   0  0  0  0  0  0  0  0  0  0  0  0
  -32.5290    0.8173   23.2920 H   0  0  0  0  0  0  0  0  0  0  0  0
 22 21  1  0
 22 23  1  0
 23 24  1  0
 24 20  1  0
 20  1  1  0
  1  2  1  0
  2  3  2  0
  2  5  1  0
  5  6  2  0
  6  7  1  0
  7  8  2  0
  8  9  1  0
  9 10  2  0
 10 11  1  0
 11 12  2  0
 11 13  1  0
 13 14  2  0
 14 15  1  0
 15 16  1  0
 15 17  2  0
 17 18  1  0
 18 19  2  0
 24 25  1  0
 25 26  1  0
 25 27  1  0
 27 28  1  0
 27 29  1  0
 29 30  1  0
 29 22  1  0
 10  5  1  0
 19 13  1  0
 19  9  1  0
 23 31  1  0
  1  4  1  0
 26 32  1  0
 28 33  1  0
 30 34  1  0
M  END
> <minimizedAffinity>
-7.67850

> <CNNscore>
0.3705790043

> <CNNaffinity>
4.5774855614

> <CNN_VS>
1.6963200569

> <CNNaffinity_variance>
0.4895099699

$$$$



 34 37  0  0  0  0  0  0  0  0999 V2000
  -29.5244    2.3279   27.1868 N   0  0  0  0  0  0  0  0  0  0  0  0
  -30.0625    1.9263   25.9921 C   0  0  0  0  0  0  0  0  0  0  0  0
  -29.3443    1.6031   25.0456 O   0  0  0  0  0  0  0  0  0  0  0  0
  -30.1238    2.5082   27.9467 H   0  0  0  0  0  0  0  0  0  0  0  0
  -31.5469    1.8772   25.8222 C   0  0  0  0  0  0  0  0  0  0  0  0
  -32.1166    2.9183   25.0561 C   0  0  0  0  0  0  0  0  0  0  0  0
  -33.4986    3.0013   24.8096 C   0  0  0  0  0  0  0  0  0  0  0  0
  -34.3677    2.0428   25.3226 C   0  0  0  0  0  0  0  0  0  0  0  0
  -33.8326    1.0120   26.0782 C   0  0  0  0  0  0  0  0  0  0  0  0
  -32.4359    0.9340   26.3216 C   0  0  0  0  0  0  0  0  0  0  0  0
  -32.2451   -0.2823   27.1545 C   0  0  0  0  0  0  0  0  0  0  0  0
  -31.2083   -0.7297   27.5938 O   0  0  0  0  0  0  0  0  0  0  0  0
  -33.5679   -0.8903   27.3770 C   0  0  0  0  0  0  0  0  0  0  0  0
  -33.8895   -2.0292   28.0909 C   0  0  0  0  0  0  0  0  0  0  0  0
  -35.2365   -2.3756   28.1374 C   0  0  0  0  0  0  0  0  0  0  0  0
  -35.7231   -3.7807   29.0064 Cl  0  0  0  0  0  0  0  0  0  0  0  0
  -36.2108   -1.5951   27.4853 C   0  0  0  0  0  0  0  0  0  0  0  0
  -35.8508   -0.4440   26.7689 C   0  0  0  0  0  0  0  0  0  0  0  0
  -34.5117   -0.0945   26.7193 C   0  0  0  0  0  0  0  0  0  0  0  0
  -28.0896    2.4946   27.3601 C   0  0  0  0  0  0  0  0  0  0  0  0
  -27.0565   -1.9000   26.9027 C   0  0  0  0  0  0  0  0  0  0  0  0
  -26.5842   -0.6552   27.6564 C   0  0  0  0  0  0  0  0  0  0  0  0
  -27.7780    0.1249   28.0217 N   0  0  0  0  0  0  0  0  0  0  0  0
  -27.5049    1.5255   28.4172 C   0  0  0  0  0  0  0  0  0  0  0  0
  -26.0202    1.8449   28.7071 C   0  0  0  0  0  0  0  0  0  0  0  0
  -25.6260    1.1700   29.9169 O   0  0  0  0  0  0  0  0  0  0  0  0
  -25.0808    1.4201   27.5665 C   0  0  0  0  0  0  0  0  0  0  0  0
  -24.9105    2.4759   26.6031 O   0  0  0  0  0  0  0  0  0  0  0  0
  -25.5465    0.1425   26.8341 C   0  0  0  0  0  0  0  0  0  0  0  0
  -26.0444    0.4670   25.5279 O   0  0  0  0  0  0  0  0  0  0  0  0
  -28.2359   -0.3426   28.8041 H   0  0  0  0  0  0  0  0  0  0  0  0
  -25.7132    0.2116   29.7956 H   0  0  0  0  0  0  0  0  0  0  0  0
  -25.7614    2.6660   26.1780 H   0  0  0  0  0  0  0  0  0  0  0  0
  -26.8179    1.0463   25.6114 H   0  0  0  0  0  0  0  0  0  0  0  0
 22 21  1  0
 22 23  1  0
 23 24  1  0
 24 20  1  0
 20  1  1  0
  1  2  1  0
  2  3  2  0
  2  5  1  0
  5  6  2  0
  6  7  1  0
  7  8  2  0
  8  9  1  0
  9 10  2  0
 10 11  1  0
 11 12  2  0
 11 13  1  0
 13 14  2  0
 14 15  1  0
 15 16  1  0
 15 17  2  0
 17 18  1  0
 18 19  2  0
 24 25  1  0
 25 26  1  0
 25 27  1  0
 27 28  1  0
 27 29  1  0
 29 30  1  0
 29 22  1  0
 10  5  1  0
 19 13  1  0
 19  9  1  0
 23 31  1  0
  1  4  1  0
 26 32  1  0
 28 33  1  0
 30 34  1  0
M  END
> <minimizedAffinity>
-8.87265

> <CNNscore>
0.2278874367

> <CNNaffinity>
5.1405186653

> <CNN_VS>
1.1714596748

> <CNNaffinity_variance>
0.0895903707

$$$$



 34 37  0  0  0  0  0  0  0  0999 V2000
  -29.5650    2.2533   26.7582 N   0  0  0  0  0  0  0  0  0  0  0  0
  -29.8927    1.7776   25.5155 C   0  0  0  0  0  0  0  0  0  0  0  0
  -29.0226    1.4590   24.7046 O   0  0  0  0  0  0  0  0  0  0  0  0
  -30.2822    2.4288   27.4094 H   0  0  0  0  0  0  0  0  0  0  0  0
  -31.3292    1.6401   25.1250 C   0  0  0  0  0  0  0  0  0  0  0  0
  -31.6406    0.5460   24.2876 C   0  0  0  0  0  0  0  0  0  0  0  0
  -32.9492    0.2886   23.8417 C   0  0  0  0  0  0  0  0  0  0  0  0
  -34.0010    1.1194   24.2170 C   0  0  0  0  0  0  0  0  0  0  0  0
  -33.7202    2.2000   25.0375 C   0  0  0  0  0  0  0  0  0  0  0  0
  -32.3966    2.4528   25.4850 C   0  0  0  0  0  0  0  0  0  0  0  0
  -32.4883    3.6740   26.3273 C   0  0  0  0  0  0  0  0  0  0  0  0
  -31.5938    4.2452   26.9117 O   0  0  0  0  0  0  0  0  0  0  0  0
  -33.8960    4.1067   26.3450 C   0  0  0  0  0  0  0  0  0  0  0  0
  -34.4620    5.1897   26.9907 C   0  0  0  0  0  0  0  0  0  0  0  0
  -35.8337    5.3625   26.8318 C   0  0  0  0  0  0  0  0  0  0  0  0
  -36.6181    6.6879   27.6027 Cl  0  0  0  0  0  0  0  0  0  0  0  0
  -36.5929    4.4709   26.0494 C   0  0  0  0  0  0  0  0  0  0  0  0
  -35.9873    3.3809   25.4067 C   0  0  0  0  0  0  0  0  0  0  0  0
  -34.6225    3.2041   25.5613 C   0  0  0  0  0  0  0  0  0  0  0  0
  -28.1838    2.5056   27.1391 C   0  0  0  0  0  0  0  0  0  0  0  0
  -27.2644   -1.9221   26.7661 C   0  0  0  0  0  0  0  0  0  0  0  0
  -26.7929   -0.6858   27.5340 C   0  0  0  0  0  0  0  0  0  0  0  0
  -27.9791    0.1334   27.8325 N   0  0  0  0  0  0  0  0  0  0  0  0
  -27.6835    1.5284   28.2315 C   0  0  0  0  0  0  0  0  0  0  0  0
  -26.2063    1.8051   28.5944 C   0  0  0  0  0  0  0  0  0  0  0  0
  -25.8949    1.1290   29.8274 O   0  0  0  0  0  0  0  0  0  0  0  0
  -25.2238    1.3421   27.5061 C   0  0  0  0  0  0  0  0  0  0  0  0
  -24.9725    2.3839   26.5452 O   0  0  0  0  0  0  0  0  0  0  0  0
  -25.6909    0.0730   26.7600 C   0  0  0  0  0  0  0  0  0  0  0  0
  -26.1116    0.4012   25.4278 O   0  0  0  0  0  0  0  0  0  0  0  0
  -28.4902   -0.3133   28.5938 H   0  0  0  0  0  0  0  0  0  0  0  0
  -26.0051    0.1726   29.7086 H   0  0  0  0  0  0  0  0  0  0  0  0
  -25.7945    2.5961   26.0760 H   0  0  0  0  0  0  0  0  0  0  0  0
  -26.8703    1.0043   25.4678 H   0  0  0  0  0  0  0  0  0  0  0  0
 22 21  1  0
 22 23  1  0
 23 24  1  0
 24 20  1  0
 20  1  1  0
  1  2  1  0
  2  3  2  0
  2  5  1  0
  5  6  2  0
  6  7  1  0
  7  8  2  0
  8  9  1  0
  9 10  2  0
 10 11  1  0
 11 12  2  0
 11 13  1  0
 13 14  2  0
 14 15  1  0
 15 16  1  0
 15 17  2  0
 17 18  1  0
 18 19  2  0
 24 25  1  0
 25 26  1  0
 25 27  1  0
 27 28  1  0
 27 29  1  0
 29 30  1  0
 29 22  1  0
 10  5  1  0
 19 13  1  0
 19  9  1  0
 23 31  1  0
  1  4  1  0
 26 32  1  0
 28 33  1  0
 30 34  1  0
M  END
> <minimizedAffinity>
-8.82802

> <CNNscore>
0.1658380926

> <CNNaffinity>
4.5528602600

> <CNN_VS>
0.7550376654

> <CNNaffinity_variance>
0.5969592929

$$$$



 34 37  0  0  0  0  0  0  0  0999 V2000
  -29.6894    1.6038   27.2006 N   0  0  0  0  0  0  0  0  0  0  0  0
  -30.2627    0.5579   26.5256 C   0  0  0  0  0  0  0  0  0  0  0  0
  -29.5730   -0.2885   25.9563 O   0  0  0  0  0  0  0  0  0  0  0  0
  -30.2650    2.2212   27.7072 H   0  0  0  0  0  0  0  0  0  0  0  0
  -31.7513    0.4325   26.4709 C   0  0  0  0  0  0  0  0  0  0  0  0
  -32.3155   -0.5910   27.2643 C   0  0  0  0  0  0  0  0  0  0  0  0
  -33.7011   -0.8257   27.3153 C   0  0  0  0  0  0  0  0  0  0  0  0
  -34.5793   -0.0433   26.5711 C   0  0  0  0  0  0  0  0  0  0  0  0
  -34.0495    0.9666   25.7843 C   0  0  0  0  0  0  0  0  0  0  0  0
  -32.6495    1.1987   25.7389 C   0  0  0  0  0  0  0  0  0  0  0  0
  -32.4659    2.3396   24.8040 C   0  0  0  0  0  0  0  0  0  0  0  0
  -31.4291    2.8702   24.4701 O   0  0  0  0  0  0  0  0  0  0  0  0
  -33.7962    2.7470   24.3208 C   0  0  0  0  0  0  0  0  0  0  0  0
  -34.1256    3.7577   23.4375 C   0  0  0  0  0  0  0  0  0  0  0  0
  -35.4783    3.9216   23.1548 C   0  0  0  0  0  0  0  0  0  0  0  0
  -35.9746    5.1581   22.0635 Cl  0  0  0  0  0  0  0  0  0  0  0  0
  -36.4504    3.0917   23.7464 C   0  0  0  0  0  0  0  0  0  0  0  0
  -36.0824    2.0743   24.6393 C   0  0  0  0  0  0  0  0  0  0  0  0
  -34.7376    1.9066   24.9243 C   0  0  0  0  0  0  0  0  0  0  0  0
  -28.2515    1.8244   27.1871 C   0  0  0  0  0  0  0  0  0  0  0  0
  -26.1379   -2.1618   26.7061 C   0  0  0  0  0  0  0  0  0  0  0  0
  -26.0369   -0.8700   27.5195 C   0  0  0  0  0  0  0  0  0  0  0  0
  -27.4072   -0.4210   27.8158 N   0  0  0  0  0  0  0  0  0  0  0  0
  -27.5144    0.9871   28.2613 C   0  0  0  0  0  0  0  0  0  0  0  0
  -26.1763    1.6486   28.6640 C   0  0  0  0  0  0  0  0  0  0  0  0
  -25.7057    1.0435   29.8835 O   0  0  0  0  0  0  0  0  0  0  0  0
  -25.0901    1.5121   27.5844 C   0  0  0  0  0  0  0  0  0  0  0  0
  -25.1245    2.6146   26.6597 O   0  0  0  0  0  0  0  0  0  0  0  0
  -25.1780    0.1893   26.7919 C   0  0  0  0  0  0  0  0  0  0  0  0
  -25.6561    0.4334   25.4610 O   0  0  0  0  0  0  0  0  0  0  0  0
  -27.7845   -1.0169   28.5526 H   0  0  0  0  0  0  0  0  0  0  0  0
  -25.5455    0.0985   29.7346 H   0  0  0  0  0  0  0  0  0  0  0  0
  -25.9671    2.6073   26.1791 H   0  0  0  0  0  0  0  0  0  0  0  0
  -26.5524    0.8018   25.5019 H   0  0  0  0  0  0  0  0  0  0  0  0
 22 21  1  0
 22 23  1  0
 23 24  1  0
 24 20  1  0
 20  1  1  0
  1  2  1  0
  2  3  2  0
  2  5  1  0
  5  6  2  0
  6  7  1  0
  7  8  2  0
  8  9  1  0
  9 10  2  0
 10 11  1  0
 11 12  2  0
 11 13  1  0
 13 14  2  0
 14 15  1  0
 15 16  1  0
 15 17  2  0
 17 18  1  0
 18 19  2  0
 24 25  1  0
 25 26  1  0
 25 27  1  0
 27 28  1  0
 27 29  1  0
 29 30  1  0
 29 22  1  0
 10  5  1  0
 19 13  1  0
 19  9  1  0
 23 31  1  0
  1  4  1  0
 26 32  1  0
 28 33  1  0
 30 34  1  0
M  END
> <minimizedAffinity>
-7.93852

> <CNNscore>
0.1646013409

> <CNNaffinity>
4.3281474113

> <CNN_VS>
0.7124188542

> <CNNaffinity_variance>
0.6011533737

$$$$



 34 37  0  0  0  0  0  0  0  0999 V2000
  -32.8183    0.2527   24.9495 N   0  0  0  0  0  0  0  0  0  0  0  0
  -33.2756    0.1257   26.2352 C   0  0  0  0  0  0  0  0  0  0  0  0
  -34.0495    0.9508   26.7213 O   0  0  0  0  0  0  0  0  0  0  0  0
  -32.2604   -0.4620   24.5658 H   0  0  0  0  0  0  0  0  0  0  0  0
  -32.8325   -1.0303   27.0731 C   0  0  0  0  0  0  0  0  0  0  0  0
  -33.8142   -1.5944   27.9177 C   0  0  0  0  0  0  0  0  0  0  0  0
  -33.5436   -2.6874   28.7602 C   0  0  0  0  0  0  0  0  0  0  0  0
  -32.2753   -3.2600   28.7913 C   0  0  0  0  0  0  0  0  0  0  0  0
  -31.2951   -2.7233   27.9723 C   0  0  0  0  0  0  0  0  0  0  0  0
  -31.5761   -1.6207   27.1230 C   0  0  0  0  0  0  0  0  0  0  0  0
  -30.3027   -1.3314   26.4130 C   0  0  0  0  0  0  0  0  0  0  0  0
  -30.0873   -0.4678   25.5907 O   0  0  0  0  0  0  0  0  0  0  0  0
  -29.2940   -2.2968   26.8815 C   0  0  0  0  0  0  0  0  0  0  0  0
  -27.9687   -2.4160   26.5079 C   0  0  0  0  0  0  0  0  0  0  0  0
  -27.2378   -3.4300   27.1197 C   0  0  0  0  0  0  0  0  0  0  0  0
  -25.5789   -3.6469   26.7110 Cl  0  0  0  0  0  0  0  0  0  0  0  0
  -27.8323   -4.2831   28.0696 C   0  0  0  0  0  0  0  0  0  0  0  0
  -29.1807   -4.1351   28.4271 C   0  0  0  0  0  0  0  0  0  0  0  0
  -29.9129   -3.1277   27.8214 C   0  0  0  0  0  0  0  0  0  0  0  0
  -33.1367    1.4171   24.1377 C   0  0  0  0  0  0  0  0  0  0  0  0
  -32.9108    5.3424   21.8728 C   0  0  0  0  0  0  0  0  0  0  0  0
  -32.2355    4.6199   23.0400 C   0  0  0  0  0  0  0  0  0  0  0  0
  -32.1667    3.1894   22.6996 N   0  0  0  0  0  0  0  0  0  0  0  0
  -31.8932    2.2928   23.8459 C   0  0  0  0  0  0  0  0  0  0  0  0
  -31.3968    3.0026   25.1266 C   0  0  0  0  0  0  0  0  0  0  0  0
  -30.0692    3.5100   24.8934 O   0  0  0  0  0  0  0  0  0  0  0  0
  -32.3080    4.1620   25.5620 C   0  0  0  0  0  0  0  0  0  0  0  0
  -33.3431    3.7121   26.4552 O   0  0  0  0  0  0  0  0  0  0  0  0
  -32.9577    4.9081   24.3759 C   0  0  0  0  0  0  0  0  0  0  0  0
  -34.3572    4.6008   24.2967 O   0  0  0  0  0  0  0  0  0  0  0  0
  -31.4240    3.0618   22.0122 H   0  0  0  0  0  0  0  0  0  0  0  0
  -30.0934    4.1609   24.1746 H   0  0  0  0  0  0  0  0  0  0  0  0
  -33.9237    3.0897   25.9899 H   0  0  0  0  0  0  0  0  0  0  0  0
  -34.4710    3.6514   24.1336 H   0  0  0  0  0  0  0  0  0  0  0  0
 22 21  1  0
 22 23  1  0
 23 24  1  0
 24 20  1  0
 20  1  1  0
  1  2  1  0
  2  3  2  0
  2  5  1  0
  5  6  2  0
  6  7  1  0
  7  8  2  0
  8  9  1  0
  9 10  2  0
 10 11  1  0
 11 12  2  0
 11 13  1  0
 13 14  2  0
 14 15  1  0
 15 16  1  0
 15 17  2  0
 17 18  1  0
 18 19  2  0
 24 25  1  0
 25 26  1  0
 25 27  1  0
 27 28  1  0
 27 29  1  0
 29 30  1  0
 29 22  1  0
 10  5  1  0
 19 13  1  0
 19  9  1  0
 23 31  1  0
  1  4  1  0
 26 32  1  0
 28 33  1  0
 30 34  1  0
M  END
> <minimizedAffinity>
-7.22519

> <CNNscore>
0.1592703015

> <CNNaffinity>
3.5682582855

> <CNN_VS>
0.5683175921

> <CNNaffinity_variance>
0.9609157443

$$$$



 34 37  0  0  0  0  0  0  0  0999 V2000
  -30.4767    2.0743   24.0943 N   0  0  0  0  0  0  0  0  0  0  0  0
  -29.9436    2.1607   25.3538 C   0  0  0  0  0  0  0  0  0  0  0  0
  -29.4952    3.2233   25.7851 O   0  0  0  0  0  0  0  0  0  0  0  0
  -30.8940    1.2303   23.8066 H   0  0  0  0  0  0  0  0  0  0  0  0
  -29.8984    0.9494   26.2287 C   0  0  0  0  0  0  0  0  0  0  0  0
  -28.6114    0.5068   26.6065 C   0  0  0  0  0  0  0  0  0  0  0  0
  -28.4136   -0.6168   27.4286 C   0  0  0  0  0  0  0  0  0  0  0  0
  -29.4998   -1.3446   27.9058 C   0  0  0  0  0  0  0  0  0  0  0  0
  -30.7727   -0.9304   27.5480 C   0  0  0  0  0  0  0  0  0  0  0  0
  -30.9647    0.2061   26.7188 C   0  0  0  0  0  0  0  0  0  0  0  0
  -32.4365    0.3350   26.5559 C   0  0  0  0  0  0  0  0  0  0  0  0
  -33.0461    1.1700   25.9241 O   0  0  0  0  0  0  0  0  0  0  0  0
  -33.0727   -0.7566   27.3126 C   0  0  0  0  0  0  0  0  0  0  0  0
  -34.4170   -1.0447   27.4540 C   0  0  0  0  0  0  0  0  0  0  0  0
  -34.7383   -2.1507   28.2352 C   0  0  0  0  0  0  0  0  0  0  0  0
  -36.3908   -2.5795   28.4623 Cl  0  0  0  0  0  0  0  0  0  0  0  0
  -33.7334   -2.9273   28.8440 C   0  0  0  0  0  0  0  0  0  0  0  0
  -32.3773   -2.6078   28.6803 C   0  0  0  0  0  0  0  0  0  0  0  0
  -32.0518   -1.5082   27.9038 C   0  0  0  0  0  0  0  0  0  0  0  0
  -30.4414    3.1986   23.1717 C   0  0  0  0  0  0  0  0  0  0  0  0
  -29.6600   -0.8860   21.3567 C   0  0  0  0  0  0  0  0  0  0  0  0
  -29.9447    0.5545   20.9273 C   0  0  0  0  0  0  0  0  0  0  0  0
  -29.2577    1.4468   21.8755 N   0  0  0  0  0  0  0  0  0  0  0  0
  -29.7184    2.8537   21.8462 C   0  0  0  0  0  0  0  0  0  0  0  0
  -30.5845    3.2324   20.6227 C   0  0  0  0  0  0  0  0  0  0  0  0
  -29.7558    3.2240   19.4447 O   0  0  0  0  0  0  0  0  0  0  0  0
  -31.7709    2.2781   20.4085 C   0  0  0  0  0  0  0  0  0  0  0  0
  -32.9404    2.7232   21.1200 O   0  0  0  0  0  0  0  0  0  0  0  0
  -31.4631    0.8192   20.8115 C   0  0  0  0  0  0  0  0  0  0  0  0
  -32.1527    0.4779   22.0228 O   0  0  0  0  0  0  0  0  0  0  0  0
  -28.2611    1.4343   21.6585 H   0  0  0  0  0  0  0  0  0  0  0  0
  -29.4033    2.3313   19.3037 H   0  0  0  0  0  0  0  0  0  0  0  0
  -32.7649    2.7052   22.0738 H   0  0  0  0  0  0  0  0  0  0  0  0
  -31.8392    1.0455   22.7443 H   0  0  0  0  0  0  0  0  0  0  0  0
 22 21  1  0
 22 23  1  0
 23 24  1  0
 24 20  1  0
 20  1  1  0
  1  2  1  0
  2  3  2  0
  2  5  1  0
  5  6  2  0
  6  7  1  0
  7  8  2  0
  8  9  1  0
  9 10  2  0
 10 11  1  0
 11 12  2  0
 11 13  1  0
 13 14  2  0
 14 15  1  0
 15 16  1  0
 15 17  2  0
 17 18  1  0
 18 19  2  0
 24 25  1  0
 25 26  1  0
 25 27  1  0
 27 28  1  0
 27 29  1  0
 29 30  1  0
 29 22  1  0
 10  5  1  0
 19 13  1  0
 19  9  1  0
 23 31  1  0
  1  4  1  0
 26 32  1  0
 28 33  1  0
 30 34  1  0
M  END
> <minimizedAffinity>
-7.96473

> <CNNscore>
0.1544436812

> <CNNaffinity>
3.6917228699

> <CNN_VS>
0.5701632500

> <CNNaffinity_variance>
0.9253085256

$$$$
