


 29 30  0  0  0  0  0  0  0  0999 V2000
   37.9265    1.2582   13.4615 C   0  0  0  0  0  0  0  0  0  0  0  0
   36.7723    1.2591   12.4700 C   0  0  0  0  0  0  0  0  0  0  0  0
   35.5237    1.3153   13.1531 O   0  0  0  0  0  0  0  0  0  0  0  0
   37.1174    0.0273   11.5923 C   0  0  0  0  0  0  0  0  0  0  0  0
   38.5634   -0.0209   11.5669 O   0  0  0  0  0  0  0  0  0  0  0  0
   39.0744    0.9460   12.5105 C   0  0  0  0  0  0  0  0  0  0  0  0
   35.4703    0.5855   13.7898 H   0  0  0  0  0  0  0  0  0  0  0  0
   36.5611   -1.2496   12.0555 N   0  0  0  0  0  0  0  0  0  0  0  0
   37.1810   -2.0146   13.0286 C   0  0  0  0  0  0  0  0  0  0  0  0
   36.6946   -3.1950   13.4195 C   0  0  0  0  0  0  0  0  0  0  0  0
   35.4689   -3.7029   12.7878 C   0  0  0  0  0  0  0  0  0  0  0  0
   34.8959   -4.6948   13.2155 O   0  0  0  0  0  0  0  0  0  0  0  0
   35.0106   -2.9776   11.7278 N   0  0  0  0  0  0  0  0  0  0  0  0
   35.4594   -1.7415   11.3597 C   0  0  0  0  0  0  0  0  0  0  0  0
   34.8771   -1.0833   10.4960 O   0  0  0  0  0  0  0  0  0  0  0  0
   34.2962   -3.3788   11.1820 H   0  0  0  0  0  0  0  0  0  0  0  0
   40.2992    0.3796   13.2200 C   0  0  0  0  0  0  0  0  0  0  0  0
   39.9173   -0.1845   14.4667 O   0  0  0  0  0  0  0  0  0  0  0  0
   39.5170    0.5019   15.0230 H   0  0  0  0  0  0  0  0  0  0  0  0
   38.0852    2.5235   14.1113 O   0  0  0  0  0  0  0  0  0  0  0  0
   37.9991    3.6235   13.2206 C   0  0  0  0  0  0  0  0  0  0  0  0
   39.1449    4.6132   13.3725 N   0  0  0  0  0  0  0  0  0  0  0  0
   40.1708    4.0641   14.3362 C   0  0  0  0  0  0  0  0  0  0  0  0
   39.8354    4.6495   11.9795 C   0  0  0  0  0  0  0  0  0  0  0  0
   38.6652    6.0192   13.6243 C   0  0  0  0  0  0  0  0  0  0  0  0
   36.8783    7.7406   14.3066 C   0  0  0  0  0  0  0  0  0  0  0  0
   37.3619    6.3034   14.3476 N   0  0  0  0  0  0  0  0  0  0  0  0
   36.2212    5.3657   13.9432 C   0  0  0  0  0  0  0  0  0  0  0  0
   37.6379    5.9864   15.8513 C   0  0  0  0  0  0  0  0  0  0  0  0
 26 27  1  0
 27 28  1  0
 27 29  1  0
 27 25  1  0
 25 22  1  0
 22 23  1  0
 22 24  1  0
 22 21  1  0
 21 20  1  0
  1 20  1  0
  1  2  1  0
  2  3  1  0
  2  4  1  0
  4  8  1  0
  8  9  1  0
  9 10  2  0
 10 11  1  0
 11 12  2  0
 11 13  1  0
 13 14  1  0
 14 15  2  0
  4  5  1  0
  5  6  1  0
  6 17  1  0
 17 18  1  0
  6  1  1  0
 14  8  1  0
  3  7  1  0
 13 16  1  0
 18 19  1  0
M  CHG 1  22   1
M  CHG 1  27   1
M  END
> <minimizedAffinity>
-6.18421

> <CNNscore>
0.6999895573

> <CNNaffinity>
4.4142632484

> <CNN_VS>
3.0899381638

> <CNNaffinity_variance>
0.2154762149

$$$$



 29 30  0  0  0  0  0  0  0  0999 V2000
   37.7112   -0.6971   13.3630 C   0  0  0  0  0  0  0  0  0  0  0  0
   36.9101   -0.8310   12.0764 C   0  0  0  0  0  0  0  0  0  0  0  0
   35.5419   -0.5045   12.3006 O   0  0  0  0  0  0  0  0  0  0  0  0
   37.2973   -2.2617   11.6181 C   0  0  0  0  0  0  0  0  0  0  0  0
   38.6620   -2.4412   12.0648 O   0  0  0  0  0  0  0  0  0  0  0  0
   39.0220   -1.3261   12.9094 C   0  0  0  0  0  0  0  0  0  0  0  0
   35.1918   -1.0543   13.0190 H   0  0  0  0  0  0  0  0  0  0  0  0
   36.4371   -3.3378   12.1246 N   0  0  0  0  0  0  0  0  0  0  0  0
   36.8227   -4.1607   13.1689 C   0  0  0  0  0  0  0  0  0  0  0  0
   36.0557   -5.1646   13.6012 C   0  0  0  0  0  0  0  0  0  0  0  0
   34.7670   -5.4103   12.9392 C   0  0  0  0  0  0  0  0  0  0  0  0
   33.9597   -6.2084   13.3934 O   0  0  0  0  0  0  0  0  0  0  0  0
   34.5318   -4.6696   11.8185 N   0  0  0  0  0  0  0  0  0  0  0  0
   35.2748   -3.6015   11.4040 C   0  0  0  0  0  0  0  0  0  0  0  0
   34.8965   -2.8836   10.4767 O   0  0  0  0  0  0  0  0  0  0  0  0
   33.7618   -4.9266   11.2616 H   0  0  0  0  0  0  0  0  0  0  0  0
   39.8829   -1.8126   14.0698 C   0  0  0  0  0  0  0  0  0  0  0  0
   39.1925   -1.6214   15.2966 O   0  0  0  0  0  0  0  0  0  0  0  0
   39.0014   -0.6780   15.4165 H   0  0  0  0  0  0  0  0  0  0  0  0
   37.8710    0.6675   13.7637 O   0  0  0  0  0  0  0  0  0  0  0  0
   38.3758    1.4975   12.7309 C   0  0  0  0  0  0  0  0  0  0  0  0
   38.8884    2.8396   13.2324 N   0  0  0  0  0  0  0  0  0  0  0  0
   39.4211    2.6907   14.6383 C   0  0  0  0  0  0  0  0  0  0  0  0
   40.1171    3.1640   12.3361 C   0  0  0  0  0  0  0  0  0  0  0  0
   37.9072    3.9585   12.9962 C   0  0  0  0  0  0  0  0  0  0  0  0
   36.3863    5.7479   14.0482 C   0  0  0  0  0  0  0  0  0  0  0  0
   37.7627    5.1156   13.9671 N   0  0  0  0  0  0  0  0  0  0  0  0
   38.2656    4.7966   15.3776 C   0  0  0  0  0  0  0  0  0  0  0  0
   38.7169    6.2316   13.4359 C   0  0  0  0  0  0  0  0  0  0  0  0
 26 27  1  0
 27 28  1  0
 27 29  1  0
 27 25  1  0
 25 22  1  0
 22 23  1  0
 22 24  1  0
 22 21  1  0
 21 20  1  0
  1 20  1  0
  1  2  1  0
  2  3  1  0
  2  4  1  0
  4  8  1  0
  8  9  1  0
  9 10  2  0
 10 11  1  0
 11 12  2  0
 11 13  1  0
 13 14  1  0
 14 15  2  0
  4  5  1  0
  5  6  1  0
  6 17  1  0
 17 18  1  0
  6  1  1  0
 14  8  1  0
  3  7  1  0
 13 16  1  0
 18 19  1  0
M  CHG 1  22   1
M  CHG 1  27   1
M  END
> <minimizedAffinity>
-5.79623

> <CNNscore>
0.6922938228

> <CNNaffinity>
4.4414505959

> <CNN_VS>
3.0747888088

> <CNNaffinity_variance>
0.0789231807

$$$$



 29 30  0  0  0  0  0  0  0  0999 V2000
   38.9597   -1.9229   13.6072 C   0  0  0  0  0  0  0  0  0  0  0  0
   37.5197   -1.4314   13.6011 C   0  0  0  0  0  0  0  0  0  0  0  0
   36.8224   -1.9057   14.7490 O   0  0  0  0  0  0  0  0  0  0  0  0
   37.0534   -1.8572   12.1840 C   0  0  0  0  0  0  0  0  0  0  0  0
   38.2343   -1.7524   11.3542 O   0  0  0  0  0  0  0  0  0  0  0  0
   39.3750   -1.5012   12.2039 C   0  0  0  0  0  0  0  0  0  0  0  0
   36.8883   -2.8726   14.7908 H   0  0  0  0  0  0  0  0  0  0  0  0
   36.4691   -3.2006   12.0923 N   0  0  0  0  0  0  0  0  0  0  0  0
   37.1262   -4.3245   12.5632 C   0  0  0  0  0  0  0  0  0  0  0  0
   36.6106   -5.5502   12.4422 C   0  0  0  0  0  0  0  0  0  0  0  0
   35.3100   -5.7116   11.7776 C   0  0  0  0  0  0  0  0  0  0  0  0
   34.7218   -6.7836   11.7811 O   0  0  0  0  0  0  0  0  0  0  0  0
   34.8043   -4.5868   11.1956 N   0  0  0  0  0  0  0  0  0  0  0  0
   35.2874   -3.3209   11.3651 C   0  0  0  0  0  0  0  0  0  0  0  0
   34.6712   -2.3416   10.9413 O   0  0  0  0  0  0  0  0  0  0  0  0
   34.0254   -4.6967   10.6035 H   0  0  0  0  0  0  0  0  0  0  0  0
   40.5860   -2.2683   11.6848 C   0  0  0  0  0  0  0  0  0  0  0  0
   40.7926   -1.9722   10.3108 O   0  0  0  0  0  0  0  0  0  0  0  0
   40.0090   -2.2337    9.8023 H   0  0  0  0  0  0  0  0  0  0  0  0
   39.7453   -1.2896   14.6220 O   0  0  0  0  0  0  0  0  0  0  0  0
   40.2009   -2.1894   15.6187 C   0  0  0  0  0  0  0  0  0  0  0  0
   40.1251   -1.6179   17.0269 N   0  0  0  0  0  0  0  0  0  0  0  0
   40.2625   -0.1142   16.9768 C   0  0  0  0  0  0  0  0  0  0  0  0
   38.6723   -1.9042   17.5021 C   0  0  0  0  0  0  0  0  0  0  0  0
   41.0198   -2.3466   17.9958 C   0  0  0  0  0  0  0  0  0  0  0  0
   42.7257   -1.0182   19.3912 C   0  0  0  0  0  0  0  0  0  0  0  0
   41.3988   -1.7515   19.3392 N   0  0  0  0  0  0  0  0  0  0  0  0
   40.3028   -0.8745   19.9506 C   0  0  0  0  0  0  0  0  0  0  0  0
   41.5410   -2.9649   20.3115 C   0  0  0  0  0  0  0  0  0  0  0  0
 26 27  1  0
 27 28  1  0
 27 29  1  0
 27 25  1  0
 25 22  1  0
 22 23  1  0
 22 24  1  0
 22 21  1  0
 21 20  1  0
  1 20  1  0
  1  2  1  0
  2  3  1  0
  2  4  1  0
  4  8  1  0
  8  9  1  0
  9 10  2  0
 10 11  1  0
 11 12  2  0
 11 13  1  0
 13 14  1  0
 14 15  2  0
  4  5  1  0
  5  6  1  0
  6 17  1  0
 17 18  1  0
  6  1  1  0
 14  8  1  0
  3  7  1  0
 13 16  1  0
 18 19  1  0
M  CHG 1  22   1
M  CHG 1  27   1
M  END
> <minimizedAffinity>
-5.36125

> <CNNscore>
0.6852689981

> <CNNaffinity>
4.3438658714

> <CNN_VS>
2.9767165184

> <CNNaffinity_variance>
0.1173401102

$$$$



 29 30  0  0  0  0  0  0  0  0999 V2000
   38.4096   -3.5180   14.8673 C   0  0  0  0  0  0  0  0  0  0  0  0
   37.6224   -2.7144   13.8428 C   0  0  0  0  0  0  0  0  0  0  0  0
   36.4600   -2.1448   14.4371 O   0  0  0  0  0  0  0  0  0  0  0  0
   37.4753   -3.7421   12.6899 C   0  0  0  0  0  0  0  0  0  0  0  0
   38.6825   -4.5385   12.7423 O   0  0  0  0  0  0  0  0  0  0  0  0
   39.4117   -4.1935   13.9404 C   0  0  0  0  0  0  0  0  0  0  0  0
   35.9315   -2.8456   14.8501 H   0  0  0  0  0  0  0  0  0  0  0  0
   36.2837   -4.5964   12.7582 N   0  0  0  0  0  0  0  0  0  0  0  0
   36.2218   -5.7122   13.5753 C   0  0  0  0  0  0  0  0  0  0  0  0
   35.1520   -6.5106   13.6056 C   0  0  0  0  0  0  0  0  0  0  0  0
   34.0094   -6.2010   12.7351 C   0  0  0  0  0  0  0  0  0  0  0  0
   32.9494   -6.8017   12.8378 O   0  0  0  0  0  0  0  0  0  0  0  0
   34.2082   -5.1891   11.8427 N   0  0  0  0  0  0  0  0  0  0  0  0
   35.2680   -4.3280   11.8439 C   0  0  0  0  0  0  0  0  0  0  0  0
   35.2857   -3.3383   11.1099 O   0  0  0  0  0  0  0  0  0  0  0  0
   33.5308   -5.0695   11.1384 H   0  0  0  0  0  0  0  0  0  0  0  0
   40.0337   -5.4465   14.5465 C   0  0  0  0  0  0  0  0  0  0  0  0
   39.4273   -5.7290   15.7998 O   0  0  0  0  0  0  0  0  0  0  0  0
   39.5670   -4.9817   16.4023 H   0  0  0  0  0  0  0  0  0  0  0  0
   39.0442   -2.6830   15.8411 O   0  0  0  0  0  0  0  0  0  0  0  0
   40.1887   -2.0120   15.3409 C   0  0  0  0  0  0  0  0  0  0  0  0
   40.3866   -0.6280   15.9417 N   0  0  0  0  0  0  0  0  0  0  0  0
   41.8411   -0.2313   15.8443 C   0  0  0  0  0  0  0  0  0  0  0  0
   39.6109    0.3365   15.0002 C   0  0  0  0  0  0  0  0  0  0  0  0
   39.7361   -0.4858   17.2934 C   0  0  0  0  0  0  0  0  0  0  0  0
   39.5554   -1.1986   19.7594 C   0  0  0  0  0  0  0  0  0  0  0  0
   40.4469   -0.8916   18.5711 N   0  0  0  0  0  0  0  0  0  0  0  0
   41.4533   -2.0289   18.3762 C   0  0  0  0  0  0  0  0  0  0  0  0
   41.3041    0.3457   18.9862 C   0  0  0  0  0  0  0  0  0  0  0  0
 26 27  1  0
 27 28  1  0
 27 29  1  0
 27 25  1  0
 25 22  1  0
 22 23  1  0
 22 24  1  0
 22 21  1  0
 21 20  1  0
  1 20  1  0
  1  2  1  0
  2  3  1  0
  2  4  1  0
  4  8  1  0
  8  9  1  0
  9 10  2  0
 10 11  1  0
 11 12  2  0
 11 13  1  0
 13 14  1  0
 14 15  2  0
  4  5  1  0
  5  6  1  0
  6 17  1  0
 17 18  1  0
  6  1  1  0
 14  8  1  0
  3  7  1  0
 13 16  1  0
 18 19  1  0
M  CHG 1  22   1
M  CHG 1  27   1
M  END
> <minimizedAffinity>
-5.34781

> <CNNscore>
0.6038736701

> <CNNaffinity>
4.5022406578

> <CNN_VS>
2.7187845707

> <CNNaffinity_variance>
0.1119940281

$$$$



 29 30  0  0  0  0  0  0  0  0999 V2000
   38.7701   -1.4362   15.7632 C   0  0  0  0  0  0  0  0  0  0  0  0
   39.3284   -0.7458   14.5275 C   0  0  0  0  0  0  0  0  0  0  0  0
   38.7272    0.5337   14.3527 O   0  0  0  0  0  0  0  0  0  0  0  0
   39.1373   -1.8427   13.4472 C   0  0  0  0  0  0  0  0  0  0  0  0
   39.3029   -3.0954   14.1524 O   0  0  0  0  0  0  0  0  0  0  0  0
   39.3706   -2.8224   15.5692 C   0  0  0  0  0  0  0  0  0  0  0  0
   37.7625    0.4365   14.3240 H   0  0  0  0  0  0  0  0  0  0  0  0
   37.8524   -1.8092   12.7384 N   0  0  0  0  0  0  0  0  0  0  0  0
   36.8473   -2.7274   12.9896 C   0  0  0  0  0  0  0  0  0  0  0  0
   35.6949   -2.7197   12.3152 C   0  0  0  0  0  0  0  0  0  0  0  0
   35.4927   -1.7117   11.2653 C   0  0  0  0  0  0  0  0  0  0  0  0
   34.4040   -1.5592   10.7301 O   0  0  0  0  0  0  0  0  0  0  0  0
   36.5840   -0.9520   10.9625 N   0  0  0  0  0  0  0  0  0  0  0  0
   37.7429   -0.9066   11.6834 C   0  0  0  0  0  0  0  0  0  0  0  0
   38.6130   -0.0690   11.4389 O   0  0  0  0  0  0  0  0  0  0  0  0
   36.5320   -0.3891   10.1566 H   0  0  0  0  0  0  0  0  0  0  0  0
   38.6280   -3.9071   16.3413 C   0  0  0  0  0  0  0  0  0  0  0  0
   37.8000   -4.6488   15.4567 O   0  0  0  0  0  0  0  0  0  0  0  0
   37.1543   -4.0545   15.0435 H   0  0  0  0  0  0  0  0  0  0  0  0
   39.2090   -0.8166   16.9764 O   0  0  0  0  0  0  0  0  0  0  0  0
   40.5857   -1.0255   17.2440 C   0  0  0  0  0  0  0  0  0  0  0  0
   40.8770   -1.3218   18.7079 N   0  0  0  0  0  0  0  0  0  0  0  0
   39.5845   -1.3592   19.4892 C   0  0  0  0  0  0  0  0  0  0  0  0
   41.4345   -2.7734   18.7237 C   0  0  0  0  0  0  0  0  0  0  0  0
   41.9788   -0.4579   19.2647 C   0  0  0  0  0  0  0  0  0  0  0  0
   42.9394    1.8275   19.9547 C   0  0  0  0  0  0  0  0  0  0  0  0
   42.0023    1.0447   19.0546 N   0  0  0  0  0  0  0  0  0  0  0  0
   42.2280    1.4549   17.5969 C   0  0  0  0  0  0  0  0  0  0  0  0
   40.5623    1.5399   19.4001 C   0  0  0  0  0  0  0  0  0  0  0  0
 26 27  1  0
 27 28  1  0
 27 29  1  0
 27 25  1  0
 25 22  1  0
 22 23  1  0
 22 24  1  0
 22 21  1  0
 21 20  1  0
  1 20  1  0
  1  2  1  0
  2  3  1  0
  2  4  1  0
  4  8  1  0
  8  9  1  0
  9 10  2  0
 10 11  1  0
 11 12  2  0
 11 13  1  0
 13 14  1  0
 14 15  2  0
  4  5  1  0
  5  6  1  0
  6 17  1  0
 17 18  1  0
  6  1  1  0
 14  8  1  0
  3  7  1  0
 13 16  1  0
 18 19  1  0
M  CHG 1  22   1
M  CHG 1  27   1
M  END
> <minimizedAffinity>
-4.87112

> <CNNscore>
0.5887305737

> <CNNaffinity>
4.2260708809

> <CNN_VS>
2.4880170822

> <CNNaffinity_variance>
0.2869932950

$$$$



 29 30  0  0  0  0  0  0  0  0999 V2000
   37.2143   -4.1167   12.8435 C   0  0  0  0  0  0  0  0  0  0  0  0
   36.5163   -5.0247   13.8453 C   0  0  0  0  0  0  0  0  0  0  0  0
   37.3405   -6.1397   14.1715 O   0  0  0  0  0  0  0  0  0  0  0  0
   35.1464   -5.2533   13.1537 C   0  0  0  0  0  0  0  0  0  0  0  0
   34.8777   -4.0234   12.4402 O   0  0  0  0  0  0  0  0  0  0  0  0
   36.0565   -3.1906   12.4948 C   0  0  0  0  0  0  0  0  0  0  0  0
   37.5936   -6.6036   13.3581 H   0  0  0  0  0  0  0  0  0  0  0  0
   35.0851   -6.4061   12.2473 N   0  0  0  0  0  0  0  0  0  0  0  0
   36.2044   -6.8889   11.5911 C   0  0  0  0  0  0  0  0  0  0  0  0
   36.1388   -7.9122   10.7359 C   0  0  0  0  0  0  0  0  0  0  0  0
   34.8350   -8.5376   10.4747 C   0  0  0  0  0  0  0  0  0  0  0  0
   34.7426   -9.5714    9.8283 O   0  0  0  0  0  0  0  0  0  0  0  0
   33.7596   -7.9056   11.0259 N   0  0  0  0  0  0  0  0  0  0  0  0
   33.8179   -6.9011   11.9490 C   0  0  0  0  0  0  0  0  0  0  0  0
   32.8024   -6.5021   12.5218 O   0  0  0  0  0  0  0  0  0  0  0  0
   32.8661   -8.1982   10.7337 H   0  0  0  0  0  0  0  0  0  0  0  0
   36.2465   -2.4745   11.1623 C   0  0  0  0  0  0  0  0  0  0  0  0
   37.4569   -1.7310   11.1818 O   0  0  0  0  0  0  0  0  0  0  0  0
   37.4208   -1.0731   11.8937 H   0  0  0  0  0  0  0  0  0  0  0  0
   38.3183   -3.4149   13.4241 O   0  0  0  0  0  0  0  0  0  0  0  0
   38.0035   -2.8082   14.6664 C   0  0  0  0  0  0  0  0  0  0  0  0
   39.1823   -2.7553   15.6272 N   0  0  0  0  0  0  0  0  0  0  0  0
   40.3492   -2.0587   14.9673 C   0  0  0  0  0  0  0  0  0  0  0  0
   38.7201   -1.8241   16.7838 C   0  0  0  0  0  0  0  0  0  0  0  0
   39.4659   -4.0889   16.2687 C   0  0  0  0  0  0  0  0  0  0  0  0
   40.4884   -6.4361   16.0103 C   0  0  0  0  0  0  0  0  0  0  0  0
   40.6576   -4.9359   15.8626 N   0  0  0  0  0  0  0  0  0  0  0  0
   41.1880   -4.6139   14.4629 C   0  0  0  0  0  0  0  0  0  0  0  0
   41.8094   -4.5360   16.8380 C   0  0  0  0  0  0  0  0  0  0  0  0
 26 27  1  0
 27 28  1  0
 27 29  1  0
 27 25  1  0
 25 22  1  0
 22 23  1  0
 22 24  1  0
 22 21  1  0
 21 20  1  0
  1 20  1  0
  1  2  1  0
  2  3  1  0
  2  4  1  0
  4  8  1  0
  8  9  1  0
  9 10  2  0
 10 11  1  0
 11 12  2  0
 11 13  1  0
 13 14  1  0
 14 15  2  0
  4  5  1  0
  5  6  1  0
  6 17  1  0
 17 18  1  0
  6  1  1  0
 14  8  1  0
  3  7  1  0
 13 16  1  0
 18 19  1  0
M  CHG 1  22   1
M  CHG 1  27   1
M  END
> <minimizedAffinity>
-5.33828

> <CNNscore>
0.4895362854

> <CNNaffinity>
4.2643437386

> <CNN_VS>
2.0875508785

> <CNNaffinity_variance>
0.2582185566

$$$$



 29 30  0  0  0  0  0  0  0  0999 V2000
   39.8289   -3.3587   14.5401 C   0  0  0  0  0  0  0  0  0  0  0  0
   39.4542   -4.5338   13.6491 C   0  0  0  0  0  0  0  0  0  0  0  0
   39.8736   -4.3008   12.3079 O   0  0  0  0  0  0  0  0  0  0  0  0
   37.9447   -4.6956   13.9689 C   0  0  0  0  0  0  0  0  0  0  0  0
   37.8123   -4.3064   15.3563 O   0  0  0  0  0  0  0  0  0  0  0  0
   39.0674   -3.7464   15.8007 C   0  0  0  0  0  0  0  0  0  0  0  0
   39.5041   -3.4604   11.9950 H   0  0  0  0  0  0  0  0  0  0  0  0
   37.0358   -3.9164   13.1196 N   0  0  0  0  0  0  0  0  0  0  0  0
   36.9079   -2.5434   13.2414 C   0  0  0  0  0  0  0  0  0  0  0  0
   36.0509   -1.8420   12.4955 C   0  0  0  0  0  0  0  0  0  0  0  0
   35.2088   -2.5523   11.5231 C   0  0  0  0  0  0  0  0  0  0  0  0
   34.5267   -1.9465   10.7089 O   0  0  0  0  0  0  0  0  0  0  0  0
   35.2705   -3.9136   11.5765 N   0  0  0  0  0  0  0  0  0  0  0  0
   36.1842   -4.6383   12.2869 C   0  0  0  0  0  0  0  0  0  0  0  0
   36.2776   -5.8590   12.1464 O   0  0  0  0  0  0  0  0  0  0  0  0
   34.6000   -4.4160   11.0596 H   0  0  0  0  0  0  0  0  0  0  0  0
   38.8074   -2.5641   16.7275 C   0  0  0  0  0  0  0  0  0  0  0  0
   37.4248   -2.4958   17.0471 O   0  0  0  0  0  0  0  0  0  0  0  0
   36.9101   -2.3806   16.2330 H   0  0  0  0  0  0  0  0  0  0  0  0
   41.2405   -3.2727   14.7603 O   0  0  0  0  0  0  0  0  0  0  0  0
   41.9888   -4.1522   13.9375 C   0  0  0  0  0  0  0  0  0  0  0  0
   43.2284   -3.5065   13.3359 N   0  0  0  0  0  0  0  0  0  0  0  0
   43.7613   -2.4495   14.2746 C   0  0  0  0  0  0  0  0  0  0  0  0
   44.2974   -4.6354   13.3035 C   0  0  0  0  0  0  0  0  0  0  0  0
   43.0279   -3.0964   11.8999 C   0  0  0  0  0  0  0  0  0  0  0  0
   41.5107   -1.6516   10.4057 C   0  0  0  0  0  0  0  0  0  0  0  0
   42.5342   -1.7118   11.5237 N   0  0  0  0  0  0  0  0  0  0  0  0
   42.0380   -0.8938   12.7192 C   0  0  0  0  0  0  0  0  0  0  0  0
   43.7895   -0.9465   10.9979 C   0  0  0  0  0  0  0  0  0  0  0  0
 26 27  1  0
 27 28  1  0
 27 29  1  0
 27 25  1  0
 25 22  1  0
 22 23  1  0
 22 24  1  0
 22 21  1  0
 21 20  1  0
  1 20  1  0
  1  2  1  0
  2  3  1  0
  2  4  1  0
  4  8  1  0
  8  9  1  0
  9 10  2  0
 10 11  1  0
 11 12  2  0
 11 13  1  0
 13 14  1  0
 14 15  2  0
  4  5  1  0
  5  6  1  0
  6 17  1  0
 17 18  1  0
  6  1  1  0
 14  8  1  0
  3  7  1  0
 13 16  1  0
 18 19  1  0
M  CHG 1  22   1
M  CHG 1  27   1
M  END
> <minimizedAffinity>
-4.61503

> <CNNscore>
0.4663552344

> <CNNaffinity>
3.8865520954

> <CNN_VS>
1.8125139475

> <CNNaffinity_variance>
0.4090781212

$$$$



 29 30  0  0  0  0  0  0  0  0999 V2000
   39.4683   -1.7902   15.2100 C   0  0  0  0  0  0  0  0  0  0  0  0
   39.9858   -1.2711   13.8766 C   0  0  0  0  0  0  0  0  0  0  0  0
   39.5853    0.0808   13.6744 O   0  0  0  0  0  0  0  0  0  0  0  0
   39.4955   -2.3754   12.9033 C   0  0  0  0  0  0  0  0  0  0  0  0
   39.5347   -3.5988   13.6751 O   0  0  0  0  0  0  0  0  0  0  0  0
   39.8084   -3.2665   15.0539 C   0  0  0  0  0  0  0  0  0  0  0  0
   38.6208    0.1475   13.7538 H   0  0  0  0  0  0  0  0  0  0  0  0
   38.1604   -2.1616   12.3322 N   0  0  0  0  0  0  0  0  0  0  0  0
   37.6747   -0.8974   12.0451 C   0  0  0  0  0  0  0  0  0  0  0  0
   36.4447   -0.7028   11.5634 C   0  0  0  0  0  0  0  0  0  0  0  0
   35.5755   -1.8668   11.3425 C   0  0  0  0  0  0  0  0  0  0  0  0
   34.5065   -1.7617   10.7585 O   0  0  0  0  0  0  0  0  0  0  0  0
   36.0591   -3.0563   11.8019 N   0  0  0  0  0  0  0  0  0  0  0  0
   37.3343   -3.2788   12.2365 C   0  0  0  0  0  0  0  0  0  0  0  0
   37.7370   -4.4191   12.4736 O   0  0  0  0  0  0  0  0  0  0  0  0
   35.4365   -3.8187   11.8217 H   0  0  0  0  0  0  0  0  0  0  0  0
   38.9926   -4.1668   15.9750 C   0  0  0  0  0  0  0  0  0  0  0  0
   38.4521   -5.2522   15.2348 O   0  0  0  0  0  0  0  0  0  0  0  0
   37.8761   -4.9102   14.5333 H   0  0  0  0  0  0  0  0  0  0  0  0
   40.1389   -1.1907   16.3232 O   0  0  0  0  0  0  0  0  0  0  0  0
   39.3568   -1.1787   17.5059 C   0  0  0  0  0  0  0  0  0  0  0  0
   40.1173   -0.6810   18.7264 N   0  0  0  0  0  0  0  0  0  0  0  0
   41.2989    0.1522   18.2881 C   0  0  0  0  0  0  0  0  0  0  0  0
   39.1405    0.2954   19.4413 C   0  0  0  0  0  0  0  0  0  0  0  0
   40.3953   -1.7777   19.7215 C   0  0  0  0  0  0  0  0  0  0  0  0
   41.5886   -4.0181   20.1439 C   0  0  0  0  0  0  0  0  0  0  0  0
   41.6883   -2.5715   19.6983 N   0  0  0  0  0  0  0  0  0  0  0  0
   42.4283   -2.4958   18.3601 C   0  0  0  0  0  0  0  0  0  0  0  0
   42.6307   -1.8699   20.7267 C   0  0  0  0  0  0  0  0  0  0  0  0
 26 27  1  0
 27 28  1  0
 27 29  1  0
 27 25  1  0
 25 22  1  0
 22 23  1  0
 22 24  1  0
 22 21  1  0
 21 20  1  0
  1 20  1  0
  1  2  1  0
  2  3  1  0
  2  4  1  0
  4  8  1  0
  8  9  1  0
  9 10  2  0
 10 11  1  0
 11 12  2  0
 11 13  1  0
 13 14  1  0
 14 15  2  0
  4  5  1  0
  5  6  1  0
  6 17  1  0
 17 18  1  0
  6  1  1  0
 14  8  1  0
  3  7  1  0
 13 16  1  0
 18 19  1  0
M  CHG 1  22   1
M  CHG 1  27   1
M  END
> <minimizedAffinity>
-4.74896

> <CNNscore>
0.4311034381

> <CNNaffinity>
4.0715003014

> <CNN_VS>
1.7552378178

> <CNNaffinity_variance>
0.3029402792

$$$$



 29 30  0  0  0  0  0  0  0  0999 V2000
   41.6564    5.6667    9.4492 C   0  0  0  0  0  0  0  0  0  0  0  0
   40.9254    6.9362    9.0375 C   0  0  0  0  0  0  0  0  0  0  0  0
   39.7390    6.6206    8.3152 O   0  0  0  0  0  0  0  0  0  0  0  0
   42.0605    7.7364    8.3460 C   0  0  0  0  0  0  0  0  0  0  0  0
   43.2658    7.3656    9.0557 O   0  0  0  0  0  0  0  0  0  0  0  0
   42.9564    6.2782    9.9547 C   0  0  0  0  0  0  0  0  0  0  0  0
   39.9614    6.0544    7.5597 H   0  0  0  0  0  0  0  0  0  0  0  0
   42.2093    7.4980    6.9054 N   0  0  0  0  0  0  0  0  0  0  0  0
   42.2258    8.5315    5.9845 C   0  0  0  0  0  0  0  0  0  0  0  0
   42.3206    8.3098    4.6712 C   0  0  0  0  0  0  0  0  0  0  0  0
   42.3980    6.9241    4.1883 C   0  0  0  0  0  0  0  0  0  0  0  0
   42.6446    6.6705    3.0178 O   0  0  0  0  0  0  0  0  0  0  0  0
   42.2094    5.9609    5.1349 N   0  0  0  0  0  0  0  0  0  0  0  0
   42.1748    6.1711    6.4837 C   0  0  0  0  0  0  0  0  0  0  0  0
   42.1709    5.2272    7.2759 O   0  0  0  0  0  0  0  0  0  0  0  0
   42.0880    5.0362    4.8194 H   0  0  0  0  0  0  0  0  0  0  0  0
   44.1120    5.2840    9.9813 C   0  0  0  0  0  0  0  0  0  0  0  0
   44.7804    5.2866    8.7278 O   0  0  0  0  0  0  0  0  0  0  0  0
   44.1580    5.0316    8.0289 H   0  0  0  0  0  0  0  0  0  0  0  0
   40.9595    4.9457   10.4703 O   0  0  0  0  0  0  0  0  0  0  0  0
   40.6843    5.7299   11.6192 C   0  0  0  0  0  0  0  0  0  0  0  0
   40.0292    4.9419   12.7441 N   0  0  0  0  0  0  0  0  0  0  0  0
   40.9363    4.9246   13.9521 C   0  0  0  0  0  0  0  0  0  0  0  0
   38.7825    5.7778   13.1509 C   0  0  0  0  0  0  0  0  0  0  0  0
   39.4927    3.6117   12.2823 C   0  0  0  0  0  0  0  0  0  0  0  0
   39.2448    2.7351   14.6889 C   0  0  0  0  0  0  0  0  0  0  0  0
   38.8150    2.6463   13.2369 N   0  0  0  0  0  0  0  0  0  0  0  0
   37.2866    2.6730   13.1508 C   0  0  0  0  0  0  0  0  0  0  0  0
   39.2266    1.2196   12.7541 C   0  0  0  0  0  0  0  0  0  0  0  0
 26 27  1  0
 27 28  1  0
 27 29  1  0
 27 25  1  0
 25 22  1  0
 22 23  1  0
 22 24  1  0
 22 21  1  0
 21 20  1  0
  1 20  1  0
  1  2  1  0
  2  3  1  0
  2  4  1  0
  4  8  1  0
  8  9  1  0
  9 10  2  0
 10 11  1  0
 11 12  2  0
 11 13  1  0
 13 14  1  0
 14 15  2  0
  4  5  1  0
  5  6  1  0
  6 17  1  0
 17 18  1  0
  6  1  1  0
 14  8  1  0
  3  7  1  0
 13 16  1  0
 18 19  1  0
M  CHG 1  22   1
M  CHG 1  27   1
M  END
> <minimizedAffinity>
-5.25826

> <CNNscore>
0.4203361869

> <CNNaffinity>
3.6057128906

> <CNN_VS>
1.5156116486

> <CNNaffinity_variance>
0.8326897025

$$$$
