


 19 20  0  0  0  0  0  0  0  0999 V2000
   33.1360   70.9259   16.3600 C   0  0  0  0  0  0  0  0  0  0  0  0
   34.4591   70.4379   15.7165 C   0  0  0  0  0  0  0  0  0  0  0  0
   35.5904   70.2888   16.7595 C   0  0  0  0  0  0  0  0  0  0  0  0
   36.4226   71.4482   16.8626 O   0  0  0  0  0  0  0  0  0  0  0  0
   35.0698   69.9406   18.1350 C   0  0  0  0  0  0  0  0  0  0  0  0
   35.7860   69.7686   19.2567 N   0  0  0  0  0  0  0  0  0  0  0  0
   34.9673   69.5135   20.3277 C   0  0  0  0  0  0  0  0  0  0  0  0
   33.6887   69.5266   19.8452 C   0  0  0  0  0  0  0  0  0  0  0  0
   33.7798   69.7868   18.4872 N   0  0  0  0  0  0  0  0  0  0  0  0
   32.6716   70.0027   17.5295 C   0  0  0  0  0  0  0  0  0  0  0  0
   35.8989   72.1935   17.1960 H   0  0  0  0  0  0  0  0  0  0  0  0
   36.7681   69.8188   19.3047 H   0  0  0  0  0  0  0  0  0  0  0  0
   32.0703   68.6626   17.0670 C   0  0  0  0  0  0  0  0  0  0  0  0
   32.9963   67.6009   17.2527 O   0  0  0  0  0  0  0  0  0  0  0  0
   33.7942   67.7723   16.7284 H   0  0  0  0  0  0  0  0  0  0  0  0
   33.3124   73.2584   15.8520 C   0  0  0  0  0  0  0  0  0  0  0  0
   33.3906   72.2543   16.8603 O   0  0  0  0  0  0  0  0  0  0  0  0
   34.2937   69.1639   15.0758 O   0  0  0  0  0  0  0  0  0  0  0  0
   33.8413   69.2645   13.7263 C   0  0  0  0  0  0  0  0  0  0  0  0
 16 17  1  0
  1 17  1  0
  1  2  1  0
  2 18  1  0
 18 19  1  0
  2  3  1  0
  3  4  1  0
  3  5  1  0
  5  6  1  0
  6  7  1  0
  7  8  2  0
  8  9  1  0
  9 10  1  0
 10 13  1  0
 13 14  1  0
 10  1  1  0
  9  5  2  0
  4 11  1  0
  6 12  1  0
 14 15  1  0
M  CHG 1   9   1
M  END
> <minimizedAffinity>
-4.23850

> <CNNscore>
0.4476886690

> <CNNaffinity>
3.2915248871

> <CNN_VS>
1.4735784531

> <CNNaffinity_variance>
0.9220480919

$$$$



 19 20  0  0  0  0  0  0  0  0999 V2000
   32.9913   70.3768   17.4814 C   0  0  0  0  0  0  0  0  0  0  0  0
   34.3301   70.4308   16.7019 C   0  0  0  0  0  0  0  0  0  0  0  0
   35.5448   70.1514   17.6164 C   0  0  0  0  0  0  0  0  0  0  0  0
   36.1491   71.3402   18.1350 O   0  0  0  0  0  0  0  0  0  0  0  0
   35.2047   69.2362   18.7701 C   0  0  0  0  0  0  0  0  0  0  0  0
   36.0233   68.8235   19.7501 N   0  0  0  0  0  0  0  0  0  0  0  0
   35.3507   68.0416   20.6549 C   0  0  0  0  0  0  0  0  0  0  0  0
   34.0598   67.9666   20.2126 C   0  0  0  0  0  0  0  0  0  0  0  0
   33.9972   68.7082   19.0437 N   0  0  0  0  0  0  0  0  0  0  0  0
   32.7990   69.0226   18.2330 C   0  0  0  0  0  0  0  0  0  0  0  0
   35.5211   71.7939   18.7187 H   0  0  0  0  0  0  0  0  0  0  0  0
   36.9790   69.0515   19.8116 H   0  0  0  0  0  0  0  0  0  0  0  0
   32.4276   67.8445   17.3135 C   0  0  0  0  0  0  0  0  0  0  0  0
   31.8342   66.7890   18.0570 O   0  0  0  0  0  0  0  0  0  0  0  0
   32.4635   66.4682   18.7218 H   0  0  0  0  0  0  0  0  0  0  0  0
   31.8283   71.5816   19.1918 C   0  0  0  0  0  0  0  0  0  0  0  0
   33.0282   71.4603   18.4325 O   0  0  0  0  0  0  0  0  0  0  0  0
   34.3596   69.4653   15.6400 O   0  0  0  0  0  0  0  0  0  0  0  0
   34.1496   70.0375   14.3499 C   0  0  0  0  0  0  0  0  0  0  0  0
 16 17  1  0
  1 17  1  0
  1  2  1  0
  2 18  1  0
 18 19  1  0
  2  3  1  0
  3  4  1  0
  3  5  1  0
  5  6  1  0
  6  7  1  0
  7  8  2  0
  8  9  1  0
  9 10  1  0
 10 13  1  0
 13 14  1  0
 10  1  1  0
  9  5  2  0
  4 11  1  0
  6 12  1  0
 14 15  1  0
M  CHG 1   9   1
M  END
> <minimizedAffinity>
-4.30053

> <CNNscore>
0.4114868343

> <CNNaffinity>
3.2310993671

> <CNN_VS>
1.3295547962

> <CNNaffinity_variance>
0.8907103539

$$$$



 19 20  0  0  0  0  0  0  0  0999 V2000
   33.2502   70.3536   18.0338 C   0  0  0  0  0  0  0  0  0  0  0  0
   33.1275   68.8327   18.3067 C   0  0  0  0  0  0  0  0  0  0  0  0
   32.7842   68.0397   17.0248 C   0  0  0  0  0  0  0  0  0  0  0  0
   31.3812   67.8144   16.8565 O   0  0  0  0  0  0  0  0  0  0  0  0
   33.3245   68.6949   15.7746 C   0  0  0  0  0  0  0  0  0  0  0  0
   33.1786   68.2758   14.5082 N   0  0  0  0  0  0  0  0  0  0  0  0
   33.7607   69.1548   13.6301 C   0  0  0  0  0  0  0  0  0  0  0  0
   34.2912   70.1603   14.3884 C   0  0  0  0  0  0  0  0  0  0  0  0
   34.0132   69.8496   15.7099 N   0  0  0  0  0  0  0  0  0  0  0  0
   34.2865   70.6711   16.9109 C   0  0  0  0  0  0  0  0  0  0  0  0
   30.9303   68.6637   16.7294 H   0  0  0  0  0  0  0  0  0  0  0  0
   32.7157   67.4480   14.2444 H   0  0  0  0  0  0  0  0  0  0  0  0
   35.7538   70.5300   17.3562 C   0  0  0  0  0  0  0  0  0  0  0  0
   36.4817   71.7202   17.0867 O   0  0  0  0  0  0  0  0  0  0  0  0
   36.4699   71.8975   16.1331 H   0  0  0  0  0  0  0  0  0  0  0  0
   31.8843   72.2028   17.3673 C   0  0  0  0  0  0  0  0  0  0  0  0
   31.9410   70.8031   17.6291 O   0  0  0  0  0  0  0  0  0  0  0  0
   34.3491   68.2925   18.8328 O   0  0  0  0  0  0  0  0  0  0  0  0
   34.1642   67.5383   20.0298 C   0  0  0  0  0  0  0  0  0  0  0  0
 16 17  1  0
  1 17  1  0
  1  2  1  0
  2 18  1  0
 18 19  1  0
  2  3  1  0
  3  4  1  0
  3  5  1  0
  5  6  1  0
  6  7  1  0
  7  8  2  0
  8  9  1  0
  9 10  1  0
 10 13  1  0
 13 14  1  0
 10  1  1  0
  9  5  2  0
  4 11  1  0
  6 12  1  0
 14 15  1  0
M  CHG 1   9   1
M  END
> <minimizedAffinity>
-4.36219

> <CNNscore>
0.3770421445

> <CNNaffinity>
3.1889801025

> <CNN_VS>
1.2023799419

> <CNNaffinity_variance>
1.5562251806

$$$$



 19 20  0  0  0  0  0  0  0  0999 V2000
   24.5912   66.0809   16.2179 C   0  0  0  0  0  0  0  0  0  0  0  0
   24.7669   64.5922   16.6127 C   0  0  0  0  0  0  0  0  0  0  0  0
   26.2438   64.2403   16.9037 C   0  0  0  0  0  0  0  0  0  0  0  0
   26.9332   63.7059   15.7695 O   0  0  0  0  0  0  0  0  0  0  0  0
   27.0268   65.4175   17.4379 C   0  0  0  0  0  0  0  0  0  0  0  0
   28.3285   65.4491   17.7626 N   0  0  0  0  0  0  0  0  0  0  0  0
   28.7043   66.7065   18.1627 C   0  0  0  0  0  0  0  0  0  0  0  0
   27.5841   67.4854   18.0835 C   0  0  0  0  0  0  0  0  0  0  0  0
   26.5605   66.6640   17.6389 N   0  0  0  0  0  0  0  0  0  0  0  0
   25.1737   67.0504   17.2933 C   0  0  0  0  0  0  0  0  0  0  0  0
   26.9901   64.3830   15.0772 H   0  0  0  0  0  0  0  0  0  0  0  0
   28.9332   64.6735   17.7194 H   0  0  0  0  0  0  0  0  0  0  0  0
   24.3031   67.1780   18.5572 C   0  0  0  0  0  0  0  0  0  0  0  0
   24.7907   66.3388   19.5950 O   0  0  0  0  0  0  0  0  0  0  0  0
   24.7661   65.4145   19.3019 H   0  0  0  0  0  0  0  0  0  0  0  0
   24.6086   65.6950   13.8557 C   0  0  0  0  0  0  0  0  0  0  0  0
   25.2935   66.2587   14.9710 O   0  0  0  0  0  0  0  0  0  0  0  0
   24.0073   64.2662   17.7864 O   0  0  0  0  0  0  0  0  0  0  0  0
   22.7715   63.6146   17.4968 C   0  0  0  0  0  0  0  0  0  0  0  0
 16 17  1  0
  1 17  1  0
  1  2  1  0
  2 18  1  0
 18 19  1  0
  2  3  1  0
  3  4  1  0
  3  5  1  0
  5  6  1  0
  6  7  1  0
  7  8  2  0
  8  9  1  0
  9 10  1  0
 10 13  1  0
 13 14  1  0
 10  1  1  0
  9  5  2  0
  4 11  1  0
  6 12  1  0
 14 15  1  0
M  CHG 1   9   1
M  END
> <minimizedAffinity>
-4.26474

> <CNNscore>
0.2116250247

> <CNNaffinity>
3.0978491306

> <CNN_VS>
0.6555824280

> <CNNaffinity_variance>
0.4092077315

$$$$



 19 20  0  0  0  0  0  0  0  0999 V2000
   34.1217   70.5999   19.4489 C   0  0  0  0  0  0  0  0  0  0  0  0
   35.2112   69.7627   18.7312 C   0  0  0  0  0  0  0  0  0  0  0  0
   35.2645   68.3094   19.2556 C   0  0  0  0  0  0  0  0  0  0  0  0
   36.2304   68.1166   20.2935 O   0  0  0  0  0  0  0  0  0  0  0  0
   33.9213   67.8190   19.7449 C   0  0  0  0  0  0  0  0  0  0  0  0
   33.6377   66.6215   20.2798 N   0  0  0  0  0  0  0  0  0  0  0  0
   32.3206   66.5519   20.6576 C   0  0  0  0  0  0  0  0  0  0  0  0
   31.7657   67.7598   20.3399 C   0  0  0  0  0  0  0  0  0  0  0  0
   32.7739   68.5223   19.7722 N   0  0  0  0  0  0  0  0  0  0  0  0
   32.7104   69.9407   19.3523 C   0  0  0  0  0  0  0  0  0  0  0  0
   35.9746   68.6335   21.0734 H   0  0  0  0  0  0  0  0  0  0  0  0
   34.2881   65.8902   20.3869 H   0  0  0  0  0  0  0  0  0  0  0  0
   32.0488   70.0796   17.9687 C   0  0  0  0  0  0  0  0  0  0  0  0
   32.4294   71.2984   17.3452 O   0  0  0  0  0  0  0  0  0  0  0  0
   32.1439   72.0454   17.8942 H   0  0  0  0  0  0  0  0  0  0  0  0
   35.6287   71.5664   21.0377 C   0  0  0  0  0  0  0  0  0  0  0  0
   34.5220   70.6925   20.8312 O   0  0  0  0  0  0  0  0  0  0  0  0
   34.9798   69.7013   17.3157 O   0  0  0  0  0  0  0  0  0  0  0  0
   35.9162   70.4645   16.5564 C   0  0  0  0  0  0  0  0  0  0  0  0
 16 17  1  0
  1 17  1  0
  1  2  1  0
  2 18  1  0
 18 19  1  0
  2  3  1  0
  3  4  1  0
  3  5  1  0
  5  6  1  0
  6  7  1  0
  7  8  2  0
  8  9  1  0
  9 10  1  0
 10 13  1  0
 13 14  1  0
 10  1  1  0
  9  5  2  0
  4 11  1  0
  6 12  1  0
 14 15  1  0
M  CHG 1   9   1
M  END
> <minimizedAffinity>
-4.27044

> <CNNscore>
0.1912156641

> <CNNaffinity>
2.4864394665

> <CNN_VS>
0.4754461646

> <CNNaffinity_variance>
1.6755486727

$$$$



 19 20  0  0  0  0  0  0  0  0999 V2000
   25.8689   62.9802   10.6757 C   0  0  0  0  0  0  0  0  0  0  0  0
   27.2753   63.6090   10.8474 C   0  0  0  0  0  0  0  0  0  0  0  0
   27.3423   65.0440   10.2762 C   0  0  0  0  0  0  0  0  0  0  0  0
   27.8172   65.0955    8.9275 O   0  0  0  0  0  0  0  0  0  0  0  0
   26.0141   65.7613   10.3513 C   0  0  0  0  0  0  0  0  0  0  0  0
   25.7330   67.0005    9.9199 N   0  0  0  0  0  0  0  0  0  0  0  0
   24.4063   67.2962   10.1066 C   0  0  0  0  0  0  0  0  0  0  0  0
   23.8437   66.1909   10.6807 C   0  0  0  0  0  0  0  0  0  0  0  0
   24.8591   65.2594   10.8266 N   0  0  0  0  0  0  0  0  0  0  0  0
   24.7459   63.8628   11.3048 C   0  0  0  0  0  0  0  0  0  0  0  0
   27.1859   64.6451    8.3449 H   0  0  0  0  0  0  0  0  0  0  0  0
   26.3910   67.6155    9.5224 H   0  0  0  0  0  0  0  0  0  0  0  0
   24.6943   63.8064   12.8428 C   0  0  0  0  0  0  0  0  0  0  0  0
   25.1143   62.5347   13.3175 O   0  0  0  0  0  0  0  0  0  0  0  0
   24.5241   61.8484   12.9689 H   0  0  0  0  0  0  0  0  0  0  0  0
   24.4125   62.2208    8.9346 C   0  0  0  0  0  0  0  0  0  0  0  0
   25.6492   62.8518    9.2563 O   0  0  0  0  0  0  0  0  0  0  0  0
   27.6554   63.6778   12.2301 O   0  0  0  0  0  0  0  0  0  0  0  0
   28.5654   64.7395   12.5138 C   0  0  0  0  0  0  0  0  0  0  0  0
 16 17  1  0
  1 17  1  0
  1  2  1  0
  2 18  1  0
 18 19  1  0
  2  3  1  0
  3  4  1  0
  3  5  1  0
  5  6  1  0
  6  7  1  0
  7  8  2  0
  8  9  1  0
  9 10  1  0
 10 13  1  0
 13 14  1  0
 10  1  1  0
  9  5  2  0
  4 11  1  0
  6 12  1  0
 14 15  1  0
M  CHG 1   9   1
M  END
> <minimizedAffinity>
-5.32688

> <CNNscore>
0.1366886795

> <CNNaffinity>
2.9587280750

> <CNN_VS>
0.4044246376

> <CNNaffinity_variance>
0.7391948700

$$$$



 19 20  0  0  0  0  0  0  0  0999 V2000
   27.2642   64.7680   11.4595 C   0  0  0  0  0  0  0  0  0  0  0  0
   26.4697   63.5562   12.0099 C   0  0  0  0  0  0  0  0  0  0  0  0
   26.8649   63.2168   13.4655 C   0  0  0  0  0  0  0  0  0  0  0  0
   27.8763   62.2088   13.5578 O   0  0  0  0  0  0  0  0  0  0  0  0
   27.3175   64.4317   14.2425 C   0  0  0  0  0  0  0  0  0  0  0  0
   27.7474   64.4713   15.5130 N   0  0  0  0  0  0  0  0  0  0  0  0
   28.1255   65.7426   15.8640 C   0  0  0  0  0  0  0  0  0  0  0  0
   27.9178   66.5231   14.7615 C   0  0  0  0  0  0  0  0  0  0  0  0
   27.4129   65.6905   13.7756 N   0  0  0  0  0  0  0  0  0  0  0  0
   27.1188   66.0308   12.3650 C   0  0  0  0  0  0  0  0  0  0  0  0
   28.6998   62.5404   13.1670 H   0  0  0  0  0  0  0  0  0  0  0  0
   27.7864   63.6919   16.1133 H   0  0  0  0  0  0  0  0  0  0  0  0
   25.7566   66.7376   12.2382 C   0  0  0  0  0  0  0  0  0  0  0  0
   25.9267   68.1131   11.9248 O   0  0  0  0  0  0  0  0  0  0  0  0
   26.4284   68.5464   12.6329 H   0  0  0  0  0  0  0  0  0  0  0  0
   29.4584   65.2275   10.6205 C   0  0  0  0  0  0  0  0  0  0  0  0
   28.6470   64.3616   11.4096 O   0  0  0  0  0  0  0  0  0  0  0  0
   25.0557   63.8034   11.9943 O   0  0  0  0  0  0  0  0  0  0  0  0
   24.3103   62.8710   12.7758 C   0  0  0  0  0  0  0  0  0  0  0  0
 16 17  1  0
  1 17  1  0
  1  2  1  0
  2 18  1  0
 18 19  1  0
  2  3  1  0
  3  4  1  0
  3  5  1  0
  5  6  1  0
  6  7  1  0
  7  8  2  0
  8  9  1  0
  9 10  1  0
 10 13  1  0
 13 14  1  0
 10  1  1  0
  9  5  2  0
  4 11  1  0
  6 12  1  0
 14 15  1  0
M  CHG 1   9   1
M  END
> <minimizedAffinity>
-4.33955

> <CNNscore>
0.1211945340

> <CNNaffinity>
2.8068311214

> <CNN_VS>
0.3401725888

> <CNNaffinity_variance>
0.9161255360

$$$$



 19 20  0  0  0  0  0  0  0  0999 V2000
   26.4453   66.1400    8.6534 C   0  0  0  0  0  0  0  0  0  0  0  0
   24.9358   65.7881    8.6350 C   0  0  0  0  0  0  0  0  0  0  0  0
   24.6870   64.2877    8.9124 C   0  0  0  0  0  0  0  0  0  0  0  0
   24.5740   63.5024    7.7217 O   0  0  0  0  0  0  0  0  0  0  0  0
   25.7487   63.6772    9.7981 C   0  0  0  0  0  0  0  0  0  0  0  0
   25.8362   62.4005   10.2017 N   0  0  0  0  0  0  0  0  0  0  0  0
   26.9654   62.1999   10.9548 C   0  0  0  0  0  0  0  0  0  0  0  0
   27.6024   63.4073   11.0206 C   0  0  0  0  0  0  0  0  0  0  0  0
   26.8274   64.3042   10.3030 N   0  0  0  0  0  0  0  0  0  0  0  0
   27.1345   65.7180    9.9886 C   0  0  0  0  0  0  0  0  0  0  0  0
   25.4198   63.5115    7.2468 H   0  0  0  0  0  0  0  0  0  0  0  0
   25.1779   61.7009    9.9863 H   0  0  0  0  0  0  0  0  0  0  0  0
   26.8028   66.6351   11.1804 C   0  0  0  0  0  0  0  0  0  0  0  0
   26.6437   67.9815   10.7547 O   0  0  0  0  0  0  0  0  0  0  0  0
   27.4696   68.2932   10.3528 H   0  0  0  0  0  0  0  0  0  0  0  0
   28.2853   65.9889    7.1298 C   0  0  0  0  0  0  0  0  0  0  0  0
   27.0442   65.4291    7.5508 O   0  0  0  0  0  0  0  0  0  0  0  0
   24.2097   66.5347    9.6230 O   0  0  0  0  0  0  0  0  0  0  0  0
   22.7968   66.3524    9.5434 C   0  0  0  0  0  0  0  0  0  0  0  0
 16 17  1  0
  1 17  1  0
  1  2  1  0
  2 18  1  0
 18 19  1  0
  2  3  1  0
  3  4  1  0
  3  5  1  0
  5  6  1  0
  6  7  1  0
  7  8  2  0
  8  9  1  0
  9 10  1  0
 10 13  1  0
 13 14  1  0
 10  1  1  0
  9  5  2  0
  4 11  1  0
  6 12  1  0
 14 15  1  0
M  CHG 1   9   1
M  END
> <minimizedAffinity>
-5.13660

> <CNNscore>
0.1207589358

> <CNNaffinity>
3.2420918941

> <CNN_VS>
0.3915115595

> <CNNaffinity_variance>
0.8866376281

$$$$



 19 20  0  0  0  0  0  0  0  0999 V2000
   25.5612   63.6822   10.1606 C   0  0  0  0  0  0  0  0  0  0  0  0
   26.7629   63.0994   10.9475 C   0  0  0  0  0  0  0  0  0  0  0  0
   27.9319   64.1059   11.0492 C   0  0  0  0  0  0  0  0  0  0  0  0
   28.9140   63.9394   10.0220 O   0  0  0  0  0  0  0  0  0  0  0  0
   27.4631   65.5427   11.0450 C   0  0  0  0  0  0  0  0  0  0  0  0
   28.2239   66.6470   11.0947 N   0  0  0  0  0  0  0  0  0  0  0  0
   27.4521   67.7787   11.0173 C   0  0  0  0  0  0  0  0  0  0  0  0
   26.1569   67.3541   10.9173 C   0  0  0  0  0  0  0  0  0  0  0  0
   26.1905   65.9691   10.9425 N   0  0  0  0  0  0  0  0  0  0  0  0
   25.0588   65.0316   10.7626 C   0  0  0  0  0  0  0  0  0  0  0  0
   28.5160   64.1354    9.1594 H   0  0  0  0  0  0  0  0  0  0  0  0
   29.2050   66.6454   11.1760 H   0  0  0  0  0  0  0  0  0  0  0  0
   24.2574   64.8739   12.0681 C   0  0  0  0  0  0  0  0  0  0  0  0
   22.9130   64.5030   11.7956 O   0  0  0  0  0  0  0  0  0  0  0  0
   22.4893   65.1926   11.2610 H   0  0  0  0  0  0  0  0  0  0  0  0
   25.0530   64.5317    7.9813 C   0  0  0  0  0  0  0  0  0  0  0  0
   26.0206   63.8930    8.8100 O   0  0  0  0  0  0  0  0  0  0  0  0
   26.3894   62.7368   12.2853 O   0  0  0  0  0  0  0  0  0  0  0  0
   27.4773   62.7812   13.2074 C   0  0  0  0  0  0  0  0  0  0  0  0
 16 17  1  0
  1 17  1  0
  1  2  1  0
  2 18  1  0
 18 19  1  0
  2  3  1  0
  3  4  1  0
  3  5  1  0
  5  6  1  0
  6  7  1  0
  7  8  2  0
  8  9  1  0
  9 10  1  0
 10 13  1  0
 13 14  1  0
 10  1  1  0
  9  5  2  0
  4 11  1  0
  6 12  1  0
 14 15  1  0
M  CHG 1   9   1
M  END
> <minimizedAffinity>
-5.33573

> <CNNscore>
0.1172243059

> <CNNaffinity>
3.0802557468

> <CNN_VS>
0.3610808551

> <CNNaffinity_variance>
0.7675314546

$$$$
