


 38 38  0  0  0  0  0  0  0  0999 V2000
   35.4275   41.7413   -4.2403 N   0  0  0  0  0  0  0  0  0  0  0  0
   34.5105   42.1449   -4.0486 H   0  0  0  0  0  0  0  0  0  0  0  0
   35.7940   42.1018   -5.7955 P   0  0  0  0  0  0  0  0  0  0  0  0
   36.8096   43.1737   -6.0324 O   0  0  0  0  0  0  0  0  0  0  0  0
   36.3592   40.7312   -6.4333 O   0  0  0  0  0  0  0  0  0  0  0  0
   37.1886   40.4876   -5.9931 H   0  0  0  0  0  0  0  0  0  0  0  0
   34.2642   42.3779   -6.7423 C   0  0  0  0  0  0  0  0  0  0  0  0
   34.5475   42.7416   -8.1225 N   0  0  0  0  0  0  0  0  0  0  0  0
   33.5515   43.1160   -8.9672 C   0  0  0  0  0  0  0  0  0  0  0  0
   32.4043   43.3587   -8.6242 O   0  0  0  0  0  0  0  0  0  0  0  0
   35.4757   42.7159   -8.4494 H   0  0  0  0  0  0  0  0  0  0  0  0
   34.0177   43.1277  -10.2325 O   0  0  0  0  0  0  0  0  0  0  0  0
   33.1662   42.4612  -11.1672 C   0  0  0  0  0  0  0  0  0  0  0  0
   33.1799   43.2543  -12.4486 C   0  0  0  0  0  0  0  0  0  0  0  0
   32.7702   42.6663  -13.6546 C   0  0  0  0  0  0  0  0  0  0  0  0
   32.7607   43.4102  -14.8371 C   0  0  0  0  0  0  0  0  0  0  0  0
   33.1518   44.7474  -14.8168 C   0  0  0  0  0  0  0  0  0  0  0  0
   33.1324   45.6653  -16.2727 Cl  0  0  0  0  0  0  0  0  0  0  0  0
   33.5521   45.3476  -13.6252 C   0  0  0  0  0  0  0  0  0  0  0  0
   33.5620   44.6042  -12.4427 C   0  0  0  0  0  0  0  0  0  0  0  0
   36.3337   42.1956   -3.1642 C   0  0  0  0  0  0  0  0  0  0  0  0
   37.7926   40.2359   -3.3872 N   0  0  0  0  0  0  0  0  0  0  0  0
   37.7423   41.6148   -3.4057 C   0  0  0  0  0  0  0  0  0  0  0  0
   38.7315   42.3252   -3.5620 O   0  0  0  0  0  0  0  0  0  0  0  0
   37.0126   39.7267   -3.0683 H   0  0  0  0  0  0  0  0  0  0  0  0
   38.9859   39.5197   -3.8336 C   0  0  0  0  0  0  0  0  0  0  0  0
   38.6052   38.4661   -4.8836 C   0  0  0  0  0  0  0  0  0  0  0  0
   39.3380   37.6027   -5.3414 O   0  0  0  0  0  0  0  0  0  0  0  0
   37.2997   38.4993   -5.2319 O   0  0  0  0  0  0  0  0  0  0  0  0
   36.7378   39.1618   -4.8806 H   0  0  0  0  0  0  0  0  0  0  0  0
   39.6666   38.8035   -2.6577 C   0  0  0  0  0  0  0  0  0  0  0  0
   37.9930   36.8899   -2.3961 C   0  0  0  0  0  0  0  0  0  0  0  0
   38.7155   38.0470   -1.7077 C   0  0  0  0  0  0  0  0  0  0  0  0
   37.6925   39.0210   -1.1181 C   0  0  0  0  0  0  0  0  0  0  0  0
   35.8668   41.9147   -1.7212 C   0  0  0  0  0  0  0  0  0  0  0  0
   36.1465   42.9698   -0.6289 C   0  0  0  0  0  0  0  0  0  0  0  0
   36.9995   42.3400    0.4800 C   0  0  0  0  0  0  0  0  0  0  0  0
   36.8467   44.2265   -1.1393 C   0  0  0  0  0  0  0  0  0  0  0  0
 32 33  1  0
 33 34  1  0
 33 31  1  0
 26 31  1  0
 26 22  1  0
 22 23  1  0
 23 24  2  0
 23 21  1  0
 21 35  1  0
 35 36  1  0
 36 37  1  0
 36 38  1  0
 21  1  1  0
  1  3  1  0
  3  4  2  0
  3  5  1  0
  3  7  1  0
  7  8  1  0
  8  9  1  0
  9 10  2  0
  9 12  1  0
 12 13  1  0
 13 14  1  0
 14 15  2  0
 15 16  1  0
 16 17  2  0
 17 18  1  0
 17 19  1  0
 19 20  2  0
 26 27  1  0
 27 28  2  0
 27 29  1  0
 20 14  1  0
 22 25  1  0
  1  2  1  0
  5  6  1  0
  8 11  1  0
 29 30  1  0
M  END
> <minimizedAffinity>
-9.54519

> <CNNscore>
0.5194599032

> <CNNaffinity>
7.0216441154

> <CNN_VS>
3.6474626064

> <CNNaffinity_variance>
0.2034836262

$$$$



 38 38  0  0  0  0  0  0  0  0999 V2000
   35.6847   41.7929   -3.7774 N   0  0  0  0  0  0  0  0  0  0  0  0
   34.7503   42.0980   -3.5050 H   0  0  0  0  0  0  0  0  0  0  0  0
   35.9642   42.3865   -5.2781 P   0  0  0  0  0  0  0  0  0  0  0  0
   35.1878   43.5944   -5.6960 O   0  0  0  0  0  0  0  0  0  0  0  0
   37.5319   42.7690   -5.3047 O   0  0  0  0  0  0  0  0  0  0  0  0
   37.6998   43.4889   -4.6766 H   0  0  0  0  0  0  0  0  0  0  0  0
   35.8635   41.0430   -6.5021 C   0  0  0  0  0  0  0  0  0  0  0  0
   35.2327   41.4888   -7.7353 N   0  0  0  0  0  0  0  0  0  0  0  0
   34.3465   40.6982   -8.3949 C   0  0  0  0  0  0  0  0  0  0  0  0
   33.8670   39.6679   -7.9464 O   0  0  0  0  0  0  0  0  0  0  0  0
   35.4518   42.3777   -8.0974 H   0  0  0  0  0  0  0  0  0  0  0  0
   34.1244   41.2035   -9.6253 O   0  0  0  0  0  0  0  0  0  0  0  0
   33.7463   42.5819   -9.6231 C   0  0  0  0  0  0  0  0  0  0  0  0
   33.4570   42.9817  -11.0471 C   0  0  0  0  0  0  0  0  0  0  0  0
   33.6984   44.2935  -11.4817 C   0  0  0  0  0  0  0  0  0  0  0  0
   33.4523   44.6559  -12.8083 C   0  0  0  0  0  0  0  0  0  0  0  0
   32.9727   43.7060  -13.7078 C   0  0  0  0  0  0  0  0  0  0  0  0
   32.6771   44.1516  -15.3439 Cl  0  0  0  0  0  0  0  0  0  0  0  0
   32.7372   42.3972  -13.2932 C   0  0  0  0  0  0  0  0  0  0  0  0
   32.9829   42.0343  -11.9670 C   0  0  0  0  0  0  0  0  0  0  0  0
   36.5988   42.1631   -2.6760 C   0  0  0  0  0  0  0  0  0  0  0  0
   37.5878   39.9251   -2.4982 N   0  0  0  0  0  0  0  0  0  0  0  0
   37.8490   41.2607   -2.7268 C   0  0  0  0  0  0  0  0  0  0  0  0
   38.9774   41.7058   -2.9169 O   0  0  0  0  0  0  0  0  0  0  0  0
   36.7025   39.6548   -2.1631 H   0  0  0  0  0  0  0  0  0  0  0  0
   38.6053   38.9055   -2.7461 C   0  0  0  0  0  0  0  0  0  0  0  0
   38.7395   38.6518   -4.2545 C   0  0  0  0  0  0  0  0  0  0  0  0
   39.7819   38.5050   -4.8739 O   0  0  0  0  0  0  0  0  0  0  0  0
   37.5525   38.5059   -4.8842 O   0  0  0  0  0  0  0  0  0  0  0  0
   36.7529   38.6185   -4.4088 H   0  0  0  0  0  0  0  0  0  0  0  0
   38.2297   37.5804   -2.0665 C   0  0  0  0  0  0  0  0  0  0  0  0
   40.6677   36.9220   -1.6748 C   0  0  0  0  0  0  0  0  0  0  0  0
   39.2703   37.0346   -1.0672 C   0  0  0  0  0  0  0  0  0  0  0  0
   38.8186   35.6681   -0.5463 C   0  0  0  0  0  0  0  0  0  0  0  0
   35.9868   42.1698   -1.2603 C   0  0  0  0  0  0  0  0  0  0  0  0
   36.6180   43.0746   -0.1798 C   0  0  0  0  0  0  0  0  0  0  0  0
   37.2515   42.1996    0.9097 C   0  0  0  0  0  0  0  0  0  0  0  0
   37.6713   44.0422   -0.7131 C   0  0  0  0  0  0  0  0  0  0  0  0
 32 33  1  0
 33 34  1  0
 33 31  1  0
 26 31  1  0
 26 22  1  0
 22 23  1  0
 23 24  2  0
 23 21  1  0
 21 35  1  0
 35 36  1  0
 36 37  1  0
 36 38  1  0
 21  1  1  0
  1  3  1  0
  3  4  2  0
  3  5  1  0
  3  7  1  0
  7  8  1  0
  8  9  1  0
  9 10  2  0
  9 12  1  0
 12 13  1  0
 13 14  1  0
 14 15  2  0
 15 16  1  0
 16 17  2  0
 17 18  1  0
 17 19  1  0
 19 20  2  0
 26 27  1  0
 27 28  2  0
 27 29  1  0
 20 14  1  0
 22 25  1  0
  1  2  1  0
  5  6  1  0
  8 11  1  0
 29 30  1  0
M  END
> <minimizedAffinity>
-9.07544

> <CNNscore>
0.4910984039

> <CNNaffinity>
6.9835400581

> <CNN_VS>
3.4296054840

> <CNNaffinity_variance>
0.2020420432

$$$$



 38 38  0  0  0  0  0  0  0  0999 V2000
   38.0516   42.4868   -4.3442 N   0  0  0  0  0  0  0  0  0  0  0  0
   38.7612   42.0364   -4.9221 H   0  0  0  0  0  0  0  0  0  0  0  0
   36.6412   42.4145   -5.1739 P   0  0  0  0  0  0  0  0  0  0  0  0
   35.4962   43.2256   -4.6566 O   0  0  0  0  0  0  0  0  0  0  0  0
   36.9892   42.9368   -6.6608 O   0  0  0  0  0  0  0  0  0  0  0  0
   37.2510   43.8700   -6.6227 H   0  0  0  0  0  0  0  0  0  0  0  0
   36.1826   40.6767   -5.4617 C   0  0  0  0  0  0  0  0  0  0  0  0
   34.8943   40.5668   -6.1293 N   0  0  0  0  0  0  0  0  0  0  0  0
   34.6456   39.5648   -7.0123 C   0  0  0  0  0  0  0  0  0  0  0  0
   35.3684   38.5950   -7.1841 O   0  0  0  0  0  0  0  0  0  0  0  0
   34.1916   41.2293   -5.9379 H   0  0  0  0  0  0  0  0  0  0  0  0
   33.5133   39.8372   -7.6920 O   0  0  0  0  0  0  0  0  0  0  0  0
   33.5941   39.5439   -9.0886 C   0  0  0  0  0  0  0  0  0  0  0  0
   33.5487   40.8514   -9.8365 C   0  0  0  0  0  0  0  0  0  0  0  0
   33.1041   40.8963  -11.1664 C   0  0  0  0  0  0  0  0  0  0  0  0
   33.0399   42.1128  -11.8502 C   0  0  0  0  0  0  0  0  0  0  0  0
   33.4111   43.2903  -11.2045 C   0  0  0  0  0  0  0  0  0  0  0  0
   33.3244   44.7897  -12.0455 Cl  0  0  0  0  0  0  0  0  0  0  0  0
   33.8457   43.2628   -9.8813 C   0  0  0  0  0  0  0  0  0  0  0  0
   33.9102   42.0468   -9.1971 C   0  0  0  0  0  0  0  0  0  0  0  0
   38.1295   41.8687   -3.0035 C   0  0  0  0  0  0  0  0  0  0  0  0
   38.4896   39.5564   -2.2672 N   0  0  0  0  0  0  0  0  0  0  0  0
   38.9483   40.5641   -3.0909 C   0  0  0  0  0  0  0  0  0  0  0  0
   39.9410   40.4542   -3.8049 O   0  0  0  0  0  0  0  0  0  0  0  0
   37.8145   39.7613   -1.5806 H   0  0  0  0  0  0  0  0  0  0  0  0
   38.9906   38.1897   -2.3986 C   0  0  0  0  0  0  0  0  0  0  0  0
   38.4775   37.5643   -3.7036 C   0  0  0  0  0  0  0  0  0  0  0  0
   37.6489   38.0464   -4.4605 O   0  0  0  0  0  0  0  0  0  0  0  0
   39.1018   36.4109   -4.0306 O   0  0  0  0  0  0  0  0  0  0  0  0
   39.7374   36.0413   -3.4498 H   0  0  0  0  0  0  0  0  0  0  0  0
   38.5154   37.3173   -1.2272 C   0  0  0  0  0  0  0  0  0  0  0  0
   38.4720   34.7998   -0.7897 C   0  0  0  0  0  0  0  0  0  0  0  0
   39.3440   36.0402   -0.9787 C   0  0  0  0  0  0  0  0  0  0  0  0
   40.2404   36.2366    0.2463 C   0  0  0  0  0  0  0  0  0  0  0  0
   36.7837   41.6226   -2.2912 C   0  0  0  0  0  0  0  0  0  0  0  0
   36.3666   42.5636   -1.1402 C   0  0  0  0  0  0  0  0  0  0  0  0
   36.8906   42.0046    0.1890 C   0  0  0  0  0  0  0  0  0  0  0  0
   36.8556   44.0008   -1.3005 C   0  0  0  0  0  0  0  0  0  0  0  0
 32 33  1  0
 33 34  1  0
 33 31  1  0
 26 31  1  0
 26 22  1  0
 22 23  1  0
 23 24  2  0
 23 21  1  0
 21 35  1  0
 35 36  1  0
 36 37  1  0
 36 38  1  0
 21  1  1  0
  1  3  1  0
  3  4  2  0
  3  5  1  0
  3  7  1  0
  7  8  1  0
  8  9  1  0
  9 10  2  0
  9 12  1  0
 12 13  1  0
 13 14  1  0
 14 15  2  0
 15 16  1  0
 16 17  2  0
 17 18  1  0
 17 19  1  0
 19 20  2  0
 26 27  1  0
 27 28  2  0
 27 29  1  0
 20 14  1  0
 22 25  1  0
  1  2  1  0
  5  6  1  0
  8 11  1  0
 29 30  1  0
M  END
> <minimizedAffinity>
-7.98336

> <CNNscore>
0.4858714342

> <CNNaffinity>
6.2343101501

> <CNN_VS>
3.0290732384

> <CNNaffinity_variance>
0.3995762765

$$$$



 38 38  0  0  0  0  0  0  0  0999 V2000
   35.7385   41.8051   -3.6475 N   0  0  0  0  0  0  0  0  0  0  0  0
   34.9296   42.3303   -3.3153 H   0  0  0  0  0  0  0  0  0  0  0  0
   36.0022   42.2611   -5.1984 P   0  0  0  0  0  0  0  0  0  0  0  0
   35.0986   43.3059   -5.7715 O   0  0  0  0  0  0  0  0  0  0  0  0
   37.5097   42.8367   -5.2274 O   0  0  0  0  0  0  0  0  0  0  0  0
   37.5609   43.6368   -4.6815 H   0  0  0  0  0  0  0  0  0  0  0  0
   36.1195   40.7895   -6.2632 C   0  0  0  0  0  0  0  0  0  0  0  0
   35.6993   41.0802   -7.6257 N   0  0  0  0  0  0  0  0  0  0  0  0
   34.5325   40.5895   -8.1191 C   0  0  0  0  0  0  0  0  0  0  0  0
   33.6696   40.0438   -7.4483 O   0  0  0  0  0  0  0  0  0  0  0  0
   36.2698   41.6414   -8.1992 H   0  0  0  0  0  0  0  0  0  0  0  0
   34.5058   40.7572   -9.4568 O   0  0  0  0  0  0  0  0  0  0  0  0
   33.1877   40.8698   -9.9979 C   0  0  0  0  0  0  0  0  0  0  0  0
   33.2018   41.9805  -11.0163 C   0  0  0  0  0  0  0  0  0  0  0  0
   33.5996   43.2757  -10.6524 C   0  0  0  0  0  0  0  0  0  0  0  0
   33.6352   44.2984  -11.6034 C   0  0  0  0  0  0  0  0  0  0  0  0
   33.2820   44.0283  -12.9239 C   0  0  0  0  0  0  0  0  0  0  0  0
   33.3335   45.2872  -14.0966 Cl  0  0  0  0  0  0  0  0  0  0  0  0
   32.8940   42.7450  -13.3023 C   0  0  0  0  0  0  0  0  0  0  0  0
   32.8581   41.7222  -12.3518 C   0  0  0  0  0  0  0  0  0  0  0  0
   36.8142   41.9912   -2.6506 C   0  0  0  0  0  0  0  0  0  0  0  0
   37.8464   39.8003   -3.0419 N   0  0  0  0  0  0  0  0  0  0  0  0
   38.0473   41.1653   -3.0717 C   0  0  0  0  0  0  0  0  0  0  0  0
   39.1195   41.6843   -3.3690 O   0  0  0  0  0  0  0  0  0  0  0  0
   37.0367   39.4388   -2.6143 H   0  0  0  0  0  0  0  0  0  0  0  0
   38.8174   38.8831   -3.6353 C   0  0  0  0  0  0  0  0  0  0  0  0
   38.1132   37.6007   -4.1014 C   0  0  0  0  0  0  0  0  0  0  0  0
   37.8930   36.6087   -3.4237 O   0  0  0  0  0  0  0  0  0  0  0  0
   37.6443   37.6728   -5.3670 O   0  0  0  0  0  0  0  0  0  0  0  0
   37.8133   38.4339   -5.8866 H   0  0  0  0  0  0  0  0  0  0  0  0
   39.8985   38.4952   -2.6156 C   0  0  0  0  0  0  0  0  0  0  0  0
   42.4456   38.6969   -2.6666 C   0  0  0  0  0  0  0  0  0  0  0  0
   41.2183   37.9749   -3.2209 C   0  0  0  0  0  0  0  0  0  0  0  0
   41.1778   38.1143   -4.7446 C   0  0  0  0  0  0  0  0  0  0  0  0
   36.4367   41.7003   -1.1836 C   0  0  0  0  0  0  0  0  0  0  0  0
   36.7022   42.7847   -0.1167 C   0  0  0  0  0  0  0  0  0  0  0  0
   37.2196   42.1204    1.1658 C   0  0  0  0  0  0  0  0  0  0  0  0
   37.6941   43.8599   -0.5528 C   0  0  0  0  0  0  0  0  0  0  0  0
 32 33  1  0
 33 34  1  0
 33 31  1  0
 26 31  1  0
 26 22  1  0
 22 23  1  0
 23 24  2  0
 23 21  1  0
 21 35  1  0
 35 36  1  0
 36 37  1  0
 36 38  1  0
 21  1  1  0
  1  3  1  0
  3  4  2  0
  3  5  1  0
  3  7  1  0
  7  8  1  0
  8  9  1  0
  9 10  2  0
  9 12  1  0
 12 13  1  0
 13 14  1  0
 14 15  2  0
 15 16  1  0
 16 17  2  0
 17 18  1  0
 17 19  1  0
 19 20  2  0
 26 27  1  0
 27 28  2  0
 27 29  1  0
 20 14  1  0
 22 25  1  0
  1  2  1  0
  5  6  1  0
  8 11  1  0
 29 30  1  0
M  END
> <minimizedAffinity>
-8.88284

> <CNNscore>
0.3928740919

> <CNNaffinity>
6.5494174957

> <CNN_VS>
2.5730965137

> <CNNaffinity_variance>
0.4295632839

$$$$



 38 38  0  0  0  0  0  0  0  0999 V2000
   39.7122   38.8866   -4.9153 N   0  0  0  0  0  0  0  0  0  0  0  0
   40.6363   39.1284   -4.5575 H   0  0  0  0  0  0  0  0  0  0  0  0
   39.8220   37.3790   -5.5463 P   0  0  0  0  0  0  0  0  0  0  0  0
   40.5821   37.2217   -6.8246 O   0  0  0  0  0  0  0  0  0  0  0  0
   40.5590   36.4923   -4.4169 O   0  0  0  0  0  0  0  0  0  0  0  0
   41.4646   36.8164   -4.2913 H   0  0  0  0  0  0  0  0  0  0  0  0
   38.1687   36.6220   -5.6279 C   0  0  0  0  0  0  0  0  0  0  0  0
   37.5632   36.7993   -6.9391 N   0  0  0  0  0  0  0  0  0  0  0  0
   36.6635   37.7913   -7.1674 C   0  0  0  0  0  0  0  0  0  0  0  0
   36.4265   38.7058   -6.3928 O   0  0  0  0  0  0  0  0  0  0  0  0
   37.8095   36.1906   -7.6727 H   0  0  0  0  0  0  0  0  0  0  0  0
   36.0498   37.5767   -8.3488 O   0  0  0  0  0  0  0  0  0  0  0  0
   36.0310   38.7209   -9.2052 C   0  0  0  0  0  0  0  0  0  0  0  0
   34.5900   39.0681   -9.4773 C   0  0  0  0  0  0  0  0  0  0  0  0
   34.1381   40.3894   -9.3435 C   0  0  0  0  0  0  0  0  0  0  0  0
   32.8075   40.7135   -9.6196 C   0  0  0  0  0  0  0  0  0  0  0  0
   31.9257   39.7197  -10.0394 C   0  0  0  0  0  0  0  0  0  0  0  0
   30.2885   40.1214  -10.3867 Cl  0  0  0  0  0  0  0  0  0  0  0  0
   32.3622   38.4050  -10.1859 C   0  0  0  0  0  0  0  0  0  0  0  0
   33.6923   38.0803   -9.9099 C   0  0  0  0  0  0  0  0  0  0  0  0
   38.7462   39.1412   -3.8256 C   0  0  0  0  0  0  0  0  0  0  0  0
   36.9112   40.7644   -3.9553 N   0  0  0  0  0  0  0  0  0  0  0  0
   38.2811   40.6107   -3.8905 C   0  0  0  0  0  0  0  0  0  0  0  0
   39.0689   41.5520   -3.9194 O   0  0  0  0  0  0  0  0  0  0  0  0
   36.3427   39.9782   -4.1227 H   0  0  0  0  0  0  0  0  0  0  0  0
   36.2914   42.0763   -3.7795 C   0  0  0  0  0  0  0  0  0  0  0  0
   35.9697   42.6940   -5.1479 C   0  0  0  0  0  0  0  0  0  0  0  0
   36.7798   43.0893   -5.9721 O   0  0  0  0  0  0  0  0  0  0  0  0
   34.6504   42.6961   -5.4417 O   0  0  0  0  0  0  0  0  0  0  0  0
   34.0291   42.3927   -4.8093 H   0  0  0  0  0  0  0  0  0  0  0  0
   37.2327   43.0306   -3.0298 C   0  0  0  0  0  0  0  0  0  0  0  0
   35.6976   42.4858   -1.0606 C   0  0  0  0  0  0  0  0  0  0  0  0
   37.0297   43.0905   -1.5019 C   0  0  0  0  0  0  0  0  0  0  0  0
   37.1248   44.5418   -1.0249 C   0  0  0  0  0  0  0  0  0  0  0  0
   39.2188   38.7800   -2.4025 C   0  0  0  0  0  0  0  0  0  0  0  0
   38.3163   37.8896   -1.5210 C   0  0  0  0  0  0  0  0  0  0  0  0
   39.1856   37.1165   -0.5208 C   0  0  0  0  0  0  0  0  0  0  0  0
   37.2411   38.6556   -0.7545 C   0  0  0  0  0  0  0  0  0  0  0  0
 32 33  1  0
 33 34  1  0
 33 31  1  0
 26 31  1  0
 26 22  1  0
 22 23  1  0
 23 24  2  0
 23 21  1  0
 21 35  1  0
 35 36  1  0
 36 37  1  0
 36 38  1  0
 21  1  1  0
  1  3  1  0
  3  4  2  0
  3  5  1  0
  3  7  1  0
  7  8  1  0
  8  9  1  0
  9 10  2  0
  9 12  1  0
 12 13  1  0
 13 14  1  0
 14 15  2  0
 15 16  1  0
 16 17  2  0
 17 18  1  0
 17 19  1  0
 19 20  2  0
 26 27  1  0
 27 28  2  0
 27 29  1  0
 20 14  1  0
 22 25  1  0
  1  2  1  0
  5  6  1  0
  8 11  1  0
 29 30  1  0
M  END
> <minimizedAffinity>
-7.21538

> <CNNscore>
0.3223084509

> <CNNaffinity>
6.7558674812

> <CNN_VS>
2.1774730682

> <CNNaffinity_variance>
0.0479354970

$$$$



 38 38  0  0  0  0  0  0  0  0999 V2000
   33.6355   43.2409   -7.2547 N   0  0  0  0  0  0  0  0  0  0  0  0
   34.3049   44.0095   -7.2141 H   0  0  0  0  0  0  0  0  0  0  0  0
   33.1858   43.0792   -8.8213 P   0  0  0  0  0  0  0  0  0  0  0  0
   32.1772   44.0479   -9.3513 O   0  0  0  0  0  0  0  0  0  0  0  0
   34.5419   43.2540   -9.6787 O   0  0  0  0  0  0  0  0  0  0  0  0
   34.8792   44.1570   -9.5698 H   0  0  0  0  0  0  0  0  0  0  0  0
   32.7257   41.3502   -9.1561 C   0  0  0  0  0  0  0  0  0  0  0  0
   31.5896   41.2646  -10.0614 N   0  0  0  0  0  0  0  0  0  0  0  0
   31.7695   41.1622  -11.4041 C   0  0  0  0  0  0  0  0  0  0  0  0
   32.8430   40.9492  -11.9468 O   0  0  0  0  0  0  0  0  0  0  0  0
   30.6760   41.2812   -9.6950 H   0  0  0  0  0  0  0  0  0  0  0  0
   30.5958   41.3797  -12.0314 O   0  0  0  0  0  0  0  0  0  0  0  0
   30.1795   40.2978  -12.8675 C   0  0  0  0  0  0  0  0  0  0  0  0
   29.0868   39.5524  -12.1453 C   0  0  0  0  0  0  0  0  0  0  0  0
   27.7382   39.8093  -12.4341 C   0  0  0  0  0  0  0  0  0  0  0  0
   26.7272   39.1001  -11.7809 C   0  0  0  0  0  0  0  0  0  0  0  0
   27.0606   38.1250  -10.8431 C   0  0  0  0  0  0  0  0  0  0  0  0
   25.8145   37.2464  -10.0445 Cl  0  0  0  0  0  0  0  0  0  0  0  0
   28.3954   37.8522  -10.5528 C   0  0  0  0  0  0  0  0  0  0  0  0
   29.4066   38.5610  -11.2054 C   0  0  0  0  0  0  0  0  0  0  0  0
   34.2548   42.0910   -6.5620 C   0  0  0  0  0  0  0  0  0  0  0  0
   35.3406   42.2571   -4.3684 N   0  0  0  0  0  0  0  0  0  0  0  0
   35.4364   42.5892   -5.7044 C   0  0  0  0  0  0  0  0  0  0  0  0
   36.3570   43.2540   -6.1713 O   0  0  0  0  0  0  0  0  0  0  0  0
   34.4948   41.8946   -4.0186 H   0  0  0  0  0  0  0  0  0  0  0  0
   36.4755   42.4352   -3.4649 C   0  0  0  0  0  0  0  0  0  0  0  0
   37.6864   41.6430   -3.9784 C   0  0  0  0  0  0  0  0  0  0  0  0
   37.7350   40.4374   -4.1683 O   0  0  0  0  0  0  0  0  0  0  0  0
   38.7390   42.4228   -4.3111 O   0  0  0  0  0  0  0  0  0  0  0  0
   38.7015   43.3477   -4.1653 H   0  0  0  0  0  0  0  0  0  0  0  0
   36.1357   41.9338   -2.0534 C   0  0  0  0  0  0  0  0  0  0  0  0
   37.1325   44.1751   -1.3367 C   0  0  0  0  0  0  0  0  0  0  0  0
   36.2623   42.9859   -0.9326 C   0  0  0  0  0  0  0  0  0  0  0  0
   36.8309   42.3309    0.3285 C   0  0  0  0  0  0  0  0  0  0  0  0
   34.6886   40.9131   -7.4584 C   0  0  0  0  0  0  0  0  0  0  0  0
   34.8819   39.5213   -6.8183 C   0  0  0  0  0  0  0  0  0  0  0  0
   33.7699   38.5807   -7.3006 C   0  0  0  0  0  0  0  0  0  0  0  0
   36.2356   38.8807   -7.1140 C   0  0  0  0  0  0  0  0  0  0  0  0
 32 33  1  0
 33 34  1  0
 33 31  1  0
 26 31  1  0
 26 22  1  0
 22 23  1  0
 23 24  2  0
 23 21  1  0
 21 35  1  0
 35 36  1  0
 36 37  1  0
 36 38  1  0
 21  1  1  0
  1  3  1  0
  3  4  2  0
  3  5  1  0
  3  7  1  0
  7  8  1  0
  8  9  1  0
  9 10  2  0
  9 12  1  0
 12 13  1  0
 13 14  1  0
 14 15  2  0
 15 16  1  0
 16 17  2  0
 17 18  1  0
 17 19  1  0
 19 20  2  0
 26 27  1  0
 27 28  2  0
 27 29  1  0
 20 14  1  0
 22 25  1  0
  1  2  1  0
  5  6  1  0
  8 11  1  0
 29 30  1  0
M  END
> <minimizedAffinity>
-7.68607

> <CNNscore>
0.3023111224

> <CNNaffinity>
6.7825655937

> <CNN_VS>
2.0504450798

> <CNNaffinity_variance>
0.1881932020

$$$$



 38 38  0  0  0  0  0  0  0  0999 V2000
   34.9937   42.4716   -8.1041 N   0  0  0  0  0  0  0  0  0  0  0  0
   35.6497   42.0845   -8.7825 H   0  0  0  0  0  0  0  0  0  0  0  0
   33.5722   42.6964   -8.8861 P   0  0  0  0  0  0  0  0  0  0  0  0
   32.5174   43.4891   -8.1822 O   0  0  0  0  0  0  0  0  0  0  0  0
   33.9495   43.4714  -10.2506 O   0  0  0  0  0  0  0  0  0  0  0  0
   34.3004   44.3502  -10.0369 H   0  0  0  0  0  0  0  0  0  0  0  0
   32.9449   41.1008   -9.4974 C   0  0  0  0  0  0  0  0  0  0  0  0
   31.7411   41.2702  -10.2972 N   0  0  0  0  0  0  0  0  0  0  0  0
   31.6407   40.7239  -11.5370 C   0  0  0  0  0  0  0  0  0  0  0  0
   32.4291   39.9175  -12.0067 O   0  0  0  0  0  0  0  0  0  0  0  0
   30.9873   41.7890   -9.9340 H   0  0  0  0  0  0  0  0  0  0  0  0
   30.5723   41.2469  -12.1720 O   0  0  0  0  0  0  0  0  0  0  0  0
   30.8790   41.8092  -13.4498 C   0  0  0  0  0  0  0  0  0  0  0  0
   31.5609   43.1330  -13.2182 C   0  0  0  0  0  0  0  0  0  0  0  0
   30.9634   44.1099  -12.4078 C   0  0  0  0  0  0  0  0  0  0  0  0
   31.6084   45.3270  -12.1747 C   0  0  0  0  0  0  0  0  0  0  0  0
   32.8573   45.5686  -12.7432 C   0  0  0  0  0  0  0  0  0  0  0  0
   33.6546   47.0655  -12.4492 Cl  0  0  0  0  0  0  0  0  0  0  0  0
   33.4673   44.6045  -13.5424 C   0  0  0  0  0  0  0  0  0  0  0  0
   32.8229   43.3875  -13.7760 C   0  0  0  0  0  0  0  0  0  0  0  0
   35.0298   41.5915   -6.9167 C   0  0  0  0  0  0  0  0  0  0  0  0
   35.6028   41.7496   -4.5366 N   0  0  0  0  0  0  0  0  0  0  0  0
   35.8151   42.2910   -5.7880 C   0  0  0  0  0  0  0  0  0  0  0  0
   36.5336   43.2660   -5.9897 O   0  0  0  0  0  0  0  0  0  0  0  0
   34.8752   41.0992   -4.4069 H   0  0  0  0  0  0  0  0  0  0  0  0
   36.4417   42.1268   -3.4007 C   0  0  0  0  0  0  0  0  0  0  0  0
   37.7542   41.3305   -3.4284 C   0  0  0  0  0  0  0  0  0  0  0  0
   38.8829   41.7963   -3.4577 O   0  0  0  0  0  0  0  0  0  0  0  0
   37.5765   39.9945   -3.3256 O   0  0  0  0  0  0  0  0  0  0  0  0
   36.7105   39.6375   -3.3031 H   0  0  0  0  0  0  0  0  0  0  0  0
   35.7287   41.8336   -2.0722 C   0  0  0  0  0  0  0  0  0  0  0  0
   36.7715   44.0698   -1.4066 C   0  0  0  0  0  0  0  0  0  0  0  0
   36.0437   42.8155   -0.9251 C   0  0  0  0  0  0  0  0  0  0  0  0
   36.8794   42.1085    0.1447 C   0  0  0  0  0  0  0  0  0  0  0  0
   35.5617   40.1624   -7.1482 C   0  0  0  0  0  0  0  0  0  0  0  0
   34.5841   39.0743   -7.6430 C   0  0  0  0  0  0  0  0  0  0  0  0
   35.3507   37.7635   -7.8622 C   0  0  0  0  0  0  0  0  0  0  0  0
   33.4129   38.8117   -6.6999 C   0  0  0  0  0  0  0  0  0  0  0  0
 32 33  1  0
 33 34  1  0
 33 31  1  0
 26 31  1  0
 26 22  1  0
 22 23  1  0
 23 24  2  0
 23 21  1  0
 21 35  1  0
 35 36  1  0
 36 37  1  0
 36 38  1  0
 21  1  1  0
  1  3  1  0
  3  4  2  0
  3  5  1  0
  3  7  1  0
  7  8  1  0
  8  9  1  0
  9 10  2  0
  9 12  1  0
 12 13  1  0
 13 14  1  0
 14 15  2  0
 15 16  1  0
 16 17  2  0
 17 18  1  0
 17 19  1  0
 19 20  2  0
 26 27  1  0
 27 28  2  0
 27 29  1  0
 20 14  1  0
 22 25  1  0
  1  2  1  0
  5  6  1  0
  8 11  1  0
 29 30  1  0
M  END
> <minimizedAffinity>
-8.09099

> <CNNscore>
0.2977409065

> <CNNaffinity>
7.1379909515

> <CNN_VS>
2.1252717972

> <CNNaffinity_variance>
0.0143867144

$$$$



 38 38  0  0  0  0  0  0  0  0999 V2000
   33.5715   43.1686   -7.2010 N   0  0  0  0  0  0  0  0  0  0  0  0
   34.1941   43.9683   -7.0855 H   0  0  0  0  0  0  0  0  0  0  0  0
   33.1564   43.1091   -8.7843 P   0  0  0  0  0  0  0  0  0  0  0  0
   32.2943   44.2114   -9.3116 O   0  0  0  0  0  0  0  0  0  0  0  0
   34.5510   43.1364   -9.5962 O   0  0  0  0  0  0  0  0  0  0  0  0
   34.9944   43.9864   -9.4487 H   0  0  0  0  0  0  0  0  0  0  0  0
   32.4955   41.4618   -9.1878 C   0  0  0  0  0  0  0  0  0  0  0  0
   31.6016   41.5102  -10.3350 N   0  0  0  0  0  0  0  0  0  0  0  0
   32.0890   41.5259  -11.6031 C   0  0  0  0  0  0  0  0  0  0  0  0
   33.2553   41.3184  -11.9016 O   0  0  0  0  0  0  0  0  0  0  0  0
   30.6281   41.5320  -10.1900 H   0  0  0  0  0  0  0  0  0  0  0  0
   31.0996   41.8515  -12.4595 O   0  0  0  0  0  0  0  0  0  0  0  0
   30.8434   43.2555  -12.5381 C   0  0  0  0  0  0  0  0  0  0  0  0
   31.5092   43.7754  -13.7861 C   0  0  0  0  0  0  0  0  0  0  0  0
   32.7055   44.5036  -13.7047 C   0  0  0  0  0  0  0  0  0  0  0  0
   33.3339   44.9639  -14.8644 C   0  0  0  0  0  0  0  0  0  0  0  0
   32.7737   44.6903  -16.1104 C   0  0  0  0  0  0  0  0  0  0  0  0
   33.5527   45.2513  -17.5391 Cl  0  0  0  0  0  0  0  0  0  0  0  0
   31.5912   43.9604  -16.2076 C   0  0  0  0  0  0  0  0  0  0  0  0
   30.9624   43.5000  -15.0485 C   0  0  0  0  0  0  0  0  0  0  0  0
   34.2462   42.0035   -6.5903 C   0  0  0  0  0  0  0  0  0  0  0  0
   35.3103   42.1601   -4.3854 N   0  0  0  0  0  0  0  0  0  0  0  0
   35.4214   42.4942   -5.7197 C   0  0  0  0  0  0  0  0  0  0  0  0
   36.3501   43.1552   -6.1759 O   0  0  0  0  0  0  0  0  0  0  0  0
   34.4591   41.8013   -4.0449 H   0  0  0  0  0  0  0  0  0  0  0  0
   36.4368   42.3309   -3.4699 C   0  0  0  0  0  0  0  0  0  0  0  0
   37.6378   41.5057   -3.9538 C   0  0  0  0  0  0  0  0  0  0  0  0
   37.6611   40.2977   -4.1325 O   0  0  0  0  0  0  0  0  0  0  0  0
   38.7148   42.2574   -4.2730 O   0  0  0  0  0  0  0  0  0  0  0  0
   38.6966   43.1841   -4.1357 H   0  0  0  0  0  0  0  0  0  0  0  0
   36.0684   41.8609   -2.0548 C   0  0  0  0  0  0  0  0  0  0  0  0
   37.0170   44.1388   -1.3894 C   0  0  0  0  0  0  0  0  0  0  0  0
   36.1831   42.9349   -0.9536 C   0  0  0  0  0  0  0  0  0  0  0  0
   36.7851   42.3161    0.3103 C   0  0  0  0  0  0  0  0  0  0  0  0
   34.7107   40.9017   -7.5646 C   0  0  0  0  0  0  0  0  0  0  0  0
   34.9084   39.4673   -7.0280 C   0  0  0  0  0  0  0  0  0  0  0  0
   33.6165   38.6653   -7.2322 C   0  0  0  0  0  0  0  0  0  0  0  0
   36.0674   38.7130   -7.6746 C   0  0  0  0  0  0  0  0  0  0  0  0
 32 33  1  0
 33 34  1  0
 33 31  1  0
 26 31  1  0
 26 22  1  0
 22 23  1  0
 23 24  2  0
 23 21  1  0
 21 35  1  0
 35 36  1  0
 36 37  1  0
 36 38  1  0
 21  1  1  0
  1  3  1  0
  3  4  2  0
  3  5  1  0
  3  7  1  0
  7  8  1  0
  8  9  1  0
  9 10  2  0
  9 12  1  0
 12 13  1  0
 13 14  1  0
 14 15  2  0
 15 16  1  0
 16 17  2  0
 17 18  1  0
 17 19  1  0
 19 20  2  0
 26 27  1  0
 27 28  2  0
 27 29  1  0
 20 14  1  0
 22 25  1  0
  1  2  1  0
  5  6  1  0
  8 11  1  0
 29 30  1  0
M  END
> <minimizedAffinity>
-7.93149

> <CNNscore>
0.2919611037

> <CNNaffinity>
7.1784858704

> <CNN_VS>
2.0958385468

> <CNNaffinity_variance>
0.0757612288

$$$$



 38 38  0  0  0  0  0  0  0  0999 V2000
   34.0627   43.1400   -7.7409 N   0  0  0  0  0  0  0  0  0  0  0  0
   34.8143   43.7529   -8.0568 H   0  0  0  0  0  0  0  0  0  0  0  0
   33.1090   42.8428   -9.0389 P   0  0  0  0  0  0  0  0  0  0  0  0
   32.5384   41.4670   -9.1730 O   0  0  0  0  0  0  0  0  0  0  0  0
   31.8798   43.8815   -8.9167 O   0  0  0  0  0  0  0  0  0  0  0  0
   31.3585   43.6740   -8.1255 H   0  0  0  0  0  0  0  0  0  0  0  0
   33.9449   43.3953  -10.5585 C   0  0  0  0  0  0  0  0  0  0  0  0
   32.9957   43.9086  -11.5348 N   0  0  0  0  0  0  0  0  0  0  0  0
   33.2435   45.0573  -12.2165 C   0  0  0  0  0  0  0  0  0  0  0  0
   34.3150   45.6443  -12.2223 O   0  0  0  0  0  0  0  0  0  0  0  0
   32.1606   43.4155  -11.7041 H   0  0  0  0  0  0  0  0  0  0  0  0
   32.1166   45.4629  -12.8360 O   0  0  0  0  0  0  0  0  0  0  0  0
   31.3437   44.3935  -13.3857 C   0  0  0  0  0  0  0  0  0  0  0  0
   31.9450   44.0293  -14.7187 C   0  0  0  0  0  0  0  0  0  0  0  0
   32.2254   42.6908  -15.0318 C   0  0  0  0  0  0  0  0  0  0  0  0
   32.7603   42.3526  -16.2772 C   0  0  0  0  0  0  0  0  0  0  0  0
   33.0085   43.3500  -17.2179 C   0  0  0  0  0  0  0  0  0  0  0  0
   33.6604   42.9315  -18.7550 Cl  0  0  0  0  0  0  0  0  0  0  0  0
   32.7264   44.6823  -16.9249 C   0  0  0  0  0  0  0  0  0  0  0  0
   32.1918   45.0211  -15.6798 C   0  0  0  0  0  0  0  0  0  0  0  0
   34.6970   42.0036   -7.0395 C   0  0  0  0  0  0  0  0  0  0  0  0
   35.5456   42.1412   -4.7419 N   0  0  0  0  0  0  0  0  0  0  0  0
   35.7488   42.5408   -6.0470 C   0  0  0  0  0  0  0  0  0  0  0  0
   36.6605   43.2877   -6.3910 O   0  0  0  0  0  0  0  0  0  0  0  0
   34.6978   41.7060   -4.4946 H   0  0  0  0  0  0  0  0  0  0  0  0
   36.5697   42.3540   -3.7210 C   0  0  0  0  0  0  0  0  0  0  0  0
   37.7283   41.3672   -3.9241 C   0  0  0  0  0  0  0  0  0  0  0  0
   38.9133   41.5927   -3.7322 O   0  0  0  0  0  0  0  0  0  0  0  0
   37.3238   40.1246   -4.2694 O   0  0  0  0  0  0  0  0  0  0  0  0
   36.4147   39.9519   -4.4166 H   0  0  0  0  0  0  0  0  0  0  0  0
   35.9936   42.1371   -2.3139 C   0  0  0  0  0  0  0  0  0  0  0  0
   36.3693   42.2677    0.2106 C   0  0  0  0  0  0  0  0  0  0  0  0
   36.8056   42.7697   -1.1651 C   0  0  0  0  0  0  0  0  0  0  0  0
   36.6829   44.2942   -1.2246 C   0  0  0  0  0  0  0  0  0  0  0  0
   35.3036   40.9061   -7.9376 C   0  0  0  0  0  0  0  0  0  0  0  0
   34.8727   39.4398   -7.7165 C   0  0  0  0  0  0  0  0  0  0  0  0
   36.0829   38.6185   -7.2531 C   0  0  0  0  0  0  0  0  0  0  0  0
   33.7408   39.2671   -6.7070 C   0  0  0  0  0  0  0  0  0  0  0  0
 32 33  1  0
 33 34  1  0
 33 31  1  0
 26 31  1  0
 26 22  1  0
 22 23  1  0
 23 24  2  0
 23 21  1  0
 21 35  1  0
 35 36  1  0
 36 37  1  0
 36 38  1  0
 21  1  1  0
  1  3  1  0
  3  4  2  0
  3  5  1  0
  3  7  1  0
  7  8  1  0
  8  9  1  0
  9 10  2  0
  9 12  1  0
 12 13  1  0
 13 14  1  0
 14 15  2  0
 15 16  1  0
 16 17  2  0
 17 18  1  0
 17 19  1  0
 19 20  2  0
 26 27  1  0
 27 28  2  0
 27 29  1  0
 20 14  1  0
 22 25  1  0
  1  2  1  0
  5  6  1  0
  8 11  1  0
 29 30  1  0
M  END
> <minimizedAffinity>
-8.11321

> <CNNscore>
0.2661392987

> <CNNaffinity>
6.8652629852

> <CNN_VS>
1.8271162510

> <CNNaffinity_variance>
0.0391598977

$$$$
