


 34 35  0  0  0  0  0  0  0  0999 V2000
   29.5043    0.9382    4.7648 C   0  0  0  0  0  0  0  0  0  0  0  0
   28.3143   -0.0169    4.5941 C   0  0  0  0  0  0  0  0  0  0  0  0
   28.9322    2.3815    4.8430 C   0  0  0  0  0  0  0  0  0  0  0  0
   29.4299    3.2507    5.5528 O   0  0  0  0  0  0  0  0  0  0  0  0
   27.7882    2.5310    4.0707 N   0  0  0  0  0  0  0  0  0  0  0  0
   27.5249    1.7449    3.5398 H   0  0  0  0  0  0  0  0  0  0  0  0
   26.9573    3.6565    3.9473 C   0  0  0  0  0  0  0  0  0  0  0  0
   27.5838    4.8859    3.7104 C   0  0  0  0  0  0  0  0  0  0  0  0
   26.8299    6.0511    3.5637 C   0  0  0  0  0  0  0  0  0  0  0  0
   25.4338    5.9835    3.6556 C   0  0  0  0  0  0  0  0  0  0  0  0
   24.7741    4.7724    3.9080 C   0  0  0  0  0  0  0  0  0  0  0  0
   25.5610    3.6087    4.0385 C   0  0  0  0  0  0  0  0  0  0  0  0
   23.2767    4.6808    4.0437 C   0  0  0  0  0  0  0  0  0  0  0  0
   22.8874    3.9871    5.1468 F   0  0  0  0  0  0  0  0  0  0  0  0
   22.6779    5.8976    4.1084 F   0  0  0  0  0  0  0  0  0  0  0  0
   22.6888    4.0387    2.9944 F   0  0  0  0  0  0  0  0  0  0  0  0
   24.6896    7.2215    3.4615 N   0  0  0  0  0  0  0  0  0  0  0  0
   24.4444    7.5531    2.2952 O   0  0  0  0  0  0  0  0  0  0  0  0
   24.3314    7.8274    4.4771 O   0  0  0  0  0  0  0  0  0  0  0  0
   29.8680    0.0733    2.5147 C   0  0  0  0  0  0  0  0  0  0  0  0
   30.3135    0.9235    3.5628 O   0  0  0  0  0  0  0  0  0  0  0  0
   30.2894    0.6714    6.0708 C   0  0  0  0  0  0  0  0  0  0  0  0
   29.9185    1.6156    7.0845 O   0  0  0  0  0  0  0  0  0  0  0  0
   29.6800    1.1251    8.3374 C   0  0  0  0  0  0  0  0  0  0  0  0
   28.6972    1.8070    9.0553 C   0  0  0  0  0  0  0  0  0  0  0  0
   28.3527    1.4155   10.3546 C   0  0  0  0  0  0  0  0  0  0  0  0
   28.9914    0.3326   10.9558 C   0  0  0  0  0  0  0  0  0  0  0  0
   29.9758   -0.3519   10.2323 C   0  0  0  0  0  0  0  0  0  0  0  0
   30.3188    0.0394    8.9313 C   0  0  0  0  0  0  0  0  0  0  0  0
   28.7133   -0.1262   12.2595 N   0  0  0  0  0  0  0  0  0  0  0  0
   29.6171   -0.3602   13.2807 C   0  0  0  0  0  0  0  0  0  0  0  0
   28.9400   -0.8681   14.5290 C   0  0  0  0  0  0  0  0  0  0  0  0
   30.8331   -0.2145   13.2409 O   0  0  0  0  0  0  0  0  0  0  0  0
   27.7669   -0.3001   12.4672 H   0  0  0  0  0  0  0  0  0  0  0  0
 20 21  1  0
 21  1  1  0
  1  2  1  0
  1 22  1  0
 22 23  1  0
 23 24  1  0
 24 25  2  0
 25 26  1  0
 26 27  2  0
 27 30  1  0
 30 31  1  0
 31 32  1  0
 31 33  2  0
 27 28  1  0
 28 29  2  0
  1  3  1  0
  3  4  2  0
  3  5  1  0
  5  7  1  0
  7  8  2  0
  8  9  1  0
  9 10  2  0
 10 17  1  0
 17 18  2  0
 17 19  1  0
 10 11  1  0
 11 13  1  0
 13 14  1  0
 13 15  1  0
 13 16  1  0
 11 12  2  0
 29 24  1  0
 12  7  1  0
 30 34  1  0
  5  6  1  0
M  CHG 1  17   1
M  CHG 1  19  -1
M  END
> <minimizedAffinity>
-10.97980

> <CNNscore>
0.9356434345

> <CNNaffinity>
8.1589832306

> <CNN_VS>
7.6338992119

> <CNNaffinity_variance>
0.1294894964

$$$$



 34 35  0  0  0  0  0  0  0  0999 V2000
   25.6711   12.1659    2.7623 C   0  0  0  0  0  0  0  0  0  0  0  0
   26.8954   11.7719    1.9238 C   0  0  0  0  0  0  0  0  0  0  0  0
   25.1316   10.8705    3.4312 C   0  0  0  0  0  0  0  0  0  0  0  0
   24.4952   10.8861    4.4809 O   0  0  0  0  0  0  0  0  0  0  0  0
   25.5038    9.7297    2.7330 N   0  0  0  0  0  0  0  0  0  0  0  0
   25.9971    9.8832    1.8949 H   0  0  0  0  0  0  0  0  0  0  0  0
   25.2690    8.3855    3.0652 C   0  0  0  0  0  0  0  0  0  0  0  0
   23.9959    8.0640    3.5505 C   0  0  0  0  0  0  0  0  0  0  0  0
   23.6769    6.7492    3.8927 C   0  0  0  0  0  0  0  0  0  0  0  0
   24.6439    5.7463    3.7470 C   0  0  0  0  0  0  0  0  0  0  0  0
   25.9338    6.0349    3.2793 C   0  0  0  0  0  0  0  0  0  0  0  0
   26.2235    7.3703    2.9285 C   0  0  0  0  0  0  0  0  0  0  0  0
   26.9999    4.9792    3.1457 C   0  0  0  0  0  0  0  0  0  0  0  0
   27.5237    4.6025    4.3429 F   0  0  0  0  0  0  0  0  0  0  0  0
   26.5518    3.8518    2.5362 F   0  0  0  0  0  0  0  0  0  0  0  0
   28.0670    5.3958    2.4062 F   0  0  0  0  0  0  0  0  0  0  0  0
   24.2516    4.3841    4.0855 N   0  0  0  0  0  0  0  0  0  0  0  0
   24.6455    3.9388    5.1703 O   0  0  0  0  0  0  0  0  0  0  0  0
   23.5280    3.7904    3.2788 O   0  0  0  0  0  0  0  0  0  0  0  0
   24.8682   13.7592    1.1010 C   0  0  0  0  0  0  0  0  0  0  0  0
   24.6039   12.6038    1.8854 O   0  0  0  0  0  0  0  0  0  0  0  0
   26.0271   13.1645    3.8889 C   0  0  0  0  0  0  0  0  0  0  0  0
   24.8486   13.8276    4.3667 O   0  0  0  0  0  0  0  0  0  0  0  0
   24.5422   13.6796    5.6902 C   0  0  0  0  0  0  0  0  0  0  0  0
   25.5523   13.1080    6.4643 C   0  0  0  0  0  0  0  0  0  0  0  0
   25.3737   12.8935    7.8362 C   0  0  0  0  0  0  0  0  0  0  0  0
   24.1759   13.2482    8.4538 C   0  0  0  0  0  0  0  0  0  0  0  0
   23.1644   13.8240    7.6753 C   0  0  0  0  0  0  0  0  0  0  0  0
   23.3445   14.0402    6.3026 C   0  0  0  0  0  0  0  0  0  0  0  0
   23.9075   13.0630    9.8253 N   0  0  0  0  0  0  0  0  0  0  0  0
   23.3642   11.9454   10.4338 C   0  0  0  0  0  0  0  0  0  0  0  0
   23.2083   12.1322   11.9223 C   0  0  0  0  0  0  0  0  0  0  0  0
   23.0107   10.9053    9.8911 O   0  0  0  0  0  0  0  0  0  0  0  0
   24.1327   13.8157   10.4186 H   0  0  0  0  0  0  0  0  0  0  0  0
 20 21  1  0
 21  1  1  0
  1  2  1  0
  1 22  1  0
 22 23  1  0
 23 24  1  0
 24 25  2  0
 25 26  1  0
 26 27  2  0
 27 30  1  0
 30 31  1  0
 31 32  1  0
 31 33  2  0
 27 28  1  0
 28 29  2  0
  1  3  1  0
  3  4  2  0
  3  5  1  0
  5  7  1  0
  7  8  2  0
  8  9  1  0
  9 10  2  0
 10 17  1  0
 17 18  2  0
 17 19  1  0
 10 11  1  0
 11 13  1  0
 13 14  1  0
 13 15  1  0
 13 16  1  0
 11 12  2  0
 29 24  1  0
 12  7  1  0
 30 34  1  0
  5  6  1  0
M  CHG 1  17   1
M  CHG 1  19  -1
M  END
> <minimizedAffinity>
5.93740

> <CNNscore>
0.7989602685

> <CNNaffinity>
6.7626633644

> <CNN_VS>
5.4030995369

> <CNNaffinity_variance>
0.0680343062

$$$$



 34 35  0  0  0  0  0  0  0  0999 V2000
   29.0148    0.2509    3.0427 C   0  0  0  0  0  0  0  0  0  0  0  0
   28.9185   -1.0187    3.9008 C   0  0  0  0  0  0  0  0  0  0  0  0
   27.8757    1.2053    3.4985 C   0  0  0  0  0  0  0  0  0  0  0  0
   26.8581    0.8002    4.0530 O   0  0  0  0  0  0  0  0  0  0  0  0
   28.1329    2.5254    3.1539 N   0  0  0  0  0  0  0  0  0  0  0  0
   29.0052    2.6945    2.7299 H   0  0  0  0  0  0  0  0  0  0  0  0
   27.3121    3.6512    3.3306 C   0  0  0  0  0  0  0  0  0  0  0  0
   27.9525    4.8863    3.4858 C   0  0  0  0  0  0  0  0  0  0  0  0
   27.2097    6.0557    3.6548 C   0  0  0  0  0  0  0  0  0  0  0  0
   25.8108    5.9864    3.6685 C   0  0  0  0  0  0  0  0  0  0  0  0
   25.1365    4.7646    3.5320 C   0  0  0  0  0  0  0  0  0  0  0  0
   25.9130    3.6009    3.3493 C   0  0  0  0  0  0  0  0  0  0  0  0
   23.6345    4.6612    3.5766 C   0  0  0  0  0  0  0  0  0  0  0  0
   23.1175    4.9949    4.7895 F   0  0  0  0  0  0  0  0  0  0  0  0
   23.0243    5.4493    2.6548 F   0  0  0  0  0  0  0  0  0  0  0  0
   23.1839    3.3975    3.3339 F   0  0  0  0  0  0  0  0  0  0  0  0
   25.0800    7.2389    3.8137 N   0  0  0  0  0  0  0  0  0  0  0  0
   24.2992    7.3267    4.7692 O   0  0  0  0  0  0  0  0  0  0  0  0
   25.3210    8.1292    2.9914 O   0  0  0  0  0  0  0  0  0  0  0  0
   28.7839   -1.4431    1.3048 C   0  0  0  0  0  0  0  0  0  0  0  0
   28.7016   -0.0707    1.6649 O   0  0  0  0  0  0  0  0  0  0  0  0
   30.3580    0.9926    3.2396 C   0  0  0  0  0  0  0  0  0  0  0  0
   31.1209    0.3846    4.2907 O   0  0  0  0  0  0  0  0  0  0  0  0
   30.6190    0.4740    5.5586 C   0  0  0  0  0  0  0  0  0  0  0  0
   31.4486   -0.0430    6.5540 C   0  0  0  0  0  0  0  0  0  0  0  0
   31.0592   -0.0213    7.8987 C   0  0  0  0  0  0  0  0  0  0  0  0
   29.8282    0.5189    8.2661 C   0  0  0  0  0  0  0  0  0  0  0  0
   28.9984    1.0395    7.2655 C   0  0  0  0  0  0  0  0  0  0  0  0
   29.3895    1.0192    5.9201 C   0  0  0  0  0  0  0  0  0  0  0  0
   29.3534    0.5764    9.5922 N   0  0  0  0  0  0  0  0  0  0  0  0
   28.4434    1.4735   10.1229 C   0  0  0  0  0  0  0  0  0  0  0  0
   28.1997    1.2293   11.5911 C   0  0  0  0  0  0  0  0  0  0  0  0
   27.8807    2.3910    9.5371 O   0  0  0  0  0  0  0  0  0  0  0  0
   29.7104   -0.0999   10.2123 H   0  0  0  0  0  0  0  0  0  0  0  0
 20 21  1  0
 21  1  1  0
  1  2  1  0
  1 22  1  0
 22 23  1  0
 23 24  1  0
 24 25  2  0
 25 26  1  0
 26 27  2  0
 27 30  1  0
 30 31  1  0
 31 32  1  0
 31 33  2  0
 27 28  1  0
 28 29  2  0
  1  3  1  0
  3  4  2  0
  3  5  1  0
  5  7  1  0
  7  8  2  0
  8  9  1  0
  9 10  2  0
 10 17  1  0
 17 18  2  0
 17 19  1  0
 10 11  1  0
 11 13  1  0
 13 14  1  0
 13 15  1  0
 13 16  1  0
 11 12  2  0
 29 24  1  0
 12  7  1  0
 30 34  1  0
  5  6  1  0
M  CHG 1  17   1
M  CHG 1  19  -1
M  END
> <minimizedAffinity>
-4.82292

> <CNNscore>
0.7073672414

> <CNNaffinity>
7.5610771179

> <CNN_VS>
5.3484582901

> <CNNaffinity_variance>
0.1168882772

$$$$



 34 35  0  0  0  0  0  0  0  0999 V2000
   25.6909   11.8494    2.7344 C   0  0  0  0  0  0  0  0  0  0  0  0
   26.9365   11.6054    1.8704 C   0  0  0  0  0  0  0  0  0  0  0  0
   25.2186   10.4673    3.2665 C   0  0  0  0  0  0  0  0  0  0  0  0
   24.3983   10.3548    4.1729 O   0  0  0  0  0  0  0  0  0  0  0  0
   25.8708    9.4159    2.6368 N   0  0  0  0  0  0  0  0  0  0  0  0
   26.4884    9.6680    1.9127 H   0  0  0  0  0  0  0  0  0  0  0  0
   25.7654    8.0398    2.8971 C   0  0  0  0  0  0  0  0  0  0  0  0
   26.9350    7.2796    2.7799 C   0  0  0  0  0  0  0  0  0  0  0  0
   26.9189    5.9072    3.0327 C   0  0  0  0  0  0  0  0  0  0  0  0
   25.7182    5.2904    3.4067 C   0  0  0  0  0  0  0  0  0  0  0  0
   24.5247    6.0179    3.5181 C   0  0  0  0  0  0  0  0  0  0  0  0
   24.5740    7.4058    3.2696 C   0  0  0  0  0  0  0  0  0  0  0  0
   23.2153    5.3708    3.8863 C   0  0  0  0  0  0  0  0  0  0  0  0
   22.2135    6.2720    4.0698 F   0  0  0  0  0  0  0  0  0  0  0  0
   22.7850    4.4836    2.9530 F   0  0  0  0  0  0  0  0  0  0  0  0
   23.2814    4.6704    5.0543 F   0  0  0  0  0  0  0  0  0  0  0  0
   25.7602    3.8620    3.6927 N   0  0  0  0  0  0  0  0  0  0  0  0
   25.8932    3.5295    4.8768 O   0  0  0  0  0  0  0  0  0  0  0  0
   25.6260    3.0926    2.7352 O   0  0  0  0  0  0  0  0  0  0  0  0
   24.8859   13.4361    1.0678 C   0  0  0  0  0  0  0  0  0  0  0  0
   24.6045   12.3167    1.8972 O   0  0  0  0  0  0  0  0  0  0  0  0
   25.9911   12.7475    3.9577 C   0  0  0  0  0  0  0  0  0  0  0  0
   24.8084   13.4427    4.3757 O   0  0  0  0  0  0  0  0  0  0  0  0
   24.4881   13.3878    5.7030 C   0  0  0  0  0  0  0  0  0  0  0  0
   25.4192   12.7245    6.5026 C   0  0  0  0  0  0  0  0  0  0  0  0
   25.2175   12.5893    7.8814 C   0  0  0  0  0  0  0  0  0  0  0  0
   24.0753   13.1170    8.4805 C   0  0  0  0  0  0  0  0  0  0  0  0
   23.1433   13.7846    7.6763 C   0  0  0  0  0  0  0  0  0  0  0  0
   23.3468   13.9212    6.2966 C   0  0  0  0  0  0  0  0  0  0  0  0
   23.7881   13.0223    9.8574 N   0  0  0  0  0  0  0  0  0  0  0  0
   23.0923   12.0172   10.5055 C   0  0  0  0  0  0  0  0  0  0  0  0
   22.9703   12.2783   11.9859 C   0  0  0  0  0  0  0  0  0  0  0  0
   22.5913   11.0194   10.0005 O   0  0  0  0  0  0  0  0  0  0  0  0
   24.1211   13.7560   10.4231 H   0  0  0  0  0  0  0  0  0  0  0  0
 20 21  1  0
 21  1  1  0
  1  2  1  0
  1 22  1  0
 22 23  1  0
 23 24  1  0
 24 25  2  0
 25 26  1  0
 26 27  2  0
 27 30  1  0
 30 31  1  0
 31 32  1  0
 31 33  2  0
 27 28  1  0
 28 29  2  0
  1  3  1  0
  3  4  2  0
  3  5  1  0
  5  7  1  0
  7  8  2  0
  8  9  1  0
  9 10  2  0
 10 17  1  0
 17 18  2  0
 17 19  1  0
 10 11  1  0
 11 13  1  0
 13 14  1  0
 13 15  1  0
 13 16  1  0
 11 12  2  0
 29 24  1  0
 12  7  1  0
 30 34  1  0
  5  6  1  0
M  CHG 1  17   1
M  CHG 1  19  -1
M  END
> <minimizedAffinity>
9.10387

> <CNNscore>
0.6464967728

> <CNNaffinity>
6.5988669395

> <CNN_VS>
4.2661461830

> <CNNaffinity_variance>
0.3440840244

$$$$



 34 35  0  0  0  0  0  0  0  0999 V2000
   29.7195    0.1502    4.0823 C   0  0  0  0  0  0  0  0  0  0  0  0
   29.6073   -1.3303    3.6914 C   0  0  0  0  0  0  0  0  0  0  0  0
   28.2735    0.6990    4.2376 C   0  0  0  0  0  0  0  0  0  0  0  0
   27.3277   -0.0155    4.5573 O   0  0  0  0  0  0  0  0  0  0  0  0
   28.1914    2.0483    3.9213 N   0  0  0  0  0  0  0  0  0  0  0  0
   29.0442    2.4888    3.7025 H   0  0  0  0  0  0  0  0  0  0  0  0
   27.0515    2.8673    3.8724 C   0  0  0  0  0  0  0  0  0  0  0  0
   25.8072    2.2281    3.9255 C   0  0  0  0  0  0  0  0  0  0  0  0
   24.6254    2.9698    3.8940 C   0  0  0  0  0  0  0  0  0  0  0  0
   24.6915    4.3663    3.8084 C   0  0  0  0  0  0  0  0  0  0  0  0
   25.9199    5.0385    3.7372 C   0  0  0  0  0  0  0  0  0  0  0  0
   27.0980    4.2638    3.7845 C   0  0  0  0  0  0  0  0  0  0  0  0
   26.0152    6.5365    3.6113 C   0  0  0  0  0  0  0  0  0  0  0  0
   25.6313    6.9897    2.3878 F   0  0  0  0  0  0  0  0  0  0  0  0
   25.2620    7.1917    4.5314 F   0  0  0  0  0  0  0  0  0  0  0  0
   27.2857    7.0016    3.7799 F   0  0  0  0  0  0  0  0  0  0  0  0
   23.4308    5.0976    3.8129 N   0  0  0  0  0  0  0  0  0  0  0  0
   23.4974    6.3328    3.8122 O   0  0  0  0  0  0  0  0  0  0  0  0
   22.3925    4.4284    3.7831 O   0  0  0  0  0  0  0  0  0  0  0  0
   30.3522    0.2285    1.7292 C   0  0  0  0  0  0  0  0  0  0  0  0
   30.2857    0.9008    2.9797 O   0  0  0  0  0  0  0  0  0  0  0  0
   30.4460    0.3477    5.4337 C   0  0  0  0  0  0  0  0  0  0  0  0
   29.8221    1.3914    6.1942 O   0  0  0  0  0  0  0  0  0  0  0  0
   29.6780    1.1845    7.5373 C   0  0  0  0  0  0  0  0  0  0  0  0
   30.4067    0.1087    8.0451 C   0  0  0  0  0  0  0  0  0  0  0  0
   30.3503   -0.2213    9.4045 C   0  0  0  0  0  0  0  0  0  0  0  0
   29.5589    0.5232   10.2771 C   0  0  0  0  0  0  0  0  0  0  0  0
   28.8302    1.6041    9.7655 C   0  0  0  0  0  0  0  0  0  0  0  0
   28.8886    1.9350    8.4052 C   0  0  0  0  0  0  0  0  0  0  0  0
   29.4375    0.2589   11.6565 N   0  0  0  0  0  0  0  0  0  0  0  0
   30.4542   -0.0145   12.5543 C   0  0  0  0  0  0  0  0  0  0  0  0
   29.9275   -0.2655   13.9451 C   0  0  0  0  0  0  0  0  0  0  0  0
   31.6543   -0.0810   12.3159 O   0  0  0  0  0  0  0  0  0  0  0  0
   28.5240    0.2701   12.0233 H   0  0  0  0  0  0  0  0  0  0  0  0
 20 21  1  0
 21  1  1  0
  1  2  1  0
  1 22  1  0
 22 23  1  0
 23 24  1  0
 24 25  2  0
 25 26  1  0
 26 27  2  0
 27 30  1  0
 30 31  1  0
 31 32  1  0
 31 33  2  0
 27 28  1  0
 28 29  2  0
  1  3  1  0
  3  4  2  0
  3  5  1  0
  5  7  1  0
  7  8  2  0
  8  9  1  0
  9 10  2  0
 10 17  1  0
 17 18  2  0
 17 19  1  0
 10 11  1  0
 11 13  1  0
 13 14  1  0
 13 15  1  0
 13 16  1  0
 11 12  2  0
 29 24  1  0
 12  7  1  0
 30 34  1  0
  5  6  1  0
M  CHG 1  17   1
M  CHG 1  19  -1
M  END
> <minimizedAffinity>
-9.92130

> <CNNscore>
0.6007252336

> <CNNaffinity>
7.8850646019

> <CNN_VS>
4.7367572784

> <CNNaffinity_variance>
0.0437916256

$$$$



 34 35  0  0  0  0  0  0  0  0999 V2000
   29.0234    0.2994    4.4391 C   0  0  0  0  0  0  0  0  0  0  0  0
   30.1607    0.7060    3.4911 C   0  0  0  0  0  0  0  0  0  0  0  0
   29.6300    0.1791    5.8652 C   0  0  0  0  0  0  0  0  0  0  0  0
   30.7191   -0.3466    6.0765 O   0  0  0  0  0  0  0  0  0  0  0  0
   28.7759    0.6792    6.8387 N   0  0  0  0  0  0  0  0  0  0  0  0
   27.9440    1.0890    6.5081 H   0  0  0  0  0  0  0  0  0  0  0  0
   28.9426    0.6773    8.2332 C   0  0  0  0  0  0  0  0  0  0  0  0
   27.8347    1.0447    9.0061 C   0  0  0  0  0  0  0  0  0  0  0  0
   27.9129    1.0577   10.3994 C   0  0  0  0  0  0  0  0  0  0  0  0
   29.1139    0.6989   11.0245 C   0  0  0  0  0  0  0  0  0  0  0  0
   30.2480    0.3411   10.2816 C   0  0  0  0  0  0  0  0  0  0  0  0
   30.1355    0.3240    8.8754 C   0  0  0  0  0  0  0  0  0  0  0  0
   31.5594   -0.0164   10.9307 C   0  0  0  0  0  0  0  0  0  0  0  0
   32.6357    0.3487   10.1838 F   0  0  0  0  0  0  0  0  0  0  0  0
   31.7142    0.5517   12.1540 F   0  0  0  0  0  0  0  0  0  0  0  0
   31.7031   -1.3577   11.1289 F   0  0  0  0  0  0  0  0  0  0  0  0
   29.1350    0.6954   12.4817 N   0  0  0  0  0  0  0  0  0  0  0  0
   30.0762    0.1080   13.0289 O   0  0  0  0  0  0  0  0  0  0  0  0
   28.2300    1.3077   13.0587 O   0  0  0  0  0  0  0  0  0  0  0  0
   28.9520   -1.5338    2.8336 C   0  0  0  0  0  0  0  0  0  0  0  0
   28.5750   -1.0390    4.1116 O   0  0  0  0  0  0  0  0  0  0  0  0
   27.8972    1.3585    4.4941 C   0  0  0  0  0  0  0  0  0  0  0  0
   28.4356    2.6769    4.3248 O   0  0  0  0  0  0  0  0  0  0  0  0
   29.3021    3.1251    5.2817 C   0  0  0  0  0  0  0  0  0  0  0  0
   30.6442    3.1271    4.9010 C   0  0  0  0  0  0  0  0  0  0  0  0
   31.6422    3.5573    5.7836 C   0  0  0  0  0  0  0  0  0  0  0  0
   31.3088    3.9915    7.0651 C   0  0  0  0  0  0  0  0  0  0  0  0
   29.9608    3.9910    7.4442 C   0  0  0  0  0  0  0  0  0  0  0  0
   28.9622    3.5620    6.5597 C   0  0  0  0  0  0  0  0  0  0  0  0
   32.2468    4.4348    8.0195 N   0  0  0  0  0  0  0  0  0  0  0  0
   33.5905    4.6983    7.8206 C   0  0  0  0  0  0  0  0  0  0  0  0
   34.2748    5.1355    9.0916 C   0  0  0  0  0  0  0  0  0  0  0  0
   34.2187    4.5918    6.7739 O   0  0  0  0  0  0  0  0  0  0  0  0
   31.9066    4.5729    8.9330 H   0  0  0  0  0  0  0  0  0  0  0  0
 20 21  1  0
 21  1  1  0
  1  2  1  0
  1 22  1  0
 22 23  1  0
 23 24  1  0
 24 25  2  0
 25 26  1  0
 26 27  2  0
 27 30  1  0
 30 31  1  0
 31 32  1  0
 31 33  2  0
 27 28  1  0
 28 29  2  0
  1  3  1  0
  3  4  2  0
  3  5  1  0
  5  7  1  0
  7  8  2  0
  8  9  1  0
  9 10  2  0
 10 17  1  0
 17 18  2  0
 17 19  1  0
 10 11  1  0
 11 13  1  0
 13 14  1  0
 13 15  1  0
 13 16  1  0
 11 12  2  0
 29 24  1  0
 12  7  1  0
 30 34  1  0
  5  6  1  0
M  CHG 1  17   1
M  CHG 1  19  -1
M  END
> <minimizedAffinity>
20.91699

> <CNNscore>
0.5436731577

> <CNNaffinity>
6.7324275970

> <CNN_VS>
3.6602401733

> <CNNaffinity_variance>
0.2737334669

$$$$



 34 35  0  0  0  0  0  0  0  0999 V2000
   29.9230    0.5336    4.6743 C   0  0  0  0  0  0  0  0  0  0  0  0
   30.9020    1.6068    4.1769 C   0  0  0  0  0  0  0  0  0  0  0  0
   29.3952    0.9955    6.0615 C   0  0  0  0  0  0  0  0  0  0  0  0
   28.7464    2.0270    6.2102 O   0  0  0  0  0  0  0  0  0  0  0  0
   29.7925    0.1410    7.0810 N   0  0  0  0  0  0  0  0  0  0  0  0
   30.2932   -0.6581    6.7984 H   0  0  0  0  0  0  0  0  0  0  0  0
   29.5740    0.2670    8.4626 C   0  0  0  0  0  0  0  0  0  0  0  0
   28.2819    0.6170    8.8722 C   0  0  0  0  0  0  0  0  0  0  0  0
   27.9779    0.7513   10.2276 C   0  0  0  0  0  0  0  0  0  0  0  0
   28.9792    0.5326   11.1823 C   0  0  0  0  0  0  0  0  0  0  0  0
   30.2879    0.1966   10.8075 C   0  0  0  0  0  0  0  0  0  0  0  0
   30.5626    0.0547    9.4310 C   0  0  0  0  0  0  0  0  0  0  0  0
   31.3888   -0.0109   11.8144 C   0  0  0  0  0  0  0  0  0  0  0  0
   32.6177    0.3083   11.3272 F   0  0  0  0  0  0  0  0  0  0  0  0
   31.2104    0.7153   12.9476 F   0  0  0  0  0  0  0  0  0  0  0  0
   31.4944   -1.3074   12.2231 F   0  0  0  0  0  0  0  0  0  0  0  0
   28.6037    0.6517   12.5855 N   0  0  0  0  0  0  0  0  0  0  0  0
   27.7591    1.5094   12.8705 O   0  0  0  0  0  0  0  0  0  0  0  0
   29.1323   -0.1354   13.3778 O   0  0  0  0  0  0  0  0  0  0  0  0
   30.8366   -1.5645    3.8337 C   0  0  0  0  0  0  0  0  0  0  0  0
   30.6447   -0.6943    4.9409 O   0  0  0  0  0  0  0  0  0  0  0  0
   28.7034    0.3709    3.7366 C   0  0  0  0  0  0  0  0  0  0  0  0
   28.6391    1.4547    2.7995 O   0  0  0  0  0  0  0  0  0  0  0  0
   27.8200    2.5028    3.1123 C   0  0  0  0  0  0  0  0  0  0  0  0
   26.4753    2.1671    3.2718 C   0  0  0  0  0  0  0  0  0  0  0  0
   25.5226    3.1426    3.5895 C   0  0  0  0  0  0  0  0  0  0  0  0
   25.9046    4.4730    3.7507 C   0  0  0  0  0  0  0  0  0  0  0  0
   27.2553    4.8072    3.5926 C   0  0  0  0  0  0  0  0  0  0  0  0
   28.2085    3.8300    3.2765 C   0  0  0  0  0  0  0  0  0  0  0  0
   25.0138    5.5198    4.0638 N   0  0  0  0  0  0  0  0  0  0  0  0
   24.9627    6.7805    3.4959 C   0  0  0  0  0  0  0  0  0  0  0  0
   23.8815    7.6337    4.1106 C   0  0  0  0  0  0  0  0  0  0  0  0
   25.6874    7.2247    2.6133 O   0  0  0  0  0  0  0  0  0  0  0  0
   24.3516    5.3322    4.7678 H   0  0  0  0  0  0  0  0  0  0  0  0
 20 21  1  0
 21  1  1  0
  1  2  1  0
  1 22  1  0
 22 23  1  0
 23 24  1  0
 24 25  2  0
 25 26  1  0
 26 27  2  0
 27 30  1  0
 30 31  1  0
 31 32  1  0
 31 33  2  0
 27 28  1  0
 28 29  2  0
  1  3  1  0
  3  4  2  0
  3  5  1  0
  5  7  1  0
  7  8  2  0
  8  9  1  0
  9 10  2  0
 10 17  1  0
 17 18  2  0
 17 19  1  0
 10 11  1  0
 11 13  1  0
 13 14  1  0
 13 15  1  0
 13 16  1  0
 11 12  2  0
 29 24  1  0
 12  7  1  0
 30 34  1  0
  5  6  1  0
M  CHG 1  17   1
M  CHG 1  19  -1
M  END
> <minimizedAffinity>
-6.69646

> <CNNscore>
0.5312117338

> <CNNaffinity>
7.6390800476

> <CNN_VS>
4.0579690933

> <CNNaffinity_variance>
0.3518304825

$$$$



 34 35  0  0  0  0  0  0  0  0999 V2000
   29.3018    1.0830    4.5593 C   0  0  0  0  0  0  0  0  0  0  0  0
   28.1639    0.0805    4.7995 C   0  0  0  0  0  0  0  0  0  0  0  0
   28.6730    2.3528    3.9201 C   0  0  0  0  0  0  0  0  0  0  0  0
   29.2377    2.9973    3.0411 O   0  0  0  0  0  0  0  0  0  0  0  0
   27.4539    2.6784    4.4990 N   0  0  0  0  0  0  0  0  0  0  0  0
   27.1224    2.0495    5.1801 H   0  0  0  0  0  0  0  0  0  0  0  0
   26.6314    3.7871    4.2407 C   0  0  0  0  0  0  0  0  0  0  0  0
   27.2665    5.0225    4.0670 C   0  0  0  0  0  0  0  0  0  0  0  0
   26.5229    6.1718    3.7953 C   0  0  0  0  0  0  0  0  0  0  0  0
   25.1286    6.0820    3.6968 C   0  0  0  0  0  0  0  0  0  0  0  0
   24.4581    4.8644    3.8809 C   0  0  0  0  0  0  0  0  0  0  0  0
   25.2366    3.7169    4.1410 C   0  0  0  0  0  0  0  0  0  0  0  0
   22.9578    4.7496    3.8125 C   0  0  0  0  0  0  0  0  0  0  0  0
   22.4733    4.8985    2.5504 F   0  0  0  0  0  0  0  0  0  0  0  0
   22.4986    3.5590    4.2759 F   0  0  0  0  0  0  0  0  0  0  0  0
   22.3203    5.7010    4.5523 F   0  0  0  0  0  0  0  0  0  0  0  0
   24.4000    7.3033    3.3780 N   0  0  0  0  0  0  0  0  0  0  0  0
   23.9311    7.9423    4.3278 O   0  0  0  0  0  0  0  0  0  0  0  0
   24.3354    7.6249    2.1867 O   0  0  0  0  0  0  0  0  0  0  0  0
   30.3308   -0.8508    3.4893 C   0  0  0  0  0  0  0  0  0  0  0  0
   30.1998    0.5632    3.5479 O   0  0  0  0  0  0  0  0  0  0  0  0
   29.9947    1.5115    5.8744 C   0  0  0  0  0  0  0  0  0  0  0  0
   30.5825    0.3781    6.5277 O   0  0  0  0  0  0  0  0  0  0  0  0
   30.3227    0.2213    7.8601 C   0  0  0  0  0  0  0  0  0  0  0  0
   29.7463    1.3312    8.4783 C   0  0  0  0  0  0  0  0  0  0  0  0
   29.4304    1.3122    9.8421 C   0  0  0  0  0  0  0  0  0  0  0  0
   29.6899    0.1779   10.6089 C   0  0  0  0  0  0  0  0  0  0  0  0
   30.2663   -0.9358    9.9855 C   0  0  0  0  0  0  0  0  0  0  0  0
   30.5805   -0.9168    8.6201 C   0  0  0  0  0  0  0  0  0  0  0  0
   29.4111    0.0731   11.9867 N   0  0  0  0  0  0  0  0  0  0  0  0
   28.3191    0.5833   12.6662 C   0  0  0  0  0  0  0  0  0  0  0  0
   28.3819    0.2834   14.1430 C   0  0  0  0  0  0  0  0  0  0  0  0
   27.3886    1.2267   12.1952 O   0  0  0  0  0  0  0  0  0  0  0  0
   30.0692   -0.4199   12.5280 H   0  0  0  0  0  0  0  0  0  0  0  0
 20 21  1  0
 21  1  1  0
  1  2  1  0
  1 22  1  0
 22 23  1  0
 23 24  1  0
 24 25  2  0
 25 26  1  0
 26 27  2  0
 27 30  1  0
 30 31  1  0
 31 32  1  0
 31 33  2  0
 27 28  1  0
 28 29  2  0
  1  3  1  0
  3  4  2  0
  3  5  1  0
  5  7  1  0
  7  8  2  0
  8  9  1  0
  9 10  2  0
 10 17  1  0
 17 18  2  0
 17 19  1  0
 10 11  1  0
 11 13  1  0
 13 14  1  0
 13 15  1  0
 13 16  1  0
 11 12  2  0
 29 24  1  0
 12  7  1  0
 30 34  1  0
  5  6  1  0
M  CHG 1  17   1
M  CHG 1  19  -1
M  END
> <minimizedAffinity>
-5.97411

> <CNNscore>
0.5138829350

> <CNNaffinity>
7.4987092018

> <CNN_VS>
3.8534586430

> <CNNaffinity_variance>
0.0222861972

$$$$



 34 35  0  0  0  0  0  0  0  0999 V2000
   30.9338    1.0002    5.6960 C   0  0  0  0  0  0  0  0  0  0  0  0
   31.3274    0.6092    7.1277 C   0  0  0  0  0  0  0  0  0  0  0  0
   29.9268    2.1799    5.7985 C   0  0  0  0  0  0  0  0  0  0  0  0
   29.7895    2.8428    6.8226 O   0  0  0  0  0  0  0  0  0  0  0  0
   29.1901    2.3389    4.6326 N   0  0  0  0  0  0  0  0  0  0  0  0
   29.4321    1.7409    3.8889 H   0  0  0  0  0  0  0  0  0  0  0  0
   28.1448    3.2408    4.3747 C   0  0  0  0  0  0  0  0  0  0  0  0
   28.5050    4.5484    4.0279 C   0  0  0  0  0  0  0  0  0  0  0  0
   27.5275    5.5034    3.7446 C   0  0  0  0  0  0  0  0  0  0  0  0
   26.1753    5.1441    3.8096 C   0  0  0  0  0  0  0  0  0  0  0  0
   25.7780    3.8484    4.1690 C   0  0  0  0  0  0  0  0  0  0  0  0
   26.7881    2.9006    4.4369 C   0  0  0  0  0  0  0  0  0  0  0  0
   24.3300    3.4480    4.2776 C   0  0  0  0  0  0  0  0  0  0  0  0
   24.0518    2.2882    3.6242 F   0  0  0  0  0  0  0  0  0  0  0  0
   23.9227    3.2869    5.5627 F   0  0  0  0  0  0  0  0  0  0  0  0
   23.4840    4.3713    3.7383 F   0  0  0  0  0  0  0  0  0  0  0  0
   25.1939    6.1673    3.4719 N   0  0  0  0  0  0  0  0  0  0  0  0
   24.4130    6.5142    4.3664 O   0  0  0  0  0  0  0  0  0  0  0  0
   25.2388    6.6340    2.3286 O   0  0  0  0  0  0  0  0  0  0  0  0
   30.9444   -1.1187    4.4905 C   0  0  0  0  0  0  0  0  0  0  0  0
   30.1817   -0.0791    5.0884 O   0  0  0  0  0  0  0  0  0  0  0  0
   32.1452    1.4858    4.8655 C   0  0  0  0  0  0  0  0  0  0  0  0
   33.2781    1.7181    5.7136 O   0  0  0  0  0  0  0  0  0  0  0  0
   34.2645    2.5304    5.2294 C   0  0  0  0  0  0  0  0  0  0  0  0
   35.1064    1.9330    4.2909 C   0  0  0  0  0  0  0  0  0  0  0  0
   36.1633    2.6474    3.7141 C   0  0  0  0  0  0  0  0  0  0  0  0
   36.3936    3.9744    4.0718 C   0  0  0  0  0  0  0  0  0  0  0  0
   35.5458    4.5727    5.0122 C   0  0  0  0  0  0  0  0  0  0  0  0
   34.4870    3.8577    5.5877 C   0  0  0  0  0  0  0  0  0  0  0  0
   37.4358    4.7659    3.5477 N   0  0  0  0  0  0  0  0  0  0  0  0
   38.1061    4.5903    2.3501 C   0  0  0  0  0  0  0  0  0  0  0  0
   39.1774    5.6318    2.1442 C   0  0  0  0  0  0  0  0  0  0  0  0
   37.9200    3.7084    1.5199 O   0  0  0  0  0  0  0  0  0  0  0  0
   37.7194    5.5320    4.0971 H   0  0  0  0  0  0  0  0  0  0  0  0
 20 21  1  0
 21  1  1  0
  1  2  1  0
  1 22  1  0
 22 23  1  0
 23 24  1  0
 24 25  2  0
 25 26  1  0
 26 27  2  0
 27 30  1  0
 30 31  1  0
 31 32  1  0
 31 33  2  0
 27 28  1  0
 28 29  2  0
  1  3  1  0
  3  4  2  0
  3  5  1  0
  5  7  1  0
  7  8  2  0
  8  9  1  0
  9 10  2  0
 10 17  1  0
 17 18  2  0
 17 19  1  0
 10 11  1  0
 11 13  1  0
 13 14  1  0
 13 15  1  0
 13 16  1  0
 11 12  2  0
 29 24  1  0
 12  7  1  0
 30 34  1  0
  5  6  1  0
M  CHG 1  17   1
M  CHG 1  19  -1
M  END
> <minimizedAffinity>
47.66758

> <CNNscore>
0.4056991637

> <CNNaffinity>
6.8860664368

> <CNN_VS>
2.7936713696

> <CNNaffinity_variance>
0.5120787024

$$$$
