


 43 47  0  0  0  0  0  0  0  0999 V2000
  -51.0945  -12.3950  -24.4020 C   0  0  0  0  0  0  0  0  0  0  0  0
  -50.3931   -9.6754  -24.1217 O   0  0  0  0  0  0  0  0  0  0  0  0
  -49.9093  -10.5119  -23.3726 C   0  0  0  0  0  0  0  0  0  0  0  0
  -50.0781  -11.8701  -23.4952 N   0  0  0  0  0  0  0  0  0  0  0  0
  -49.5155  -12.4870  -22.9734 H   0  0  0  0  0  0  0  0  0  0  0  0
  -49.1566  -10.1111  -22.1648 C   0  0  0  0  0  0  0  0  0  0  0  0
  -48.6895  -11.0361  -21.3136 C   0  0  0  0  0  0  0  0  0  0  0  0
  -48.0741  -10.6786  -20.0307 C   0  0  0  0  0  0  0  0  0  0  0  0
  -46.6797  -10.4796  -20.0328 C   0  0  0  0  0  0  0  0  0  0  0  0
  -46.0089  -10.1363  -18.8631 C   0  0  0  0  0  0  0  0  0  0  0  0
  -44.3058   -9.9022  -18.8868 Cl  0  0  0  0  0  0  0  0  0  0  0  0
  -46.7100   -9.9845  -17.6734 C   0  0  0  0  0  0  0  0  0  0  0  0
  -48.0950  -10.1798  -17.6482 C   0  0  0  0  0  0  0  0  0  0  0  0
  -48.7974  -10.5312  -18.8197 C   0  0  0  0  0  0  0  0  0  0  0  0
  -50.2119  -10.7214  -18.7417 N   0  0  0  0  0  0  0  0  0  0  0  0
  -51.0473  -10.5824  -17.6544 C   0  0  0  0  0  0  0  0  0  0  0  0
  -52.2792  -10.8775  -17.9990 N   0  0  0  0  0  0  0  0  0  0  0  0
  -52.2250  -11.1965  -19.3265 N   0  0  0  0  0  0  0  0  0  0  0  0
  -50.9845  -11.1134  -19.7840 N   0  0  0  0  0  0  0  0  0  0  0  0
  -51.6612  -11.2099  -25.2247 C   0  0  0  0  0  0  0  0  0  0  0  0
  -51.0289  -10.7300  -26.1654 O   0  0  0  0  0  0  0  0  0  0  0  0
  -52.8753  -10.7487  -24.7420 N   0  0  0  0  0  0  0  0  0  0  0  0
  -53.2497  -11.2401  -23.9755 H   0  0  0  0  0  0  0  0  0  0  0  0
  -53.6393   -9.6645  -25.2123 C   0  0  0  0  0  0  0  0  0  0  0  0
  -54.6018   -8.9954  -24.4591 C   0  0  0  0  0  0  0  0  0  0  0  0
  -55.3094   -7.9174  -25.0095 C   0  0  0  0  0  0  0  0  0  0  0  0
  -55.0890   -7.5044  -26.3291 C   0  0  0  0  0  0  0  0  0  0  0  0
  -54.1208   -8.1774  -27.0822 C   0  0  0  0  0  0  0  0  0  0  0  0
  -53.4058   -9.2471  -26.5282 C   0  0  0  0  0  0  0  0  0  0  0  0
  -55.8428   -6.3817  -26.8693 C   0  0  0  0  0  0  0  0  0  0  0  0
  -56.6057   -5.5269  -26.2151 N   0  0  0  0  0  0  0  0  0  0  0  0
  -57.1006   -4.6489  -27.1501 N   0  0  0  0  0  0  0  0  0  0  0  0
  -56.6774   -4.9603  -28.3658 N   0  0  0  0  0  0  0  0  0  0  0  0
  -55.9035   -6.0384  -28.1950 N   0  0  0  0  0  0  0  0  0  0  0  0
  -55.4420   -6.5182  -28.9204 H   0  0  0  0  0  0  0  0  0  0  0  0
  -52.2188  -13.0752  -23.6043 C   0  0  0  0  0  0  0  0  0  0  0  0
  -51.8278  -14.4279  -23.0532 C   0  0  0  0  0  0  0  0  0  0  0  0
  -51.6955  -14.6186  -21.6705 C   0  0  0  0  0  0  0  0  0  0  0  0
  -51.2854  -15.8542  -21.1652 C   0  0  0  0  0  0  0  0  0  0  0  0
  -51.0113  -16.9042  -22.0396 C   0  0  0  0  0  0  0  0  0  0  0  0
  -50.4868  -18.4207  -21.4182 Cl  0  0  0  0  0  0  0  0  0  0  0  0
  -51.1506  -16.7315  -23.4147 C   0  0  0  0  0  0  0  0  0  0  0  0
  -51.5581  -15.4963  -23.9219 C   0  0  0  0  0  0  0  0  0  0  0  0
  2  3  2  0
  3  6  1  0
  6  7  2  0
  7  8  1  0
  8  9  2  0
  9 10  1  0
 10 11  1  0
 10 12  2  0
 12 13  1  0
 13 14  2  0
 14 15  1  0
 15 16  1  0
 16 17  2  0
 17 18  1  0
 18 19  2  0
  3  4  1  0
  4  1  1  0
  1 36  1  0
 36 37  1  0
 37 38  2  0
 38 39  1  0
 39 40  2  0
 40 41  1  0
 40 42  1  0
 42 43  2  0
  1 20  1  0
 20 21  2  0
 20 22  1  0
 22 24  1  0
 24 25  2  0
 25 26  1  0
 26 27  2  0
 27 30  1  0
 30 31  2  0
 31 32  1  0
 32 33  2  0
 33 34  1  0
 27 28  1  0
 28 29  2  0
 14  8  1  0
 19 15  1  0
 43 37  1  0
 29 24  1  0
 34 30  1  0
  4  5  1  0
 22 23  1  0
 34 35  1  0
M  END
> <minimizedAffinity>
-10.00555

> <CNNscore>
0.8143278956

> <CNNaffinity>
7.9884505272

> <CNN_VS>
6.5052180290

> <CNNaffinity_variance>
0.2193213701

$$$$



 43 47  0  0  0  0  0  0  0  0999 V2000
  -52.0455  -11.8180  -24.2294 C   0  0  0  0  0  0  0  0  0  0  0  0
  -49.5059  -12.6676  -23.3375 O   0  0  0  0  0  0  0  0  0  0  0  0
  -50.2053  -11.9701  -22.6167 C   0  0  0  0  0  0  0  0  0  0  0  0
  -51.5011  -11.6049  -22.8919 N   0  0  0  0  0  0  0  0  0  0  0  0
  -52.0603  -11.2009  -22.1895 H   0  0  0  0  0  0  0  0  0  0  0  0
  -49.6594  -11.3527  -21.3892 C   0  0  0  0  0  0  0  0  0  0  0  0
  -48.3417  -11.1399  -21.2604 C   0  0  0  0  0  0  0  0  0  0  0  0
  -47.7438  -10.6736  -20.0043 C   0  0  0  0  0  0  0  0  0  0  0  0
  -46.3412  -10.5480  -19.9809 C   0  0  0  0  0  0  0  0  0  0  0  0
  -45.6856  -10.1113  -18.8339 C   0  0  0  0  0  0  0  0  0  0  0  0
  -43.9723   -9.9692  -18.8252 Cl  0  0  0  0  0  0  0  0  0  0  0  0
  -46.4105   -9.7921  -17.6926 C   0  0  0  0  0  0  0  0  0  0  0  0
  -47.8043   -9.9119  -17.6931 C   0  0  0  0  0  0  0  0  0  0  0  0
  -48.4917  -10.3552  -18.8421 C   0  0  0  0  0  0  0  0  0  0  0  0
  -49.9161  -10.4625  -18.7919 N   0  0  0  0  0  0  0  0  0  0  0  0
  -50.6923  -11.5295  -18.3936 C   0  0  0  0  0  0  0  0  0  0  0  0
  -51.9634  -11.2289  -18.5253 N   0  0  0  0  0  0  0  0  0  0  0  0
  -51.9927   -9.9490  -19.0026 N   0  0  0  0  0  0  0  0  0  0  0  0
  -50.7662   -9.4786  -19.1744 N   0  0  0  0  0  0  0  0  0  0  0  0
  -52.4069  -10.4340  -24.8263 C   0  0  0  0  0  0  0  0  0  0  0  0
  -51.5348   -9.6010  -25.0720 O   0  0  0  0  0  0  0  0  0  0  0  0
  -53.7722  -10.2491  -24.9739 N   0  0  0  0  0  0  0  0  0  0  0  0
  -54.3405  -11.0141  -24.7269 H   0  0  0  0  0  0  0  0  0  0  0  0
  -54.4466   -9.1026  -25.4334 C   0  0  0  0  0  0  0  0  0  0  0  0
  -54.9698   -8.1129  -24.6040 C   0  0  0  0  0  0  0  0  0  0  0  0
  -55.6199   -6.9985  -25.1529 C   0  0  0  0  0  0  0  0  0  0  0  0
  -55.7831   -6.8642  -26.5371 C   0  0  0  0  0  0  0  0  0  0  0  0
  -55.2551   -7.8590  -27.3671 C   0  0  0  0  0  0  0  0  0  0  0  0
  -54.5957   -8.9667  -26.8189 C   0  0  0  0  0  0  0  0  0  0  0  0
  -56.4646   -5.6943  -27.0731 C   0  0  0  0  0  0  0  0  0  0  0  0
  -57.1157   -4.7591  -26.4083 N   0  0  0  0  0  0  0  0  0  0  0  0
  -57.5814   -3.8659  -27.3439 N   0  0  0  0  0  0  0  0  0  0  0  0
  -57.2509   -4.2450  -28.5691 N   0  0  0  0  0  0  0  0  0  0  0  0
  -56.5648   -5.3820  -28.4041 N   0  0  0  0  0  0  0  0  0  0  0  0
  -56.1851   -5.9192  -29.1365 H   0  0  0  0  0  0  0  0  0  0  0  0
  -53.2953  -12.7103  -24.1591 C   0  0  0  0  0  0  0  0  0  0  0  0
  -53.6877  -13.2971  -25.4962 C   0  0  0  0  0  0  0  0  0  0  0  0
  -52.7245  -13.9062  -26.3131 C   0  0  0  0  0  0  0  0  0  0  0  0
  -53.0777  -14.4029  -27.5696 C   0  0  0  0  0  0  0  0  0  0  0  0
  -54.3952  -14.2973  -28.0112 C   0  0  0  0  0  0  0  0  0  0  0  0
  -54.8264  -14.8913  -29.5675 Cl  0  0  0  0  0  0  0  0  0  0  0  0
  -55.3643  -13.7054  -27.2045 C   0  0  0  0  0  0  0  0  0  0  0  0
  -55.0126  -13.2060  -25.9491 C   0  0  0  0  0  0  0  0  0  0  0  0
  2  3  2  0
  3  6  1  0
  6  7  2  0
  7  8  1  0
  8  9  2  0
  9 10  1  0
 10 11  1  0
 10 12  2  0
 12 13  1  0
 13 14  2  0
 14 15  1  0
 15 16  1  0
 16 17  2  0
 17 18  1  0
 18 19  2  0
  3  4  1  0
  4  1  1  0
  1 36  1  0
 36 37  1  0
 37 38  2  0
 38 39  1  0
 39 40  2  0
 40 41  1  0
 40 42  1  0
 42 43  2  0
  1 20  1  0
 20 21  2  0
 20 22  1  0
 22 24  1  0
 24 25  2  0
 25 26  1  0
 26 27  2  0
 27 30  1  0
 30 31  2  0
 31 32  1  0
 32 33  2  0
 33 34  1  0
 27 28  1  0
 28 29  2  0
 14  8  1  0
 19 15  1  0
 43 37  1  0
 29 24  1  0
 34 30  1  0
  4  5  1  0
 22 23  1  0
 34 35  1  0
M  END
> <minimizedAffinity>
-9.00864

> <CNNscore>
0.8096434474

> <CNNaffinity>
7.8037934303

> <CNN_VS>
6.3182902336

> <CNNaffinity_variance>
0.0662012473

$$$$



 43 47  0  0  0  0  0  0  0  0999 V2000
  -52.1645  -11.3780  -23.6393 C   0  0  0  0  0  0  0  0  0  0  0  0
  -49.9577   -9.7013  -24.1729 O   0  0  0  0  0  0  0  0  0  0  0  0
  -50.0460  -10.2710  -23.0946 C   0  0  0  0  0  0  0  0  0  0  0  0
  -51.0028  -11.2035  -22.7730 N   0  0  0  0  0  0  0  0  0  0  0  0
  -50.9050  -11.7519  -21.9612 H   0  0  0  0  0  0  0  0  0  0  0  0
  -49.1575   -9.9150  -21.9678 C   0  0  0  0  0  0  0  0  0  0  0  0
  -48.7207  -10.8571  -21.1193 C   0  0  0  0  0  0  0  0  0  0  0  0
  -47.9665  -10.5269  -19.9049 C   0  0  0  0  0  0  0  0  0  0  0  0
  -46.5637  -10.4863  -20.0242 C   0  0  0  0  0  0  0  0  0  0  0  0
  -45.7655  -10.1804  -18.9263 C   0  0  0  0  0  0  0  0  0  0  0  0
  -44.0547  -10.1405  -19.0926 Cl  0  0  0  0  0  0  0  0  0  0  0  0
  -46.3457   -9.9096  -17.6934 C   0  0  0  0  0  0  0  0  0  0  0  0
  -47.7369   -9.9467  -17.5520 C   0  0  0  0  0  0  0  0  0  0  0  0
  -48.5674  -10.2572  -18.6489 C   0  0  0  0  0  0  0  0  0  0  0  0
  -49.9830  -10.2841  -18.4528 N   0  0  0  0  0  0  0  0  0  0  0  0
  -50.7330  -11.1237  -17.6579 C   0  0  0  0  0  0  0  0  0  0  0  0
  -52.0073  -10.8338  -17.7822 N   0  0  0  0  0  0  0  0  0  0  0  0
  -52.0642   -9.7878  -18.6595 N   0  0  0  0  0  0  0  0  0  0  0  0
  -50.8524   -9.4520  -19.0764 N   0  0  0  0  0  0  0  0  0  0  0  0
  -51.8999  -12.5994  -24.5562 C   0  0  0  0  0  0  0  0  0  0  0  0
  -51.5509  -12.4507  -25.7271 O   0  0  0  0  0  0  0  0  0  0  0  0
  -52.1597  -13.8093  -23.9328 N   0  0  0  0  0  0  0  0  0  0  0  0
  -52.4369  -13.7580  -22.9895 H   0  0  0  0  0  0  0  0  0  0  0  0
  -52.0761  -15.1023  -24.4817 C   0  0  0  0  0  0  0  0  0  0  0  0
  -51.3443  -16.1480  -23.9228 C   0  0  0  0  0  0  0  0  0  0  0  0
  -51.3264  -17.4084  -24.5367 C   0  0  0  0  0  0  0  0  0  0  0  0
  -52.0161  -17.6412  -25.7329 C   0  0  0  0  0  0  0  0  0  0  0  0
  -52.7511  -16.5895  -26.2906 C   0  0  0  0  0  0  0  0  0  0  0  0
  -52.7781  -15.3335  -25.6708 C   0  0  0  0  0  0  0  0  0  0  0  0
  -51.9748  -18.9623  -26.3441 C   0  0  0  0  0  0  0  0  0  0  0  0
  -52.1608  -20.1316  -25.7623 N   0  0  0  0  0  0  0  0  0  0  0  0
  -52.0265  -21.0836  -26.7450 N   0  0  0  0  0  0  0  0  0  0  0  0
  -51.7391  -20.5259  -27.9113 N   0  0  0  0  0  0  0  0  0  0  0  0
  -51.6993  -19.2115  -27.6637 N   0  0  0  0  0  0  0  0  0  0  0  0
  -51.5000  -18.5199  -28.3354 H   0  0  0  0  0  0  0  0  0  0  0  0
  -52.3909  -10.1154  -24.4864 C   0  0  0  0  0  0  0  0  0  0  0  0
  -53.8208   -9.6245  -24.4587 C   0  0  0  0  0  0  0  0  0  0  0  0
  -54.1395   -8.3429  -24.9296 C   0  0  0  0  0  0  0  0  0  0  0  0
  -55.4519   -7.8712  -24.8571 C   0  0  0  0  0  0  0  0  0  0  0  0
  -56.4506   -8.6806  -24.3189 C   0  0  0  0  0  0  0  0  0  0  0  0
  -58.0639   -8.0921  -24.2113 Cl  0  0  0  0  0  0  0  0  0  0  0  0
  -56.1496   -9.9605  -23.8588 C   0  0  0  0  0  0  0  0  0  0  0  0
  -54.8377  -10.4328  -23.9281 C   0  0  0  0  0  0  0  0  0  0  0  0
  2  3  2  0
  3  6  1  0
  6  7  2  0
  7  8  1  0
  8  9  2  0
  9 10  1  0
 10 11  1  0
 10 12  2  0
 12 13  1  0
 13 14  2  0
 14 15  1  0
 15 16  1  0
 16 17  2  0
 17 18  1  0
 18 19  2  0
  3  4  1  0
  4  1  1  0
  1 36  1  0
 36 37  1  0
 37 38  2  0
 38 39  1  0
 39 40  2  0
 40 41  1  0
 40 42  1  0
 42 43  2  0
  1 20  1  0
 20 21  2  0
 20 22  1  0
 22 24  1  0
 24 25  2  0
 25 26  1  0
 26 27  2  0
 27 30  1  0
 30 31  2  0
 31 32  1  0
 32 33  2  0
 33 34  1  0
 27 28  1  0
 28 29  2  0
 14  8  1  0
 19 15  1  0
 43 37  1  0
 29 24  1  0
 34 30  1  0
  4  5  1  0
 22 23  1  0
 34 35  1  0
M  END
> <minimizedAffinity>
-10.46774

> <CNNscore>
0.7581900954

> <CNNaffinity>
7.8064036369

> <CNN_VS>
5.9187378883

> <CNNaffinity_variance>
0.3282070160

$$$$



 43 47  0  0  0  0  0  0  0  0999 V2000
  -51.6579  -11.0001  -27.0088 C   0  0  0  0  0  0  0  0  0  0  0  0
  -50.5692   -9.7148  -24.7440 O   0  0  0  0  0  0  0  0  0  0  0  0
  -51.1180  -10.8010  -24.6257 C   0  0  0  0  0  0  0  0  0  0  0  0
  -51.5689  -11.5731  -25.6693 N   0  0  0  0  0  0  0  0  0  0  0  0
  -51.8308  -12.5093  -25.5140 H   0  0  0  0  0  0  0  0  0  0  0  0
  -51.4471  -11.3492  -23.2926 C   0  0  0  0  0  0  0  0  0  0  0  0
  -51.3634  -10.5785  -22.1984 C   0  0  0  0  0  0  0  0  0  0  0  0
  -51.5314  -11.1204  -20.8453 C   0  0  0  0  0  0  0  0  0  0  0  0
  -52.7937  -11.6623  -20.5344 C   0  0  0  0  0  0  0  0  0  0  0  0
  -53.0458  -12.2007  -19.2763 C   0  0  0  0  0  0  0  0  0  0  0  0
  -54.5951  -12.8532  -18.9160 Cl  0  0  0  0  0  0  0  0  0  0  0  0
  -52.0503  -12.2106  -18.3074 C   0  0  0  0  0  0  0  0  0  0  0  0
  -50.7900  -11.6755  -18.5942 C   0  0  0  0  0  0  0  0  0  0  0  0
  -50.5107  -11.1212  -19.8607 C   0  0  0  0  0  0  0  0  0  0  0  0
  -49.2081  -10.5854  -20.1040 N   0  0  0  0  0  0  0  0  0  0  0  0
  -48.2289  -11.0405  -20.9605 C   0  0  0  0  0  0  0  0  0  0  0  0
  -47.1645  -10.2780  -20.8649 N   0  0  0  0  0  0  0  0  0  0  0  0
  -47.4785   -9.3193  -19.9434 N   0  0  0  0  0  0  0  0  0  0  0  0
  -48.7038   -9.4976  -19.4722 N   0  0  0  0  0  0  0  0  0  0  0  0
  -53.0102  -10.2508  -27.1210 C   0  0  0  0  0  0  0  0  0  0  0  0
  -54.0207  -10.8220  -27.5303 O   0  0  0  0  0  0  0  0  0  0  0  0
  -52.9153   -8.9110  -26.7807 N   0  0  0  0  0  0  0  0  0  0  0  0
  -52.0308   -8.6048  -26.4754 H   0  0  0  0  0  0  0  0  0  0  0  0
  -53.9272   -7.9338  -26.8178 C   0  0  0  0  0  0  0  0  0  0  0  0
  -54.7890   -7.6539  -25.7593 C   0  0  0  0  0  0  0  0  0  0  0  0
  -55.7639   -6.6540  -25.8842 C   0  0  0  0  0  0  0  0  0  0  0  0
  -55.9143   -5.9339  -27.0757 C   0  0  0  0  0  0  0  0  0  0  0  0
  -55.0464   -6.2165  -28.1360 C   0  0  0  0  0  0  0  0  0  0  0  0
  -54.0650   -7.2077  -28.0069 C   0  0  0  0  0  0  0  0  0  0  0  0
  -56.9384   -4.9030  -27.1713 C   0  0  0  0  0  0  0  0  0  0  0  0
  -57.4893   -4.2133  -26.1908 N   0  0  0  0  0  0  0  0  0  0  0  0
  -58.3969   -3.3609  -26.7737 N   0  0  0  0  0  0  0  0  0  0  0  0
  -58.4320   -3.5291  -28.0869 N   0  0  0  0  0  0  0  0  0  0  0  0
  -57.5339   -4.4897  -28.3348 N   0  0  0  0  0  0  0  0  0  0  0  0
  -57.3295   -4.8494  -29.2281 H   0  0  0  0  0  0  0  0  0  0  0  0
  -51.5748  -12.1102  -28.0689 C   0  0  0  0  0  0  0  0  0  0  0  0
  -52.4896  -13.2798  -27.7837 C   0  0  0  0  0  0  0  0  0  0  0  0
  -52.4803  -13.8963  -26.5244 C   0  0  0  0  0  0  0  0  0  0  0  0
  -53.2887  -15.0080  -26.2775 C   0  0  0  0  0  0  0  0  0  0  0  0
  -54.1125  -15.5036  -27.2864 C   0  0  0  0  0  0  0  0  0  0  0  0
  -55.0938  -16.8853  -26.9886 Cl  0  0  0  0  0  0  0  0  0  0  0  0
  -54.1402  -14.8929  -28.5381 C   0  0  0  0  0  0  0  0  0  0  0  0
  -53.3310  -13.7831  -28.7875 C   0  0  0  0  0  0  0  0  0  0  0  0
  2  3  2  0
  3  6  1  0
  6  7  2  0
  7  8  1  0
  8  9  2  0
  9 10  1  0
 10 11  1  0
 10 12  2  0
 12 13  1  0
 13 14  2  0
 14 15  1  0
 15 16  1  0
 16 17  2  0
 17 18  1  0
 18 19  2  0
  3  4  1  0
  4  1  1  0
  1 36  1  0
 36 37  1  0
 37 38  2  0
 38 39  1  0
 39 40  2  0
 40 41  1  0
 40 42  1  0
 42 43  2  0
  1 20  1  0
 20 21  2  0
 20 22  1  0
 22 24  1  0
 24 25  2  0
 25 26  1  0
 26 27  2  0
 27 30  1  0
 30 31  2  0
 31 32  1  0
 32 33  2  0
 33 34  1  0
 27 28  1  0
 28 29  2  0
 14  8  1  0
 19 15  1  0
 43 37  1  0
 29 24  1  0
 34 30  1  0
  4  5  1  0
 22 23  1  0
 34 35  1  0
M  END
> <minimizedAffinity>
-9.08623

> <CNNscore>
0.3865929246

> <CNNaffinity>
7.2197470665

> <CNN_VS>
2.7911031246

> <CNNaffinity_variance>
0.2530690730

$$$$



 43 47  0  0  0  0  0  0  0  0999 V2000
  -52.2421  -10.9700  -25.0307 C   0  0  0  0  0  0  0  0  0  0  0  0
  -51.4938   -9.1321  -27.0379 O   0  0  0  0  0  0  0  0  0  0  0  0
  -52.6128   -9.0801  -26.5476 C   0  0  0  0  0  0  0  0  0  0  0  0
  -53.0418   -9.8358  -25.4830 N   0  0  0  0  0  0  0  0  0  0  0  0
  -53.8854   -9.6129  -25.0271 H   0  0  0  0  0  0  0  0  0  0  0  0
  -53.6712   -8.2402  -27.1479 C   0  0  0  0  0  0  0  0  0  0  0  0
  -54.6196   -7.6851  -26.3793 C   0  0  0  0  0  0  0  0  0  0  0  0
  -55.7706   -6.9749  -26.9481 C   0  0  0  0  0  0  0  0  0  0  0  0
  -55.5007   -6.0689  -27.9921 C   0  0  0  0  0  0  0  0  0  0  0  0
  -56.5295   -5.3510  -28.5941 C   0  0  0  0  0  0  0  0  0  0  0  0
  -56.1775   -4.2467  -29.8640 Cl  0  0  0  0  0  0  0  0  0  0  0  0
  -57.8417   -5.5207  -28.1707 C   0  0  0  0  0  0  0  0  0  0  0  0
  -58.1320   -6.4137  -27.1338 C   0  0  0  0  0  0  0  0  0  0  0  0
  -57.1066   -7.1506  -26.5055 C   0  0  0  0  0  0  0  0  0  0  0  0
  -57.4542   -8.0491  -25.4497 N   0  0  0  0  0  0  0  0  0  0  0  0
  -57.8352   -9.3714  -25.5259 C   0  0  0  0  0  0  0  0  0  0  0  0
  -58.0959   -9.8295  -24.3236 N   0  0  0  0  0  0  0  0  0  0  0  0
  -57.8652   -8.7857  -23.4726 N   0  0  0  0  0  0  0  0  0  0  0  0
  -57.4853   -7.7056  -24.1390 N   0  0  0  0  0  0  0  0  0  0  0  0
  -51.1626  -10.4368  -24.0544 C   0  0  0  0  0  0  0  0  0  0  0  0
  -50.2876   -9.6606  -24.4375 O   0  0  0  0  0  0  0  0  0  0  0  0
  -51.2718  -10.9747  -22.7821 N   0  0  0  0  0  0  0  0  0  0  0  0
  -52.0281  -11.5878  -22.6363 H   0  0  0  0  0  0  0  0  0  0  0  0
  -50.4350  -10.7525  -21.6728 C   0  0  0  0  0  0  0  0  0  0  0  0
  -50.8509  -10.1667  -20.4790 C   0  0  0  0  0  0  0  0  0  0  0  0
  -49.9467   -9.9931  -19.4217 C   0  0  0  0  0  0  0  0  0  0  0  0
  -48.6055  -10.3762  -19.5453 C   0  0  0  0  0  0  0  0  0  0  0  0
  -48.1916  -10.9656  -20.7447 C   0  0  0  0  0  0  0  0  0  0  0  0
  -49.0981  -11.1493  -21.7969 C   0  0  0  0  0  0  0  0  0  0  0  0
  -47.6931  -10.1801  -18.4274 C   0  0  0  0  0  0  0  0  0  0  0  0
  -46.3742  -10.1574  -18.4510 N   0  0  0  0  0  0  0  0  0  0  0  0
  -45.9633   -9.9405  -17.1571 N   0  0  0  0  0  0  0  0  0  0  0  0
  -46.9997   -9.8533  -16.3372 N   0  0  0  0  0  0  0  0  0  0  0  0
  -48.0728  -10.0089  -17.1214 N   0  0  0  0  0  0  0  0  0  0  0  0
  -49.0049  -10.0015  -16.8045 H   0  0  0  0  0  0  0  0  0  0  0  0
  -51.5782  -11.6651  -26.2304 C   0  0  0  0  0  0  0  0  0  0  0  0
  -52.5544  -12.4336  -27.0922 C   0  0  0  0  0  0  0  0  0  0  0  0
  -53.7449  -12.9312  -26.5435 C   0  0  0  0  0  0  0  0  0  0  0  0
  -54.6220  -13.6840  -27.3272 C   0  0  0  0  0  0  0  0  0  0  0  0
  -54.3147  -13.9373  -28.6627 C   0  0  0  0  0  0  0  0  0  0  0  0
  -55.3857  -14.8816  -29.6231 Cl  0  0  0  0  0  0  0  0  0  0  0  0
  -53.1413  -13.4384  -29.2234 C   0  0  0  0  0  0  0  0  0  0  0  0
  -52.2620  -12.6878  -28.4408 C   0  0  0  0  0  0  0  0  0  0  0  0
  2  3  2  0
  3  6  1  0
  6  7  2  0
  7  8  1  0
  8  9  2  0
  9 10  1  0
 10 11  1  0
 10 12  2  0
 12 13  1  0
 13 14  2  0
 14 15  1  0
 15 16  1  0
 16 17  2  0
 17 18  1  0
 18 19  2  0
  3  4  1  0
  4  1  1  0
  1 36  1  0
 36 37  1  0
 37 38  2  0
 38 39  1  0
 39 40  2  0
 40 41  1  0
 40 42  1  0
 42 43  2  0
  1 20  1  0
 20 21  2  0
 20 22  1  0
 22 24  1  0
 24 25  2  0
 25 26  1  0
 26 27  2  0
 27 30  1  0
 30 31  2  0
 31 32  1  0
 32 33  2  0
 33 34  1  0
 27 28  1  0
 28 29  2  0
 14  8  1  0
 19 15  1  0
 43 37  1  0
 29 24  1  0
 34 30  1  0
  4  5  1  0
 22 23  1  0
 34 35  1  0
M  END
> <minimizedAffinity>
-9.19368

> <CNNscore>
0.3698717952

> <CNNaffinity>
7.0944252014

> <CNN_VS>
2.6240277290

> <CNNaffinity_variance>
1.2744611502

$$$$



 43 47  0  0  0  0  0  0  0  0999 V2000
  -52.3263  -11.3118  -25.1203 C   0  0  0  0  0  0  0  0  0  0  0  0
  -53.3582   -8.6864  -25.0275 O   0  0  0  0  0  0  0  0  0  0  0  0
  -54.0721   -9.6347  -24.7340 C   0  0  0  0  0  0  0  0  0  0  0  0
  -53.6456  -10.9361  -24.6214 N   0  0  0  0  0  0  0  0  0  0  0  0
  -54.2277  -11.6126  -24.2057 H   0  0  0  0  0  0  0  0  0  0  0  0
  -55.5321   -9.4691  -24.5690 C   0  0  0  0  0  0  0  0  0  0  0  0
  -56.1201   -8.2942  -24.8376 C   0  0  0  0  0  0  0  0  0  0  0  0
  -57.5351   -8.0423  -24.5425 C   0  0  0  0  0  0  0  0  0  0  0  0
  -58.0088   -8.4883  -23.2934 C   0  0  0  0  0  0  0  0  0  0  0  0
  -59.3364   -8.2922  -22.9253 C   0  0  0  0  0  0  0  0  0  0  0  0
  -59.8952   -8.8484  -21.3975 Cl  0  0  0  0  0  0  0  0  0  0  0  0
  -60.2144   -7.6506  -23.7898 C   0  0  0  0  0  0  0  0  0  0  0  0
  -59.7656   -7.2017  -25.0363 C   0  0  0  0  0  0  0  0  0  0  0  0
  -58.4257   -7.3912  -25.4338 C   0  0  0  0  0  0  0  0  0  0  0  0
  -58.0163   -6.9159  -26.7181 N   0  0  0  0  0  0  0  0  0  0  0  0
  -57.9898   -7.5849  -27.9228 C   0  0  0  0  0  0  0  0  0  0  0  0
  -57.5183   -6.7957  -28.8599 N   0  0  0  0  0  0  0  0  0  0  0  0
  -57.2535   -5.6060  -28.2422 N   0  0  0  0  0  0  0  0  0  0  0  0
  -57.5421   -5.6677  -26.9507 N   0  0  0  0  0  0  0  0  0  0  0  0
  -51.2630  -10.6952  -24.1760 C   0  0  0  0  0  0  0  0  0  0  0  0
  -50.4670   -9.8490  -24.5825 O   0  0  0  0  0  0  0  0  0  0  0  0
  -51.2868  -11.2441  -22.9040 N   0  0  0  0  0  0  0  0  0  0  0  0
  -51.9855  -11.9174  -22.7375 H   0  0  0  0  0  0  0  0  0  0  0  0
  -50.4354  -10.9578  -21.8207 C   0  0  0  0  0  0  0  0  0  0  0  0
  -50.8381  -10.3121  -20.6536 C   0  0  0  0  0  0  0  0  0  0  0  0
  -49.9198  -10.0765  -19.6207 C   0  0  0  0  0  0  0  0  0  0  0  0
  -48.5778  -10.4568  -19.7440 C   0  0  0  0  0  0  0  0  0  0  0  0
  -48.1771  -11.1062  -20.9166 C   0  0  0  0  0  0  0  0  0  0  0  0
  -49.0975  -11.3516  -21.9437 C   0  0  0  0  0  0  0  0  0  0  0  0
  -47.6506  -10.1954  -18.6519 C   0  0  0  0  0  0  0  0  0  0  0  0
  -46.3345  -10.1201  -18.7055 N   0  0  0  0  0  0  0  0  0  0  0  0
  -45.9053   -9.8537  -17.4269 N   0  0  0  0  0  0  0  0  0  0  0  0
  -46.9267   -9.7876  -16.5864 N   0  0  0  0  0  0  0  0  0  0  0  0
  -48.0090  -10.0064  -17.3424 N   0  0  0  0  0  0  0  0  0  0  0  0
  -48.9336  -10.0285  -17.0051 H   0  0  0  0  0  0  0  0  0  0  0  0
  -52.1315  -10.7913  -26.5536 C   0  0  0  0  0  0  0  0  0  0  0  0
  -52.7525  -11.6841  -27.6041 C   0  0  0  0  0  0  0  0  0  0  0  0
  -54.0601  -11.4482  -28.0518 C   0  0  0  0  0  0  0  0  0  0  0  0
  -54.6510  -12.3030  -28.9848 C   0  0  0  0  0  0  0  0  0  0  0  0
  -53.9352  -13.3927  -29.4771 C   0  0  0  0  0  0  0  0  0  0  0  0
  -54.6701  -14.4573  -30.6117 Cl  0  0  0  0  0  0  0  0  0  0  0  0
  -52.6311  -13.6312  -29.0498 C   0  0  0  0  0  0  0  0  0  0  0  0
  -52.0396  -12.7793  -28.1152 C   0  0  0  0  0  0  0  0  0  0  0  0
  2  3  2  0
  3  6  1  0
  6  7  2  0
  7  8  1  0
  8  9  2  0
  9 10  1  0
 10 11  1  0
 10 12  2  0
 12 13  1  0
 13 14  2  0
 14 15  1  0
 15 16  1  0
 16 17  2  0
 17 18  1  0
 18 19  2  0
  3  4  1  0
  4  1  1  0
  1 36  1  0
 36 37  1  0
 37 38  2  0
 38 39  1  0
 39 40  2  0
 40 41  1  0
 40 42  1  0
 42 43  2  0
  1 20  1  0
 20 21  2  0
 20 22  1  0
 22 24  1  0
 24 25  2  0
 25 26  1  0
 26 27  2  0
 27 30  1  0
 30 31  2  0
 31 32  1  0
 32 33  2  0
 33 34  1  0
 27 28  1  0
 28 29  2  0
 14  8  1  0
 19 15  1  0
 43 37  1  0
 29 24  1  0
 34 30  1  0
  4  5  1  0
 22 23  1  0
 34 35  1  0
M  END
> <minimizedAffinity>
-8.99787

> <CNNscore>
0.3583940566

> <CNNaffinity>
6.7175059319

> <CNN_VS>
2.4075140953

> <CNNaffinity_variance>
1.1883351803

$$$$



 43 47  0  0  0  0  0  0  0  0999 V2000
  -51.6050  -12.6137  -25.7540 C   0  0  0  0  0  0  0  0  0  0  0  0
  -52.5604  -11.8046  -23.2244 O   0  0  0  0  0  0  0  0  0  0  0  0
  -51.3658  -11.7384  -23.4766 C   0  0  0  0  0  0  0  0  0  0  0  0
  -50.8063  -11.9830  -24.7076 N   0  0  0  0  0  0  0  0  0  0  0  0
  -49.8702  -11.7338  -24.8832 H   0  0  0  0  0  0  0  0  0  0  0  0
  -50.3737  -11.4788  -22.4115 C   0  0  0  0  0  0  0  0  0  0  0  0
  -50.7408  -11.4825  -21.1217 C   0  0  0  0  0  0  0  0  0  0  0  0
  -49.8262  -11.0805  -20.0472 C   0  0  0  0  0  0  0  0  0  0  0  0
  -48.4934  -10.8161  -20.4182 C   0  0  0  0  0  0  0  0  0  0  0  0
  -47.5547  -10.4270  -19.4676 C   0  0  0  0  0  0  0  0  0  0  0  0
  -45.9320  -10.1134  -19.9411 Cl  0  0  0  0  0  0  0  0  0  0  0  0
  -47.9229  -10.2937  -18.1347 C   0  0  0  0  0  0  0  0  0  0  0  0
  -49.2407  -10.5536  -17.7439 C   0  0  0  0  0  0  0  0  0  0  0  0
  -50.2099  -10.9523  -18.6878 C   0  0  0  0  0  0  0  0  0  0  0  0
  -51.5424  -11.2078  -18.2384 N   0  0  0  0  0  0  0  0  0  0  0  0
  -52.4671  -10.3270  -17.7202 C   0  0  0  0  0  0  0  0  0  0  0  0
  -53.5661  -10.9710  -17.4026 N   0  0  0  0  0  0  0  0  0  0  0  0
  -53.3383  -12.2765  -17.7354 N   0  0  0  0  0  0  0  0  0  0  0  0
  -52.1206  -12.4336  -18.2329 N   0  0  0  0  0  0  0  0  0  0  0  0
  -52.2382  -11.4918  -26.6159 C   0  0  0  0  0  0  0  0  0  0  0  0
  -51.7977  -11.2245  -27.7337 O   0  0  0  0  0  0  0  0  0  0  0  0
  -53.2648  -10.8257  -25.9662 N   0  0  0  0  0  0  0  0  0  0  0  0
  -53.4960  -11.1592  -25.0693 H   0  0  0  0  0  0  0  0  0  0  0  0
  -54.0177   -9.7311  -26.4303 C   0  0  0  0  0  0  0  0  0  0  0  0
  -55.3114   -9.8258  -26.9390 C   0  0  0  0  0  0  0  0  0  0  0  0
  -55.9893   -8.6770  -27.3709 C   0  0  0  0  0  0  0  0  0  0  0  0
  -55.3796   -7.4172  -27.3280 C   0  0  0  0  0  0  0  0  0  0  0  0
  -54.0812   -7.3254  -26.8152 C   0  0  0  0  0  0  0  0  0  0  0  0
  -53.4084   -8.4719  -26.3732 C   0  0  0  0  0  0  0  0  0  0  0  0
  -56.1124   -6.2451  -27.7859 C   0  0  0  0  0  0  0  0  0  0  0  0
  -56.2102   -5.7790  -29.0163 N   0  0  0  0  0  0  0  0  0  0  0  0
  -57.0064   -4.6602  -28.9489 N   0  0  0  0  0  0  0  0  0  0  0  0
  -57.3794   -4.4163  -27.7018 N   0  0  0  0  0  0  0  0  0  0  0  0
  -56.8204   -5.3934  -26.9782 N   0  0  0  0  0  0  0  0  0  0  0  0
  -56.9057   -5.4874  -26.0019 H   0  0  0  0  0  0  0  0  0  0  0  0
  -52.7033  -13.4897  -25.1298 C   0  0  0  0  0  0  0  0  0  0  0  0
  -52.3153  -14.9468  -25.0180 C   0  0  0  0  0  0  0  0  0  0  0  0
  -52.6594  -15.8518  -26.0321 C   0  0  0  0  0  0  0  0  0  0  0  0
  -52.3450  -17.2065  -25.9047 C   0  0  0  0  0  0  0  0  0  0  0  0
  -51.6813  -17.6599  -24.7663 C   0  0  0  0  0  0  0  0  0  0  0  0
  -51.3116  -19.3322  -24.6003 Cl  0  0  0  0  0  0  0  0  0  0  0  0
  -51.3229  -16.7692  -23.7571 C   0  0  0  0  0  0  0  0  0  0  0  0
  -51.6386  -15.4150  -23.8815 C   0  0  0  0  0  0  0  0  0  0  0  0
  2  3  2  0
  3  6  1  0
  6  7  2  0
  7  8  1  0
  8  9  2  0
  9 10  1  0
 10 11  1  0
 10 12  2  0
 12 13  1  0
 13 14  2  0
 14 15  1  0
 15 16  1  0
 16 17  2  0
 17 18  1  0
 18 19  2  0
  3  4  1  0
  4  1  1  0
  1 36  1  0
 36 37  1  0
 37 38  2  0
 38 39  1  0
 39 40  2  0
 40 41  1  0
 40 42  1  0
 42 43  2  0
  1 20  1  0
 20 21  2  0
 20 22  1  0
 22 24  1  0
 24 25  2  0
 25 26  1  0
 26 27  2  0
 27 30  1  0
 30 31  2  0
 31 32  1  0
 32 33  2  0
 33 34  1  0
 27 28  1  0
 28 29  2  0
 14  8  1  0
 19 15  1  0
 43 37  1  0
 29 24  1  0
 34 30  1  0
  4  5  1  0
 22 23  1  0
 34 35  1  0
M  END
> <minimizedAffinity>
-8.40142

> <CNNscore>
0.3463792503

> <CNNaffinity>
7.4259324074

> <CNN_VS>
2.5721888542

> <CNNaffinity_variance>
0.0454076827

$$$$



 43 47  0  0  0  0  0  0  0  0999 V2000
  -52.3657  -10.3020  -25.1785 C   0  0  0  0  0  0  0  0  0  0  0  0
  -52.6882  -11.8660  -27.5058 O   0  0  0  0  0  0  0  0  0  0  0  0
  -52.5875  -12.4076  -26.4142 C   0  0  0  0  0  0  0  0  0  0  0  0
  -52.5542  -11.7492  -25.2086 N   0  0  0  0  0  0  0  0  0  0  0  0
  -52.6572  -12.2516  -24.3682 H   0  0  0  0  0  0  0  0  0  0  0  0
  -52.3821  -13.8676  -26.3023 C   0  0  0  0  0  0  0  0  0  0  0  0
  -52.4226  -14.4725  -25.1062 C   0  0  0  0  0  0  0  0  0  0  0  0
  -52.0739  -15.8871  -24.9331 C   0  0  0  0  0  0  0  0  0  0  0  0
  -52.4974  -16.7704  -25.9451 C   0  0  0  0  0  0  0  0  0  0  0  0
  -52.2112  -18.1299  -25.8675 C   0  0  0  0  0  0  0  0  0  0  0  0
  -52.7415  -19.1916  -27.1116 Cl  0  0  0  0  0  0  0  0  0  0  0  0
  -51.5004  -18.6346  -24.7859 C   0  0  0  0  0  0  0  0  0  0  0  0
  -51.0721  -17.7754  -23.7684 C   0  0  0  0  0  0  0  0  0  0  0  0
  -51.3523  -16.3941  -23.8223 C   0  0  0  0  0  0  0  0  0  0  0  0
  -50.8946  -15.5581  -22.7571 N   0  0  0  0  0  0  0  0  0  0  0  0
  -50.9856  -15.7585  -21.3966 C   0  0  0  0  0  0  0  0  0  0  0  0
  -50.4656  -14.7348  -20.7602 N   0  0  0  0  0  0  0  0  0  0  0  0
  -50.0283  -13.8794  -21.7317 N   0  0  0  0  0  0  0  0  0  0  0  0
  -50.2873  -14.3602  -22.9387 N   0  0  0  0  0  0  0  0  0  0  0  0
  -51.1694   -9.9936  -24.2423 C   0  0  0  0  0  0  0  0  0  0  0  0
  -50.1303   -9.5009  -24.6808 O   0  0  0  0  0  0  0  0  0  0  0  0
  -51.3927  -10.3877  -22.9327 N   0  0  0  0  0  0  0  0  0  0  0  0
  -52.2789  -10.7720  -22.7428 H   0  0  0  0  0  0  0  0  0  0  0  0
  -50.5088  -10.3062  -21.8408 C   0  0  0  0  0  0  0  0  0  0  0  0
  -50.9081  -10.2828  -20.5061 C   0  0  0  0  0  0  0  0  0  0  0  0
  -49.9536  -10.2090  -19.4817 C   0  0  0  0  0  0  0  0  0  0  0  0
  -48.5857  -10.1306  -19.7706 C   0  0  0  0  0  0  0  0  0  0  0  0
  -48.1881  -10.1560  -21.1117 C   0  0  0  0  0  0  0  0  0  0  0  0
  -49.1414  -10.2412  -22.1346 C   0  0  0  0  0  0  0  0  0  0  0  0
  -47.6216  -10.0538  -18.6819 C   0  0  0  0  0  0  0  0  0  0  0  0
  -46.3049  -10.0404  -18.7636 N   0  0  0  0  0  0  0  0  0  0  0  0
  -45.8336   -9.9559  -17.4749 N   0  0  0  0  0  0  0  0  0  0  0  0
  -46.8310   -9.9410  -16.6037 N   0  0  0  0  0  0  0  0  0  0  0  0
  -47.9401  -10.0090  -17.3493 N   0  0  0  0  0  0  0  0  0  0  0  0
  -48.8568  -10.0247  -16.9909 H   0  0  0  0  0  0  0  0  0  0  0  0
  -53.6378   -9.6104  -24.6623 C   0  0  0  0  0  0  0  0  0  0  0  0
  -54.1495   -8.5302  -25.5884 C   0  0  0  0  0  0  0  0  0  0  0  0
  -55.2133   -7.7054  -25.1960 C   0  0  0  0  0  0  0  0  0  0  0  0
  -55.7183   -6.7416  -26.0713 C   0  0  0  0  0  0  0  0  0  0  0  0
  -55.1585   -6.5954  -27.3390 C   0  0  0  0  0  0  0  0  0  0  0  0
  -55.7936   -5.4213  -28.4249 Cl  0  0  0  0  0  0  0  0  0  0  0  0
  -54.0932   -7.4001  -27.7368 C   0  0  0  0  0  0  0  0  0  0  0  0
  -53.5887   -8.3659  -26.8641 C   0  0  0  0  0  0  0  0  0  0  0  0
  2  3  2  0
  3  6  1  0
  6  7  2  0
  7  8  1  0
  8  9  2  0
  9 10  1  0
 10 11  1  0
 10 12  2  0
 12 13  1  0
 13 14  2  0
 14 15  1  0
 15 16  1  0
 16 17  2  0
 17 18  1  0
 18 19  2  0
  3  4  1  0
  4  1  1  0
  1 36  1  0
 36 37  1  0
 37 38  2  0
 38 39  1  0
 39 40  2  0
 40 41  1  0
 40 42  1  0
 42 43  2  0
  1 20  1  0
 20 21  2  0
 20 22  1  0
 22 24  1  0
 24 25  2  0
 25 26  1  0
 26 27  2  0
 27 30  1  0
 30 31  2  0
 31 32  1  0
 32 33  2  0
 33 34  1  0
 27 28  1  0
 28 29  2  0
 14  8  1  0
 19 15  1  0
 43 37  1  0
 29 24  1  0
 34 30  1  0
  4  5  1  0
 22 23  1  0
 34 35  1  0
M  END
> <minimizedAffinity>
-10.31457

> <CNNscore>
0.2810869217

> <CNNaffinity>
6.8898925781

> <CNN_VS>
1.9366587400

> <CNNaffinity_variance>
1.1353381872

$$$$



 43 47  0  0  0  0  0  0  0  0999 V2000
  -53.2780  -11.6876  -24.5455 C   0  0  0  0  0  0  0  0  0  0  0  0
  -55.7783  -11.2285  -23.3189 O   0  0  0  0  0  0  0  0  0  0  0  0
  -55.3843  -10.4809  -24.2026 C   0  0  0  0  0  0  0  0  0  0  0  0
  -54.2503  -10.6780  -24.9532 N   0  0  0  0  0  0  0  0  0  0  0  0
  -54.0941  -10.1404  -25.7630 H   0  0  0  0  0  0  0  0  0  0  0  0
  -56.0669   -9.1987  -24.4787 C   0  0  0  0  0  0  0  0  0  0  0  0
  -57.1071   -9.1477  -25.3235 C   0  0  0  0  0  0  0  0  0  0  0  0
  -57.7130   -7.8788  -25.7422 C   0  0  0  0  0  0  0  0  0  0  0  0
  -58.9889   -7.5863  -25.2222 C   0  0  0  0  0  0  0  0  0  0  0  0
  -59.6412   -6.4051  -25.5619 C   0  0  0  0  0  0  0  0  0  0  0  0
  -61.2002   -6.0695  -24.9194 Cl  0  0  0  0  0  0  0  0  0  0  0  0
  -59.0386   -5.4956  -26.4220 C   0  0  0  0  0  0  0  0  0  0  0  0
  -57.7728   -5.7672  -26.9518 C   0  0  0  0  0  0  0  0  0  0  0  0
  -57.0924   -6.9587  -26.6253 C   0  0  0  0  0  0  0  0  0  0  0  0
  -55.8018   -7.1909  -27.1940 N   0  0  0  0  0  0  0  0  0  0  0  0
  -54.6096   -6.5518  -26.9298 C   0  0  0  0  0  0  0  0  0  0  0  0
  -53.6607   -7.0481  -27.6892 N   0  0  0  0  0  0  0  0  0  0  0  0
  -54.2581   -8.0235  -28.4366 N   0  0  0  0  0  0  0  0  0  0  0  0
  -55.5490   -8.1145  -28.1531 N   0  0  0  0  0  0  0  0  0  0  0  0
  -52.1614  -10.9791  -23.7370 C   0  0  0  0  0  0  0  0  0  0  0  0
  -51.6496   -9.9352  -24.1411 O   0  0  0  0  0  0  0  0  0  0  0  0
  -51.7936  -11.6768  -22.5978 N   0  0  0  0  0  0  0  0  0  0  0  0
  -52.2989  -12.5017  -22.4150 H   0  0  0  0  0  0  0  0  0  0  0  0
  -50.7868  -11.3517  -21.6698 C   0  0  0  0  0  0  0  0  0  0  0  0
  -49.4325  -11.6242  -21.8514 C   0  0  0  0  0  0  0  0  0  0  0  0
  -48.4978  -11.2546  -20.8739 C   0  0  0  0  0  0  0  0  0  0  0  0
  -48.8997  -10.6307  -19.6865 C   0  0  0  0  0  0  0  0  0  0  0  0
  -50.2601  -10.3572  -19.5081 C   0  0  0  0  0  0  0  0  0  0  0  0
  -51.1925  -10.7163  -20.4900 C   0  0  0  0  0  0  0  0  0  0  0  0
  -47.9021  -10.2616  -18.6920 C   0  0  0  0  0  0  0  0  0  0  0  0
  -46.6100  -10.0653  -18.8728 N   0  0  0  0  0  0  0  0  0  0  0  0
  -46.0888   -9.7336  -17.6447 N   0  0  0  0  0  0  0  0  0  0  0  0
  -47.0277   -9.7453  -16.7107 N   0  0  0  0  0  0  0  0  0  0  0  0
  -48.1511  -10.0795  -17.3563 N   0  0  0  0  0  0  0  0  0  0  0  0
  -49.0334  -10.1804  -16.9314 H   0  0  0  0  0  0  0  0  0  0  0  0
  -52.6822  -12.3818  -25.7809 C   0  0  0  0  0  0  0  0  0  0  0  0
  -52.5942  -13.8846  -25.6386 C   0  0  0  0  0  0  0  0  0  0  0  0
  -52.1015  -14.4572  -24.4574 C   0  0  0  0  0  0  0  0  0  0  0  0
  -51.9733  -15.8433  -24.3457 C   0  0  0  0  0  0  0  0  0  0  0  0
  -52.3420  -16.6615  -25.4119 C   0  0  0  0  0  0  0  0  0  0  0  0
  -52.1655  -18.3682  -25.2818 Cl  0  0  0  0  0  0  0  0  0  0  0  0
  -52.8444  -16.1061  -26.5864 C   0  0  0  0  0  0  0  0  0  0  0  0
  -52.9709  -14.7205  -26.7008 C   0  0  0  0  0  0  0  0  0  0  0  0
  2  3  2  0
  3  6  1  0
  6  7  2  0
  7  8  1  0
  8  9  2  0
  9 10  1  0
 10 11  1  0
 10 12  2  0
 12 13  1  0
 13 14  2  0
 14 15  1  0
 15 16  1  0
 16 17  2  0
 17 18  1  0
 18 19  2  0
  3  4  1  0
  4  1  1  0
  1 36  1  0
 36 37  1  0
 37 38  2  0
 38 39  1  0
 39 40  2  0
 40 41  1  0
 40 42  1  0
 42 43  2  0
  1 20  1  0
 20 21  2  0
 20 22  1  0
 22 24  1  0
 24 25  2  0
 25 26  1  0
 26 27  2  0
 27 30  1  0
 30 31  2  0
 31 32  1  0
 32 33  2  0
 33 34  1  0
 27 28  1  0
 28 29  2  0
 14  8  1  0
 19 15  1  0
 43 37  1  0
 29 24  1  0
 34 30  1  0
  4  5  1  0
 22 23  1  0
 34 35  1  0
M  END
> <minimizedAffinity>
-8.23936

> <CNNscore>
0.2582187653

> <CNNaffinity>
6.8612136841

> <CNN_VS>
1.7716941833

> <CNNaffinity_variance>
0.5433149934

$$$$
