


 19 21  0  0  0  0  0  0  0  0999 V2000
   -0.8460   10.0707   -5.6601 C   0  0  0  0  0  0  0  0  0  0  0  0
   -0.3120   11.2333   -6.2415 C   0  0  0  0  0  0  0  0  0  0  0  0
   -0.8243   12.4514   -5.8441 C   0  0  0  0  0  0  0  0  0  0  0  0
   -1.8295   12.5494   -4.9104 C   0  0  0  0  0  0  0  0  0  0  0  0
   -2.3815   11.4350   -4.3220 C   0  0  0  0  0  0  0  0  0  0  0  0
   -1.8803   10.1897   -4.7061 C   0  0  0  0  0  0  0  0  0  0  0  0
   -2.4404    9.0997   -4.1588 F   0  0  0  0  0  0  0  0  0  0  0  0
   -2.1856   13.8385   -4.6656 O   0  0  0  0  0  0  0  0  0  0  0  0
   -1.2831   14.5432   -5.5435 C   0  0  0  0  0  0  0  0  0  0  0  0
   -0.4218   13.6675   -6.3012 O   0  0  0  0  0  0  0  0  0  0  0  0
    0.7788    6.5494   -8.5204 C   0  0  0  0  0  0  0  0  0  0  0  0
    0.3740    7.1895   -7.2927 N   0  0  0  0  0  0  0  0  0  0  0  0
   -0.1007    8.4490   -7.3339 N   0  0  0  0  0  0  0  0  0  0  0  0
   -0.3281    8.7650   -6.0508 C   0  0  0  0  0  0  0  0  0  0  0  0
   -0.0349    7.6631   -5.2009 C   0  0  0  0  0  0  0  0  0  0  0  0
    0.4037    6.6579   -6.0274 C   0  0  0  0  0  0  0  0  0  0  0  0
    0.8069    5.4024   -5.7407 N   0  0  0  0  0  0  0  0  0  0  0  0
    0.8030    5.0848   -4.8088 H   0  0  0  0  0  0  0  0  0  0  0  0
    1.1050    4.8040   -6.4634 H   0  0  0  0  0  0  0  0  0  0  0  0
 11 12  1  0
 12 13  1  0
 13 14  2  0
 14  1  1  0
  1  2  2  0
  2  3  1  0
  3  4  2  0
  4  5  1  0
  5  6  2  0
  6  7  1  0
  4  8  1  0
  8  9  1  0
  9 10  1  0
 14 15  1  0
 15 16  2  0
 16 17  1  0
 16 12  1  0
  6  1  1  0
 10  3  1  0
 17 18  1  0
 17 19  1  0
M  END
> <minimizedAffinity>
-8.15869

> <CNNscore>
0.9771901965

> <CNNaffinity>
4.3884520531

> <CNN_VS>
4.2883524895

> <CNNaffinity_variance>
1.3047443628

$$$$



 19 21  0  0  0  0  0  0  0  0999 V2000
   -0.6307   10.4945   -6.2672 C   0  0  0  0  0  0  0  0  0  0  0  0
   -0.3317   11.8083   -6.6665 C   0  0  0  0  0  0  0  0  0  0  0  0
   -0.8874   12.8470   -5.9475 C   0  0  0  0  0  0  0  0  0  0  0  0
   -1.7140   12.6272   -4.8705 C   0  0  0  0  0  0  0  0  0  0  0  0
   -2.0343   11.3565   -4.4516 C   0  0  0  0  0  0  0  0  0  0  0  0
   -1.4844   10.2874   -5.1617 C   0  0  0  0  0  0  0  0  0  0  0  0
   -1.8223    9.0470   -4.7762 F   0  0  0  0  0  0  0  0  0  0  0  0
   -2.1514   13.7852   -4.3081 O   0  0  0  0  0  0  0  0  0  0  0  0
   -1.4979   14.7607   -5.1467 C   0  0  0  0  0  0  0  0  0  0  0  0
   -0.7005   14.1711   -6.1952 O   0  0  0  0  0  0  0  0  0  0  0  0
    1.9224    8.1287   -9.5997 C   0  0  0  0  0  0  0  0  0  0  0  0
    1.0438    8.3028   -8.4690 N   0  0  0  0  0  0  0  0  0  0  0  0
    0.7020    9.5484   -8.0882 N   0  0  0  0  0  0  0  0  0  0  0  0
   -0.0593    9.3702   -6.9989 C   0  0  0  0  0  0  0  0  0  0  0  0
   -0.2336    7.9853   -6.7270 C   0  0  0  0  0  0  0  0  0  0  0  0
    0.4772    7.3202   -7.6957 C   0  0  0  0  0  0  0  0  0  0  0  0
    0.6455    5.9977   -7.9052 N   0  0  0  0  0  0  0  0  0  0  0  0
    0.2089    5.3457   -7.3106 H   0  0  0  0  0  0  0  0  0  0  0  0
    1.2049    5.6849   -8.6525 H   0  0  0  0  0  0  0  0  0  0  0  0
 11 12  1  0
 12 13  1  0
 13 14  2  0
 14  1  1  0
  1  2  2  0
  2  3  1  0
  3  4  2  0
  4  5  1  0
  5  6  2  0
  6  7  1  0
  4  8  1  0
  8  9  1  0
  9 10  1  0
 14 15  1  0
 15 16  2  0
 16 17  1  0
 16 12  1  0
  6  1  1  0
 10  3  1  0
 17 18  1  0
 17 19  1  0
M  END
> <minimizedAffinity>
-7.54704

> <CNNscore>
0.9238823652

> <CNNaffinity>
4.4205684662

> <CNN_VS>
4.0840854645

> <CNNaffinity_variance>
1.0576367378

$$$$



 19 21  0  0  0  0  0  0  0  0999 V2000
   -0.2887   10.3439   -6.2332 C   0  0  0  0  0  0  0  0  0  0  0  0
   -1.2952   10.9169   -5.4372 C   0  0  0  0  0  0  0  0  0  0  0  0
   -1.4171   12.2915   -5.4359 C   0  0  0  0  0  0  0  0  0  0  0  0
   -0.5883   13.0972   -6.1812 C   0  0  0  0  0  0  0  0  0  0  0  0
    0.4114   12.5750   -6.9690 C   0  0  0  0  0  0  0  0  0  0  0  0
    0.5558   11.1863   -6.9889 C   0  0  0  0  0  0  0  0  0  0  0  0
    1.5518   10.6764   -7.7300 F   0  0  0  0  0  0  0  0  0  0  0  0
   -0.8791   14.4171   -6.0342 O   0  0  0  0  0  0  0  0  0  0  0  0
   -1.9930   14.3517   -5.1194 C   0  0  0  0  0  0  0  0  0  0  0  0
   -2.3341   13.0048   -4.7288 O   0  0  0  0  0  0  0  0  0  0  0  0
    0.5860    5.8799   -4.6432 C   0  0  0  0  0  0  0  0  0  0  0  0
    0.2685    6.9182   -5.5927 N   0  0  0  0  0  0  0  0  0  0  0  0
    0.2442    8.2001   -5.1809 N   0  0  0  0  0  0  0  0  0  0  0  0
   -0.1309    8.8947   -6.2647 C   0  0  0  0  0  0  0  0  0  0  0  0
   -0.2954    8.0326   -7.3837 C   0  0  0  0  0  0  0  0  0  0  0  0
   -0.0203    6.7673   -6.9262 C   0  0  0  0  0  0  0  0  0  0  0  0
   -0.0236    5.5828   -7.5730 N   0  0  0  0  0  0  0  0  0  0  0  0
   -0.2403    5.5466   -8.5326 H   0  0  0  0  0  0  0  0  0  0  0  0
    0.1908    4.7550   -7.0851 H   0  0  0  0  0  0  0  0  0  0  0  0
 11 12  1  0
 12 13  1  0
 13 14  2  0
 14  1  1  0
  1  2  2  0
  2  3  1  0
  3  4  2  0
  4  5  1  0
  5  6  2  0
  6  7  1  0
  4  8  1  0
  8  9  1  0
  9 10  1  0
 14 15  1  0
 15 16  2  0
 16 17  1  0
 16 12  1  0
  6  1  1  0
 10  3  1  0
 17 18  1  0
 17 19  1  0
M  END
> <minimizedAffinity>
-7.63823

> <CNNscore>
0.8836225867

> <CNNaffinity>
4.1268596649

> <CNN_VS>
3.6465864182

> <CNNaffinity_variance>
1.3944698572

$$$$



 19 21  0  0  0  0  0  0  0  0999 V2000
   -0.0506   10.6929   -7.0471 C   0  0  0  0  0  0  0  0  0  0  0  0
   -0.0814   12.0947   -7.1412 C   0  0  0  0  0  0  0  0  0  0  0  0
   -0.8042   12.7925   -6.1951 C   0  0  0  0  0  0  0  0  0  0  0  0
   -1.4843   12.1565   -5.1829 C   0  0  0  0  0  0  0  0  0  0  0  0
   -1.4825   10.7863   -5.0595 C   0  0  0  0  0  0  0  0  0  0  0  0
   -0.7578   10.0563   -6.0037 C   0  0  0  0  0  0  0  0  0  0  0  0
   -0.7822    8.7180   -5.9056 F   0  0  0  0  0  0  0  0  0  0  0  0
   -2.1297   13.0291   -4.3640 O   0  0  0  0  0  0  0  0  0  0  0  0
   -1.7705   14.2889   -4.9689 C   0  0  0  0  0  0  0  0  0  0  0  0
   -0.9358   14.1449   -6.1375 O   0  0  0  0  0  0  0  0  0  0  0  0
    1.5762    6.8507   -9.4578 C   0  0  0  0  0  0  0  0  0  0  0  0
    1.4529    8.2404   -9.0917 N   0  0  0  0  0  0  0  0  0  0  0  0
    0.6423    8.5818   -8.0720 N   0  0  0  0  0  0  0  0  0  0  0  0
    0.7058    9.9204   -8.0253 C   0  0  0  0  0  0  0  0  0  0  0  0
    1.6112   10.4163   -9.0035 C   0  0  0  0  0  0  0  0  0  0  0  0
    2.0872    9.3128   -9.6680 C   0  0  0  0  0  0  0  0  0  0  0  0
    2.9718    9.2161  -10.6826 N   0  0  0  0  0  0  0  0  0  0  0  0
    3.3907   10.0280  -11.0495 H   0  0  0  0  0  0  0  0  0  0  0  0
    3.1983    8.3337  -11.0558 H   0  0  0  0  0  0  0  0  0  0  0  0
 11 12  1  0
 12 13  1  0
 13 14  2  0
 14  1  1  0
  1  2  2  0
  2  3  1  0
  3  4  2  0
  4  5  1  0
  5  6  2  0
  6  7  1  0
  4  8  1  0
  8  9  1  0
  9 10  1  0
 14 15  1  0
 15 16  2  0
 16 17  1  0
 16 12  1  0
  6  1  1  0
 10  3  1  0
 17 18  1  0
 17 19  1  0
M  END
> <minimizedAffinity>
-7.04850

> <CNNscore>
0.7847163081

> <CNNaffinity>
3.9740536213

> <CNN_VS>
3.1185047626

> <CNNaffinity_variance>
0.4902329445

$$$$



 19 21  0  0  0  0  0  0  0  0999 V2000
    2.9313   18.3517  -12.2549 C   0  0  0  0  0  0  0  0  0  0  0  0
    2.2712   18.6298  -13.4639 C   0  0  0  0  0  0  0  0  0  0  0  0
    1.6568   19.8580  -13.5998 C   0  0  0  0  0  0  0  0  0  0  0  0
    1.6745   20.7967  -12.5947 C   0  0  0  0  0  0  0  0  0  0  0  0
    2.3056   20.5606  -11.3953 C   0  0  0  0  0  0  0  0  0  0  0  0
    2.9360   19.3255  -11.2322 C   0  0  0  0  0  0  0  0  0  0  0  0
    3.5233   19.0795  -10.0507 F   0  0  0  0  0  0  0  0  0  0  0  0
    1.0101   21.9331  -12.9351 O   0  0  0  0  0  0  0  0  0  0  0  0
    0.5804   21.6084  -14.2736 C   0  0  0  0  0  0  0  0  0  0  0  0
    0.9805   20.2884  -14.6985 O   0  0  0  0  0  0  0  0  0  0  0  0
    6.5184   15.1858  -11.6805 C   0  0  0  0  0  0  0  0  0  0  0  0
    5.1613   15.6481  -11.8391 N   0  0  0  0  0  0  0  0  0  0  0  0
    4.9319   16.9627  -12.0196 N   0  0  0  0  0  0  0  0  0  0  0  0
    3.5962   17.0667  -12.0746 C   0  0  0  0  0  0  0  0  0  0  0  0
    2.9865   15.7857  -11.9753 C   0  0  0  0  0  0  0  0  0  0  0  0
    4.0174   14.8892  -11.8365 C   0  0  0  0  0  0  0  0  0  0  0  0
    3.9978   13.5461  -11.7065 N   0  0  0  0  0  0  0  0  0  0  0  0
    3.1397   13.0634  -11.7130 H   0  0  0  0  0  0  0  0  0  0  0  0
    4.8414   13.0489  -11.6050 H   0  0  0  0  0  0  0  0  0  0  0  0
 11 12  1  0
 12 13  1  0
 13 14  2  0
 14  1  1  0
  1  2  2  0
  2  3  1  0
  3  4  2  0
  4  5  1  0
  5  6  2  0
  6  7  1  0
  4  8  1  0
  8  9  1  0
  9 10  1  0
 14 15  1  0
 15 16  2  0
 16 17  1  0
 16 12  1  0
  6  1  1  0
 10  3  1  0
 17 18  1  0
 17 19  1  0
M  END
> <minimizedAffinity>
-4.76091

> <CNNscore>
0.7692644596

> <CNNaffinity>
3.9072389603

> <CNN_VS>
3.0057001114

> <CNNaffinity_variance>
0.2488867044

$$$$



 19 21  0  0  0  0  0  0  0  0999 V2000
    2.9574   17.7678  -12.2047 C   0  0  0  0  0  0  0  0  0  0  0  0
    3.0964   19.1353  -11.9127 C   0  0  0  0  0  0  0  0  0  0  0  0
    4.2502   19.5491  -11.2786 C   0  0  0  0  0  0  0  0  0  0  0  0
    5.2467   18.6673  -10.9307 C   0  0  0  0  0  0  0  0  0  0  0  0
    5.1460   17.3209  -11.1949 C   0  0  0  0  0  0  0  0  0  0  0  0
    3.9886   16.8760  -11.8368 C   0  0  0  0  0  0  0  0  0  0  0  0
    3.8730   15.5585  -12.0652 F   0  0  0  0  0  0  0  0  0  0  0  0
    6.2918   19.2824  -10.3160 O   0  0  0  0  0  0  0  0  0  0  0  0
    5.8457   20.6546  -10.3254 C   0  0  0  0  0  0  0  0  0  0  0  0
    4.5458   20.8294  -10.9276 O   0  0  0  0  0  0  0  0  0  0  0  0
   -0.9170   15.0460  -13.1001 C   0  0  0  0  0  0  0  0  0  0  0  0
    0.0508   16.0957  -13.3054 N   0  0  0  0  0  0  0  0  0  0  0  0
    1.0877   16.2091  -12.4536 N   0  0  0  0  0  0  0  0  0  0  0  0
    1.7547   17.2922  -12.8779 C   0  0  0  0  0  0  0  0  0  0  0  0
    1.1478   17.8326  -14.0449 C   0  0  0  0  0  0  0  0  0  0  0  0
    0.0599   17.0361  -14.3054 C   0  0  0  0  0  0  0  0  0  0  0  0
   -0.8561   17.1014  -15.2943 N   0  0  0  0  0  0  0  0  0  0  0  0
   -0.7897   17.8037  -15.9812 H   0  0  0  0  0  0  0  0  0  0  0  0
   -1.5907   16.4469  -15.3289 H   0  0  0  0  0  0  0  0  0  0  0  0
 11 12  1  0
 12 13  1  0
 13 14  2  0
 14  1  1  0
  1  2  2  0
  2  3  1  0
  3  4  2  0
  4  5  1  0
  5  6  2  0
  6  7  1  0
  4  8  1  0
  8  9  1  0
  9 10  1  0
 14 15  1  0
 15 16  2  0
 16 17  1  0
 16 12  1  0
  6  1  1  0
 10  3  1  0
 17 18  1  0
 17 19  1  0
M  END
> <minimizedAffinity>
-4.90922

> <CNNscore>
0.7012652755

> <CNNaffinity>
4.1185193062

> <CNN_VS>
2.8881745338

> <CNNaffinity_variance>
0.3748260438

$$$$



 19 21  0  0  0  0  0  0  0  0999 V2000
    2.2834   19.3305  -13.1009 C   0  0  0  0  0  0  0  0  0  0  0  0
    2.0103   19.4074  -14.4772 C   0  0  0  0  0  0  0  0  0  0  0  0
    1.4113   20.5545  -14.9565 C   0  0  0  0  0  0  0  0  0  0  0  0
    1.0800   21.6031  -14.1305 C   0  0  0  0  0  0  0  0  0  0  0  0
    1.3267   21.5642  -12.7775 C   0  0  0  0  0  0  0  0  0  0  0  0
    1.9329   20.4147  -12.2669 C   0  0  0  0  0  0  0  0  0  0  0  0
    2.1436   20.3603  -10.9425 F   0  0  0  0  0  0  0  0  0  0  0  0
    0.4999   22.6311  -14.8051 O   0  0  0  0  0  0  0  0  0  0  0  0
    0.5127   22.1158  -16.1528 C   0  0  0  0  0  0  0  0  0  0  0  0
    1.0824   20.7937  -16.2543 O   0  0  0  0  0  0  0  0  0  0  0  0
    2.8044   14.7396  -11.7323 C   0  0  0  0  0  0  0  0  0  0  0  0
    3.1683   16.1216  -11.9280 N   0  0  0  0  0  0  0  0  0  0  0  0
    2.2655   16.9704  -12.4553 N   0  0  0  0  0  0  0  0  0  0  0  0
    2.9194   18.1366  -12.5569 C   0  0  0  0  0  0  0  0  0  0  0  0
    4.2382   18.0217  -12.0373 C   0  0  0  0  0  0  0  0  0  0  0  0
    4.3681   16.7173  -11.6281 C   0  0  0  0  0  0  0  0  0  0  0  0
    5.4124   16.0777  -11.0609 N   0  0  0  0  0  0  0  0  0  0  0  0
    6.2458   16.5669  -10.8726 H   0  0  0  0  0  0  0  0  0  0  0  0
    5.3408   15.1221  -10.8355 H   0  0  0  0  0  0  0  0  0  0  0  0
 11 12  1  0
 12 13  1  0
 13 14  2  0
 14  1  1  0
  1  2  2  0
  2  3  1  0
  3  4  2  0
  4  5  1  0
  5  6  2  0
  6  7  1  0
  4  8  1  0
  8  9  1  0
  9 10  1  0
 14 15  1  0
 15 16  2  0
 16 17  1  0
 16 12  1  0
  6  1  1  0
 10  3  1  0
 17 18  1  0
 17 19  1  0
M  END
> <minimizedAffinity>
-5.17833

> <CNNscore>
0.6833966374

> <CNNaffinity>
3.8927850723

> <CNN_VS>
2.6603162289

> <CNNaffinity_variance>
0.2510537803

$$$$



 19 21  0  0  0  0  0  0  0  0999 V2000
    3.0570   18.6768  -12.3012 C   0  0  0  0  0  0  0  0  0  0  0  0
    4.2910   18.0134  -12.4116 C   0  0  0  0  0  0  0  0  0  0  0  0
    5.3531   18.4921  -11.6720 C   0  0  0  0  0  0  0  0  0  0  0  0
    5.2321   19.5858  -10.8467 C   0  0  0  0  0  0  0  0  0  0  0  0
    4.0429   20.2648  -10.7151 C   0  0  0  0  0  0  0  0  0  0  0  0
    2.9519   19.8003  -11.4523 C   0  0  0  0  0  0  0  0  0  0  0  0
    1.7997   20.4813  -11.3518 F   0  0  0  0  0  0  0  0  0  0  0  0
    6.3965   19.8885  -10.2134 O   0  0  0  0  0  0  0  0  0  0  0  0
    7.2633   18.8547  -10.7252 C   0  0  0  0  0  0  0  0  0  0  0  0
    6.6088   17.9698  -11.6587 O   0  0  0  0  0  0  0  0  0  0  0  0
   -0.4726   15.7293  -13.7417 C   0  0  0  0  0  0  0  0  0  0  0  0
    0.3569   16.9093  -13.7299 N   0  0  0  0  0  0  0  0  0  0  0  0
    1.3866   16.9800  -12.8649 N   0  0  0  0  0  0  0  0  0  0  0  0
    1.9098   18.1985  -13.0635 C   0  0  0  0  0  0  0  0  0  0  0  0
    1.2220   18.8784  -14.1061 C   0  0  0  0  0  0  0  0  0  0  0  0
    0.2347   18.0211  -14.5258 C   0  0  0  0  0  0  0  0  0  0  0  0
   -0.6991   18.1661  -15.4893 N   0  0  0  0  0  0  0  0  0  0  0  0
   -0.7301   18.9919  -16.0244 H   0  0  0  0  0  0  0  0  0  0  0  0
   -1.3492   17.4461  -15.6570 H   0  0  0  0  0  0  0  0  0  0  0  0
 11 12  1  0
 12 13  1  0
 13 14  2  0
 14  1  1  0
  1  2  2  0
  2  3  1  0
  3  4  2  0
  4  5  1  0
  5  6  2  0
  6  7  1  0
  4  8  1  0
  8  9  1  0
  9 10  1  0
 14 15  1  0
 15 16  2  0
 16 17  1  0
 16 12  1  0
  6  1  1  0
 10  3  1  0
 17 18  1  0
 17 19  1  0
M  END
> <minimizedAffinity>
-5.05741

> <CNNscore>
0.6334146857

> <CNNaffinity>
3.9282894135

> <CNN_VS>
2.4882361889

> <CNNaffinity_variance>
0.1967304200

$$$$



 19 21  0  0  0  0  0  0  0  0999 V2000
    4.6270   19.1559  -11.9007 C   0  0  0  0  0  0  0  0  0  0  0  0
    4.3128   19.4824  -13.2309 C   0  0  0  0  0  0  0  0  0  0  0  0
    3.1144   20.1212  -13.4763 C   0  0  0  0  0  0  0  0  0  0  0  0
    2.2366   20.4365  -12.4655 C   0  0  0  0  0  0  0  0  0  0  0  0
    2.5056   20.1296  -11.1517 C   0  0  0  0  0  0  0  0  0  0  0  0
    3.7123   19.4836  -10.8760 C   0  0  0  0  0  0  0  0  0  0  0  0
    3.9617   19.1526   -9.5994 F   0  0  0  0  0  0  0  0  0  0  0  0
    1.1193   21.0602  -12.9251 O   0  0  0  0  0  0  0  0  0  0  0  0
    1.3972   21.1118  -14.3401 C   0  0  0  0  0  0  0  0  0  0  0  0
    2.6589   20.5093  -14.6976 O   0  0  0  0  0  0  0  0  0  0  0  0
    7.9482   15.6661  -11.7918 C   0  0  0  0  0  0  0  0  0  0  0  0
    7.3601   16.9554  -11.5222 N   0  0  0  0  0  0  0  0  0  0  0  0
    6.1102   17.2105  -11.9535 N   0  0  0  0  0  0  0  0  0  0  0  0
    5.8859   18.4845  -11.6004 C   0  0  0  0  0  0  0  0  0  0  0  0
    6.9998   19.0149  -10.8931 C   0  0  0  0  0  0  0  0  0  0  0  0
    7.9300   18.0056  -10.8465 C   0  0  0  0  0  0  0  0  0  0  0  0
    9.1602   17.9741  -10.2925 N   0  0  0  0  0  0  0  0  0  0  0  0
    9.5081   18.7651   -9.8210 H   0  0  0  0  0  0  0  0  0  0  0  0
    9.7096   17.1600  -10.3600 H   0  0  0  0  0  0  0  0  0  0  0  0
 11 12  1  0
 12 13  1  0
 13 14  2  0
 14  1  1  0
  1  2  2  0
  2  3  1  0
  3  4  2  0
  4  5  1  0
  5  6  2  0
  6  7  1  0
  4  8  1  0
  8  9  1  0
  9 10  1  0
 14 15  1  0
 15 16  2  0
 16 17  1  0
 16 12  1  0
  6  1  1  0
 10  3  1  0
 17 18  1  0
 17 19  1  0
M  END
> <minimizedAffinity>
-4.72591

> <CNNscore>
0.6098221540

> <CNNaffinity>
3.8384315968

> <CNN_VS>
2.3407607079

> <CNNaffinity_variance>
0.2047056109

$$$$
