


 18 19  0  0  0  0  0  0  0  0999 V2000
   11.2003    7.7725    7.0629 C   0  0  0  0  0  0  0  0  0  0  0  0
   11.7349    7.7192    5.7903 C   0  0  0  0  0  0  0  0  0  0  0  0
   12.9039    8.4296    5.7818 N   0  0  0  0  0  0  0  0  0  0  0  0
   13.1510    8.9508    7.0304 C   0  0  0  0  0  0  0  0  0  0  0  0
   14.2202    9.7344    7.4834 C   0  0  0  0  0  0  0  0  0  0  0  0
   14.2111   10.1304    8.8251 C   0  0  0  0  0  0  0  0  0  0  0  0
   15.5260   11.0974    9.3941 Cl  0  0  0  0  0  0  0  0  0  0  0  0
   13.1687    9.7545    9.6750 C   0  0  0  0  0  0  0  0  0  0  0  0
   13.1803   10.1558   10.9854 O   0  0  0  0  0  0  0  0  0  0  0  0
   12.1073    8.9702    9.2074 C   0  0  0  0  0  0  0  0  0  0  0  0
   12.0972    8.5586    7.8568 C   0  0  0  0  0  0  0  0  0  0  0  0
   13.4843    8.5504    4.9958 H   0  0  0  0  0  0  0  0  0  0  0  0
   13.8860   10.6809   11.3083 H   0  0  0  0  0  0  0  0  0  0  0  0
    9.9260    7.1265    7.5141 C   0  0  0  0  0  0  0  0  0  0  0  0
   11.3944    5.1457    7.2641 N   0  0  0  0  0  0  0  0  0  0  0  0
   10.0869    5.6159    7.7229 C   0  0  0  0  0  0  0  0  0  0  0  0
   11.4671    4.1399    7.4175 H   0  0  0  0  0  0  0  0  0  0  0  0
   12.1297    5.6232    7.7855 H   0  0  0  0  0  0  0  0  0  0  0  0
 15 16  1  0
 16 14  1  0
 14  1  1  0
  1  2  2  0
  2  3  1  0
  3  4  1  0
  4  5  2  0
  5  6  1  0
  6  7  1  0
  6  8  2  0
  8  9  1  0
  8 10  1  0
 10 11  2  0
 11  1  1  0
 11  4  1  0
 15 17  1  0
 15 18  1  0
  3 12  1  0
  9 13  1  0
M  END
> <minimizedAffinity>
-7.64470

> <CNNscore>
0.8922417760

> <CNNaffinity>
6.2130980492

> <CNN_VS>
5.5435857773

> <CNNaffinity_variance>
0.1460057199

$$$$



 18 19  0  0  0  0  0  0  0  0999 V2000
   15.6446   16.9483    1.6333 C   0  0  0  0  0  0  0  0  0  0  0  0
   15.0542   17.7015    2.6294 C   0  0  0  0  0  0  0  0  0  0  0  0
   14.6240   16.8554    3.6145 N   0  0  0  0  0  0  0  0  0  0  0  0
   14.9225   15.5538    3.2852 C   0  0  0  0  0  0  0  0  0  0  0  0
   14.6748   14.3678    3.9884 C   0  0  0  0  0  0  0  0  0  0  0  0
   15.0933   13.1678    3.4036 C   0  0  0  0  0  0  0  0  0  0  0  0
   14.7926   11.6988    4.2633 Cl  0  0  0  0  0  0  0  0  0  0  0  0
   15.7329   13.1617    2.1623 C   0  0  0  0  0  0  0  0  0  0  0  0
   16.1323   11.9736    1.6080 O   0  0  0  0  0  0  0  0  0  0  0  0
   15.9741   14.3558    1.4719 C   0  0  0  0  0  0  0  0  0  0  0  0
   15.5609   15.5785    2.0446 C   0  0  0  0  0  0  0  0  0  0  0  0
   14.1669   17.1373    4.4396 H   0  0  0  0  0  0  0  0  0  0  0  0
   15.9757   11.1689    2.0618 H   0  0  0  0  0  0  0  0  0  0  0  0
   16.2535   17.4754    0.3699 C   0  0  0  0  0  0  0  0  0  0  0  0
   18.6873   17.8884    0.1507 N   0  0  0  0  0  0  0  0  0  0  0  0
   17.4214   18.4297    0.6462 C   0  0  0  0  0  0  0  0  0  0  0  0
   19.4402   18.5468    0.3506 H   0  0  0  0  0  0  0  0  0  0  0  0
   18.6230   17.7410   -0.8566 H   0  0  0  0  0  0  0  0  0  0  0  0
 15 16  1  0
 16 14  1  0
 14  1  1  0
  1  2  2  0
  2  3  1  0
  3  4  1  0
  4  5  2  0
  5  6  1  0
  6  7  1  0
  6  8  2  0
  8  9  1  0
  8 10  1  0
 10 11  2  0
 11  1  1  0
 11  4  1  0
 15 17  1  0
 15 18  1  0
  3 12  1  0
  9 13  1  0
M  END
> <minimizedAffinity>
-4.65104

> <CNNscore>
0.6475992799

> <CNNaffinity>
4.2863612175

> <CNN_VS>
2.7758443356

> <CNNaffinity_variance>
0.3358258307

$$$$



 18 19  0  0  0  0  0  0  0  0999 V2000
   22.7019    4.8263   15.7284 C   0  0  0  0  0  0  0  0  0  0  0  0
   22.2320    5.6075   16.7661 C   0  0  0  0  0  0  0  0  0  0  0  0
   22.1198    6.8962   16.3214 N   0  0  0  0  0  0  0  0  0  0  0  0
   22.5073    6.9786   15.0042 C   0  0  0  0  0  0  0  0  0  0  0  0
   22.5538    8.0857   14.1471 C   0  0  0  0  0  0  0  0  0  0  0  0
   22.9986    7.8737   12.8378 C   0  0  0  0  0  0  0  0  0  0  0  0
   23.0596    9.2332   11.7721 Cl  0  0  0  0  0  0  0  0  0  0  0  0
   23.3818    6.6009   12.4095 C   0  0  0  0  0  0  0  0  0  0  0  0
   23.8160    6.4177   11.1226 O   0  0  0  0  0  0  0  0  0  0  0  0
   23.3288    5.5040   13.2781 C   0  0  0  0  0  0  0  0  0  0  0  0
   22.8819    5.6954   14.6037 C   0  0  0  0  0  0  0  0  0  0  0  0
   21.8071    7.6549   16.8653 H   0  0  0  0  0  0  0  0  0  0  0  0
   23.8552    7.1451   10.5333 H   0  0  0  0  0  0  0  0  0  0  0  0
   22.9674    3.3527   15.7812 C   0  0  0  0  0  0  0  0  0  0  0  0
   22.2836    1.1404   14.8977 N   0  0  0  0  0  0  0  0  0  0  0  0
   21.9012    2.5467   15.0296 C   0  0  0  0  0  0  0  0  0  0  0  0
   21.5541    0.6354   14.3945 H   0  0  0  0  0  0  0  0  0  0  0  0
   22.4022    0.7319   15.8248 H   0  0  0  0  0  0  0  0  0  0  0  0
 15 16  1  0
 16 14  1  0
 14  1  1  0
  1  2  2  0
  2  3  1  0
  3  4  1  0
  4  5  2  0
  5  6  1  0
  6  7  1  0
  6  8  2  0
  8  9  1  0
  8 10  1  0
 10 11  2  0
 11  1  1  0
 11  4  1  0
 15 17  1  0
 15 18  1  0
  3 12  1  0
  9 13  1  0
M  END
> <minimizedAffinity>
-5.84846

> <CNNscore>
0.6422870159

> <CNNaffinity>
4.5636391640

> <CNN_VS>
2.9311661720

> <CNNaffinity_variance>
0.2043793797

$$$$



 18 19  0  0  0  0  0  0  0  0999 V2000
   23.1861    7.2106   12.2985 C   0  0  0  0  0  0  0  0  0  0  0  0
   23.2980    6.0987   11.4866 C   0  0  0  0  0  0  0  0  0  0  0  0
   23.0060    4.9884   12.2305 N   0  0  0  0  0  0  0  0  0  0  0  0
   22.7012    5.3499   13.5220 C   0  0  0  0  0  0  0  0  0  0  0  0
   22.3426    4.5550   14.6185 C   0  0  0  0  0  0  0  0  0  0  0  0
   22.0863    5.2021   15.8321 C   0  0  0  0  0  0  0  0  0  0  0  0
   21.6429    4.2305   17.1911 Cl  0  0  0  0  0  0  0  0  0  0  0  0
   22.1880    6.5908   15.9380 C   0  0  0  0  0  0  0  0  0  0  0  0
   21.9339    7.2026   17.1378 O   0  0  0  0  0  0  0  0  0  0  0  0
   22.5467    7.3717   14.8325 C   0  0  0  0  0  0  0  0  0  0  0  0
   22.8088    6.7391   13.5977 C   0  0  0  0  0  0  0  0  0  0  0  0
   23.0130    4.0645   11.8906 H   0  0  0  0  0  0  0  0  0  0  0  0
   21.6931    6.6892   17.8837 H   0  0  0  0  0  0  0  0  0  0  0  0
   23.4167    8.6326   11.8867 C   0  0  0  0  0  0  0  0  0  0  0  0
   25.1655   10.3479   11.5100 N   0  0  0  0  0  0  0  0  0  0  0  0
   24.8409    9.1025   12.2063 C   0  0  0  0  0  0  0  0  0  0  0  0
   26.1170   10.6306   11.7446 H   0  0  0  0  0  0  0  0  0  0  0  0
   24.5134   11.0778   11.7970 H   0  0  0  0  0  0  0  0  0  0  0  0
 15 16  1  0
 16 14  1  0
 14  1  1  0
  1  2  2  0
  2  3  1  0
  3  4  1  0
  4  5  2  0
  5  6  1  0
  6  7  1  0
  6  8  2  0
  8  9  1  0
  8 10  1  0
 10 11  2  0
 11  1  1  0
 11  4  1  0
 15 17  1  0
 15 18  1  0
  3 12  1  0
  9 13  1  0
M  END
> <minimizedAffinity>
-5.53628

> <CNNscore>
0.5014508963

> <CNNaffinity>
3.6048386097

> <CNN_VS>
1.8076494932

> <CNNaffinity_variance>
0.7066405416

$$$$



 18 19  0  0  0  0  0  0  0  0999 V2000
   10.9710    7.6655    7.4002 C   0  0  0  0  0  0  0  0  0  0  0  0
   10.4175    7.6910    8.6656 C   0  0  0  0  0  0  0  0  0  0  0  0
   11.2197    8.4489    9.4738 N   0  0  0  0  0  0  0  0  0  0  0  0
   12.2949    8.9263    8.7611 C   0  0  0  0  0  0  0  0  0  0  0  0
   13.3599    9.7375    9.1739 C   0  0  0  0  0  0  0  0  0  0  0  0
   14.3284   10.0707    8.2208 C   0  0  0  0  0  0  0  0  0  0  0  0
   15.6464   11.0713    8.7199 Cl  0  0  0  0  0  0  0  0  0  0  0  0
   14.2297    9.6058    6.9078 C   0  0  0  0  0  0  0  0  0  0  0  0
   15.1915    9.9437    5.9918 O   0  0  0  0  0  0  0  0  0  0  0  0
   13.1585    8.7963    6.5103 C   0  0  0  0  0  0  0  0  0  0  0  0
   12.1693    8.4488    7.4560 C   0  0  0  0  0  0  0  0  0  0  0  0
   11.0518    8.6270   10.4274 H   0  0  0  0  0  0  0  0  0  0  0  0
   15.9124   10.4849    6.2475 H   0  0  0  0  0  0  0  0  0  0  0  0
   10.4142    6.9523    6.2060 C   0  0  0  0  0  0  0  0  0  0  0  0
   11.2194    5.0003    7.5035 N   0  0  0  0  0  0  0  0  0  0  0  0
   10.3320    5.4369    6.4251 C   0  0  0  0  0  0  0  0  0  0  0  0
   11.1396    3.9903    7.6216 H   0  0  0  0  0  0  0  0  0  0  0  0
   10.9546    5.4661    8.3714 H   0  0  0  0  0  0  0  0  0  0  0  0
 15 16  1  0
 16 14  1  0
 14  1  1  0
  1  2  2  0
  2  3  1  0
  3  4  1  0
  4  5  2  0
  5  6  1  0
  6  7  1  0
  6  8  2  0
  8  9  1  0
  8 10  1  0
 10 11  2  0
 11  1  1  0
 11  4  1  0
 15 17  1  0
 15 18  1  0
  3 12  1  0
  9 13  1  0
M  END
> <minimizedAffinity>
-6.01767

> <CNNscore>
0.5000128150

> <CNNaffinity>
6.2486801147

> <CNN_VS>
3.1244201660

> <CNNaffinity_variance>
0.4085203707

$$$$



 18 19  0  0  0  0  0  0  0  0999 V2000
   22.3969    4.9598   14.2494 C   0  0  0  0  0  0  0  0  0  0  0  0
   22.2741    4.2925   13.0462 C   0  0  0  0  0  0  0  0  0  0  0  0
   22.7430    5.1052   12.0507 N   0  0  0  0  0  0  0  0  0  0  0  0
   23.1754    6.2996   12.5780 C   0  0  0  0  0  0  0  0  0  0  0  0
   23.7286    7.4176   11.9402 C   0  0  0  0  0  0  0  0  0  0  0  0
   24.0807    8.5112   12.7385 C   0  0  0  0  0  0  0  0  0  0  0  0
   24.7643    9.8955   11.9613 Cl  0  0  0  0  0  0  0  0  0  0  0  0
   23.8830    8.4814   14.1206 C   0  0  0  0  0  0  0  0  0  0  0  0
   24.2339    9.5654   14.8821 O   0  0  0  0  0  0  0  0  0  0  0  0
   23.3296    7.3560   14.7434 C   0  0  0  0  0  0  0  0  0  0  0  0
   22.9680    6.2407   13.9567 C   0  0  0  0  0  0  0  0  0  0  0  0
   22.7674    4.8693   11.0952 H   0  0  0  0  0  0  0  0  0  0  0  0
   24.6050   10.3235   14.4751 H   0  0  0  0  0  0  0  0  0  0  0  0
   22.0050    4.4333   15.5962 C   0  0  0  0  0  0  0  0  0  0  0  0
   24.1777    3.2491   15.7356 N   0  0  0  0  0  0  0  0  0  0  0  0
   22.7338    3.1289   15.9405 C   0  0  0  0  0  0  0  0  0  0  0  0
   24.6296    2.3662   15.9734 H   0  0  0  0  0  0  0  0  0  0  0  0
   24.5452    3.9906   16.3319 H   0  0  0  0  0  0  0  0  0  0  0  0
 15 16  1  0
 16 14  1  0
 14  1  1  0
  1  2  2  0
  2  3  1  0
  3  4  1  0
  4  5  2  0
  5  6  1  0
  6  7  1  0
  6  8  2  0
  8  9  1  0
  8 10  1  0
 10 11  2  0
 11  1  1  0
 11  4  1  0
 15 17  1  0
 15 18  1  0
  3 12  1  0
  9 13  1  0
M  END
> <minimizedAffinity>
-5.09721

> <CNNscore>
0.4350111783

> <CNNaffinity>
4.0454025269

> <CNN_VS>
1.7597953081

> <CNNaffinity_variance>
0.5070642829

$$$$



 18 19  0  0  0  0  0  0  0  0999 V2000
    1.3742   13.4997    3.3154 C   0  0  0  0  0  0  0  0  0  0  0  0
    0.3317   12.9715    4.0519 C   0  0  0  0  0  0  0  0  0  0  0  0
    0.4308   13.4338    5.3356 N   0  0  0  0  0  0  0  0  0  0  0  0
    1.5226   14.2611    5.4585 C   0  0  0  0  0  0  0  0  0  0  0  0
    2.0059   14.9539    6.5761 C   0  0  0  0  0  0  0  0  0  0  0  0
    3.1565   15.7319    6.4090 C   0  0  0  0  0  0  0  0  0  0  0  0
    3.7608   16.5908    7.7819 Cl  0  0  0  0  0  0  0  0  0  0  0  0
    3.7948   15.8084    5.1693 C   0  0  0  0  0  0  0  0  0  0  0  0
    4.9218   16.5756    5.0300 O   0  0  0  0  0  0  0  0  0  0  0  0
    3.2989   15.1105    4.0613 C   0  0  0  0  0  0  0  0  0  0  0  0
    2.1381   14.3201    4.2075 C   0  0  0  0  0  0  0  0  0  0  0  0
   -0.1896   13.2071    6.0656 H   0  0  0  0  0  0  0  0  0  0  0  0
    5.2618   17.0465    5.7652 H   0  0  0  0  0  0  0  0  0  0  0  0
    1.6428   13.2546    1.8620 C   0  0  0  0  0  0  0  0  0  0  0  0
    0.0405   14.0116    0.1293 N   0  0  0  0  0  0  0  0  0  0  0  0
    1.1596   14.4137    0.9821 C   0  0  0  0  0  0  0  0  0  0  0  0
   -0.2546   14.8044   -0.4406 H   0  0  0  0  0  0  0  0  0  0  0  0
   -0.7377   13.7037    0.7124 H   0  0  0  0  0  0  0  0  0  0  0  0
 15 16  1  0
 16 14  1  0
 14  1  1  0
  1  2  2  0
  2  3  1  0
  3  4  1  0
  4  5  2  0
  5  6  1  0
  6  7  1  0
  6  8  2  0
  8  9  1  0
  8 10  1  0
 10 11  2  0
 11  1  1  0
 11  4  1  0
 15 17  1  0
 15 18  1  0
  3 12  1  0
  9 13  1  0
M  END
> <minimizedAffinity>
-4.52057

> <CNNscore>
0.4128620028

> <CNNaffinity>
3.7704067230

> <CNN_VS>
1.5566576719

> <CNNaffinity_variance>
0.6208147407

$$$$



 18 19  0  0  0  0  0  0  0  0999 V2000
   13.5798   16.4773    3.3637 C   0  0  0  0  0  0  0  0  0  0  0  0
   12.2824   16.1793    2.9946 C   0  0  0  0  0  0  0  0  0  0  0  0
   12.2539   14.9018    2.5061 N   0  0  0  0  0  0  0  0  0  0  0  0
   13.5131   14.3501    2.5480 C   0  0  0  0  0  0  0  0  0  0  0  0
   13.9522   13.0784    2.1573 C   0  0  0  0  0  0  0  0  0  0  0  0
   15.3112   12.7854    2.3138 C   0  0  0  0  0  0  0  0  0  0  0  0
   15.8631   11.2190    1.8349 Cl  0  0  0  0  0  0  0  0  0  0  0  0
   16.1915   13.7330    2.8402 C   0  0  0  0  0  0  0  0  0  0  0  0
   17.5191   13.4239    2.9825 O   0  0  0  0  0  0  0  0  0  0  0  0
   15.7370   14.9997    3.2269 C   0  0  0  0  0  0  0  0  0  0  0  0
   14.3690   15.3161    3.0786 C   0  0  0  0  0  0  0  0  0  0  0  0
   11.4487   14.4438    2.1728 H   0  0  0  0  0  0  0  0  0  0  0  0
   17.8335   12.5791    2.7267 H   0  0  0  0  0  0  0  0  0  0  0  0
   14.0570   17.7708    3.9499 C   0  0  0  0  0  0  0  0  0  0  0  0
   14.3833   19.0272    6.0612 N   0  0  0  0  0  0  0  0  0  0  0  0
   14.1846   17.7006    5.4764 C   0  0  0  0  0  0  0  0  0  0  0  0
   14.4639   18.9434    7.0745 H   0  0  0  0  0  0  0  0  0  0  0  0
   13.5876   19.6226    5.8315 H   0  0  0  0  0  0  0  0  0  0  0  0
 15 16  1  0
 16 14  1  0
 14  1  1  0
  1  2  2  0
  2  3  1  0
  3  4  1  0
  4  5  2  0
  5  6  1  0
  6  7  1  0
  6  8  2  0
  8  9  1  0
  8 10  1  0
 10 11  2  0
 11  1  1  0
 11  4  1  0
 15 17  1  0
 15 18  1  0
  3 12  1  0
  9 13  1  0
M  END
> <minimizedAffinity>
-4.82357

> <CNNscore>
0.4053365886

> <CNNaffinity>
4.3251852989

> <CNN_VS>
1.7531558275

> <CNNaffinity_variance>
0.3593266904

$$$$



 18 19  0  0  0  0  0  0  0  0999 V2000
   16.5081   17.6994    0.1161 C   0  0  0  0  0  0  0  0  0  0  0  0
   16.3017   18.8255    0.8890 C   0  0  0  0  0  0  0  0  0  0  0  0
   15.8410   18.4306    2.1150 N   0  0  0  0  0  0  0  0  0  0  0  0
   15.7410   17.0598    2.1648 C   0  0  0  0  0  0  0  0  0  0  0  0
   15.3212   16.2251    3.2087 C   0  0  0  0  0  0  0  0  0  0  0  0
   15.3187   14.8458    2.9749 C   0  0  0  0  0  0  0  0  0  0  0  0
   14.8028   13.8072    4.2566 Cl  0  0  0  0  0  0  0  0  0  0  0  0
   15.7205   14.3283    1.7416 C   0  0  0  0  0  0  0  0  0  0  0  0
   15.7080   12.9736    1.5350 O   0  0  0  0  0  0  0  0  0  0  0  0
   16.1382   15.1758    0.7082 C   0  0  0  0  0  0  0  0  0  0  0  0
   16.1495   16.5712    0.9232 C   0  0  0  0  0  0  0  0  0  0  0  0
   15.6139   19.0395    2.8546 H   0  0  0  0  0  0  0  0  0  0  0  0
   15.4302   12.3978    2.2201 H   0  0  0  0  0  0  0  0  0  0  0  0
   17.0119   17.6757   -1.2947 C   0  0  0  0  0  0  0  0  0  0  0  0
   19.3092   17.1004   -0.5642 N   0  0  0  0  0  0  0  0  0  0  0  0
   18.5056   18.0114   -1.3800 C   0  0  0  0  0  0  0  0  0  0  0  0
   20.2945   17.3518   -0.6441 H   0  0  0  0  0  0  0  0  0  0  0  0
   19.1750   16.1435   -0.8908 H   0  0  0  0  0  0  0  0  0  0  0  0
 15 16  1  0
 16 14  1  0
 14  1  1  0
  1  2  2  0
  2  3  1  0
  3  4  1  0
  4  5  2  0
  5  6  1  0
  6  7  1  0
  6  8  2  0
  8  9  1  0
  8 10  1  0
 10 11  2  0
 11  1  1  0
 11  4  1  0
 15 17  1  0
 15 18  1  0
  3 12  1  0
  9 13  1  0
M  END
> <minimizedAffinity>
-4.37779

> <CNNscore>
0.3772684932

> <CNNaffinity>
4.0603499413

> <CNN_VS>
1.5318421125

> <CNNaffinity_variance>
0.0503607057

$$$$
