


 27 29  0  0  0  0  0  0  0  0999 V2000
    5.2516    5.3034   22.3053 C   0  0  0  0  0  0  0  0  0  0  0  0
    5.9764    5.0298   23.4364 C   0  0  0  0  0  0  0  0  0  0  0  0
    7.3013    5.3185   23.1716 N   0  0  0  0  0  0  0  0  0  0  0  0
    7.4486    5.7725   21.8994 N   0  0  0  0  0  0  0  0  0  0  0  0
    6.2115    5.7597   21.3701 C   0  0  0  0  0  0  0  0  0  0  0  0
    8.4205    5.1130   24.0457 C   0  0  0  0  0  0  0  0  0  0  0  0
    9.6033    5.8247   23.7539 C   0  0  0  0  0  0  0  0  0  0  0  0
   10.7125    5.7391   24.5866 C   0  0  0  0  0  0  0  0  0  0  0  0
   10.6619    4.9432   25.7225 C   0  0  0  0  0  0  0  0  0  0  0  0
    9.5154    4.2026   26.0371 C   0  0  0  0  0  0  0  0  0  0  0  0
    9.5354    3.3982   27.1899 C   0  0  0  0  0  0  0  0  0  0  0  0
    8.4457    2.6082   27.5400 C   0  0  0  0  0  0  0  0  0  0  0  0
    7.3235    2.6044   26.7305 C   0  0  0  0  0  0  0  0  0  0  0  0
    7.2888    3.4045   25.5833 C   0  0  0  0  0  0  0  0  0  0  0  0
    8.3652    4.2544   25.1997 C   0  0  0  0  0  0  0  0  0  0  0  0
    1.7850    4.3436   22.2572 N   0  0  0  0  0  0  0  0  0  0  0  0
    3.0787    4.2358   22.6769 C   0  0  0  0  0  0  0  0  0  0  0  0
    3.3876    3.3747   23.4890 O   0  0  0  0  0  0  0  0  0  0  0  0
    3.8893    5.1717   22.0970 N   0  0  0  0  0  0  0  0  0  0  0  0
    1.1020    3.7248   22.6033 H   0  0  0  0  0  0  0  0  0  0  0  0
    1.5345    5.0403   21.6083 H   0  0  0  0  0  0  0  0  0  0  0  0
    3.4668    5.8084   21.4763 H   0  0  0  0  0  0  0  0  0  0  0  0
    5.9565    6.1721   19.9858 C   0  0  0  0  0  0  0  0  0  0  0  0
    7.0815    6.3940   19.2421 N   0  0  0  0  0  0  0  0  0  0  0  0
    4.8294    6.3005   19.5154 O   0  0  0  0  0  0  0  0  0  0  0  0
    7.9708    6.2823   19.6494 H   0  0  0  0  0  0  0  0  0  0  0  0
    7.0026    6.6655   18.2991 H   0  0  0  0  0  0  0  0  0  0  0  0
 16 17  1  0
 17 18  2  0
 17 19  1  0
 19  1  1  0
  1  2  2  0
  2  3  1  0
  3  6  1  0
  6  7  2  0
  7  8  1  0
  8  9  2  0
  9 10  1  0
 10 11  2  0
 11 12  1  0
 12 13  2  0
 13 14  1  0
 14 15  2  0
  3  4  1  0
  4  5  2  0
  5 23  1  0
 23 24  1  0
 23 25  2  0
  5  1  1  0
 15  6  1  0
 15 10  1  0
 16 20  1  0
 16 21  1  0
 19 22  1  0
 24 26  1  0
 24 27  1  0
M  END
> <minimizedAffinity>
-7.34415

> <CNNscore>
0.9488529563

> <CNNaffinity>
6.9712314606

> <CNN_VS>
6.6146736145

> <CNNaffinity_variance>
0.3811759055

$$$$



 27 29  0  0  0  0  0  0  0  0999 V2000
    5.4587    4.8532   23.1197 C   0  0  0  0  0  0  0  0  0  0  0  0
    5.8306    4.1545   24.2391 C   0  0  0  0  0  0  0  0  0  0  0  0
    7.1799    4.3686   24.4443 N   0  0  0  0  0  0  0  0  0  0  0  0
    7.6868    5.1886   23.4867 N   0  0  0  0  0  0  0  0  0  0  0  0
    6.6497    5.4796   22.6801 C   0  0  0  0  0  0  0  0  0  0  0  0
    8.0036    3.7742   25.4578 C   0  0  0  0  0  0  0  0  0  0  0  0
    7.3740    2.8943   26.3635 C   0  0  0  0  0  0  0  0  0  0  0  0
    8.1079    2.2213   27.3328 C   0  0  0  0  0  0  0  0  0  0  0  0
    9.4799    2.4141   27.4162 C   0  0  0  0  0  0  0  0  0  0  0  0
   10.1410    3.2956   26.5514 C   0  0  0  0  0  0  0  0  0  0  0  0
   11.5286    3.4636   26.7017 C   0  0  0  0  0  0  0  0  0  0  0  0
   12.2407    4.3513   25.9023 C   0  0  0  0  0  0  0  0  0  0  0  0
   11.5678    5.0934   24.9478 C   0  0  0  0  0  0  0  0  0  0  0  0
   10.1878    4.9317   24.7844 C   0  0  0  0  0  0  0  0  0  0  0  0
    9.4197    4.0131   25.5554 C   0  0  0  0  0  0  0  0  0  0  0  0
    2.0288    4.5018   22.0934 N   0  0  0  0  0  0  0  0  0  0  0  0
    3.1102    4.2039   22.8702 C   0  0  0  0  0  0  0  0  0  0  0  0
    3.0147    3.3631   23.7535 O   0  0  0  0  0  0  0  0  0  0  0  0
    4.2093    4.9427   22.5303 N   0  0  0  0  0  0  0  0  0  0  0  0
    1.1740    4.0359   22.2400 H   0  0  0  0  0  0  0  0  0  0  0  0
    2.1033    5.1828   21.3863 H   0  0  0  0  0  0  0  0  0  0  0  0
    4.1027    5.5963   21.8018 H   0  0  0  0  0  0  0  0  0  0  0  0
    6.8019    6.3398   21.5018 C   0  0  0  0  0  0  0  0  0  0  0  0
    6.4841    5.7404   20.3154 N   0  0  0  0  0  0  0  0  0  0  0  0
    7.1724    7.5091   21.5617 O   0  0  0  0  0  0  0  0  0  0  0  0
    6.1902    4.8009   20.3017 H   0  0  0  0  0  0  0  0  0  0  0  0
    6.5490    6.2482   19.4744 H   0  0  0  0  0  0  0  0  0  0  0  0
 16 17  1  0
 17 18  2  0
 17 19  1  0
 19  1  1  0
  1  2  2  0
  2  3  1  0
  3  6  1  0
  6  7  2  0
  7  8  1  0
  8  9  2  0
  9 10  1  0
 10 11  2  0
 11 12  1  0
 12 13  2  0
 13 14  1  0
 14 15  2  0
  3  4  1  0
  4  5  2  0
  5 23  1  0
 23 24  1  0
 23 25  2  0
  5  1  1  0
 15  6  1  0
 15 10  1  0
 16 20  1  0
 16 21  1  0
 19 22  1  0
 24 26  1  0
 24 27  1  0
M  END
> <minimizedAffinity>
-6.90673

> <CNNscore>
0.9470303059

> <CNNaffinity>
6.7181591988

> <CNN_VS>
6.3623003960

> <CNNaffinity_variance>
0.2690772712

$$$$



 27 29  0  0  0  0  0  0  0  0999 V2000
    4.4303    5.8774   21.6331 C   0  0  0  0  0  0  0  0  0  0  0  0
    5.6864    6.3967   21.8130 C   0  0  0  0  0  0  0  0  0  0  0  0
    6.2852    5.7092   22.8511 N   0  0  0  0  0  0  0  0  0  0  0  0
    5.4477    4.7594   23.3438 N   0  0  0  0  0  0  0  0  0  0  0  0
    4.3223    4.8616   22.6132 C   0  0  0  0  0  0  0  0  0  0  0  0
    7.5736    5.9676   23.4273 C   0  0  0  0  0  0  0  0  0  0  0  0
    8.2803    7.0896   22.9450 C   0  0  0  0  0  0  0  0  0  0  0  0
    9.5035    7.4538   23.4946 C   0  0  0  0  0  0  0  0  0  0  0  0
   10.0429    6.7065   24.5324 C   0  0  0  0  0  0  0  0  0  0  0  0
    9.3853    5.5725   25.0258 C   0  0  0  0  0  0  0  0  0  0  0  0
    9.9948    4.8455   26.0633 C   0  0  0  0  0  0  0  0  0  0  0  0
    9.4155    3.6888   26.5736 C   0  0  0  0  0  0  0  0  0  0  0  0
    8.2208    3.2373   26.0410 C   0  0  0  0  0  0  0  0  0  0  0  0
    7.6011    3.9546   25.0119 C   0  0  0  0  0  0  0  0  0  0  0  0
    8.1374    5.1610   24.4778 C   0  0  0  0  0  0  0  0  0  0  0  0
    2.5122    6.7349   18.7131 N   0  0  0  0  0  0  0  0  0  0  0  0
    3.6418    6.3214   19.3571 C   0  0  0  0  0  0  0  0  0  0  0  0
    4.6504    6.0622   18.7154 O   0  0  0  0  0  0  0  0  0  0  0  0
    3.4656    6.2448   20.7108 N   0  0  0  0  0  0  0  0  0  0  0  0
    2.5111    6.8303   17.7333 H   0  0  0  0  0  0  0  0  0  0  0  0
    1.6982    6.9378   19.2283 H   0  0  0  0  0  0  0  0  0  0  0  0
    2.5736    6.4710   21.0606 H   0  0  0  0  0  0  0  0  0  0  0  0
    3.1591    4.0021   22.8573 C   0  0  0  0  0  0  0  0  0  0  0  0
    2.3044    3.8873   21.7971 N   0  0  0  0  0  0  0  0  0  0  0  0
    2.9617    3.4171   23.9189 O   0  0  0  0  0  0  0  0  0  0  0  0
    2.4914    4.3697   20.9595 H   0  0  0  0  0  0  0  0  0  0  0  0
    1.5016    3.3222   21.8709 H   0  0  0  0  0  0  0  0  0  0  0  0
 16 17  1  0
 17 18  2  0
 17 19  1  0
 19  1  1  0
  1  2  2  0
  2  3  1  0
  3  6  1  0
  6  7  2  0
  7  8  1  0
  8  9  2  0
  9 10  1  0
 10 11  2  0
 11 12  1  0
 12 13  2  0
 13 14  1  0
 14 15  2  0
  3  4  1  0
  4  5  2  0
  5 23  1  0
 23 24  1  0
 23 25  2  0
  5  1  1  0
 15  6  1  0
 15 10  1  0
 16 20  1  0
 16 21  1  0
 19 22  1  0
 24 26  1  0
 24 27  1  0
M  END
> <minimizedAffinity>
-8.65657

> <CNNscore>
0.9415012002

> <CNNaffinity>
6.7961554527

> <CNN_VS>
6.3985886574

> <CNNaffinity_variance>
0.1596366614

$$$$



 27 29  0  0  0  0  0  0  0  0999 V2000
    4.4589    5.9352   21.6038 C   0  0  0  0  0  0  0  0  0  0  0  0
    5.6864    6.5375   21.7057 C   0  0  0  0  0  0  0  0  0  0  0  0
    6.3802    5.9168   22.7265 N   0  0  0  0  0  0  0  0  0  0  0  0
    5.6319    4.9291   23.2840 N   0  0  0  0  0  0  0  0  0  0  0  0
    4.4667    4.9407   22.6112 C   0  0  0  0  0  0  0  0  0  0  0  0
    7.6769    6.2711   23.2283 C   0  0  0  0  0  0  0  0  0  0  0  0
    8.0108    5.8196   24.5227 C   0  0  0  0  0  0  0  0  0  0  0  0
    9.2702    6.0576   25.0596 C   0  0  0  0  0  0  0  0  0  0  0  0
   10.2168    6.7494   24.3168 C   0  0  0  0  0  0  0  0  0  0  0  0
    9.9194    7.2345   23.0369 C   0  0  0  0  0  0  0  0  0  0  0  0
   10.9144    7.9468   22.3448 C   0  0  0  0  0  0  0  0  0  0  0  0
   10.6737    8.4887   21.0868 C   0  0  0  0  0  0  0  0  0  0  0  0
    9.4256    8.3343   20.5099 C   0  0  0  0  0  0  0  0  0  0  0  0
    8.4283    7.6229   21.1858 C   0  0  0  0  0  0  0  0  0  0  0  0
    8.6351    7.0221   22.4603 C   0  0  0  0  0  0  0  0  0  0  0  0
    2.3509    6.6318   18.7733 N   0  0  0  0  0  0  0  0  0  0  0  0
    3.5401    6.3234   19.3667 C   0  0  0  0  0  0  0  0  0  0  0  0
    4.5424    6.1698   18.6826 O   0  0  0  0  0  0  0  0  0  0  0  0
    3.4268    6.2165   20.7251 N   0  0  0  0  0  0  0  0  0  0  0  0
    2.3011    6.7365   17.7956 H   0  0  0  0  0  0  0  0  0  0  0  0
    1.5425    6.7497   19.3227 H   0  0  0  0  0  0  0  0  0  0  0  0
    2.5319    6.3516   21.1126 H   0  0  0  0  0  0  0  0  0  0  0  0
    3.3752    4.0160   22.9356 C   0  0  0  0  0  0  0  0  0  0  0  0
    2.5018    3.7852   21.9101 N   0  0  0  0  0  0  0  0  0  0  0  0
    3.2499    3.4760   24.0314 O   0  0  0  0  0  0  0  0  0  0  0  0
    2.6304    4.2342   21.0434 H   0  0  0  0  0  0  0  0  0  0  0  0
    1.7439    3.1699   22.0380 H   0  0  0  0  0  0  0  0  0  0  0  0
 16 17  1  0
 17 18  2  0
 17 19  1  0
 19  1  1  0
  1  2  2  0
  2  3  1  0
  3  6  1  0
  6  7  2  0
  7  8  1  0
  8  9  2  0
  9 10  1  0
 10 11  2  0
 11 12  1  0
 12 13  2  0
 13 14  1  0
 14 15  2  0
  3  4  1  0
  4  5  2  0
  5 23  1  0
 23 24  1  0
 23 25  2  0
  5  1  1  0
 15  6  1  0
 15 10  1  0
 16 20  1  0
 16 21  1  0
 19 22  1  0
 24 26  1  0
 24 27  1  0
M  END
> <minimizedAffinity>
-8.17822

> <CNNscore>
0.9305915833

> <CNNaffinity>
6.9449334145

> <CNN_VS>
6.4628963470

> <CNNaffinity_variance>
0.2748440802

$$$$



 27 29  0  0  0  0  0  0  0  0999 V2000
    4.5048    5.5955   21.0400 C   0  0  0  0  0  0  0  0  0  0  0  0
    5.5378    5.8975   21.8894 C   0  0  0  0  0  0  0  0  0  0  0  0
    6.4792    6.6132   21.1750 N   0  0  0  0  0  0  0  0  0  0  0  0
    6.0787    6.7814   19.8875 N   0  0  0  0  0  0  0  0  0  0  0  0
    4.8871    6.1624   19.8004 C   0  0  0  0  0  0  0  0  0  0  0  0
    7.7548    7.0713   21.6463 C   0  0  0  0  0  0  0  0  0  0  0  0
    8.3962    8.0757   20.8910 C   0  0  0  0  0  0  0  0  0  0  0  0
    9.6007    8.6264   21.3118 C   0  0  0  0  0  0  0  0  0  0  0  0
   10.1859    8.1854   22.4905 C   0  0  0  0  0  0  0  0  0  0  0  0
    9.5941    7.1746   23.2586 C   0  0  0  0  0  0  0  0  0  0  0  0
   10.2482    6.7568   24.4308 C   0  0  0  0  0  0  0  0  0  0  0  0
    9.7358    5.7322   25.2193 C   0  0  0  0  0  0  0  0  0  0  0  0
    8.5648    5.1027   24.8358 C   0  0  0  0  0  0  0  0  0  0  0  0
    7.9011    5.5126   23.6744 C   0  0  0  0  0  0  0  0  0  0  0  0
    8.3676    6.5772   22.8514 C   0  0  0  0  0  0  0  0  0  0  0  0
    1.9150    3.4455   22.3093 N   0  0  0  0  0  0  0  0  0  0  0  0
    3.1673    3.9871   22.3142 C   0  0  0  0  0  0  0  0  0  0  0  0
    3.9769    3.6462   23.1653 O   0  0  0  0  0  0  0  0  0  0  0  0
    3.3407    4.8957   21.3072 N   0  0  0  0  0  0  0  0  0  0  0  0
    1.6655    2.7762   22.9869 H   0  0  0  0  0  0  0  0  0  0  0  0
    1.2609    3.7239   21.6282 H   0  0  0  0  0  0  0  0  0  0  0  0
    2.5692    5.0674   20.7202 H   0  0  0  0  0  0  0  0  0  0  0  0
    4.1311    6.1099   18.5446 C   0  0  0  0  0  0  0  0  0  0  0  0
    2.8675    6.6253   18.6195 N   0  0  0  0  0  0  0  0  0  0  0  0
    4.5871    5.6537   17.4995 O   0  0  0  0  0  0  0  0  0  0  0  0
    2.5318    6.9834   19.4729 H   0  0  0  0  0  0  0  0  0  0  0  0
    2.2930    6.6385   17.8201 H   0  0  0  0  0  0  0  0  0  0  0  0
 16 17  1  0
 17 18  2  0
 17 19  1  0
 19  1  1  0
  1  2  2  0
  2  3  1  0
  3  6  1  0
  6  7  2  0
  7  8  1  0
  8  9  2  0
  9 10  1  0
 10 11  2  0
 11 12  1  0
 12 13  2  0
 13 14  1  0
 14 15  2  0
  3  4  1  0
  4  5  2  0
  5 23  1  0
 23 24  1  0
 23 25  2  0
  5  1  1  0
 15  6  1  0
 15 10  1  0
 16 20  1  0
 16 21  1  0
 19 22  1  0
 24 26  1  0
 24 27  1  0
M  END
> <minimizedAffinity>
-7.74011

> <CNNscore>
0.8664382696

> <CNNaffinity>
6.8841018677

> <CNN_VS>
5.9646492004

> <CNNaffinity_variance>
0.3433808088

$$$$



 27 29  0  0  0  0  0  0  0  0999 V2000
    6.3444    4.6428   23.6439 C   0  0  0  0  0  0  0  0  0  0  0  0
    7.0916    3.9752   24.5797 C   0  0  0  0  0  0  0  0  0  0  0  0
    8.2750    4.6674   24.7504 N   0  0  0  0  0  0  0  0  0  0  0  0
    8.3089    5.7647   23.9496 N   0  0  0  0  0  0  0  0  0  0  0  0
    7.1450    5.7504   23.2745 C   0  0  0  0  0  0  0  0  0  0  0  0
    9.3838    4.2895   25.5790 C   0  0  0  0  0  0  0  0  0  0  0  0
   10.6770    4.5737   25.0914 C   0  0  0  0  0  0  0  0  0  0  0  0
   11.8045    4.3052   25.8580 C   0  0  0  0  0  0  0  0  0  0  0  0
   11.6625    3.7490   27.1216 C   0  0  0  0  0  0  0  0  0  0  0  0
   10.3987    3.4306   27.6347 C   0  0  0  0  0  0  0  0  0  0  0  0
   10.3237    2.8487   28.9122 C   0  0  0  0  0  0  0  0  0  0  0  0
    9.1044    2.4729   29.4657 C   0  0  0  0  0  0  0  0  0  0  0  0
    7.9425    2.6643   28.7391 C   0  0  0  0  0  0  0  0  0  0  0  0
    8.0028    3.2474   27.4687 C   0  0  0  0  0  0  0  0  0  0  0  0
    9.2222    3.6783   26.8722 C   0  0  0  0  0  0  0  0  0  0  0  0
    2.9570    3.5586   23.1047 N   0  0  0  0  0  0  0  0  0  0  0  0
    4.0650    3.7756   23.8708 C   0  0  0  0  0  0  0  0  0  0  0  0
    4.0519    3.4867   25.0593 O   0  0  0  0  0  0  0  0  0  0  0  0
    5.0893    4.3271   23.1525 N   0  0  0  0  0  0  0  0  0  0  0  0
    2.1497    3.1641   23.5073 H   0  0  0  0  0  0  0  0  0  0  0  0
    2.9647    3.7964   22.1494 H   0  0  0  0  0  0  0  0  0  0  0  0
    4.9192    4.5166   22.2015 H   0  0  0  0  0  0  0  0  0  0  0  0
    6.8103    6.7801   22.2850 C   0  0  0  0  0  0  0  0  0  0  0  0
    7.8883    7.4350   21.7589 N   0  0  0  0  0  0  0  0  0  0  0  0
    5.6603    7.0361   21.9384 O   0  0  0  0  0  0  0  0  0  0  0  0
    8.7978    7.2059   22.0584 H   0  0  0  0  0  0  0  0  0  0  0  0
    7.7555    8.1360   21.0805 H   0  0  0  0  0  0  0  0  0  0  0  0
 16 17  1  0
 17 18  2  0
 17 19  1  0
 19  1  1  0
  1  2  2  0
  2  3  1  0
  3  6  1  0
  6  7  2  0
  7  8  1  0
  8  9  2  0
  9 10  1  0
 10 11  2  0
 11 12  1  0
 12 13  2  0
 13 14  1  0
 14 15  2  0
  3  4  1  0
  4  5  2  0
  5 23  1  0
 23 24  1  0
 23 25  2  0
  5  1  1  0
 15  6  1  0
 15 10  1  0
 16 20  1  0
 16 21  1  0
 19 22  1  0
 24 26  1  0
 24 27  1  0
M  END
> <minimizedAffinity>
-6.94016

> <CNNscore>
0.8412287235

> <CNNaffinity>
6.2927689552

> <CNN_VS>
5.2936577797

> <CNNaffinity_variance>
0.3231110871

$$$$



 27 29  0  0  0  0  0  0  0  0999 V2000
    6.7898    4.1036   24.5316 C   0  0  0  0  0  0  0  0  0  0  0  0
    6.9695    3.1499   25.5000 C   0  0  0  0  0  0  0  0  0  0  0  0
    8.1154    3.4691   26.2027 N   0  0  0  0  0  0  0  0  0  0  0  0
    8.6779    4.6049   25.7129 N   0  0  0  0  0  0  0  0  0  0  0  0
    7.8819    4.9889   24.6982 C   0  0  0  0  0  0  0  0  0  0  0  0
    8.7220    2.7069   27.2562 C   0  0  0  0  0  0  0  0  0  0  0  0
    8.1015    2.7533   28.5226 C   0  0  0  0  0  0  0  0  0  0  0  0
    8.5810    1.9916   29.5813 C   0  0  0  0  0  0  0  0  0  0  0  0
    9.6861    1.1725   29.3964 C   0  0  0  0  0  0  0  0  0  0  0  0
   10.3453    1.1139   28.1619 C   0  0  0  0  0  0  0  0  0  0  0  0
   11.4722    0.2814   28.0455 C   0  0  0  0  0  0  0  0  0  0  0  0
   12.1960    0.2051   26.8604 C   0  0  0  0  0  0  0  0  0  0  0  0
   11.8065    0.9736   25.7777 C   0  0  0  0  0  0  0  0  0  0  0  0
   10.6836    1.8021   25.8788 C   0  0  0  0  0  0  0  0  0  0  0  0
    9.8911    1.8908   27.0588 C   0  0  0  0  0  0  0  0  0  0  0  0
    3.7131    4.0627   22.6680 N   0  0  0  0  0  0  0  0  0  0  0  0
    4.4656    3.8807   23.7914 C   0  0  0  0  0  0  0  0  0  0  0  0
    3.9398    3.4794   24.8204 O   0  0  0  0  0  0  0  0  0  0  0  0
    5.7793    4.2023   23.5906 N   0  0  0  0  0  0  0  0  0  0  0  0
    2.7487    3.8654   22.6842 H   0  0  0  0  0  0  0  0  0  0  0  0
    4.1345    4.3914   21.8412 H   0  0  0  0  0  0  0  0  0  0  0  0
    6.0286    4.5335   22.6976 H   0  0  0  0  0  0  0  0  0  0  0  0
    8.1697    6.1832   23.8966 C   0  0  0  0  0  0  0  0  0  0  0  0
    9.0174    7.0758   24.4902 N   0  0  0  0  0  0  0  0  0  0  0  0
    7.7036    6.3740   22.7765 O   0  0  0  0  0  0  0  0  0  0  0  0
    9.3737    6.8930   25.3896 H   0  0  0  0  0  0  0  0  0  0  0  0
    9.2718    7.9016   24.0184 H   0  0  0  0  0  0  0  0  0  0  0  0
 16 17  1  0
 17 18  2  0
 17 19  1  0
 19  1  1  0
  1  2  2  0
  2  3  1  0
  3  6  1  0
  6  7  2  0
  7  8  1  0
  8  9  2  0
  9 10  1  0
 10 11  2  0
 11 12  1  0
 12 13  2  0
 13 14  1  0
 14 15  2  0
  3  4  1  0
  4  5  2  0
  5 23  1  0
 23 24  1  0
 23 25  2  0
  5  1  1  0
 15  6  1  0
 15 10  1  0
 16 20  1  0
 16 21  1  0
 19 22  1  0
 24 26  1  0
 24 27  1  0
M  END
> <minimizedAffinity>
-6.11104

> <CNNscore>
0.7724136710

> <CNNaffinity>
6.1037573814

> <CNN_VS>
4.7146258354

> <CNNaffinity_variance>
0.2145932466

$$$$



 27 29  0  0  0  0  0  0  0  0999 V2000
    7.0681    4.9042   22.9250 C   0  0  0  0  0  0  0  0  0  0  0  0
    8.0794    4.5196   23.7671 C   0  0  0  0  0  0  0  0  0  0  0  0
    7.5072    3.9090   24.8664 N   0  0  0  0  0  0  0  0  0  0  0  0
    6.1532    3.8891   24.7536 N   0  0  0  0  0  0  0  0  0  0  0  0
    5.8833    4.4951   23.5830 C   0  0  0  0  0  0  0  0  0  0  0  0
    8.1859    3.4183   26.0315 C   0  0  0  0  0  0  0  0  0  0  0  0
    7.4162    2.6948   26.9669 C   0  0  0  0  0  0  0  0  0  0  0  0
    8.0059    2.1244   28.0885 C   0  0  0  0  0  0  0  0  0  0  0  0
    9.3708    2.2658   28.2969 C   0  0  0  0  0  0  0  0  0  0  0  0
   10.1676    2.9949   27.4051 C   0  0  0  0  0  0  0  0  0  0  0  0
   11.5397    3.1199   27.6844 C   0  0  0  0  0  0  0  0  0  0  0  0
   12.3809    3.8615   26.8619 C   0  0  0  0  0  0  0  0  0  0  0  0
   11.8544    4.4997   25.7528 C   0  0  0  0  0  0  0  0  0  0  0  0
   10.4915    4.3788   25.4607 C   0  0  0  0  0  0  0  0  0  0  0  0
    9.5958    3.6053   26.2530 C   0  0  0  0  0  0  0  0  0  0  0  0
    7.6201    7.1634   20.1805 N   0  0  0  0  0  0  0  0  0  0  0  0
    7.6973    6.7865   21.4895 C   0  0  0  0  0  0  0  0  0  0  0  0
    8.2152    7.5313   22.3101 O   0  0  0  0  0  0  0  0  0  0  0  0
    7.1571    5.5488   21.7031 N   0  0  0  0  0  0  0  0  0  0  0  0
    7.9757    8.0369   19.8980 H   0  0  0  0  0  0  0  0  0  0  0  0
    7.2089    6.5619   19.5185 H   0  0  0  0  0  0  0  0  0  0  0  0
    6.7996    5.0738   20.9183 H   0  0  0  0  0  0  0  0  0  0  0  0
    4.5088    4.6849   23.1073 C   0  0  0  0  0  0  0  0  0  0  0  0
    3.6628    3.6480   23.3847 N   0  0  0  0  0  0  0  0  0  0  0  0
    4.1309    5.6932   22.5168 O   0  0  0  0  0  0  0  0  0  0  0  0
    3.9974    2.8533   23.8599 H   0  0  0  0  0  0  0  0  0  0  0  0
    2.7188    3.6957   23.1093 H   0  0  0  0  0  0  0  0  0  0  0  0
 16 17  1  0
 17 18  2  0
 17 19  1  0
 19  1  1  0
  1  2  2  0
  2  3  1  0
  3  6  1  0
  6  7  2  0
  7  8  1  0
  8  9  2  0
  9 10  1  0
 10 11  2  0
 11 12  1  0
 12 13  2  0
 13 14  1  0
 14 15  2  0
  3  4  1  0
  4  5  2  0
  5 23  1  0
 23 24  1  0
 23 25  2  0
  5  1  1  0
 15  6  1  0
 15 10  1  0
 16 20  1  0
 16 21  1  0
 19 22  1  0
 24 26  1  0
 24 27  1  0
M  END
> <minimizedAffinity>
-6.23402

> <CNNscore>
0.6379458904

> <CNNaffinity>
6.3715858459

> <CNN_VS>
4.0647268295

> <CNNaffinity_variance>
0.5394598842

$$$$



 27 29  0  0  0  0  0  0  0  0999 V2000
    7.2872    4.6201   23.2290 C   0  0  0  0  0  0  0  0  0  0  0  0
    8.5494    4.5685   23.7619 C   0  0  0  0  0  0  0  0  0  0  0  0
    8.4507    4.0454   25.0368 N   0  0  0  0  0  0  0  0  0  0  0  0
    7.1576    3.7573   25.3386 N   0  0  0  0  0  0  0  0  0  0  0  0
    6.4498    4.1086   24.2494 C   0  0  0  0  0  0  0  0  0  0  0  0
    9.5137    3.8808   25.9865 C   0  0  0  0  0  0  0  0  0  0  0  0
   10.8173    4.2048   25.5549 C   0  0  0  0  0  0  0  0  0  0  0  0
   11.8957    4.1412   26.4290 C   0  0  0  0  0  0  0  0  0  0  0  0
   11.6935    3.7534   27.7462 C   0  0  0  0  0  0  0  0  0  0  0  0
   10.4194    3.4017   28.2099 C   0  0  0  0  0  0  0  0  0  0  0  0
   10.2846    2.9962   29.5492 C   0  0  0  0  0  0  0  0  0  0  0  0
    9.0559    2.5971   30.0641 C   0  0  0  0  0  0  0  0  0  0  0  0
    7.9458    2.5872   29.2381 C   0  0  0  0  0  0  0  0  0  0  0  0
    8.0655    2.9936   27.9047 C   0  0  0  0  0  0  0  0  0  0  0  0
    9.2936    3.4411   27.3394 C   0  0  0  0  0  0  0  0  0  0  0  0
    6.5090    6.4856   20.2532 N   0  0  0  0  0  0  0  0  0  0  0  0
    7.0073    6.3482   21.5159 C   0  0  0  0  0  0  0  0  0  0  0  0
    7.4910    7.3139   22.0901 O   0  0  0  0  0  0  0  0  0  0  0  0
    6.8926    5.0671   21.9797 N   0  0  0  0  0  0  0  0  0  0  0  0
    6.5334    7.3629   19.8071 H   0  0  0  0  0  0  0  0  0  0  0  0
    6.1251    5.7074   19.7882 H   0  0  0  0  0  0  0  0  0  0  0  0
    6.4941    4.4037   21.3711 H   0  0  0  0  0  0  0  0  0  0  0  0
    4.9915    3.9623   24.1924 C   0  0  0  0  0  0  0  0  0  0  0  0
    4.3819    4.7132   23.2268 N   0  0  0  0  0  0  0  0  0  0  0  0
    4.3569    3.2202   24.9372 O   0  0  0  0  0  0  0  0  0  0  0  0
    4.9196    5.2984   22.6457 H   0  0  0  0  0  0  0  0  0  0  0  0
    3.4051    4.6689   23.1122 H   0  0  0  0  0  0  0  0  0  0  0  0
 16 17  1  0
 17 18  2  0
 17 19  1  0
 19  1  1  0
  1  2  2  0
  2  3  1  0
  3  6  1  0
  6  7  2  0
  7  8  1  0
  8  9  2  0
  9 10  1  0
 10 11  2  0
 11 12  1  0
 12 13  2  0
 13 14  1  0
 14 15  2  0
  3  4  1  0
  4  5  2  0
  5 23  1  0
 23 24  1  0
 23 25  2  0
  5  1  1  0
 15  6  1  0
 15 10  1  0
 16 20  1  0
 16 21  1  0
 19 22  1  0
 24 26  1  0
 24 27  1  0
M  END
> <minimizedAffinity>
-6.50838

> <CNNscore>
0.6108419895

> <CNNaffinity>
6.2560710907

> <CNN_VS>
3.8214709759

> <CNNaffinity_variance>
0.4511386454

$$$$
