


 35 37  0  0  0  0  0  0  0  0999 V2000
   45.2921    9.8081   -0.1841 C   0  0  0  0  0  0  0  0  0  0  0  0
   44.7870   10.0149   -1.4679 C   0  0  0  0  0  0  0  0  0  0  0  0
   44.4004   11.2919   -1.8887 C   0  0  0  0  0  0  0  0  0  0  0  0
   43.7471   11.5050   -3.4668 Cl  0  0  0  0  0  0  0  0  0  0  0  0
   44.5387   12.3947   -1.0519 C   0  0  0  0  0  0  0  0  0  0  0  0
   45.0787   12.2211    0.2212 C   0  0  0  0  0  0  0  0  0  0  0  0
   45.4656   10.9361    0.6346 C   0  0  0  0  0  0  0  0  0  0  0  0
   45.2571   13.3640    1.1133 C   0  0  0  0  0  0  0  0  0  0  0  0
   44.3874   14.8035    0.7926 S   0  0  0  0  0  0  0  0  0  0  0  0
   45.0246   15.6028    2.1754 C   0  0  0  0  0  0  0  0  0  0  0  0
   45.9203   14.7824    2.8416 C   0  0  0  0  0  0  0  0  0  0  0  0
   46.0298   13.4978    2.2445 C   0  0  0  0  0  0  0  0  0  0  0  0
   47.1061   12.1295    2.9882 Br  0  0  0  0  0  0  0  0  0  0  0  0
   44.6364   16.9537    2.5144 C   0  0  0  0  0  0  0  0  0  0  0  0
   44.5053   17.9053    1.7579 O   0  0  0  0  0  0  0  0  0  0  0  0
   44.3870   17.1257    3.8319 O   0  0  0  0  0  0  0  0  0  0  0  0
   44.4829   16.4064    4.4247 H   0  0  0  0  0  0  0  0  0  0  0  0
   46.5147   15.1476    4.0028 O   0  0  0  0  0  0  0  0  0  0  0  0
   47.6024   16.0474    3.7848 C   0  0  0  0  0  0  0  0  0  0  0  0
   47.5922   17.1339    4.8415 C   0  0  0  0  0  0  0  0  0  0  0  0
   46.6636   17.4896    5.5483 O   0  0  0  0  0  0  0  0  0  0  0  0
   48.7967   17.7351    4.9621 O   0  0  0  0  0  0  0  0  0  0  0  0
   49.5119   17.4641    4.4207 H   0  0  0  0  0  0  0  0  0  0  0  0
   45.7453    8.5767    0.2855 N   0  0  0  0  0  0  0  0  0  0  0  0
   45.1965    7.7763    0.1199 H   0  0  0  0  0  0  0  0  0  0  0  0
   49.6308    6.6788   -0.4813 C   0  0  0  0  0  0  0  0  0  0  0  0
   49.5028    7.9230    0.4219 C   0  0  0  0  0  0  0  0  0  0  0  0
   50.7224    8.8228    0.1170 C   0  0  0  0  0  0  0  0  0  0  0  0
   48.2058    8.7040    0.0866 C   0  0  0  0  0  0  0  0  0  0  0  0
   47.0081    8.4264    1.0172 C   0  0  0  0  0  0  0  0  0  0  0  0
   47.0496    7.0078    1.6009 C   0  0  0  0  0  0  0  0  0  0  0  0
   48.3141    6.7498    2.4501 C   0  0  0  0  0  0  0  0  0  0  0  0
   48.6081    5.2360    2.4729 C   0  0  0  0  0  0  0  0  0  0  0  0
   48.0508    7.1791    3.9116 C   0  0  0  0  0  0  0  0  0  0  0  0
   49.5391    7.5423    1.9215 C   0  0  0  0  0  0  0  0  0  0  0  0
 26 27  1  0
 27 28  1  0
 27 29  1  0
 29 30  1  0
 30 24  1  0
 24  1  1  0
  1  2  2  0
  2  3  1  0
  3  4  1  0
  3  5  2  0
  5  6  1  0
  6  8  1  0
  8  9  1  0
  9 10  1  0
 10 14  1  0
 14 15  2  0
 14 16  1  0
 10 11  2  0
 11 18  1  0
 18 19  1  0
 19 20  1  0
 20 21  2  0
 20 22  1  0
 11 12  1  0
 12 13  1  0
  6  7  2  0
 30 31  1  0
 31 32  1  0
 32 33  1  0
 32 34  1  0
 32 35  1  0
 35 27  1  0
  7  1  1  0
 12  8  2  0
 24 25  1  0
 16 17  1  0
 22 23  1  0
M  END
> <minimizedAffinity>
-8.54639

> <CNNscore>
0.8892096281

> <CNNaffinity>
7.0395736694

> <CNN_VS>
6.2596569061

> <CNNaffinity_variance>
0.0637631491

$$$$



 35 37  0  0  0  0  0  0  0  0999 V2000
   44.8464   12.1620   -2.2135 C   0  0  0  0  0  0  0  0  0  0  0  0
   44.5132   10.8595   -1.8417 C   0  0  0  0  0  0  0  0  0  0  0  0
   44.4313   10.4981   -0.4926 C   0  0  0  0  0  0  0  0  0  0  0  0
   44.0533    8.8730   -0.0698 Cl  0  0  0  0  0  0  0  0  0  0  0  0
   44.6477   11.4333    0.5143 C   0  0  0  0  0  0  0  0  0  0  0  0
   44.9423   12.7512    0.1690 C   0  0  0  0  0  0  0  0  0  0  0  0
   45.0207   13.1054   -1.1876 C   0  0  0  0  0  0  0  0  0  0  0  0
   45.1519   13.7600    1.2045 C   0  0  0  0  0  0  0  0  0  0  0  0
   44.1767   15.1673    1.1934 S   0  0  0  0  0  0  0  0  0  0  0  0
   44.9123   15.7968    2.6146 C   0  0  0  0  0  0  0  0  0  0  0  0
   45.9163   14.9514    3.0578 C   0  0  0  0  0  0  0  0  0  0  0  0
   46.0313   13.7793    2.2631 C   0  0  0  0  0  0  0  0  0  0  0  0
   47.2524   12.3944    2.6812 Br  0  0  0  0  0  0  0  0  0  0  0  0
   44.4897   17.0530    3.1924 C   0  0  0  0  0  0  0  0  0  0  0  0
   44.2680   17.2965    4.3700 O   0  0  0  0  0  0  0  0  0  0  0  0
   44.3535   18.0434    2.2824 O   0  0  0  0  0  0  0  0  0  0  0  0
   44.5197   17.8730    1.3761 H   0  0  0  0  0  0  0  0  0  0  0  0
   46.6093   15.1822    4.1987 O   0  0  0  0  0  0  0  0  0  0  0  0
   47.7849   15.9577    3.9604 C   0  0  0  0  0  0  0  0  0  0  0  0
   47.8215   17.1419    4.9057 C   0  0  0  0  0  0  0  0  0  0  0  0
   48.7015   17.9770    5.0346 O   0  0  0  0  0  0  0  0  0  0  0  0
   46.7054   17.2197    5.6642 O   0  0  0  0  0  0  0  0  0  0  0  0
   46.0278   16.5799    5.5675 H   0  0  0  0  0  0  0  0  0  0  0  0
   44.8955   12.6069   -3.5333 N   0  0  0  0  0  0  0  0  0  0  0  0
   45.4301   12.0976   -4.1845 H   0  0  0  0  0  0  0  0  0  0  0  0
   43.9858   16.5674   -1.8677 C   0  0  0  0  0  0  0  0  0  0  0  0
   44.1507   16.3470   -3.3857 C   0  0  0  0  0  0  0  0  0  0  0  0
   44.9096   17.5767   -3.9351 C   0  0  0  0  0  0  0  0  0  0  0  0
   44.9922   15.0736   -3.6595 C   0  0  0  0  0  0  0  0  0  0  0  0
   44.1815   13.8043   -3.9904 C   0  0  0  0  0  0  0  0  0  0  0  0
   42.7998   13.8138   -3.3229 C   0  0  0  0  0  0  0  0  0  0  0  0
   41.9265   15.0043   -3.7777 C   0  0  0  0  0  0  0  0  0  0  0  0
   40.8844   15.3144   -2.6839 C   0  0  0  0  0  0  0  0  0  0  0  0
   41.1407   14.6118   -5.0496 C   0  0  0  0  0  0  0  0  0  0  0  0
   42.7800   16.2598   -4.0991 C   0  0  0  0  0  0  0  0  0  0  0  0
 26 27  1  0
 27 28  1  0
 27 29  1  0
 29 30  1  0
 30 24  1  0
 24  1  1  0
  1  2  2  0
  2  3  1  0
  3  4  1  0
  3  5  2  0
  5  6  1  0
  6  8  1  0
  8  9  1  0
  9 10  1  0
 10 14  1  0
 14 15  2  0
 14 16  1  0
 10 11  2  0
 11 18  1  0
 18 19  1  0
 19 20  1  0
 20 21  2  0
 20 22  1  0
 11 12  1  0
 12 13  1  0
  6  7  2  0
 30 31  1  0
 31 32  1  0
 32 33  1  0
 32 34  1  0
 32 35  1  0
 35 27  1  0
  7  1  1  0
 12  8  2  0
 24 25  1  0
 16 17  1  0
 22 23  1  0
M  END
> <minimizedAffinity>
-8.48686

> <CNNscore>
0.8870001435

> <CNNaffinity>
7.1691517830

> <CNN_VS>
6.3590388298

> <CNNaffinity_variance>
0.1705298573

$$$$



 35 37  0  0  0  0  0  0  0  0999 V2000
   47.4248    9.8463    0.7188 C   0  0  0  0  0  0  0  0  0  0  0  0
   46.3676    9.0790    0.2296 C   0  0  0  0  0  0  0  0  0  0  0  0
   45.0694    9.5978    0.1781 C   0  0  0  0  0  0  0  0  0  0  0  0
   43.7821    8.6107   -0.3973 Cl  0  0  0  0  0  0  0  0  0  0  0  0
   44.8021   10.9018    0.5822 C   0  0  0  0  0  0  0  0  0  0  0  0
   45.8483   11.7028    1.0369 C   0  0  0  0  0  0  0  0  0  0  0  0
   47.1485   11.1743    1.0836 C   0  0  0  0  0  0  0  0  0  0  0  0
   45.6018   13.0832    1.4462 C   0  0  0  0  0  0  0  0  0  0  0  0
   44.5570   14.0506    0.4956 S   0  0  0  0  0  0  0  0  0  0  0  0
   44.7106   15.4049    1.5441 C   0  0  0  0  0  0  0  0  0  0  0  0
   45.5842   15.1205    2.5810 C   0  0  0  0  0  0  0  0  0  0  0  0
   46.0700   13.7862    2.5330 C   0  0  0  0  0  0  0  0  0  0  0  0
   47.2071   13.0793    3.8713 Br  0  0  0  0  0  0  0  0  0  0  0  0
   44.0010   16.6396    1.2943 C   0  0  0  0  0  0  0  0  0  0  0  0
   44.0816   17.6872    1.9198 O   0  0  0  0  0  0  0  0  0  0  0  0
   43.1773   16.5780    0.2241 O   0  0  0  0  0  0  0  0  0  0  0  0
   43.1043   15.7825   -0.2657 H   0  0  0  0  0  0  0  0  0  0  0  0
   45.8300   15.9964    3.5847 O   0  0  0  0  0  0  0  0  0  0  0  0
   47.0259   16.7440    3.3588 C   0  0  0  0  0  0  0  0  0  0  0  0
   47.5752   17.2487    4.6781 C   0  0  0  0  0  0  0  0  0  0  0  0
   48.7299   17.5264    4.9574 O   0  0  0  0  0  0  0  0  0  0  0  0
   46.6066   17.3878    5.6105 O   0  0  0  0  0  0  0  0  0  0  0  0
   45.7188   17.1754    5.3991 H   0  0  0  0  0  0  0  0  0  0  0  0
   48.7499    9.4159    0.7513 N   0  0  0  0  0  0  0  0  0  0  0  0
   49.4584   10.0455    0.4850 H   0  0  0  0  0  0  0  0  0  0  0  0
   51.1766    7.6653    3.9659 C   0  0  0  0  0  0  0  0  0  0  0  0
   49.9774    6.9107    3.3555 C   0  0  0  0  0  0  0  0  0  0  0  0
   49.2600    6.1947    4.5229 C   0  0  0  0  0  0  0  0  0  0  0  0
   48.9903    7.9075    2.6947 C   0  0  0  0  0  0  0  0  0  0  0  0
   49.1305    8.0613    1.1668 C   0  0  0  0  0  0  0  0  0  0  0  0
   50.5678    7.8082    0.6925 C   0  0  0  0  0  0  0  0  0  0  0  0
   51.0613    6.3816    1.0213 C   0  0  0  0  0  0  0  0  0  0  0  0
   52.6013    6.3855    1.1045 C   0  0  0  0  0  0  0  0  0  0  0  0
   50.6752    5.4240   -0.1292 C   0  0  0  0  0  0  0  0  0  0  0  0
   50.4386    5.8415    2.3360 C   0  0  0  0  0  0  0  0  0  0  0  0
 26 27  1  0
 27 28  1  0
 27 29  1  0
 29 30  1  0
 30 24  1  0
 24  1  1  0
  1  2  2  0
  2  3  1  0
  3  4  1  0
  3  5  2  0
  5  6  1  0
  6  8  1  0
  8  9  1  0
  9 10  1  0
 10 14  1  0
 14 15  2  0
 14 16  1  0
 10 11  2  0
 11 18  1  0
 18 19  1  0
 19 20  1  0
 20 21  2  0
 20 22  1  0
 11 12  1  0
 12 13  1  0
  6  7  2  0
 30 31  1  0
 31 32  1  0
 32 33  1  0
 32 34  1  0
 32 35  1  0
 35 27  1  0
  7  1  1  0
 12  8  2  0
 24 25  1  0
 16 17  1  0
 22 23  1  0
M  END
> <minimizedAffinity>
-8.54772

> <CNNscore>
0.8830265403

> <CNNaffinity>
7.0079193115

> <CNN_VS>
6.1881785393

> <CNNaffinity_variance>
0.1324045211

$$$$



 35 37  0  0  0  0  0  0  0  0999 V2000
   46.7883   10.6125   -2.0020 C   0  0  0  0  0  0  0  0  0  0  0  0
   45.8551    9.5813   -1.8943 C   0  0  0  0  0  0  0  0  0  0  0  0
   44.8000    9.6622   -0.9792 C   0  0  0  0  0  0  0  0  0  0  0  0
   43.6877    8.3554   -0.8470 Cl  0  0  0  0  0  0  0  0  0  0  0  0
   44.6333   10.7852   -0.1752 C   0  0  0  0  0  0  0  0  0  0  0  0
   45.5287   11.8469   -0.2925 C   0  0  0  0  0  0  0  0  0  0  0  0
   46.5838   11.7577   -1.2149 C   0  0  0  0  0  0  0  0  0  0  0  0
   45.3655   13.0483    0.5222 C   0  0  0  0  0  0  0  0  0  0  0  0
   44.4250   14.3399   -0.0932 S   0  0  0  0  0  0  0  0  0  0  0  0
   44.6365   15.2883    1.3256 C   0  0  0  0  0  0  0  0  0  0  0  0
   45.4511   14.6309    2.2330 C   0  0  0  0  0  0  0  0  0  0  0  0
   45.8435   13.3431    1.7788 C   0  0  0  0  0  0  0  0  0  0  0  0
   46.8806   12.1718    2.8447 Br  0  0  0  0  0  0  0  0  0  0  0  0
   44.0244   16.5910    1.4631 C   0  0  0  0  0  0  0  0  0  0  0  0
   42.8313   16.8584    1.4737 O   0  0  0  0  0  0  0  0  0  0  0  0
   44.9209   17.5923    1.6087 O   0  0  0  0  0  0  0  0  0  0  0  0
   45.8388   17.4039    1.6028 H   0  0  0  0  0  0  0  0  0  0  0  0
   45.7224   15.1325    3.4618 O   0  0  0  0  0  0  0  0  0  0  0  0
   46.9681   15.8309    3.4891 C   0  0  0  0  0  0  0  0  0  0  0  0
   46.8201   17.1178    4.2761 C   0  0  0  0  0  0  0  0  0  0  0  0
   46.6406   18.2464    3.8491 O   0  0  0  0  0  0  0  0  0  0  0  0
   46.9037   16.9093    5.6090 O   0  0  0  0  0  0  0  0  0  0  0  0
   47.0415   16.0437    5.9401 H   0  0  0  0  0  0  0  0  0  0  0  0
   47.8324   10.6249   -2.9250 N   0  0  0  0  0  0  0  0  0  0  0  0
   47.7315   11.1585   -3.7461 H   0  0  0  0  0  0  0  0  0  0  0  0
   48.8880    6.5220   -1.7677 C   0  0  0  0  0  0  0  0  0  0  0  0
   49.7973    7.3617   -2.6886 C   0  0  0  0  0  0  0  0  0  0  0  0
   50.3454    6.4020   -3.7696 C   0  0  0  0  0  0  0  0  0  0  0  0
   48.9795    8.4832   -3.3801 C   0  0  0  0  0  0  0  0  0  0  0  0
   49.0761    9.8737   -2.7209 C   0  0  0  0  0  0  0  0  0  0  0  0
   49.3274    9.7781   -1.2101 C   0  0  0  0  0  0  0  0  0  0  0  0
   50.6503    9.0560   -0.8706 C   0  0  0  0  0  0  0  0  0  0  0  0
   50.5499    8.4555    0.5463 C   0  0  0  0  0  0  0  0  0  0  0  0
   51.8062   10.0821   -0.8436 C   0  0  0  0  0  0  0  0  0  0  0  0
   50.9956    7.9588   -1.9123 C   0  0  0  0  0  0  0  0  0  0  0  0
 26 27  1  0
 27 28  1  0
 27 29  1  0
 29 30  1  0
 30 24  1  0
 24  1  1  0
  1  2  2  0
  2  3  1  0
  3  4  1  0
  3  5  2  0
  5  6  1  0
  6  8  1  0
  8  9  1  0
  9 10  1  0
 10 14  1  0
 14 15  2  0
 14 16  1  0
 10 11  2  0
 11 18  1  0
 18 19  1  0
 19 20  1  0
 20 21  2  0
 20 22  1  0
 11 12  1  0
 12 13  1  0
  6  7  2  0
 30 31  1  0
 31 32  1  0
 32 33  1  0
 32 34  1  0
 32 35  1  0
 35 27  1  0
  7  1  1  0
 12  8  2  0
 24 25  1  0
 16 17  1  0
 22 23  1  0
M  END
> <minimizedAffinity>
-7.07345

> <CNNscore>
0.7759966850

> <CNNaffinity>
6.6559257507

> <CNN_VS>
5.1649761200

> <CNNaffinity_variance>
0.1408696324

$$$$



 35 37  0  0  0  0  0  0  0  0999 V2000
   44.3780   12.0489   -2.1481 C   0  0  0  0  0  0  0  0  0  0  0  0
   44.2487   10.7215   -1.7394 C   0  0  0  0  0  0  0  0  0  0  0  0
   44.4373   10.3624   -0.4004 C   0  0  0  0  0  0  0  0  0  0  0  0
   44.3061    8.7098    0.0627 Cl  0  0  0  0  0  0  0  0  0  0  0  0
   44.7266   11.3214    0.5649 C   0  0  0  0  0  0  0  0  0  0  0  0
   44.8210   12.6603    0.1892 C   0  0  0  0  0  0  0  0  0  0  0  0
   44.6285   13.0119   -1.1567 C   0  0  0  0  0  0  0  0  0  0  0  0
   45.1009   13.6921    1.1846 C   0  0  0  0  0  0  0  0  0  0  0  0
   44.1886   15.1404    1.1494 S   0  0  0  0  0  0  0  0  0  0  0  0
   44.9870   15.7825    2.5305 C   0  0  0  0  0  0  0  0  0  0  0  0
   45.9638   14.9080    2.9778 C   0  0  0  0  0  0  0  0  0  0  0  0
   46.0070   13.7065    2.2206 C   0  0  0  0  0  0  0  0  0  0  0  0
   47.1763   12.2829    2.6559 Br  0  0  0  0  0  0  0  0  0  0  0  0
   44.6348   17.0746    3.0755 C   0  0  0  0  0  0  0  0  0  0  0  0
   44.4941   17.3757    4.2522 O   0  0  0  0  0  0  0  0  0  0  0  0
   44.4679   18.0277    2.1314 O   0  0  0  0  0  0  0  0  0  0  0  0
   44.5722   17.8130    1.2253 H   0  0  0  0  0  0  0  0  0  0  0  0
   46.6951   15.1447    4.0933 O   0  0  0  0  0  0  0  0  0  0  0  0
   47.8435   15.9480    3.8171 C   0  0  0  0  0  0  0  0  0  0  0  0
   47.8926   17.1228    4.7734 C   0  0  0  0  0  0  0  0  0  0  0  0
   48.7228   18.0150    4.8298 O   0  0  0  0  0  0  0  0  0  0  0  0
   46.8535   17.1167    5.6378 O   0  0  0  0  0  0  0  0  0  0  0  0
   46.2143   16.4329    5.5970 H   0  0  0  0  0  0  0  0  0  0  0  0
   44.1537   12.4879   -3.4516 N   0  0  0  0  0  0  0  0  0  0  0  0
   43.2977   12.9261   -3.6625 H   0  0  0  0  0  0  0  0  0  0  0  0
   45.2922   14.7049   -7.0677 C   0  0  0  0  0  0  0  0  0  0  0  0
   46.3154   13.8582   -6.2826 C   0  0  0  0  0  0  0  0  0  0  0  0
   47.6429   14.6504   -6.2819 C   0  0  0  0  0  0  0  0  0  0  0  0
   45.8458   13.6629   -4.8177 C   0  0  0  0  0  0  0  0  0  0  0  0
   45.1434   12.3225   -4.5221 C   0  0  0  0  0  0  0  0  0  0  0  0
   44.4169   11.7693   -5.7554 C   0  0  0  0  0  0  0  0  0  0  0  0
   45.3735   11.4943   -6.9369 C   0  0  0  0  0  0  0  0  0  0  0  0
   44.5777   11.5536   -8.2567 C   0  0  0  0  0  0  0  0  0  0  0  0
   45.9419   10.0616   -6.8182 C   0  0  0  0  0  0  0  0  0  0  0  0
   46.5627   12.4908   -6.9639 C   0  0  0  0  0  0  0  0  0  0  0  0
 26 27  1  0
 27 28  1  0
 27 29  1  0
 29 30  1  0
 30 24  1  0
 24  1  1  0
  1  2  2  0
  2  3  1  0
  3  4  1  0
  3  5  2  0
  5  6  1  0
  6  8  1  0
  8  9  1  0
  9 10  1  0
 10 14  1  0
 14 15  2  0
 14 16  1  0
 10 11  2  0
 11 18  1  0
 18 19  1  0
 19 20  1  0
 20 21  2  0
 20 22  1  0
 11 12  1  0
 12 13  1  0
  6  7  2  0
 30 31  1  0
 31 32  1  0
 32 33  1  0
 32 34  1  0
 32 35  1  0
 35 27  1  0
  7  1  1  0
 12  8  2  0
 24 25  1  0
 16 17  1  0
 22 23  1  0
M  END
> <minimizedAffinity>
-7.52632

> <CNNscore>
0.7752837539

> <CNNaffinity>
6.5253658295

> <CNN_VS>
5.0590100288

> <CNNaffinity_variance>
0.1595461220

$$$$



 35 37  0  0  0  0  0  0  0  0999 V2000
   44.5764   12.0565   -2.0928 C   0  0  0  0  0  0  0  0  0  0  0  0
   44.4057   10.7285   -1.7016 C   0  0  0  0  0  0  0  0  0  0  0  0
   44.5090   10.3588   -0.3563 C   0  0  0  0  0  0  0  0  0  0  0  0
   44.3289    8.7054    0.0868 Cl  0  0  0  0  0  0  0  0  0  0  0  0
   44.7524   11.3080    0.6312 C   0  0  0  0  0  0  0  0  0  0  0  0
   44.8864   12.6478    0.2709 C   0  0  0  0  0  0  0  0  0  0  0  0
   44.7794   13.0101   -1.0816 C   0  0  0  0  0  0  0  0  0  0  0  0
   45.1195   13.6697    1.2884 C   0  0  0  0  0  0  0  0  0  0  0  0
   44.2059   15.1165    1.2279 S   0  0  0  0  0  0  0  0  0  0  0  0
   44.9409   15.7457    2.6494 C   0  0  0  0  0  0  0  0  0  0  0  0
   45.8993   14.8686    3.1304 C   0  0  0  0  0  0  0  0  0  0  0  0
   45.9789   13.6753    2.3634 C   0  0  0  0  0  0  0  0  0  0  0  0
   47.1315   12.2496    2.8352 Br  0  0  0  0  0  0  0  0  0  0  0  0
   44.5617   17.0313    3.1917 C   0  0  0  0  0  0  0  0  0  0  0  0
   44.5206   18.1053    2.6086 O   0  0  0  0  0  0  0  0  0  0  0  0
   44.2063   16.9802    4.4951 O   0  0  0  0  0  0  0  0  0  0  0  0
   44.2324   16.1649    4.9561 H   0  0  0  0  0  0  0  0  0  0  0  0
   46.5801   15.0953    4.2794 O   0  0  0  0  0  0  0  0  0  0  0  0
   46.7685   16.4904    4.5209 C   0  0  0  0  0  0  0  0  0  0  0  0
   48.2104   16.8703    4.2492 C   0  0  0  0  0  0  0  0  0  0  0  0
   48.9193   16.5228    3.3191 O   0  0  0  0  0  0  0  0  0  0  0  0
   48.7021   17.7023    5.1941 O   0  0  0  0  0  0  0  0  0  0  0  0
   48.1601   17.9710    5.9097 H   0  0  0  0  0  0  0  0  0  0  0  0
   44.4364   12.5063   -3.4044 N   0  0  0  0  0  0  0  0  0  0  0  0
   45.1254   13.1034   -3.7757 H   0  0  0  0  0  0  0  0  0  0  0  0
   41.1337    9.6225   -3.1516 C   0  0  0  0  0  0  0  0  0  0  0  0
   40.9908   10.9499   -3.9247 C   0  0  0  0  0  0  0  0  0  0  0  0
   39.5639   11.4762   -3.6473 C   0  0  0  0  0  0  0  0  0  0  0  0
   42.0191   11.9899   -3.4092 C   0  0  0  0  0  0  0  0  0  0  0  0
   43.3023   12.1248   -4.2535 C   0  0  0  0  0  0  0  0  0  0  0  0
   43.6643   10.8136   -4.9638 C   0  0  0  0  0  0  0  0  0  0  0  0
   42.5636   10.3409   -5.9394 C   0  0  0  0  0  0  0  0  0  0  0  0
   42.6726    8.8136   -6.1236 C   0  0  0  0  0  0  0  0  0  0  0  0
   42.7957   10.9793   -7.3279 C   0  0  0  0  0  0  0  0  0  0  0  0
   41.1456   10.7383   -5.4500 C   0  0  0  0  0  0  0  0  0  0  0  0
 26 27  1  0
 27 28  1  0
 27 29  1  0
 29 30  1  0
 30 24  1  0
 24  1  1  0
  1  2  2  0
  2  3  1  0
  3  4  1  0
  3  5  2  0
  5  6  1  0
  6  8  1  0
  8  9  1  0
  9 10  1  0
 10 14  1  0
 14 15  2  0
 14 16  1  0
 10 11  2  0
 11 18  1  0
 18 19  1  0
 19 20  1  0
 20 21  2  0
 20 22  1  0
 11 12  1  0
 12 13  1  0
  6  7  2  0
 30 31  1  0
 31 32  1  0
 32 33  1  0
 32 34  1  0
 32 35  1  0
 35 27  1  0
  7  1  1  0
 12  8  2  0
 24 25  1  0
 16 17  1  0
 22 23  1  0
M  END
> <minimizedAffinity>
-7.83102

> <CNNscore>
0.7406236529

> <CNNaffinity>
6.5963730812

> <CNN_VS>
4.8854298592

> <CNNaffinity_variance>
0.1597999185

$$$$



 35 37  0  0  0  0  0  0  0  0999 V2000
   44.4978   12.3661   -2.0235 C   0  0  0  0  0  0  0  0  0  0  0  0
   44.3111   11.0119   -1.7458 C   0  0  0  0  0  0  0  0  0  0  0  0
   44.4370   10.5240   -0.4407 C   0  0  0  0  0  0  0  0  0  0  0  0
   44.2359    8.8413   -0.1395 Cl  0  0  0  0  0  0  0  0  0  0  0  0
   44.7195   11.3788    0.6199 C   0  0  0  0  0  0  0  0  0  0  0  0
   44.8705   12.7426    0.3749 C   0  0  0  0  0  0  0  0  0  0  0  0
   44.7407   13.2238   -0.9380 C   0  0  0  0  0  0  0  0  0  0  0  0
   45.1448   13.6674    1.4719 C   0  0  0  0  0  0  0  0  0  0  0  0
   44.2631   15.1327    1.5546 S   0  0  0  0  0  0  0  0  0  0  0  0
   45.0376   15.6209    3.0103 C   0  0  0  0  0  0  0  0  0  0  0  0
   45.9845   14.6855    3.3946 C   0  0  0  0  0  0  0  0  0  0  0  0
   46.0234   13.5618    2.5261 C   0  0  0  0  0  0  0  0  0  0  0  0
   47.1519   12.0768    2.8501 Br  0  0  0  0  0  0  0  0  0  0  0  0
   44.6973   16.8622    3.6689 C   0  0  0  0  0  0  0  0  0  0  0  0
   44.2640   17.0120    4.8025 O   0  0  0  0  0  0  0  0  0  0  0  0
   44.9169   17.9540    2.9025 O   0  0  0  0  0  0  0  0  0  0  0  0
   45.2487   17.8561    2.0317 H   0  0  0  0  0  0  0  0  0  0  0  0
   46.6907   14.7974    4.5452 O   0  0  0  0  0  0  0  0  0  0  0  0
   46.8337   16.1590    4.9524 C   0  0  0  0  0  0  0  0  0  0  0  0
   48.1007   16.7435    4.3608 C   0  0  0  0  0  0  0  0  0  0  0  0
   48.5202   16.6352    3.2203 O   0  0  0  0  0  0  0  0  0  0  0  0
   48.7974   17.4650    5.2669 O   0  0  0  0  0  0  0  0  0  0  0  0
   48.4779   17.5501    6.1436 H   0  0  0  0  0  0  0  0  0  0  0  0
   44.3374   12.9314   -3.2872 N   0  0  0  0  0  0  0  0  0  0  0  0
   43.7231   12.4997   -3.9239 H   0  0  0  0  0  0  0  0  0  0  0  0
   43.1992   16.8851   -4.8235 C   0  0  0  0  0  0  0  0  0  0  0  0
   44.4800   16.6802   -3.9882 C   0  0  0  0  0  0  0  0  0  0  0  0
   44.6031   17.9049   -3.0529 C   0  0  0  0  0  0  0  0  0  0  0  0
   44.3633   15.3977   -3.1243 C   0  0  0  0  0  0  0  0  0  0  0  0
   45.0483   14.1447   -3.7058 C   0  0  0  0  0  0  0  0  0  0  0  0
   45.0817   14.1668   -5.2399 C   0  0  0  0  0  0  0  0  0  0  0  0
   45.8631   15.3754   -5.8015 C   0  0  0  0  0  0  0  0  0  0  0  0
   45.3573   15.6880   -7.2245 C   0  0  0  0  0  0  0  0  0  0  0  0
   47.3598   15.0095   -5.9261 C   0  0  0  0  0  0  0  0  0  0  0  0
   45.7397   16.6218   -4.8853 C   0  0  0  0  0  0  0  0  0  0  0  0
 26 27  1  0
 27 28  1  0
 27 29  1  0
 29 30  1  0
 30 24  1  0
 24  1  1  0
  1  2  2  0
  2  3  1  0
  3  4  1  0
  3  5  2  0
  5  6  1  0
  6  8  1  0
  8  9  1  0
  9 10  1  0
 10 14  1  0
 14 15  2  0
 14 16  1  0
 10 11  2  0
 11 18  1  0
 18 19  1  0
 19 20  1  0
 20 21  2  0
 20 22  1  0
 11 12  1  0
 12 13  1  0
  6  7  2  0
 30 31  1  0
 31 32  1  0
 32 33  1  0
 32 34  1  0
 32 35  1  0
 35 27  1  0
  7  1  1  0
 12  8  2  0
 24 25  1  0
 16 17  1  0
 22 23  1  0
M  END
> <minimizedAffinity>
-8.00160

> <CNNscore>
0.6820168495

> <CNNaffinity>
6.4774055481

> <CNN_VS>
4.4176998138

> <CNNaffinity_variance>
0.0379958898

$$$$



 35 37  0  0  0  0  0  0  0  0999 V2000
   45.4463    9.5348    0.0694 C   0  0  0  0  0  0  0  0  0  0  0  0
   46.4729    8.9015    0.7700 C   0  0  0  0  0  0  0  0  0  0  0  0
   47.2499    9.6065    1.6955 C   0  0  0  0  0  0  0  0  0  0  0  0
   48.5322    8.8029    2.5155 Cl  0  0  0  0  0  0  0  0  0  0  0  0
   47.0003   10.9480    1.9665 C   0  0  0  0  0  0  0  0  0  0  0  0
   45.9539   11.5932    1.3096 C   0  0  0  0  0  0  0  0  0  0  0  0
   45.1781   10.8773    0.3835 C   0  0  0  0  0  0  0  0  0  0  0  0
   45.6537   12.9949    1.5907 C   0  0  0  0  0  0  0  0  0  0  0  0
   44.6158   13.8448    0.5269 S   0  0  0  0  0  0  0  0  0  0  0  0
   44.6936   15.2873    1.4597 C   0  0  0  0  0  0  0  0  0  0  0  0
   45.5379   15.1195    2.5452 C   0  0  0  0  0  0  0  0  0  0  0  0
   46.0630   13.8019    2.6278 C   0  0  0  0  0  0  0  0  0  0  0  0
   47.1719   13.2473    4.0583 Br  0  0  0  0  0  0  0  0  0  0  0  0
   43.9582   16.4735    1.0817 C   0  0  0  0  0  0  0  0  0  0  0  0
   43.8358   17.5107    1.7176 O   0  0  0  0  0  0  0  0  0  0  0  0
   43.3694   16.3759   -0.1313 O   0  0  0  0  0  0  0  0  0  0  0  0
   43.4538   15.5878   -0.6310 H   0  0  0  0  0  0  0  0  0  0  0  0
   45.7229   16.0847    3.4776 O   0  0  0  0  0  0  0  0  0  0  0  0
   47.0131   16.6882    3.3710 C   0  0  0  0  0  0  0  0  0  0  0  0
   47.4351   17.2434    4.7167 C   0  0  0  0  0  0  0  0  0  0  0  0
   46.7677   17.3463    5.7328 O   0  0  0  0  0  0  0  0  0  0  0  0
   48.7239   17.6507    4.7155 O   0  0  0  0  0  0  0  0  0  0  0  0
   49.2390   17.5731    3.9367 H   0  0  0  0  0  0  0  0  0  0  0  0
   44.5992    8.8857   -0.8269 N   0  0  0  0  0  0  0  0  0  0  0  0
   44.7129    7.9182   -0.9691 H   0  0  0  0  0  0  0  0  0  0  0  0
   42.1104    8.0360   -4.3442 C   0  0  0  0  0  0  0  0  0  0  0  0
   41.6076    8.9355   -3.1961 C   0  0  0  0  0  0  0  0  0  0  0  0
   40.1139    8.5969   -2.9856 C   0  0  0  0  0  0  0  0  0  0  0  0
   42.3819    8.6273   -1.8883 C   0  0  0  0  0  0  0  0  0  0  0  0
   43.5445    9.5877   -1.5668 C   0  0  0  0  0  0  0  0  0  0  0  0
   44.1716   10.1777   -2.8371 C   0  0  0  0  0  0  0  0  0  0  0  0
   43.1642   10.9977   -3.6734 C   0  0  0  0  0  0  0  0  0  0  0  0
   43.6281   11.0212   -5.1440 C   0  0  0  0  0  0  0  0  0  0  0  0
   43.1561   12.4628   -3.1805 C   0  0  0  0  0  0  0  0  0  0  0  0
   41.7223   10.4358   -3.5582 C   0  0  0  0  0  0  0  0  0  0  0  0
 26 27  1  0
 27 28  1  0
 27 29  1  0
 29 30  1  0
 30 24  1  0
 24  1  1  0
  1  2  2  0
  2  3  1  0
  3  4  1  0
  3  5  2  0
  5  6  1  0
  6  8  1  0
  8  9  1  0
  9 10  1  0
 10 14  1  0
 14 15  2  0
 14 16  1  0
 10 11  2  0
 11 18  1  0
 18 19  1  0
 19 20  1  0
 20 21  2  0
 20 22  1  0
 11 12  1  0
 12 13  1  0
  6  7  2  0
 30 31  1  0
 31 32  1  0
 32 33  1  0
 32 34  1  0
 32 35  1  0
 35 27  1  0
  7  1  1  0
 12  8  2  0
 24 25  1  0
 16 17  1  0
 22 23  1  0
M  END
> <minimizedAffinity>
-8.67706

> <CNNscore>
0.5988611579

> <CNNaffinity>
6.5493965149

> <CNN_VS>
3.9221792221

> <CNNaffinity_variance>
0.1063238457

$$$$



 35 37  0  0  0  0  0  0  0  0999 V2000
   44.6066    9.9563   -0.9167 C   0  0  0  0  0  0  0  0  0  0  0  0
   45.8795    9.4571   -1.1929 C   0  0  0  0  0  0  0  0  0  0  0  0
   47.0248   10.1662   -0.8152 C   0  0  0  0  0  0  0  0  0  0  0  0
   48.5796    9.5386   -1.2043 Cl  0  0  0  0  0  0  0  0  0  0  0  0
   46.9273   11.3710   -0.1265 C   0  0  0  0  0  0  0  0  0  0  0  0
   45.6673   11.8712    0.1974 C   0  0  0  0  0  0  0  0  0  0  0  0
   44.5231   11.1518   -0.1841 C   0  0  0  0  0  0  0  0  0  0  0  0
   45.5342   13.1221    0.9400 C   0  0  0  0  0  0  0  0  0  0  0  0
   44.5196   14.3497    0.3115 S   0  0  0  0  0  0  0  0  0  0  0  0
   44.8105   15.3968    1.6441 C   0  0  0  0  0  0  0  0  0  0  0  0
   45.7053   14.8192    2.5302 C   0  0  0  0  0  0  0  0  0  0  0  0
   46.0952   13.5114    2.1350 C   0  0  0  0  0  0  0  0  0  0  0  0
   47.2360   12.4364    3.1964 Br  0  0  0  0  0  0  0  0  0  0  0  0
   44.1781   16.6935    1.7397 C   0  0  0  0  0  0  0  0  0  0  0  0
   44.6105   17.6969    2.2886 O   0  0  0  0  0  0  0  0  0  0  0  0
   42.9779   16.7521    1.1201 O   0  0  0  0  0  0  0  0  0  0  0  0
   42.6327   15.9919    0.6948 H   0  0  0  0  0  0  0  0  0  0  0  0
   46.0530   15.4089    3.6991 O   0  0  0  0  0  0  0  0  0  0  0  0
   47.3207   16.0611    3.6106 C   0  0  0  0  0  0  0  0  0  0  0  0
   47.3904   17.1910    4.6184 C   0  0  0  0  0  0  0  0  0  0  0  0
   48.3804   17.6720    5.1446 O   0  0  0  0  0  0  0  0  0  0  0  0
   46.1661   17.6784    4.9190 O   0  0  0  0  0  0  0  0  0  0  0  0
   45.4038   17.3111    4.5165 H   0  0  0  0  0  0  0  0  0  0  0  0
   43.4239    9.2822   -1.2151 N   0  0  0  0  0  0  0  0  0  0  0  0
   42.9524    8.8110   -0.4906 H   0  0  0  0  0  0  0  0  0  0  0  0
   41.0433   12.0032   -3.7083 C   0  0  0  0  0  0  0  0  0  0  0  0
   42.0298   10.9924   -4.3290 C   0  0  0  0  0  0  0  0  0  0  0  0
   42.7183   11.7103   -5.5124 C   0  0  0  0  0  0  0  0  0  0  0  0
   43.1087   10.5832   -3.2930 C   0  0  0  0  0  0  0  0  0  0  0  0
   42.8541    9.2471   -2.5666 C   0  0  0  0  0  0  0  0  0  0  0  0
   41.3564    8.9374   -2.4397 C   0  0  0  0  0  0  0  0  0  0  0  0
   40.6552    8.8140   -3.8107 C   0  0  0  0  0  0  0  0  0  0  0  0
   39.1543    9.1254   -3.6413 C   0  0  0  0  0  0  0  0  0  0  0  0
   40.7584    7.3560   -4.3138 C   0  0  0  0  0  0  0  0  0  0  0  0
   41.2955    9.7443   -4.8750 C   0  0  0  0  0  0  0  0  0  0  0  0
 26 27  1  0
 27 28  1  0
 27 29  1  0
 29 30  1  0
 30 24  1  0
 24  1  1  0
  1  2  2  0
  2  3  1  0
  3  4  1  0
  3  5  2  0
  5  6  1  0
  6  8  1  0
  8  9  1  0
  9 10  1  0
 10 14  1  0
 14 15  2  0
 14 16  1  0
 10 11  2  0
 11 18  1  0
 18 19  1  0
 19 20  1  0
 20 21  2  0
 20 22  1  0
 11 12  1  0
 12 13  1  0
  6  7  2  0
 30 31  1  0
 31 32  1  0
 32 33  1  0
 32 34  1  0
 32 35  1  0
 35 27  1  0
  7  1  1  0
 12  8  2  0
 24 25  1  0
 16 17  1  0
 22 23  1  0
M  END
> <minimizedAffinity>
-8.01762

> <CNNscore>
0.3823059201

> <CNNaffinity>
6.1600875854

> <CNN_VS>
2.3550379276

> <CNNaffinity_variance>
0.2877495885

$$$$
