


 28 31  0  0  0  0  0  0  0  0999 V2000
   13.9501   -2.1693   10.9638 C   0  0  0  0  0  0  0  0  0  0  0  0
   13.0544   -1.1929   10.6757 N   0  0  0  0  0  0  0  0  0  0  0  0
   13.4484   -0.1291    9.9464 C   0  0  0  0  0  0  0  0  0  0  0  0
   14.6569    0.1079    9.4329 N   0  0  0  0  0  0  0  0  0  0  0  0
   15.5071   -0.8869    9.7124 C   0  0  0  0  0  0  0  0  0  0  0  0
   16.7997   -0.8763    9.2952 O   0  0  0  0  0  0  0  0  0  0  0  0
   17.3945   -2.0268    9.7320 C   0  0  0  0  0  0  0  0  0  0  0  0
   16.4731   -2.7783   10.4495 C   0  0  0  0  0  0  0  0  0  0  0  0
   15.2483   -2.0372   10.4411 C   0  0  0  0  0  0  0  0  0  0  0  0
   18.7948   -2.1734    9.3351 C   0  0  0  0  0  0  0  0  0  0  0  0
   19.3632   -1.3560    8.3453 C   0  0  0  0  0  0  0  0  0  0  0  0
   20.7013   -1.5121    7.9711 C   0  0  0  0  0  0  0  0  0  0  0  0
   21.4781   -2.4831    8.5890 C   0  0  0  0  0  0  0  0  0  0  0  0
   22.7595   -2.6320    8.2291 F   0  0  0  0  0  0  0  0  0  0  0  0
   20.9444   -3.2990    9.5769 C   0  0  0  0  0  0  0  0  0  0  0  0
   19.6068   -3.1427    9.9499 C   0  0  0  0  0  0  0  0  0  0  0  0
   16.7655   -4.0491   11.0824 C   0  0  0  0  0  0  0  0  0  0  0  0
   17.0291   -4.1133   12.4557 C   0  0  0  0  0  0  0  0  0  0  0  0
   17.2972   -5.3427   13.0601 C   0  0  0  0  0  0  0  0  0  0  0  0
   17.2988   -6.5103   12.2977 C   0  0  0  0  0  0  0  0  0  0  0  0
   17.0328   -6.4524   10.9303 C   0  0  0  0  0  0  0  0  0  0  0  0
   16.7661   -5.2248   10.3222 C   0  0  0  0  0  0  0  0  0  0  0  0
   13.5535   -3.2636   11.7285 N   0  0  0  0  0  0  0  0  0  0  0  0
   14.1937   -3.9755   11.9580 H   0  0  0  0  0  0  0  0  0  0  0  0
   12.1624   -3.3322   12.1838 C   0  0  0  0  0  0  0  0  0  0  0  0
   10.6473   -2.2226   13.7681 O   0  0  0  0  0  0  0  0  0  0  0  0
   11.9805   -2.6809   13.5627 C   0  0  0  0  0  0  0  0  0  0  0  0
   10.5758   -1.8195   14.6475 H   0  0  0  0  0  0  0  0  0  0  0  0
 26 27  1  0
 27 25  1  0
 25 23  1  0
 23  1  1  0
  1  2  2  0
  2  3  1  0
  3  4  2  0
  4  5  1  0
  5  6  1  0
  6  7  1  0
  7 10  1  0
 10 11  2  0
 11 12  1  0
 12 13  2  0
 13 14  1  0
 13 15  1  0
 15 16  2  0
  7  8  2  0
  8 17  1  0
 17 18  2  0
 18 19  1  0
 19 20  2  0
 20 21  1  0
 21 22  2  0
  8  9  1  0
  9  1  1  0
  9  5  2  0
 16 10  1  0
 22 17  1  0
 26 28  1  0
 23 24  1  0
M  END
> <minimizedAffinity>
-8.25175

> <CNNscore>
0.9141827226

> <CNNaffinity>
6.9077148438

> <CNN_VS>
6.3149137497

> <CNNaffinity_variance>
0.0612271912

$$$$



 28 31  0  0  0  0  0  0  0  0999 V2000
   14.9352   -1.7462   10.3766 C   0  0  0  0  0  0  0  0  0  0  0  0
   14.3816   -0.6252    9.8517 N   0  0  0  0  0  0  0  0  0  0  0  0
   15.1730    0.2764    9.2358 C   0  0  0  0  0  0  0  0  0  0  0  0
   16.4931    0.2150    9.0515 N   0  0  0  0  0  0  0  0  0  0  0  0
   17.0019   -0.9150    9.5564 C   0  0  0  0  0  0  0  0  0  0  0  0
   18.3266   -1.2082    9.4902 O   0  0  0  0  0  0  0  0  0  0  0  0
   18.5206   -2.4246   10.0825 C   0  0  0  0  0  0  0  0  0  0  0  0
   17.3050   -2.9109   10.5454 C   0  0  0  0  0  0  0  0  0  0  0  0
   16.3187   -1.9297   10.2082 C   0  0  0  0  0  0  0  0  0  0  0  0
   19.9064   -2.8924   10.0660 C   0  0  0  0  0  0  0  0  0  0  0  0
   20.5455   -3.2420    8.8658 C   0  0  0  0  0  0  0  0  0  0  0  0
   21.8685   -3.6942    8.8660 C   0  0  0  0  0  0  0  0  0  0  0  0
   22.5598   -3.7939   10.0660 C   0  0  0  0  0  0  0  0  0  0  0  0
   23.8268   -4.2279   10.0648 F   0  0  0  0  0  0  0  0  0  0  0  0
   21.9555   -3.4465   11.2663 C   0  0  0  0  0  0  0  0  0  0  0  0
   20.6330   -2.9952   11.2654 C   0  0  0  0  0  0  0  0  0  0  0  0
   17.1381   -4.1666   11.2500 C   0  0  0  0  0  0  0  0  0  0  0  0
   17.0873   -4.1937   12.6486 C   0  0  0  0  0  0  0  0  0  0  0  0
   16.9136   -5.4055   13.3193 C   0  0  0  0  0  0  0  0  0  0  0  0
   16.7859   -6.5915   12.5972 C   0  0  0  0  0  0  0  0  0  0  0  0
   16.8316   -6.5696   11.2038 C   0  0  0  0  0  0  0  0  0  0  0  0
   17.0070   -5.3601   10.5298 C   0  0  0  0  0  0  0  0  0  0  0  0
   14.1257   -2.6745   11.0265 N   0  0  0  0  0  0  0  0  0  0  0  0
   13.7364   -3.4338   10.5352 H   0  0  0  0  0  0  0  0  0  0  0  0
   13.8660   -2.4963   12.4576 C   0  0  0  0  0  0  0  0  0  0  0  0
   11.9227   -2.0530   13.8942 O   0  0  0  0  0  0  0  0  0  0  0  0
   12.6054   -1.6557   12.7085 C   0  0  0  0  0  0  0  0  0  0  0  0
   11.1356   -1.4991   14.0151 H   0  0  0  0  0  0  0  0  0  0  0  0
 26 27  1  0
 27 25  1  0
 25 23  1  0
 23  1  1  0
  1  2  2  0
  2  3  1  0
  3  4  2  0
  4  5  1  0
  5  6  1  0
  6  7  1  0
  7 10  1  0
 10 11  2  0
 11 12  1  0
 12 13  2  0
 13 14  1  0
 13 15  1  0
 15 16  2  0
  7  8  2  0
  8 17  1  0
 17 18  2  0
 18 19  1  0
 19 20  2  0
 20 21  1  0
 21 22  2  0
  8  9  1  0
  9  1  1  0
  9  5  2  0
 16 10  1  0
 22 17  1  0
 26 28  1  0
 23 24  1  0
M  END
> <minimizedAffinity>
-7.93820

> <CNNscore>
0.8690401912

> <CNNaffinity>
6.6382489204

> <CNN_VS>
5.7689051628

> <CNNaffinity_variance>
0.0404777527

$$$$



 28 31  0  0  0  0  0  0  0  0999 V2000
   18.5213   -2.6237    9.5459 C   0  0  0  0  0  0  0  0  0  0  0  0
   19.0533   -1.7268    8.6792 N   0  0  0  0  0  0  0  0  0  0  0  0
   18.3144   -0.6692    8.2866 C   0  0  0  0  0  0  0  0  0  0  0  0
   17.0706   -0.3581    8.6564 N   0  0  0  0  0  0  0  0  0  0  0  0
   16.5873   -1.2474    9.5316 C   0  0  0  0  0  0  0  0  0  0  0  0
   15.3388   -1.1449   10.0567 O   0  0  0  0  0  0  0  0  0  0  0  0
   15.1535   -2.1926   10.9146 C   0  0  0  0  0  0  0  0  0  0  0  0
   16.2947   -2.9838   10.9291 C   0  0  0  0  0  0  0  0  0  0  0  0
   17.2249   -2.3735   10.0283 C   0  0  0  0  0  0  0  0  0  0  0  0
   13.8529   -2.2049   11.5840 C   0  0  0  0  0  0  0  0  0  0  0  0
   13.1693   -3.4061   11.8306 C   0  0  0  0  0  0  0  0  0  0  0  0
   11.9235   -3.4020   12.4654 C   0  0  0  0  0  0  0  0  0  0  0  0
   11.3584   -2.1970   12.8608 C   0  0  0  0  0  0  0  0  0  0  0  0
   10.1647   -2.1945   13.4680 F   0  0  0  0  0  0  0  0  0  0  0  0
   12.0163   -0.9953   12.6376 C   0  0  0  0  0  0  0  0  0  0  0  0
   13.2611   -1.0001   12.0026 C   0  0  0  0  0  0  0  0  0  0  0  0
   16.4426   -4.1966   11.7090 C   0  0  0  0  0  0  0  0  0  0  0  0
   16.3727   -5.4504   11.0905 C   0  0  0  0  0  0  0  0  0  0  0  0
   16.5289   -6.6134   11.8466 C   0  0  0  0  0  0  0  0  0  0  0  0
   16.7593   -6.5286   13.2192 C   0  0  0  0  0  0  0  0  0  0  0  0
   16.8340   -5.2821   13.8396 C   0  0  0  0  0  0  0  0  0  0  0  0
   16.6765   -4.1172   13.0872 C   0  0  0  0  0  0  0  0  0  0  0  0
   19.2738   -3.7258    9.9444 N   0  0  0  0  0  0  0  0  0  0  0  0
   18.9182   -4.6389    9.8489 H   0  0  0  0  0  0  0  0  0  0  0  0
   20.6064   -3.4964   10.5090 C   0  0  0  0  0  0  0  0  0  0  0  0
   21.2676   -4.1024    8.2216 O   0  0  0  0  0  0  0  0  0  0  0  0
   21.6886   -3.4570    9.4200 C   0  0  0  0  0  0  0  0  0  0  0  0
   21.9775   -4.0551    7.5624 H   0  0  0  0  0  0  0  0  0  0  0  0
 26 27  1  0
 27 25  1  0
 25 23  1  0
 23  1  1  0
  1  2  2  0
  2  3  1  0
  3  4  2  0
  4  5  1  0
  5  6  1  0
  6  7  1  0
  7 10  1  0
 10 11  2  0
 11 12  1  0
 12 13  2  0
 13 14  1  0
 13 15  1  0
 15 16  2  0
  7  8  2  0
  8 17  1  0
 17 18  2  0
 18 19  1  0
 19 20  2  0
 20 21  1  0
 21 22  2  0
  8  9  1  0
  9  1  1  0
  9  5  2  0
 16 10  1  0
 22 17  1  0
 26 28  1  0
 23 24  1  0
M  END
> <minimizedAffinity>
-8.10058

> <CNNscore>
0.7660085559

> <CNNaffinity>
6.4955544472

> <CNN_VS>
4.9756503105

> <CNNaffinity_variance>
0.0585133433

$$$$



 28 31  0  0  0  0  0  0  0  0999 V2000
   13.3077   -2.2704   12.1000 C   0  0  0  0  0  0  0  0  0  0  0  0
   12.3096   -1.4015   11.8046 N   0  0  0  0  0  0  0  0  0  0  0  0
   12.5153   -0.4525   10.8687 C   0  0  0  0  0  0  0  0  0  0  0  0
   13.6174   -0.2411   10.1468 N   0  0  0  0  0  0  0  0  0  0  0  0
   14.5707   -1.1320   10.4436 C   0  0  0  0  0  0  0  0  0  0  0  0
   15.7865   -1.1237    9.8379 O   0  0  0  0  0  0  0  0  0  0  0  0
   16.5217   -2.1553   10.3511 C   0  0  0  0  0  0  0  0  0  0  0  0
   15.7705   -2.8255   11.3077 C   0  0  0  0  0  0  0  0  0  0  0  0
   14.5050   -2.1594   11.3717 C   0  0  0  0  0  0  0  0  0  0  0  0
   17.8584   -2.2930    9.7730 C   0  0  0  0  0  0  0  0  0  0  0  0
   18.3681   -1.3412    8.8757 C   0  0  0  0  0  0  0  0  0  0  0  0
   19.6450   -1.4895    8.3257 C   0  0  0  0  0  0  0  0  0  0  0  0
   20.4196   -2.5878    8.6747 C   0  0  0  0  0  0  0  0  0  0  0  0
   21.6421   -2.7289    8.1465 F   0  0  0  0  0  0  0  0  0  0  0  0
   19.9441   -3.5393    9.5663 C   0  0  0  0  0  0  0  0  0  0  0  0
   18.6677   -3.3908   10.1152 C   0  0  0  0  0  0  0  0  0  0  0  0
   16.2441   -3.9589   12.0770 C   0  0  0  0  0  0  0  0  0  0  0  0
   16.2700   -5.2390   11.5112 C   0  0  0  0  0  0  0  0  0  0  0  0
   16.7396   -6.3233   12.2544 C   0  0  0  0  0  0  0  0  0  0  0  0
   17.1881   -6.1328   13.5610 C   0  0  0  0  0  0  0  0  0  0  0  0
   17.1683   -4.8592   14.1279 C   0  0  0  0  0  0  0  0  0  0  0  0
   16.6978   -3.7730   13.3885 C   0  0  0  0  0  0  0  0  0  0  0  0
   13.1069   -3.2438   13.0756 N   0  0  0  0  0  0  0  0  0  0  0  0
   13.2467   -3.0378   14.0281 H   0  0  0  0  0  0  0  0  0  0  0  0
   12.6829   -4.5813   12.6531 C   0  0  0  0  0  0  0  0  0  0  0  0
   12.3959   -5.7038   14.8197 O   0  0  0  0  0  0  0  0  0  0  0  0
   13.1694   -5.6674   13.6238 C   0  0  0  0  0  0  0  0  0  0  0  0
   12.7350   -6.4007   15.4030 H   0  0  0  0  0  0  0  0  0  0  0  0
 26 27  1  0
 27 25  1  0
 25 23  1  0
 23  1  1  0
  1  2  2  0
  2  3  1  0
  3  4  2  0
  4  5  1  0
  5  6  1  0
  6  7  1  0
  7 10  1  0
 10 11  2  0
 11 12  1  0
 12 13  2  0
 13 14  1  0
 13 15  1  0
 15 16  2  0
  7  8  2  0
  8 17  1  0
 17 18  2  0
 18 19  1  0
 19 20  2  0
 20 21  1  0
 21 22  2  0
  8  9  1  0
  9  1  1  0
  9  5  2  0
 16 10  1  0
 22 17  1  0
 26 28  1  0
 23 24  1  0
M  END
> <minimizedAffinity>
-7.85928

> <CNNscore>
0.6227692366

> <CNNaffinity>
6.6665987968

> <CNN_VS>
4.1517524719

> <CNNaffinity_variance>
0.1235199943

$$$$



 28 31  0  0  0  0  0  0  0  0999 V2000
   18.3156   -1.5149    9.0703 C   0  0  0  0  0  0  0  0  0  0  0  0
   17.6102   -0.6204    8.3348 N   0  0  0  0  0  0  0  0  0  0  0  0
   16.3052   -0.4215    8.6103 C   0  0  0  0  0  0  0  0  0  0  0  0
   15.5719   -1.0043    9.5606 N   0  0  0  0  0  0  0  0  0  0  0  0
   16.3047   -1.8589   10.2839 C   0  0  0  0  0  0  0  0  0  0  0  0
   15.7810   -2.5741   11.3131 O   0  0  0  0  0  0  0  0  0  0  0  0
   16.7792   -3.3399   11.8471 C   0  0  0  0  0  0  0  0  0  0  0  0
   17.9553   -3.1212   11.1418 C   0  0  0  0  0  0  0  0  0  0  0  0
   17.6475   -2.1629   10.1238 C   0  0  0  0  0  0  0  0  0  0  0  0
   16.3718   -4.1543   12.9919 C   0  0  0  0  0  0  0  0  0  0  0  0
   16.6874   -3.7766   14.3067 C   0  0  0  0  0  0  0  0  0  0  0  0
   16.2973   -4.5685   15.3909 C   0  0  0  0  0  0  0  0  0  0  0  0
   15.5853   -5.7390   15.1651 C   0  0  0  0  0  0  0  0  0  0  0  0
   15.2130   -6.4970   16.2046 F   0  0  0  0  0  0  0  0  0  0  0  0
   15.2521   -6.1318   13.8762 C   0  0  0  0  0  0  0  0  0  0  0  0
   15.6428   -5.3401   12.7931 C   0  0  0  0  0  0  0  0  0  0  0  0
   19.2133   -3.7865   11.4172 C   0  0  0  0  0  0  0  0  0  0  0  0
   20.4032   -3.0526   11.4875 C   0  0  0  0  0  0  0  0  0  0  0  0
   21.6087   -3.6989   11.7659 C   0  0  0  0  0  0  0  0  0  0  0  0
   21.6297   -5.0768   11.9789 C   0  0  0  0  0  0  0  0  0  0  0  0
   20.4467   -5.8120   11.9142 C   0  0  0  0  0  0  0  0  0  0  0  0
   19.2397   -5.1694   11.6343 C   0  0  0  0  0  0  0  0  0  0  0  0
   19.6600   -1.7357    8.7818 N   0  0  0  0  0  0  0  0  0  0  0  0
   20.1669   -2.4368    9.2516 H   0  0  0  0  0  0  0  0  0  0  0  0
   20.3037   -0.9013    7.7635 C   0  0  0  0  0  0  0  0  0  0  0  0
   22.3769   -0.5464    6.4937 O   0  0  0  0  0  0  0  0  0  0  0  0
   21.7535   -1.3355    7.5029 C   0  0  0  0  0  0  0  0  0  0  0  0
   23.2877   -0.8524    6.3605 H   0  0  0  0  0  0  0  0  0  0  0  0
 26 27  1  0
 27 25  1  0
 25 23  1  0
 23  1  1  0
  1  2  2  0
  2  3  1  0
  3  4  2  0
  4  5  1  0
  5  6  1  0
  6  7  1  0
  7 10  1  0
 10 11  2  0
 11 12  1  0
 12 13  2  0
 13 14  1  0
 13 15  1  0
 15 16  2  0
  7  8  2  0
  8 17  1  0
 17 18  2  0
 18 19  1  0
 19 20  2  0
 20 21  1  0
 21 22  2  0
  8  9  1  0
  9  1  1  0
  9  5  2  0
 16 10  1  0
 22 17  1  0
 26 28  1  0
 23 24  1  0
M  END
> <minimizedAffinity>
-7.32507

> <CNNscore>
0.4779697657

> <CNNaffinity>
6.2778511047

> <CNN_VS>
3.0006229877

> <CNNaffinity_variance>
0.0562436022

$$$$



 28 31  0  0  0  0  0  0  0  0999 V2000
   18.8523   -1.3215    8.9241 C   0  0  0  0  0  0  0  0  0  0  0  0
   17.8558   -0.5557    8.4152 N   0  0  0  0  0  0  0  0  0  0  0  0
   16.5781   -0.9710    8.5319 C   0  0  0  0  0  0  0  0  0  0  0  0
   16.1300   -2.0838    9.1161 N   0  0  0  0  0  0  0  0  0  0  0  0
   17.1357   -2.8009    9.6308 C   0  0  0  0  0  0  0  0  0  0  0  0
   16.9316   -3.9771   10.2789 O   0  0  0  0  0  0  0  0  0  0  0  0
   18.1468   -4.4513   10.6872 C   0  0  0  0  0  0  0  0  0  0  0  0
   19.1436   -3.5727   10.2837 C   0  0  0  0  0  0  0  0  0  0  0  0
   18.4888   -2.5027    9.5940 C   0  0  0  0  0  0  0  0  0  0  0  0
   18.0876   -5.7104   11.4294 C   0  0  0  0  0  0  0  0  0  0  0  0
   19.2227   -6.2381   12.0650 C   0  0  0  0  0  0  0  0  0  0  0  0
   19.1529   -7.4462   12.7652 C   0  0  0  0  0  0  0  0  0  0  0  0
   17.9461   -8.1293   12.8372 C   0  0  0  0  0  0  0  0  0  0  0  0
   17.8809   -9.2868   13.5076 F   0  0  0  0  0  0  0  0  0  0  0  0
   16.8061   -7.6261   12.2258 C   0  0  0  0  0  0  0  0  0  0  0  0
   16.8769   -6.4189   11.5257 C   0  0  0  0  0  0  0  0  0  0  0  0
   20.5592   -3.7714   10.5237 C   0  0  0  0  0  0  0  0  0  0  0  0
   21.1512   -3.3032   11.7025 C   0  0  0  0  0  0  0  0  0  0  0  0
   22.5126   -3.5099   11.9319 C   0  0  0  0  0  0  0  0  0  0  0  0
   23.2850   -4.1871   10.9889 C   0  0  0  0  0  0  0  0  0  0  0  0
   22.6994   -4.6592    9.8149 C   0  0  0  0  0  0  0  0  0  0  0  0
   21.3390   -4.4528    9.5813 C   0  0  0  0  0  0  0  0  0  0  0  0
   20.1751   -0.9055    8.7945 N   0  0  0  0  0  0  0  0  0  0  0  0
   20.7328   -0.7467    9.5901 H   0  0  0  0  0  0  0  0  0  0  0  0
   20.7184   -0.7094    7.4478 C   0  0  0  0  0  0  0  0  0  0  0  0
   21.9631   -1.8069    5.6360 O   0  0  0  0  0  0  0  0  0  0  0  0
   21.6022   -1.8873    7.0119 C   0  0  0  0  0  0  0  0  0  0  0  0
   22.5189   -2.5669    5.4026 H   0  0  0  0  0  0  0  0  0  0  0  0
 26 27  1  0
 27 25  1  0
 25 23  1  0
 23  1  1  0
  1  2  2  0
  2  3  1  0
  3  4  2  0
  4  5  1  0
  5  6  1  0
  6  7  1  0
  7 10  1  0
 10 11  2  0
 11 12  1  0
 12 13  2  0
 13 14  1  0
 13 15  1  0
 15 16  2  0
  7  8  2  0
  8 17  1  0
 17 18  2  0
 18 19  1  0
 19 20  2  0
 20 21  1  0
 21 22  2  0
  8  9  1  0
  9  1  1  0
  9  5  2  0
 16 10  1  0
 22 17  1  0
 26 28  1  0
 23 24  1  0
M  END
> <minimizedAffinity>
-6.38320

> <CNNscore>
0.4613401294

> <CNNaffinity>
5.8157658577

> <CNN_VS>
2.6830461025

> <CNNaffinity_variance>
0.0936752036

$$$$



 28 31  0  0  0  0  0  0  0  0999 V2000
   21.0183   -3.4522    9.3313 C   0  0  0  0  0  0  0  0  0  0  0  0
   22.0379   -2.9774    8.5740 N   0  0  0  0  0  0  0  0  0  0  0  0
   21.8359   -1.8921    7.7995 C   0  0  0  0  0  0  0  0  0  0  0  0
   20.7179   -1.1749    7.6721 N   0  0  0  0  0  0  0  0  0  0  0  0
   19.7422   -1.6537    8.4528 C   0  0  0  0  0  0  0  0  0  0  0  0
   18.5070   -1.0905    8.4992 O   0  0  0  0  0  0  0  0  0  0  0  0
   17.7513   -1.8014    9.3891 C   0  0  0  0  0  0  0  0  0  0  0  0
   18.5096   -2.8416    9.9100 C   0  0  0  0  0  0  0  0  0  0  0  0
   19.8012   -2.7494    9.2996 C   0  0  0  0  0  0  0  0  0  0  0  0
   16.3908   -1.2950    9.5689 C   0  0  0  0  0  0  0  0  0  0  0  0
   15.3431   -2.1404    9.9673 C   0  0  0  0  0  0  0  0  0  0  0  0
   14.0461   -1.6438   10.1285 C   0  0  0  0  0  0  0  0  0  0  0  0
   13.7923   -0.2985    9.8970 C   0  0  0  0  0  0  0  0  0  0  0  0
   12.5493    0.1756   10.0512 F   0  0  0  0  0  0  0  0  0  0  0  0
   14.8110    0.5616    9.5110 C   0  0  0  0  0  0  0  0  0  0  0  0
   16.1069    0.0645    9.3495 C   0  0  0  0  0  0  0  0  0  0  0  0
   18.0203   -3.8154   10.8657 C   0  0  0  0  0  0  0  0  0  0  0  0
   18.0122   -3.5233   12.2347 C   0  0  0  0  0  0  0  0  0  0  0  0
   17.5275   -4.4615   13.1476 C   0  0  0  0  0  0  0  0  0  0  0  0
   17.0461   -5.6903   12.6973 C   0  0  0  0  0  0  0  0  0  0  0  0
   17.0481   -5.9846   11.3344 C   0  0  0  0  0  0  0  0  0  0  0  0
   17.5337   -5.0498   10.4189 C   0  0  0  0  0  0  0  0  0  0  0  0
   21.2160   -4.5811   10.1225 N   0  0  0  0  0  0  0  0  0  0  0  0
   21.1656   -5.4838    9.7328 H   0  0  0  0  0  0  0  0  0  0  0  0
   21.5008   -4.3957   11.5480 C   0  0  0  0  0  0  0  0  0  0  0  0
   23.2701   -2.9259   12.4114 O   0  0  0  0  0  0  0  0  0  0  0  0
   23.0000   -4.1880   11.8081 C   0  0  0  0  0  0  0  0  0  0  0  0
   24.2246   -2.8353   12.5581 H   0  0  0  0  0  0  0  0  0  0  0  0
 26 27  1  0
 27 25  1  0
 25 23  1  0
 23  1  1  0
  1  2  2  0
  2  3  1  0
  3  4  2  0
  4  5  1  0
  5  6  1  0
  6  7  1  0
  7 10  1  0
 10 11  2  0
 11 12  1  0
 12 13  2  0
 13 14  1  0
 13 15  1  0
 15 16  2  0
  7  8  2  0
  8 17  1  0
 17 18  2  0
 18 19  1  0
 19 20  2  0
 20 21  1  0
 21 22  2  0
  8  9  1  0
  9  1  1  0
  9  5  2  0
 16 10  1  0
 22 17  1  0
 26 28  1  0
 23 24  1  0
M  END
> <minimizedAffinity>
-8.23510

> <CNNscore>
0.4408011436

> <CNNaffinity>
5.9499650002

> <CNN_VS>
2.6227514744

> <CNNaffinity_variance>
0.1090387106

$$$$



 28 31  0  0  0  0  0  0  0  0999 V2000
   15.3612   -2.1640   10.4654 C   0  0  0  0  0  0  0  0  0  0  0  0
   15.0692   -1.2191    9.5378 N   0  0  0  0  0  0  0  0  0  0  0  0
   16.0710   -0.6477    8.8387 C   0  0  0  0  0  0  0  0  0  0  0  0
   17.3782   -0.8998    8.9283 N   0  0  0  0  0  0  0  0  0  0  0  0
   17.6279   -1.8549    9.8316 C   0  0  0  0  0  0  0  0  0  0  0  0
   18.8867   -2.2880   10.1016 O   0  0  0  0  0  0  0  0  0  0  0  0
   18.8027   -3.2643   11.0544 C   0  0  0  0  0  0  0  0  0  0  0  0
   17.4727   -3.4499   11.4082 C   0  0  0  0  0  0  0  0  0  0  0  0
   16.7093   -2.5324   10.6180 C   0  0  0  0  0  0  0  0  0  0  0  0
   20.0872   -3.8522   11.4343 C   0  0  0  0  0  0  0  0  0  0  0  0
   21.2652   -3.0886   11.4471 C   0  0  0  0  0  0  0  0  0  0  0  0
   22.4871   -3.6657   11.8058 C   0  0  0  0  0  0  0  0  0  0  0  0
   22.5353   -5.0079   12.1583 C   0  0  0  0  0  0  0  0  0  0  0  0
   23.7066   -5.5595   12.5010 F   0  0  0  0  0  0  0  0  0  0  0  0
   21.3846   -5.7841   12.1630 C   0  0  0  0  0  0  0  0  0  0  0  0
   20.1638   -5.2067   11.8038 C   0  0  0  0  0  0  0  0  0  0  0  0
   17.0138   -4.3904   12.4112 C   0  0  0  0  0  0  0  0  0  0  0  0
   16.9989   -4.0329   13.7645 C   0  0  0  0  0  0  0  0  0  0  0  0
   16.5435   -4.9398   14.7229 C   0  0  0  0  0  0  0  0  0  0  0  0
   16.0982   -6.2027   14.3338 C   0  0  0  0  0  0  0  0  0  0  0  0
   16.1071   -6.5623   12.9867 C   0  0  0  0  0  0  0  0  0  0  0  0
   16.5635   -5.6589   12.0258 C   0  0  0  0  0  0  0  0  0  0  0  0
   14.3328   -2.7478   11.2009 N   0  0  0  0  0  0  0  0  0  0  0  0
   14.5307   -3.3881   11.9221 H   0  0  0  0  0  0  0  0  0  0  0  0
   12.9495   -2.3879   10.8778 C   0  0  0  0  0  0  0  0  0  0  0  0
   11.4010   -3.0494   12.6669 O   0  0  0  0  0  0  0  0  0  0  0  0
   11.9508   -3.4271   11.4080 C   0  0  0  0  0  0  0  0  0  0  0  0
   10.7777   -3.7303   12.9649 H   0  0  0  0  0  0  0  0  0  0  0  0
 26 27  1  0
 27 25  1  0
 25 23  1  0
 23  1  1  0
  1  2  2  0
  2  3  1  0
  3  4  2  0
  4  5  1  0
  5  6  1  0
  6  7  1  0
  7 10  1  0
 10 11  2  0
 11 12  1  0
 12 13  2  0
 13 14  1  0
 13 15  1  0
 15 16  2  0
  7  8  2  0
  8 17  1  0
 17 18  2  0
 18 19  1  0
 19 20  2  0
 20 21  1  0
 21 22  2  0
  8  9  1  0
  9  1  1  0
  9  5  2  0
 16 10  1  0
 22 17  1  0
 26 28  1  0
 23 24  1  0
M  END
> <minimizedAffinity>
-7.26448

> <CNNscore>
0.3877294660

> <CNNaffinity>
6.3145480156

> <CNN_VS>
2.4483363628

> <CNNaffinity_variance>
0.0502746962

$$$$



 28 31  0  0  0  0  0  0  0  0999 V2000
   16.1634   -3.2368   10.7579 C   0  0  0  0  0  0  0  0  0  0  0  0
   16.8364   -2.7020    9.7093 N   0  0  0  0  0  0  0  0  0  0  0  0
   16.3253   -1.6272    9.0751 C   0  0  0  0  0  0  0  0  0  0  0  0
   15.1953   -0.9744    9.3531 N   0  0  0  0  0  0  0  0  0  0  0  0
   14.5716   -1.5108   10.4086 C   0  0  0  0  0  0  0  0  0  0  0  0
   13.3990   -1.0191   10.8864 O   0  0  0  0  0  0  0  0  0  0  0  0
   13.0313   -1.7750   11.9641 C   0  0  0  0  0  0  0  0  0  0  0  0
   13.9753   -2.7722   12.1712 C   0  0  0  0  0  0  0  0  0  0  0  0
   14.9738   -2.6044   11.1593 C   0  0  0  0  0  0  0  0  0  0  0  0
   11.7897   -1.3476   12.6087 C   0  0  0  0  0  0  0  0  0  0  0  0
   11.5273    0.0080   12.8630 C   0  0  0  0  0  0  0  0  0  0  0  0
   10.3391    0.4012   13.4861 C   0  0  0  0  0  0  0  0  0  0  0  0
    9.4058   -0.5591   13.8530 C   0  0  0  0  0  0  0  0  0  0  0  0
    8.2684   -0.1810   14.4505 F   0  0  0  0  0  0  0  0  0  0  0  0
    9.6353   -1.9055   13.6056 C   0  0  0  0  0  0  0  0  0  0  0  0
   10.8234   -2.2978   12.9832 C   0  0  0  0  0  0  0  0  0  0  0  0
   13.8938   -3.7756   13.2141 C   0  0  0  0  0  0  0  0  0  0  0  0
   13.2121   -4.9775   12.9901 C   0  0  0  0  0  0  0  0  0  0  0  0
   13.1490   -5.9442   13.9951 C   0  0  0  0  0  0  0  0  0  0  0  0
   13.7688   -5.7164   15.2233 C   0  0  0  0  0  0  0  0  0  0  0  0
   14.4527   -4.5227   15.4502 C   0  0  0  0  0  0  0  0  0  0  0  0
   14.5163   -3.5531   14.4483 C   0  0  0  0  0  0  0  0  0  0  0  0
   16.6784   -4.3554   11.4083 N   0  0  0  0  0  0  0  0  0  0  0  0
   16.3326   -5.2558   11.2108 H   0  0  0  0  0  0  0  0  0  0  0  0
   17.7464   -4.1627   12.3930 C   0  0  0  0  0  0  0  0  0  0  0  0
   19.1679   -4.5914   10.4354 O   0  0  0  0  0  0  0  0  0  0  0  0
   19.1072   -4.6327   11.8582 C   0  0  0  0  0  0  0  0  0  0  0  0
   20.0406   -4.8949   10.1401 H   0  0  0  0  0  0  0  0  0  0  0  0
 26 27  1  0
 27 25  1  0
 25 23  1  0
 23  1  1  0
  1  2  2  0
  2  3  1  0
  3  4  2  0
  4  5  1  0
  5  6  1  0
  6  7  1  0
  7 10  1  0
 10 11  2  0
 11 12  1  0
 12 13  2  0
 13 14  1  0
 13 15  1  0
 15 16  2  0
  7  8  2  0
  8 17  1  0
 17 18  2  0
 18 19  1  0
 19 20  2  0
 20 21  1  0
 21 22  2  0
  8  9  1  0
  9  1  1  0
  9  5  2  0
 16 10  1  0
 22 17  1  0
 26 28  1  0
 23 24  1  0
M  END
> <minimizedAffinity>
-7.89921

> <CNNscore>
0.3614926338

> <CNNaffinity>
6.2768702507

> <CNN_VS>
2.2690422535

> <CNNaffinity_variance>
0.0061124428

$$$$
