


 24 26  0  0  0  0  0  0  0  0999 V2000
  -12.4623    5.5977   14.1244 C   0  0  0  0  0  0  0  0  0  0  0  0
  -12.3314    4.1822   13.6456 C   0  0  0  0  0  0  0  0  0  0  0  0
  -12.5683    3.1459   14.4689 C   0  0  0  0  0  0  0  0  0  0  0  0
  -12.4465    1.7381   14.0277 C   0  0  0  0  0  0  0  0  0  0  0  0
  -12.6704    0.8146   14.8022 O   0  0  0  0  0  0  0  0  0  0  0  0
  -12.0779    1.5329   12.7298 N   0  0  0  0  0  0  0  0  0  0  0  0
  -11.8180    2.5706   11.8263 C   0  0  0  0  0  0  0  0  0  0  0  0
  -11.4464    2.2495   10.5171 C   0  0  0  0  0  0  0  0  0  0  0  0
  -11.1774    3.2637    9.5879 C   0  0  0  0  0  0  0  0  0  0  0  0
  -11.2951    4.5979   10.0024 C   0  0  0  0  0  0  0  0  0  0  0  0
  -11.6674    4.9157   11.3145 C   0  0  0  0  0  0  0  0  0  0  0  0
  -11.9348    3.9061   12.2465 C   0  0  0  0  0  0  0  0  0  0  0  0
  -11.9900    0.6054   12.4117 H   0  0  0  0  0  0  0  0  0  0  0  0
  -10.7950    2.9348    8.2078 C   0  0  0  0  0  0  0  0  0  0  0  0
  -10.8745    3.9330    7.2220 C   0  0  0  0  0  0  0  0  0  0  0  0
  -10.5187    3.6627    5.8960 C   0  0  0  0  0  0  0  0  0  0  0  0
  -10.6755    5.0683    4.6259 Br  0  0  0  0  0  0  0  0  0  0  0  0
  -10.0367    2.4000    5.5184 C   0  0  0  0  0  0  0  0  0  0  0  0
   -9.7943    2.0644    4.1765 N   0  0  0  0  0  0  0  0  0  0  0  0
  -10.0077    1.3912    6.4859 C   0  0  0  0  0  0  0  0  0  0  0  0
  -10.3633    1.6552    7.8155 C   0  0  0  0  0  0  0  0  0  0  0  0
  -10.2743    0.3407    8.9391 Cl  0  0  0  0  0  0  0  0  0  0  0  0
   -9.8113    2.7635    3.4835 H   0  0  0  0  0  0  0  0  0  0  0  0
   -9.6075    1.1301    3.9288 H   0  0  0  0  0  0  0  0  0  0  0  0
  1  2  1  0
  2  3  2  0
  3  4  1  0
  4  5  2  0
  4  6  1  0
  6  7  1  0
  7  8  2  0
  8  9  1  0
  9 14  1  0
 14 15  2  0
 15 16  1  0
 16 17  1  0
 16 18  2  0
 18 19  1  0
 18 20  1  0
 20 21  2  0
 21 22  1  0
  9 10  2  0
 10 11  1  0
 11 12  2  0
 12  2  1  0
 12  7  1  0
 21 14  1  0
  6 13  1  0
 19 23  1  0
 19 24  1  0
M  END
> <minimizedAffinity>
-12.02008

> <CNNscore>
0.9256862402

> <CNNaffinity>
7.1597981453

> <CNN_VS>
6.6277265549

> <CNNaffinity_variance>
0.0522375256

$$$$



 24 26  0  0  0  0  0  0  0  0999 V2000
  -12.5867    6.3785   14.0559 C   0  0  0  0  0  0  0  0  0  0  0  0
  -12.3345    4.9027   13.9626 C   0  0  0  0  0  0  0  0  0  0  0  0
  -12.4639    4.1068   15.0385 C   0  0  0  0  0  0  0  0  0  0  0  0
  -12.2209    2.6478   14.9799 C   0  0  0  0  0  0  0  0  0  0  0  0
  -12.3484    1.9482   15.9785 O   0  0  0  0  0  0  0  0  0  0  0  0
  -11.8541    2.1363   13.7690 N   0  0  0  0  0  0  0  0  0  0  0  0
  -11.7031    2.9142   12.6145 C   0  0  0  0  0  0  0  0  0  0  0  0
  -11.3230    2.2887   11.4231 C   0  0  0  0  0  0  0  0  0  0  0  0
  -11.1611    3.0379   10.2497 C   0  0  0  0  0  0  0  0  0  0  0  0
  -11.3937    4.4196   10.3019 C   0  0  0  0  0  0  0  0  0  0  0  0
  -11.7742    5.0426   11.4970 C   0  0  0  0  0  0  0  0  0  0  0  0
  -11.9348    4.2986   12.6718 C   0  0  0  0  0  0  0  0  0  0  0  0
  -11.6868    1.1683   13.7036 H   0  0  0  0  0  0  0  0  0  0  0  0
  -10.7706    2.3869    8.9917 C   0  0  0  0  0  0  0  0  0  0  0  0
  -10.3003    1.0632    9.0264 C   0  0  0  0  0  0  0  0  0  0  0  0
   -9.9193    0.4054    7.8516 C   0  0  0  0  0  0  0  0  0  0  0  0
   -9.2776   -1.3781    7.9956 Br  0  0  0  0  0  0  0  0  0  0  0  0
  -10.0305    1.0330    6.6014 C   0  0  0  0  0  0  0  0  0  0  0  0
   -9.5379    0.4455    5.4249 N   0  0  0  0  0  0  0  0  0  0  0  0
  -10.4472    2.3673    6.5704 C   0  0  0  0  0  0  0  0  0  0  0  0
  -10.8296    3.0319    7.7434 C   0  0  0  0  0  0  0  0  0  0  0  0
  -11.3479    4.6772    7.5929 Cl  0  0  0  0  0  0  0  0  0  0  0  0
   -9.2406   -0.4931    5.4306 H   0  0  0  0  0  0  0  0  0  0  0  0
   -9.4898    0.9721    4.5945 H   0  0  0  0  0  0  0  0  0  0  0  0
  1  2  1  0
  2  3  2  0
  3  4  1  0
  4  5  2  0
  4  6  1  0
  6  7  1  0
  7  8  2  0
  8  9  1  0
  9 14  1  0
 14 15  2  0
 15 16  1  0
 16 17  1  0
 16 18  2  0
 18 19  1  0
 18 20  1  0
 20 21  2  0
 21 22  1  0
  9 10  2  0
 10 11  1  0
 11 12  2  0
 12  2  1  0
 12  7  1  0
 21 14  1  0
  6 13  1  0
 19 23  1  0
 19 24  1  0
M  END
> <minimizedAffinity>
-9.14211

> <CNNscore>
0.8816299438

> <CNNaffinity>
7.2349472046

> <CNN_VS>
6.3785462379

> <CNNaffinity_variance>
0.0482881851

$$$$



 24 26  0  0  0  0  0  0  0  0999 V2000
  -12.6605    5.5860   14.8766 C   0  0  0  0  0  0  0  0  0  0  0  0
  -12.4152    4.1835   14.4047 C   0  0  0  0  0  0  0  0  0  0  0  0
  -12.4252    3.1498   15.2646 C   0  0  0  0  0  0  0  0  0  0  0  0
  -12.1854    1.7549   14.8311 C   0  0  0  0  0  0  0  0  0  0  0  0
  -12.2021    0.8333   15.6394 O   0  0  0  0  0  0  0  0  0  0  0  0
  -11.9499    1.5589   13.5012 N   0  0  0  0  0  0  0  0  0  0  0  0
  -11.9268    2.5944   12.5589 C   0  0  0  0  0  0  0  0  0  0  0  0
  -11.6756    2.2834   11.2190 C   0  0  0  0  0  0  0  0  0  0  0  0
  -11.6437    3.2961   10.2505 C   0  0  0  0  0  0  0  0  0  0  0  0
  -11.8736    4.6177   10.6580 C   0  0  0  0  0  0  0  0  0  0  0  0
  -12.1248    4.9254   12.0010 C   0  0  0  0  0  0  0  0  0  0  0  0
  -12.1553    3.9176   12.9720 C   0  0  0  0  0  0  0  0  0  0  0  0
  -11.7876    0.6399   13.1874 H   0  0  0  0  0  0  0  0  0  0  0  0
  -11.3892    2.9766    8.8391 C   0  0  0  0  0  0  0  0  0  0  0  0
  -12.4483    2.5045    8.0453 C   0  0  0  0  0  0  0  0  0  0  0  0
  -12.2498    2.1899    6.6964 C   0  0  0  0  0  0  0  0  0  0  0  0
  -13.7352    1.5403    5.7039 Br  0  0  0  0  0  0  0  0  0  0  0  0
  -10.9990    2.3715    6.0867 C   0  0  0  0  0  0  0  0  0  0  0  0
  -10.7397    1.9455    4.7739 N   0  0  0  0  0  0  0  0  0  0  0  0
   -9.9319    2.7898    6.8874 C   0  0  0  0  0  0  0  0  0  0  0  0
  -10.1239    3.1059    8.2391 C   0  0  0  0  0  0  0  0  0  0  0  0
   -8.7405    3.6327    9.1374 Cl  0  0  0  0  0  0  0  0  0  0  0  0
  -11.4804    1.6480    4.1976 H   0  0  0  0  0  0  0  0  0  0  0  0
   -9.8173    1.9444    4.4299 H   0  0  0  0  0  0  0  0  0  0  0  0
  1  2  1  0
  2  3  2  0
  3  4  1  0
  4  5  2  0
  4  6  1  0
  6  7  1  0
  7  8  2  0
  8  9  1  0
  9 14  1  0
 14 15  2  0
 15 16  1  0
 16 17  1  0
 16 18  2  0
 18 19  1  0
 18 20  1  0
 20 21  2  0
 21 22  1  0
  9 10  2  0
 10 11  1  0
 11 12  2  0
 12  2  1  0
 12  7  1  0
 21 14  1  0
  6 13  1  0
 19 23  1  0
 19 24  1  0
M  END
> <minimizedAffinity>
-10.15009

> <CNNscore>
0.6592703462

> <CNNaffinity>
6.6671319008

> <CNN_VS>
4.3954424858

> <CNNaffinity_variance>
0.0168049093

$$$$



 24 26  0  0  0  0  0  0  0  0999 V2000
  -18.1304   -3.1806    0.2492 C   0  0  0  0  0  0  0  0  0  0  0  0
  -18.4152   -1.9377    1.0393 C   0  0  0  0  0  0  0  0  0  0  0  0
  -19.6738   -1.4964    1.2097 C   0  0  0  0  0  0  0  0  0  0  0  0
  -19.9879   -0.2733    1.9821 C   0  0  0  0  0  0  0  0  0  0  0  0
  -21.1464    0.1029    2.1207 O   0  0  0  0  0  0  0  0  0  0  0  0
  -18.9298    0.3982    2.5225 N   0  0  0  0  0  0  0  0  0  0  0  0
  -17.5987   -0.0120    2.3792 C   0  0  0  0  0  0  0  0  0  0  0  0
  -16.5889    0.7503    2.9745 C   0  0  0  0  0  0  0  0  0  0  0  0
  -15.2460    0.3690    2.8490 C   0  0  0  0  0  0  0  0  0  0  0  0
  -14.9460   -0.7907    2.1205 C   0  0  0  0  0  0  0  0  0  0  0  0
  -15.9601   -1.5517    1.5256 C   0  0  0  0  0  0  0  0  0  0  0  0
  -17.3024   -1.1734    1.6464 C   0  0  0  0  0  0  0  0  0  0  0  0
  -19.1123    1.2150    3.0411 H   0  0  0  0  0  0  0  0  0  0  0  0
  -14.1796    1.1596    3.4790 C   0  0  0  0  0  0  0  0  0  0  0  0
  -14.0214    1.1017    4.8740 C   0  0  0  0  0  0  0  0  0  0  0  0
  -13.0180    1.8374    5.5141 C   0  0  0  0  0  0  0  0  0  0  0  0
  -12.8897    1.7128    7.4066 Br  0  0  0  0  0  0  0  0  0  0  0  0
  -12.1168    2.6242    4.7806 C   0  0  0  0  0  0  0  0  0  0  0  0
  -11.1849    3.4694    5.4043 N   0  0  0  0  0  0  0  0  0  0  0  0
  -12.3059    2.7251    3.3990 C   0  0  0  0  0  0  0  0  0  0  0  0
  -13.3095    1.9914    2.7519 C   0  0  0  0  0  0  0  0  0  0  0  0
  -13.4470    2.1733    1.0355 Cl  0  0  0  0  0  0  0  0  0  0  0  0
  -11.0403    3.4105    6.3763 H   0  0  0  0  0  0  0  0  0  0  0  0
  -10.6761    4.1209    4.8695 H   0  0  0  0  0  0  0  0  0  0  0  0
  1  2  1  0
  2  3  2  0
  3  4  1  0
  4  5  2  0
  4  6  1  0
  6  7  1  0
  7  8  2  0
  8  9  1  0
  9 14  1  0
 14 15  2  0
 15 16  1  0
 16 17  1  0
 16 18  2  0
 18 19  1  0
 18 20  1  0
 20 21  2  0
 21 22  1  0
  9 10  2  0
 10 11  1  0
 11 12  2  0
 12  2  1  0
 12  7  1  0
 21 14  1  0
  6 13  1  0
 19 23  1  0
 19 24  1  0
M  END
> <minimizedAffinity>
-6.49447

> <CNNscore>
0.4370883703

> <CNNaffinity>
5.0343704224

> <CNN_VS>
2.2004647255

> <CNNaffinity_variance>
0.0105384709

$$$$



 24 26  0  0  0  0  0  0  0  0999 V2000
  -11.1741    3.5626    2.5317 C   0  0  0  0  0  0  0  0  0  0  0  0
  -12.0161    2.7900    3.5034 C   0  0  0  0  0  0  0  0  0  0  0  0
  -11.7255    2.7762    4.8161 C   0  0  0  0  0  0  0  0  0  0  0  0
  -12.5352    2.0228    5.8001 C   0  0  0  0  0  0  0  0  0  0  0  0
  -12.2452    2.0309    6.9912 O   0  0  0  0  0  0  0  0  0  0  0  0
  -13.6058    1.3320    5.3113 N   0  0  0  0  0  0  0  0  0  0  0  0
  -13.9578    1.3084    3.9562 C   0  0  0  0  0  0  0  0  0  0  0  0
  -15.0758    0.5672    3.5612 C   0  0  0  0  0  0  0  0  0  0  0  0
  -15.4547    0.5207    2.2126 C   0  0  0  0  0  0  0  0  0  0  0  0
  -14.6913    1.2359    1.2791 C   0  0  0  0  0  0  0  0  0  0  0  0
  -13.5722    1.9771    1.6784 C   0  0  0  0  0  0  0  0  0  0  0  0
  -13.1886    2.0245    3.0238 C   0  0  0  0  0  0  0  0  0  0  0  0
  -14.1606    0.8229    5.9455 H   0  0  0  0  0  0  0  0  0  0  0  0
  -16.6333   -0.2485    1.7905 C   0  0  0  0  0  0  0  0  0  0  0  0
  -17.8724    0.4057    1.6849 C   0  0  0  0  0  0  0  0  0  0  0  0
  -19.0195   -0.2888    1.2851 C   0  0  0  0  0  0  0  0  0  0  0  0
  -20.6563    0.6729    1.1880 Br  0  0  0  0  0  0  0  0  0  0  0  0
  -18.9603   -1.6482    0.9418 C   0  0  0  0  0  0  0  0  0  0  0  0
  -20.1141   -2.3980    0.6615 N   0  0  0  0  0  0  0  0  0  0  0  0
  -17.7403   -2.3130    1.0976 C   0  0  0  0  0  0  0  0  0  0  0  0
  -16.5879   -1.6233    1.4982 C   0  0  0  0  0  0  0  0  0  0  0  0
  -15.1238   -2.5364    1.6422 Cl  0  0  0  0  0  0  0  0  0  0  0  0
  -20.9806   -1.9445    0.5490 H   0  0  0  0  0  0  0  0  0  0  0  0
  -20.0564   -3.3772    0.5776 H   0  0  0  0  0  0  0  0  0  0  0  0
  1  2  1  0
  2  3  2  0
  3  4  1  0
  4  5  2  0
  4  6  1  0
  6  7  1  0
  7  8  2  0
  8  9  1  0
  9 14  1  0
 14 15  2  0
 15 16  1  0
 16 17  1  0
 16 18  2  0
 18 19  1  0
 18 20  1  0
 20 21  2  0
 21 22  1  0
  9 10  2  0
 10 11  1  0
 11 12  2  0
 12  2  1  0
 12  7  1  0
 21 14  1  0
  6 13  1  0
 19 23  1  0
 19 24  1  0
M  END
> <minimizedAffinity>
-5.11720

> <CNNscore>
0.3337283432

> <CNNaffinity>
4.9460124969

> <CNN_VS>
1.6506245136

> <CNNaffinity_variance>
0.0176162347

$$$$



 24 26  0  0  0  0  0  0  0  0999 V2000
  -18.0183   -8.0188    9.6687 C   0  0  0  0  0  0  0  0  0  0  0  0
  -17.1280   -8.2169    8.4778 C   0  0  0  0  0  0  0  0  0  0  0  0
  -15.9003   -8.7492    8.6096 C   0  0  0  0  0  0  0  0  0  0  0  0
  -14.9973   -8.9563    7.4551 C   0  0  0  0  0  0  0  0  0  0  0  0
  -13.8835   -9.4453    7.6075 O   0  0  0  0  0  0  0  0  0  0  0  0
  -15.4705   -8.5784    6.2321 N   0  0  0  0  0  0  0  0  0  0  0  0
  -16.7386   -8.0190    6.0325 C   0  0  0  0  0  0  0  0  0  0  0  0
  -17.1251   -7.6664    4.7358 C   0  0  0  0  0  0  0  0  0  0  0  0
  -18.3866   -7.1026    4.5012 C   0  0  0  0  0  0  0  0  0  0  0  0
  -19.2450   -6.9082    5.5925 C   0  0  0  0  0  0  0  0  0  0  0  0
  -18.8544   -7.2626    6.8899 C   0  0  0  0  0  0  0  0  0  0  0  0
  -17.5945   -7.8238    7.1293 C   0  0  0  0  0  0  0  0  0  0  0  0
  -14.8890   -8.7059    5.4480 H   0  0  0  0  0  0  0  0  0  0  0  0
  -18.8039   -6.7375    3.1404 C   0  0  0  0  0  0  0  0  0  0  0  0
  -19.0158   -7.7561    2.1959 C   0  0  0  0  0  0  0  0  0  0  0  0
  -19.4150   -7.4525    0.8896 C   0  0  0  0  0  0  0  0  0  0  0  0
  -19.6599   -8.8931   -0.3261 Br  0  0  0  0  0  0  0  0  0  0  0  0
  -19.6522   -6.1270    0.4943 C   0  0  0  0  0  0  0  0  0  0  0  0
  -19.9285   -5.7840   -0.8391 N   0  0  0  0  0  0  0  0  0  0  0  0
  -19.3904   -5.1092    1.4164 C   0  0  0  0  0  0  0  0  0  0  0  0
  -18.9897   -5.4066    2.7260 C   0  0  0  0  0  0  0  0  0  0  0  0
  -18.7098   -4.0732    3.7946 Cl  0  0  0  0  0  0  0  0  0  0  0  0
  -20.1148   -6.4893   -1.5003 H   0  0  0  0  0  0  0  0  0  0  0  0
  -19.9359   -4.8384   -1.1127 H   0  0  0  0  0  0  0  0  0  0  0  0
  1  2  1  0
  2  3  2  0
  3  4  1  0
  4  5  2  0
  4  6  1  0
  6  7  1  0
  7  8  2  0
  8  9  1  0
  9 14  1  0
 14 15  2  0
 15 16  1  0
 16 17  1  0
 16 18  2  0
 18 19  1  0
 18 20  1  0
 20 21  2  0
 21 22  1  0
  9 10  2  0
 10 11  1  0
 11 12  2  0
 12  2  1  0
 12  7  1  0
 21 14  1  0
  6 13  1  0
 19 23  1  0
 19 24  1  0
M  END
> <minimizedAffinity>
-5.96885

> <CNNscore>
0.3218770623

> <CNNaffinity>
5.1001791954

> <CNN_VS>
1.6416306496

> <CNNaffinity_variance>
0.0621924698

$$$$



 24 26  0  0  0  0  0  0  0  0999 V2000
   -8.9978    2.6492    3.3658 C   0  0  0  0  0  0  0  0  0  0  0  0
  -10.0560    2.1961    4.3276 C   0  0  0  0  0  0  0  0  0  0  0  0
   -9.7482    1.8690    5.5950 C   0  0  0  0  0  0  0  0  0  0  0  0
  -10.7685    1.4170    6.5677 C   0  0  0  0  0  0  0  0  0  0  0  0
  -10.4565    1.1268    7.7172 O   0  0  0  0  0  0  0  0  0  0  0  0
  -12.0547    1.3452    6.1172 N   0  0  0  0  0  0  0  0  0  0  0  0
  -12.4357    1.6722    4.8100 C   0  0  0  0  0  0  0  0  0  0  0  0
  -13.7829    1.5632    4.4516 C   0  0  0  0  0  0  0  0  0  0  0  0
  -14.1980    1.8808    3.1511 C   0  0  0  0  0  0  0  0  0  0  0  0
  -13.2342    2.3121    2.2288 C   0  0  0  0  0  0  0  0  0  0  0  0
  -11.8858    2.4200    2.5914 C   0  0  0  0  0  0  0  0  0  0  0  0
  -11.4663    2.1016    3.8884 C   0  0  0  0  0  0  0  0  0  0  0  0
  -12.7521    1.0474    6.7450 H   0  0  0  0  0  0  0  0  0  0  0  0
  -15.6130    1.7775    2.7690 C   0  0  0  0  0  0  0  0  0  0  0  0
  -16.4239    2.9229    2.8404 C   0  0  0  0  0  0  0  0  0  0  0  0
  -17.7761    2.8688    2.4845 C   0  0  0  0  0  0  0  0  0  0  0  0
  -18.8014    4.4628    2.6301 Br  0  0  0  0  0  0  0  0  0  0  0  0
  -18.3533    1.6809    2.0103 C   0  0  0  0  0  0  0  0  0  0  0  0
  -19.7318    1.5658    1.7683 N   0  0  0  0  0  0  0  0  0  0  0  0
  -17.5622    0.5283    1.9894 C   0  0  0  0  0  0  0  0  0  0  0  0
  -16.2075    0.5756    2.3452 C   0  0  0  0  0  0  0  0  0  0  0  0
  -15.3120   -0.9043    2.2666 Cl  0  0  0  0  0  0  0  0  0  0  0  0
  -20.3022    2.3680    1.7796 H   0  0  0  0  0  0  0  0  0  0  0  0
  -20.1277    0.6827    1.5872 H   0  0  0  0  0  0  0  0  0  0  0  0
  1  2  1  0
  2  3  2  0
  3  4  1  0
  4  5  2  0
  4  6  1  0
  6  7  1  0
  7  8  2  0
  8  9  1  0
  9 14  1  0
 14 15  2  0
 15 16  1  0
 16 17  1  0
 16 18  2  0
 18 19  1  0
 18 20  1  0
 20 21  2  0
 21 22  1  0
  9 10  2  0
 10 11  1  0
 11 12  2  0
 12  2  1  0
 12  7  1  0
 21 14  1  0
  6 13  1  0
 19 23  1  0
 19 24  1  0
M  END
> <minimizedAffinity>
-5.77851

> <CNNscore>
0.3177548647

> <CNNaffinity>
4.8201088905

> <CNN_VS>
1.5316129923

> <CNNaffinity_variance>
0.0766224265

$$$$



 24 26  0  0  0  0  0  0  0  0999 V2000
  -18.8643    0.0389    1.3189 C   0  0  0  0  0  0  0  0  0  0  0  0
  -18.3312    1.3435    1.8325 C   0  0  0  0  0  0  0  0  0  0  0  0
  -19.1023    2.4446    1.8639 C   0  0  0  0  0  0  0  0  0  0  0  0
  -18.6059    3.7468    2.3631 C   0  0  0  0  0  0  0  0  0  0  0  0
  -19.3341    4.7328    2.3801 O   0  0  0  0  0  0  0  0  0  0  0  0
  -17.3125    3.7835    2.7971 N   0  0  0  0  0  0  0  0  0  0  0  0
  -16.4620    2.6711    2.7887 C   0  0  0  0  0  0  0  0  0  0  0  0
  -15.1525    2.8182    3.2563 C   0  0  0  0  0  0  0  0  0  0  0  0
  -14.2746    1.7257    3.2600 C   0  0  0  0  0  0  0  0  0  0  0  0
  -14.7432    0.4904    2.7906 C   0  0  0  0  0  0  0  0  0  0  0  0
  -16.0554    0.3470    2.3229 C   0  0  0  0  0  0  0  0  0  0  0  0
  -16.9349    1.4359    2.3151 C   0  0  0  0  0  0  0  0  0  0  0  0
  -16.9584    4.6380    3.1342 H   0  0  0  0  0  0  0  0  0  0  0  0
  -12.8997    1.8696    3.7581 C   0  0  0  0  0  0  0  0  0  0  0  0
  -11.8512    2.0128    2.8336 C   0  0  0  0  0  0  0  0  0  0  0  0
  -10.5276    2.1541    3.2650 C   0  0  0  0  0  0  0  0  0  0  0  0
   -9.1717    2.3234    1.9436 Br  0  0  0  0  0  0  0  0  0  0  0  0
  -10.2117    2.1950    4.6317 C   0  0  0  0  0  0  0  0  0  0  0  0
   -8.8848    2.2074    5.0910 N   0  0  0  0  0  0  0  0  0  0  0  0
  -11.2462    1.9991    5.5516 C   0  0  0  0  0  0  0  0  0  0  0  0
  -12.5738    1.8564    5.1260 C   0  0  0  0  0  0  0  0  0  0  0  0
  -13.7818    1.6379    6.3471 Cl  0  0  0  0  0  0  0  0  0  0  0  0
   -8.1452    2.3442    4.4556 H   0  0  0  0  0  0  0  0  0  0  0  0
   -8.6939    2.0793    6.0483 H   0  0  0  0  0  0  0  0  0  0  0  0
  1  2  1  0
  2  3  2  0
  3  4  1  0
  4  5  2  0
  4  6  1  0
  6  7  1  0
  7  8  2  0
  8  9  1  0
  9 14  1  0
 14 15  2  0
 15 16  1  0
 16 17  1  0
 16 18  2  0
 18 19  1  0
 18 20  1  0
 20 21  2  0
 21 22  1  0
  9 10  2  0
 10 11  1  0
 11 12  2  0
 12  2  1  0
 12  7  1  0
 21 14  1  0
  6 13  1  0
 19 23  1  0
 19 24  1  0
M  END
> <minimizedAffinity>
-6.11788

> <CNNscore>
0.3072669506

> <CNNaffinity>
4.9656462669

> <CNN_VS>
1.5257790089

> <CNNaffinity_variance>
0.0501586199

$$$$



 24 26  0  0  0  0  0  0  0  0999 V2000
  -12.5585    2.3288   14.4502 C   0  0  0  0  0  0  0  0  0  0  0  0
  -12.3116    3.4994   13.5454 C   0  0  0  0  0  0  0  0  0  0  0  0
  -12.4560    4.7611   13.9872 C   0  0  0  0  0  0  0  0  0  0  0  0
  -12.2215    5.9372   13.1194 C   0  0  0  0  0  0  0  0  0  0  0  0
  -12.3605    7.0758   13.5521 O   0  0  0  0  0  0  0  0  0  0  0  0
  -11.8467    5.6833   11.8320 N   0  0  0  0  0  0  0  0  0  0  0  0
  -11.6803    4.3926   11.3151 C   0  0  0  0  0  0  0  0  0  0  0  0
  -11.2931    4.2442    9.9797 C   0  0  0  0  0  0  0  0  0  0  0  0
  -11.1195    2.9666    9.4302 C   0  0  0  0  0  0  0  0  0  0  0  0
  -11.3380    1.8510   10.2508 C   0  0  0  0  0  0  0  0  0  0  0  0
  -11.7257    2.0036   11.5878 C   0  0  0  0  0  0  0  0  0  0  0  0
  -11.9027    3.2775   12.1402 C   0  0  0  0  0  0  0  0  0  0  0  0
  -11.6845    6.4488   11.2345 H   0  0  0  0  0  0  0  0  0  0  0  0
  -10.7041    2.8021    8.0304 C   0  0  0  0  0  0  0  0  0  0  0  0
  -10.8484    3.8835    7.1448 C   0  0  0  0  0  0  0  0  0  0  0  0
  -10.4641    3.7701    5.8041 C   0  0  0  0  0  0  0  0  0  0  0  0
  -10.7128    5.2782    4.6741 Br  0  0  0  0  0  0  0  0  0  0  0  0
   -9.8893    2.5879    5.3129 C   0  0  0  0  0  0  0  0  0  0  0  0
   -9.6134    2.4031    3.9485 N   0  0  0  0  0  0  0  0  0  0  0  0
   -9.7945    1.4940    6.1785 C   0  0  0  0  0  0  0  0  0  0  0  0
  -10.1781    1.6009    7.5222 C   0  0  0  0  0  0  0  0  0  0  0  0
  -10.0026    0.1927    8.5143 Cl  0  0  0  0  0  0  0  0  0  0  0  0
   -9.6757    3.1634    3.3263 H   0  0  0  0  0  0  0  0  0  0  0  0
   -9.3576    1.5131    3.6142 H   0  0  0  0  0  0  0  0  0  0  0  0
  1  2  1  0
  2  3  2  0
  3  4  1  0
  4  5  2  0
  4  6  1  0
  6  7  1  0
  7  8  2  0
  8  9  1  0
  9 14  1  0
 14 15  2  0
 15 16  1  0
 16 17  1  0
 16 18  2  0
 18 19  1  0
 18 20  1  0
 20 21  2  0
 21 22  1  0
  9 10  2  0
 10 11  1  0
 11 12  2  0
 12  2  1  0
 12  7  1  0
 21 14  1  0
  6 13  1  0
 19 23  1  0
 19 24  1  0
M  END
> <minimizedAffinity>
-10.89474

> <CNNscore>
0.2768362164

> <CNNaffinity>
5.1562743187

> <CNN_VS>
1.4274435043

> <CNNaffinity_variance>
1.2646853924

$$$$
