


 25 28  0  0  0  0  0  0  0  0999 V2000
   25.9202  -13.6664   -6.1826 N   0  0  0  0  0  0  0  0  0  0  0  0
   25.4183  -14.6431   -7.0486 C   0  0  0  0  0  0  0  0  0  0  0  0
   24.8941  -15.8271   -6.5417 C   0  0  0  0  0  0  0  0  0  0  0  0
   24.5043  -16.8477   -7.4089 C   0  0  0  0  0  0  0  0  0  0  0  0
   24.6702  -16.7114   -8.8090 C   0  0  0  0  0  0  0  0  0  0  0  0
   24.3029  -17.6697   -9.7706 C   0  0  0  0  0  0  0  0  0  0  0  0
   24.5497  -17.4993  -11.0812 N   0  0  0  0  0  0  0  0  0  0  0  0
   25.1350  -16.3541  -11.4601 C   0  0  0  0  0  0  0  0  0  0  0  0
   25.4913  -15.3681  -10.6198 N   0  0  0  0  0  0  0  0  0  0  0  0
   25.2643  -15.5520   -9.3158 C   0  0  0  0  0  0  0  0  0  0  0  0
   25.6416  -14.5503   -8.4264 C   0  0  0  0  0  0  0  0  0  0  0  0
   25.7593  -13.7377   -5.2139 H   0  0  0  0  0  0  0  0  0  0  0  0
   26.4343  -12.9074   -6.5416 H   0  0  0  0  0  0  0  0  0  0  0  0
   25.3969  -16.1607  -12.9026 C   0  0  0  0  0  0  0  0  0  0  0  0
   26.5219  -16.7382  -13.5293 C   0  0  0  0  0  0  0  0  0  0  0  0
   26.7720  -16.5578  -14.8936 C   0  0  0  0  0  0  0  0  0  0  0  0
   25.8980  -15.7945  -15.6537 C   0  0  0  0  0  0  0  0  0  0  0  0
   26.1356  -15.6209  -16.9602 F   0  0  0  0  0  0  0  0  0  0  0  0
   24.7807  -15.2089  -15.0764 C   0  0  0  0  0  0  0  0  0  0  0  0
   24.5338  -15.3916  -13.7117 C   0  0  0  0  0  0  0  0  0  0  0  0
   23.6791  -18.8789   -9.3477 N   0  0  0  0  0  0  0  0  0  0  0  0
   23.6242  -19.1137   -8.3932 H   0  0  0  0  0  0  0  0  0  0  0  0
   23.1204  -19.7645  -10.3770 C   0  0  0  0  0  0  0  0  0  0  0  0
   22.2717  -19.2038  -11.4834 C   0  0  0  0  0  0  0  0  0  0  0  0
   23.6380  -19.7476  -11.7871 C   0  0  0  0  0  0  0  0  0  0  0  0
  1  2  1  0
  2  3  2  0
  3  4  1  0
  4  5  2  0
  5  6  1  0
  6 21  1  0
 21 23  1  0
 23 24  1  0
 24 25  1  0
  6  7  2  0
  7  8  1  0
  8 14  1  0
 14 15  2  0
 15 16  1  0
 16 17  2  0
 17 18  1  0
 17 19  1  0
 19 20  2  0
  8  9  2  0
  9 10  1  0
 10 11  2  0
 11  2  1  0
 10  5  1  0
 25 23  1  0
 20 14  1  0
  1 12  1  0
  1 13  1  0
 21 22  1  0
M  END
> <minimizedAffinity>
-9.62365

> <CNNscore>
0.9137442708

> <CNNaffinity>
7.0510940552

> <CNN_VS>
6.4428968430

> <CNNaffinity_variance>
0.0849093571

$$$$



 25 28  0  0  0  0  0  0  0  0999 V2000
   25.9346  -13.6091   -5.4554 N   0  0  0  0  0  0  0  0  0  0  0  0
   25.6230  -13.9591   -6.7732 C   0  0  0  0  0  0  0  0  0  0  0  0
   25.5547  -12.9824   -7.7605 C   0  0  0  0  0  0  0  0  0  0  0  0
   25.1284  -13.3155   -9.0461 C   0  0  0  0  0  0  0  0  0  0  0  0
   24.7241  -14.6374   -9.3554 C   0  0  0  0  0  0  0  0  0  0  0  0
   24.2891  -15.0829  -10.6165 C   0  0  0  0  0  0  0  0  0  0  0  0
   23.8584  -16.3398  -10.8219 N   0  0  0  0  0  0  0  0  0  0  0  0
   23.8874  -17.1850   -9.7815 C   0  0  0  0  0  0  0  0  0  0  0  0
   24.3165  -16.8607   -8.5503 N   0  0  0  0  0  0  0  0  0  0  0  0
   24.7225  -15.6040   -8.3457 C   0  0  0  0  0  0  0  0  0  0  0  0
   25.1545  -15.2426   -7.0731 C   0  0  0  0  0  0  0  0  0  0  0  0
   26.2639  -12.7041   -5.2512 H   0  0  0  0  0  0  0  0  0  0  0  0
   25.8246  -14.2678   -4.7321 H   0  0  0  0  0  0  0  0  0  0  0  0
   23.4244  -18.5709  -10.0088 C   0  0  0  0  0  0  0  0  0  0  0  0
   23.3235  -19.4956   -8.9474 C   0  0  0  0  0  0  0  0  0  0  0  0
   22.8852  -20.8069   -9.1590 C   0  0  0  0  0  0  0  0  0  0  0  0
   22.5402  -21.2141  -10.4394 C   0  0  0  0  0  0  0  0  0  0  0  0
   22.1199  -22.4691  -10.6440 F   0  0  0  0  0  0  0  0  0  0  0  0
   22.6255  -20.3366  -11.5105 C   0  0  0  0  0  0  0  0  0  0  0  0
   23.0643  -19.0259  -11.2951 C   0  0  0  0  0  0  0  0  0  0  0  0
   24.2686  -14.1698  -11.7101 N   0  0  0  0  0  0  0  0  0  0  0  0
   23.5312  -13.5267  -11.8194 H   0  0  0  0  0  0  0  0  0  0  0  0
   25.3794  -14.2158  -12.6693 C   0  0  0  0  0  0  0  0  0  0  0  0
   25.9214  -15.5355  -13.1421 C   0  0  0  0  0  0  0  0  0  0  0  0
   25.1662  -14.6504  -14.0913 C   0  0  0  0  0  0  0  0  0  0  0  0
  1  2  1  0
  2  3  2  0
  3  4  1  0
  4  5  2  0
  5  6  1  0
  6 21  1  0
 21 23  1  0
 23 24  1  0
 24 25  1  0
  6  7  2  0
  7  8  1  0
  8 14  1  0
 14 15  2  0
 15 16  1  0
 16 17  2  0
 17 18  1  0
 17 19  1  0
 19 20  2  0
  8  9  2  0
  9 10  1  0
 10 11  2  0
 11  2  1  0
 10  5  1  0
 25 23  1  0
 20 14  1  0
  1 12  1  0
  1 13  1  0
 21 22  1  0
M  END
> <minimizedAffinity>
-10.40189

> <CNNscore>
0.8682106137

> <CNNaffinity>
6.9333357811

> <CNN_VS>
6.0195956230

> <CNNaffinity_variance>
0.1422181875

$$$$



 25 28  0  0  0  0  0  0  0  0999 V2000
   25.2077  -12.1770   -8.0508 N   0  0  0  0  0  0  0  0  0  0  0  0
   25.1121  -13.0934   -9.1029 C   0  0  0  0  0  0  0  0  0  0  0  0
   25.2801  -12.6719  -10.4173 C   0  0  0  0  0  0  0  0  0  0  0  0
   25.0671  -13.5616  -11.4701 C   0  0  0  0  0  0  0  0  0  0  0  0
   24.6419  -14.8897  -11.2215 C   0  0  0  0  0  0  0  0  0  0  0  0
   24.4091  -15.8687  -12.2041 C   0  0  0  0  0  0  0  0  0  0  0  0
   23.9436  -17.0925  -11.8986 N   0  0  0  0  0  0  0  0  0  0  0  0
   23.7360  -17.3738  -10.6042 C   0  0  0  0  0  0  0  0  0  0  0  0
   23.9607  -16.5165   -9.5944 N   0  0  0  0  0  0  0  0  0  0  0  0
   24.4019  -15.2939   -9.9050 C   0  0  0  0  0  0  0  0  0  0  0  0
   24.6245  -14.3847   -8.8752 C   0  0  0  0  0  0  0  0  0  0  0  0
   25.5517  -11.2698   -8.2178 H   0  0  0  0  0  0  0  0  0  0  0  0
   24.9310  -12.4391   -7.1430 H   0  0  0  0  0  0  0  0  0  0  0  0
   23.2346  -18.7232  -10.2661 C   0  0  0  0  0  0  0  0  0  0  0  0
   22.5036  -19.4906  -11.1982 C   0  0  0  0  0  0  0  0  0  0  0  0
   22.0286  -20.7676  -10.8817 C   0  0  0  0  0  0  0  0  0  0  0  0
   22.2784  -21.2977   -9.6243 C   0  0  0  0  0  0  0  0  0  0  0  0
   21.8248  -22.5203   -9.3196 F   0  0  0  0  0  0  0  0  0  0  0  0
   22.9926  -20.5761   -8.6789 C   0  0  0  0  0  0  0  0  0  0  0  0
   23.4661  -19.2993   -8.9990 C   0  0  0  0  0  0  0  0  0  0  0  0
   24.6388  -15.5508  -13.5738 N   0  0  0  0  0  0  0  0  0  0  0  0
   23.8879  -15.3777  -14.1865 H   0  0  0  0  0  0  0  0  0  0  0  0
   26.0281  -15.4891  -14.0450 C   0  0  0  0  0  0  0  0  0  0  0  0
   26.8335  -16.7479  -14.2045 C   0  0  0  0  0  0  0  0  0  0  0  0
   26.4101  -15.9689  -15.4163 C   0  0  0  0  0  0  0  0  0  0  0  0
  1  2  1  0
  2  3  2  0
  3  4  1  0
  4  5  2  0
  5  6  1  0
  6 21  1  0
 21 23  1  0
 23 24  1  0
 24 25  1  0
  6  7  2  0
  7  8  1  0
  8 14  1  0
 14 15  2  0
 15 16  1  0
 16 17  2  0
 17 18  1  0
 17 19  1  0
 19 20  2  0
  8  9  2  0
  9 10  1  0
 10 11  2  0
 11  2  1  0
 10  5  1  0
 25 23  1  0
 20 14  1  0
  1 12  1  0
  1 13  1  0
 21 22  1  0
M  END
> <minimizedAffinity>
-9.80219

> <CNNscore>
0.6653583646

> <CNNaffinity>
6.7704224586

> <CNN_VS>
4.5047574043

> <CNNaffinity_variance>
0.0386078618

$$$$



 25 28  0  0  0  0  0  0  0  0999 V2000
   22.0786   -9.1338   -4.9016 N   0  0  0  0  0  0  0  0  0  0  0  0
   21.3199   -9.8868   -3.9997 C   0  0  0  0  0  0  0  0  0  0  0  0
   20.4095   -9.2608   -3.1556 C   0  0  0  0  0  0  0  0  0  0  0  0
   19.7419   -9.9969   -2.1769 C   0  0  0  0  0  0  0  0  0  0  0  0
   20.0066  -11.3774   -2.0024 C   0  0  0  0  0  0  0  0  0  0  0  0
   19.3852  -12.2137   -1.0576 C   0  0  0  0  0  0  0  0  0  0  0  0
   19.7334  -13.5033   -0.9048 N   0  0  0  0  0  0  0  0  0  0  0  0
   20.6829  -13.9914   -1.7159 C   0  0  0  0  0  0  0  0  0  0  0  0
   21.3086  -13.2798   -2.6684 N   0  0  0  0  0  0  0  0  0  0  0  0
   20.9748  -11.9926   -2.8012 C   0  0  0  0  0  0  0  0  0  0  0  0
   21.6234  -11.2330   -3.7703 C   0  0  0  0  0  0  0  0  0  0  0  0
   21.8597   -8.1869   -5.0585 H   0  0  0  0  0  0  0  0  0  0  0  0
   22.8316   -9.5507   -5.3796 H   0  0  0  0  0  0  0  0  0  0  0  0
   21.0589  -15.4126   -1.5563 C   0  0  0  0  0  0  0  0  0  0  0  0
   21.9871  -16.0291   -2.4226 C   0  0  0  0  0  0  0  0  0  0  0  0
   22.3454  -17.3729   -2.2738 C   0  0  0  0  0  0  0  0  0  0  0  0
   21.7790  -18.1225   -1.2532 C   0  0  0  0  0  0  0  0  0  0  0  0
   22.1212  -19.4092   -1.1090 F   0  0  0  0  0  0  0  0  0  0  0  0
   20.8623  -17.5549   -0.3804 C   0  0  0  0  0  0  0  0  0  0  0  0
   20.5063  -16.2106   -0.5322 C   0  0  0  0  0  0  0  0  0  0  0  0
   18.3762  -11.6764   -0.2071 N   0  0  0  0  0  0  0  0  0  0  0  0
   18.6134  -11.1527    0.5921 H   0  0  0  0  0  0  0  0  0  0  0  0
   16.9724  -11.9265   -0.5573 C   0  0  0  0  0  0  0  0  0  0  0  0
   15.8743  -11.1265    0.0854 C   0  0  0  0  0  0  0  0  0  0  0  0
   16.1831  -10.9421   -1.3724 C   0  0  0  0  0  0  0  0  0  0  0  0
  1  2  1  0
  2  3  2  0
  3  4  1  0
  4  5  2  0
  5  6  1  0
  6 21  1  0
 21 23  1  0
 23 24  1  0
 24 25  1  0
  6  7  2  0
  7  8  1  0
  8 14  1  0
 14 15  2  0
 15 16  1  0
 16 17  2  0
 17 18  1  0
 17 19  1  0
 19 20  2  0
  8  9  2  0
  9 10  1  0
 10 11  2  0
 11  2  1  0
 10  5  1  0
 25 23  1  0
 20 14  1  0
  1 12  1  0
  1 13  1  0
 21 22  1  0
M  END
> <minimizedAffinity>
-3.95175

> <CNNscore>
0.5222332478

> <CNNaffinity>
4.2308382988

> <CNN_VS>
2.2094843388

> <CNNaffinity_variance>
0.2719946802

$$$$



 25 28  0  0  0  0  0  0  0  0999 V2000
   12.2391   -6.8449   -4.1472 N   0  0  0  0  0  0  0  0  0  0  0  0
   12.5773   -8.2004   -4.0825 C   0  0  0  0  0  0  0  0  0  0  0  0
   11.5889   -9.1746   -4.1686 C   0  0  0  0  0  0  0  0  0  0  0  0
   11.9131  -10.5187   -3.9848 C   0  0  0  0  0  0  0  0  0  0  0  0
   13.2386  -10.9078   -3.6716 C   0  0  0  0  0  0  0  0  0  0  0  0
   13.6757  -12.2305   -3.4775 C   0  0  0  0  0  0  0  0  0  0  0  0
   14.9382  -12.5214   -3.1183 N   0  0  0  0  0  0  0  0  0  0  0  0
   15.7967  -11.5007   -2.9812 C   0  0  0  0  0  0  0  0  0  0  0  0
   15.4805  -10.2097   -3.1776 N   0  0  0  0  0  0  0  0  0  0  0  0
   14.2187   -9.9240   -3.5125 C   0  0  0  0  0  0  0  0  0  0  0  0
   13.8659   -8.5914   -3.7035 C   0  0  0  0  0  0  0  0  0  0  0  0
   11.3304   -6.5766   -4.4147 H   0  0  0  0  0  0  0  0  0  0  0  0
   12.9097   -6.1591   -3.9254 H   0  0  0  0  0  0  0  0  0  0  0  0
   17.1885  -11.8203   -2.5971 C   0  0  0  0  0  0  0  0  0  0  0  0
   18.2648  -10.9900   -2.9767 C   0  0  0  0  0  0  0  0  0  0  0  0
   19.5823  -11.2891   -2.6143 C   0  0  0  0  0  0  0  0  0  0  0  0
   19.8436  -12.4267   -1.8646 C   0  0  0  0  0  0  0  0  0  0  0  0
   21.1043  -12.7145   -1.5164 F   0  0  0  0  0  0  0  0  0  0  0  0
   18.8143  -13.2696   -1.4715 C   0  0  0  0  0  0  0  0  0  0  0  0
   17.4980  -12.9673   -1.8357 C   0  0  0  0  0  0  0  0  0  0  0  0
   12.7484  -13.3013   -3.6309 N   0  0  0  0  0  0  0  0  0  0  0  0
   12.0721  -13.4887   -2.9405 H   0  0  0  0  0  0  0  0  0  0  0  0
   12.8309  -14.1172   -4.8489 C   0  0  0  0  0  0  0  0  0  0  0  0
   11.7447  -14.0481   -5.8853 C   0  0  0  0  0  0  0  0  0  0  0  0
   13.1078  -13.4959   -6.1882 C   0  0  0  0  0  0  0  0  0  0  0  0
  1  2  1  0
  2  3  2  0
  3  4  1  0
  4  5  2  0
  5  6  1  0
  6 21  1  0
 21 23  1  0
 23 24  1  0
 24 25  1  0
  6  7  2  0
  7  8  1  0
  8 14  1  0
 14 15  2  0
 15 16  1  0
 16 17  2  0
 17 18  1  0
 17 19  1  0
 19 20  2  0
  8  9  2  0
  9 10  1  0
 10 11  2  0
 11  2  1  0
 10  5  1  0
 25 23  1  0
 20 14  1  0
  1 12  1  0
  1 13  1  0
 21 22  1  0
M  END
> <minimizedAffinity>
-5.10299

> <CNNscore>
0.3686353266

> <CNNaffinity>
4.3467154503

> <CNN_VS>
1.6023528576

> <CNNaffinity_variance>
0.1409862190

$$$$



 25 28  0  0  0  0  0  0  0  0999 V2000
   19.1875  -24.8451  -11.2880 N   0  0  0  0  0  0  0  0  0  0  0  0
   19.6394  -25.3531  -12.5102 C   0  0  0  0  0  0  0  0  0  0  0  0
   20.1389  -26.6483  -12.5896 C   0  0  0  0  0  0  0  0  0  0  0  0
   20.6979  -27.1110  -13.7807 C   0  0  0  0  0  0  0  0  0  0  0  0
   20.8003  -26.2626  -14.9104 C   0  0  0  0  0  0  0  0  0  0  0  0
   21.3343  -26.6285  -16.1591 C   0  0  0  0  0  0  0  0  0  0  0  0
   21.4590  -25.7500  -17.1691 N   0  0  0  0  0  0  0  0  0  0  0  0
   21.0205  -24.4998  -16.9637 C   0  0  0  0  0  0  0  0  0  0  0  0
   20.4667  -24.0669  -15.8187 N   0  0  0  0  0  0  0  0  0  0  0  0
   20.3656  -24.9379  -14.8102 C   0  0  0  0  0  0  0  0  0  0  0  0
   19.8109  -24.5051  -13.6096 C   0  0  0  0  0  0  0  0  0  0  0  0
   19.0690  -25.4474  -10.5183 H   0  0  0  0  0  0  0  0  0  0  0  0
   18.9879  -23.8853  -11.1974 H   0  0  0  0  0  0  0  0  0  0  0  0
   21.1469  -23.5355  -18.0777 C   0  0  0  0  0  0  0  0  0  0  0  0
   20.4606  -22.3023  -18.0637 C   0  0  0  0  0  0  0  0  0  0  0  0
   20.5787  -21.3877  -19.1154 C   0  0  0  0  0  0  0  0  0  0  0  0
   21.3874  -21.6940  -20.2001 C   0  0  0  0  0  0  0  0  0  0  0  0
   21.5020  -20.8195  -21.2079 F   0  0  0  0  0  0  0  0  0  0  0  0
   22.0787  -22.8955  -20.2532 C   0  0  0  0  0  0  0  0  0  0  0  0
   21.9582  -23.8077  -19.1996 C   0  0  0  0  0  0  0  0  0  0  0  0
   21.7919  -27.9631  -16.3581 N   0  0  0  0  0  0  0  0  0  0  0  0
   21.1953  -28.6534  -16.7281 H   0  0  0  0  0  0  0  0  0  0  0  0
   23.1793  -28.2789  -15.9955 C   0  0  0  0  0  0  0  0  0  0  0  0
   24.1156  -28.8685  -17.0125 C   0  0  0  0  0  0  0  0  0  0  0  0
   24.3283  -27.4660  -16.5202 C   0  0  0  0  0  0  0  0  0  0  0  0
  1  2  1  0
  2  3  2  0
  3  4  1  0
  4  5  2  0
  5  6  1  0
  6 21  1  0
 21 23  1  0
 23 24  1  0
 24 25  1  0
  6  7  2  0
  7  8  1  0
  8 14  1  0
 14 15  2  0
 15 16  1  0
 16 17  2  0
 17 18  1  0
 17 19  1  0
 19 20  2  0
  8  9  2  0
  9 10  1  0
 10 11  2  0
 11  2  1  0
 10  5  1  0
 25 23  1  0
 20 14  1  0
  1 12  1  0
  1 13  1  0
 21 22  1  0
M  END
> <minimizedAffinity>
-5.18865

> <CNNscore>
0.3488673568

> <CNNaffinity>
4.7321815491

> <CNN_VS>
1.6509037018

> <CNNaffinity_variance>
0.0835005343

$$$$



 25 28  0  0  0  0  0  0  0  0999 V2000
   24.3729  -13.4268  -13.6333 N   0  0  0  0  0  0  0  0  0  0  0  0
   24.4434  -14.4466  -12.6788 C   0  0  0  0  0  0  0  0  0  0  0  0
   24.0895  -15.7483  -13.0162 C   0  0  0  0  0  0  0  0  0  0  0  0
   24.0465  -16.7385  -12.0347 C   0  0  0  0  0  0  0  0  0  0  0  0
   24.3233  -16.4287  -10.6805 C   0  0  0  0  0  0  0  0  0  0  0  0
   24.3192  -17.3484   -9.6165 C   0  0  0  0  0  0  0  0  0  0  0  0
   24.5287  -16.9706   -8.3434 N   0  0  0  0  0  0  0  0  0  0  0  0
   24.7816  -15.6742   -8.1129 C   0  0  0  0  0  0  0  0  0  0  0  0
   24.8389  -14.7296   -9.0666 N   0  0  0  0  0  0  0  0  0  0  0  0
   24.6076  -15.1064  -10.3278 C   0  0  0  0  0  0  0  0  0  0  0  0
   24.6450  -14.1404  -11.3288 C   0  0  0  0  0  0  0  0  0  0  0  0
   24.2308  -13.6493  -14.5817 H   0  0  0  0  0  0  0  0  0  0  0  0
   24.4654  -12.4865  -13.3567 H   0  0  0  0  0  0  0  0  0  0  0  0
   25.0233  -15.2593   -6.7143 C   0  0  0  0  0  0  0  0  0  0  0  0
   24.6650  -16.0880   -5.6294 C   0  0  0  0  0  0  0  0  0  0  0  0
   24.8929  -15.6988   -4.3054 C   0  0  0  0  0  0  0  0  0  0  0  0
   25.4843  -14.4710   -4.0460 C   0  0  0  0  0  0  0  0  0  0  0  0
   25.7037  -14.0968   -2.7790 F   0  0  0  0  0  0  0  0  0  0  0  0
   25.8511  -13.6264   -5.0836 C   0  0  0  0  0  0  0  0  0  0  0  0
   25.6217  -14.0191   -6.4064 C   0  0  0  0  0  0  0  0  0  0  0  0
   24.0512  -18.7222   -9.8828 N   0  0  0  0  0  0  0  0  0  0  0  0
   24.5469  -19.4345   -9.4178 H   0  0  0  0  0  0  0  0  0  0  0  0
   23.0143  -19.0448  -10.8712 C   0  0  0  0  0  0  0  0  0  0  0  0
   23.1627  -20.2440  -11.7648 C   0  0  0  0  0  0  0  0  0  0  0  0
   22.1091  -20.2306  -10.6951 C   0  0  0  0  0  0  0  0  0  0  0  0
  1  2  1  0
  2  3  2  0
  3  4  1  0
  4  5  2  0
  5  6  1  0
  6 21  1  0
 21 23  1  0
 23 24  1  0
 24 25  1  0
  6  7  2  0
  7  8  1  0
  8 14  1  0
 14 15  2  0
 15 16  1  0
 16 17  2  0
 17 18  1  0
 17 19  1  0
 19 20  2  0
  8  9  2  0
  9 10  1  0
 10 11  2  0
 11  2  1  0
 10  5  1  0
 25 23  1  0
 20 14  1  0
  1 12  1  0
  1 13  1  0
 21 22  1  0
M  END
> <minimizedAffinity>
-8.08671

> <CNNscore>
0.3175100088

> <CNNaffinity>
6.2105922699

> <CNN_VS>
1.9719252586

> <CNNaffinity_variance>
0.1145631894

$$$$



 25 28  0  0  0  0  0  0  0  0999 V2000
   15.1393  -10.5958   -3.9791 N   0  0  0  0  0  0  0  0  0  0  0  0
   16.0455  -11.4317   -3.3187 C   0  0  0  0  0  0  0  0  0  0  0  0
   15.5870  -12.4127   -2.4465 C   0  0  0  0  0  0  0  0  0  0  0  0
   16.4940  -13.1646   -1.6999 C   0  0  0  0  0  0  0  0  0  0  0  0
   17.8859  -12.9173   -1.7884 C   0  0  0  0  0  0  0  0  0  0  0  0
   18.8849  -13.6204   -1.0913 C   0  0  0  0  0  0  0  0  0  0  0  0
   20.1849  -13.2879   -1.1753 N   0  0  0  0  0  0  0  0  0  0  0  0
   20.5157  -12.2709   -1.9838 C   0  0  0  0  0  0  0  0  0  0  0  0
   19.6373  -11.5630   -2.7135 N   0  0  0  0  0  0  0  0  0  0  0  0
   18.3440  -11.8828   -2.6093 C   0  0  0  0  0  0  0  0  0  0  0  0
   17.4157  -11.1506   -3.3433 C   0  0  0  0  0  0  0  0  0  0  0  0
   14.1763  -10.7993   -3.9578 H   0  0  0  0  0  0  0  0  0  0  0  0
   15.4644   -9.8038   -4.4652 H   0  0  0  0  0  0  0  0  0  0  0  0
   21.9465  -11.9113   -2.0856 C   0  0  0  0  0  0  0  0  0  0  0  0
   22.4928  -10.8493   -1.3335 C   0  0  0  0  0  0  0  0  0  0  0  0
   23.8458  -10.5072   -1.4270 C   0  0  0  0  0  0  0  0  0  0  0  0
   24.6752  -11.2245   -2.2767 C   0  0  0  0  0  0  0  0  0  0  0  0
   25.9710  -10.8987   -2.3672 F   0  0  0  0  0  0  0  0  0  0  0  0
   24.1780  -12.2752   -3.0338 C   0  0  0  0  0  0  0  0  0  0  0  0
   22.8243  -12.6145   -2.9378 C   0  0  0  0  0  0  0  0  0  0  0  0
   18.5128  -14.7002   -0.2394 N   0  0  0  0  0  0  0  0  0  0  0  0
   17.5656  -14.9114   -0.0736 H   0  0  0  0  0  0  0  0  0  0  0  0
   19.5831  -15.4887    0.3839 C   0  0  0  0  0  0  0  0  0  0  0  0
   19.3363  -16.9123    0.7976 C   0  0  0  0  0  0  0  0  0  0  0  0
   20.2550  -16.6130   -0.3517 C   0  0  0  0  0  0  0  0  0  0  0  0
  1  2  1  0
  2  3  2  0
  3  4  1  0
  4  5  2  0
  5  6  1  0
  6 21  1  0
 21 23  1  0
 23 24  1  0
 24 25  1  0
  6  7  2  0
  7  8  1  0
  8 14  1  0
 14 15  2  0
 15 16  1  0
 16 17  2  0
 17 18  1  0
 17 19  1  0
 19 20  2  0
  8  9  2  0
  9 10  1  0
 10 11  2  0
 11  2  1  0
 10  5  1  0
 25 23  1  0
 20 14  1  0
  1 12  1  0
  1 13  1  0
 21 22  1  0
M  END
> <minimizedAffinity>
-3.81745

> <CNNscore>
0.3130175769

> <CNNaffinity>
4.4559745789

> <CNN_VS>
1.3947983980

> <CNNaffinity_variance>
0.1566845775

$$$$



 25 28  0  0  0  0  0  0  0  0999 V2000
   14.0647  -23.4963  -15.3940 N   0  0  0  0  0  0  0  0  0  0  0  0
   15.2900  -24.0945  -15.7049 C   0  0  0  0  0  0  0  0  0  0  0  0
   15.7734  -25.1448  -14.9326 C   0  0  0  0  0  0  0  0  0  0  0  0
   17.0474  -25.6602  -15.1711 C   0  0  0  0  0  0  0  0  0  0  0  0
   17.8794  -25.1011  -16.1719 C   0  0  0  0  0  0  0  0  0  0  0  0
   19.1713  -25.5484  -16.5017 C   0  0  0  0  0  0  0  0  0  0  0  0
   19.9305  -24.9274  -17.4213 N   0  0  0  0  0  0  0  0  0  0  0  0
   19.4009  -23.8706  -18.0541 C   0  0  0  0  0  0  0  0  0  0  0  0
   18.1658  -23.3913  -17.8309 N   0  0  0  0  0  0  0  0  0  0  0  0
   17.4236  -23.9983  -16.8999 C   0  0  0  0  0  0  0  0  0  0  0  0
   16.1476  -23.5069  -16.6408 C   0  0  0  0  0  0  0  0  0  0  0  0
   13.4657  -23.9151  -14.7344 H   0  0  0  0  0  0  0  0  0  0  0  0
   13.8011  -22.6563  -15.8347 H   0  0  0  0  0  0  0  0  0  0  0  0
   20.2308  -23.1935  -19.0737 C   0  0  0  0  0  0  0  0  0  0  0  0
   20.9845  -23.9281  -20.0140 C   0  0  0  0  0  0  0  0  0  0  0  0
   21.7699  -23.2907  -20.9802 C   0  0  0  0  0  0  0  0  0  0  0  0
   21.8132  -21.9048  -21.0203 C   0  0  0  0  0  0  0  0  0  0  0  0
   22.5642  -21.2927  -21.9448 F   0  0  0  0  0  0  0  0  0  0  0  0
   21.0877  -21.1454  -20.1139 C   0  0  0  0  0  0  0  0  0  0  0  0
   20.3034  -21.7864  -19.1491 C   0  0  0  0  0  0  0  0  0  0  0  0
   19.7148  -26.6752  -15.8197 N   0  0  0  0  0  0  0  0  0  0  0  0
   19.6061  -27.5854  -16.1787 H   0  0  0  0  0  0  0  0  0  0  0  0
   20.4416  -26.4392  -14.5659 C   0  0  0  0  0  0  0  0  0  0  0  0
   21.5256  -27.3830  -14.1264 C   0  0  0  0  0  0  0  0  0  0  0  0
   21.8752  -25.9906  -14.5665 C   0  0  0  0  0  0  0  0  0  0  0  0
  1  2  1  0
  2  3  2  0
  3  4  1  0
  4  5  2  0
  5  6  1  0
  6 21  1  0
 21 23  1  0
 23 24  1  0
 24 25  1  0
  6  7  2  0
  7  8  1  0
  8 14  1  0
 14 15  2  0
 15 16  1  0
 16 17  2  0
 17 18  1  0
 17 19  1  0
 19 20  2  0
  8  9  2  0
  9 10  1  0
 10 11  2  0
 11  2  1  0
 10  5  1  0
 25 23  1  0
 20 14  1  0
  1 12  1  0
  1 13  1  0
 21 22  1  0
M  END
> <minimizedAffinity>
-5.11392

> <CNNscore>
0.3090900779

> <CNNaffinity>
4.5333256721

> <CNN_VS>
1.4012060165

> <CNNaffinity_variance>
0.1071199551

$$$$
