


 26 27  0  0  0  0  0  0  0  0999 V2000
   32.9150   22.8889   27.8141 C   0  0  0  0  0  0  0  0  0  0  0  0
   32.8833   21.5126   28.2113 O   0  0  0  0  0  0  0  0  0  0  0  0
   31.9948   20.7119   27.4137 C   0  0  0  0  0  0  0  0  0  0  0  0
   32.3954   20.7508   25.9317 C   0  0  0  0  0  0  0  0  0  0  0  0
   31.4808   20.0288   25.1013 O   0  0  0  0  0  0  0  0  0  0  0  0
   32.3978   22.2065   25.4572 C   0  0  0  0  0  0  0  0  0  0  0  0
   32.8433   22.2821   24.0934 O   0  0  0  0  0  0  0  0  0  0  0  0
   33.3132   23.0641   26.3302 C   0  0  0  0  0  0  0  0  0  0  0  0
   33.1933   24.4358   25.9224 O   0  0  0  0  0  0  0  0  0  0  0  0
   30.6000   20.4300   25.1655 H   0  0  0  0  0  0  0  0  0  0  0  0
   33.7505   21.9445   24.0304 H   0  0  0  0  0  0  0  0  0  0  0  0
   32.2721   24.7230   26.0209 H   0  0  0  0  0  0  0  0  0  0  0  0
   36.3217   25.3985   31.2931 O   0  0  0  0  0  0  0  0  0  0  0  0
   35.5697   24.8389   30.5040 C   0  0  0  0  0  0  0  0  0  0  0  0
   34.2120   24.8275   30.6731 N   0  0  0  0  0  0  0  0  0  0  0  0
   33.2953   24.2247   29.8487 C   0  0  0  0  0  0  0  0  0  0  0  0
   32.1014   24.2789   30.1339 O   0  0  0  0  0  0  0  0  0  0  0  0
   33.8151   23.5882   28.7327 N   0  0  0  0  0  0  0  0  0  0  0  0
   35.1743   23.5499   28.4944 C   0  0  0  0  0  0  0  0  0  0  0  0
   35.6491   22.9101   27.4023 F   0  0  0  0  0  0  0  0  0  0  0  0
   36.0518   24.1335   29.3094 C   0  0  0  0  0  0  0  0  0  0  0  0
   37.3797   24.1113   29.0906 F   0  0  0  0  0  0  0  0  0  0  0  0
   33.8584   25.2973   31.4627 H   0  0  0  0  0  0  0  0  0  0  0  0
   32.0536   19.2880   27.9766 C   0  0  0  0  0  0  0  0  0  0  0  0
   33.0504   18.5380   27.2836 O   0  0  0  0  0  0  0  0  0  0  0  0
   32.8290   18.5006   26.3400 H   0  0  0  0  0  0  0  0  0  0  0  0
 13 14  2  0
 14 15  1  0
 15 16  1  0
 16 17  2  0
 16 18  1  0
  1 18  1  0
  1  2  1  0
  2  3  1  0
  3 24  1  0
 24 25  1  0
  3  4  1  0
  4  5  1  0
  4  6  1  0
  6  7  1  0
  6  8  1  0
  8  9  1  0
 18 19  1  0
 19 20  1  0
 19 21  2  0
 21 22  1  0
 21 14  1  0
  8  1  1  0
 15 23  1  0
 25 26  1  0
  5 10  1  0
  7 11  1  0
  9 12  1  0
M  END
> <minimizedAffinity>
-10.43633

> <CNNscore>
0.7504270077

> <CNNaffinity>
4.8069739342

> <CNN_VS>
3.6072831154

> <CNNaffinity_variance>
0.1187582985

$$$$



 26 27  0  0  0  0  0  0  0  0999 V2000
   37.2128   25.6349   31.7299 C   0  0  0  0  0  0  0  0  0  0  0  0
   35.8235   25.2999   31.6276 O   0  0  0  0  0  0  0  0  0  0  0  0
   35.4409   24.8597   30.3136 C   0  0  0  0  0  0  0  0  0  0  0  0
   36.2423   23.6199   29.8906 C   0  0  0  0  0  0  0  0  0  0  0  0
   35.9416   23.2072   28.5539 O   0  0  0  0  0  0  0  0  0  0  0  0
   37.7357   23.9531   29.9448 C   0  0  0  0  0  0  0  0  0  0  0  0
   38.5149   22.7885   29.6275 O   0  0  0  0  0  0  0  0  0  0  0  0
   38.1329   24.4575   31.3317 C   0  0  0  0  0  0  0  0  0  0  0  0
   39.5093   24.8658   31.3014 O   0  0  0  0  0  0  0  0  0  0  0  0
   36.1748   23.9176   27.9360 H   0  0  0  0  0  0  0  0  0  0  0  0
   38.3386   22.0937   30.2810 H   0  0  0  0  0  0  0  0  0  0  0  0
   39.6233   25.5701   30.6442 H   0  0  0  0  0  0  0  0  0  0  0  0
   37.9987   27.4718   36.8304 O   0  0  0  0  0  0  0  0  0  0  0  0
   37.8163   27.0486   35.6951 C   0  0  0  0  0  0  0  0  0  0  0  0
   38.6158   27.4093   34.6449 N   0  0  0  0  0  0  0  0  0  0  0  0
   38.4854   26.9930   33.3438 C   0  0  0  0  0  0  0  0  0  0  0  0
   39.2681   27.4139   32.4953 O   0  0  0  0  0  0  0  0  0  0  0  0
   37.4491   26.1070   33.0953 N   0  0  0  0  0  0  0  0  0  0  0  0
   36.5947   25.6995   34.1002 C   0  0  0  0  0  0  0  0  0  0  0  0
   35.5864   24.8433   33.8212 F   0  0  0  0  0  0  0  0  0  0  0  0
   36.7302   26.1196   35.3571 C   0  0  0  0  0  0  0  0  0  0  0  0
   35.9105   25.7291   36.3508 F   0  0  0  0  0  0  0  0  0  0  0  0
   39.3564   28.0273   34.8418 H   0  0  0  0  0  0  0  0  0  0  0  0
   33.9372   24.5695   30.3623 C   0  0  0  0  0  0  0  0  0  0  0  0
   33.2797   25.2608   29.3011 O   0  0  0  0  0  0  0  0  0  0  0  0
   33.4252   26.2150   29.3977 H   0  0  0  0  0  0  0  0  0  0  0  0
 13 14  2  0
 14 15  1  0
 15 16  1  0
 16 17  2  0
 16 18  1  0
  1 18  1  0
  1  2  1  0
  2  3  1  0
  3 24  1  0
 24 25  1  0
  3  4  1  0
  4  5  1  0
  4  6  1  0
  6  7  1  0
  6  8  1  0
  8  9  1  0
 18 19  1  0
 19 20  1  0
 19 21  2  0
 21 22  1  0
 21 14  1  0
  8  1  1  0
 15 23  1  0
 25 26  1  0
  5 10  1  0
  7 11  1  0
  9 12  1  0
M  END
> <minimizedAffinity>
-9.11821

> <CNNscore>
0.2343237549

> <CNNaffinity>
4.0868792534

> <CNN_VS>
0.9576528668

> <CNNaffinity_variance>
1.0855517387

$$$$



 26 27  0  0  0  0  0  0  0  0999 V2000
   36.9136   26.2963   33.4850 C   0  0  0  0  0  0  0  0  0  0  0  0
   38.3322   26.1209   33.5845 O   0  0  0  0  0  0  0  0  0  0  0  0
   38.9334   26.9283   34.6109 C   0  0  0  0  0  0  0  0  0  0  0  0
   38.3354   26.6072   35.9883 C   0  0  0  0  0  0  0  0  0  0  0  0
   38.8560   27.4528   37.0186 O   0  0  0  0  0  0  0  0  0  0  0  0
   36.8209   26.8260   35.9343 C   0  0  0  0  0  0  0  0  0  0  0  0
   36.2225   26.4599   37.1881 O   0  0  0  0  0  0  0  0  0  0  0  0
   36.1886   25.9962   34.8175 C   0  0  0  0  0  0  0  0  0  0  0  0
   34.7927   26.3214   34.7299 O   0  0  0  0  0  0  0  0  0  0  0  0
   38.6323   28.3761   36.8228 H   0  0  0  0  0  0  0  0  0  0  0  0
   36.3838   25.5191   37.3608 H   0  0  0  0  0  0  0  0  0  0  0  0
   34.6923   27.2676   34.5412 H   0  0  0  0  0  0  0  0  0  0  0  0
   35.1415   23.2586   29.2851 O   0  0  0  0  0  0  0  0  0  0  0  0
   35.5520   23.9358   30.2200 C   0  0  0  0  0  0  0  0  0  0  0  0
   34.8431   24.0824   31.3811 N   0  0  0  0  0  0  0  0  0  0  0  0
   35.2183   24.8219   32.4746 C   0  0  0  0  0  0  0  0  0  0  0  0
   34.4707   24.8798   33.4479 O   0  0  0  0  0  0  0  0  0  0  0  0
   36.4461   25.4578   32.3798 N   0  0  0  0  0  0  0  0  0  0  0  0
   37.2185   25.3640   31.2395 C   0  0  0  0  0  0  0  0  0  0  0  0
   38.4061   26.0067   31.1754 F   0  0  0  0  0  0  0  0  0  0  0  0
   36.8358   24.6483   30.1831 C   0  0  0  0  0  0  0  0  0  0  0  0
   37.5777   24.5408   29.0651 F   0  0  0  0  0  0  0  0  0  0  0  0
   33.9803   23.6117   31.4376 H   0  0  0  0  0  0  0  0  0  0  0  0
   40.4394   26.6492   34.5709 C   0  0  0  0  0  0  0  0  0  0  0  0
   40.6932   25.4956   33.7702 O   0  0  0  0  0  0  0  0  0  0  0  0
   40.2355   24.7301   34.1517 H   0  0  0  0  0  0  0  0  0  0  0  0
 13 14  2  0
 14 15  1  0
 15 16  1  0
 16 17  2  0
 16 18  1  0
  1 18  1  0
  1  2  1  0
  2  3  1  0
  3 24  1  0
 24 25  1  0
  3  4  1  0
  4  5  1  0
  4  6  1  0
  6  7  1  0
  6  8  1  0
  8  9  1  0
 18 19  1  0
 19 20  1  0
 19 21  2  0
 21 22  1  0
 21 14  1  0
  8  1  1  0
 15 23  1  0
 25 26  1  0
  5 10  1  0
  7 11  1  0
  9 12  1  0
M  END
> <minimizedAffinity>
-9.01126

> <CNNscore>
0.2215852439

> <CNNaffinity>
4.1415567398

> <CNN_VS>
0.9177078605

> <CNNaffinity_variance>
0.4335864484

$$$$



 26 27  0  0  0  0  0  0  0  0999 V2000
   25.6006   24.8465   27.7772 C   0  0  0  0  0  0  0  0  0  0  0  0
   26.9973   24.5405   27.6839 O   0  0  0  0  0  0  0  0  0  0  0  0
   27.3333   23.7718   26.5164 C   0  0  0  0  0  0  0  0  0  0  0  0
   26.9419   24.5170   25.2321 C   0  0  0  0  0  0  0  0  0  0  0  0
   27.1893   23.7412   24.0555 O   0  0  0  0  0  0  0  0  0  0  0  0
   25.4424   24.8237   25.2746 C   0  0  0  0  0  0  0  0  0  0  0  0
   25.0603   25.5887   24.1200 O   0  0  0  0  0  0  0  0  0  0  0  0
   25.0808   25.6078   26.5356 C   0  0  0  0  0  0  0  0  0  0  0  0
   23.6550   25.7699   26.5895 O   0  0  0  0  0  0  0  0  0  0  0  0
   26.6567   22.9310   24.0844 H   0  0  0  0  0  0  0  0  0  0  0  0
   25.5392   26.4322   24.1181 H   0  0  0  0  0  0  0  0  0  0  0  0
   23.2307   24.8977   26.6049 H   0  0  0  0  0  0  0  0  0  0  0  0
   24.7368   27.6522   32.4020 O   0  0  0  0  0  0  0  0  0  0  0  0
   24.9244   27.0123   31.3741 C   0  0  0  0  0  0  0  0  0  0  0  0
   25.8924   27.3531   30.4691 N   0  0  0  0  0  0  0  0  0  0  0  0
   26.1706   26.7028   29.2931 C   0  0  0  0  0  0  0  0  0  0  0  0
   27.0610   27.1322   28.5634 O   0  0  0  0  0  0  0  0  0  0  0  0
   25.3974   25.5843   29.0251 N   0  0  0  0  0  0  0  0  0  0  0  0
   24.3966   25.1790   29.8853 C   0  0  0  0  0  0  0  0  0  0  0  0
   23.6527   24.0901   29.5879 F   0  0  0  0  0  0  0  0  0  0  0  0
   24.1339   25.8264   31.0195 C   0  0  0  0  0  0  0  0  0  0  0  0
   23.1661   25.4430   31.8729 F   0  0  0  0  0  0  0  0  0  0  0  0
   26.4427   28.1411   30.6823 H   0  0  0  0  0  0  0  0  0  0  0  0
   28.8412   23.5069   26.5775 C   0  0  0  0  0  0  0  0  0  0  0  0
   29.1362   22.2608   25.9478 O   0  0  0  0  0  0  0  0  0  0  0  0
   28.6666   21.5472   26.4073 H   0  0  0  0  0  0  0  0  0  0  0  0
 13 14  2  0
 14 15  1  0
 15 16  1  0
 16 17  2  0
 16 18  1  0
  1 18  1  0
  1  2  1  0
  2  3  1  0
  3 24  1  0
 24 25  1  0
  3  4  1  0
  4  5  1  0
  4  6  1  0
  6  7  1  0
  6  8  1  0
  8  9  1  0
 18 19  1  0
 19 20  1  0
 19 21  2  0
 21 22  1  0
 21 14  1  0
  8  1  1  0
 15 23  1  0
 25 26  1  0
  5 10  1  0
  7 11  1  0
  9 12  1  0
M  END
> <minimizedAffinity>
-9.61132

> <CNNscore>
0.2190789133

> <CNNaffinity>
4.1723189354

> <CNN_VS>
0.9140670896

> <CNNaffinity_variance>
0.1440072358

$$$$



 26 27  0  0  0  0  0  0  0  0999 V2000
   37.2533   26.5612   33.6529 C   0  0  0  0  0  0  0  0  0  0  0  0
   38.6219   26.5531   34.0772 O   0  0  0  0  0  0  0  0  0  0  0  0
   38.8401   27.2699   35.3041 C   0  0  0  0  0  0  0  0  0  0  0  0
   38.0036   26.6769   36.4473 C   0  0  0  0  0  0  0  0  0  0  0  0
   38.1375   27.4204   37.6624 O   0  0  0  0  0  0  0  0  0  0  0  0
   36.5258   26.7089   36.0482 C   0  0  0  0  0  0  0  0  0  0  0  0
   35.7240   26.0899   37.0670 O   0  0  0  0  0  0  0  0  0  0  0  0
   36.3017   25.9795   34.7240 C   0  0  0  0  0  0  0  0  0  0  0  0
   34.9286   26.1357   34.3337 O   0  0  0  0  0  0  0  0  0  0  0  0
   37.8217   28.3270   37.5232 H   0  0  0  0  0  0  0  0  0  0  0  0
   35.9879   25.1618   37.1668 H   0  0  0  0  0  0  0  0  0  0  0  0
   34.7261   27.0791   34.2342 H   0  0  0  0  0  0  0  0  0  0  0  0
   37.0128   23.7663   28.9478 O   0  0  0  0  0  0  0  0  0  0  0  0
   37.0516   24.3925   30.0002 C   0  0  0  0  0  0  0  0  0  0  0  0
   38.1436   25.1290   30.3711 N   0  0  0  0  0  0  0  0  0  0  0  0
   38.2797   25.8546   31.5278 C   0  0  0  0  0  0  0  0  0  0  0  0
   39.3291   26.4571   31.7410 O   0  0  0  0  0  0  0  0  0  0  0  0
   37.1864   25.8423   32.3794 N   0  0  0  0  0  0  0  0  0  0  0  0
   36.0495   25.1187   32.0798 C   0  0  0  0  0  0  0  0  0  0  0  0
   35.0053   25.1186   32.9383 F   0  0  0  0  0  0  0  0  0  0  0  0
   35.9366   24.4125   30.9559 C   0  0  0  0  0  0  0  0  0  0  0  0
   34.8343   23.7056   30.6443 F   0  0  0  0  0  0  0  0  0  0  0  0
   38.9054   25.1392   29.7476 H   0  0  0  0  0  0  0  0  0  0  0  0
   40.3407   27.1914   35.6038 C   0  0  0  0  0  0  0  0  0  0  0  0
   40.5731   26.2502   36.6508 O   0  0  0  0  0  0  0  0  0  0  0  0
   40.1011   26.5323   37.4499 H   0  0  0  0  0  0  0  0  0  0  0  0
 13 14  2  0
 14 15  1  0
 15 16  1  0
 16 17  2  0
 16 18  1  0
  1 18  1  0
  1  2  1  0
  2  3  1  0
  3 24  1  0
 24 25  1  0
  3  4  1  0
  4  5  1  0
  4  6  1  0
  6  7  1  0
  6  8  1  0
  8  9  1  0
 18 19  1  0
 19 20  1  0
 19 21  2  0
 21 22  1  0
 21 14  1  0
  8  1  1  0
 15 23  1  0
 25 26  1  0
  5 10  1  0
  7 11  1  0
  9 12  1  0
M  END
> <minimizedAffinity>
-8.94490

> <CNNscore>
0.1949845552

> <CNNaffinity>
4.4865345955

> <CNN_VS>
0.8748049736

> <CNNaffinity_variance>
0.1318900585

$$$$



 26 27  0  0  0  0  0  0  0  0999 V2000
   37.4541   26.4550   33.8947 C   0  0  0  0  0  0  0  0  0  0  0  0
   38.7662   26.5958   34.4527 O   0  0  0  0  0  0  0  0  0  0  0  0
   38.8013   27.4420   35.6144 C   0  0  0  0  0  0  0  0  0  0  0  0
   37.8892   26.8970   36.7231 C   0  0  0  0  0  0  0  0  0  0  0  0
   37.8400   27.7619   37.8620 O   0  0  0  0  0  0  0  0  0  0  0  0
   36.4643   26.7737   36.1766 C   0  0  0  0  0  0  0  0  0  0  0  0
   35.6018   26.1938   37.1685 O   0  0  0  0  0  0  0  0  0  0  0  0
   36.4347   25.9053   34.9194 C   0  0  0  0  0  0  0  0  0  0  0  0
   35.1042   25.9142   34.3792 O   0  0  0  0  0  0  0  0  0  0  0  0
   37.4796   28.6231   37.5986 H   0  0  0  0  0  0  0  0  0  0  0  0
   35.9164   25.3033   37.3898 H   0  0  0  0  0  0  0  0  0  0  0  0
   34.8493   26.8248   34.1627 H   0  0  0  0  0  0  0  0  0  0  0  0
   37.9594   23.4003   29.3757 O   0  0  0  0  0  0  0  0  0  0  0  0
   37.8585   24.0769   30.3923 C   0  0  0  0  0  0  0  0  0  0  0  0
   36.6610   24.5886   30.8121 N   0  0  0  0  0  0  0  0  0  0  0  0
   36.4530   25.3586   31.9289 C   0  0  0  0  0  0  0  0  0  0  0  0
   35.3210   25.7675   32.1763 O   0  0  0  0  0  0  0  0  0  0  0  0
   37.5742   25.6143   32.7023 N   0  0  0  0  0  0  0  0  0  0  0  0
   38.8194   25.1387   32.3431 C   0  0  0  0  0  0  0  0  0  0  0  0
   39.8948   25.4166   33.1137 F   0  0  0  0  0  0  0  0  0  0  0  0
   39.0057   24.3991   31.2508 C   0  0  0  0  0  0  0  0  0  0  0  0
   40.2109   23.9223   30.8876 F   0  0  0  0  0  0  0  0  0  0  0  0
   35.8722   24.3847   30.2595 H   0  0  0  0  0  0  0  0  0  0  0  0
   40.2627   27.5115   36.0696 C   0  0  0  0  0  0  0  0  0  0  0  0
   40.4902   26.5543   37.1032 O   0  0  0  0  0  0  0  0  0  0  0  0
   39.9104   26.7478   37.8564 H   0  0  0  0  0  0  0  0  0  0  0  0
 13 14  2  0
 14 15  1  0
 15 16  1  0
 16 17  2  0
 16 18  1  0
  1 18  1  0
  1  2  1  0
  2  3  1  0
  3 24  1  0
 24 25  1  0
  3  4  1  0
  4  5  1  0
  4  6  1  0
  6  7  1  0
  6  8  1  0
  8  9  1  0
 18 19  1  0
 19 20  1  0
 19 21  2  0
 21 22  1  0
 21 14  1  0
  8  1  1  0
 15 23  1  0
 25 26  1  0
  5 10  1  0
  7 11  1  0
  9 12  1  0
M  END
> <minimizedAffinity>
-9.32643

> <CNNscore>
0.1820738912

> <CNNaffinity>
4.2662997246

> <CNN_VS>
0.7767817974

> <CNNaffinity_variance>
0.2975371778

$$$$



 26 27  0  0  0  0  0  0  0  0999 V2000
   34.8157   24.0639   28.6209 C   0  0  0  0  0  0  0  0  0  0  0  0
   36.1915   23.6959   28.7786 O   0  0  0  0  0  0  0  0  0  0  0  0
   36.8673   24.4497   29.7993 C   0  0  0  0  0  0  0  0  0  0  0  0
   36.1863   24.2677   31.1635 C   0  0  0  0  0  0  0  0  0  0  0  0
   36.7876   25.0707   32.1838 O   0  0  0  0  0  0  0  0  0  0  0  0
   34.7203   24.6938   31.0463 C   0  0  0  0  0  0  0  0  0  0  0  0
   34.0364   24.4627   32.2884 O   0  0  0  0  0  0  0  0  0  0  0  0
   34.0134   23.9188   29.9349 C   0  0  0  0  0  0  0  0  0  0  0  0
   32.6807   24.4323   29.7850 O   0  0  0  0  0  0  0  0  0  0  0  0
   36.7027   26.0081   31.9494 H   0  0  0  0  0  0  0  0  0  0  0  0
   34.0578   23.5159   32.4980 H   0  0  0  0  0  0  0  0  0  0  0  0
   32.7209   25.3754   29.5615 H   0  0  0  0  0  0  0  0  0  0  0  0
   32.8783   20.9838   24.5261 O   0  0  0  0  0  0  0  0  0  0  0  0
   33.3042   21.6642   25.4519 C   0  0  0  0  0  0  0  0  0  0  0  0
   33.6710   22.9721   25.2874 N   0  0  0  0  0  0  0  0  0  0  0  0
   34.1619   23.8069   26.2597 C   0  0  0  0  0  0  0  0  0  0  0  0
   34.4696   24.9594   25.9650 O   0  0  0  0  0  0  0  0  0  0  0  0
   34.2703   23.2576   27.5275 N   0  0  0  0  0  0  0  0  0  0  0  0
   33.9264   21.9435   27.7737 C   0  0  0  0  0  0  0  0  0  0  0  0
   34.0557   21.4354   29.0198 F   0  0  0  0  0  0  0  0  0  0  0  0
   33.4589   21.1437   26.8165 C   0  0  0  0  0  0  0  0  0  0  0  0
   33.1135   19.8618   27.0388 F   0  0  0  0  0  0  0  0  0  0  0  0
   33.5733   23.3510   24.3840 H   0  0  0  0  0  0  0  0  0  0  0  0
   38.3195   23.9614   29.8243 C   0  0  0  0  0  0  0  0  0  0  0  0
   38.6214   23.4170   31.1083 O   0  0  0  0  0  0  0  0  0  0  0  0
   38.5016   24.1008   31.7857 H   0  0  0  0  0  0  0  0  0  0  0  0
 13 14  2  0
 14 15  1  0
 15 16  1  0
 16 17  2  0
 16 18  1  0
  1 18  1  0
  1  2  1  0
  2  3  1  0
  3 24  1  0
 24 25  1  0
  3  4  1  0
  4  5  1  0
  4  6  1  0
  6  7  1  0
  6  8  1  0
  8  9  1  0
 18 19  1  0
 19 20  1  0
 19 21  2  0
 21 22  1  0
 21 14  1  0
  8  1  1  0
 15 23  1  0
 25 26  1  0
  5 10  1  0
  7 11  1  0
  9 12  1  0
M  END
> <minimizedAffinity>
-8.58939

> <CNNscore>
0.1721703708

> <CNNaffinity>
4.0066571236

> <CNN_VS>
0.6898276210

> <CNNaffinity_variance>
0.6212971807

$$$$



 26 27  0  0  0  0  0  0  0  0999 V2000
   36.5646   25.5127   31.8268 C   0  0  0  0  0  0  0  0  0  0  0  0
   35.2170   25.1500   31.5018 O   0  0  0  0  0  0  0  0  0  0  0  0
   35.0403   24.8041   30.1177 C   0  0  0  0  0  0  0  0  0  0  0  0
   35.9392   23.6231   29.7237 C   0  0  0  0  0  0  0  0  0  0  0  0
   35.8456   23.3085   28.3309 O   0  0  0  0  0  0  0  0  0  0  0  0
   37.3965   23.9905   30.0159 C   0  0  0  0  0  0  0  0  0  0  0  0
   38.2557   22.8755   29.7287 O   0  0  0  0  0  0  0  0  0  0  0  0
   37.5750   24.3951   31.4789 C   0  0  0  0  0  0  0  0  0  0  0  0
   38.9257   24.8409   31.6766 O   0  0  0  0  0  0  0  0  0  0  0  0
   36.1368   24.0711   27.8069 H   0  0  0  0  0  0  0  0  0  0  0  0
   38.0152   22.1271   30.2970 H   0  0  0  0  0  0  0  0  0  0  0  0
   39.1047   25.5973   31.0963 H   0  0  0  0  0  0  0  0  0  0  0  0
   36.7479   26.8229   37.1425 O   0  0  0  0  0  0  0  0  0  0  0  0
   36.7144   26.5425   35.9502 C   0  0  0  0  0  0  0  0  0  0  0  0
   35.7347   25.7520   35.4140 N   0  0  0  0  0  0  0  0  0  0  0  0
   35.6193   25.3811   34.0978 C   0  0  0  0  0  0  0  0  0  0  0  0
   34.6937   24.6481   33.7575 O   0  0  0  0  0  0  0  0  0  0  0  0
   36.5881   25.8825   33.2430 N   0  0  0  0  0  0  0  0  0  0  0  0
   37.6132   26.6819   33.7077 C   0  0  0  0  0  0  0  0  0  0  0  0
   38.5490   27.1445   32.8488 F   0  0  0  0  0  0  0  0  0  0  0  0
   37.7154   27.0261   34.9905 C   0  0  0  0  0  0  0  0  0  0  0  0
   38.7044   27.8088   35.4609 F   0  0  0  0  0  0  0  0  0  0  0  0
   35.0458   25.4169   36.0323 H   0  0  0  0  0  0  0  0  0  0  0  0
   33.5566   24.4712   29.9287 C   0  0  0  0  0  0  0  0  0  0  0  0
   33.0185   25.2598   28.8682 O   0  0  0  0  0  0  0  0  0  0  0  0
   33.1105   26.2006   29.0859 H   0  0  0  0  0  0  0  0  0  0  0  0
 13 14  2  0
 14 15  1  0
 15 16  1  0
 16 17  2  0
 16 18  1  0
  1 18  1  0
  1  2  1  0
  2  3  1  0
  3 24  1  0
 24 25  1  0
  3  4  1  0
  4  5  1  0
  4  6  1  0
  6  7  1  0
  6  8  1  0
  8  9  1  0
 18 19  1  0
 19 20  1  0
 19 21  2  0
 21 22  1  0
 21 14  1  0
  8  1  1  0
 15 23  1  0
 25 26  1  0
  5 10  1  0
  7 11  1  0
  9 12  1  0
M  END
> <minimizedAffinity>
-9.61325

> <CNNscore>
0.1451032609

> <CNNaffinity>
3.3653128147

> <CNN_VS>
0.4883178771

> <CNNaffinity_variance>
1.0419292450

$$$$



 26 27  0  0  0  0  0  0  0  0999 V2000
   26.8860   24.6026   27.7793 C   0  0  0  0  0  0  0  0  0  0  0  0
   28.1898   25.1909   27.8646 O   0  0  0  0  0  0  0  0  0  0  0  0
   29.1045   24.6898   26.8751 C   0  0  0  0  0  0  0  0  0  0  0  0
   28.5788   24.9471   25.4554 C   0  0  0  0  0  0  0  0  0  0  0  0
   29.4288   24.3866   24.4501 O   0  0  0  0  0  0  0  0  0  0  0  0
   27.2017   24.2938   25.3109 C   0  0  0  0  0  0  0  0  0  0  0  0
   26.6498   24.5826   24.0162 O   0  0  0  0  0  0  0  0  0  0  0  0
   26.2417   24.7989   26.3874 C   0  0  0  0  0  0  0  0  0  0  0  0
   25.0054   24.0756   26.2845 O   0  0  0  0  0  0  0  0  0  0  0  0
   29.4731   23.4243   24.5639 H   0  0  0  0  0  0  0  0  0  0  0  0
   26.5388   25.5412   23.9186 H   0  0  0  0  0  0  0  0  0  0  0  0
   25.1742   23.1281   26.4051 H   0  0  0  0  0  0  0  0  0  0  0  0
   23.9741   26.7171   31.9093 O   0  0  0  0  0  0  0  0  0  0  0  0
   24.6258   26.2577   30.9790 C   0  0  0  0  0  0  0  0  0  0  0  0
   24.5576   24.9386   30.6218 N   0  0  0  0  0  0  0  0  0  0  0  0
   25.2514   24.3356   29.6029 C   0  0  0  0  0  0  0  0  0  0  0  0
   25.1058   23.1317   29.4049 O   0  0  0  0  0  0  0  0  0  0  0  0
   26.0811   25.1650   28.8650 N   0  0  0  0  0  0  0  0  0  0  0  0
   26.2096   26.5061   29.1663 C   0  0  0  0  0  0  0  0  0  0  0  0
   27.0370   27.2848   28.4337 F   0  0  0  0  0  0  0  0  0  0  0  0
   25.5348   27.0745   30.1644 C   0  0  0  0  0  0  0  0  0  0  0  0
   25.6431   28.3810   30.4694 F   0  0  0  0  0  0  0  0  0  0  0  0
   23.9519   24.3667   31.1466 H   0  0  0  0  0  0  0  0  0  0  0  0
   30.4462   25.3897   27.1153 C   0  0  0  0  0  0  0  0  0  0  0  0
   30.6284   25.6128   28.5128 O   0  0  0  0  0  0  0  0  0  0  0  0
   29.9105   26.1729   28.8472 H   0  0  0  0  0  0  0  0  0  0  0  0
 13 14  2  0
 14 15  1  0
 15 16  1  0
 16 17  2  0
 16 18  1  0
  1 18  1  0
  1  2  1  0
  2  3  1  0
  3 24  1  0
 24 25  1  0
  3  4  1  0
  4  5  1  0
  4  6  1  0
  6  7  1  0
  6  8  1  0
  8  9  1  0
 18 19  1  0
 19 20  1  0
 19 21  2  0
 21 22  1  0
 21 14  1  0
  8  1  1  0
 15 23  1  0
 25 26  1  0
  5 10  1  0
  7 11  1  0
  9 12  1  0
M  END
> <minimizedAffinity>
-8.58415

> <CNNscore>
0.1447500437

> <CNNaffinity>
3.5821933746

> <CNN_VS>
0.5185226202

> <CNNaffinity_variance>
0.8638395667

$$$$
