


 56 58  0  0  0  0  0  0  0  0999 V2000
    8.1992   28.1648    5.6147 C   0  0  0  0  0  0  0  0  0  0  0  0
    8.5875   29.6166    7.6108 N   0  0  0  0  0  0  0  0  0  0  0  0
    7.6886   28.8237    6.9234 C   0  0  0  0  0  0  0  0  0  0  0  0
    6.5405   28.6726    7.3639 O   0  0  0  0  0  0  0  0  0  0  0  0
    9.4196   29.9152    7.1776 H   0  0  0  0  0  0  0  0  0  0  0  0
    8.2918   30.0058    8.9816 C   0  0  0  0  0  0  0  0  0  0  0  0
    8.8047   31.4118    9.4348 C   0  0  0  0  0  0  0  0  0  0  0  0
    7.9848   32.4842    9.3003 N   0  0  0  0  0  0  0  0  0  0  0  0
    9.8777   31.5461   10.0364 O   0  0  0  0  0  0  0  0  0  0  0  0
    7.1280   32.3922    8.8241 H   0  0  0  0  0  0  0  0  0  0  0  0
    8.2466   33.3545    9.6788 H   0  0  0  0  0  0  0  0  0  0  0  0
    8.7582   28.8824    9.9447 C   0  0  0  0  0  0  0  0  0  0  0  0
    7.6767   28.0820   10.7034 C   0  0  0  0  0  0  0  0  0  0  0  0
    7.3561   28.6822   12.0734 C   0  0  0  0  0  0  0  0  0  0  0  0
    8.0468   27.9131   13.2839 N   0  0  0  0  0  0  0  0  0  0  0  0
    8.5838   26.6448   12.5871 C   0  0  0  0  0  0  0  0  0  0  0  0
    9.2309   28.7548   13.7401 C   0  0  0  0  0  0  0  0  0  0  0  0
    6.9368   27.6732   14.3053 C   0  0  0  0  0  0  0  0  0  0  0  0
    5.6833   28.5576   14.4471 N   0  0  0  0  0  0  0  0  0  0  0  0
    4.8385   28.5858   13.1783 C   0  0  0  0  0  0  0  0  0  0  0  0
    6.2257   29.9992   14.5488 C   0  0  0  0  0  0  0  0  0  0  0  0
    4.7614   28.1786   15.5991 C   0  0  0  0  0  0  0  0  0  0  0  0
    5.2597   25.6963   15.9869 C   0  0  0  0  0  0  0  0  0  0  0  0
    5.0815   27.1012   16.6043 N   0  0  0  0  0  0  0  0  0  0  0  0
    4.2264   27.0207   17.8657 C   0  0  0  0  0  0  0  0  0  0  0  0
    6.5261   27.4362   17.1475 C   0  0  0  0  0  0  0  0  0  0  0  0
    7.9344   26.7369    5.6517 N   0  0  0  0  0  0  0  0  0  0  0  0
    8.8398   25.8811    5.0387 C   0  0  0  0  0  0  0  0  0  0  0  0
    9.8544   26.2781    4.4713 O   0  0  0  0  0  0  0  0  0  0  0  0
    7.1322   26.3845    6.1007 H   0  0  0  0  0  0  0  0  0  0  0  0
    8.4529   24.4182    5.1068 C   0  0  0  0  0  0  0  0  0  0  0  0
    7.2730   24.1139    4.1712 C   0  0  0  0  0  0  0  0  0  0  0  0
    6.0422   23.7424    4.9623 C   0  0  0  0  0  0  0  0  0  0  0  0
    6.1117   22.6855    5.8730 C   0  0  0  0  0  0  0  0  0  0  0  0
    4.9742   22.2606    6.5608 C   0  0  0  0  0  0  0  0  0  0  0  0
    3.7214   22.8547    6.3356 C   0  0  0  0  0  0  0  0  0  0  0  0
    3.6664   23.9148    5.4251 C   0  0  0  0  0  0  0  0  0  0  0  0
    4.8110   24.3540    4.7567 C   0  0  0  0  0  0  0  0  0  0  0  0
    2.5296   22.3523    7.0497 C   0  0  0  0  0  0  0  0  0  0  0  0
    1.1980   22.6535    6.8004 C   0  0  0  0  0  0  0  0  0  0  0  0
    0.2887   22.0618    7.7487 C   0  0  0  0  0  0  0  0  0  0  0  0
    0.9734   21.2544    8.6328 C   0  0  0  0  0  0  0  0  0  0  0  0
    2.6589   21.2864    8.3862 S   0  0  0  0  0  0  0  0  0  0  0  0
   -1.1438   22.2268    7.7987 C   0  0  0  0  0  0  0  0  0  0  0  0
   -1.9851   21.1210    7.9533 C   0  0  0  0  0  0  0  0  0  0  0  0
   -3.3754   21.2811    7.9771 C   0  0  0  0  0  0  0  0  0  0  0  0
   -3.9327   22.5455    7.8342 C   0  0  0  0  0  0  0  0  0  0  0  0
   -3.1114   23.6552    7.6608 C   0  0  0  0  0  0  0  0  0  0  0  0
   -1.7250   23.4964    7.6574 C   0  0  0  0  0  0  0  0  0  0  0  0
    7.6218   28.7686    4.3085 C   0  0  0  0  0  0  0  0  0  0  0  0
    8.6612   29.3791    3.3597 C   0  0  0  0  0  0  0  0  0  0  0  0
    8.0142   29.9004    2.1042 C   0  0  0  0  0  0  0  0  0  0  0  0
    6.9748   29.1986    1.6194 N   0  0  0  0  0  0  0  0  0  0  0  0
    8.2951   31.0026    1.6271 O   0  0  0  0  0  0  0  0  0  0  0  0
    6.7531   28.3191    2.0024 H   0  0  0  0  0  0  0  0  0  0  0  0
    6.4353   29.5642    0.8814 H   0  0  0  0  0  0  0  0  0  0  0  0
 23 24  1  0
 24 25  1  0
 24 26  1  0
 24 22  1  0
 22 19  1  0
 19 20  1  0
 19 21  1  0
 19 18  1  0
 18 15  1  0
 15 16  1  0
 15 17  1  0
 15 14  1  0
 14 13  1  0
 13 12  1  0
  6 12  1  0
  6  2  1  0
  2  3  1  0
  3  4  2  0
  3  1  1  0
  1 50  1  0
 50 51  1  0
 51 52  1  0
 52 53  1  0
 52 54  2  0
  1 27  1  0
 27 28  1  0
 28 29  2  0
 28 31  1  0
 31 32  1  0
 32 33  1  0
 33 34  2  0
 34 35  1  0
 35 36  2  0
 36 39  1  0
 39 40  2  0
 40 41  1  0
 41 44  1  0
 44 45  2  0
 45 46  1  0
 46 47  2  0
 47 48  1  0
 48 49  2  0
 41 42  2  0
 42 43  1  0
 36 37  1  0
 37 38  2  0
  6  7  1  0
  7  8  1  0
  7  9  2  0
 38 33  1  0
 43 39  1  0
 49 44  1  0
  2  5  1  0
 53 55  1  0
 53 56  1  0
 27 30  1  0
  8 10  1  0
  8 11  1  0
M  CHG 1  15   1
M  CHG 1  19   1
M  CHG 1  24   1
M  END
> <minimizedAffinity>
-8.83988

> <CNNscore>
0.8852863312

> <CNNaffinity>
8.7002191544

> <CNN_VS>
7.7021851540

> <CNNaffinity_variance>
0.6502725482

$$$$



 56 58  0  0  0  0  0  0  0  0999 V2000
    8.4901   27.0219    2.6562 C   0  0  0  0  0  0  0  0  0  0  0  0
    9.0632   29.1073    3.9073 N   0  0  0  0  0  0  0  0  0  0  0  0
    8.4489   28.5668    2.7939 C   0  0  0  0  0  0  0  0  0  0  0  0
    7.9037   29.3138    1.9695 O   0  0  0  0  0  0  0  0  0  0  0  0
    9.6730   28.5603    4.4534 H   0  0  0  0  0  0  0  0  0  0  0  0
    8.7998   30.4933    4.2646 C   0  0  0  0  0  0  0  0  0  0  0  0
    9.8910   31.5382    3.8612 C   0  0  0  0  0  0  0  0  0  0  0  0
    9.5018   32.7099    3.2991 N   0  0  0  0  0  0  0  0  0  0  0  0
   11.0800   31.3830    4.1670 O   0  0  0  0  0  0  0  0  0  0  0  0
    8.5592   32.8475    3.0506 H   0  0  0  0  0  0  0  0  0  0  0  0
   10.1620   33.4226    3.1396 H   0  0  0  0  0  0  0  0  0  0  0  0
    8.4509   30.5754    5.7740 C   0  0  0  0  0  0  0  0  0  0  0  0
    8.5997   31.9414    6.4796 C   0  0  0  0  0  0  0  0  0  0  0  0
    8.9034   31.8005    7.9722 C   0  0  0  0  0  0  0  0  0  0  0  0
    7.7239   32.3070    8.9135 N   0  0  0  0  0  0  0  0  0  0  0  0
    8.2956   33.6375    9.4480 C   0  0  0  0  0  0  0  0  0  0  0  0
    6.5303   32.6156    8.0198 C   0  0  0  0  0  0  0  0  0  0  0  0
    7.5358   31.2123    9.9620 C   0  0  0  0  0  0  0  0  0  0  0  0
    6.4721   30.1013    9.8740 N   0  0  0  0  0  0  0  0  0  0  0  0
    6.1719   29.6889    8.4374 C   0  0  0  0  0  0  0  0  0  0  0  0
    5.1607   30.7718   10.3361 C   0  0  0  0  0  0  0  0  0  0  0  0
    6.8066   28.8342   10.6507 C   0  0  0  0  0  0  0  0  0  0  0  0
    9.3479   29.1454   10.5742 C   0  0  0  0  0  0  0  0  0  0  0  0
    8.1241   28.6059   11.3476 N   0  0  0  0  0  0  0  0  0  0  0  0
    8.4148   27.2102   11.8918 C   0  0  0  0  0  0  0  0  0  0  0  0
    8.0905   29.5155   12.6382 C   0  0  0  0  0  0  0  0  0  0  0  0
    7.6624   26.4178    3.6860 N   0  0  0  0  0  0  0  0  0  0  0  0
    8.2541   25.5252    4.5698 C   0  0  0  0  0  0  0  0  0  0  0  0
    9.4450   25.2281    4.5210 O   0  0  0  0  0  0  0  0  0  0  0  0
    6.7049   26.6361    3.7555 H   0  0  0  0  0  0  0  0  0  0  0  0
    7.2971   24.9291    5.5814 C   0  0  0  0  0  0  0  0  0  0  0  0
    6.8370   23.5286    5.1493 C   0  0  0  0  0  0  0  0  0  0  0  0
    5.4893   23.1987    5.7440 C   0  0  0  0  0  0  0  0  0  0  0  0
    5.3896   22.1547    6.6666 C   0  0  0  0  0  0  0  0  0  0  0  0
    4.1487   21.7675    7.1744 C   0  0  0  0  0  0  0  0  0  0  0  0
    2.9616   22.3876    6.7506 C   0  0  0  0  0  0  0  0  0  0  0  0
    3.0758   23.4345    5.8303 C   0  0  0  0  0  0  0  0  0  0  0  0
    4.3210   23.8361    5.3427 C   0  0  0  0  0  0  0  0  0  0  0  0
    1.6610   21.9247    7.2767 C   0  0  0  0  0  0  0  0  0  0  0  0
    0.4301   22.5586    7.1821 C   0  0  0  0  0  0  0  0  0  0  0  0
   -0.6229   21.8754    7.8895 C   0  0  0  0  0  0  0  0  0  0  0  0
   -0.1564   20.6911    8.4207 C   0  0  0  0  0  0  0  0  0  0  0  0
    1.5110   20.4611    8.1568 S   0  0  0  0  0  0  0  0  0  0  0  0
   -1.9941   22.3019    8.0308 C   0  0  0  0  0  0  0  0  0  0  0  0
   -3.0069   21.3750    8.2942 C   0  0  0  0  0  0  0  0  0  0  0  0
   -4.3394   21.7882    8.4066 C   0  0  0  0  0  0  0  0  0  0  0  0
   -4.6685   23.1279    8.2442 C   0  0  0  0  0  0  0  0  0  0  0  0
   -3.6760   24.0618    7.9633 C   0  0  0  0  0  0  0  0  0  0  0  0
   -2.3455   23.6513    7.8714 C   0  0  0  0  0  0  0  0  0  0  0  0
    8.0735   26.4766    1.2658 C   0  0  0  0  0  0  0  0  0  0  0  0
    9.1839   26.4785    0.2074 C   0  0  0  0  0  0  0  0  0  0  0  0
    9.5661   25.0762   -0.1850 C   0  0  0  0  0  0  0  0  0  0  0  0
    9.0852   24.0789    0.5779 N   0  0  0  0  0  0  0  0  0  0  0  0
   10.1448   24.8231   -1.2446 O   0  0  0  0  0  0  0  0  0  0  0  0
    8.6238   24.2842    1.4230 H   0  0  0  0  0  0  0  0  0  0  0  0
    9.1944   23.1433    0.2914 H   0  0  0  0  0  0  0  0  0  0  0  0
 23 24  1  0
 24 25  1  0
 24 26  1  0
 24 22  1  0
 22 19  1  0
 19 20  1  0
 19 21  1  0
 19 18  1  0
 18 15  1  0
 15 16  1  0
 15 17  1  0
 15 14  1  0
 14 13  1  0
 13 12  1  0
  6 12  1  0
  6  2  1  0
  2  3  1  0
  3  4  2  0
  3  1  1  0
  1 50  1  0
 50 51  1  0
 51 52  1  0
 52 53  1  0
 52 54  2  0
  1 27  1  0
 27 28  1  0
 28 29  2  0
 28 31  1  0
 31 32  1  0
 32 33  1  0
 33 34  2  0
 34 35  1  0
 35 36  2  0
 36 39  1  0
 39 40  2  0
 40 41  1  0
 41 44  1  0
 44 45  2  0
 45 46  1  0
 46 47  2  0
 47 48  1  0
 48 49  2  0
 41 42  2  0
 42 43  1  0
 36 37  1  0
 37 38  2  0
  6  7  1  0
  7  8  1  0
  7  9  2  0
 38 33  1  0
 43 39  1  0
 49 44  1  0
  2  5  1  0
 53 55  1  0
 53 56  1  0
 27 30  1  0
  8 10  1  0
  8 11  1  0
M  CHG 1  15   1
M  CHG 1  19   1
M  CHG 1  24   1
M  END
> <minimizedAffinity>
-8.72327

> <CNNscore>
0.7128810883

> <CNNaffinity>
8.1549291611

> <CNN_VS>
5.8134946823

> <CNNaffinity_variance>
1.2888689041

$$$$



 56 58  0  0  0  0  0  0  0  0999 V2000
    7.9285   27.6602    4.2627 C   0  0  0  0  0  0  0  0  0  0  0  0
    7.7108   27.1010    1.8373 N   0  0  0  0  0  0  0  0  0  0  0  0
    8.5745   27.3571    2.8849 C   0  0  0  0  0  0  0  0  0  0  0  0
    9.7981   27.3366    2.6915 O   0  0  0  0  0  0  0  0  0  0  0  0
    6.7536   27.3165    1.9180 H   0  0  0  0  0  0  0  0  0  0  0  0
    8.2304   26.5095    0.6132 C   0  0  0  0  0  0  0  0  0  0  0  0
    8.9430   25.1248    0.7542 C   0  0  0  0  0  0  0  0  0  0  0  0
    8.6778   24.3578    1.8413 N   0  0  0  0  0  0  0  0  0  0  0  0
    9.6296   24.6542   -0.1614 O   0  0  0  0  0  0  0  0  0  0  0  0
    8.1329   24.7190    2.5775 H   0  0  0  0  0  0  0  0  0  0  0  0
    9.0302   23.4401    1.8942 H   0  0  0  0  0  0  0  0  0  0  0  0
    9.1227   27.5469   -0.1180 C   0  0  0  0  0  0  0  0  0  0  0  0
    8.5348   28.2684   -1.3508 C   0  0  0  0  0  0  0  0  0  0  0  0
    9.2190   29.6082   -1.6277 C   0  0  0  0  0  0  0  0  0  0  0  0
    9.1585   30.0514   -3.1554 N   0  0  0  0  0  0  0  0  0  0  0  0
   10.6559   30.1912   -3.5031 C   0  0  0  0  0  0  0  0  0  0  0  0
    8.5837   28.8831   -3.9447 C   0  0  0  0  0  0  0  0  0  0  0  0
    8.3623   31.3548   -3.1740 C   0  0  0  0  0  0  0  0  0  0  0  0
    6.9062   31.4742   -3.6628 N   0  0  0  0  0  0  0  0  0  0  0  0
    6.0532   30.2753   -3.2638 C   0  0  0  0  0  0  0  0  0  0  0  0
    6.9940   31.3563   -5.1995 C   0  0  0  0  0  0  0  0  0  0  0  0
    6.1767   32.7272   -3.1958 C   0  0  0  0  0  0  0  0  0  0  0  0
    8.0021   34.3160   -4.0349 C   0  0  0  0  0  0  0  0  0  0  0  0
    6.5128   34.1165   -3.6760 N   0  0  0  0  0  0  0  0  0  0  0  0
    6.0015   35.3004   -2.8601 C   0  0  0  0  0  0  0  0  0  0  0  0
    5.7872   34.2763   -5.0697 C   0  0  0  0  0  0  0  0  0  0  0  0
    7.3883   26.4360    4.8283 N   0  0  0  0  0  0  0  0  0  0  0  0
    8.2663   25.4025    5.1265 C   0  0  0  0  0  0  0  0  0  0  0  0
    9.4775   25.4801    4.9368 O   0  0  0  0  0  0  0  0  0  0  0  0
    6.4228   26.3414    4.9961 H   0  0  0  0  0  0  0  0  0  0  0  0
    7.5970   24.1615    5.6801 C   0  0  0  0  0  0  0  0  0  0  0  0
    6.5455   23.6168    4.7015 C   0  0  0  0  0  0  0  0  0  0  0  0
    5.2590   23.2921    5.4213 C   0  0  0  0  0  0  0  0  0  0  0  0
    5.2588   22.2930    6.3976 C   0  0  0  0  0  0  0  0  0  0  0  0
    4.0728   21.9088    7.0248 C   0  0  0  0  0  0  0  0  0  0  0  0
    2.8414   22.4857    6.6724 C   0  0  0  0  0  0  0  0  0  0  0  0
    2.8562   23.4879    5.6971 C   0  0  0  0  0  0  0  0  0  0  0  0
    4.0478   23.8876    5.0890 C   0  0  0  0  0  0  0  0  0  0  0  0
    1.5991   22.0256    7.3264 C   0  0  0  0  0  0  0  0  0  0  0  0
    0.3113   22.5094    7.1435 C   0  0  0  0  0  0  0  0  0  0  0  0
   -0.6608   21.8958    8.0122 C   0  0  0  0  0  0  0  0  0  0  0  0
   -0.0743   20.8974    8.7617 C   0  0  0  0  0  0  0  0  0  0  0  0
    1.6038   20.7718    8.4956 S   0  0  0  0  0  0  0  0  0  0  0  0
   -2.0648   22.2143    8.1077 C   0  0  0  0  0  0  0  0  0  0  0  0
   -2.4984   23.5433    8.0930 C   0  0  0  0  0  0  0  0  0  0  0  0
   -3.8589   23.8504    8.2103 C   0  0  0  0  0  0  0  0  0  0  0  0
   -4.7921   22.8317    8.3553 C   0  0  0  0  0  0  0  0  0  0  0  0
   -4.3770   21.5041    8.3905 C   0  0  0  0  0  0  0  0  0  0  0  0
   -3.0223   21.1986    8.2534 C   0  0  0  0  0  0  0  0  0  0  0  0
    8.8683   28.3397    5.2918 C   0  0  0  0  0  0  0  0  0  0  0  0
    8.2590   29.5321    6.0402 C   0  0  0  0  0  0  0  0  0  0  0  0
    8.8296   30.8352    5.5470 C   0  0  0  0  0  0  0  0  0  0  0  0
    8.5925   31.9254    6.2974 N   0  0  0  0  0  0  0  0  0  0  0  0
    9.6195   30.8926    4.6014 O   0  0  0  0  0  0  0  0  0  0  0  0
    7.9615   31.8763    7.0515 H   0  0  0  0  0  0  0  0  0  0  0  0
    9.0500   32.7728    6.0929 H   0  0  0  0  0  0  0  0  0  0  0  0
 23 24  1  0
 24 25  1  0
 24 26  1  0
 24 22  1  0
 22 19  1  0
 19 20  1  0
 19 21  1  0
 19 18  1  0
 18 15  1  0
 15 16  1  0
 15 17  1  0
 15 14  1  0
 14 13  1  0
 13 12  1  0
  6 12  1  0
  6  2  1  0
  2  3  1  0
  3  4  2  0
  3  1  1  0
  1 50  1  0
 50 51  1  0
 51 52  1  0
 52 53  1  0
 52 54  2  0
  1 27  1  0
 27 28  1  0
 28 29  2  0
 28 31  1  0
 31 32  1  0
 32 33  1  0
 33 34  2  0
 34 35  1  0
 35 36  2  0
 36 39  1  0
 39 40  2  0
 40 41  1  0
 41 44  1  0
 44 45  2  0
 45 46  1  0
 46 47  2  0
 47 48  1  0
 48 49  2  0
 41 42  2  0
 42 43  1  0
 36 37  1  0
 37 38  2  0
  6  7  1  0
  7  8  1  0
  7  9  2  0
 38 33  1  0
 43 39  1  0
 49 44  1  0
  2  5  1  0
 53 55  1  0
 53 56  1  0
 27 30  1  0
  8 10  1  0
  8 11  1  0
M  CHG 1  15   1
M  CHG 1  19   1
M  CHG 1  24   1
M  END
> <minimizedAffinity>
-7.59108

> <CNNscore>
0.6769118309

> <CNNaffinity>
7.9697756767

> <CNN_VS>
5.3948354721

> <CNNaffinity_variance>
0.3909503520

$$$$



 56 58  0  0  0  0  0  0  0  0999 V2000
    8.2177   28.2760    5.9171 C   0  0  0  0  0  0  0  0  0  0  0  0
    8.7679   29.7696    7.8430 N   0  0  0  0  0  0  0  0  0  0  0  0
    7.7957   29.0154    7.2143 C   0  0  0  0  0  0  0  0  0  0  0  0
    6.6552   28.9590    7.6950 O   0  0  0  0  0  0  0  0  0  0  0  0
    9.6034   29.9948    7.3735 H   0  0  0  0  0  0  0  0  0  0  0  0
    8.5442   30.2276    9.2061 C   0  0  0  0  0  0  0  0  0  0  0  0
    9.0938   31.6469    9.5652 C   0  0  0  0  0  0  0  0  0  0  0  0
    8.3023   32.7290    9.3579 N   0  0  0  0  0  0  0  0  0  0  0  0
   10.1700   31.7931   10.1584 O   0  0  0  0  0  0  0  0  0  0  0  0
    7.4434   32.6278    8.8875 H   0  0  0  0  0  0  0  0  0  0  0  0
    8.5868   33.6155    9.6779 H   0  0  0  0  0  0  0  0  0  0  0  0
    9.0456   29.1456   10.1986 C   0  0  0  0  0  0  0  0  0  0  0  0
    7.9937   28.2412   10.8778 C   0  0  0  0  0  0  0  0  0  0  0  0
    8.6089   27.3090   11.9229 C   0  0  0  0  0  0  0  0  0  0  0  0
    8.1568   27.6357   13.4138 N   0  0  0  0  0  0  0  0  0  0  0  0
    6.7639   28.2625   13.1913 C   0  0  0  0  0  0  0  0  0  0  0  0
    7.9816   26.3070   14.1367 C   0  0  0  0  0  0  0  0  0  0  0  0
    9.2171   28.5866   13.9658 C   0  0  0  0  0  0  0  0  0  0  0  0
    9.6326   28.6556   15.4477 N   0  0  0  0  0  0  0  0  0  0  0  0
   10.1342   27.3177   15.9793 C   0  0  0  0  0  0  0  0  0  0  0  0
    8.3135   28.8760   16.2185 C   0  0  0  0  0  0  0  0  0  0  0  0
   10.6966   29.6987   15.7645 C   0  0  0  0  0  0  0  0  0  0  0  0
    9.5424   31.8618   15.0231 C   0  0  0  0  0  0  0  0  0  0  0  0
   10.8291   31.0067   15.0260 N   0  0  0  0  0  0  0  0  0  0  0  0
   11.4527   30.9836   13.6334 C   0  0  0  0  0  0  0  0  0  0  0  0
   11.8339   31.8798   15.8758 C   0  0  0  0  0  0  0  0  0  0  0  0
    7.1724   27.3474    5.5226 N   0  0  0  0  0  0  0  0  0  0  0  0
    7.5183   26.0226    5.2922 C   0  0  0  0  0  0  0  0  0  0  0  0
    8.6664   25.6022    5.4111 O   0  0  0  0  0  0  0  0  0  0  0  0
    6.2411   27.6503    5.4211 H   0  0  0  0  0  0  0  0  0  0  0  0
    6.3616   25.1476    4.8549 C   0  0  0  0  0  0  0  0  0  0  0  0
    6.5421   23.7043    5.3492 C   0  0  0  0  0  0  0  0  0  0  0  0
    5.2254   23.1247    5.8067 C   0  0  0  0  0  0  0  0  0  0  0  0
    4.0351   23.6977    5.3527 C   0  0  0  0  0  0  0  0  0  0  0  0
    2.8010   23.2421    5.8185 C   0  0  0  0  0  0  0  0  0  0  0  0
    2.7161   22.2217    6.7802 C   0  0  0  0  0  0  0  0  0  0  0  0
    3.9148   21.6533    7.2227 C   0  0  0  0  0  0  0  0  0  0  0  0
    5.1471   22.0945    6.7365 C   0  0  0  0  0  0  0  0  0  0  0  0
    1.3949   21.7922    7.2829 C   0  0  0  0  0  0  0  0  0  0  0  0
    0.1926   22.4820    7.2141 C   0  0  0  0  0  0  0  0  0  0  0  0
   -0.8914   21.8141    7.8886 C   0  0  0  0  0  0  0  0  0  0  0  0
   -0.4780   20.5885    8.3677 C   0  0  0  0  0  0  0  0  0  0  0  0
    1.1790   20.2990    8.0969 S   0  0  0  0  0  0  0  0  0  0  0  0
   -2.2435   22.2925    8.0461 C   0  0  0  0  0  0  0  0  0  0  0  0
   -2.5324   23.6577    7.9624 C   0  0  0  0  0  0  0  0  0  0  0  0
   -3.8411   24.1213    8.1397 C   0  0  0  0  0  0  0  0  0  0  0  0
   -4.8658   23.2244    8.4138 C   0  0  0  0  0  0  0  0  0  0  0  0
   -4.5937   21.8639    8.5191 C   0  0  0  0  0  0  0  0  0  0  0  0
   -3.2920   21.4013    8.3222 C   0  0  0  0  0  0  0  0  0  0  0  0
    8.5732   29.1988    4.7229 C   0  0  0  0  0  0  0  0  0  0  0  0
    8.3766   28.5726    3.3364 C   0  0  0  0  0  0  0  0  0  0  0  0
    7.7336   29.5456    2.3844 C   0  0  0  0  0  0  0  0  0  0  0  0
    6.5431   30.0545    2.7471 N   0  0  0  0  0  0  0  0  0  0  0  0
    8.3282   29.9972    1.4025 O   0  0  0  0  0  0  0  0  0  0  0  0
    6.0711   29.6919    3.5313 H   0  0  0  0  0  0  0  0  0  0  0  0
    6.1434   30.7897    2.2286 H   0  0  0  0  0  0  0  0  0  0  0  0
 23 24  1  0
 24 25  1  0
 24 26  1  0
 24 22  1  0
 22 19  1  0
 19 20  1  0
 19 21  1  0
 19 18  1  0
 18 15  1  0
 15 16  1  0
 15 17  1  0
 15 14  1  0
 14 13  1  0
 13 12  1  0
  6 12  1  0
  6  2  1  0
  2  3  1  0
  3  4  2  0
  3  1  1  0
  1 50  1  0
 50 51  1  0
 51 52  1  0
 52 53  1  0
 52 54  2  0
  1 27  1  0
 27 28  1  0
 28 29  2  0
 28 31  1  0
 31 32  1  0
 32 33  1  0
 33 34  2  0
 34 35  1  0
 35 36  2  0
 36 39  1  0
 39 40  2  0
 40 41  1  0
 41 44  1  0
 44 45  2  0
 45 46  1  0
 46 47  2  0
 47 48  1  0
 48 49  2  0
 41 42  2  0
 42 43  1  0
 36 37  1  0
 37 38  2  0
  6  7  1  0
  7  8  1  0
  7  9  2  0
 38 33  1  0
 43 39  1  0
 49 44  1  0
  2  5  1  0
 53 55  1  0
 53 56  1  0
 27 30  1  0
  8 10  1  0
  8 11  1  0
M  CHG 1  15   1
M  CHG 1  19   1
M  CHG 1  24   1
M  END
> <minimizedAffinity>
-8.37334

> <CNNscore>
0.6712116003

> <CNNaffinity>
8.1838388443

> <CNN_VS>
5.4930877686

> <CNNaffinity_variance>
0.6709434390

$$$$



 56 58  0  0  0  0  0  0  0  0999 V2000
    8.4931   28.5529    5.0272 C   0  0  0  0  0  0  0  0  0  0  0  0
    8.5366   30.6493    6.3858 N   0  0  0  0  0  0  0  0  0  0  0  0
    7.8678   29.4722    6.1095 C   0  0  0  0  0  0  0  0  0  0  0  0
    6.8230   29.2017    6.7179 O   0  0  0  0  0  0  0  0  0  0  0  0
    9.2374   30.9777    5.7773 H   0  0  0  0  0  0  0  0  0  0  0  0
    8.1945   31.3989    7.5855 C   0  0  0  0  0  0  0  0  0  0  0  0
    7.9744   32.9370    7.4092 C   0  0  0  0  0  0  0  0  0  0  0  0
    7.1720   33.3746    6.4067 N   0  0  0  0  0  0  0  0  0  0  0  0
    8.3983   33.7507    8.2396 O   0  0  0  0  0  0  0  0  0  0  0  0
    6.8272   32.7386    5.7389 H   0  0  0  0  0  0  0  0  0  0  0  0
    6.9344   34.3281    6.3469 H   0  0  0  0  0  0  0  0  0  0  0  0
    9.2310   31.0870    8.6970 C   0  0  0  0  0  0  0  0  0  0  0  0
    8.7028   30.7764   10.1149 C   0  0  0  0  0  0  0  0  0  0  0  0
    7.1835   30.9200   10.2192 C   0  0  0  0  0  0  0  0  0  0  0  0
    6.5016   29.8228   11.1493 N   0  0  0  0  0  0  0  0  0  0  0  0
    5.0524   30.3456   11.2439 C   0  0  0  0  0  0  0  0  0  0  0  0
    6.4952   28.5117   10.3750 C   0  0  0  0  0  0  0  0  0  0  0  0
    7.2884   29.8472   12.4582 C   0  0  0  0  0  0  0  0  0  0  0  0
    7.6522   28.5922   13.2744 N   0  0  0  0  0  0  0  0  0  0  0  0
    8.2705   27.4936   12.4170 C   0  0  0  0  0  0  0  0  0  0  0  0
    6.2961   27.9921   13.7030 C   0  0  0  0  0  0  0  0  0  0  0  0
    8.5963   28.8424   14.4435 C   0  0  0  0  0  0  0  0  0  0  0  0
   10.6557   30.1888   15.1552 C   0  0  0  0  0  0  0  0  0  0  0  0
   10.0821   29.0466   14.2874 N   0  0  0  0  0  0  0  0  0  0  0  0
   10.6511   29.1191   12.8733 C   0  0  0  0  0  0  0  0  0  0  0  0
   10.7594   27.7591   14.9020 C   0  0  0  0  0  0  0  0  0  0  0  0
    8.2151   27.1634    5.3472 N   0  0  0  0  0  0  0  0  0  0  0  0
    9.0229   26.1824    4.7877 C   0  0  0  0  0  0  0  0  0  0  0  0
    9.9623   26.4385    4.0387 O   0  0  0  0  0  0  0  0  0  0  0  0
    7.4718   26.9231    5.9464 H   0  0  0  0  0  0  0  0  0  0  0  0
    8.6273   24.7682    5.1592 C   0  0  0  0  0  0  0  0  0  0  0  0
    7.5566   24.2236    4.2017 C   0  0  0  0  0  0  0  0  0  0  0  0
    6.3074   23.8376    4.9563 C   0  0  0  0  0  0  0  0  0  0  0  0
    6.3702   22.8026    5.8923 C   0  0  0  0  0  0  0  0  0  0  0  0
    5.2194   22.3633    6.5482 C   0  0  0  0  0  0  0  0  0  0  0  0
    3.9611   22.9201    6.2651 C   0  0  0  0  0  0  0  0  0  0  0  0
    3.9129   23.9586    5.3297 C   0  0  0  0  0  0  0  0  0  0  0  0
    5.0696   24.4127    4.6931 C   0  0  0  0  0  0  0  0  0  0  0  0
    2.7570   22.4025    6.9470 C   0  0  0  0  0  0  0  0  0  0  0  0
    1.4282   22.6538    6.6357 C   0  0  0  0  0  0  0  0  0  0  0  0
    0.4995   22.0632    7.5656 C   0  0  0  0  0  0  0  0  0  0  0  0
    1.1718   21.3054    8.5016 C   0  0  0  0  0  0  0  0  0  0  0  0
    2.8641   21.3830    8.3211 S   0  0  0  0  0  0  0  0  0  0  0  0
   -0.9383   22.1844    7.5535 C   0  0  0  0  0  0  0  0  0  0  0  0
   -1.5511   23.3805    7.1684 C   0  0  0  0  0  0  0  0  0  0  0  0
   -2.9453   23.5031    7.1808 C   0  0  0  0  0  0  0  0  0  0  0  0
   -3.7340   22.4353    7.5899 C   0  0  0  0  0  0  0  0  0  0  0  0
   -3.1408   21.2433    7.9942 C   0  0  0  0  0  0  0  0  0  0  0  0
   -1.7515   21.1160    7.9621 C   0  0  0  0  0  0  0  0  0  0  0  0
    8.0445   28.8531    3.5737 C   0  0  0  0  0  0  0  0  0  0  0  0
    7.4632   30.2549    3.3492 C   0  0  0  0  0  0  0  0  0  0  0  0
    8.1047   30.9284    2.1653 C   0  0  0  0  0  0  0  0  0  0  0  0
    7.9207   32.2551    2.0472 N   0  0  0  0  0  0  0  0  0  0  0  0
    8.9025   30.3445    1.4276 O   0  0  0  0  0  0  0  0  0  0  0  0
    7.2832   32.7181    2.6375 H   0  0  0  0  0  0  0  0  0  0  0  0
    8.4235   32.7635    1.3704 H   0  0  0  0  0  0  0  0  0  0  0  0
 23 24  1  0
 24 25  1  0
 24 26  1  0
 24 22  1  0
 22 19  1  0
 19 20  1  0
 19 21  1  0
 19 18  1  0
 18 15  1  0
 15 16  1  0
 15 17  1  0
 15 14  1  0
 14 13  1  0
 13 12  1  0
  6 12  1  0
  6  2  1  0
  2  3  1  0
  3  4  2  0
  3  1  1  0
  1 50  1  0
 50 51  1  0
 51 52  1  0
 52 53  1  0
 52 54  2  0
  1 27  1  0
 27 28  1  0
 28 29  2  0
 28 31  1  0
 31 32  1  0
 32 33  1  0
 33 34  2  0
 34 35  1  0
 35 36  2  0
 36 39  1  0
 39 40  2  0
 40 41  1  0
 41 44  1  0
 44 45  2  0
 45 46  1  0
 46 47  2  0
 47 48  1  0
 48 49  2  0
 41 42  2  0
 42 43  1  0
 36 37  1  0
 37 38  2  0
  6  7  1  0
  7  8  1  0
  7  9  2  0
 38 33  1  0
 43 39  1  0
 49 44  1  0
  2  5  1  0
 53 55  1  0
 53 56  1  0
 27 30  1  0
  8 10  1  0
  8 11  1  0
M  CHG 1  15   1
M  CHG 1  19   1
M  CHG 1  24   1
M  END
> <minimizedAffinity>
-8.07647

> <CNNscore>
0.6643372178

> <CNNaffinity>
8.4430761337

> <CNN_VS>
5.6090497971

> <CNNaffinity_variance>
0.3274005651

$$$$



 56 58  0  0  0  0  0  0  0  0999 V2000
    8.6912   27.2144    5.4453 C   0  0  0  0  0  0  0  0  0  0  0  0
    8.7198   29.4547    6.5511 N   0  0  0  0  0  0  0  0  0  0  0  0
    8.0300   28.2714    6.3688 C   0  0  0  0  0  0  0  0  0  0  0  0
    6.9398   28.1025    6.9327 O   0  0  0  0  0  0  0  0  0  0  0  0
    9.4689   29.6901    5.9573 H   0  0  0  0  0  0  0  0  0  0  0  0
    8.3277   30.3495    7.6298 C   0  0  0  0  0  0  0  0  0  0  0  0
    8.4935   31.8812    7.3620 C   0  0  0  0  0  0  0  0  0  0  0  0
    7.6884   32.7533    8.0190 N   0  0  0  0  0  0  0  0  0  0  0  0
    9.4256   32.3212    6.6773 O   0  0  0  0  0  0  0  0  0  0  0  0
    6.9430   32.4177    8.5675 H   0  0  0  0  0  0  0  0  0  0  0  0
    7.8497   33.7219    7.9474 H   0  0  0  0  0  0  0  0  0  0  0  0
    9.0340   29.9121    8.9401 C   0  0  0  0  0  0  0  0  0  0  0  0
    8.1756   29.7798   10.2175 C   0  0  0  0  0  0  0  0  0  0  0  0
    8.4000   30.9332   11.1968 C   0  0  0  0  0  0  0  0  0  0  0  0
    8.5855   30.4616   12.7058 N   0  0  0  0  0  0  0  0  0  0  0  0
   10.0919   30.1280   12.7496 C   0  0  0  0  0  0  0  0  0  0  0  0
    8.3301   31.6715   13.5943 C   0  0  0  0  0  0  0  0  0  0  0  0
    7.6497   29.2672   12.8811 C   0  0  0  0  0  0  0  0  0  0  0  0
    7.8351   28.1697   13.9462 N   0  0  0  0  0  0  0  0  0  0  0  0
    8.5626   28.6737   15.1876 C   0  0  0  0  0  0  0  0  0  0  0  0
    8.8384   27.1771   13.3209 C   0  0  0  0  0  0  0  0  0  0  0  0
    6.5446   27.5080   14.4125 C   0  0  0  0  0  0  0  0  0  0  0  0
    4.0959   28.1126   13.9666 C   0  0  0  0  0  0  0  0  0  0  0  0
    5.3333   28.2764   14.8770 N   0  0  0  0  0  0  0  0  0  0  0  0
    5.5177   29.7417   15.2612 C   0  0  0  0  0  0  0  0  0  0  0  0
    4.8776   27.5871   16.2229 C   0  0  0  0  0  0  0  0  0  0  0  0
    7.7703   26.1122    5.2274 N   0  0  0  0  0  0  0  0  0  0  0  0
    8.2850   24.8242    5.1636 C   0  0  0  0  0  0  0  0  0  0  0  0
    9.4819   24.5768    5.2870 O   0  0  0  0  0  0  0  0  0  0  0  0
    6.8044   26.2746    5.1274 H   0  0  0  0  0  0  0  0  0  0  0  0
    7.2454   23.7542    4.9010 C   0  0  0  0  0  0  0  0  0  0  0  0
    5.9091   24.3757    4.4674 C   0  0  0  0  0  0  0  0  0  0  0  0
    4.7518   23.6995    5.1617 C   0  0  0  0  0  0  0  0  0  0  0  0
    3.4471   24.0710    4.8284 C   0  0  0  0  0  0  0  0  0  0  0  0
    2.3554   23.5278    5.5071 C   0  0  0  0  0  0  0  0  0  0  0  0
    2.5321   22.6212    6.5655 C   0  0  0  0  0  0  0  0  0  0  0  0
    3.8430   22.2540    6.8858 C   0  0  0  0  0  0  0  0  0  0  0  0
    4.9323   22.7803    6.1887 C   0  0  0  0  0  0  0  0  0  0  0  0
    1.3560   22.0977    7.2904 C   0  0  0  0  0  0  0  0  0  0  0  0
    0.0253   22.4545    7.1239 C   0  0  0  0  0  0  0  0  0  0  0  0
   -0.8617   21.8159    8.0628 C   0  0  0  0  0  0  0  0  0  0  0  0
   -0.1663   20.9229    8.8511 C   0  0  0  0  0  0  0  0  0  0  0  0
    1.5077   20.9273    8.5338 S   0  0  0  0  0  0  0  0  0  0  0  0
   -2.2851   22.0162    8.1883 C   0  0  0  0  0  0  0  0  0  0  0  0
   -2.8163   23.3024    8.3217 C   0  0  0  0  0  0  0  0  0  0  0  0
   -4.1953   23.4922    8.4678 C   0  0  0  0  0  0  0  0  0  0  0  0
   -5.0495   22.3970    8.4936 C   0  0  0  0  0  0  0  0  0  0  0  0
   -4.5367   21.1085    8.3808 C   0  0  0  0  0  0  0  0  0  0  0  0
   -3.1637   20.9221    8.2151 C   0  0  0  0  0  0  0  0  0  0  0  0
    9.1883   27.7562    4.0802 C   0  0  0  0  0  0  0  0  0  0  0  0
    8.2155   27.5609    2.9102 C   0  0  0  0  0  0  0  0  0  0  0  0
    8.6313   26.4029    2.0424 C   0  0  0  0  0  0  0  0  0  0  0  0
    9.9312   26.0601    2.0679 N   0  0  0  0  0  0  0  0  0  0  0  0
    7.8114   25.6848    1.4648 O   0  0  0  0  0  0  0  0  0  0  0  0
   10.5830   26.6354    2.5297 H   0  0  0  0  0  0  0  0  0  0  0  0
   10.2311   25.2337    1.6247 H   0  0  0  0  0  0  0  0  0  0  0  0
 23 24  1  0
 24 25  1  0
 24 26  1  0
 24 22  1  0
 22 19  1  0
 19 20  1  0
 19 21  1  0
 19 18  1  0
 18 15  1  0
 15 16  1  0
 15 17  1  0
 15 14  1  0
 14 13  1  0
 13 12  1  0
  6 12  1  0
  6  2  1  0
  2  3  1  0
  3  4  2  0
  3  1  1  0
  1 50  1  0
 50 51  1  0
 51 52  1  0
 52 53  1  0
 52 54  2  0
  1 27  1  0
 27 28  1  0
 28 29  2  0
 28 31  1  0
 31 32  1  0
 32 33  1  0
 33 34  2  0
 34 35  1  0
 35 36  2  0
 36 39  1  0
 39 40  2  0
 40 41  1  0
 41 44  1  0
 44 45  2  0
 45 46  1  0
 46 47  2  0
 47 48  1  0
 48 49  2  0
 41 42  2  0
 42 43  1  0
 36 37  1  0
 37 38  2  0
  6  7  1  0
  7  8  1  0
  7  9  2  0
 38 33  1  0
 43 39  1  0
 49 44  1  0
  2  5  1  0
 53 55  1  0
 53 56  1  0
 27 30  1  0
  8 10  1  0
  8 11  1  0
M  CHG 1  15   1
M  CHG 1  19   1
M  CHG 1  24   1
M  END
> <minimizedAffinity>
-7.98529

> <CNNscore>
0.6279592514

> <CNNaffinity>
8.3882875443

> <CNN_VS>
5.2675027847

> <CNNaffinity_variance>
0.3848173618

$$$$



 56 58  0  0  0  0  0  0  0  0999 V2000
    8.6442   27.3314    5.5209 C   0  0  0  0  0  0  0  0  0  0  0  0
    8.4832   29.7162    6.2485 N   0  0  0  0  0  0  0  0  0  0  0  0
    7.9217   28.4552    6.3098 C   0  0  0  0  0  0  0  0  0  0  0  0
    6.8911   28.2731    6.9729 O   0  0  0  0  0  0  0  0  0  0  0  0
    9.1663   29.9238    5.5706 H   0  0  0  0  0  0  0  0  0  0  0  0
    8.0548   30.7343    7.1961 C   0  0  0  0  0  0  0  0  0  0  0  0
    7.8116   32.1673    6.6194 C   0  0  0  0  0  0  0  0  0  0  0  0
    6.8146   32.9246    7.1418 N   0  0  0  0  0  0  0  0  0  0  0  0
    8.5882   32.6760    5.8012 O   0  0  0  0  0  0  0  0  0  0  0  0
    6.1892   32.5333    7.7938 H   0  0  0  0  0  0  0  0  0  0  0  0
    6.7164   33.8654    6.8690 H   0  0  0  0  0  0  0  0  0  0  0  0
    9.0308   30.7545    8.4019 C   0  0  0  0  0  0  0  0  0  0  0  0
    8.4479   31.0476    9.8020 C   0  0  0  0  0  0  0  0  0  0  0  0
    7.0373   30.4834    9.9798 C   0  0  0  0  0  0  0  0  0  0  0  0
    6.5468   30.4580   11.4940 N   0  0  0  0  0  0  0  0  0  0  0  0
    5.5322   31.6210   11.5168 C   0  0  0  0  0  0  0  0  0  0  0  0
    5.7931   29.1519   11.7053 C   0  0  0  0  0  0  0  0  0  0  0  0
    7.8024   30.6740   12.3364 C   0  0  0  0  0  0  0  0  0  0  0  0
    8.5503   29.5517   13.0812 N   0  0  0  0  0  0  0  0  0  0  0  0
    8.5470   28.2346   12.3134 C   0  0  0  0  0  0  0  0  0  0  0  0
    7.6779   29.2480   14.3179 C   0  0  0  0  0  0  0  0  0  0  0  0
    9.9984   29.8715   13.4297 C   0  0  0  0  0  0  0  0  0  0  0  0
   10.9472   30.4554   15.7360 C   0  0  0  0  0  0  0  0  0  0  0  0
   10.4050   30.9669   14.3828 N   0  0  0  0  0  0  0  0  0  0  0  0
    9.4326   32.1219   14.6045 C   0  0  0  0  0  0  0  0  0  0  0  0
   11.6682   31.6557   13.7316 C   0  0  0  0  0  0  0  0  0  0  0  0
    7.7467   26.2023    5.3475 N   0  0  0  0  0  0  0  0  0  0  0  0
    8.2990   24.9425    5.1581 C   0  0  0  0  0  0  0  0  0  0  0  0
    9.5107   24.7416    5.1346 O   0  0  0  0  0  0  0  0  0  0  0  0
    6.7703   26.3273    5.3640 H   0  0  0  0  0  0  0  0  0  0  0  0
    7.2775   23.8425    4.9552 C   0  0  0  0  0  0  0  0  0  0  0  0
    5.9347   24.4158    4.4776 C   0  0  0  0  0  0  0  0  0  0  0  0
    4.7815   23.7313    5.1707 C   0  0  0  0  0  0  0  0  0  0  0  0
    3.4749   24.1091    4.8522 C   0  0  0  0  0  0  0  0  0  0  0  0
    2.3874   23.5577    5.5310 C   0  0  0  0  0  0  0  0  0  0  0  0
    2.5706   22.6360    6.5751 C   0  0  0  0  0  0  0  0  0  0  0  0
    3.8833   22.2626    6.8806 C   0  0  0  0  0  0  0  0  0  0  0  0
    4.9682   22.7974    6.1831 C   0  0  0  0  0  0  0  0  0  0  0  0
    1.3991   22.1037    7.3010 C   0  0  0  0  0  0  0  0  0  0  0  0
    0.0684   22.4693    7.1540 C   0  0  0  0  0  0  0  0  0  0  0  0
   -0.8125   21.8166    8.0889 C   0  0  0  0  0  0  0  0  0  0  0  0
   -0.1137   20.9058    8.8534 C   0  0  0  0  0  0  0  0  0  0  0  0
    1.5572   20.9091    8.5203 S   0  0  0  0  0  0  0  0  0  0  0  0
   -2.2338   22.0205    8.2317 C   0  0  0  0  0  0  0  0  0  0  0  0
   -2.7670   23.3111    8.2988 C   0  0  0  0  0  0  0  0  0  0  0  0
   -4.1434   23.5058    8.4619 C   0  0  0  0  0  0  0  0  0  0  0  0
   -4.9927   22.4121    8.5710 C   0  0  0  0  0  0  0  0  0  0  0  0
   -4.4775   21.1204    8.5249 C   0  0  0  0  0  0  0  0  0  0  0  0
   -3.1075   20.9278    8.3423 C   0  0  0  0  0  0  0  0  0  0  0  0
    9.2149   27.7599    4.1444 C   0  0  0  0  0  0  0  0  0  0  0  0
    8.2251   27.6755    2.9755 C   0  0  0  0  0  0  0  0  0  0  0  0
    8.5637   26.5331    2.0551 C   0  0  0  0  0  0  0  0  0  0  0  0
    9.8192   26.0555    2.1153 N   0  0  0  0  0  0  0  0  0  0  0  0
    7.7048   25.9394    1.3984 O   0  0  0  0  0  0  0  0  0  0  0  0
   10.5024   26.5318    2.6404 H   0  0  0  0  0  0  0  0  0  0  0  0
   10.0553   25.2296    1.6343 H   0  0  0  0  0  0  0  0  0  0  0  0
 23 24  1  0
 24 25  1  0
 24 26  1  0
 24 22  1  0
 22 19  1  0
 19 20  1  0
 19 21  1  0
 19 18  1  0
 18 15  1  0
 15 16  1  0
 15 17  1  0
 15 14  1  0
 14 13  1  0
 13 12  1  0
  6 12  1  0
  6  2  1  0
  2  3  1  0
  3  4  2  0
  3  1  1  0
  1 50  1  0
 50 51  1  0
 51 52  1  0
 52 53  1  0
 52 54  2  0
  1 27  1  0
 27 28  1  0
 28 29  2  0
 28 31  1  0
 31 32  1  0
 32 33  1  0
 33 34  2  0
 34 35  1  0
 35 36  2  0
 36 39  1  0
 39 40  2  0
 40 41  1  0
 41 44  1  0
 44 45  2  0
 45 46  1  0
 46 47  2  0
 47 48  1  0
 48 49  2  0
 41 42  2  0
 42 43  1  0
 36 37  1  0
 37 38  2  0
  6  7  1  0
  7  8  1  0
  7  9  2  0
 38 33  1  0
 43 39  1  0
 49 44  1  0
  2  5  1  0
 53 55  1  0
 53 56  1  0
 27 30  1  0
  8 10  1  0
  8 11  1  0
M  CHG 1  15   1
M  CHG 1  19   1
M  CHG 1  24   1
M  END
> <minimizedAffinity>
-7.83862

> <CNNscore>
0.6165497303

> <CNNaffinity>
8.3644447327

> <CNN_VS>
5.1570959091

> <CNNaffinity_variance>
0.2516709268

$$$$



 56 58  0  0  0  0  0  0  0  0999 V2000
    8.7732   27.2975    5.3994 C   0  0  0  0  0  0  0  0  0  0  0  0
    8.8022   28.8000    7.3955 N   0  0  0  0  0  0  0  0  0  0  0  0
    8.1696   28.4740    6.2112 C   0  0  0  0  0  0  0  0  0  0  0  0
    7.1724   29.1148    5.8506 O   0  0  0  0  0  0  0  0  0  0  0  0
    9.7016   28.4506    7.5913 H   0  0  0  0  0  0  0  0  0  0  0  0
    8.1257   29.6650    8.3506 C   0  0  0  0  0  0  0  0  0  0  0  0
    8.8403   31.0105    8.7027 C   0  0  0  0  0  0  0  0  0  0  0  0
    8.3638   32.1650    8.1730 N   0  0  0  0  0  0  0  0  0  0  0  0
    9.7357   31.0640    9.5552 O   0  0  0  0  0  0  0  0  0  0  0  0
    7.6516   32.1379    7.4939 H   0  0  0  0  0  0  0  0  0  0  0  0
    8.7302   33.0300    8.4678 H   0  0  0  0  0  0  0  0  0  0  0  0
    7.7736   28.8478    9.6215 C   0  0  0  0  0  0  0  0  0  0  0  0
    6.3701   29.0352   10.2387 C   0  0  0  0  0  0  0  0  0  0  0  0
    5.8863   30.4845   10.1658 C   0  0  0  0  0  0  0  0  0  0  0  0
    5.4793   31.0927   11.5794 N   0  0  0  0  0  0  0  0  0  0  0  0
    4.1229   30.4040   11.8409 C   0  0  0  0  0  0  0  0  0  0  0  0
    6.4876   30.5830   12.6003 C   0  0  0  0  0  0  0  0  0  0  0  0
    5.4116   32.6045   11.3723 C   0  0  0  0  0  0  0  0  0  0  0  0
    4.2145   33.4830   11.7828 N   0  0  0  0  0  0  0  0  0  0  0  0
    3.9183   33.4103   13.2766 C   0  0  0  0  0  0  0  0  0  0  0  0
    2.9864   32.8034   11.1402 C   0  0  0  0  0  0  0  0  0  0  0  0
    4.3479   34.9556   11.4167 C   0  0  0  0  0  0  0  0  0  0  0  0
    5.9850   34.8147    9.4519 C   0  0  0  0  0  0  0  0  0  0  0  0
    4.6994   35.4433   10.0338 N   0  0  0  0  0  0  0  0  0  0  0  0
    4.6831   36.9477    9.7785 C   0  0  0  0  0  0  0  0  0  0  0  0
    3.5692   34.8859    9.0818 C   0  0  0  0  0  0  0  0  0  0  0  0
    7.8299   26.1933    5.3653 N   0  0  0  0  0  0  0  0  0  0  0  0
    8.3212   24.9109    5.1603 C   0  0  0  0  0  0  0  0  0  0  0  0
    9.5165   24.6701    5.0107 O   0  0  0  0  0  0  0  0  0  0  0  0
    6.8654   26.3504    5.4847 H   0  0  0  0  0  0  0  0  0  0  0  0
    7.2522   23.8389    5.1094 C   0  0  0  0  0  0  0  0  0  0  0  0
    5.9216   24.4085    4.5948 C   0  0  0  0  0  0  0  0  0  0  0  0
    4.7514   23.7176    5.2522 C   0  0  0  0  0  0  0  0  0  0  0  0
    3.4538   24.1239    4.9323 C   0  0  0  0  0  0  0  0  0  0  0  0
    2.3513   23.5656    5.5807 C   0  0  0  0  0  0  0  0  0  0  0  0
    2.5102   22.6075    6.5955 C   0  0  0  0  0  0  0  0  0  0  0  0
    3.8141   22.2060    6.9028 C   0  0  0  0  0  0  0  0  0  0  0  0
    4.9140   22.7483    6.2351 C   0  0  0  0  0  0  0  0  0  0  0  0
    1.3234   22.0680    7.2906 C   0  0  0  0  0  0  0  0  0  0  0  0
    0.0033   22.4768    7.1635 C   0  0  0  0  0  0  0  0  0  0  0  0
   -0.8965   21.7977    8.0608 C   0  0  0  0  0  0  0  0  0  0  0  0
   -0.2239   20.8278    8.7744 C   0  0  0  0  0  0  0  0  0  0  0  0
    1.4471   20.8043    8.4426 S   0  0  0  0  0  0  0  0  0  0  0  0
   -2.3120   22.0317    8.2141 C   0  0  0  0  0  0  0  0  0  0  0  0
   -2.8156   23.3330    8.3003 C   0  0  0  0  0  0  0  0  0  0  0  0
   -4.1864   23.5566    8.4734 C   0  0  0  0  0  0  0  0  0  0  0  0
   -5.0596   22.4809    8.5736 C   0  0  0  0  0  0  0  0  0  0  0  0
   -4.5740   21.1786    8.5085 C   0  0  0  0  0  0  0  0  0  0  0  0
   -3.2097   20.9577    8.3158 C   0  0  0  0  0  0  0  0  0  0  0  0
    9.2108   27.6543    3.9553 C   0  0  0  0  0  0  0  0  0  0  0  0
    8.1104   27.5316    2.8936 C   0  0  0  0  0  0  0  0  0  0  0  0
    8.3761   26.3782    1.9631 C   0  0  0  0  0  0  0  0  0  0  0  0
    9.6235   25.8762    1.9579 N   0  0  0  0  0  0  0  0  0  0  0  0
    7.4714   25.7983    1.3576 O   0  0  0  0  0  0  0  0  0  0  0  0
   10.3434   26.3415    2.4421 H   0  0  0  0  0  0  0  0  0  0  0  0
    9.8169   25.0435    1.4697 H   0  0  0  0  0  0  0  0  0  0  0  0
 23 24  1  0
 24 25  1  0
 24 26  1  0
 24 22  1  0
 22 19  1  0
 19 20  1  0
 19 21  1  0
 19 18  1  0
 18 15  1  0
 15 16  1  0
 15 17  1  0
 15 14  1  0
 14 13  1  0
 13 12  1  0
  6 12  1  0
  6  2  1  0
  2  3  1  0
  3  4  2  0
  3  1  1  0
  1 50  1  0
 50 51  1  0
 51 52  1  0
 52 53  1  0
 52 54  2  0
  1 27  1  0
 27 28  1  0
 28 29  2  0
 28 31  1  0
 31 32  1  0
 32 33  1  0
 33 34  2  0
 34 35  1  0
 35 36  2  0
 36 39  1  0
 39 40  2  0
 40 41  1  0
 41 44  1  0
 44 45  2  0
 45 46  1  0
 46 47  2  0
 47 48  1  0
 48 49  2  0
 41 42  2  0
 42 43  1  0
 36 37  1  0
 37 38  2  0
  6  7  1  0
  7  8  1  0
  7  9  2  0
 38 33  1  0
 43 39  1  0
 49 44  1  0
  2  5  1  0
 53 55  1  0
 53 56  1  0
 27 30  1  0
  8 10  1  0
  8 11  1  0
M  CHG 1  15   1
M  CHG 1  19   1
M  CHG 1  24   1
M  END
> <minimizedAffinity>
-7.81521

> <CNNscore>
0.5720050335

> <CNNaffinity>
8.1146669388

> <CNN_VS>
4.6416301727

> <CNNaffinity_variance>
0.5819311738

$$$$



 56 58  0  0  0  0  0  0  0  0999 V2000
    8.4017   26.4271    5.3872 C   0  0  0  0  0  0  0  0  0  0  0  0
    8.6394   28.4672    6.8099 N   0  0  0  0  0  0  0  0  0  0  0  0
    7.7804   27.6695    6.0785 C   0  0  0  0  0  0  0  0  0  0  0  0
    6.5801   27.9670    6.0028 O   0  0  0  0  0  0  0  0  0  0  0  0
    9.6140   28.3700    6.7106 H   0  0  0  0  0  0  0  0  0  0  0  0
    8.0889   29.4526    7.7286 C   0  0  0  0  0  0  0  0  0  0  0  0
    8.6448   30.9090    7.6063 C   0  0  0  0  0  0  0  0  0  0  0  0
    8.1109   31.7394    6.6758 N   0  0  0  0  0  0  0  0  0  0  0  0
    9.4562   31.3626    8.4232 O   0  0  0  0  0  0  0  0  0  0  0  0
    7.4642   31.3925    6.0196 H   0  0  0  0  0  0  0  0  0  0  0  0
    8.3702   32.6889    6.6568 H   0  0  0  0  0  0  0  0  0  0  0  0
    8.1933   28.9140    9.1798 C   0  0  0  0  0  0  0  0  0  0  0  0
    6.8956   28.8139   10.0116 C   0  0  0  0  0  0  0  0  0  0  0  0
    6.5174   30.1417   10.6702 C   0  0  0  0  0  0  0  0  0  0  0  0
    6.3621   30.0476   12.2517 N   0  0  0  0  0  0  0  0  0  0  0  0
    5.2764   31.1099   12.5261 C   0  0  0  0  0  0  0  0  0  0  0  0
    5.7888   28.6736   12.5707 C   0  0  0  0  0  0  0  0  0  0  0  0
    7.7433   30.3677   12.8200 C   0  0  0  0  0  0  0  0  0  0  0  0
    8.5457   29.4209   13.7328 N   0  0  0  0  0  0  0  0  0  0  0  0
    9.7759   30.0900   14.3356 C   0  0  0  0  0  0  0  0  0  0  0  0
    9.1434   28.3644   12.7791 C   0  0  0  0  0  0  0  0  0  0  0  0
    7.7495   28.8140   14.8809 C   0  0  0  0  0  0  0  0  0  0  0  0
    6.8729   26.8812   16.3150 C   0  0  0  0  0  0  0  0  0  0  0  0
    8.0268   27.4492   15.4590 N   0  0  0  0  0  0  0  0  0  0  0  0
    9.3646   27.2251   16.1581 C   0  0  0  0  0  0  0  0  0  0  0  0
    8.0740   26.4624   14.2269 C   0  0  0  0  0  0  0  0  0  0  0  0
    7.3688   25.4336    5.1490 N   0  0  0  0  0  0  0  0  0  0  0  0
    7.7037   24.0913    5.2675 C   0  0  0  0  0  0  0  0  0  0  0  0
    8.8317   23.7088    5.5679 O   0  0  0  0  0  0  0  0  0  0  0  0
    6.4535   25.7056    4.9095 H   0  0  0  0  0  0  0  0  0  0  0  0
    6.5640   23.1399    4.9668 C   0  0  0  0  0  0  0  0  0  0  0  0
    6.0670   22.4501    6.2463 C   0  0  0  0  0  0  0  0  0  0  0  0
    4.5940   22.7049    6.4564 C   0  0  0  0  0  0  0  0  0  0  0  0
    3.9301   22.0443    7.4928 C   0  0  0  0  0  0  0  0  0  0  0  0
    2.5531   22.1911    7.6657 C   0  0  0  0  0  0  0  0  0  0  0  0
    1.7873   22.9755    6.7874 C   0  0  0  0  0  0  0  0  0  0  0  0
    2.4649   23.6353    5.7570 C   0  0  0  0  0  0  0  0  0  0  0  0
    3.8464   23.5061    5.6013 C   0  0  0  0  0  0  0  0  0  0  0  0
    0.3252   23.0755    6.9743 C   0  0  0  0  0  0  0  0  0  0  0  0
   -0.5567   22.0692    7.3423 C   0  0  0  0  0  0  0  0  0  0  0  0
   -1.9358   22.4865    7.3421 C   0  0  0  0  0  0  0  0  0  0  0  0
   -2.0313   23.8327    7.0574 C   0  0  0  0  0  0  0  0  0  0  0  0
   -0.5219   24.5423    6.7097 S   0  0  0  0  0  0  0  0  0  0  0  0
   -3.0914   21.6691    7.6220 C   0  0  0  0  0  0  0  0  0  0  0  0
   -3.3021   20.4706    6.9338 C   0  0  0  0  0  0  0  0  0  0  0  0
   -4.4364   19.6917    7.1900 C   0  0  0  0  0  0  0  0  0  0  0  0
   -5.3723   20.1124    8.1263 C   0  0  0  0  0  0  0  0  0  0  0  0
   -5.1884   21.3117    8.8075 C   0  0  0  0  0  0  0  0  0  0  0  0
   -4.0470   22.0771    8.5654 C   0  0  0  0  0  0  0  0  0  0  0  0
    9.1565   26.7217    4.0652 C   0  0  0  0  0  0  0  0  0  0  0  0
    8.2851   27.2684    2.9272 C   0  0  0  0  0  0  0  0  0  0  0  0
    8.1487   26.2642    1.8138 C   0  0  0  0  0  0  0  0  0  0  0  0
    8.8558   26.4978    0.6943 N   0  0  0  0  0  0  0  0  0  0  0  0
    7.5615   25.1898    1.9639 O   0  0  0  0  0  0  0  0  0  0  0  0
    9.3233   27.3564    0.5775 H   0  0  0  0  0  0  0  0  0  0  0  0
    8.9061   25.8104   -0.0087 H   0  0  0  0  0  0  0  0  0  0  0  0
 23 24  1  0
 24 25  1  0
 24 26  1  0
 24 22  1  0
 22 19  1  0
 19 20  1  0
 19 21  1  0
 19 18  1  0
 18 15  1  0
 15 16  1  0
 15 17  1  0
 15 14  1  0
 14 13  1  0
 13 12  1  0
  6 12  1  0
  6  2  1  0
  2  3  1  0
  3  4  2  0
  3  1  1  0
  1 50  1  0
 50 51  1  0
 51 52  1  0
 52 53  1  0
 52 54  2  0
  1 27  1  0
 27 28  1  0
 28 29  2  0
 28 31  1  0
 31 32  1  0
 32 33  1  0
 33 34  2  0
 34 35  1  0
 35 36  2  0
 36 39  1  0
 39 40  2  0
 40 41  1  0
 41 44  1  0
 44 45  2  0
 45 46  1  0
 46 47  2  0
 47 48  1  0
 48 49  2  0
 41 42  2  0
 42 43  1  0
 36 37  1  0
 37 38  2  0
  6  7  1  0
  7  8  1  0
  7  9  2  0
 38 33  1  0
 43 39  1  0
 49 44  1  0
  2  5  1  0
 53 55  1  0
 53 56  1  0
 27 30  1  0
  8 10  1  0
  8 11  1  0
M  CHG 1  15   1
M  CHG 1  19   1
M  CHG 1  24   1
M  END
> <minimizedAffinity>
-8.74833

> <CNNscore>
0.5544440150

> <CNNaffinity>
8.2424850464

> <CNN_VS>
4.5699963570

> <CNNaffinity_variance>
0.5518741012

$$$$
