


 29 29  0  0  0  0  0  0  0  0999 V2000
   -7.0808   10.2376   28.9470 C   0  0  0  0  0  0  0  0  0  0  0  0
   -6.1556    9.7270   29.8995 O   0  0  0  0  0  0  0  0  0  0  0  0
   -7.8400    9.0527   28.4076 C   0  0  0  0  0  0  0  0  0  0  0  0
   -8.1141    8.8217   27.1055 C   0  0  0  0  0  0  0  0  0  0  0  0
   -7.6488    9.7746   26.0167 C   0  0  0  0  0  0  0  0  0  0  0  0
   -8.7540   10.1155   25.1840 O   0  0  0  0  0  0  0  0  0  0  0  0
   -7.1270   11.1179   26.5749 C   0  0  0  0  0  0  0  0  0  0  0  0
   -6.3310   11.8124   25.6198 O   0  0  0  0  0  0  0  0  0  0  0  0
   -6.2824   10.9171   27.8256 C   0  0  0  0  0  0  0  0  0  0  0  0
   -6.6392    9.2922   30.6191 H   0  0  0  0  0  0  0  0  0  0  0  0
   -9.4282   10.5711   25.7120 H   0  0  0  0  0  0  0  0  0  0  0  0
   -5.5441   11.2855   25.4103 H   0  0  0  0  0  0  0  0  0  0  0  0
   -8.1252   11.1948   29.6425 C   0  0  0  0  0  0  0  0  0  0  0  0
   -7.5904   12.4408   30.5627 N   0  0  0  0  0  0  0  0  0  0  0  0
   -8.6690   13.5248   30.5214 C   0  0  0  0  0  0  0  0  0  0  0  0
   -6.3083   12.9437   29.9146 C   0  0  0  0  0  0  0  0  0  0  0  0
   -7.4398   11.8207   31.9467 C   0  0  0  0  0  0  0  0  0  0  0  0
   -6.9059   12.5895   33.1945 N   0  0  0  0  0  0  0  0  0  0  0  0
   -5.3735   12.6634   32.8926 C   0  0  0  0  0  0  0  0  0  0  0  0
   -7.4011   14.0279   33.1858 C   0  0  0  0  0  0  0  0  0  0  0  0
   -7.1437   11.8267   34.4790 C   0  0  0  0  0  0  0  0  0  0  0  0
   -7.7283    9.5142   35.5180 C   0  0  0  0  0  0  0  0  0  0  0  0
   -6.8040   10.3534   34.6417 N   0  0  0  0  0  0  0  0  0  0  0  0
   -6.5689    9.6075   33.3185 C   0  0  0  0  0  0  0  0  0  0  0  0
   -5.4117   10.3144   35.3716 C   0  0  0  0  0  0  0  0  0  0  0  0
   -8.8880    7.5966   26.6155 C   0  0  0  0  0  0  0  0  0  0  0  0
   -8.8363    6.3293   27.4795 C   0  0  0  0  0  0  0  0  0  0  0  0
   -7.5140    5.7836   27.4760 O   0  0  0  0  0  0  0  0  0  0  0  0
   -7.2612    5.5546   26.5680 H   0  0  0  0  0  0  0  0  0  0  0  0
 22 23  1  0
 23 24  1  0
 23 25  1  0
 23 21  1  0
 21 18  1  0
 18 19  1  0
 18 20  1  0
 18 17  1  0
 17 14  1  0
 14 15  1  0
 14 16  1  0
 14 13  1  0
 13  1  1  0
  1  2  1  0
  1  3  1  0
  3  4  2  0
  4 26  1  0
 26 27  1  0
 27 28  1  0
  4  5  1  0
  5  6  1  0
  5  7  1  0
  7  8  1  0
  7  9  1  0
  9  1  1  0
  2 10  1  0
 28 29  1  0
  6 11  1  0
  8 12  1  0
M  CHG 1  14   1
M  CHG 1  18   1
M  CHG 1  23   1
M  END
> <minimizedAffinity>
-4.77106

> <CNNscore>
0.2557166815

> <CNNaffinity>
3.4365847111

> <CNN_VS>
0.8787920475

> <CNNaffinity_variance>
0.7586805224

$$$$



 29 29  0  0  0  0  0  0  0  0999 V2000
   -6.8380   10.1722   28.5331 C   0  0  0  0  0  0  0  0  0  0  0  0
   -5.7165    9.4273   28.9928 O   0  0  0  0  0  0  0  0  0  0  0  0
   -7.8107    9.1742   27.9594 C   0  0  0  0  0  0  0  0  0  0  0  0
   -8.4712    9.3044   26.7886 C   0  0  0  0  0  0  0  0  0  0  0  0
   -8.2733   10.5203   25.8983 C   0  0  0  0  0  0  0  0  0  0  0  0
   -9.5443   11.0683   25.5587 O   0  0  0  0  0  0  0  0  0  0  0  0
   -7.5092   11.6641   26.6025 C   0  0  0  0  0  0  0  0  0  0  0  0
   -6.9769   12.5970   25.6672 O   0  0  0  0  0  0  0  0  0  0  0  0
   -6.3533   11.1358   27.4408 C   0  0  0  0  0  0  0  0  0  0  0  0
   -6.0001    8.8102   29.6854 H   0  0  0  0  0  0  0  0  0  0  0  0
   -9.9971   11.3591   26.3657 H   0  0  0  0  0  0  0  0  0  0  0  0
   -6.3289   12.1515   25.0993 H   0  0  0  0  0  0  0  0  0  0  0  0
   -7.5560   10.8979   29.7366 C   0  0  0  0  0  0  0  0  0  0  0  0
   -6.7269   11.9945   30.6287 N   0  0  0  0  0  0  0  0  0  0  0  0
   -6.8668   13.3448   29.9236 C   0  0  0  0  0  0  0  0  0  0  0  0
   -5.2725   11.5458   30.6309 C   0  0  0  0  0  0  0  0  0  0  0  0
   -7.4367   11.9645   31.9770 C   0  0  0  0  0  0  0  0  0  0  0  0
   -6.7028   12.0342   33.3516 N   0  0  0  0  0  0  0  0  0  0  0  0
   -6.2543   10.5496   33.5500 C   0  0  0  0  0  0  0  0  0  0  0  0
   -5.4203   12.8432   33.2302 C   0  0  0  0  0  0  0  0  0  0  0  0
   -7.6302   12.4484   34.4727 C   0  0  0  0  0  0  0  0  0  0  0  0
   -9.9092   12.4328   35.7278 C   0  0  0  0  0  0  0  0  0  0  0  0
   -9.1322   12.2143   34.4336 N   0  0  0  0  0  0  0  0  0  0  0  0
   -9.8582   12.9469   33.2939 C   0  0  0  0  0  0  0  0  0  0  0  0
   -9.3178   10.6877   34.1051 C   0  0  0  0  0  0  0  0  0  0  0  0
   -9.4465    8.2542   26.2541 C   0  0  0  0  0  0  0  0  0  0  0  0
   -9.3082    7.8369   24.7838 C   0  0  0  0  0  0  0  0  0  0  0  0
   -9.6323    6.4520   24.6316 O   0  0  0  0  0  0  0  0  0  0  0  0
   -9.0260    5.9173   25.1677 H   0  0  0  0  0  0  0  0  0  0  0  0
 22 23  1  0
 23 24  1  0
 23 25  1  0
 23 21  1  0
 21 18  1  0
 18 19  1  0
 18 20  1  0
 18 17  1  0
 17 14  1  0
 14 15  1  0
 14 16  1  0
 14 13  1  0
 13  1  1  0
  1  2  1  0
  1  3  1  0
  3  4  2  0
  4 26  1  0
 26 27  1  0
 27 28  1  0
  4  5  1  0
  5  6  1  0
  5  7  1  0
  7  8  1  0
  7  9  1  0
  9  1  1  0
  2 10  1  0
 28 29  1  0
  6 11  1  0
  8 12  1  0
M  CHG 1  14   1
M  CHG 1  18   1
M  CHG 1  23   1
M  END
> <minimizedAffinity>
-4.37356

> <CNNscore>
0.2484615296

> <CNNaffinity>
3.6569986343

> <CNN_VS>
0.9086234570

> <CNNaffinity_variance>
0.2942572534

$$$$



 29 29  0  0  0  0  0  0  0  0999 V2000
   -8.6679   11.5200   26.8277 C   0  0  0  0  0  0  0  0  0  0  0  0
   -9.6255   12.4512   27.3174 O   0  0  0  0  0  0  0  0  0  0  0  0
   -7.7027   12.3040   25.9762 C   0  0  0  0  0  0  0  0  0  0  0  0
   -7.2483   11.9337   24.7595 C   0  0  0  0  0  0  0  0  0  0  0  0
   -7.7008   10.6385   24.1053 C   0  0  0  0  0  0  0  0  0  0  0  0
   -6.5582    9.8996   23.6816 O   0  0  0  0  0  0  0  0  0  0  0  0
   -8.4550    9.7042   25.0781 C   0  0  0  0  0  0  0  0  0  0  0  0
   -9.2153    8.7212   24.3824 O   0  0  0  0  0  0  0  0  0  0  0  0
   -9.4089   10.4793   25.9765 C   0  0  0  0  0  0  0  0  0  0  0  0
   -9.1784   13.1199   27.8594 H   0  0  0  0  0  0  0  0  0  0  0  0
   -6.0163    9.6715   24.4531 H   0  0  0  0  0  0  0  0  0  0  0  0
   -9.8967    9.1581   23.8479 H   0  0  0  0  0  0  0  0  0  0  0  0
   -7.8465   10.8876   28.0177 C   0  0  0  0  0  0  0  0  0  0  0  0
   -8.4129   11.0203   29.5498 N   0  0  0  0  0  0  0  0  0  0  0  0
   -9.8170   10.4135   29.5635 C   0  0  0  0  0  0  0  0  0  0  0  0
   -8.4752   12.5080   29.8651 C   0  0  0  0  0  0  0  0  0  0  0  0
   -7.4177   10.2058   30.3676 C   0  0  0  0  0  0  0  0  0  0  0  0
   -7.3666   10.2001   31.9266 N   0  0  0  0  0  0  0  0  0  0  0  0
   -6.2360   11.2415   32.2129 C   0  0  0  0  0  0  0  0  0  0  0  0
   -8.6401   10.7999   32.5033 C   0  0  0  0  0  0  0  0  0  0  0  0
   -6.9756    8.8474   32.4794 C   0  0  0  0  0  0  0  0  0  0  0  0
   -7.4568    6.4703   33.4212 C   0  0  0  0  0  0  0  0  0  0  0  0
   -7.9940    7.7959   32.8915 N   0  0  0  0  0  0  0  0  0  0  0  0
   -9.0787    8.3070   33.8532 C   0  0  0  0  0  0  0  0  0  0  0  0
   -8.7735    7.4191   31.5789 C   0  0  0  0  0  0  0  0  0  0  0  0
   -6.2693   12.7742   23.9379 C   0  0  0  0  0  0  0  0  0  0  0  0
   -6.8293   13.9922   23.1909 C   0  0  0  0  0  0  0  0  0  0  0  0
   -7.9670   14.5149   23.8829 O   0  0  0  0  0  0  0  0  0  0  0  0
   -8.6559   13.8339   23.9332 H   0  0  0  0  0  0  0  0  0  0  0  0
 22 23  1  0
 23 24  1  0
 23 25  1  0
 23 21  1  0
 21 18  1  0
 18 19  1  0
 18 20  1  0
 18 17  1  0
 17 14  1  0
 14 15  1  0
 14 16  1  0
 14 13  1  0
 13  1  1  0
  1  2  1  0
  1  3  1  0
  3  4  2  0
  4 26  1  0
 26 27  1  0
 27 28  1  0
  4  5  1  0
  5  6  1  0
  5  7  1  0
  7  8  1  0
  7  9  1  0
  9  1  1  0
  2 10  1  0
 28 29  1  0
  6 11  1  0
  8 12  1  0
M  CHG 1  14   1
M  CHG 1  18   1
M  CHG 1  23   1
M  END
> <minimizedAffinity>
-4.12717

> <CNNscore>
0.2441544384

> <CNNaffinity>
3.1663382053

> <CNN_VS>
0.7730755210

> <CNNaffinity_variance>
0.7595731616

$$$$



 29 29  0  0  0  0  0  0  0  0999 V2000
    6.2456   16.2972   16.5560 C   0  0  0  0  0  0  0  0  0  0  0  0
    6.8278   17.2469   15.6711 O   0  0  0  0  0  0  0  0  0  0  0  0
    6.2408   14.9779   15.8276 C   0  0  0  0  0  0  0  0  0  0  0  0
    5.2041   14.1140   15.7733 C   0  0  0  0  0  0  0  0  0  0  0  0
    3.8843   14.4158   16.4642 C   0  0  0  0  0  0  0  0  0  0  0  0
    3.5080   13.3021   17.2698 O   0  0  0  0  0  0  0  0  0  0  0  0
    3.9741   15.6133   17.4369 C   0  0  0  0  0  0  0  0  0  0  0  0
    2.6869   16.1370   17.7489 O   0  0  0  0  0  0  0  0  0  0  0  0
    4.8092   16.7470   16.8580 C   0  0  0  0  0  0  0  0  0  0  0  0
    7.7381   16.9821   15.4661 H   0  0  0  0  0  0  0  0  0  0  0  0
    4.1785   13.1581   17.9558 H   0  0  0  0  0  0  0  0  0  0  0  0
    2.2723   16.4784   16.9411 H   0  0  0  0  0  0  0  0  0  0  0  0
    7.1335   16.1231   17.8490 C   0  0  0  0  0  0  0  0  0  0  0  0
    8.6616   16.7151   17.8648 N   0  0  0  0  0  0  0  0  0  0  0  0
    9.1870   16.6401   16.4301 C   0  0  0  0  0  0  0  0  0  0  0  0
    9.4734   15.8046   18.7749 C   0  0  0  0  0  0  0  0  0  0  0  0
    8.4811   18.1501   18.3452 C   0  0  0  0  0  0  0  0  0  0  0  0
    9.6605   19.1307   18.6287 N   0  0  0  0  0  0  0  0  0  0  0  0
   10.8736   18.1497   18.7328 C   0  0  0  0  0  0  0  0  0  0  0  0
    9.9334   20.0016   17.4116 C   0  0  0  0  0  0  0  0  0  0  0  0
    9.4831   19.8738   19.9344 C   0  0  0  0  0  0  0  0  0  0  0  0
    9.9966   22.3017   19.1530 C   0  0  0  0  0  0  0  0  0  0  0  0
   10.1358   21.2179   20.2171 N   0  0  0  0  0  0  0  0  0  0  0  0
    9.7769   21.8215   21.5844 C   0  0  0  0  0  0  0  0  0  0  0  0
   11.6799   20.9330   20.3025 C   0  0  0  0  0  0  0  0  0  0  0  0
    5.2562   12.7875   15.0135 C   0  0  0  0  0  0  0  0  0  0  0  0
    4.7127   12.7670   13.5784 C   0  0  0  0  0  0  0  0  0  0  0  0
    4.5770   14.1022   13.0834 O   0  0  0  0  0  0  0  0  0  0  0  0
    3.9586   14.5943   13.6458 H   0  0  0  0  0  0  0  0  0  0  0  0
 22 23  1  0
 23 24  1  0
 23 25  1  0
 23 21  1  0
 21 18  1  0
 18 19  1  0
 18 20  1  0
 18 17  1  0
 17 14  1  0
 14 15  1  0
 14 16  1  0
 14 13  1  0
 13  1  1  0
  1  2  1  0
  1  3  1  0
  3  4  2  0
  4 26  1  0
 26 27  1  0
 27 28  1  0
  4  5  1  0
  5  6  1  0
  5  7  1  0
  7  8  1  0
  7  9  1  0
  9  1  1  0
  2 10  1  0
 28 29  1  0
  6 11  1  0
  8 12  1  0
M  CHG 1  14   1
M  CHG 1  18   1
M  CHG 1  23   1
M  END
> <minimizedAffinity>
-4.04306

> <CNNscore>
0.2420783043

> <CNNaffinity>
3.2712211609

> <CNN_VS>
0.7918916941

> <CNNaffinity_variance>
0.9672222137

$$$$



 29 29  0  0  0  0  0  0  0  0999 V2000
   -8.0235   11.4680   27.0584 C   0  0  0  0  0  0  0  0  0  0  0  0
   -8.9540   12.3038   27.7363 O   0  0  0  0  0  0  0  0  0  0  0  0
   -7.2805   12.3505   26.0886 C   0  0  0  0  0  0  0  0  0  0  0  0
   -7.0111   12.0495   24.7999 C   0  0  0  0  0  0  0  0  0  0  0  0
   -7.4656   10.7378   24.1810 C   0  0  0  0  0  0  0  0  0  0  0  0
   -6.3572   10.1073   23.5446 O   0  0  0  0  0  0  0  0  0  0  0  0
   -7.9692    9.7201   25.2293 C   0  0  0  0  0  0  0  0  0  0  0  0
   -8.7575    8.6948   24.6328 O   0  0  0  0  0  0  0  0  0  0  0  0
   -8.8146   10.3906   26.3033 C   0  0  0  0  0  0  0  0  0  0  0  0
   -8.4750   12.9938   28.2215 H   0  0  0  0  0  0  0  0  0  0  0  0
   -5.6765    9.9060   24.2056 H   0  0  0  0  0  0  0  0  0  0  0  0
   -9.5514    9.0866   24.2366 H   0  0  0  0  0  0  0  0  0  0  0  0
   -6.9659   10.8769   28.0696 C   0  0  0  0  0  0  0  0  0  0  0  0
   -7.3742   10.6863   29.6452 N   0  0  0  0  0  0  0  0  0  0  0  0
   -6.2131    9.9584   30.3249 C   0  0  0  0  0  0  0  0  0  0  0  0
   -8.6280    9.8238   29.6703 C   0  0  0  0  0  0  0  0  0  0  0  0
   -7.5380   12.1167   30.1448 C   0  0  0  0  0  0  0  0  0  0  0  0
   -7.5542   12.5187   31.6518 N   0  0  0  0  0  0  0  0  0  0  0  0
   -8.7214   11.6375   32.2049 C   0  0  0  0  0  0  0  0  0  0  0  0
   -6.2949   12.0252   32.3482 C   0  0  0  0  0  0  0  0  0  0  0  0
   -7.8749   13.9840   31.8478 C   0  0  0  0  0  0  0  0  0  0  0  0
   -8.3410   16.1017   33.2855 C   0  0  0  0  0  0  0  0  0  0  0  0
   -8.2042   14.5847   33.2054 N   0  0  0  0  0  0  0  0  0  0  0  0
   -9.4133   13.9439   33.9055 C   0  0  0  0  0  0  0  0  0  0  0  0
   -6.9814   14.2410   34.1323 C   0  0  0  0  0  0  0  0  0  0  0  0
   -6.2539   12.9886   23.8595 C   0  0  0  0  0  0  0  0  0  0  0  0
   -6.9800   13.4683   22.5955 C   0  0  0  0  0  0  0  0  0  0  0  0
   -6.1071   14.2777   21.8023 O   0  0  0  0  0  0  0  0  0  0  0  0
   -5.8279   15.0515   22.3162 H   0  0  0  0  0  0  0  0  0  0  0  0
 22 23  1  0
 23 24  1  0
 23 25  1  0
 23 21  1  0
 21 18  1  0
 18 19  1  0
 18 20  1  0
 18 17  1  0
 17 14  1  0
 14 15  1  0
 14 16  1  0
 14 13  1  0
 13  1  1  0
  1  2  1  0
  1  3  1  0
  3  4  2  0
  4 26  1  0
 26 27  1  0
 27 28  1  0
  4  5  1  0
  5  6  1  0
  5  7  1  0
  7  8  1  0
  7  9  1  0
  9  1  1  0
  2 10  1  0
 28 29  1  0
  6 11  1  0
  8 12  1  0
M  CHG 1  14   1
M  CHG 1  18   1
M  CHG 1  23   1
M  END
> <minimizedAffinity>
-4.67290

> <CNNscore>
0.2319321036

> <CNNaffinity>
3.0960476398

> <CNN_VS>
0.7180728316

> <CNNaffinity_variance>
0.9111878276

$$$$



 29 29  0  0  0  0  0  0  0  0999 V2000
   -6.8102   10.2461   28.4878 C   0  0  0  0  0  0  0  0  0  0  0  0
   -5.6552    9.5494   28.9398 O   0  0  0  0  0  0  0  0  0  0  0  0
   -7.7366    9.2098   27.9053 C   0  0  0  0  0  0  0  0  0  0  0  0
   -8.4035    9.3203   26.7361 C   0  0  0  0  0  0  0  0  0  0  0  0
   -8.2626   10.5522   25.8570 C   0  0  0  0  0  0  0  0  0  0  0  0
   -9.5578   11.0442   25.5232 O   0  0  0  0  0  0  0  0  0  0  0  0
   -7.5512   11.7234   26.5714 C   0  0  0  0  0  0  0  0  0  0  0  0
   -7.0633   12.6884   25.6445 O   0  0  0  0  0  0  0  0  0  0  0  0
   -6.3714   11.2411   27.4041 C   0  0  0  0  0  0  0  0  0  0  0  0
   -5.9095    8.9136   29.6269 H   0  0  0  0  0  0  0  0  0  0  0  0
  -10.0227   11.3064   26.3331 H   0  0  0  0  0  0  0  0  0  0  0  0
   -6.3960   12.2784   25.0722 H   0  0  0  0  0  0  0  0  0  0  0  0
   -7.5596   10.9269   29.6983 C   0  0  0  0  0  0  0  0  0  0  0  0
   -6.7730   12.0344   30.6150 N   0  0  0  0  0  0  0  0  0  0  0  0
   -6.8729   13.3746   29.8842 C   0  0  0  0  0  0  0  0  0  0  0  0
   -5.3220   11.5822   30.6970 C   0  0  0  0  0  0  0  0  0  0  0  0
   -7.5499   12.0259   31.9261 C   0  0  0  0  0  0  0  0  0  0  0  0
   -6.8828   12.0178   33.3361 N   0  0  0  0  0  0  0  0  0  0  0  0
   -8.1297   12.0102   34.2794 C   0  0  0  0  0  0  0  0  0  0  0  0
   -6.1690   10.6967   33.5800 C   0  0  0  0  0  0  0  0  0  0  0  0
   -6.0555   13.2601   33.5827 C   0  0  0  0  0  0  0  0  0  0  0  0
   -4.6966   14.5522   35.3863 C   0  0  0  0  0  0  0  0  0  0  0  0
   -4.8784   13.2930   34.5449 N   0  0  0  0  0  0  0  0  0  0  0  0
   -4.7786   12.0668   35.4662 C   0  0  0  0  0  0  0  0  0  0  0  0
   -3.5902   13.2196   33.6461 C   0  0  0  0  0  0  0  0  0  0  0  0
   -9.3300    8.2313   26.1925 C   0  0  0  0  0  0  0  0  0  0  0  0
   -9.2184    7.8800   24.7028 C   0  0  0  0  0  0  0  0  0  0  0  0
   -9.5808    6.5126   24.4901 O   0  0  0  0  0  0  0  0  0  0  0  0
   -8.9833    5.9377   24.9934 H   0  0  0  0  0  0  0  0  0  0  0  0
 22 23  1  0
 23 24  1  0
 23 25  1  0
 23 21  1  0
 21 18  1  0
 18 19  1  0
 18 20  1  0
 18 17  1  0
 17 14  1  0
 14 15  1  0
 14 16  1  0
 14 13  1  0
 13  1  1  0
  1  2  1  0
  1  3  1  0
  3  4  2  0
  4 26  1  0
 26 27  1  0
 27 28  1  0
  4  5  1  0
  5  6  1  0
  5  7  1  0
  7  8  1  0
  7  9  1  0
  9  1  1  0
  2 10  1  0
 28 29  1  0
  6 11  1  0
  8 12  1  0
M  CHG 1  14   1
M  CHG 1  18   1
M  CHG 1  23   1
M  END
> <minimizedAffinity>
-4.99839

> <CNNscore>
0.2127296776

> <CNNaffinity>
3.4604828358

> <CNN_VS>
0.7361474037

> <CNNaffinity_variance>
0.6643295288

$$$$



 29 29  0  0  0  0  0  0  0  0999 V2000
    6.1798   16.1096   16.2694 C   0  0  0  0  0  0  0  0  0  0  0  0
    6.7271   16.9740   15.2809 O   0  0  0  0  0  0  0  0  0  0  0  0
    6.1359   14.7323   15.6590 C   0  0  0  0  0  0  0  0  0  0  0  0
    5.0933   13.8764   15.7251 C   0  0  0  0  0  0  0  0  0  0  0  0
    3.8070   14.2486   16.4442 C   0  0  0  0  0  0  0  0  0  0  0  0
    3.4610   13.2121   17.3590 O   0  0  0  0  0  0  0  0  0  0  0  0
    3.9459   15.5248   17.3046 C   0  0  0  0  0  0  0  0  0  0  0  0
    2.6766   16.0851   17.6258 O   0  0  0  0  0  0  0  0  0  0  0  0
    4.7605   16.5966   16.5936 C   0  0  0  0  0  0  0  0  0  0  0  0
    7.6261   16.6843   15.0601 H   0  0  0  0  0  0  0  0  0  0  0  0
    4.1604   13.1218   18.0250 H   0  0  0  0  0  0  0  0  0  0  0  0
    2.2284   16.3591   16.8104 H   0  0  0  0  0  0  0  0  0  0  0  0
    7.1232   16.0399   17.5326 C   0  0  0  0  0  0  0  0  0  0  0  0
    8.6821   16.5284   17.4040 N   0  0  0  0  0  0  0  0  0  0  0  0
    9.2018   16.0215   16.0574 C   0  0  0  0  0  0  0  0  0  0  0  0
    9.4418   15.8704   18.5470 C   0  0  0  0  0  0  0  0  0  0  0  0
    8.5831   18.0483   17.4559 C   0  0  0  0  0  0  0  0  0  0  0  0
    9.7982   18.9944   17.7037 N   0  0  0  0  0  0  0  0  0  0  0  0
    9.3621   20.2830   16.9331 C   0  0  0  0  0  0  0  0  0  0  0  0
    9.8731   19.3922   19.1701 C   0  0  0  0  0  0  0  0  0  0  0  0
   11.0778   18.4461   17.1116 C   0  0  0  0  0  0  0  0  0  0  0  0
   12.9290   19.9163   18.1981 C   0  0  0  0  0  0  0  0  0  0  0  0
   12.4201   18.5287   17.8214 N   0  0  0  0  0  0  0  0  0  0  0  0
   12.5469   17.6087   19.0462 C   0  0  0  0  0  0  0  0  0  0  0  0
   13.4786   17.9753   16.7987 C   0  0  0  0  0  0  0  0  0  0  0  0
    5.1049   12.4887   15.0817 C   0  0  0  0  0  0  0  0  0  0  0  0
    4.9328   12.4085   13.5588 C   0  0  0  0  0  0  0  0  0  0  0  0
    4.8955   11.0418   13.1380 O   0  0  0  0  0  0  0  0  0  0  0  0
    5.7263   10.6052   13.3831 H   0  0  0  0  0  0  0  0  0  0  0  0
 22 23  1  0
 23 24  1  0
 23 25  1  0
 23 21  1  0
 21 18  1  0
 18 19  1  0
 18 20  1  0
 18 17  1  0
 17 14  1  0
 14 15  1  0
 14 16  1  0
 14 13  1  0
 13  1  1  0
  1  2  1  0
  1  3  1  0
  3  4  2  0
  4 26  1  0
 26 27  1  0
 27 28  1  0
  4  5  1  0
  5  6  1  0
  5  7  1  0
  7  8  1  0
  7  9  1  0
  9  1  1  0
  2 10  1  0
 28 29  1  0
  6 11  1  0
  8 12  1  0
M  CHG 1  14   1
M  CHG 1  18   1
M  CHG 1  23   1
M  END
> <minimizedAffinity>
-4.04577

> <CNNscore>
0.1759096980

> <CNNaffinity>
3.4207236767

> <CNN_VS>
0.6017384529

> <CNNaffinity_variance>
0.7076862454

$$$$



 29 29  0  0  0  0  0  0  0  0999 V2000
   -8.8622   11.6357   26.5858 C   0  0  0  0  0  0  0  0  0  0  0  0
   -9.8897   12.5497   26.9501 O   0  0  0  0  0  0  0  0  0  0  0  0
   -7.8212   12.4333   25.8431 C   0  0  0  0  0  0  0  0  0  0  0  0
   -7.2206   12.0621   24.6919 C   0  0  0  0  0  0  0  0  0  0  0  0
   -7.5664   10.7512   24.0046 C   0  0  0  0  0  0  0  0  0  0  0  0
   -6.3669   10.0342   23.7251 O   0  0  0  0  0  0  0  0  0  0  0  0
   -8.4089    9.8092   24.8940 C   0  0  0  0  0  0  0  0  0  0  0  0
   -9.0622    8.8032   24.1262 O   0  0  0  0  0  0  0  0  0  0  0  0
   -9.4770   10.5710   25.6665 C   0  0  0  0  0  0  0  0  0  0  0  0
   -9.5229   13.2331   27.5326 H   0  0  0  0  0  0  0  0  0  0  0  0
   -5.9138    9.8252   24.5569 H   0  0  0  0  0  0  0  0  0  0  0  0
   -9.6858    9.2200   23.5111 H   0  0  0  0  0  0  0  0  0  0  0  0
   -8.1718   11.0326   27.8704 C   0  0  0  0  0  0  0  0  0  0  0  0
   -8.7845    9.6753   28.5543 N   0  0  0  0  0  0  0  0  0  0  0  0
   -7.6804    8.6170   28.5189 C   0  0  0  0  0  0  0  0  0  0  0  0
   -9.9606    9.2434   27.6902 C   0  0  0  0  0  0  0  0  0  0  0  0
   -9.1248   10.1155   29.9732 C   0  0  0  0  0  0  0  0  0  0  0  0
   -8.1598   10.9285   30.8901 N   0  0  0  0  0  0  0  0  0  0  0  0
   -8.8206   12.3454   30.8727 C   0  0  0  0  0  0  0  0  0  0  0  0
   -8.2562   10.4425   32.3284 C   0  0  0  0  0  0  0  0  0  0  0  0
   -6.7603   11.0036   30.3207 C   0  0  0  0  0  0  0  0  0  0  0  0
   -5.4932   12.4939   32.0361 C   0  0  0  0  0  0  0  0  0  0  0  0
   -5.8220   12.1714   30.5821 N   0  0  0  0  0  0  0  0  0  0  0  0
   -4.5115   12.1231   29.7802 C   0  0  0  0  0  0  0  0  0  0  0  0
   -6.5684   13.4471   30.0453 C   0  0  0  0  0  0  0  0  0  0  0  0
   -6.1706   12.9167   23.9798 C   0  0  0  0  0  0  0  0  0  0  0  0
   -6.6688   13.9810   22.9929 C   0  0  0  0  0  0  0  0  0  0  0  0
   -7.5885   13.4001   22.0639 O   0  0  0  0  0  0  0  0  0  0  0  0
   -7.1444   12.6952   21.5671 H   0  0  0  0  0  0  0  0  0  0  0  0
 22 23  1  0
 23 24  1  0
 23 25  1  0
 23 21  1  0
 21 18  1  0
 18 19  1  0
 18 20  1  0
 18 17  1  0
 17 14  1  0
 14 15  1  0
 14 16  1  0
 14 13  1  0
 13  1  1  0
  1  2  1  0
  1  3  1  0
  3  4  2  0
  4 26  1  0
 26 27  1  0
 27 28  1  0
  4  5  1  0
  5  6  1  0
  5  7  1  0
  7  8  1  0
  7  9  1  0
  9  1  1  0
  2 10  1  0
 28 29  1  0
  6 11  1  0
  8 12  1  0
M  CHG 1  14   1
M  CHG 1  18   1
M  CHG 1  23   1
M  END
> <minimizedAffinity>
-4.07985

> <CNNscore>
0.1756797880

> <CNNaffinity>
3.0633466244

> <CNN_VS>
0.5381680727

> <CNNaffinity_variance>
1.2061109543

$$$$



 29 29  0  0  0  0  0  0  0  0999 V2000
   -8.2449   11.5231   26.9803 C   0  0  0  0  0  0  0  0  0  0  0  0
   -9.2165   12.3736   27.5772 O   0  0  0  0  0  0  0  0  0  0  0  0
   -7.4378   12.3842   26.0431 C   0  0  0  0  0  0  0  0  0  0  0  0
   -7.0845   12.0555   24.7817 C   0  0  0  0  0  0  0  0  0  0  0  0
   -7.4995   10.7310   24.1624 C   0  0  0  0  0  0  0  0  0  0  0  0
   -6.3526   10.0865   23.6142 O   0  0  0  0  0  0  0  0  0  0  0  0
   -8.0730    9.7362   25.1966 C   0  0  0  0  0  0  0  0  0  0  0  0
   -8.8220    8.6987   24.5715 O   0  0  0  0  0  0  0  0  0  0  0  0
   -8.9863   10.4300   26.1979 C   0  0  0  0  0  0  0  0  0  0  0  0
   -8.7694   13.0737   28.0781 H   0  0  0  0  0  0  0  0  0  0  0  0
   -5.7174    9.8992   24.3229 H   0  0  0  0  0  0  0  0  0  0  0  0
   -9.5874    9.0821   24.1154 H   0  0  0  0  0  0  0  0  0  0  0  0
   -7.2574   10.9534   28.0716 C   0  0  0  0  0  0  0  0  0  0  0  0
   -7.8335   10.5576   29.5538 N   0  0  0  0  0  0  0  0  0  0  0  0
   -8.2204    9.0784   29.5048 C   0  0  0  0  0  0  0  0  0  0  0  0
   -9.0653   11.4203   29.7883 C   0  0  0  0  0  0  0  0  0  0  0  0
   -6.6492   10.8202   30.4764 C   0  0  0  0  0  0  0  0  0  0  0  0
   -6.0066   12.2248   30.6939 N   0  0  0  0  0  0  0  0  0  0  0  0
   -4.7808   12.1688   29.7248 C   0  0  0  0  0  0  0  0  0  0  0  0
   -6.9163   13.3165   30.1508 C   0  0  0  0  0  0  0  0  0  0  0  0
   -5.5322   12.4207   32.1169 C   0  0  0  0  0  0  0  0  0  0  0  0
   -7.9017   12.3547   33.1893 C   0  0  0  0  0  0  0  0  0  0  0  0
   -6.4011   12.1193   33.3279 N   0  0  0  0  0  0  0  0  0  0  0  0
   -6.1757   10.7270   33.9388 C   0  0  0  0  0  0  0  0  0  0  0  0
   -5.9375   13.1228   34.4463 C   0  0  0  0  0  0  0  0  0  0  0  0
   -6.2651   12.9739   23.8735 C   0  0  0  0  0  0  0  0  0  0  0  0
   -7.0292   13.8553   22.8762 C   0  0  0  0  0  0  0  0  0  0  0  0
   -6.1780   14.2170   21.7848 O   0  0  0  0  0  0  0  0  0  0  0  0
   -5.4148   14.7125   22.1205 H   0  0  0  0  0  0  0  0  0  0  0  0
 22 23  1  0
 23 24  1  0
 23 25  1  0
 23 21  1  0
 21 18  1  0
 18 19  1  0
 18 20  1  0
 18 17  1  0
 17 14  1  0
 14 15  1  0
 14 16  1  0
 14 13  1  0
 13  1  1  0
  1  2  1  0
  1  3  1  0
  3  4  2  0
  4 26  1  0
 26 27  1  0
 27 28  1  0
  4  5  1  0
  5  6  1  0
  5  7  1  0
  7  8  1  0
  7  9  1  0
  9  1  1  0
  2 10  1  0
 28 29  1  0
  6 11  1  0
  8 12  1  0
M  CHG 1  14   1
M  CHG 1  18   1
M  CHG 1  23   1
M  END
> <minimizedAffinity>
-5.13436

> <CNNscore>
0.1635102183

> <CNNaffinity>
3.0255966187

> <CNN_VS>
0.4947159588

> <CNNaffinity_variance>
1.2672414780

$$$$
