


 27 29  0  0  0  0  0  0  0  0999 V2000
   -1.3192    8.7955    8.9228 C   0  0  0  0  0  0  0  0  0  0  0  0
   -0.6818   10.1514    9.3186 C   0  0  0  0  0  0  0  0  0  0  0  0
   -0.4730   10.2593   10.8483 C   0  0  0  0  0  0  0  0  0  0  0  0
   -1.5553   10.9090   11.5217 O   0  0  0  0  0  0  0  0  0  0  0  0
   -0.2222    8.9158   11.4956 C   0  0  0  0  0  0  0  0  0  0  0  0
   -0.0493    8.6577   12.8006 N   0  0  0  0  0  0  0  0  0  0  0  0
    0.1144    7.3022   13.0332 C   0  0  0  0  0  0  0  0  0  0  0  0
    0.0333    6.7174   11.7922 C   0  0  0  0  0  0  0  0  0  0  0  0
   -0.1801    7.7271   10.8719 N   0  0  0  0  0  0  0  0  0  0  0  0
   -0.4810    7.5842    9.4301 C   0  0  0  0  0  0  0  0  0  0  0  0
   -2.3588   10.3726   11.4348 H   0  0  0  0  0  0  0  0  0  0  0  0
   -0.0399    9.3456   13.5048 H   0  0  0  0  0  0  0  0  0  0  0  0
    0.7937    7.3042    8.6118 C   0  0  0  0  0  0  0  0  0  0  0  0
    0.6389    6.1269    7.8290 O   0  0  0  0  0  0  0  0  0  0  0  0
    0.4769    5.3694    8.4129 H   0  0  0  0  0  0  0  0  0  0  0  0
   -3.6207    9.4662    8.8634 C   0  0  0  0  0  0  0  0  0  0  0  0
   -2.6247    8.6964    9.5288 O   0  0  0  0  0  0  0  0  0  0  0  0
    0.5989   10.3365    8.6972 O   0  0  0  0  0  0  0  0  0  0  0  0
    0.8887   11.6960    8.3822 C   0  0  0  0  0  0  0  0  0  0  0  0
    0.2971    6.7161   14.3789 C   0  0  0  0  0  0  0  0  0  0  0  0
   -0.9381    6.9160   15.2560 C   0  0  0  0  0  0  0  0  0  0  0  0
   -1.0592    5.8477   16.3127 C   0  0  0  0  0  0  0  0  0  0  0  0
   -1.1254    6.1868   17.6719 C   0  0  0  0  0  0  0  0  0  0  0  0
   -1.2523    5.1923   18.6427 C   0  0  0  0  0  0  0  0  0  0  0  0
   -1.3074    3.8505   18.2670 C   0  0  0  0  0  0  0  0  0  0  0  0
   -1.2327    3.5027   16.9212 C   0  0  0  0  0  0  0  0  0  0  0  0
   -1.1088    4.4957   15.9474 C   0  0  0  0  0  0  0  0  0  0  0  0
 16 17  1  0
  1 17  1  0
  1  2  1  0
  2 18  1  0
 18 19  1  0
  2  3  1  0
  3  4  1  0
  3  5  1  0
  5  6  1  0
  6  7  1  0
  7 20  1  0
 20 21  1  0
 21 22  1  0
 22 23  2  0
 23 24  1  0
 24 25  2  0
 25 26  1  0
 26 27  2  0
  7  8  2  0
  8  9  1  0
  9 10  1  0
 10 13  1  0
 13 14  1  0
 10  1  1  0
  9  5  2  0
 27 22  1  0
  4 11  1  0
  6 12  1  0
 14 15  1  0
M  CHG 1   9   1
M  END
> <minimizedAffinity>
-7.52255

> <CNNscore>
0.7079452276

> <CNNaffinity>
6.1367516518

> <CNN_VS>
4.3444838524

> <CNNaffinity_variance>
0.2671999037

$$$$



 27 29  0  0  0  0  0  0  0  0999 V2000
   -2.8584    5.9327   15.3472 C   0  0  0  0  0  0  0  0  0  0  0  0
   -2.5145    6.6208   16.6924 C   0  0  0  0  0  0  0  0  0  0  0  0
   -1.7240    5.6774   17.6307 C   0  0  0  0  0  0  0  0  0  0  0  0
   -2.5584    4.9648   18.5488 O   0  0  0  0  0  0  0  0  0  0  0  0
   -0.8664    4.6899   16.8718 C   0  0  0  0  0  0  0  0  0  0  0  0
   -0.1000    3.7137   17.3811 N   0  0  0  0  0  0  0  0  0  0  0  0
    0.5122    2.9748   16.3823 C   0  0  0  0  0  0  0  0  0  0  0  0
    0.0842    3.5446   15.2072 C   0  0  0  0  0  0  0  0  0  0  0  0
   -0.7633    4.5863   15.5367 N   0  0  0  0  0  0  0  0  0  0  0  0
   -1.5872    5.4034   14.6185 C   0  0  0  0  0  0  0  0  0  0  0  0
   -3.1425    4.3664   18.0573 H   0  0  0  0  0  0  0  0  0  0  0  0
    0.0130    3.5437   18.3442 H   0  0  0  0  0  0  0  0  0  0  0  0
   -0.7487    6.4949   13.9267 C   0  0  0  0  0  0  0  0  0  0  0  0
    0.3532    6.8734   14.7422 O   0  0  0  0  0  0  0  0  0  0  0  0
    0.0260    7.2260   15.5846 H   0  0  0  0  0  0  0  0  0  0  0  0
   -3.7324    3.8499   14.5419 C   0  0  0  0  0  0  0  0  0  0  0  0
   -3.7080    4.7957   15.6059 O   0  0  0  0  0  0  0  0  0  0  0  0
   -1.7165    7.7980   16.4968 O   0  0  0  0  0  0  0  0  0  0  0  0
   -2.4298    8.8776   15.8992 C   0  0  0  0  0  0  0  0  0  0  0  0
    1.3943    1.8161   16.6413 C   0  0  0  0  0  0  0  0  0  0  0  0
    0.5937    0.5338   16.8646 C   0  0  0  0  0  0  0  0  0  0  0  0
    0.5447   -0.3241   15.6259 C   0  0  0  0  0  0  0  0  0  0  0  0
   -0.5870   -1.0993   15.3341 C   0  0  0  0  0  0  0  0  0  0  0  0
   -0.6298   -1.8793   14.1776 C   0  0  0  0  0  0  0  0  0  0  0  0
    0.4583   -1.8984   13.3057 C   0  0  0  0  0  0  0  0  0  0  0  0
    1.5902   -1.1402   13.5912 C   0  0  0  0  0  0  0  0  0  0  0  0
    1.6347   -0.3564   14.7459 C   0  0  0  0  0  0  0  0  0  0  0  0
 16 17  1  0
  1 17  1  0
  1  2  1  0
  2 18  1  0
 18 19  1  0
  2  3  1  0
  3  4  1  0
  3  5  1  0
  5  6  1  0
  6  7  1  0
  7 20  1  0
 20 21  1  0
 21 22  1  0
 22 23  2  0
 23 24  1  0
 24 25  2  0
 25 26  1  0
 26 27  2  0
  7  8  2  0
  8  9  1  0
  9 10  1  0
 10 13  1  0
 13 14  1  0
 10  1  1  0
  9  5  2  0
 27 22  1  0
  4 11  1  0
  6 12  1  0
 14 15  1  0
M  CHG 1   9   1
M  END
> <minimizedAffinity>
-6.33510

> <CNNscore>
0.6462951303

> <CNNaffinity>
5.6778368950

> <CNN_VS>
3.6695582867

> <CNNaffinity_variance>
0.1281511337

$$$$



 27 29  0  0  0  0  0  0  0  0999 V2000
   -1.3406    8.8944    8.8557 C   0  0  0  0  0  0  0  0  0  0  0  0
   -0.6559   10.2082    9.3099 C   0  0  0  0  0  0  0  0  0  0  0  0
   -0.5710   10.3042   10.8523 C   0  0  0  0  0  0  0  0  0  0  0  0
   -1.6639   11.0207   11.4347 O   0  0  0  0  0  0  0  0  0  0  0  0
   -0.4598    8.9483   11.5125 C   0  0  0  0  0  0  0  0  0  0  0  0
   -0.4143    8.6811   12.8263 N   0  0  0  0  0  0  0  0  0  0  0  0
   -0.3555    7.3182   13.0660 C   0  0  0  0  0  0  0  0  0  0  0  0
   -0.3675    6.7385   11.8200 C   0  0  0  0  0  0  0  0  0  0  0  0
   -0.4391    7.7587   10.8894 N   0  0  0  0  0  0  0  0  0  0  0  0
   -0.6253    7.6336    9.4267 C   0  0  0  0  0  0  0  0  0  0  0  0
   -2.4890   10.5353   11.2779 H   0  0  0  0  0  0  0  0  0  0  0  0
   -0.4218    9.3677   13.5318 H   0  0  0  0  0  0  0  0  0  0  0  0
    0.6942    7.2741    8.7177 C   0  0  0  0  0  0  0  0  0  0  0  0
    0.5301    6.1150    7.9101 O   0  0  0  0  0  0  0  0  0  0  0  0
    0.2682    5.3663    8.4684 H   0  0  0  0  0  0  0  0  0  0  0  0
   -3.5845    9.7004    8.5997 C   0  0  0  0  0  0  0  0  0  0  0  0
   -2.6964    8.8774    9.3488 O   0  0  0  0  0  0  0  0  0  0  0  0
    0.6818   10.3126    8.7998 O   0  0  0  0  0  0  0  0  0  0  0  0
    1.0690   11.6474    8.4838 C   0  0  0  0  0  0  0  0  0  0  0  0
   -0.3241    6.7230   14.4197 C   0  0  0  0  0  0  0  0  0  0  0  0
    1.0691    6.2088   14.7799 C   0  0  0  0  0  0  0  0  0  0  0  0
    1.1639    4.7085   14.6667 C   0  0  0  0  0  0  0  0  0  0  0  0
    1.7381    4.1089   13.5364 C   0  0  0  0  0  0  0  0  0  0  0  0
    1.8352    2.7196   13.4463 C   0  0  0  0  0  0  0  0  0  0  0  0
    1.3544    1.9160   14.4796 C   0  0  0  0  0  0  0  0  0  0  0  0
    0.7739    2.5009   15.6013 C   0  0  0  0  0  0  0  0  0  0  0  0
    0.6780    3.8907   15.6957 C   0  0  0  0  0  0  0  0  0  0  0  0
 16 17  1  0
  1 17  1  0
  1  2  1  0
  2 18  1  0
 18 19  1  0
  2  3  1  0
  3  4  1  0
  3  5  1  0
  5  6  1  0
  6  7  1  0
  7 20  1  0
 20 21  1  0
 21 22  1  0
 22 23  2  0
 23 24  1  0
 24 25  2  0
 25 26  1  0
 26 27  2  0
  7  8  2  0
  8  9  1  0
  9 10  1  0
 10 13  1  0
 13 14  1  0
 10  1  1  0
  9  5  2  0
 27 22  1  0
  4 11  1  0
  6 12  1  0
 14 15  1  0
M  CHG 1   9   1
M  END
> <minimizedAffinity>
-7.15536

> <CNNscore>
0.6355463862

> <CNNaffinity>
6.0880599022

> <CNN_VS>
3.8692445755

> <CNNaffinity_variance>
0.1146550551

$$$$



 27 29  0  0  0  0  0  0  0  0999 V2000
   -1.2778    8.7038    8.8771 C   0  0  0  0  0  0  0  0  0  0  0  0
   -0.6740   10.0730    9.2795 C   0  0  0  0  0  0  0  0  0  0  0  0
   -0.4076   10.1542   10.8020 C   0  0  0  0  0  0  0  0  0  0  0  0
   -1.4844   10.7485   11.5329 O   0  0  0  0  0  0  0  0  0  0  0  0
   -0.0828    8.8067   11.4065 C   0  0  0  0  0  0  0  0  0  0  0  0
    0.1519    8.5260   12.6972 N   0  0  0  0  0  0  0  0  0  0  0  0
    0.3734    7.1726   12.8908 C   0  0  0  0  0  0  0  0  0  0  0  0
    0.2631    6.6131   11.6403 C   0  0  0  0  0  0  0  0  0  0  0  0
   -0.0233    7.6346   10.7535 N   0  0  0  0  0  0  0  0  0  0  0  0
   -0.3770    7.5131    9.3218 C   0  0  0  0  0  0  0  0  0  0  0  0
   -2.2710   10.1849   11.4652 H   0  0  0  0  0  0  0  0  0  0  0  0
    0.1650    9.1979   13.4167 H   0  0  0  0  0  0  0  0  0  0  0  0
    0.8728    7.2986    8.4472 C   0  0  0  0  0  0  0  0  0  0  0  0
    0.7538    6.1027    7.6867 O   0  0  0  0  0  0  0  0  0  0  0  0
    0.6658    5.3455    8.2866 H   0  0  0  0  0  0  0  0  0  0  0  0
   -3.5969    9.3107    8.9406 C   0  0  0  0  0  0  0  0  0  0  0  0
   -2.5534    8.5433    9.5317 O   0  0  0  0  0  0  0  0  0  0  0  0
    0.5731   10.3190    8.6125 O   0  0  0  0  0  0  0  0  0  0  0  0
    0.7890   11.6916    8.2952 C   0  0  0  0  0  0  0  0  0  0  0  0
    0.6312    6.5636   14.2138 C   0  0  0  0  0  0  0  0  0  0  0  0
   -0.2868    5.3706   14.4765 C   0  0  0  0  0  0  0  0  0  0  0  0
   -1.6634    5.8028   14.9135 C   0  0  0  0  0  0  0  0  0  0  0  0
   -2.7575    5.7024   14.0419 C   0  0  0  0  0  0  0  0  0  0  0  0
   -4.0312    6.0911   14.4596 C   0  0  0  0  0  0  0  0  0  0  0  0
   -4.2235    6.5895   15.7476 C   0  0  0  0  0  0  0  0  0  0  0  0
   -3.1424    6.7023   16.6171 C   0  0  0  0  0  0  0  0  0  0  0  0
   -1.8675    6.3114   16.2031 C   0  0  0  0  0  0  0  0  0  0  0  0
 16 17  1  0
  1 17  1  0
  1  2  1  0
  2 18  1  0
 18 19  1  0
  2  3  1  0
  3  4  1  0
  3  5  1  0
  5  6  1  0
  6  7  1  0
  7 20  1  0
 20 21  1  0
 21 22  1  0
 22 23  2  0
 23 24  1  0
 24 25  2  0
 25 26  1  0
 26 27  2  0
  7  8  2  0
  8  9  1  0
  9 10  1  0
 10 13  1  0
 13 14  1  0
 10  1  1  0
  9  5  2  0
 27 22  1  0
  4 11  1  0
  6 12  1  0
 14 15  1  0
M  CHG 1   9   1
M  END
> <minimizedAffinity>
-7.28507

> <CNNscore>
0.6091957092

> <CNNaffinity>
5.8534235954

> <CNN_VS>
3.5658805370

> <CNNaffinity_variance>
0.3980985582

$$$$



 27 29  0  0  0  0  0  0  0  0999 V2000
   -2.9224    5.8706   15.4412 C   0  0  0  0  0  0  0  0  0  0  0  0
   -2.4733    6.4739   16.7960 C   0  0  0  0  0  0  0  0  0  0  0  0
   -1.6089    5.4779   17.6061 C   0  0  0  0  0  0  0  0  0  0  0  0
   -2.3662    4.7026   18.5401 O   0  0  0  0  0  0  0  0  0  0  0  0
   -0.8131    4.5464   16.7196 C   0  0  0  0  0  0  0  0  0  0  0  0
   -0.0070    3.5449   17.1027 N   0  0  0  0  0  0  0  0  0  0  0  0
    0.5247    2.8753   16.0132 C   0  0  0  0  0  0  0  0  0  0  0  0
    0.0033    3.5159   14.9147 C   0  0  0  0  0  0  0  0  0  0  0  0
   -0.8168    4.5288   15.3767 N   0  0  0  0  0  0  0  0  0  0  0  0
   -1.7126    5.3973   14.5812 C   0  0  0  0  0  0  0  0  0  0  0  0
   -2.9868    4.1329   18.0593 H   0  0  0  0  0  0  0  0  0  0  0  0
    0.1828    3.3146   18.0409 H   0  0  0  0  0  0  0  0  0  0  0  0
   -0.9337    6.5363   13.8962 C   0  0  0  0  0  0  0  0  0  0  0  0
   -0.3288    6.0779   12.6935 O   0  0  0  0  0  0  0  0  0  0  0  0
    0.2920    5.3609   12.8967 H   0  0  0  0  0  0  0  0  0  0  0  0
   -3.8173    3.8144   14.5917 C   0  0  0  0  0  0  0  0  0  0  0  0
   -3.7469    4.7138   15.6933 O   0  0  0  0  0  0  0  0  0  0  0  0
   -1.6953    7.6664   16.6133 O   0  0  0  0  0  0  0  0  0  0  0  0
   -2.4254    8.7386   16.0227 C   0  0  0  0  0  0  0  0  0  0  0  0
    1.4264    1.7083   16.1264 C   0  0  0  0  0  0  0  0  0  0  0  0
    1.4258    1.1274   17.5397 C   0  0  0  0  0  0  0  0  0  0  0  0
    1.8408   -0.3219   17.5547 C   0  0  0  0  0  0  0  0  0  0  0  0
    2.2414   -0.9414   18.7473 C   0  0  0  0  0  0  0  0  0  0  0  0
    2.6100   -2.2874   18.7549 C   0  0  0  0  0  0  0  0  0  0  0  0
    2.5888   -3.0255   17.5719 C   0  0  0  0  0  0  0  0  0  0  0  0
    2.2021   -2.4174   16.3810 C   0  0  0  0  0  0  0  0  0  0  0  0
    1.8299   -1.0716   16.3709 C   0  0  0  0  0  0  0  0  0  0  0  0
 16 17  1  0
  1 17  1  0
  1  2  1  0
  2 18  1  0
 18 19  1  0
  2  3  1  0
  3  4  1  0
  3  5  1  0
  5  6  1  0
  6  7  1  0
  7 20  1  0
 20 21  1  0
 21 22  1  0
 22 23  2  0
 23 24  1  0
 24 25  2  0
 25 26  1  0
 26 27  2  0
  7  8  2  0
  8  9  1  0
  9 10  1  0
 10 13  1  0
 13 14  1  0
 10  1  1  0
  9  5  2  0
 27 22  1  0
  4 11  1  0
  6 12  1  0
 14 15  1  0
M  CHG 1   9   1
M  END
> <minimizedAffinity>
-6.76020

> <CNNscore>
0.5081907511

> <CNNaffinity>
5.0550465584

> <CNN_VS>
2.5689280033

> <CNNaffinity_variance>
0.1392778754

$$$$



 27 29  0  0  0  0  0  0  0  0999 V2000
   -1.5148    7.1434   15.5661 C   0  0  0  0  0  0  0  0  0  0  0  0
   -1.7239    6.6792   17.0296 C   0  0  0  0  0  0  0  0  0  0  0  0
   -2.4346    5.3060   17.0971 C   0  0  0  0  0  0  0  0  0  0  0  0
   -3.8542    5.4111   17.2403 O   0  0  0  0  0  0  0  0  0  0  0  0
   -2.1205    4.4313   15.9043 C   0  0  0  0  0  0  0  0  0  0  0  0
   -2.6070    3.2100   15.6366 N   0  0  0  0  0  0  0  0  0  0  0  0
   -2.1297    2.7262   14.4299 C   0  0  0  0  0  0  0  0  0  0  0  0
   -1.3102    3.7192   13.9492 C   0  0  0  0  0  0  0  0  0  0  0  0
   -1.3293    4.7526   14.8677 N   0  0  0  0  0  0  0  0  0  0  0  0
   -0.7242    6.0956   14.7268 C   0  0  0  0  0  0  0  0  0  0  0  0
   -4.2291    5.8273   16.4484 H   0  0  0  0  0  0  0  0  0  0  0  0
   -3.2258    2.7193   16.2244 H   0  0  0  0  0  0  0  0  0  0  0  0
    0.7900    6.0656   15.0081 C   0  0  0  0  0  0  0  0  0  0  0  0
    1.5027    5.5982   13.8695 O   0  0  0  0  0  0  0  0  0  0  0  0
    1.2130    4.6980   13.6539 H   0  0  0  0  0  0  0  0  0  0  0  0
   -2.7290    7.5018   13.5295 C   0  0  0  0  0  0  0  0  0  0  0  0
   -2.8031    7.3105   14.9385 O   0  0  0  0  0  0  0  0  0  0  0  0
   -0.4765    6.5510   17.7284 O   0  0  0  0  0  0  0  0  0  0  0  0
   -0.5735    5.7980   18.9347 C   0  0  0  0  0  0  0  0  0  0  0  0
   -2.5149    1.4167   13.8600 C   0  0  0  0  0  0  0  0  0  0  0  0
   -1.2983    0.6325   13.3701 C   0  0  0  0  0  0  0  0  0  0  0  0
   -0.1983    0.5952   14.4003 C   0  0  0  0  0  0  0  0  0  0  0  0
    1.0614    1.1469   14.1254 C   0  0  0  0  0  0  0  0  0  0  0  0
    2.0696    1.1212   15.0900 C   0  0  0  0  0  0  0  0  0  0  0  0
    1.8324    0.5391   16.3348 C   0  0  0  0  0  0  0  0  0  0  0  0
    0.5886   -0.0199   16.6142 C   0  0  0  0  0  0  0  0  0  0  0  0
   -0.4230    0.0070   15.6521 C   0  0  0  0  0  0  0  0  0  0  0  0
 16 17  1  0
  1 17  1  0
  1  2  1  0
  2 18  1  0
 18 19  1  0
  2  3  1  0
  3  4  1  0
  3  5  1  0
  5  6  1  0
  6  7  1  0
  7 20  1  0
 20 21  1  0
 21 22  1  0
 22 23  2  0
 23 24  1  0
 24 25  2  0
 25 26  1  0
 26 27  2  0
  7  8  2  0
  8  9  1  0
  9 10  1  0
 10 13  1  0
 13 14  1  0
 10  1  1  0
  9  5  2  0
 27 22  1  0
  4 11  1  0
  6 12  1  0
 14 15  1  0
M  CHG 1   9   1
M  END
> <minimizedAffinity>
-6.81014

> <CNNscore>
0.4868392050

> <CNNaffinity>
5.5290336609

> <CNN_VS>
2.6917502880

> <CNNaffinity_variance>
0.1275153607

$$$$



 27 29  0  0  0  0  0  0  0  0999 V2000
   -2.9034    5.6809   16.3724 C   0  0  0  0  0  0  0  0  0  0  0  0
   -2.1724    5.1895   17.6473 C   0  0  0  0  0  0  0  0  0  0  0  0
   -1.0581    4.1699   17.3093 C   0  0  0  0  0  0  0  0  0  0  0  0
   -1.4928    2.8095   17.3931 O   0  0  0  0  0  0  0  0  0  0  0  0
   -0.4449    4.4110   15.9482 C   0  0  0  0  0  0  0  0  0  0  0  0
    0.5054    3.6848   15.3405 N   0  0  0  0  0  0  0  0  0  0  0  0
    0.7924    4.1778   14.0785 C   0  0  0  0  0  0  0  0  0  0  0  0
   -0.0373    5.2625   13.9246 C   0  0  0  0  0  0  0  0  0  0  0  0
   -0.7877    5.3769   15.0804 N   0  0  0  0  0  0  0  0  0  0  0  0
   -1.9190    6.2965   15.3336 C   0  0  0  0  0  0  0  0  0  0  0  0
   -2.1701    2.6443   16.7186 H   0  0  0  0  0  0  0  0  0  0  0  0
    0.9438    2.8997   15.7414 H   0  0  0  0  0  0  0  0  0  0  0  0
   -1.4278    7.7139   15.6838 C   0  0  0  0  0  0  0  0  0  0  0  0
   -1.6676    8.6089   14.6048 O   0  0  0  0  0  0  0  0  0  0  0  0
   -1.1880    8.3037   13.8189 H   0  0  0  0  0  0  0  0  0  0  0  0
   -3.9259    4.8048   14.3882 C   0  0  0  0  0  0  0  0  0  0  0  0
   -3.5470    4.5563   15.7379 O   0  0  0  0  0  0  0  0  0  0  0  0
   -1.5587    6.2751   18.3582 O   0  0  0  0  0  0  0  0  0  0  0  0
   -0.4711    5.8719   19.1864 C   0  0  0  0  0  0  0  0  0  0  0  0
    1.7791    3.5653   13.1624 C   0  0  0  0  0  0  0  0  0  0  0  0
    2.2230    2.1863   13.6484 C   0  0  0  0  0  0  0  0  0  0  0  0
    2.1450    1.1504   12.5559 C   0  0  0  0  0  0  0  0  0  0  0  0
    0.9150    0.5856   12.1888 C   0  0  0  0  0  0  0  0  0  0  0  0
    0.8499   -0.3619   11.1663 C   0  0  0  0  0  0  0  0  0  0  0  0
    2.0117   -0.7594   10.5055 C   0  0  0  0  0  0  0  0  0  0  0  0
    3.2389   -0.2121   10.8688 C   0  0  0  0  0  0  0  0  0  0  0  0
    3.3068    0.7383   11.8894 C   0  0  0  0  0  0  0  0  0  0  0  0
 16 17  1  0
  1 17  1  0
  1  2  1  0
  2 18  1  0
 18 19  1  0
  2  3  1  0
  3  4  1  0
  3  5  1  0
  5  6  1  0
  6  7  1  0
  7 20  1  0
 20 21  1  0
 21 22  1  0
 22 23  2  0
 23 24  1  0
 24 25  2  0
 25 26  1  0
 26 27  2  0
  7  8  2  0
  8  9  1  0
  9 10  1  0
 10 13  1  0
 13 14  1  0
 10  1  1  0
  9  5  2  0
 27 22  1  0
  4 11  1  0
  6 12  1  0
 14 15  1  0
M  CHG 1   9   1
M  END
> <minimizedAffinity>
-6.69011

> <CNNscore>
0.4032979012

> <CNNaffinity>
4.8648247719

> <CNN_VS>
1.9619736671

> <CNNaffinity_variance>
0.4870213270

$$$$



 27 29  0  0  0  0  0  0  0  0999 V2000
   -3.0199    6.1510   15.3381 C   0  0  0  0  0  0  0  0  0  0  0  0
   -2.3037    6.7484   16.5756 C   0  0  0  0  0  0  0  0  0  0  0  0
   -1.1033    5.8767   17.0167 C   0  0  0  0  0  0  0  0  0  0  0  0
   -1.4369    4.9302   18.0364 O   0  0  0  0  0  0  0  0  0  0  0  0
   -0.4578    5.1499   15.8583 C   0  0  0  0  0  0  0  0  0  0  0  0
    0.5674    4.2860   15.9057 N   0  0  0  0  0  0  0  0  0  0  0  0
    0.8651    3.7813   14.6508 C   0  0  0  0  0  0  0  0  0  0  0  0
   -0.0377    4.3798   13.8049 C   0  0  0  0  0  0  0  0  0  0  0  0
   -0.8387    5.2058   14.5716 N   0  0  0  0  0  0  0  0  0  0  0  0
   -2.0453    5.9459   14.1400 C   0  0  0  0  0  0  0  0  0  0  0  0
   -2.0732    4.2876   17.6854 H   0  0  0  0  0  0  0  0  0  0  0  0
    1.0480    4.0414   16.7294 H   0  0  0  0  0  0  0  0  0  0  0  0
   -1.6765    7.2399   13.3901 C   0  0  0  0  0  0  0  0  0  0  0  0
   -1.2691    6.9495   12.0588 O   0  0  0  0  0  0  0  0  0  0  0  0
   -0.4891    6.3733   12.0778 H   0  0  0  0  0  0  0  0  0  0  0  0
   -3.8410    4.0389   14.5540 C   0  0  0  0  0  0  0  0  0  0  0  0
   -3.5516    4.8553   15.6840 O   0  0  0  0  0  0  0  0  0  0  0  0
   -1.8018    8.0672   16.3124 O   0  0  0  0  0  0  0  0  0  0  0  0
   -2.8251    9.0273   16.0621 C   0  0  0  0  0  0  0  0  0  0  0  0
    1.9299    2.7865   14.3970 C   0  0  0  0  0  0  0  0  0  0  0  0
    1.3698    1.3675   14.3094 C   0  0  0  0  0  0  0  0  0  0  0  0
    2.1077    0.5308   13.2954 C   0  0  0  0  0  0  0  0  0  0  0  0
    2.1473   -0.8663   13.4100 C   0  0  0  0  0  0  0  0  0  0  0  0
    2.8203   -1.6343   12.4587 C   0  0  0  0  0  0  0  0  0  0  0  0
    3.4654   -1.0152   11.3886 C   0  0  0  0  0  0  0  0  0  0  0  0
    3.4403    0.3716   11.2711 C   0  0  0  0  0  0  0  0  0  0  0  0
    2.7652    1.1424   12.2196 C   0  0  0  0  0  0  0  0  0  0  0  0
 16 17  1  0
  1 17  1  0
  1  2  1  0
  2 18  1  0
 18 19  1  0
  2  3  1  0
  3  4  1  0
  3  5  1  0
  5  6  1  0
  6  7  1  0
  7 20  1  0
 20 21  1  0
 21 22  1  0
 22 23  2  0
 23 24  1  0
 24 25  2  0
 25 26  1  0
 26 27  2  0
  7  8  2  0
  8  9  1  0
  9 10  1  0
 10 13  1  0
 13 14  1  0
 10  1  1  0
  9  5  2  0
 27 22  1  0
  4 11  1  0
  6 12  1  0
 14 15  1  0
M  CHG 1   9   1
M  END
> <minimizedAffinity>
-6.77007

> <CNNscore>
0.3517214358

> <CNNaffinity>
4.8473935127

> <CNN_VS>
1.7049322128

> <CNNaffinity_variance>
0.2111973017

$$$$



 27 29  0  0  0  0  0  0  0  0999 V2000
   -2.1319    4.6703   16.2393 C   0  0  0  0  0  0  0  0  0  0  0  0
   -0.8550    5.3089   16.8419 C   0  0  0  0  0  0  0  0  0  0  0  0
   -0.0829    6.1424   15.7909 C   0  0  0  0  0  0  0  0  0  0  0  0
    0.9534    5.4051   15.1356 O   0  0  0  0  0  0  0  0  0  0  0  0
   -0.9948    6.7487   14.7480 C   0  0  0  0  0  0  0  0  0  0  0  0
   -0.6416    7.4822   13.6817 N   0  0  0  0  0  0  0  0  0  0  0  0
   -1.7431    7.8338   12.9193 C   0  0  0  0  0  0  0  0  0  0  0  0
   -2.8172    7.2755   13.5701 C   0  0  0  0  0  0  0  0  0  0  0  0
   -2.3291    6.6120   14.6807 N   0  0  0  0  0  0  0  0  0  0  0  0
   -3.0777    5.7358   15.6089 C   0  0  0  0  0  0  0  0  0  0  0  0
    0.5601    4.6856   14.6172 H   0  0  0  0  0  0  0  0  0  0  0  0
    0.2846    7.7384   13.4678 H   0  0  0  0  0  0  0  0  0  0  0  0
   -3.8855    6.5559   16.6325 C   0  0  0  0  0  0  0  0  0  0  0  0
   -4.6782    5.7009   17.4470 O   0  0  0  0  0  0  0  0  0  0  0  0
   -5.3004    5.2085   16.8892 H   0  0  0  0  0  0  0  0  0  0  0  0
   -2.8482    3.0600   14.6133 C   0  0  0  0  0  0  0  0  0  0  0  0
   -1.7495    3.7610   15.1866 O   0  0  0  0  0  0  0  0  0  0  0  0
   -1.1657    6.1826   17.9376 O   0  0  0  0  0  0  0  0  0  0  0  0
   -0.5489    5.8004   19.1643 C   0  0  0  0  0  0  0  0  0  0  0  0
   -1.6595    8.6188   11.6685 C   0  0  0  0  0  0  0  0  0  0  0  0
   -0.2456    8.6116   11.0890 C   0  0  0  0  0  0  0  0  0  0  0  0
    0.1115    7.2760   10.4877 C   0  0  0  0  0  0  0  0  0  0  0  0
    1.2797    6.6038   10.8750 C   0  0  0  0  0  0  0  0  0  0  0  0
    1.5951    5.3609   10.3240 C   0  0  0  0  0  0  0  0  0  0  0  0
    0.7517    4.7809    9.3771 C   0  0  0  0  0  0  0  0  0  0  0  0
   -0.4053    5.4444    8.9787 C   0  0  0  0  0  0  0  0  0  0  0  0
   -0.7250    6.6866    9.5304 C   0  0  0  0  0  0  0  0  0  0  0  0
 16 17  1  0
  1 17  1  0
  1  2  1  0
  2 18  1  0
 18 19  1  0
  2  3  1  0
  3  4  1  0
  3  5  1  0
  5  6  1  0
  6  7  1  0
  7 20  1  0
 20 21  1  0
 21 22  1  0
 22 23  2  0
 23 24  1  0
 24 25  2  0
 25 26  1  0
 26 27  2  0
  7  8  2  0
  8  9  1  0
  9 10  1  0
 10 13  1  0
 13 14  1  0
 10  1  1  0
  9  5  2  0
 27 22  1  0
  4 11  1  0
  6 12  1  0
 14 15  1  0
M  CHG 1   9   1
M  END
> <minimizedAffinity>
-7.94068

> <CNNscore>
0.3424274623

> <CNNaffinity>
5.1700472832

> <CNN_VS>
1.7703661919

> <CNNaffinity_variance>
0.9006400704

$$$$
