


 29 30  0  0  0  0  0  0  0  0999 V2000
    8.6498   33.7545   73.9638 C   0  0  0  0  0  0  0  0  0  0  0  0
    8.0872   32.4972   74.1426 C   0  0  0  0  0  0  0  0  0  0  0  0
    8.9785   31.2886   73.3104 S   0  0  0  0  0  0  0  0  0  0  0  0
   10.2034   32.3835   72.8650 C   0  0  0  0  0  0  0  0  0  0  0  0
    9.9225   33.6650   73.2885 C   0  0  0  0  0  0  0  0  0  0  0  0
   10.9478   35.0228   73.0153 Cl  0  0  0  0  0  0  0  0  0  0  0  0
    6.9371   32.0633   74.8982 C   0  0  0  0  0  0  0  0  0  0  0  0
    6.9002   31.6210   76.0381 O   0  0  0  0  0  0  0  0  0  0  0  0
    5.7806   32.2231   74.2184 O   0  0  0  0  0  0  0  0  0  0  0  0
    5.7937   32.5608   73.3445 H   0  0  0  0  0  0  0  0  0  0  0  0
    8.0856   34.9492   74.4659 N   0  0  0  0  0  0  0  0  0  0  0  0
    6.9358   35.4321   73.8247 C   0  0  0  0  0  0  0  0  0  0  0  0
    6.4844   34.8980   72.7997 O   0  0  0  0  0  0  0  0  0  0  0  0
    6.2049   36.6710   74.3609 C   0  0  0  0  0  0  0  0  0  0  0  0
    5.8714   36.6171   75.8532 C   0  0  0  0  0  0  0  0  0  0  0  0
    4.9780   37.7929   76.2532 C   0  0  0  0  0  0  0  0  0  0  0  0
    5.6091   39.1395   75.8666 C   0  0  0  0  0  0  0  0  0  0  0  0
    4.6776   40.2942   76.2305 C   0  0  0  0  0  0  0  0  0  0  0  0
    5.9612   39.1790   74.3717 C   0  0  0  0  0  0  0  0  0  0  0  0
    6.8520   38.0018   73.9700 C   0  0  0  0  0  0  0  0  0  0  0  0
    8.8712   34.4502   76.7068 C   0  0  0  0  0  0  0  0  0  0  0  0
    8.5356   35.4740   75.7150 N   0  0  0  0  0  0  0  0  0  0  0  0
    9.6125   36.4547   75.5956 C   0  0  0  0  0  0  0  0  0  0  0  0
   11.3607   31.9744   72.1363 C   0  0  0  0  0  0  0  0  0  0  0  0
   12.3315   31.6281   71.5192 C   0  0  0  0  0  0  0  0  0  0  0  0
   13.5225   31.2010   70.7524 C   0  0  0  0  0  0  0  0  0  0  0  0
   13.2782   31.4418   69.2562 C   0  0  0  0  0  0  0  0  0  0  0  0
   13.7764   29.7070   70.9976 C   0  0  0  0  0  0  0  0  0  0  0  0
   14.7421   32.0121   71.2114 C   0  0  0  0  0  0  0  0  0  0  0  0
 21 22  1  0
 22 23  1  0
 22 11  1  0
 11  1  1  0
  1  2  2  0
  2  7  1  0
  7  8  2  0
  7  9  1  0
  2  3  1  0
  3  4  1  0
  4 24  1  0
 24 25  3  0
 25 26  1  0
 26 27  1  0
 26 28  1  0
 26 29  1  0
  4  5  2  0
  5  6  1  0
 11 12  1  0
 12 13  2  0
 14 12  1  0
 14 15  1  0
 15 16  1  0
 16 17  1  0
 17 18  1  0
 17 19  1  0
 19 20  1  0
  5  1  1  0
 20 14  1  0
  9 10  1  0
M  END
> <minimizedAffinity>
-5.82143

> <CNNscore>
0.7002065778

> <CNNaffinity>
6.6023278236

> <CNN_VS>
4.6229934692

> <CNNaffinity_variance>
0.0379086062

$$$$



 29 30  0  0  0  0  0  0  0  0999 V2000
    7.2996   32.0713   73.8599 C   0  0  0  0  0  0  0  0  0  0  0  0
    7.5863   33.4265   73.9625 C   0  0  0  0  0  0  0  0  0  0  0  0
    9.1143   33.7969   73.2727 S   0  0  0  0  0  0  0  0  0  0  0  0
    9.3205   32.2151   72.6784 C   0  0  0  0  0  0  0  0  0  0  0  0
    8.2756   31.3923   73.0412 C   0  0  0  0  0  0  0  0  0  0  0  0
    8.1549   29.7294   72.6058 Cl  0  0  0  0  0  0  0  0  0  0  0  0
    6.8297   34.5246   74.5136 C   0  0  0  0  0  0  0  0  0  0  0  0
    5.8579   34.4806   75.2551 O   0  0  0  0  0  0  0  0  0  0  0  0
    7.3288   35.7281   74.1562 O   0  0  0  0  0  0  0  0  0  0  0  0
    8.0728   35.7771   73.5889 H   0  0  0  0  0  0  0  0  0  0  0  0
    6.1477   31.4654   74.4112 N   0  0  0  0  0  0  0  0  0  0  0  0
    5.0229   31.3569   73.5811 C   0  0  0  0  0  0  0  0  0  0  0  0
    4.9961   31.8573   72.4459 O   0  0  0  0  0  0  0  0  0  0  0  0
    3.7608   30.6306   74.0672 C   0  0  0  0  0  0  0  0  0  0  0  0
    3.7581   29.1214   73.8149 C   0  0  0  0  0  0  0  0  0  0  0  0
    2.3926   28.5172   74.1484 C   0  0  0  0  0  0  0  0  0  0  0  0
    1.9643   28.8475   75.5866 C   0  0  0  0  0  0  0  0  0  0  0  0
    0.5779   28.2768   75.8793 C   0  0  0  0  0  0  0  0  0  0  0  0
    1.9899   30.3627   75.8395 C   0  0  0  0  0  0  0  0  0  0  0  0
    3.3540   30.9684   75.5034 C   0  0  0  0  0  0  0  0  0  0  0  0
    6.8706   29.4658   75.5803 C   0  0  0  0  0  0  0  0  0  0  0  0
    6.2370   30.7833   75.6623 N   0  0  0  0  0  0  0  0  0  0  0  0
    6.8310   31.5800   76.7338 C   0  0  0  0  0  0  0  0  0  0  0  0
   10.4593   31.8356   71.9059 C   0  0  0  0  0  0  0  0  0  0  0  0
   11.4144   31.5150   71.2516 C   0  0  0  0  0  0  0  0  0  0  0  0
   12.5862   31.1208   70.4389 C   0  0  0  0  0  0  0  0  0  0  0  0
   13.0749   29.7367   70.8877 C   0  0  0  0  0  0  0  0  0  0  0  0
   13.7088   32.1498   70.6326 C   0  0  0  0  0  0  0  0  0  0  0  0
   12.1854   31.0695   68.9581 C   0  0  0  0  0  0  0  0  0  0  0  0
 21 22  1  0
 22 23  1  0
 22 11  1  0
 11  1  1  0
  1  2  2  0
  2  7  1  0
  7  8  2  0
  7  9  1  0
  2  3  1  0
  3  4  1  0
  4 24  1  0
 24 25  3  0
 25 26  1  0
 26 27  1  0
 26 28  1  0
 26 29  1  0
  4  5  2  0
  5  6  1  0
 11 12  1  0
 12 13  2  0
 14 12  1  0
 14 15  1  0
 15 16  1  0
 16 17  1  0
 17 18  1  0
 17 19  1  0
 19 20  1  0
  5  1  1  0
 20 14  1  0
  9 10  1  0
M  END
> <minimizedAffinity>
-4.58657

> <CNNscore>
0.5718615055

> <CNNaffinity>
5.7073802948

> <CNN_VS>
3.2638311386

> <CNNaffinity_variance>
0.0104899509

$$$$



 29 30  0  0  0  0  0  0  0  0999 V2000
    5.4176   32.9424   75.7780 C   0  0  0  0  0  0  0  0  0  0  0  0
    4.2761   33.0838   76.5565 C   0  0  0  0  0  0  0  0  0  0  0  0
    3.3429   31.6428   76.5666 S   0  0  0  0  0  0  0  0  0  0  0  0
    4.5237   30.7756   75.6997 C   0  0  0  0  0  0  0  0  0  0  0  0
    5.5923   31.5742   75.3523 C   0  0  0  0  0  0  0  0  0  0  0  0
    6.9696   31.0231   74.4755 Cl  0  0  0  0  0  0  0  0  0  0  0  0
    3.7833   34.1922   77.3381 C   0  0  0  0  0  0  0  0  0  0  0  0
    3.2198   35.2053   76.9478 O   0  0  0  0  0  0  0  0  0  0  0  0
    3.9664   34.0124   78.6645 O   0  0  0  0  0  0  0  0  0  0  0  0
    4.3964   33.2411   78.9777 H   0  0  0  0  0  0  0  0  0  0  0  0
    6.3317   33.9896   75.5218 N   0  0  0  0  0  0  0  0  0  0  0  0
    6.1305   34.7432   74.3565 C   0  0  0  0  0  0  0  0  0  0  0  0
    5.2536   34.4488   73.5295 O   0  0  0  0  0  0  0  0  0  0  0  0
    7.0193   35.9563   74.0479 C   0  0  0  0  0  0  0  0  0  0  0  0
    8.4329   35.6066   73.5782 C   0  0  0  0  0  0  0  0  0  0  0  0
    9.3011   36.8629   73.4855 C   0  0  0  0  0  0  0  0  0  0  0  0
    8.6577   37.9296   72.5860 C   0  0  0  0  0  0  0  0  0  0  0  0
    9.5174   39.1917   72.5491 C   0  0  0  0  0  0  0  0  0  0  0  0
    7.2310   38.2604   73.0502 C   0  0  0  0  0  0  0  0  0  0  0  0
    6.3629   37.0043   73.1462 C   0  0  0  0  0  0  0  0  0  0  0  0
    6.8158   35.5732   77.2954 C   0  0  0  0  0  0  0  0  0  0  0  0
    7.2467   34.3952   76.5399 N   0  0  0  0  0  0  0  0  0  0  0  0
    7.6496   33.3181   77.4418 C   0  0  0  0  0  0  0  0  0  0  0  0
    4.3753   29.3899   75.3908 C   0  0  0  0  0  0  0  0  0  0  0  0
    4.2450   28.2242   75.1311 C   0  0  0  0  0  0  0  0  0  0  0  0
    4.0768   26.7900   74.8091 C   0  0  0  0  0  0  0  0  0  0  0  0
    2.8041   26.2620   75.4858 C   0  0  0  0  0  0  0  0  0  0  0  0
    5.2938   26.0074   75.3218 C   0  0  0  0  0  0  0  0  0  0  0  0
    3.9591   26.6195   73.2882 C   0  0  0  0  0  0  0  0  0  0  0  0
 21 22  1  0
 22 23  1  0
 22 11  1  0
 11  1  1  0
  1  2  2  0
  2  7  1  0
  7  8  2  0
  7  9  1  0
  2  3  1  0
  3  4  1  0
  4 24  1  0
 24 25  3  0
 25 26  1  0
 26 27  1  0
 26 28  1  0
 26 29  1  0
  4  5  2  0
  5  6  1  0
 11 12  1  0
 12 13  2  0
 14 12  1  0
 14 15  1  0
 15 16  1  0
 16 17  1  0
 17 18  1  0
 17 19  1  0
 19 20  1  0
  5  1  1  0
 20 14  1  0
  9 10  1  0
M  END
> <minimizedAffinity>
-4.61735

> <CNNscore>
0.5600484610

> <CNNaffinity>
5.3780117035

> <CNN_VS>
3.0119471550

> <CNNaffinity_variance>
0.0363360420

$$$$



 29 30  0  0  0  0  0  0  0  0999 V2000
    6.4968   33.5022   76.2877 C   0  0  0  0  0  0  0  0  0  0  0  0
    5.2131   32.9718   76.2799 C   0  0  0  0  0  0  0  0  0  0  0  0
    4.8999   32.0698   77.7067 S   0  0  0  0  0  0  0  0  0  0  0  0
    6.3793   32.5239   78.4160 C   0  0  0  0  0  0  0  0  0  0  0  0
    7.1351   33.3042   77.5672 C   0  0  0  0  0  0  0  0  0  0  0  0
    8.6851   33.9452   77.9622 Cl  0  0  0  0  0  0  0  0  0  0  0  0
    4.1437   33.0708   75.3162 C   0  0  0  0  0  0  0  0  0  0  0  0
    3.1370   33.7637   75.3676 O   0  0  0  0  0  0  0  0  0  0  0  0
    4.3570   32.3027   74.2254 O   0  0  0  0  0  0  0  0  0  0  0  0
    5.1238   31.7668   74.1724 H   0  0  0  0  0  0  0  0  0  0  0  0
    7.0585   34.2228   75.2092 N   0  0  0  0  0  0  0  0  0  0  0  0
    7.0409   35.6221   75.2968 C   0  0  0  0  0  0  0  0  0  0  0  0
    6.4705   36.2128   76.2271 O   0  0  0  0  0  0  0  0  0  0  0  0
    7.7113   36.4808   74.2152 C   0  0  0  0  0  0  0  0  0  0  0  0
    6.8684   37.6601   73.7257 C   0  0  0  0  0  0  0  0  0  0  0  0
    7.5266   38.3355   72.5210 C   0  0  0  0  0  0  0  0  0  0  0  0
    8.9684   38.7660   72.8321 C   0  0  0  0  0  0  0  0  0  0  0  0
    9.6204   39.3917   71.6005 C   0  0  0  0  0  0  0  0  0  0  0  0
    9.8033   37.5819   73.3433 C   0  0  0  0  0  0  0  0  0  0  0  0
    9.1444   36.9040   74.5462 C   0  0  0  0  0  0  0  0  0  0  0  0
    8.3427   32.2384   74.6604 C   0  0  0  0  0  0  0  0  0  0  0  0
    7.8213   33.5334   74.2185 N   0  0  0  0  0  0  0  0  0  0  0  0
    7.1472   33.4093   72.9277 C   0  0  0  0  0  0  0  0  0  0  0  0
    6.7482   32.1154   79.7331 C   0  0  0  0  0  0  0  0  0  0  0  0
    7.0534   31.7708   80.8427 C   0  0  0  0  0  0  0  0  0  0  0  0
    7.4219   31.3430   82.2102 C   0  0  0  0  0  0  0  0  0  0  0  0
    8.4474   32.3257   82.7923 C   0  0  0  0  0  0  0  0  0  0  0  0
    8.0323   29.9356   82.1556 C   0  0  0  0  0  0  0  0  0  0  0  0
    6.1671   31.3254   83.0942 C   0  0  0  0  0  0  0  0  0  0  0  0
 21 22  1  0
 22 23  1  0
 22 11  1  0
 11  1  1  0
  1  2  2  0
  2  7  1  0
  7  8  2  0
  7  9  1  0
  2  3  1  0
  3  4  1  0
  4 24  1  0
 24 25  3  0
 25 26  1  0
 26 27  1  0
 26 28  1  0
 26 29  1  0
  4  5  2  0
  5  6  1  0
 11 12  1  0
 12 13  2  0
 14 12  1  0
 14 15  1  0
 15 16  1  0
 16 17  1  0
 17 18  1  0
 17 19  1  0
 19 20  1  0
  5  1  1  0
 20 14  1  0
  9 10  1  0
M  END
> <minimizedAffinity>
-5.51452

> <CNNscore>
0.5146495104

> <CNNaffinity>
5.5319652557

> <CNN_VS>
2.8470232487

> <CNNaffinity_variance>
0.0315349065

$$$$



 29 30  0  0  0  0  0  0  0  0999 V2000
    6.6875   34.0110   76.5055 C   0  0  0  0  0  0  0  0  0  0  0  0
    5.5027   33.3474   76.2140 C   0  0  0  0  0  0  0  0  0  0  0  0
    5.3072   31.9541   77.1981 S   0  0  0  0  0  0  0  0  0  0  0  0
    6.6840   32.3195   78.1301 C   0  0  0  0  0  0  0  0  0  0  0  0
    7.3247   33.4517   77.6738 C   0  0  0  0  0  0  0  0  0  0  0  0
    8.7480   34.1132   78.3851 Cl  0  0  0  0  0  0  0  0  0  0  0  0
    4.4493   33.6409   75.2726 C   0  0  0  0  0  0  0  0  0  0  0  0
    3.2961   33.9768   75.5039 O   0  0  0  0  0  0  0  0  0  0  0  0
    4.8614   33.5488   73.9893 O   0  0  0  0  0  0  0  0  0  0  0  0
    5.7420   33.2927   73.7972 H   0  0  0  0  0  0  0  0  0  0  0  0
    7.1503   35.1448   75.7996 N   0  0  0  0  0  0  0  0  0  0  0  0
    7.7462   34.9209   74.5502 C   0  0  0  0  0  0  0  0  0  0  0  0
    7.9539   33.7759   74.1196 O   0  0  0  0  0  0  0  0  0  0  0  0
    8.1928   36.1007   73.6755 C   0  0  0  0  0  0  0  0  0  0  0  0
    7.1156   37.1612   73.4388 C   0  0  0  0  0  0  0  0  0  0  0  0
    7.5820   38.1883   72.4053 C   0  0  0  0  0  0  0  0  0  0  0  0
    8.9206   38.8268   72.8070 C   0  0  0  0  0  0  0  0  0  0  0  0
    9.3897   39.8107   71.7368 C   0  0  0  0  0  0  0  0  0  0  0  0
    9.9917   37.7557   73.0639 C   0  0  0  0  0  0  0  0  0  0  0  0
    9.5250   36.7263   74.0950 C   0  0  0  0  0  0  0  0  0  0  0  0
    5.4199   36.5508   76.7572 C   0  0  0  0  0  0  0  0  0  0  0  0
    6.7882   36.4520   76.2450 N   0  0  0  0  0  0  0  0  0  0  0  0
    7.7385   37.0460   77.1831 C   0  0  0  0  0  0  0  0  0  0  0  0
    7.0872   31.5153   79.2384 C   0  0  0  0  0  0  0  0  0  0  0  0
    7.4217   30.8361   80.1712 C   0  0  0  0  0  0  0  0  0  0  0  0
    7.8273   29.9945   81.3184 C   0  0  0  0  0  0  0  0  0  0  0  0
    9.3004   29.5931   81.1599 C   0  0  0  0  0  0  0  0  0  0  0  0
    6.9526   28.7337   81.3588 C   0  0  0  0  0  0  0  0  0  0  0  0
    7.6475   30.7871   82.6206 C   0  0  0  0  0  0  0  0  0  0  0  0
 21 22  1  0
 22 23  1  0
 22 11  1  0
 11  1  1  0
  1  2  2  0
  2  7  1  0
  7  8  2  0
  7  9  1  0
  2  3  1  0
  3  4  1  0
  4 24  1  0
 24 25  3  0
 25 26  1  0
 26 27  1  0
 26 28  1  0
 26 29  1  0
  4  5  2  0
  5  6  1  0
 11 12  1  0
 12 13  2  0
 14 12  1  0
 14 15  1  0
 15 16  1  0
 16 17  1  0
 17 18  1  0
 17 19  1  0
 19 20  1  0
  5  1  1  0
 20 14  1  0
  9 10  1  0
M  END
> <minimizedAffinity>
-5.67199

> <CNNscore>
0.4597447515

> <CNNaffinity>
5.6020865440

> <CNN_VS>
2.5755298138

> <CNNaffinity_variance>
0.0432727151

$$$$



 29 30  0  0  0  0  0  0  0  0999 V2000
    6.7352   34.7004   77.2404 C   0  0  0  0  0  0  0  0  0  0  0  0
    5.4873   34.9330   77.8039 C   0  0  0  0  0  0  0  0  0  0  0  0
    4.9397   33.5721   78.6960 S   0  0  0  0  0  0  0  0  0  0  0  0
    6.4143   32.7455   78.4958 C   0  0  0  0  0  0  0  0  0  0  0  0
    7.2989   33.4593   77.7156 C   0  0  0  0  0  0  0  0  0  0  0  0
    8.8868   32.9244   77.3137 Cl  0  0  0  0  0  0  0  0  0  0  0  0
    4.6267   36.0910   77.7762 C   0  0  0  0  0  0  0  0  0  0  0  0
    4.3037   36.7740   76.8143 O   0  0  0  0  0  0  0  0  0  0  0  0
    4.1173   36.3867   78.9921 O   0  0  0  0  0  0  0  0  0  0  0  0
    4.3560   35.8721   79.7378 H   0  0  0  0  0  0  0  0  0  0  0  0
    7.3976   35.6126   76.3877 N   0  0  0  0  0  0  0  0  0  0  0  0
    7.2993   35.3848   75.0076 C   0  0  0  0  0  0  0  0  0  0  0  0
    6.7433   34.3749   74.5486 O   0  0  0  0  0  0  0  0  0  0  0  0
    7.9094   36.3764   74.0071 C   0  0  0  0  0  0  0  0  0  0  0  0
    7.0902   37.6511   73.7944 C   0  0  0  0  0  0  0  0  0  0  0  0
    7.6662   38.4819   72.6460 C   0  0  0  0  0  0  0  0  0  0  0  0
    9.1530   38.7998   72.8685 C   0  0  0  0  0  0  0  0  0  0  0  0
    9.7175   39.5861   71.6868 C   0  0  0  0  0  0  0  0  0  0  0  0
    9.9660   37.5174   73.1028 C   0  0  0  0  0  0  0  0  0  0  0  0
    9.3889   36.6844   74.2489 C   0  0  0  0  0  0  0  0  0  0  0  0
    9.3778   36.9223   76.8891 C   0  0  0  0  0  0  0  0  0  0  0  0
    7.9167   36.8309   76.9213 N   0  0  0  0  0  0  0  0  0  0  0  0
    7.3080   38.0345   76.3586 C   0  0  0  0  0  0  0  0  0  0  0  0
    6.6546   31.4663   79.0821 C   0  0  0  0  0  0  0  0  0  0  0  0
    6.8596   30.3883   79.5711 C   0  0  0  0  0  0  0  0  0  0  0  0
    7.1181   29.0595   80.1679 C   0  0  0  0  0  0  0  0  0  0  0  0
    6.0043   28.7259   81.1700 C   0  0  0  0  0  0  0  0  0  0  0  0
    8.4713   29.0819   80.8924 C   0  0  0  0  0  0  0  0  0  0  0  0
    7.1462   27.9992   79.0584 C   0  0  0  0  0  0  0  0  0  0  0  0
 21 22  1  0
 22 23  1  0
 22 11  1  0
 11  1  1  0
  1  2  2  0
  2  7  1  0
  7  8  2  0
  7  9  1  0
  2  3  1  0
  3  4  1  0
  4 24  1  0
 24 25  3  0
 25 26  1  0
 26 27  1  0
 26 28  1  0
 26 29  1  0
  4  5  2  0
  5  6  1  0
 11 12  1  0
 12 13  2  0
 14 12  1  0
 14 15  1  0
 15 16  1  0
 16 17  1  0
 17 18  1  0
 17 19  1  0
 19 20  1  0
  5  1  1  0
 20 14  1  0
  9 10  1  0
M  END
> <minimizedAffinity>
-5.14137

> <CNNscore>
0.4316126406

> <CNNaffinity>
5.5124239922

> <CNN_VS>
2.3792319298

> <CNNaffinity_variance>
0.0265371129

$$$$



 29 30  0  0  0  0  0  0  0  0999 V2000
   11.5831   30.9664   72.1752 C   0  0  0  0  0  0  0  0  0  0  0  0
   10.6133   30.0354   72.5241 C   0  0  0  0  0  0  0  0  0  0  0  0
    9.2936   30.7790   73.3322 S   0  0  0  0  0  0  0  0  0  0  0  0
    9.9068   32.3444   73.0651 C   0  0  0  0  0  0  0  0  0  0  0  0
   11.1255   32.3132   72.4214 C   0  0  0  0  0  0  0  0  0  0  0  0
   12.0291   33.7151   71.9883 Cl  0  0  0  0  0  0  0  0  0  0  0  0
   10.5338   28.6109   72.3075 C   0  0  0  0  0  0  0  0  0  0  0  0
    9.6433   27.8410   72.6398 O   0  0  0  0  0  0  0  0  0  0  0  0
   11.5902   28.1329   71.6143 O   0  0  0  0  0  0  0  0  0  0  0  0
   12.2797   28.7112   71.3532 H   0  0  0  0  0  0  0  0  0  0  0  0
   12.8161   30.6315   71.5708 N   0  0  0  0  0  0  0  0  0  0  0  0
   13.7493   29.9442   72.3600 C   0  0  0  0  0  0  0  0  0  0  0  0
   13.5518   29.7239   73.5651 O   0  0  0  0  0  0  0  0  0  0  0  0
   15.0758   29.4605   71.7576 C   0  0  0  0  0  0  0  0  0  0  0  0
   15.2670   29.8059   70.2793 C   0  0  0  0  0  0  0  0  0  0  0  0
   16.5139   29.1199   69.7178 C   0  0  0  0  0  0  0  0  0  0  0  0
   17.7658   29.4608   70.5411 C   0  0  0  0  0  0  0  0  0  0  0  0
   18.9871   28.7258   69.9919 C   0  0  0  0  0  0  0  0  0  0  0  0
   17.5594   29.1315   72.0275 C   0  0  0  0  0  0  0  0  0  0  0  0
   16.3109   29.8145   72.5891 C   0  0  0  0  0  0  0  0  0  0  0  0
   11.7751   30.4402   69.3873 C   0  0  0  0  0  0  0  0  0  0  0  0
   12.9740   30.7741   70.1590 N   0  0  0  0  0  0  0  0  0  0  0  0
   13.5129   32.0689   69.7478 C   0  0  0  0  0  0  0  0  0  0  0  0
    9.2066   33.5166   73.4815 C   0  0  0  0  0  0  0  0  0  0  0  0
    8.6195   34.5026   73.8369 C   0  0  0  0  0  0  0  0  0  0  0  0
    7.9016   35.7176   74.2811 C   0  0  0  0  0  0  0  0  0  0  0  0
    6.6679   35.9332   73.3935 C   0  0  0  0  0  0  0  0  0  0  0  0
    8.8354   36.9306   74.1666 C   0  0  0  0  0  0  0  0  0  0  0  0
    7.4606   35.5439   75.7411 C   0  0  0  0  0  0  0  0  0  0  0  0
 21 22  1  0
 22 23  1  0
 22 11  1  0
 11  1  1  0
  1  2  2  0
  2  7  1  0
  7  8  2  0
  7  9  1  0
  2  3  1  0
  3  4  1  0
  4 24  1  0
 24 25  3  0
 25 26  1  0
 26 27  1  0
 26 28  1  0
 26 29  1  0
  4  5  2  0
  5  6  1  0
 11 12  1  0
 12 13  2  0
 14 12  1  0
 14 15  1  0
 15 16  1  0
 16 17  1  0
 17 18  1  0
 17 19  1  0
 19 20  1  0
  5  1  1  0
 20 14  1  0
  9 10  1  0
M  END
> <minimizedAffinity>
-6.20189

> <CNNscore>
0.3374549448

> <CNNaffinity>
5.6042270660

> <CNN_VS>
1.8911740780

> <CNNaffinity_variance>
0.7195391059

$$$$



 29 30  0  0  0  0  0  0  0  0999 V2000
    6.2452   32.9698   75.4409 C   0  0  0  0  0  0  0  0  0  0  0  0
    5.0317   32.9878   76.1164 C   0  0  0  0  0  0  0  0  0  0  0  0
    4.8420   31.5932   77.0997 S   0  0  0  0  0  0  0  0  0  0  0  0
    6.4251   31.0541   76.7819 C   0  0  0  0  0  0  0  0  0  0  0  0
    7.0799   31.8840   75.8971 C   0  0  0  0  0  0  0  0  0  0  0  0
    8.6988   31.6426   75.3585 Cl  0  0  0  0  0  0  0  0  0  0  0  0
    3.9634   33.9575   76.1371 C   0  0  0  0  0  0  0  0  0  0  0  0
    3.9382   35.0477   76.6913 O   0  0  0  0  0  0  0  0  0  0  0  0
    2.8968   33.5686   75.4048 O   0  0  0  0  0  0  0  0  0  0  0  0
    2.9023   32.7361   74.9747 H   0  0  0  0  0  0  0  0  0  0  0  0
    6.6379   33.9483   74.4995 N   0  0  0  0  0  0  0  0  0  0  0  0
    7.3089   35.0767   74.9922 C   0  0  0  0  0  0  0  0  0  0  0  0
    7.4667   35.2655   76.2084 O   0  0  0  0  0  0  0  0  0  0  0  0
    7.8524   36.1434   74.0314 C   0  0  0  0  0  0  0  0  0  0  0  0
    6.8857   37.2946   73.7459 C   0  0  0  0  0  0  0  0  0  0  0  0
    7.4286   38.1975   72.6365 C   0  0  0  0  0  0  0  0  0  0  0  0
    8.8370   38.7151   72.9672 C   0  0  0  0  0  0  0  0  0  0  0  0
    9.3771   39.5725   71.8241 C   0  0  0  0  0  0  0  0  0  0  0  0
    9.7970   37.5554   73.2738 C   0  0  0  0  0  0  0  0  0  0  0  0
    9.2536   36.6502   74.3809 C   0  0  0  0  0  0  0  0  0  0  0  0
    7.8368   33.2217   72.5190 C   0  0  0  0  0  0  0  0  0  0  0  0
    6.5667   33.6563   73.1038 N   0  0  0  0  0  0  0  0  0  0  0  0
    5.4871   32.7403   72.7414 C   0  0  0  0  0  0  0  0  0  0  0  0
    6.9614   29.8748   77.3813 C   0  0  0  0  0  0  0  0  0  0  0  0
    7.4177   28.8838   77.8842 C   0  0  0  0  0  0  0  0  0  0  0  0
    7.9872   27.6667   78.5034 C   0  0  0  0  0  0  0  0  0  0  0  0
    6.8597   26.8470   79.1460 C   0  0  0  0  0  0  0  0  0  0  0  0
    9.0051   28.0718   79.5786 C   0  0  0  0  0  0  0  0  0  0  0  0
    8.6848   26.8253   77.4256 C   0  0  0  0  0  0  0  0  0  0  0  0
 21 22  1  0
 22 23  1  0
 22 11  1  0
 11  1  1  0
  1  2  2  0
  2  7  1  0
  7  8  2  0
  7  9  1  0
  2  3  1  0
  3  4  1  0
  4 24  1  0
 24 25  3  0
 25 26  1  0
 26 27  1  0
 26 28  1  0
 26 29  1  0
  4  5  2  0
  5  6  1  0
 11 12  1  0
 12 13  2  0
 14 12  1  0
 14 15  1  0
 15 16  1  0
 16 17  1  0
 17 18  1  0
 17 19  1  0
 19 20  1  0
  5  1  1  0
 20 14  1  0
  9 10  1  0
M  END
> <minimizedAffinity>
-5.64571

> <CNNscore>
0.3136206567

> <CNNaffinity>
5.4762482643

> <CNN_VS>
1.7174645662

> <CNNaffinity_variance>
0.0555808730

$$$$



 29 30  0  0  0  0  0  0  0  0999 V2000
    6.1074   32.6360   74.8326 C   0  0  0  0  0  0  0  0  0  0  0  0
    5.5345   33.8648   75.1344 C   0  0  0  0  0  0  0  0  0  0  0  0
    3.9143   33.6845   75.6732 S   0  0  0  0  0  0  0  0  0  0  0  0
    4.0212   31.9856   75.6843 C   0  0  0  0  0  0  0  0  0  0  0  0
    5.2478   31.5475   75.2326 C   0  0  0  0  0  0  0  0  0  0  0  0
    5.7025   29.8894   75.1173 Cl  0  0  0  0  0  0  0  0  0  0  0  0
    6.0670   35.2051   75.0880 C   0  0  0  0  0  0  0  0  0  0  0  0
    6.4549   35.8346   74.1135 O   0  0  0  0  0  0  0  0  0  0  0  0
    6.0810   35.7990   76.3013 O   0  0  0  0  0  0  0  0  0  0  0  0
    5.7868   35.3288   77.0565 H   0  0  0  0  0  0  0  0  0  0  0  0
    7.4040   32.4825   74.2911 N   0  0  0  0  0  0  0  0  0  0  0  0
    7.5598   32.7409   72.9217 C   0  0  0  0  0  0  0  0  0  0  0  0
    6.5912   32.9954   72.1890 O   0  0  0  0  0  0  0  0  0  0  0  0
    8.9489   32.6887   72.2703 C   0  0  0  0  0  0  0  0  0  0  0  0
   10.0298   33.4775   73.0123 C   0  0  0  0  0  0  0  0  0  0  0  0
   11.3212   33.5319   72.1936 C   0  0  0  0  0  0  0  0  0  0  0  0
   11.8110   32.1252   71.8163 C   0  0  0  0  0  0  0  0  0  0  0  0
   13.0722   32.2072   70.9583 C   0  0  0  0  0  0  0  0  0  0  0  0
   10.7139   31.3313   71.0908 C   0  0  0  0  0  0  0  0  0  0  0  0
    9.4211   31.2789   71.9072 C   0  0  0  0  0  0  0  0  0  0  0  0
    8.4314   33.0997   76.4009 C   0  0  0  0  0  0  0  0  0  0  0  0
    8.5211   32.3193   75.1651 N   0  0  0  0  0  0  0  0  0  0  0  0
    8.8530   30.9256   75.4534 C   0  0  0  0  0  0  0  0  0  0  0  0
    2.9402   31.1586   76.1144 C   0  0  0  0  0  0  0  0  0  0  0  0
    2.0328   30.4582   76.4742 C   0  0  0  0  0  0  0  0  0  0  0  0
    0.9203   29.5891   76.9165 C   0  0  0  0  0  0  0  0  0  0  0  0
   -0.2811   29.7840   75.9811 C   0  0  0  0  0  0  0  0  0  0  0  0
    0.5210   29.9640   78.3505 C   0  0  0  0  0  0  0  0  0  0  0  0
    1.3717   28.1226   76.8750 C   0  0  0  0  0  0  0  0  0  0  0  0
 21 22  1  0
 22 23  1  0
 22 11  1  0
 11  1  1  0
  1  2  2  0
  2  7  1  0
  7  8  2  0
  7  9  1  0
  2  3  1  0
  3  4  1  0
  4 24  1  0
 24 25  3  0
 25 26  1  0
 26 27  1  0
 26 28  1  0
 26 29  1  0
  4  5  2  0
  5  6  1  0
 11 12  1  0
 12 13  2  0
 14 12  1  0
 14 15  1  0
 15 16  1  0
 16 17  1  0
 17 18  1  0
 17 19  1  0
 19 20  1  0
  5  1  1  0
 20 14  1  0
  9 10  1  0
M  END
> <minimizedAffinity>
-4.62782

> <CNNscore>
0.2596522570

> <CNNaffinity>
4.8166279793

> <CNN_VS>
1.2506483793

> <CNNaffinity_variance>
0.1690682620

$$$$
