


 36 37  0  0  0  0  0  0  0  0999 V2000
  -18.9762   54.0279   18.8617 C   0  0  0  0  0  0  0  0  0  0  0  0
  -19.8334   53.5864   17.8377 C   0  0  0  0  0  0  0  0  0  0  0  0
  -20.2125   54.4355   16.7861 C   0  0  0  0  0  0  0  0  0  0  0  0
  -21.0626   53.9973   15.7607 C   0  0  0  0  0  0  0  0  0  0  0  0
  -21.4323   54.8527   14.7179 C   0  0  0  0  0  0  0  0  0  0  0  0
  -20.9540   56.1655   14.6708 C   0  0  0  0  0  0  0  0  0  0  0  0
  -20.1082   56.6068   15.7059 C   0  0  0  0  0  0  0  0  0  0  0  0
  -19.7298   55.7589   16.7608 C   0  0  0  0  0  0  0  0  0  0  0  0
  -18.8888   56.2019   17.7943 C   0  0  0  0  0  0  0  0  0  0  0  0
  -18.5175   55.3487   18.8423 C   0  0  0  0  0  0  0  0  0  0  0  0
  -17.5335   56.0365   20.0863 Cl  0  0  0  0  0  0  0  0  0  0  0  0
  -19.1849   51.7721   19.7789 N   0  0  0  0  0  0  0  0  0  0  0  0
  -18.6444   53.0265   19.9098 C   0  0  0  0  0  0  0  0  0  0  0  0
  -17.9577   53.3563   20.8722 O   0  0  0  0  0  0  0  0  0  0  0  0
  -19.7828   51.5895   19.0183 H   0  0  0  0  0  0  0  0  0  0  0  0
  -18.9041   50.6976   20.7289 C   0  0  0  0  0  0  0  0  0  0  0  0
  -17.8177   51.3525   22.8424 N   0  0  0  0  0  0  0  0  0  0  0  0
  -18.9841   51.3152   22.1365 C   0  0  0  0  0  0  0  0  0  0  0  0
  -20.0181   51.7832   22.6083 O   0  0  0  0  0  0  0  0  0  0  0  0
  -17.8032   51.7355   23.7493 H   0  0  0  0  0  0  0  0  0  0  0  0
  -16.9903   50.9965   22.4451 H   0  0  0  0  0  0  0  0  0  0  0  0
  -17.5274   50.0769   20.4368 C   0  0  0  0  0  0  0  0  0  0  0  0
  -16.5460   50.9582   19.6703 C   0  0  0  0  0  0  0  0  0  0  0  0
  -15.2211   51.0680   20.3668 C   0  0  0  0  0  0  0  0  0  0  0  0
  -15.0639   51.4400   21.5204 O   0  0  0  0  0  0  0  0  0  0  0  0
  -14.1894   50.6629   19.6100 O   0  0  0  0  0  0  0  0  0  0  0  0
  -14.3369   50.3825   18.7282 H   0  0  0  0  0  0  0  0  0  0  0  0
  -21.3331   57.1398   13.5835 C   0  0  0  0  0  0  0  0  0  0  0  0
  -22.6835   57.3490   13.5310 F   0  0  0  0  0  0  0  0  0  0  0  0
  -20.9805   56.6899   12.3433 F   0  0  0  0  0  0  0  0  0  0  0  0
  -20.7339   58.8384   13.5220 P   0  0  0  0  0  0  0  0  0  0  0  0
  -21.6950   59.9728   13.3283 O   0  0  0  0  0  0  0  0  0  0  0  0
  -19.5713   58.9391   12.4043 O   0  0  0  0  0  0  0  0  0  0  0  0
  -19.8424   59.1162   14.8395 O   0  0  0  0  0  0  0  0  0  0  0  0
  -19.9541   58.7910   11.5254 H   0  0  0  0  0  0  0  0  0  0  0  0
  -20.4100   59.0891   15.6256 H   0  0  0  0  0  0  0  0  0  0  0  0
 17 18  1  0
 18 19  2  0
 18 16  1  0
 16 22  1  0
 22 23  1  0
 23 24  1  0
 24 25  2  0
 24 26  1  0
 16 12  1  0
 12 13  1  0
 13 14  2  0
 13  1  1  0
  1  2  2  0
  2  3  1  0
  3  4  2  0
  4  5  1  0
  5  6  2  0
  6 28  1  0
 28 29  1  0
 28 30  1  0
 28 31  1  0
 31 32  2  0
 31 33  1  0
 31 34  1  0
  6  7  1  0
  7  8  2  0
  8  9  1  0
  9 10  2  0
 10 11  1  0
 10  1  1  0
  8  3  1  0
 17 20  1  0
 17 21  1  0
 26 27  1  0
 12 15  1  0
 33 35  1  0
 34 36  1  0
M  END
> <minimizedAffinity>
-8.86529

> <CNNscore>
0.8335325122

> <CNNaffinity>
6.3013286591

> <CNN_VS>
5.2523622513

> <CNNaffinity_variance>
0.2313867062

$$$$



 36 37  0  0  0  0  0  0  0  0999 V2000
  -18.9587   54.4266   19.0099 C   0  0  0  0  0  0  0  0  0  0  0  0
  -19.8307   53.8992   18.0405 C   0  0  0  0  0  0  0  0  0  0  0  0
  -20.2218   54.6530   16.9228 C   0  0  0  0  0  0  0  0  0  0  0  0
  -21.0869   54.1286   15.9517 C   0  0  0  0  0  0  0  0  0  0  0  0
  -21.4684   54.8894   14.8421 C   0  0  0  0  0  0  0  0  0  0  0  0
  -20.9874   56.1911   14.6722 C   0  0  0  0  0  0  0  0  0  0  0  0
  -20.1266   56.7193   15.6527 C   0  0  0  0  0  0  0  0  0  0  0  0
  -19.7361   55.9671   16.7737 C   0  0  0  0  0  0  0  0  0  0  0  0
  -18.8801   56.4968   17.7526 C   0  0  0  0  0  0  0  0  0  0  0  0
  -18.4968   55.7387   18.8672 C   0  0  0  0  0  0  0  0  0  0  0  0
  -17.4944   56.5305   20.0320 Cl  0  0  0  0  0  0  0  0  0  0  0  0
  -17.7648   52.4771   19.8744 N   0  0  0  0  0  0  0  0  0  0  0  0
  -18.6154   53.5209   20.1383 C   0  0  0  0  0  0  0  0  0  0  0  0
  -19.1339   53.6932   21.2375 O   0  0  0  0  0  0  0  0  0  0  0  0
  -17.4350   52.3539   18.9550 H   0  0  0  0  0  0  0  0  0  0  0  0
  -17.3314   51.5418   20.9103 C   0  0  0  0  0  0  0  0  0  0  0  0
  -14.9316   52.0329   20.6349 N   0  0  0  0  0  0  0  0  0  0  0  0
  -15.9095   51.0877   20.5341 C   0  0  0  0  0  0  0  0  0  0  0  0
  -15.6387   49.9389   20.1907 O   0  0  0  0  0  0  0  0  0  0  0  0
  -14.0011   51.8046   20.4084 H   0  0  0  0  0  0  0  0  0  0  0  0
  -15.1561   52.9436   20.9342 H   0  0  0  0  0  0  0  0  0  0  0  0
  -18.3171   50.3652   21.0096 C   0  0  0  0  0  0  0  0  0  0  0  0
  -17.9053   49.0857   20.2881 C   0  0  0  0  0  0  0  0  0  0  0  0
  -18.6552   47.8865   20.7903 C   0  0  0  0  0  0  0  0  0  0  0  0
  -19.8584   47.7099   20.6679 O   0  0  0  0  0  0  0  0  0  0  0  0
  -17.8622   46.9668   21.3619 O   0  0  0  0  0  0  0  0  0  0  0  0
  -16.9426   47.1268   21.4437 H   0  0  0  0  0  0  0  0  0  0  0  0
  -21.3786   57.0665   13.5078 C   0  0  0  0  0  0  0  0  0  0  0  0
  -22.7285   57.0544   13.2885 F   0  0  0  0  0  0  0  0  0  0  0  0
  -20.8106   56.6507   12.3376 F   0  0  0  0  0  0  0  0  0  0  0  0
  -21.0504   58.8374   13.4452 P   0  0  0  0  0  0  0  0  0  0  0  0
  -19.7572   59.3859   13.9697 O   0  0  0  0  0  0  0  0  0  0  0  0
  -22.2762   59.6184   14.1511 O   0  0  0  0  0  0  0  0  0  0  0  0
  -21.2670   59.3462   11.9279 O   0  0  0  0  0  0  0  0  0  0  0  0
  -22.2875   59.4130   15.0990 H   0  0  0  0  0  0  0  0  0  0  0  0
  -20.5885   58.9549   11.3557 H   0  0  0  0  0  0  0  0  0  0  0  0
 17 18  1  0
 18 19  2  0
 18 16  1  0
 16 22  1  0
 22 23  1  0
 23 24  1  0
 24 25  2  0
 24 26  1  0
 16 12  1  0
 12 13  1  0
 13 14  2  0
 13  1  1  0
  1  2  2  0
  2  3  1  0
  3  4  2  0
  4  5  1  0
  5  6  2  0
  6 28  1  0
 28 29  1  0
 28 30  1  0
 28 31  1  0
 31 32  2  0
 31 33  1  0
 31 34  1  0
  6  7  1  0
  7  8  2  0
  8  9  1  0
  9 10  2  0
 10 11  1  0
 10  1  1  0
  8  3  1  0
 17 20  1  0
 17 21  1  0
 26 27  1  0
 12 15  1  0
 33 35  1  0
 34 36  1  0
M  END
> <minimizedAffinity>
-8.34873

> <CNNscore>
0.8265683651

> <CNNaffinity>
6.0916442871

> <CNN_VS>
5.0351605415

> <CNNaffinity_variance>
0.1675721407

$$$$



 36 37  0  0  0  0  0  0  0  0999 V2000
  -18.8344   54.7566   18.8590 C   0  0  0  0  0  0  0  0  0  0  0  0
  -19.6981   54.1536   17.9270 C   0  0  0  0  0  0  0  0  0  0  0  0
  -20.1402   54.8444   16.7878 C   0  0  0  0  0  0  0  0  0  0  0  0
  -20.9972   54.2447   15.8539 C   0  0  0  0  0  0  0  0  0  0  0  0
  -21.4300   54.9433   14.7224 C   0  0  0  0  0  0  0  0  0  0  0  0
  -21.0096   56.2568   14.4929 C   0  0  0  0  0  0  0  0  0  0  0  0
  -20.1570   56.8606   15.4363 C   0  0  0  0  0  0  0  0  0  0  0  0
  -19.7154   56.1714   16.5786 C   0  0  0  0  0  0  0  0  0  0  0  0
  -18.8677   56.7765   17.5203 C   0  0  0  0  0  0  0  0  0  0  0  0
  -18.4332   56.0808   18.6567 C   0  0  0  0  0  0  0  0  0  0  0  0
  -17.4476   56.9612   19.7712 Cl  0  0  0  0  0  0  0  0  0  0  0  0
  -18.0272   52.6289   19.7504 N   0  0  0  0  0  0  0  0  0  0  0  0
  -18.4330   53.9125   20.0157 C   0  0  0  0  0  0  0  0  0  0  0  0
  -18.5266   54.3569   21.1560 O   0  0  0  0  0  0  0  0  0  0  0  0
  -18.0378   52.3103   18.8190 H   0  0  0  0  0  0  0  0  0  0  0  0
  -17.5798   51.7182   20.8022 C   0  0  0  0  0  0  0  0  0  0  0  0
  -17.6154   49.4332   19.8781 N   0  0  0  0  0  0  0  0  0  0  0  0
  -16.8634   50.5484   20.1038 C   0  0  0  0  0  0  0  0  0  0  0  0
  -15.6929   50.6015   19.7325 O   0  0  0  0  0  0  0  0  0  0  0  0
  -17.2147   48.6507   19.4350 H   0  0  0  0  0  0  0  0  0  0  0  0
  -18.5589   49.4107   20.1582 H   0  0  0  0  0  0  0  0  0  0  0  0
  -18.7781   51.2532   21.6471 C   0  0  0  0  0  0  0  0  0  0  0  0
  -18.4861   50.9582   23.1152 C   0  0  0  0  0  0  0  0  0  0  0  0
  -17.3075   51.7351   23.6248 C   0  0  0  0  0  0  0  0  0  0  0  0
  -17.3376   52.9055   23.9758 O   0  0  0  0  0  0  0  0  0  0  0  0
  -16.1875   51.0009   23.7143 O   0  0  0  0  0  0  0  0  0  0  0  0
  -16.1910   50.1055   23.4384 H   0  0  0  0  0  0  0  0  0  0  0  0
  -21.4581   57.0671   13.3024 C   0  0  0  0  0  0  0  0  0  0  0  0
  -22.8202   57.1699   13.2363 F   0  0  0  0  0  0  0  0  0  0  0  0
  -21.0724   56.5022   12.1204 F   0  0  0  0  0  0  0  0  0  0  0  0
  -20.9848   58.7860   13.0386 P   0  0  0  0  0  0  0  0  0  0  0  0
  -21.1710   59.7976   14.1295 O   0  0  0  0  0  0  0  0  0  0  0  0
  -21.7058   59.3233   11.6961 O   0  0  0  0  0  0  0  0  0  0  0  0
  -19.4511   58.8243   12.5343 O   0  0  0  0  0  0  0  0  0  0  0  0
  -22.6648   59.3607   11.8369 H   0  0  0  0  0  0  0  0  0  0  0  0
  -18.8684   58.5206   13.2479 H   0  0  0  0  0  0  0  0  0  0  0  0
 17 18  1  0
 18 19  2  0
 18 16  1  0
 16 22  1  0
 22 23  1  0
 23 24  1  0
 24 25  2  0
 24 26  1  0
 16 12  1  0
 12 13  1  0
 13 14  2  0
 13  1  1  0
  1  2  2  0
  2  3  1  0
  3  4  2  0
  4  5  1  0
  5  6  2  0
  6 28  1  0
 28 29  1  0
 28 30  1  0
 28 31  1  0
 31 32  2  0
 31 33  1  0
 31 34  1  0
  6  7  1  0
  7  8  2  0
  8  9  1  0
  9 10  2  0
 10 11  1  0
 10  1  1  0
  8  3  1  0
 17 20  1  0
 17 21  1  0
 26 27  1  0
 12 15  1  0
 33 35  1  0
 34 36  1  0
M  END
> <minimizedAffinity>
-8.55132

> <CNNscore>
0.8066803813

> <CNNaffinity>
6.2220253944

> <CNN_VS>
5.0191860199

> <CNNaffinity_variance>
0.2318706512

$$$$



 36 37  0  0  0  0  0  0  0  0999 V2000
  -18.8687   53.8533   18.8604 C   0  0  0  0  0  0  0  0  0  0  0  0
  -19.5952   53.7428   17.6612 C   0  0  0  0  0  0  0  0  0  0  0  0
  -19.8306   54.8600   16.8445 C   0  0  0  0  0  0  0  0  0  0  0  0
  -20.5501   54.7527   15.6457 C   0  0  0  0  0  0  0  0  0  0  0  0
  -20.7772   55.8732   14.8403 C   0  0  0  0  0  0  0  0  0  0  0  0
  -20.2831   57.1276   15.2103 C   0  0  0  0  0  0  0  0  0  0  0  0
  -19.5692   57.2354   16.4187 C   0  0  0  0  0  0  0  0  0  0  0  0
  -19.3348   56.1185   17.2388 C   0  0  0  0  0  0  0  0  0  0  0  0
  -18.6255   56.2285   18.4456 C   0  0  0  0  0  0  0  0  0  0  0  0
  -18.3974   55.1087   19.2568 C   0  0  0  0  0  0  0  0  0  0  0  0
  -17.5700   55.3912   20.7482 Cl  0  0  0  0  0  0  0  0  0  0  0  0
  -17.4078   52.2838   20.0333 N   0  0  0  0  0  0  0  0  0  0  0  0
  -18.6813   52.5926   19.6266 C   0  0  0  0  0  0  0  0  0  0  0  0
  -19.6390   51.8501   19.8219 O   0  0  0  0  0  0  0  0  0  0  0  0
  -16.6708   52.8883   19.7872 H   0  0  0  0  0  0  0  0  0  0  0  0
  -17.1072   51.0888   20.8192 C   0  0  0  0  0  0  0  0  0  0  0  0
  -17.9117   52.4846   22.6849 N   0  0  0  0  0  0  0  0  0  0  0  0
  -17.0173   51.5336   22.2900 C   0  0  0  0  0  0  0  0  0  0  0  0
  -16.2175   51.0537   23.0906 O   0  0  0  0  0  0  0  0  0  0  0  0
  -17.9052   52.8110   23.6136 H   0  0  0  0  0  0  0  0  0  0  0  0
  -18.5637   52.8446   22.0411 H   0  0  0  0  0  0  0  0  0  0  0  0
  -15.8049   50.4393   20.3210 C   0  0  0  0  0  0  0  0  0  0  0  0
  -14.6224   51.3821   20.1198 C   0  0  0  0  0  0  0  0  0  0  0  0
  -13.3118   50.6508   20.1070 C   0  0  0  0  0  0  0  0  0  0  0  0
  -12.9583   49.8599   19.2448 O   0  0  0  0  0  0  0  0  0  0  0  0
  -12.5088   50.9845   21.1294 O   0  0  0  0  0  0  0  0  0  0  0  0
  -12.8039   51.5935   21.7774 H   0  0  0  0  0  0  0  0  0  0  0  0
  -20.5128   58.3749   14.3938 C   0  0  0  0  0  0  0  0  0  0  0  0
  -19.5222   59.2991   14.5804 F   0  0  0  0  0  0  0  0  0  0  0  0
  -21.6753   59.0057   14.7337 F   0  0  0  0  0  0  0  0  0  0  0  0
  -20.6287   58.3745   12.5953 P   0  0  0  0  0  0  0  0  0  0  0  0
  -20.9864   57.1172   11.8609 O   0  0  0  0  0  0  0  0  0  0  0  0
  -19.2537   58.9650   11.9858 O   0  0  0  0  0  0  0  0  0  0  0  0
  -21.6327   59.5567   12.1456 O   0  0  0  0  0  0  0  0  0  0  0  0
  -18.5262   58.3524   12.1764 H   0  0  0  0  0  0  0  0  0  0  0  0
  -22.5316   59.3490   12.4451 H   0  0  0  0  0  0  0  0  0  0  0  0
 17 18  1  0
 18 19  2  0
 18 16  1  0
 16 22  1  0
 22 23  1  0
 23 24  1  0
 24 25  2  0
 24 26  1  0
 16 12  1  0
 12 13  1  0
 13 14  2  0
 13  1  1  0
  1  2  2  0
  2  3  1  0
  3  4  2  0
  4  5  1  0
  5  6  2  0
  6 28  1  0
 28 29  1  0
 28 30  1  0
 28 31  1  0
 31 32  2  0
 31 33  1  0
 31 34  1  0
  6  7  1  0
  7  8  2  0
  8  9  1  0
  9 10  2  0
 10 11  1  0
 10  1  1  0
  8  3  1  0
 17 20  1  0
 17 21  1  0
 26 27  1  0
 12 15  1  0
 33 35  1  0
 34 36  1  0
M  END
> <minimizedAffinity>
-9.30332

> <CNNscore>
0.7954477668

> <CNNaffinity>
6.1054444313

> <CNN_VS>
4.8565621376

> <CNNaffinity_variance>
0.1265919209

$$$$



 36 37  0  0  0  0  0  0  0  0999 V2000
  -22.9204   51.8975   16.0452 C   0  0  0  0  0  0  0  0  0  0  0  0
  -22.6088   51.2054   14.8611 C   0  0  0  0  0  0  0  0  0  0  0  0
  -23.4162   50.1560   14.3947 C   0  0  0  0  0  0  0  0  0  0  0  0
  -23.1115   49.4672   13.2119 C   0  0  0  0  0  0  0  0  0  0  0  0
  -23.9243   48.4239   12.7573 C   0  0  0  0  0  0  0  0  0  0  0  0
  -25.0669   48.0492   13.4706 C   0  0  0  0  0  0  0  0  0  0  0  0
  -25.3661   48.7354   14.6627 C   0  0  0  0  0  0  0  0  0  0  0  0
  -24.5575   49.7845   15.1325 C   0  0  0  0  0  0  0  0  0  0  0  0
  -24.8556   50.4656   16.3236 C   0  0  0  0  0  0  0  0  0  0  0  0
  -24.0427   51.5102   16.7840 C   0  0  0  0  0  0  0  0  0  0  0  0
  -24.4818   52.2209   18.2975 Cl  0  0  0  0  0  0  0  0  0  0  0  0
  -20.6604   52.6794   16.5496 N   0  0  0  0  0  0  0  0  0  0  0  0
  -21.9898   52.9944   16.4222 C   0  0  0  0  0  0  0  0  0  0  0  0
  -22.4323   54.1145   16.6591 O   0  0  0  0  0  0  0  0  0  0  0  0
  -20.3779   51.7466   16.4108 H   0  0  0  0  0  0  0  0  0  0  0  0
  -19.6493   53.6802   16.8841 C   0  0  0  0  0  0  0  0  0  0  0  0
  -20.5870   54.2249   19.0977 N   0  0  0  0  0  0  0  0  0  0  0  0
  -19.5289   53.6965   18.4186 C   0  0  0  0  0  0  0  0  0  0  0  0
  -18.5616   53.2380   19.0227 O   0  0  0  0  0  0  0  0  0  0  0  0
  -20.5708   54.2639   20.0813 H   0  0  0  0  0  0  0  0  0  0  0  0
  -21.3671   54.5674   18.6043 H   0  0  0  0  0  0  0  0  0  0  0  0
  -20.0486   55.0507   16.3113 C   0  0  0  0  0  0  0  0  0  0  0  0
  -19.2269   56.2419   16.7942 C   0  0  0  0  0  0  0  0  0  0  0  0
  -19.1604   57.3361   15.7691 C   0  0  0  0  0  0  0  0  0  0  0  0
  -19.9325   57.4657   14.8305 O   0  0  0  0  0  0  0  0  0  0  0  0
  -18.1794   58.2219   16.0024 O   0  0  0  0  0  0  0  0  0  0  0  0
  -17.6007   58.0994   16.7291 H   0  0  0  0  0  0  0  0  0  0  0  0
  -25.9702   46.9202   13.0414 C   0  0  0  0  0  0  0  0  0  0  0  0
  -26.4692   46.2285   14.1104 F   0  0  0  0  0  0  0  0  0  0  0  0
  -25.3137   45.9974   12.2782 F   0  0  0  0  0  0  0  0  0  0  0  0
  -27.4728   47.1652   12.0769 P   0  0  0  0  0  0  0  0  0  0  0  0
  -28.5812   48.0235   12.6088 O   0  0  0  0  0  0  0  0  0  0  0  0
  -28.0745   45.7202   11.6760 O   0  0  0  0  0  0  0  0  0  0  0  0
  -27.0588   47.6838   10.6047 O   0  0  0  0  0  0  0  0  0  0  0  0
  -28.3783   45.2632   12.4759 H   0  0  0  0  0  0  0  0  0  0  0  0
  -26.6683   48.5692   10.6717 H   0  0  0  0  0  0  0  0  0  0  0  0
 17 18  1  0
 18 19  2  0
 18 16  1  0
 16 22  1  0
 22 23  1  0
 23 24  1  0
 24 25  2  0
 24 26  1  0
 16 12  1  0
 12 13  1  0
 13 14  2  0
 13  1  1  0
  1  2  2  0
  2  3  1  0
  3  4  2  0
  4  5  1  0
  5  6  2  0
  6 28  1  0
 28 29  1  0
 28 30  1  0
 28 31  1  0
 31 32  2  0
 31 33  1  0
 31 34  1  0
  6  7  1  0
  7  8  2  0
  8  9  1  0
  9 10  2  0
 10 11  1  0
 10  1  1  0
  8  3  1  0
 17 20  1  0
 17 21  1  0
 26 27  1  0
 12 15  1  0
 33 35  1  0
 34 36  1  0
M  END
> <minimizedAffinity>
-7.60993

> <CNNscore>
0.7892742157

> <CNNaffinity>
6.0011935234

> <CNN_VS>
4.7365875244

> <CNNaffinity_variance>
0.0418044589

$$$$



 36 37  0  0  0  0  0  0  0  0999 V2000
  -18.8884   54.7623   18.8179 C   0  0  0  0  0  0  0  0  0  0  0  0
  -19.7488   54.1669   17.8780 C   0  0  0  0  0  0  0  0  0  0  0  0
  -20.1795   54.8637   16.7381 C   0  0  0  0  0  0  0  0  0  0  0  0
  -21.0331   54.2715   15.7963 C   0  0  0  0  0  0  0  0  0  0  0  0
  -21.4544   54.9760   14.6641 C   0  0  0  0  0  0  0  0  0  0  0  0
  -21.0255   56.2880   14.4418 C   0  0  0  0  0  0  0  0  0  0  0  0
  -20.1762   56.8842   15.3930 C   0  0  0  0  0  0  0  0  0  0  0  0
  -19.7462   56.1890   16.5361 C   0  0  0  0  0  0  0  0  0  0  0  0
  -18.9018   56.7866   17.4855 C   0  0  0  0  0  0  0  0  0  0  0  0
  -18.4788   56.0850   18.6226 C   0  0  0  0  0  0  0  0  0  0  0  0
  -17.4963   56.9566   19.7467 Cl  0  0  0  0  0  0  0  0  0  0  0  0
  -17.2082   54.0137   20.4272 N   0  0  0  0  0  0  0  0  0  0  0  0
  -18.4995   53.9124   19.9746 C   0  0  0  0  0  0  0  0  0  0  0  0
  -19.3085   53.1196   20.4475 O   0  0  0  0  0  0  0  0  0  0  0  0
  -16.5880   54.6205   19.9619 H   0  0  0  0  0  0  0  0  0  0  0  0
  -16.7212   53.2524   21.5757 C   0  0  0  0  0  0  0  0  0  0  0  0
  -16.7921   53.5646   24.0198 N   0  0  0  0  0  0  0  0  0  0  0  0
  -16.8302   54.1768   22.8017 C   0  0  0  0  0  0  0  0  0  0  0  0
  -16.9153   55.4000   22.7167 O   0  0  0  0  0  0  0  0  0  0  0  0
  -16.8573   54.1012   24.8427 H   0  0  0  0  0  0  0  0  0  0  0  0
  -16.6995   52.5861   24.0763 H   0  0  0  0  0  0  0  0  0  0  0  0
  -15.2802   52.7764   21.3249 C   0  0  0  0  0  0  0  0  0  0  0  0
  -15.1300   51.5255   20.4646 C   0  0  0  0  0  0  0  0  0  0  0  0
  -13.6915   51.1496   20.2592 C   0  0  0  0  0  0  0  0  0  0  0  0
  -12.7338   51.8326   20.5912 O   0  0  0  0  0  0  0  0  0  0  0  0
  -13.5345   49.9367   19.7064 O   0  0  0  0  0  0  0  0  0  0  0  0
  -14.2855   49.4330   19.4607 H   0  0  0  0  0  0  0  0  0  0  0  0
  -21.4614   57.1045   13.2509 C   0  0  0  0  0  0  0  0  0  0  0  0
  -22.8225   57.2139   13.1752 F   0  0  0  0  0  0  0  0  0  0  0  0
  -21.0698   56.5418   12.0698 F   0  0  0  0  0  0  0  0  0  0  0  0
  -20.9781   58.8220   12.9964 P   0  0  0  0  0  0  0  0  0  0  0  0
  -21.7831   59.7084   12.0939 O   0  0  0  0  0  0  0  0  0  0  0  0
  -19.4319   58.8629   12.5291 O   0  0  0  0  0  0  0  0  0  0  0  0
  -20.8248   59.5311   14.4392 O   0  0  0  0  0  0  0  0  0  0  0  0
  -19.3490   58.4608   11.6502 H   0  0  0  0  0  0  0  0  0  0  0  0
  -21.6939   59.5861   14.8664 H   0  0  0  0  0  0  0  0  0  0  0  0
 17 18  1  0
 18 19  2  0
 18 16  1  0
 16 22  1  0
 22 23  1  0
 23 24  1  0
 24 25  2  0
 24 26  1  0
 16 12  1  0
 12 13  1  0
 13 14  2  0
 13  1  1  0
  1  2  2  0
  2  3  1  0
  3  4  2  0
  4  5  1  0
  5  6  2  0
  6 28  1  0
 28 29  1  0
 28 30  1  0
 28 31  1  0
 31 32  2  0
 31 33  1  0
 31 34  1  0
  6  7  1  0
  7  8  2  0
  8  9  1  0
  9 10  2  0
 10 11  1  0
 10  1  1  0
  8  3  1  0
 17 20  1  0
 17 21  1  0
 26 27  1  0
 12 15  1  0
 33 35  1  0
 34 36  1  0
M  END
> <minimizedAffinity>
-8.37077

> <CNNscore>
0.7012971044

> <CNNaffinity>
5.9900093079

> <CNN_VS>
4.2007761002

> <CNNaffinity_variance>
0.1450977474

$$$$



 36 37  0  0  0  0  0  0  0  0999 V2000
  -20.4761   53.3913   18.6499 C   0  0  0  0  0  0  0  0  0  0  0  0
  -19.6413   54.3415   18.0348 C   0  0  0  0  0  0  0  0  0  0  0  0
  -20.0466   55.0320   16.8818 C   0  0  0  0  0  0  0  0  0  0  0  0
  -19.2190   55.9837   16.2688 C   0  0  0  0  0  0  0  0  0  0  0  0
  -19.6347   56.6656   15.1208 C   0  0  0  0  0  0  0  0  0  0  0  0
  -20.8921   56.4181   14.5621 C   0  0  0  0  0  0  0  0  0  0  0  0
  -21.7178   55.4556   15.1732 C   0  0  0  0  0  0  0  0  0  0  0  0
  -21.3127   54.7615   16.3260 C   0  0  0  0  0  0  0  0  0  0  0  0
  -22.1362   53.7993   16.9321 C   0  0  0  0  0  0  0  0  0  0  0  0
  -21.7228   53.1121   18.0815 C   0  0  0  0  0  0  0  0  0  0  0  0
  -22.8012   51.9055   18.6895 Cl  0  0  0  0  0  0  0  0  0  0  0  0
  -19.7398   51.3813   19.8294 N   0  0  0  0  0  0  0  0  0  0  0  0
  -19.9315   52.7394   19.8705 C   0  0  0  0  0  0  0  0  0  0  0  0
  -19.7255   53.4087   20.8785 O   0  0  0  0  0  0  0  0  0  0  0  0
  -19.9876   50.8911   19.0124 H   0  0  0  0  0  0  0  0  0  0  0  0
  -19.1808   50.6371   20.9561 C   0  0  0  0  0  0  0  0  0  0  0  0
  -17.2184   50.3902   19.4850 N   0  0  0  0  0  0  0  0  0  0  0  0
  -17.6545   50.6092   20.7585 C   0  0  0  0  0  0  0  0  0  0  0  0
  -16.8542   50.8017   21.6713 O   0  0  0  0  0  0  0  0  0  0  0  0
  -16.2532   50.3610   19.2934 H   0  0  0  0  0  0  0  0  0  0  0  0
  -17.8688   50.2612   18.7573 H   0  0  0  0  0  0  0  0  0  0  0  0
  -19.7915   49.2266   21.0163 C   0  0  0  0  0  0  0  0  0  0  0  0
  -18.9672   48.1723   21.7487 C   0  0  0  0  0  0  0  0  0  0  0  0
  -19.1457   46.8040   21.1582 C   0  0  0  0  0  0  0  0  0  0  0  0
  -18.6685   46.4305   20.0968 O   0  0  0  0  0  0  0  0  0  0  0  0
  -19.8561   45.9774   21.9415 O   0  0  0  0  0  0  0  0  0  0  0  0
  -20.2112   46.2888   22.7507 H   0  0  0  0  0  0  0  0  0  0  0  0
  -21.3873   57.1069   13.3149 C   0  0  0  0  0  0  0  0  0  0  0  0
  -22.7524   57.1798   13.2774 F   0  0  0  0  0  0  0  0  0  0  0  0
  -21.0216   56.4415   12.1798 F   0  0  0  0  0  0  0  0  0  0  0  0
  -20.9546   58.8017   12.8807 P   0  0  0  0  0  0  0  0  0  0  0  0
  -21.7693   59.5555   11.8726 O   0  0  0  0  0  0  0  0  0  0  0  0
  -19.4013   58.8442   12.4377 O   0  0  0  0  0  0  0  0  0  0  0  0
  -20.8539   59.6696   14.2388 O   0  0  0  0  0  0  0  0  0  0  0  0
  -19.2875   58.3513   11.6101 H   0  0  0  0  0  0  0  0  0  0  0  0
  -21.7329   59.7412   14.6427 H   0  0  0  0  0  0  0  0  0  0  0  0
 17 18  1  0
 18 19  2  0
 18 16  1  0
 16 22  1  0
 22 23  1  0
 23 24  1  0
 24 25  2  0
 24 26  1  0
 16 12  1  0
 12 13  1  0
 13 14  2  0
 13  1  1  0
  1  2  2  0
  2  3  1  0
  3  4  2  0
  4  5  1  0
  5  6  2  0
  6 28  1  0
 28 29  1  0
 28 30  1  0
 28 31  1  0
 31 32  2  0
 31 33  1  0
 31 34  1  0
  6  7  1  0
  7  8  2  0
  8  9  1  0
  9 10  2  0
 10 11  1  0
 10  1  1  0
  8  3  1  0
 17 20  1  0
 17 21  1  0
 26 27  1  0
 12 15  1  0
 33 35  1  0
 34 36  1  0
M  END
> <minimizedAffinity>
-7.36195

> <CNNscore>
0.6991500258

> <CNNaffinity>
6.1169543266

> <CNN_VS>
4.2766685486

> <CNNaffinity_variance>
0.1471524388

$$$$



 36 37  0  0  0  0  0  0  0  0999 V2000
  -18.5861   54.8577   19.1705 C   0  0  0  0  0  0  0  0  0  0  0  0
  -18.3854   56.0879   18.5188 C   0  0  0  0  0  0  0  0  0  0  0  0
  -19.0751   56.4105   17.3395 C   0  0  0  0  0  0  0  0  0  0  0  0
  -18.8814   57.6381   16.6899 C   0  0  0  0  0  0  0  0  0  0  0  0
  -19.5753   57.9481   15.5160 C   0  0  0  0  0  0  0  0  0  0  0  0
  -20.4864   57.0407   14.9671 C   0  0  0  0  0  0  0  0  0  0  0  0
  -20.6726   55.8051   15.6152 C   0  0  0  0  0  0  0  0  0  0  0  0
  -19.9811   55.4794   16.7944 C   0  0  0  0  0  0  0  0  0  0  0  0
  -20.1656   54.2449   17.4376 C   0  0  0  0  0  0  0  0  0  0  0  0
  -19.4708   53.9293   18.6131 C   0  0  0  0  0  0  0  0  0  0  0  0
  -19.7374   52.3517   19.2677 Cl  0  0  0  0  0  0  0  0  0  0  0  0
  -17.2233   55.7469   20.9940 N   0  0  0  0  0  0  0  0  0  0  0  0
  -17.8016   54.6452   20.4158 C   0  0  0  0  0  0  0  0  0  0  0  0
  -17.6483   53.5085   20.8529 O   0  0  0  0  0  0  0  0  0  0  0  0
  -17.3282   56.6229   20.5571 H   0  0  0  0  0  0  0  0  0  0  0  0
  -16.4568   55.6656   22.2357 C   0  0  0  0  0  0  0  0  0  0  0  0
  -18.0822   57.4061   22.8721 N   0  0  0  0  0  0  0  0  0  0  0  0
  -16.8305   56.9027   23.0719 C   0  0  0  0  0  0  0  0  0  0  0  0
  -16.0762   57.4077   23.9007 O   0  0  0  0  0  0  0  0  0  0  0  0
  -18.3812   58.1967   23.3769 H   0  0  0  0  0  0  0  0  0  0  0  0
  -18.6868   56.9789   22.2230 H   0  0  0  0  0  0  0  0  0  0  0  0
  -14.9515   55.5976   21.9271 C   0  0  0  0  0  0  0  0  0  0  0  0
  -14.5065   56.2521   20.6229 C   0  0  0  0  0  0  0  0  0  0  0  0
  -14.7906   57.7257   20.6037 C   0  0  0  0  0  0  0  0  0  0  0  0
  -15.5171   58.2895   19.7986 O   0  0  0  0  0  0  0  0  0  0  0  0
  -14.2008   58.3921   21.6084 O   0  0  0  0  0  0  0  0  0  0  0  0
  -13.6482   57.9362   22.2124 H   0  0  0  0  0  0  0  0  0  0  0  0
  -21.2487   57.3101   13.6937 C   0  0  0  0  0  0  0  0  0  0  0  0
  -22.3670   58.0653   13.9160 F   0  0  0  0  0  0  0  0  0  0  0  0
  -21.6907   56.1598   13.1052 F   0  0  0  0  0  0  0  0  0  0  0  0
  -20.5419   58.1761   12.2800 P   0  0  0  0  0  0  0  0  0  0  0  0
  -19.2712   58.9579   12.4302 O   0  0  0  0  0  0  0  0  0  0  0  0
  -21.6741   59.1334   11.6378 O   0  0  0  0  0  0  0  0  0  0  0  0
  -20.3793   57.1261   11.0639 O   0  0  0  0  0  0  0  0  0  0  0  0
  -21.8924   59.8412   12.2642 H   0  0  0  0  0  0  0  0  0  0  0  0
  -19.7125   56.4615   11.2975 H   0  0  0  0  0  0  0  0  0  0  0  0
 17 18  1  0
 18 19  2  0
 18 16  1  0
 16 22  1  0
 22 23  1  0
 23 24  1  0
 24 25  2  0
 24 26  1  0
 16 12  1  0
 12 13  1  0
 13 14  2  0
 13  1  1  0
  1  2  2  0
  2  3  1  0
  3  4  2  0
  4  5  1  0
  5  6  2  0
  6 28  1  0
 28 29  1  0
 28 30  1  0
 28 31  1  0
 31 32  2  0
 31 33  1  0
 31 34  1  0
  6  7  1  0
  7  8  2  0
  8  9  1  0
  9 10  2  0
 10 11  1  0
 10  1  1  0
  8  3  1  0
 17 20  1  0
 17 21  1  0
 26 27  1  0
 12 15  1  0
 33 35  1  0
 34 36  1  0
M  END
> <minimizedAffinity>
-7.88184

> <CNNscore>
0.6726438999

> <CNNaffinity>
5.6862297058

> <CNN_VS>
3.8248076439

> <CNNaffinity_variance>
0.0475394540

$$$$



 36 37  0  0  0  0  0  0  0  0999 V2000
  -18.8102   53.6338   19.2534 C   0  0  0  0  0  0  0  0  0  0  0  0
  -19.4884   53.5157   18.0269 C   0  0  0  0  0  0  0  0  0  0  0  0
  -19.6531   54.6187   17.1745 C   0  0  0  0  0  0  0  0  0  0  0  0
  -20.3242   54.5035   15.9486 C   0  0  0  0  0  0  0  0  0  0  0  0
  -20.4810   55.6099   15.1077 C   0  0  0  0  0  0  0  0  0  0  0  0
  -19.9632   56.8573   15.4687 C   0  0  0  0  0  0  0  0  0  0  0  0
  -19.2982   56.9734   16.7039 C   0  0  0  0  0  0  0  0  0  0  0  0
  -19.1346   55.8708   17.5597 C   0  0  0  0  0  0  0  0  0  0  0  0
  -18.4739   55.9892   18.7930 C   0  0  0  0  0  0  0  0  0  0  0  0
  -18.3163   54.8837   19.6398 C   0  0  0  0  0  0  0  0  0  0  0  0
  -17.5443   55.1779   21.1583 Cl  0  0  0  0  0  0  0  0  0  0  0  0
  -19.7054   52.1133   20.9446 N   0  0  0  0  0  0  0  0  0  0  0  0
  -18.6959   52.3876   20.0568 C   0  0  0  0  0  0  0  0  0  0  0  0
  -17.6974   51.6820   19.9482 O   0  0  0  0  0  0  0  0  0  0  0  0
  -20.4476   52.7541   21.0327 H   0  0  0  0  0  0  0  0  0  0  0  0
  -19.7175   50.9032   21.7640 C   0  0  0  0  0  0  0  0  0  0  0  0
  -21.7677   50.2386   20.5676 N   0  0  0  0  0  0  0  0  0  0  0  0
  -20.5309   49.8496   20.9908 C   0  0  0  0  0  0  0  0  0  0  0  0
  -20.1023   48.7277   20.7291 O   0  0  0  0  0  0  0  0  0  0  0  0
  -22.3371   49.6100   20.0676 H   0  0  0  0  0  0  0  0  0  0  0  0
  -22.0912   51.1478   20.7622 H   0  0  0  0  0  0  0  0  0  0  0  0
  -20.3139   51.2058   23.1492 C   0  0  0  0  0  0  0  0  0  0  0  0
  -19.8497   50.3032   24.2882 C   0  0  0  0  0  0  0  0  0  0  0  0
  -18.5552   49.6129   23.9713 C   0  0  0  0  0  0  0  0  0  0  0  0
  -18.4493   48.4458   23.6241 O   0  0  0  0  0  0  0  0  0  0  0  0
  -17.4884   50.4231   24.0548 O   0  0  0  0  0  0  0  0  0  0  0  0
  -17.5967   51.3142   24.3237 H   0  0  0  0  0  0  0  0  0  0  0  0
  -20.1181   58.0902   14.6136 C   0  0  0  0  0  0  0  0  0  0  0  0
  -18.9115   58.5750   14.1901 F   0  0  0  0  0  0  0  0  0  0  0  0
  -20.7109   59.1163   15.2923 F   0  0  0  0  0  0  0  0  0  0  0  0
  -21.0438   58.1137   13.0674 P   0  0  0  0  0  0  0  0  0  0  0  0
  -22.2332   57.2193   12.8843 O   0  0  0  0  0  0  0  0  0  0  0  0
  -20.0163   57.8775   11.8429 O   0  0  0  0  0  0  0  0  0  0  0  0
  -21.4710   59.6380   12.7482 O   0  0  0  0  0  0  0  0  0  0  0  0
  -19.6578   56.9774   11.8907 H   0  0  0  0  0  0  0  0  0  0  0  0
  -22.1070   59.9419   13.4146 H   0  0  0  0  0  0  0  0  0  0  0  0
 17 18  1  0
 18 19  2  0
 18 16  1  0
 16 22  1  0
 22 23  1  0
 23 24  1  0
 24 25  2  0
 24 26  1  0
 16 12  1  0
 12 13  1  0
 13 14  2  0
 13  1  1  0
  1  2  2  0
  2  3  1  0
  3  4  2  0
  4  5  1  0
  5  6  2  0
  6 28  1  0
 28 29  1  0
 28 30  1  0
 28 31  1  0
 31 32  2  0
 31 33  1  0
 31 34  1  0
  6  7  1  0
  7  8  2  0
  8  9  1  0
  9 10  2  0
 10 11  1  0
 10  1  1  0
  8  3  1  0
 17 20  1  0
 17 21  1  0
 26 27  1  0
 12 15  1  0
 33 35  1  0
 34 36  1  0
M  END
> <minimizedAffinity>
-7.70495

> <CNNscore>
0.6182707548

> <CNNaffinity>
5.9481644630

> <CNN_VS>
3.6775760651

> <CNNaffinity_variance>
0.1730460972

$$$$
