


 27 30  0  0  0  0  0  0  0  0999 V2000
   -5.8537   49.7836    9.7674 O   0  0  0  0  0  0  0  0  0  0  0  0
   -4.9454   50.5842    9.9563 C   0  0  0  0  0  0  0  0  0  0  0  0
   -3.9541   50.9346    9.0551 N   0  0  0  0  0  0  0  0  0  0  0  0
   -3.3294   51.6389    9.3429 H   0  0  0  0  0  0  0  0  0  0  0  0
   -4.8910   51.3059   11.2618 C   0  0  0  0  0  0  0  0  0  0  0  0
   -3.6100   51.8189   11.6674 C   0  0  0  0  0  0  0  0  0  0  0  0
   -3.3923   52.5234   12.8743 C   0  0  0  0  0  0  0  0  0  0  0  0
   -4.5534   52.6908   13.6449 C   0  0  0  0  0  0  0  0  0  0  0  0
   -4.7266   53.2991   14.8289 N   0  0  0  0  0  0  0  0  0  0  0  0
   -6.0417   53.1776   15.0928 N   0  0  0  0  0  0  0  0  0  0  0  0
   -6.7493   52.5034   14.1377 C   0  0  0  0  0  0  0  0  0  0  0  0
   -5.8205   52.1721   13.1919 C   0  0  0  0  0  0  0  0  0  0  0  0
   -6.0773   51.4753   12.0168 C   0  0  0  0  0  0  0  0  0  0  0  0
   -6.4585   53.5440   15.9060 H   0  0  0  0  0  0  0  0  0  0  0  0
   -3.7409   50.3925    7.7685 C   0  0  0  0  0  0  0  0  0  0  0  0
   -3.1585   49.1247    7.6939 C   0  0  0  0  0  0  0  0  0  0  0  0
   -2.9258   48.5350    6.4524 C   0  0  0  0  0  0  0  0  0  0  0  0
   -2.2068   46.9729    6.3768 Cl  0  0  0  0  0  0  0  0  0  0  0  0
   -3.2679   49.1966    5.2758 C   0  0  0  0  0  0  0  0  0  0  0  0
   -3.8545   50.4677    5.3260 C   0  0  0  0  0  0  0  0  0  0  0  0
   -4.0903   51.0501    6.5832 C   0  0  0  0  0  0  0  0  0  0  0  0
   -4.2048   51.1460    4.0796 C   0  0  0  0  0  0  0  0  0  0  0  0
   -5.1457   52.0563    3.9021 N   0  0  0  0  0  0  0  0  0  0  0  0
   -5.1142   52.4038    2.5743 N   0  0  0  0  0  0  0  0  0  0  0  0
   -4.1779   51.7256    1.9297 N   0  0  0  0  0  0  0  0  0  0  0  0
   -3.6141   50.9436    2.8592 N   0  0  0  0  0  0  0  0  0  0  0  0
   -2.8783   50.3118    2.6898 H   0  0  0  0  0  0  0  0  0  0  0  0
  1  2  2  0
  2  3  1  0
  3 15  1  0
 15 16  2  0
 16 17  1  0
 17 18  1  0
 17 19  2  0
 19 20  1  0
 20 22  1  0
 22 23  2  0
 23 24  1  0
 24 25  2  0
 25 26  1  0
 20 21  2  0
  2  5  1  0
  5  6  1  0
  6  7  2  0
  7  8  1  0
  8  9  2  0
  9 10  1  0
 10 11  1  0
 11 12  2  0
 12 13  1  0
 21 15  1  0
 13  5  2  0
 26 22  1  0
 12  8  1  0
  3  4  1  0
 26 27  1  0
 10 14  1  0
M  END
> <minimizedAffinity>
-6.57069

> <CNNscore>
0.5334575772

> <CNNaffinity>
5.4185981750

> <CNN_VS>
2.8905923367

> <CNNaffinity_variance>
0.7849261761

$$$$



 27 30  0  0  0  0  0  0  0  0999 V2000
  -10.7140   59.1945    9.9731 O   0  0  0  0  0  0  0  0  0  0  0  0
  -10.9684   58.1904   10.6280 C   0  0  0  0  0  0  0  0  0  0  0  0
  -12.1678   57.8962   11.2543 N   0  0  0  0  0  0  0  0  0  0  0  0
  -12.2283   57.0176   11.6943 H   0  0  0  0  0  0  0  0  0  0  0  0
   -9.9195   57.1356   10.7525 C   0  0  0  0  0  0  0  0  0  0  0  0
   -9.7349   56.5539   12.0548 C   0  0  0  0  0  0  0  0  0  0  0  0
   -8.7837   55.5460   12.3373 C   0  0  0  0  0  0  0  0  0  0  0  0
   -8.0351   55.1498   11.2181 C   0  0  0  0  0  0  0  0  0  0  0  0
   -7.0604   54.2335   11.1086 N   0  0  0  0  0  0  0  0  0  0  0  0
   -6.7101   54.2526    9.8082 N   0  0  0  0  0  0  0  0  0  0  0  0
   -7.4046   55.1523    9.0496 C   0  0  0  0  0  0  0  0  0  0  0  0
   -8.2644   55.7503    9.9271 C   0  0  0  0  0  0  0  0  0  0  0  0
   -9.1853   56.7413    9.6073 C   0  0  0  0  0  0  0  0  0  0  0  0
   -6.0119   53.6671    9.4353 H   0  0  0  0  0  0  0  0  0  0  0  0
  -13.3139   58.7180   11.3311 C   0  0  0  0  0  0  0  0  0  0  0  0
  -14.1801   58.5134   12.4081 C   0  0  0  0  0  0  0  0  0  0  0  0
  -15.3264   59.2953   12.5407 C   0  0  0  0  0  0  0  0  0  0  0  0
  -16.3843   59.0307   13.8724 Cl  0  0  0  0  0  0  0  0  0  0  0  0
  -15.6233   60.2855   11.6076 C   0  0  0  0  0  0  0  0  0  0  0  0
  -14.7686   60.5099   10.5206 C   0  0  0  0  0  0  0  0  0  0  0  0
  -13.6125   59.7198   10.4002 C   0  0  0  0  0  0  0  0  0  0  0  0
  -15.0990   61.5530    9.5516 C   0  0  0  0  0  0  0  0  0  0  0  0
  -15.7190   62.6955    9.7873 N   0  0  0  0  0  0  0  0  0  0  0  0
  -15.8126   63.3502    8.5841 N   0  0  0  0  0  0  0  0  0  0  0  0
  -15.2676   62.6351    7.6127 N   0  0  0  0  0  0  0  0  0  0  0  0
  -14.8265   61.5199    8.2085 N   0  0  0  0  0  0  0  0  0  0  0  0
  -14.3704   60.7797    7.7465 H   0  0  0  0  0  0  0  0  0  0  0  0
  1  2  2  0
  2  3  1  0
  3 15  1  0
 15 16  2  0
 16 17  1  0
 17 18  1  0
 17 19  2  0
 19 20  1  0
 20 22  1  0
 22 23  2  0
 23 24  1  0
 24 25  2  0
 25 26  1  0
 20 21  2  0
  2  5  1  0
  5  6  1  0
  6  7  2  0
  7  8  1  0
  8  9  2  0
  9 10  1  0
 10 11  1  0
 11 12  2  0
 12 13  1  0
 21 15  1  0
 13  5  2  0
 26 22  1  0
 12  8  1  0
  3  4  1  0
 26 27  1  0
 10 14  1  0
M  END
> <minimizedAffinity>
-6.09839

> <CNNscore>
0.4245616198

> <CNNaffinity>
4.9737091064

> <CNN_VS>
2.1116459370

> <CNNaffinity_variance>
0.0344615355

$$$$



 27 30  0  0  0  0  0  0  0  0999 V2000
  -11.4510   58.6400   10.3784 O   0  0  0  0  0  0  0  0  0  0  0  0
  -11.3302   57.5449   10.9152 C   0  0  0  0  0  0  0  0  0  0  0  0
  -12.2708   56.9054   11.7049 N   0  0  0  0  0  0  0  0  0  0  0  0
  -12.0397   56.0000   12.0151 H   0  0  0  0  0  0  0  0  0  0  0  0
  -10.0734   56.7730   10.6854 C   0  0  0  0  0  0  0  0  0  0  0  0
   -9.6709   56.5795    9.3183 C   0  0  0  0  0  0  0  0  0  0  0  0
   -8.5082   55.8716    8.9344 C   0  0  0  0  0  0  0  0  0  0  0  0
   -7.7659   55.3792   10.0190 C   0  0  0  0  0  0  0  0  0  0  0  0
   -6.6244   54.6734   10.0378 N   0  0  0  0  0  0  0  0  0  0  0  0
   -6.3529   54.4865   11.3438 N   0  0  0  0  0  0  0  0  0  0  0  0
   -7.2733   55.0299   12.1951 C   0  0  0  0  0  0  0  0  0  0  0  0
   -8.1996   55.6099   11.3750 C   0  0  0  0  0  0  0  0  0  0  0  0
   -9.3326   56.2972   11.7948 C   0  0  0  0  0  0  0  0  0  0  0  0
   -5.5576   53.9991   11.6587 H   0  0  0  0  0  0  0  0  0  0  0  0
  -13.5251   57.4090   12.1143 C   0  0  0  0  0  0  0  0  0  0  0  0
  -13.6771   58.7972   12.1572 C   0  0  0  0  0  0  0  0  0  0  0  0
  -14.8927   59.3549   12.5501 C   0  0  0  0  0  0  0  0  0  0  0  0
  -15.0642   61.0669   12.5987 Cl  0  0  0  0  0  0  0  0  0  0  0  0
  -15.9666   58.5419   12.9034 C   0  0  0  0  0  0  0  0  0  0  0  0
  -15.8382   57.1474   12.8663 C   0  0  0  0  0  0  0  0  0  0  0  0
  -14.6100   56.5960   12.4628 C   0  0  0  0  0  0  0  0  0  0  0  0
  -16.9768   56.3118   13.2425 C   0  0  0  0  0  0  0  0  0  0  0  0
  -16.9445   55.1643   13.8964 N   0  0  0  0  0  0  0  0  0  0  0  0
  -18.2452   54.7424   14.0192 N   0  0  0  0  0  0  0  0  0  0  0  0
  -19.0770   55.6021   13.4526 N   0  0  0  0  0  0  0  0  0  0  0  0
  -18.2940   56.5746   12.9683 N   0  0  0  0  0  0  0  0  0  0  0  0
  -18.6188   57.3673   12.4833 H   0  0  0  0  0  0  0  0  0  0  0  0
  1  2  2  0
  2  3  1  0
  3 15  1  0
 15 16  2  0
 16 17  1  0
 17 18  1  0
 17 19  2  0
 19 20  1  0
 20 22  1  0
 22 23  2  0
 23 24  1  0
 24 25  2  0
 25 26  1  0
 20 21  2  0
  2  5  1  0
  5  6  1  0
  6  7  2  0
  7  8  1  0
  8  9  2  0
  9 10  1  0
 10 11  1  0
 11 12  2  0
 12 13  1  0
 21 15  1  0
 13  5  2  0
 26 22  1  0
 12  8  1  0
  3  4  1  0
 26 27  1  0
 10 14  1  0
M  END
> <minimizedAffinity>
-5.73055

> <CNNscore>
0.3292629421

> <CNNaffinity>
4.8171525002

> <CNN_VS>
1.5861097574

> <CNNaffinity_variance>
0.0359263234

$$$$



 27 30  0  0  0  0  0  0  0  0999 V2000
   -3.9278   48.6221    9.6098 O   0  0  0  0  0  0  0  0  0  0  0  0
   -3.5618   48.4815   10.7709 C   0  0  0  0  0  0  0  0  0  0  0  0
   -4.1486   49.0401   11.8939 N   0  0  0  0  0  0  0  0  0  0  0  0
   -3.7653   48.7813   12.7630 H   0  0  0  0  0  0  0  0  0  0  0  0
   -2.3945   47.5933   11.0479 C   0  0  0  0  0  0  0  0  0  0  0  0
   -2.5276   46.6679   12.1408 C   0  0  0  0  0  0  0  0  0  0  0  0
   -1.5142   45.7616   12.5306 C   0  0  0  0  0  0  0  0  0  0  0  0
   -0.3575   45.8373   11.7392 C   0  0  0  0  0  0  0  0  0  0  0  0
    0.7883   45.1418   11.8117 N   0  0  0  0  0  0  0  0  0  0  0  0
    1.5436   45.6101   10.7997 N   0  0  0  0  0  0  0  0  0  0  0  0
    0.9514   46.5969   10.0630 C   0  0  0  0  0  0  0  0  0  0  0  0
   -0.2733   46.7709   10.6432 C   0  0  0  0  0  0  0  0  0  0  0  0
   -1.2425   47.6768   10.2282 C   0  0  0  0  0  0  0  0  0  0  0  0
    2.4470   45.2697   10.6067 H   0  0  0  0  0  0  0  0  0  0  0  0
   -5.2363   49.9402   11.9295 C   0  0  0  0  0  0  0  0  0  0  0  0
   -6.3385   49.6483   11.1220 C   0  0  0  0  0  0  0  0  0  0  0  0
   -7.4444   50.4969   11.1162 C   0  0  0  0  0  0  0  0  0  0  0  0
   -8.7942   50.1243   10.1154 Cl  0  0  0  0  0  0  0  0  0  0  0  0
   -7.4666   51.6409   11.9099 C   0  0  0  0  0  0  0  0  0  0  0  0
   -6.3738   51.9529   12.7290 C   0  0  0  0  0  0  0  0  0  0  0  0
   -5.2668   51.0870   12.7315 C   0  0  0  0  0  0  0  0  0  0  0  0
   -6.4163   53.1591   13.5533 C   0  0  0  0  0  0  0  0  0  0  0  0
   -5.6613   53.4382   14.6009 N   0  0  0  0  0  0  0  0  0  0  0  0
   -6.0570   54.6716   15.0561 N   0  0  0  0  0  0  0  0  0  0  0  0
   -7.0406   55.1563   14.3149 N   0  0  0  0  0  0  0  0  0  0  0  0
   -7.2673   54.2205   13.3842 N   0  0  0  0  0  0  0  0  0  0  0  0
   -7.9495   54.2856   12.6775 H   0  0  0  0  0  0  0  0  0  0  0  0
  1  2  2  0
  2  3  1  0
  3 15  1  0
 15 16  2  0
 16 17  1  0
 17 18  1  0
 17 19  2  0
 19 20  1  0
 20 22  1  0
 22 23  2  0
 23 24  1  0
 24 25  2  0
 25 26  1  0
 20 21  2  0
  2  5  1  0
  5  6  1  0
  6  7  2  0
  7  8  1  0
  8  9  2  0
  9 10  1  0
 10 11  1  0
 11 12  2  0
 12 13  1  0
 21 15  1  0
 13  5  2  0
 26 22  1  0
 12  8  1  0
  3  4  1  0
 26 27  1  0
 10 14  1  0
M  END
> <minimizedAffinity>
-7.10402

> <CNNscore>
0.3091693223

> <CNNaffinity>
5.0172576904

> <CNN_VS>
1.5511821508

> <CNNaffinity_variance>
0.2648334503

$$$$



 27 30  0  0  0  0  0  0  0  0999 V2000
   -8.3225   52.5265    9.3952 O   0  0  0  0  0  0  0  0  0  0  0  0
   -7.3024   53.1576    9.6457 C   0  0  0  0  0  0  0  0  0  0  0  0
   -6.5056   53.8321    8.7360 N   0  0  0  0  0  0  0  0  0  0  0  0
   -5.7490   54.3401    9.1084 H   0  0  0  0  0  0  0  0  0  0  0  0
   -6.8638   53.2685   11.0682 C   0  0  0  0  0  0  0  0  0  0  0  0
   -7.3024   54.4300   11.7944 C   0  0  0  0  0  0  0  0  0  0  0  0
   -6.9725   54.6820   13.1464 C   0  0  0  0  0  0  0  0  0  0  0  0
   -6.1800   53.6801   13.7280 C   0  0  0  0  0  0  0  0  0  0  0  0
   -5.6841   53.5811   14.9714 N   0  0  0  0  0  0  0  0  0  0  0  0
   -5.0152   52.4122   14.9865 N   0  0  0  0  0  0  0  0  0  0  0  0
   -5.0365   51.7341   13.8004 C   0  0  0  0  0  0  0  0  0  0  0  0
   -5.7755   52.5244   12.9660 C   0  0  0  0  0  0  0  0  0  0  0  0
   -6.0759   52.2393   11.6391 C   0  0  0  0  0  0  0  0  0  0  0  0
   -4.5498   52.0744   15.7856 H   0  0  0  0  0  0  0  0  0  0  0  0
   -6.6590   53.8713    7.3326 C   0  0  0  0  0  0  0  0  0  0  0  0
   -6.0926   52.8287    6.5950 C   0  0  0  0  0  0  0  0  0  0  0  0
   -6.2131   52.8096    5.2064 C   0  0  0  0  0  0  0  0  0  0  0  0
   -5.5091   51.5188    4.3115 Cl  0  0  0  0  0  0  0  0  0  0  0  0
   -6.8954   53.8231    4.5381 C   0  0  0  0  0  0  0  0  0  0  0  0
   -7.4731   54.8777    5.2568 C   0  0  0  0  0  0  0  0  0  0  0  0
   -7.3506   54.8835    6.6569 C   0  0  0  0  0  0  0  0  0  0  0  0
   -8.1836   55.9325    4.5365 C   0  0  0  0  0  0  0  0  0  0  0  0
   -9.3108   55.8167    3.8572 N   0  0  0  0  0  0  0  0  0  0  0  0
   -9.5965   57.0602    3.3503 N   0  0  0  0  0  0  0  0  0  0  0  0
   -8.6691   57.9379    3.6991 N   0  0  0  0  0  0  0  0  0  0  0  0
   -7.7909   57.2417    4.4323 N   0  0  0  0  0  0  0  0  0  0  0  0
   -6.9772   57.6176    4.8394 H   0  0  0  0  0  0  0  0  0  0  0  0
  1  2  2  0
  2  3  1  0
  3 15  1  0
 15 16  2  0
 16 17  1  0
 17 18  1  0
 17 19  2  0
 19 20  1  0
 20 22  1  0
 22 23  2  0
 23 24  1  0
 24 25  2  0
 25 26  1  0
 20 21  2  0
  2  5  1  0
  5  6  1  0
  6  7  2  0
  7  8  1  0
  8  9  2  0
  9 10  1  0
 10 11  1  0
 11 12  2  0
 12 13  1  0
 21 15  1  0
 13  5  2  0
 26 22  1  0
 12  8  1  0
  3  4  1  0
 26 27  1  0
 10 14  1  0
M  END
> <minimizedAffinity>
-7.13627

> <CNNscore>
0.2920290232

> <CNNaffinity>
5.2554359436

> <CNN_VS>
1.5347398520

> <CNNaffinity_variance>
0.7742696404

$$$$



 27 30  0  0  0  0  0  0  0  0999 V2000
   -6.9536   50.6650    8.8258 O   0  0  0  0  0  0  0  0  0  0  0  0
   -7.3158   49.7115    9.5051 C   0  0  0  0  0  0  0  0  0  0  0  0
   -7.0796   49.5247   10.8567 N   0  0  0  0  0  0  0  0  0  0  0  0
   -7.4894   48.7294   11.2673 H   0  0  0  0  0  0  0  0  0  0  0  0
   -8.1309   48.6425    8.8563 C   0  0  0  0  0  0  0  0  0  0  0  0
   -8.3155   47.4252    9.5998 C   0  0  0  0  0  0  0  0  0  0  0  0
   -9.0591   46.3198    9.1250 C   0  0  0  0  0  0  0  0  0  0  0  0
   -9.6185   46.5227    7.8538 C   0  0  0  0  0  0  0  0  0  0  0  0
  -10.3744   45.7086    7.1004 N   0  0  0  0  0  0  0  0  0  0  0  0
  -10.6453   46.4172    5.9875 N   0  0  0  0  0  0  0  0  0  0  0  0
  -10.0913   47.6661    5.9646 C   0  0  0  0  0  0  0  0  0  0  0  0
   -9.4198   47.7659    7.1504 C   0  0  0  0  0  0  0  0  0  0  0  0
   -8.6976   48.8737    7.5790 C   0  0  0  0  0  0  0  0  0  0  0  0
  -11.1965   46.0648    5.2519 H   0  0  0  0  0  0  0  0  0  0  0  0
   -6.3153   50.3499   11.7109 C   0  0  0  0  0  0  0  0  0  0  0  0
   -5.0185   49.9304   12.0182 C   0  0  0  0  0  0  0  0  0  0  0  0
   -4.2138   50.7037   12.8534 C   0  0  0  0  0  0  0  0  0  0  0  0
   -2.6187   50.1731   13.2234 Cl  0  0  0  0  0  0  0  0  0  0  0  0
   -4.6875   51.8980   13.3904 C   0  0  0  0  0  0  0  0  0  0  0  0
   -5.9837   52.3396   13.0949 C   0  0  0  0  0  0  0  0  0  0  0  0
   -6.7841   51.5551   12.2468 C   0  0  0  0  0  0  0  0  0  0  0  0
   -6.4624   53.5952   13.6699 C   0  0  0  0  0  0  0  0  0  0  0  0
   -7.6473   54.1531   13.4964 N   0  0  0  0  0  0  0  0  0  0  0  0
   -7.6455   55.3187   14.2220 N   0  0  0  0  0  0  0  0  0  0  0  0
   -6.4854   55.4926   14.8351 N   0  0  0  0  0  0  0  0  0  0  0  0
   -5.7493   54.4275   14.4932 N   0  0  0  0  0  0  0  0  0  0  0  0
   -4.8252   54.2649   14.7913 H   0  0  0  0  0  0  0  0  0  0  0  0
  1  2  2  0
  2  3  1  0
  3 15  1  0
 15 16  2  0
 16 17  1  0
 17 18  1  0
 17 19  2  0
 19 20  1  0
 20 22  1  0
 22 23  2  0
 23 24  1  0
 24 25  2  0
 25 26  1  0
 20 21  2  0
  2  5  1  0
  5  6  1  0
  6  7  2  0
  7  8  1  0
  8  9  2  0
  9 10  1  0
 10 11  1  0
 11 12  2  0
 12 13  1  0
 21 15  1  0
 13  5  2  0
 26 22  1  0
 12  8  1  0
  3  4  1  0
 26 27  1  0
 10 14  1  0
M  END
> <minimizedAffinity>
-6.22213

> <CNNscore>
0.2919183969

> <CNNaffinity>
5.2394213676

> <CNN_VS>
1.5294834375

> <CNNaffinity_variance>
0.1637925655

$$$$



 27 30  0  0  0  0  0  0  0  0999 V2000
   -9.8125   53.9503    7.0018 O   0  0  0  0  0  0  0  0  0  0  0  0
   -8.6771   54.4047    6.9238 C   0  0  0  0  0  0  0  0  0  0  0  0
   -8.0638   55.2521    7.8311 N   0  0  0  0  0  0  0  0  0  0  0  0
   -7.1235   55.4810    7.6504 H   0  0  0  0  0  0  0  0  0  0  0  0
   -7.8226   53.9947    5.7705 C   0  0  0  0  0  0  0  0  0  0  0  0
   -7.4041   55.0353    4.8702 C   0  0  0  0  0  0  0  0  0  0  0  0
   -6.5948   54.8109    3.7322 C   0  0  0  0  0  0  0  0  0  0  0  0
   -6.2211   53.4686    3.5638 C   0  0  0  0  0  0  0  0  0  0  0  0
   -5.4686   52.8919    2.6136 N   0  0  0  0  0  0  0  0  0  0  0  0
   -5.4213   51.5889    2.9511 N   0  0  0  0  0  0  0  0  0  0  0  0
   -6.1209   51.2727    4.0815 C   0  0  0  0  0  0  0  0  0  0  0  0
   -6.6520   52.4599    4.5002 C   0  0  0  0  0  0  0  0  0  0  0  0
   -7.4460   52.6369    5.6275 C   0  0  0  0  0  0  0  0  0  0  0  0
   -4.9240   50.9200    2.4271 H   0  0  0  0  0  0  0  0  0  0  0  0
   -8.6389   55.8241    8.9873 C   0  0  0  0  0  0  0  0  0  0  0  0
   -8.1437   55.4064   10.2252 C   0  0  0  0  0  0  0  0  0  0  0  0
   -8.6684   55.9370   11.4025 C   0  0  0  0  0  0  0  0  0  0  0  0
   -8.0485   55.4118   12.9199 Cl  0  0  0  0  0  0  0  0  0  0  0  0
   -9.6876   56.8851   11.3625 C   0  0  0  0  0  0  0  0  0  0  0  0
  -10.1987   57.3203   10.1329 C   0  0  0  0  0  0  0  0  0  0  0  0
   -9.6579   56.7831    8.9521 C   0  0  0  0  0  0  0  0  0  0  0  0
  -11.2695   58.3150   10.1127 C   0  0  0  0  0  0  0  0  0  0  0  0
  -11.3190   59.4498   10.7874 N   0  0  0  0  0  0  0  0  0  0  0  0
  -12.5079   60.0532   10.4593 N   0  0  0  0  0  0  0  0  0  0  0  0
  -13.1927   59.3140    9.6010 N   0  0  0  0  0  0  0  0  0  0  0  0
  -12.4291   58.2352    9.3859 N   0  0  0  0  0  0  0  0  0  0  0  0
  -12.6672   57.4890    8.7894 H   0  0  0  0  0  0  0  0  0  0  0  0
  1  2  2  0
  2  3  1  0
  3 15  1  0
 15 16  2  0
 16 17  1  0
 17 18  1  0
 17 19  2  0
 19 20  1  0
 20 22  1  0
 22 23  2  0
 23 24  1  0
 24 25  2  0
 25 26  1  0
 20 21  2  0
  2  5  1  0
  5  6  1  0
  6  7  2  0
  7  8  1  0
  8  9  2  0
  9 10  1  0
 10 11  1  0
 11 12  2  0
 12 13  1  0
 21 15  1  0
 13  5  2  0
 26 22  1  0
 12  8  1  0
  3  4  1  0
 26 27  1  0
 10 14  1  0
M  END
> <minimizedAffinity>
-6.61084

> <CNNscore>
0.2741771340

> <CNNaffinity>
4.4747962952

> <CNN_VS>
1.2268868685

> <CNNaffinity_variance>
0.3835973442

$$$$



 27 30  0  0  0  0  0  0  0  0999 V2000
   -9.0956   55.6080   13.4470 O   0  0  0  0  0  0  0  0  0  0  0  0
   -9.1766   55.7632   12.2341 C   0  0  0  0  0  0  0  0  0  0  0  0
   -8.5485   55.0035   11.2617 N   0  0  0  0  0  0  0  0  0  0  0  0
   -8.7639   55.2236   10.3266 H   0  0  0  0  0  0  0  0  0  0  0  0
  -10.0641   56.8436   11.7112 C   0  0  0  0  0  0  0  0  0  0  0  0
   -9.6270   57.5244   10.5221 C   0  0  0  0  0  0  0  0  0  0  0  0
  -10.3525   58.5690    9.9034 C   0  0  0  0  0  0  0  0  0  0  0  0
  -11.5576   58.8781   10.5530 C   0  0  0  0  0  0  0  0  0  0  0  0
  -12.4908   59.7961   10.2559 N   0  0  0  0  0  0  0  0  0  0  0  0
  -13.4396   59.6451   11.1999 N   0  0  0  0  0  0  0  0  0  0  0  0
  -13.1708   58.6711   12.1199 C   0  0  0  0  0  0  0  0  0  0  0  0
  -11.9639   58.1588   11.7352 C   0  0  0  0  0  0  0  0  0  0  0  0
  -11.2824   57.1296   12.3745 C   0  0  0  0  0  0  0  0  0  0  0  0
  -14.2585   60.1909   11.2250 H   0  0  0  0  0  0  0  0  0  0  0  0
   -7.6328   53.9474   11.4638 C   0  0  0  0  0  0  0  0  0  0  0  0
   -8.0784   52.6505   11.1961 C   0  0  0  0  0  0  0  0  0  0  0  0
   -7.2200   51.5666   11.3732 C   0  0  0  0  0  0  0  0  0  0  0  0
   -7.7839   49.9748   11.0401 Cl  0  0  0  0  0  0  0  0  0  0  0  0
   -5.9142   51.7590   11.8168 C   0  0  0  0  0  0  0  0  0  0  0  0
   -5.4447   53.0504   12.0898 C   0  0  0  0  0  0  0  0  0  0  0  0
   -6.3168   54.1364   11.9019 C   0  0  0  0  0  0  0  0  0  0  0  0
   -4.0712   53.2308   12.5560 C   0  0  0  0  0  0  0  0  0  0  0  0
   -3.6781   53.5840   13.7668 N   0  0  0  0  0  0  0  0  0  0  0  0
   -2.3062   53.6305   13.7392 N   0  0  0  0  0  0  0  0  0  0  0  0
   -1.8462   53.3175   12.5382 N   0  0  0  0  0  0  0  0  0  0  0  0
   -2.9375   53.0716   11.8020 N   0  0  0  0  0  0  0  0  0  0  0  0
   -2.9270   52.8127   10.8522 H   0  0  0  0  0  0  0  0  0  0  0  0
  1  2  2  0
  2  3  1  0
  3 15  1  0
 15 16  2  0
 16 17  1  0
 17 18  1  0
 17 19  2  0
 19 20  1  0
 20 22  1  0
 22 23  2  0
 23 24  1  0
 24 25  2  0
 25 26  1  0
 20 21  2  0
  2  5  1  0
  5  6  1  0
  6  7  2  0
  7  8  1  0
  8  9  2  0
  9 10  1  0
 10 11  1  0
 11 12  2  0
 12 13  1  0
 21 15  1  0
 13  5  2  0
 26 22  1  0
 12  8  1  0
  3  4  1  0
 26 27  1  0
 10 14  1  0
M  END
> <minimizedAffinity>
-8.28910

> <CNNscore>
0.2583854496

> <CNNaffinity>
4.5574784279

> <CNN_VS>
1.1775860786

> <CNNaffinity_variance>
1.2894678116

$$$$



 27 30  0  0  0  0  0  0  0  0999 V2000
   -6.2807   55.3768    8.0050 O   0  0  0  0  0  0  0  0  0  0  0  0
   -7.3926   55.3479    7.4904 C   0  0  0  0  0  0  0  0  0  0  0  0
   -8.6026   55.5610    8.1290 N   0  0  0  0  0  0  0  0  0  0  0  0
   -9.4052   55.5593    7.5589 H   0  0  0  0  0  0  0  0  0  0  0  0
   -7.4923   55.1019    6.0215 C   0  0  0  0  0  0  0  0  0  0  0  0
   -6.5600   54.1644    5.4553 C   0  0  0  0  0  0  0  0  0  0  0  0
   -6.5242   53.8237    4.0831 C   0  0  0  0  0  0  0  0  0  0  0  0
   -7.4989   54.4796    3.3152 C   0  0  0  0  0  0  0  0  0  0  0  0
   -7.7611   54.4042    2.0009 N   0  0  0  0  0  0  0  0  0  0  0  0
   -8.8087   55.2285    1.8078 N   0  0  0  0  0  0  0  0  0  0  0  0
   -9.2476   55.8581    2.9384 C   0  0  0  0  0  0  0  0  0  0  0  0
   -8.4236   55.4012    3.9280 C   0  0  0  0  0  0  0  0  0  0  0  0
   -8.4923   55.7641    5.2681 C   0  0  0  0  0  0  0  0  0  0  0  0
   -9.2236   55.3659    0.9257 H   0  0  0  0  0  0  0  0  0  0  0  0
   -8.8120   55.7805    9.5084 C   0  0  0  0  0  0  0  0  0  0  0  0
  -10.0150   56.3809    9.8881 C   0  0  0  0  0  0  0  0  0  0  0  0
  -10.2813   56.6207   11.2352 C   0  0  0  0  0  0  0  0  0  0  0  0
  -11.7675   57.3620   11.6872 Cl  0  0  0  0  0  0  0  0  0  0  0  0
   -9.3581   56.2677   12.2161 C   0  0  0  0  0  0  0  0  0  0  0  0
   -8.1459   55.6629   11.8593 C   0  0  0  0  0  0  0  0  0  0  0  0
   -7.8906   55.4203   10.4987 C   0  0  0  0  0  0  0  0  0  0  0  0
   -7.1896   55.3015   12.9039 C   0  0  0  0  0  0  0  0  0  0  0  0
   -7.3981   55.2881   14.2084 N   0  0  0  0  0  0  0  0  0  0  0  0
   -6.2214   54.8897   14.7928 N   0  0  0  0  0  0  0  0  0  0  0  0
   -5.2924   54.6612   13.8781 N   0  0  0  0  0  0  0  0  0  0  0  0
   -5.8885   54.9177   12.7067 N   0  0  0  0  0  0  0  0  0  0  0  0
   -5.4532   54.8412   11.8270 H   0  0  0  0  0  0  0  0  0  0  0  0
  1  2  2  0
  2  3  1  0
  3 15  1  0
 15 16  2  0
 16 17  1  0
 17 18  1  0
 17 19  2  0
 19 20  1  0
 20 22  1  0
 22 23  2  0
 23 24  1  0
 24 25  2  0
 25 26  1  0
 20 21  2  0
  2  5  1  0
  5  6  1  0
  6  7  2  0
  7  8  1  0
  8  9  2  0
  9 10  1  0
 10 11  1  0
 11 12  2  0
 12 13  1  0
 21 15  1  0
 13  5  2  0
 26 22  1  0
 12  8  1  0
  3  4  1  0
 26 27  1  0
 10 14  1  0
M  END
> <minimizedAffinity>
-8.63571

> <CNNscore>
0.2398458719

> <CNNaffinity>
4.5859580040

> <CNN_VS>
1.0999231339

> <CNNaffinity_variance>
0.9887980819

$$$$
