


 26 27  0  0  0  0  0  0  0  0999 V2000
   37.3865   -0.3213   11.4930 C   0  0  0  0  0  0  0  0  0  0  0  0
   38.7832   -0.4072   11.8196 O   0  0  0  0  0  0  0  0  0  0  0  0
   39.0999    0.7065   12.6829 C   0  0  0  0  0  0  0  0  0  0  0  0
   37.7875    1.1450   13.3280 C   0  0  0  0  0  0  0  0  0  0  0  0
   36.8091    0.9274   12.1921 C   0  0  0  0  0  0  0  0  0  0  0  0
   35.4693    0.7941   12.6539 O   0  0  0  0  0  0  0  0  0  0  0  0
   35.4170    0.0611   13.2871 H   0  0  0  0  0  0  0  0  0  0  0  0
   35.0819   -5.1753   12.5729 O   0  0  0  0  0  0  0  0  0  0  0  0
   35.5898   -4.0903   12.3196 C   0  0  0  0  0  0  0  0  0  0  0  0
   36.8661   -3.6904   12.9267 C   0  0  0  0  0  0  0  0  0  0  0  0
   37.3687   -2.4885   12.6386 C   0  0  0  0  0  0  0  0  0  0  0  0
   36.7253   -1.5976   11.7952 N   0  0  0  0  0  0  0  0  0  0  0  0
   35.5162   -1.9288   11.1868 C   0  0  0  0  0  0  0  0  0  0  0  0
   34.8638   -1.1908   10.4488 O   0  0  0  0  0  0  0  0  0  0  0  0
   35.0295   -3.1794   11.4753 N   0  0  0  0  0  0  0  0  0  0  0  0
   34.1933   -3.4442   11.0283 H   0  0  0  0  0  0  0  0  0  0  0  0
   40.1972    0.3098   13.6742 C   0  0  0  0  0  0  0  0  0  0  0  0
   40.4062   -1.1073   13.7031 O   0  0  0  0  0  0  0  0  0  0  0  0
   39.5900   -1.5488   13.9855 H   0  0  0  0  0  0  0  0  0  0  0  0
   37.8409    2.4956   13.7485 O   0  0  0  0  0  0  0  0  0  0  0  0
   36.5252    3.3767   13.4928 P   0  0  0  0  0  0  0  0  0  0  0  0
   36.4492    4.7118   14.1437 O   0  0  0  0  0  0  0  0  0  0  0  0
   36.3666    3.3999   11.9062 O   0  0  0  0  0  0  0  0  0  0  0  0
   35.3402    2.3917   13.9115 O   0  0  0  0  0  0  0  0  0  0  0  0
   37.0447    3.9772   11.5218 H   0  0  0  0  0  0  0  0  0  0  0  0
   35.3287    2.2915   14.8763 H   0  0  0  0  0  0  0  0  0  0  0  0
  8  9  2  0
  9 10  1  0
 10 11  2  0
 11 12  1  0
  1 12  1  0
  1  2  1  0
  2  3  1  0
  3 17  1  0
 17 18  1  0
  3  4  1  0
  4 20  1  0
 20 21  1  0
 21 22  2  0
 21 23  1  0
 21 24  1  0
  4  5  1  0
  5  6  1  0
 12 13  1  0
 13 14  2  0
 13 15  1  0
 15  9  1  0
  5  1  1  0
 18 19  1  0
 23 25  1  0
 24 26  1  0
  6  7  1  0
 15 16  1  0
M  END
> <minimizedAffinity>
-7.10132

> <CNNscore>
0.9586755633

> <CNNaffinity>
4.7750740051

> <CNN_VS>
4.5777468681

> <CNNaffinity_variance>
0.0199054647

$$$$



 26 27  0  0  0  0  0  0  0  0999 V2000
   37.3195   -2.2212   11.8646 C   0  0  0  0  0  0  0  0  0  0  0  0
   38.6343   -2.4179   12.4100 O   0  0  0  0  0  0  0  0  0  0  0  0
   38.9720   -1.2394   13.1736 C   0  0  0  0  0  0  0  0  0  0  0  0
   37.6521   -0.5725   13.5525 C   0  0  0  0  0  0  0  0  0  0  0  0
   36.8199   -0.8319   12.3136 C   0  0  0  0  0  0  0  0  0  0  0  0
   35.4233   -0.7496   12.5763 O   0  0  0  0  0  0  0  0  0  0  0  0
   35.1884   -1.3787   13.2762 H   0  0  0  0  0  0  0  0  0  0  0  0
   34.2728   -6.5912   13.1523 O   0  0  0  0  0  0  0  0  0  0  0  0
   34.9487   -5.6156   12.8515 C   0  0  0  0  0  0  0  0  0  0  0  0
   36.1432   -5.2532   13.6255 C   0  0  0  0  0  0  0  0  0  0  0  0
   36.8347   -4.1676   13.2738 C   0  0  0  0  0  0  0  0  0  0  0  0
   36.4614   -3.3619   12.2105 N   0  0  0  0  0  0  0  0  0  0  0  0
   35.3413   -3.6638   11.4384 C   0  0  0  0  0  0  0  0  0  0  0  0
   34.9220   -2.9907   10.4971 O   0  0  0  0  0  0  0  0  0  0  0  0
   34.6592   -4.7986   11.8002 N   0  0  0  0  0  0  0  0  0  0  0  0
   33.8846   -5.0466   11.2455 H   0  0  0  0  0  0  0  0  0  0  0  0
   39.8603   -1.6177   14.3618 C   0  0  0  0  0  0  0  0  0  0  0  0
   39.1334   -2.3341   15.3674 O   0  0  0  0  0  0  0  0  0  0  0  0
   38.4182   -1.7751   15.7093 H   0  0  0  0  0  0  0  0  0  0  0  0
   37.8234    0.8083   13.8132 O   0  0  0  0  0  0  0  0  0  0  0  0
   37.0999    1.8221   12.8025 P   0  0  0  0  0  0  0  0  0  0  0  0
   37.6919    3.1766   12.6391 O   0  0  0  0  0  0  0  0  0  0  0  0
   36.9517    0.9927   11.4486 O   0  0  0  0  0  0  0  0  0  0  0  0
   35.5909    1.8415   13.3245 O   0  0  0  0  0  0  0  0  0  0  0  0
   37.8200    0.9083   11.0244 H   0  0  0  0  0  0  0  0  0  0  0  0
   35.5448    2.3283   14.1623 H   0  0  0  0  0  0  0  0  0  0  0  0
  8  9  2  0
  9 10  1  0
 10 11  2  0
 11 12  1  0
  1 12  1  0
  1  2  1  0
  2  3  1  0
  3 17  1  0
 17 18  1  0
  3  4  1  0
  4 20  1  0
 20 21  1  0
 21 22  2  0
 21 23  1  0
 21 24  1  0
  4  5  1  0
  5  6  1  0
 12 13  1  0
 13 14  2  0
 13 15  1  0
 15  9  1  0
  5  1  1  0
 18 19  1  0
 23 25  1  0
 24 26  1  0
  6  7  1  0
 15 16  1  0
M  END
> <minimizedAffinity>
-6.98026

> <CNNscore>
0.8900312781

> <CNNaffinity>
5.0102577209

> <CNN_VS>
4.4592862129

> <CNNaffinity_variance>
0.1225772128

$$$$



 26 27  0  0  0  0  0  0  0  0999 V2000
   35.6635   -8.0436   12.9507 C   0  0  0  0  0  0  0  0  0  0  0  0
   36.2715   -8.8130   11.9003 O   0  0  0  0  0  0  0  0  0  0  0  0
   35.4322   -9.9633   11.6586 C   0  0  0  0  0  0  0  0  0  0  0  0
   34.0392   -9.6011   12.1674 C   0  0  0  0  0  0  0  0  0  0  0  0
   34.3740   -8.7695   13.3885 C   0  0  0  0  0  0  0  0  0  0  0  0
   33.3009   -7.9151   13.7686 O   0  0  0  0  0  0  0  0  0  0  0  0
   33.0670   -7.3391   13.0240 H   0  0  0  0  0  0  0  0  0  0  0  0
   34.9889   -2.8001   11.5055 O   0  0  0  0  0  0  0  0  0  0  0  0
   35.1293   -3.9752   11.8196 C   0  0  0  0  0  0  0  0  0  0  0  0
   35.7294   -4.3492   13.1070 C   0  0  0  0  0  0  0  0  0  0  0  0
   35.8834   -5.6429   13.3951 C   0  0  0  0  0  0  0  0  0  0  0  0
   35.5077   -6.6483   12.5193 N   0  0  0  0  0  0  0  0  0  0  0  0
   34.9270   -6.3495   11.2883 C   0  0  0  0  0  0  0  0  0  0  0  0
   34.5901   -7.1751   10.4399 O   0  0  0  0  0  0  0  0  0  0  0  0
   34.7533   -5.0142   11.0224 N   0  0  0  0  0  0  0  0  0  0  0  0
   34.3137   -4.7845   10.1719 H   0  0  0  0  0  0  0  0  0  0  0  0
   35.4896  -10.3564   10.1800 C   0  0  0  0  0  0  0  0  0  0  0  0
   34.2586  -10.0757    9.5029 O   0  0  0  0  0  0  0  0  0  0  0  0
   33.5420  -10.5879    9.9092 H   0  0  0  0  0  0  0  0  0  0  0  0
   33.2857  -10.7563   12.4861 O   0  0  0  0  0  0  0  0  0  0  0  0
   33.7838  -11.6087   13.7502 P   0  0  0  0  0  0  0  0  0  0  0  0
   33.1301  -12.9208   14.0011 O   0  0  0  0  0  0  0  0  0  0  0  0
   35.3682  -11.6757   13.5829 O   0  0  0  0  0  0  0  0  0  0  0  0
   33.6403  -10.5796   14.9628 O   0  0  0  0  0  0  0  0  0  0  0  0
   35.5916  -12.2827   12.8600 H   0  0  0  0  0  0  0  0  0  0  0  0
   32.7010  -10.4498   15.1673 H   0  0  0  0  0  0  0  0  0  0  0  0
  8  9  2  0
  9 10  1  0
 10 11  2  0
 11 12  1  0
  1 12  1  0
  1  2  1  0
  2  3  1  0
  3 17  1  0
 17 18  1  0
  3  4  1  0
  4 20  1  0
 20 21  1  0
 21 22  2  0
 21 23  1  0
 21 24  1  0
  4  5  1  0
  5  6  1  0
 12 13  1  0
 13 14  2  0
 13 15  1  0
 15  9  1  0
  5  1  1  0
 18 19  1  0
 23 25  1  0
 24 26  1  0
  6  7  1  0
 15 16  1  0
M  END
> <minimizedAffinity>
-5.39441

> <CNNscore>
0.7313805819

> <CNNaffinity>
4.1152443886

> <CNN_VS>
3.0098097324

> <CNNaffinity_variance>
0.0648275241

$$$$



 26 27  0  0  0  0  0  0  0  0999 V2000
   36.2917   -3.6921   13.3568 C   0  0  0  0  0  0  0  0  0  0  0  0
   35.7187   -2.4031   13.0826 O   0  0  0  0  0  0  0  0  0  0  0  0
   36.7311   -1.6035   12.4334 C   0  0  0  0  0  0  0  0  0  0  0  0
   37.7272   -2.5803   11.8136 C   0  0  0  0  0  0  0  0  0  0  0  0
   37.7501   -3.6827   12.8523 C   0  0  0  0  0  0  0  0  0  0  0  0
   38.2101   -4.9183   12.3158 O   0  0  0  0  0  0  0  0  0  0  0  0
   37.6494   -5.1743   11.5669 H   0  0  0  0  0  0  0  0  0  0  0  0
   33.1945   -7.7588   11.3802 O   0  0  0  0  0  0  0  0  0  0  0  0
   33.8896   -6.8465   11.8088 C   0  0  0  0  0  0  0  0  0  0  0  0
   34.4605   -6.8992   13.1610 C   0  0  0  0  0  0  0  0  0  0  0  0
   35.1922   -5.8703   13.5927 C   0  0  0  0  0  0  0  0  0  0  0  0
   35.4252   -4.7473   12.8157 N   0  0  0  0  0  0  0  0  0  0  0  0
   34.9136   -4.6486   11.5233 C   0  0  0  0  0  0  0  0  0  0  0  0
   35.0467   -3.6796   10.7761 O   0  0  0  0  0  0  0  0  0  0  0  0
   34.1861   -5.7283   11.0887 N   0  0  0  0  0  0  0  0  0  0  0  0
   33.8449   -5.6913   10.1660 H   0  0  0  0  0  0  0  0  0  0  0  0
   36.0820   -0.6368   11.4392 C   0  0  0  0  0  0  0  0  0  0  0  0
   37.0584    0.0886   10.6821 O   0  0  0  0  0  0  0  0  0  0  0  0
   37.6054    0.6182   11.2831 H   0  0  0  0  0  0  0  0  0  0  0  0
   38.9962   -1.9811   11.6285 O   0  0  0  0  0  0  0  0  0  0  0  0
   39.6336   -1.2474   12.9045 P   0  0  0  0  0  0  0  0  0  0  0  0
   39.1461   -1.6513   14.2502 O   0  0  0  0  0  0  0  0  0  0  0  0
   41.2083   -1.3891   12.6969 O   0  0  0  0  0  0  0  0  0  0  0  0
   39.4134    0.3010   12.5818 O   0  0  0  0  0  0  0  0  0  0  0  0
   41.4757   -2.3058   12.8671 H   0  0  0  0  0  0  0  0  0  0  0  0
   38.4730    0.5201   12.6748 H   0  0  0  0  0  0  0  0  0  0  0  0
  8  9  2  0
  9 10  1  0
 10 11  2  0
 11 12  1  0
  1 12  1  0
  1  2  1  0
  2  3  1  0
  3 17  1  0
 17 18  1  0
  3  4  1  0
  4 20  1  0
 20 21  1  0
 21 22  2  0
 21 23  1  0
 21 24  1  0
  4  5  1  0
  5  6  1  0
 12 13  1  0
 13 14  2  0
 13 15  1  0
 15  9  1  0
  5  1  1  0
 18 19  1  0
 23 25  1  0
 24 26  1  0
  6  7  1  0
 15 16  1  0
M  END
> <minimizedAffinity>
-6.07125

> <CNNscore>
0.6986624599

> <CNNaffinity>
3.9951603413

> <CNN_VS>
2.7912685871

> <CNNaffinity_variance>
0.0519284606

$$$$



 26 27  0  0  0  0  0  0  0  0999 V2000
   38.0441   -0.9449   11.9323 C   0  0  0  0  0  0  0  0  0  0  0  0
   39.1388   -0.8954   12.8618 O   0  0  0  0  0  0  0  0  0  0  0  0
   39.2314    0.4582   13.3569 C   0  0  0  0  0  0  0  0  0  0  0  0
   37.8564    1.0906   13.1568 C   0  0  0  0  0  0  0  0  0  0  0  0
   37.4295    0.4679   11.8434 C   0  0  0  0  0  0  0  0  0  0  0  0
   36.0176    0.5008   11.6659 O   0  0  0  0  0  0  0  0  0  0  0  0
   35.5878    0.0473   12.4079 H   0  0  0  0  0  0  0  0  0  0  0  0
   34.4809   -4.9104   13.2041 O   0  0  0  0  0  0  0  0  0  0  0  0
   35.2748   -4.0187   12.9325 C   0  0  0  0  0  0  0  0  0  0  0  0
   35.5687   -3.6642   11.5377 C   0  0  0  0  0  0  0  0  0  0  0  0
   36.4588   -2.7013   11.2909 C   0  0  0  0  0  0  0  0  0  0  0  0
   37.1255   -2.0296   12.3025 N   0  0  0  0  0  0  0  0  0  0  0  0
   36.8792   -2.3210   13.6427 C   0  0  0  0  0  0  0  0  0  0  0  0
   37.4441   -1.7957   14.6018 O   0  0  0  0  0  0  0  0  0  0  0  0
   35.9414   -3.2957   13.8757 N   0  0  0  0  0  0  0  0  0  0  0  0
   35.7294   -3.4918   14.8169 H   0  0  0  0  0  0  0  0  0  0  0  0
   39.7289    0.4570   14.8048 C   0  0  0  0  0  0  0  0  0  0  0  0
   39.8961   -0.8721   15.3128 O   0  0  0  0  0  0  0  0  0  0  0  0
   39.0423   -1.3324   15.3015 H   0  0  0  0  0  0  0  0  0  0  0  0
   37.9385    2.5021   13.0879 O   0  0  0  0  0  0  0  0  0  0  0  0
   36.5919    3.3132   13.4064 P   0  0  0  0  0  0  0  0  0  0  0  0
   36.6696    4.4229   14.3935 O   0  0  0  0  0  0  0  0  0  0  0  0
   36.0357    3.7354   11.9728 O   0  0  0  0  0  0  0  0  0  0  0  0
   35.5623    2.1632   13.8155 O   0  0  0  0  0  0  0  0  0  0  0  0
   36.5880    4.4442   11.6076 H   0  0  0  0  0  0  0  0  0  0  0  0
   35.7970    1.8151   14.6900 H   0  0  0  0  0  0  0  0  0  0  0  0
  8  9  2  0
  9 10  1  0
 10 11  2  0
 11 12  1  0
  1 12  1  0
  1  2  1  0
  2  3  1  0
  3 17  1  0
 17 18  1  0
  3  4  1  0
  4 20  1  0
 20 21  1  0
 21 22  2  0
 21 23  1  0
 21 24  1  0
  4  5  1  0
  5  6  1  0
 12 13  1  0
 13 14  2  0
 13 15  1  0
 15  9  1  0
  5  1  1  0
 18 19  1  0
 23 25  1  0
 24 26  1  0
  6  7  1  0
 15 16  1  0
M  END
> <minimizedAffinity>
-6.51878

> <CNNscore>
0.6971365809

> <CNNaffinity>
4.3325524330

> <CNN_VS>
3.0203807354

> <CNNaffinity_variance>
0.6247872710

$$$$



 26 27  0  0  0  0  0  0  0  0999 V2000
   37.4536   -3.7867   12.7605 C   0  0  0  0  0  0  0  0  0  0  0  0
   38.6034   -4.6277   12.9488 O   0  0  0  0  0  0  0  0  0  0  0  0
   39.3628   -4.0896   14.0532 C   0  0  0  0  0  0  0  0  0  0  0  0
   38.3908   -3.2581   14.8865 C   0  0  0  0  0  0  0  0  0  0  0  0
   37.5129   -2.6558   13.8088 C   0  0  0  0  0  0  0  0  0  0  0  0
   36.2504   -2.2364   14.3150 O   0  0  0  0  0  0  0  0  0  0  0  0
   35.8024   -2.9896   14.7309 H   0  0  0  0  0  0  0  0  0  0  0  0
   33.0113   -6.9967   12.7334 O   0  0  0  0  0  0  0  0  0  0  0  0
   34.0012   -6.2761   12.7261 C   0  0  0  0  0  0  0  0  0  0  0  0
   35.1092   -6.5006   13.6639 C   0  0  0  0  0  0  0  0  0  0  0  0
   36.1567   -5.6746   13.6341 C   0  0  0  0  0  0  0  0  0  0  0  0
   36.2337   -4.6047   12.7575 N   0  0  0  0  0  0  0  0  0  0  0  0
   35.2142   -4.3506   11.8420 C   0  0  0  0  0  0  0  0  0  0  0  0
   35.1866   -3.4098   11.0489 O   0  0  0  0  0  0  0  0  0  0  0  0
   34.1583   -5.2269   11.8710 N   0  0  0  0  0  0  0  0  0  0  0  0
   33.4441   -5.0834   11.2088 H   0  0  0  0  0  0  0  0  0  0  0  0
   40.0539   -5.2211   14.8187 C   0  0  0  0  0  0  0  0  0  0  0  0
   39.5046   -5.3938   16.1307 O   0  0  0  0  0  0  0  0  0  0  0  0
   39.6308   -4.5803   16.6437 H   0  0  0  0  0  0  0  0  0  0  0  0
   39.0679   -2.2757   15.6483 O   0  0  0  0  0  0  0  0  0  0  0  0
   39.7840   -1.1002   14.8248 P   0  0  0  0  0  0  0  0  0  0  0  0
   40.8782   -0.3510   15.4980 O   0  0  0  0  0  0  0  0  0  0  0  0
   40.1950   -1.7793   13.4418 O   0  0  0  0  0  0  0  0  0  0  0  0
   38.5622   -0.1780   14.3698 O   0  0  0  0  0  0  0  0  0  0  0  0
   40.9448   -2.3777   13.5857 H   0  0  0  0  0  0  0  0  0  0  0  0
   38.2143    0.3003   15.1386 H   0  0  0  0  0  0  0  0  0  0  0  0
  8  9  2  0
  9 10  1  0
 10 11  2  0
 11 12  1  0
  1 12  1  0
  1  2  1  0
  2  3  1  0
  3 17  1  0
 17 18  1  0
  3  4  1  0
  4 20  1  0
 20 21  1  0
 21 22  2  0
 21 23  1  0
 21 24  1  0
  4  5  1  0
  5  6  1  0
 12 13  1  0
 13 14  2  0
 13 15  1  0
 15  9  1  0
  5  1  1  0
 18 19  1  0
 23 25  1  0
 24 26  1  0
  6  7  1  0
 15 16  1  0
M  END
> <minimizedAffinity>
-5.44380

> <CNNscore>
0.6600884795

> <CNNaffinity>
4.2917976379

> <CNN_VS>
2.8329660892

> <CNNaffinity_variance>
0.0491336994

$$$$



 26 27  0  0  0  0  0  0  0  0999 V2000
   38.5258   -0.4159   13.6538 C   0  0  0  0  0  0  0  0  0  0  0  0
   38.1643    0.9673   13.7986 O   0  0  0  0  0  0  0  0  0  0  0  0
   39.3167    1.7605   13.4400 C   0  0  0  0  0  0  0  0  0  0  0  0
   40.1900    0.8820   12.5476 C   0  0  0  0  0  0  0  0  0  0  0  0
   39.9946   -0.4784   13.1846 C   0  0  0  0  0  0  0  0  0  0  0  0
   40.2958   -1.5413   12.2871 O   0  0  0  0  0  0  0  0  0  0  0  0
   39.7445   -1.4601   11.4931 H   0  0  0  0  0  0  0  0  0  0  0  0
   34.9806   -3.1212   10.4676 O   0  0  0  0  0  0  0  0  0  0  0  0
   35.7763   -2.5090   11.1685 C   0  0  0  0  0  0  0  0  0  0  0  0
   36.3277   -3.1086   12.3907 C   0  0  0  0  0  0  0  0  0  0  0  0
   37.1736   -2.3937   13.1348 C   0  0  0  0  0  0  0  0  0  0  0  0
   37.5436   -1.1006   12.8030 N   0  0  0  0  0  0  0  0  0  0  0  0
   37.0561   -0.4866   11.6510 C   0  0  0  0  0  0  0  0  0  0  0  0
   37.3085    0.6644   11.2955 O   0  0  0  0  0  0  0  0  0  0  0  0
   36.2084   -1.2480   10.8858 N   0  0  0  0  0  0  0  0  0  0  0  0
   35.8803   -0.8433   10.0504 H   0  0  0  0  0  0  0  0  0  0  0  0
   38.8714    3.0778   12.7995 C   0  0  0  0  0  0  0  0  0  0  0  0
   39.9370    3.7118   12.0818 O   0  0  0  0  0  0  0  0  0  0  0  0
   40.6604    3.9194   12.6938 H   0  0  0  0  0  0  0  0  0  0  0  0
   41.5415    1.3025   12.5671 O   0  0  0  0  0  0  0  0  0  0  0  0
   42.3558    1.1563   11.1930 P   0  0  0  0  0  0  0  0  0  0  0  0
   43.7314    0.5950   11.2602 O   0  0  0  0  0  0  0  0  0  0  0  0
   41.3622    0.3688   10.2258 O   0  0  0  0  0  0  0  0  0  0  0  0
   42.2941    2.6274   10.5748 O   0  0  0  0  0  0  0  0  0  0  0  0
   41.3107   -0.5597   10.5016 H   0  0  0  0  0  0  0  0  0  0  0  0
   42.8698    3.2174   11.0861 H   0  0  0  0  0  0  0  0  0  0  0  0
  8  9  2  0
  9 10  1  0
 10 11  2  0
 11 12  1  0
  1 12  1  0
  1  2  1  0
  2  3  1  0
  3 17  1  0
 17 18  1  0
  3  4  1  0
  4 20  1  0
 20 21  1  0
 21 22  2  0
 21 23  1  0
 21 24  1  0
  4  5  1  0
  5  6  1  0
 12 13  1  0
 13 14  2  0
 13 15  1  0
 15  9  1  0
  5  1  1  0
 18 19  1  0
 23 25  1  0
 24 26  1  0
  6  7  1  0
 15 16  1  0
M  END
> <minimizedAffinity>
-5.41568

> <CNNscore>
0.6001738310

> <CNNaffinity>
4.1491599083

> <CNN_VS>
2.4902172089

> <CNNaffinity_variance>
0.0108056851

$$$$



 26 27  0  0  0  0  0  0  0  0999 V2000
   37.8801    0.2147   13.6392 C   0  0  0  0  0  0  0  0  0  0  0  0
   37.2284    1.4862   13.7921 O   0  0  0  0  0  0  0  0  0  0  0  0
   38.1883    2.5126   13.4589 C   0  0  0  0  0  0  0  0  0  0  0  0
   39.2410    1.8534   12.5712 C   0  0  0  0  0  0  0  0  0  0  0  0
   39.3340    0.4745   13.1917 C   0  0  0  0  0  0  0  0  0  0  0  0
   39.8676   -0.4874   12.2884 O   0  0  0  0  0  0  0  0  0  0  0  0
   39.3218   -0.5160   11.4870 H   0  0  0  0  0  0  0  0  0  0  0  0
   35.0271   -3.1593   10.3965 O   0  0  0  0  0  0  0  0  0  0  0  0
   35.6682   -2.3981   11.1097 C   0  0  0  0  0  0  0  0  0  0  0  0
   36.1645   -2.8278   12.4237 C   0  0  0  0  0  0  0  0  0  0  0  0
   36.8384   -1.9554   13.1753 C   0  0  0  0  0  0  0  0  0  0  0  0
   37.0786   -0.6537   12.7669 N   0  0  0  0  0  0  0  0  0  0  0  0
   36.6366   -0.1962   11.5270 C   0  0  0  0  0  0  0  0  0  0  0  0
   36.7804    0.9481   11.0969 O   0  0  0  0  0  0  0  0  0  0  0  0
   35.9688   -1.1164   10.7583 N   0  0  0  0  0  0  0  0  0  0  0  0
   35.6783   -0.8215    9.8650 H   0  0  0  0  0  0  0  0  0  0  0  0
   37.4789    3.7120   12.8247 C   0  0  0  0  0  0  0  0  0  0  0  0
   36.2256    3.3435   12.2364 O   0  0  0  0  0  0  0  0  0  0  0  0
   36.3776    2.6938   11.5323 H   0  0  0  0  0  0  0  0  0  0  0  0
   40.4705    2.5535   12.6153 O   0  0  0  0  0  0  0  0  0  0  0  0
   41.3509    2.3697   13.9434 P   0  0  0  0  0  0  0  0  0  0  0  0
   40.6417    2.3790   15.2506 O   0  0  0  0  0  0  0  0  0  0  0  0
   42.2176    1.0603   13.6656 O   0  0  0  0  0  0  0  0  0  0  0  0
   42.4579    3.5126   13.8074 O   0  0  0  0  0  0  0  0  0  0  0  0
   41.6474    0.2775   13.7206 H   0  0  0  0  0  0  0  0  0  0  0  0
   42.0484    4.3789   13.9579 H   0  0  0  0  0  0  0  0  0  0  0  0
  8  9  2  0
  9 10  1  0
 10 11  2  0
 11 12  1  0
  1 12  1  0
  1  2  1  0
  2  3  1  0
  3 17  1  0
 17 18  1  0
  3  4  1  0
  4 20  1  0
 20 21  1  0
 21 22  2  0
 21 23  1  0
 21 24  1  0
  4  5  1  0
  5  6  1  0
 12 13  1  0
 13 14  2  0
 13 15  1  0
 15  9  1  0
  5  1  1  0
 18 19  1  0
 23 25  1  0
 24 26  1  0
  6  7  1  0
 15 16  1  0
M  END
> <minimizedAffinity>
-5.86824

> <CNNscore>
0.5895705223

> <CNNaffinity>
3.9065809250

> <CNN_VS>
2.3032050133

> <CNNaffinity_variance>
0.2938200235

$$$$



 26 27  0  0  0  0  0  0  0  0999 V2000
   34.5419   -6.4494   12.3814 C   0  0  0  0  0  0  0  0  0  0  0  0
   33.9484   -6.9637   13.5848 O   0  0  0  0  0  0  0  0  0  0  0  0
   34.0365   -8.4044   13.5348 C   0  0  0  0  0  0  0  0  0  0  0  0
   35.1749   -8.7385   12.5741 C   0  0  0  0  0  0  0  0  0  0  0  0
   35.0178   -7.6482   11.5342 C   0  0  0  0  0  0  0  0  0  0  0  0
   36.2168   -7.4285   10.7992 O   0  0  0  0  0  0  0  0  0  0  0  0
   36.9356   -7.2071   11.4118 H   0  0  0  0  0  0  0  0  0  0  0  0
   38.2896   -2.7187   13.8219 O   0  0  0  0  0  0  0  0  0  0  0  0
   37.4445   -3.5420   13.4946 C   0  0  0  0  0  0  0  0  0  0  0  0
   37.3358   -4.8330   14.1867 C   0  0  0  0  0  0  0  0  0  0  0  0
   36.4144   -5.7076   13.7790 C   0  0  0  0  0  0  0  0  0  0  0  0
   35.5620   -5.4477   12.7183 N   0  0  0  0  0  0  0  0  0  0  0  0
   35.6173   -4.2364   12.0318 C   0  0  0  0  0  0  0  0  0  0  0  0
   34.9203   -3.9333   11.0636 O   0  0  0  0  0  0  0  0  0  0  0  0
   36.5538   -3.3403   12.4834 N   0  0  0  0  0  0  0  0  0  0  0  0
   36.5849   -2.4657   12.0324 H   0  0  0  0  0  0  0  0  0  0  0  0
   34.2057   -8.9715   14.9468 C   0  0  0  0  0  0  0  0  0  0  0  0
   33.8924  -10.3683   15.0042 O   0  0  0  0  0  0  0  0  0  0  0  0
   32.9662  -10.5027   14.7492 H   0  0  0  0  0  0  0  0  0  0  0  0
   35.0299  -10.0362   12.0275 O   0  0  0  0  0  0  0  0  0  0  0  0
   33.8128  -10.2494   11.0047 P   0  0  0  0  0  0  0  0  0  0  0  0
   33.1466  -11.5790   10.9896 O   0  0  0  0  0  0  0  0  0  0  0  0
   32.8379   -9.0196   11.2876 O   0  0  0  0  0  0  0  0  0  0  0  0
   34.4424   -9.8326    9.5976 O   0  0  0  0  0  0  0  0  0  0  0  0
   32.3843   -9.1547   12.1344 H   0  0  0  0  0  0  0  0  0  0  0  0
   35.0680  -10.5152    9.3084 H   0  0  0  0  0  0  0  0  0  0  0  0
  8  9  2  0
  9 10  1  0
 10 11  2  0
 11 12  1  0
  1 12  1  0
  1  2  1  0
  2  3  1  0
  3 17  1  0
 17 18  1  0
  3  4  1  0
  4 20  1  0
 20 21  1  0
 21 22  2  0
 21 23  1  0
 21 24  1  0
  4  5  1  0
  5  6  1  0
 12 13  1  0
 13 14  2  0
 13 15  1  0
 15  9  1  0
  5  1  1  0
 18 19  1  0
 23 25  1  0
 24 26  1  0
  6  7  1  0
 15 16  1  0
M  END
> <minimizedAffinity>
-5.25709

> <CNNscore>
0.5158556700

> <CNNaffinity>
3.9011669159

> <CNN_VS>
2.0124390125

> <CNNaffinity_variance>
0.1751786619

$$$$
