


 29 30  0  0  0  0  0  0  0  0999 V2000
  -10.2121   14.5429   21.4674 C   0  0  0  0  0  0  0  0  0  0  0  0
   -9.6757   13.5898   20.3889 C   0  0  0  0  0  0  0  0  0  0  0  0
   -8.1660   13.5842   20.5381 C   0  0  0  0  0  0  0  0  0  0  0  0
   -7.5445   13.6770   19.2495 O   0  0  0  0  0  0  0  0  0  0  0  0
   -6.1736   14.1033   19.3420 C   0  0  0  0  0  0  0  0  0  0  0  0
   -6.0766   15.5488   19.8739 C   0  0  0  0  0  0  0  0  0  0  0  0
   -5.8139   16.4530   18.7935 O   0  0  0  0  0  0  0  0  0  0  0  0
   -7.3773   15.9626   20.5876 C   0  0  0  0  0  0  0  0  0  0  0  0
   -8.3344   16.3442   19.5743 O   0  0  0  0  0  0  0  0  0  0  0  0
   -7.8661   14.7748   21.4288 C   0  0  0  0  0  0  0  0  0  0  0  0
   -9.0477   15.0427   22.1782 O   0  0  0  0  0  0  0  0  0  0  0  0
   -6.5433   16.4146   18.1551 H   0  0  0  0  0  0  0  0  0  0  0  0
   -8.4775   15.6004   18.9682 H   0  0  0  0  0  0  0  0  0  0  0  0
  -10.9645   15.7738   20.9244 C   0  0  0  0  0  0  0  0  0  0  0  0
  -10.9862   16.1656   19.7674 O   0  0  0  0  0  0  0  0  0  0  0  0
  -11.5883   16.4997   21.8752 O   0  0  0  0  0  0  0  0  0  0  0  0
  -11.5794   16.2107   22.7665 H   0  0  0  0  0  0  0  0  0  0  0  0
  -11.0850   13.8525   22.5419 C   0  0  0  0  0  0  0  0  0  0  0  0
  -11.2871   12.3189   22.4537 C   0  0  0  0  0  0  0  0  0  0  0  0
  -11.0149   11.9172   21.0701 N   0  0  0  0  0  0  0  0  0  0  0  0
  -11.6749   12.3803   20.4454 H   0  0  0  0  0  0  0  0  0  0  0  0
  -11.1168   10.9060   20.9833 H   0  0  0  0  0  0  0  0  0  0  0  0
  -12.6950   11.8495   22.8801 C   0  0  0  0  0  0  0  0  0  0  0  0
  -12.8731   10.3984   23.4342 C   0  0  0  0  0  0  0  0  0  0  0  0
  -11.7482    9.4743   22.9239 C   0  0  0  0  0  0  0  0  0  0  0  0
  -14.2282    9.7873   23.0300 C   0  0  0  0  0  0  0  0  0  0  0  0
  -12.7691   10.4264   24.9940 C   0  0  0  0  0  0  0  0  0  0  0  0
  -13.7207    8.7534   26.6220 C   0  0  0  0  0  0  0  0  0  0  0  0
  -12.5721    9.0656   25.6728 C   0  0  0  0  0  0  0  0  0  0  0  0
 28 29  1  0
 29 27  1  0
 27 24  1  0
 24 25  1  0
 24 26  1  0
 24 23  1  0
 23 19  1  0
 19 20  1  0
 19 18  1  0
  1 18  1  0
  1 14  1  0
 14 15  2  0
 14 16  1  0
  1  2  1  0
  3  2  1  0
  3  4  1  0
  4  5  1  0
  5  6  1  0
  6  7  1  0
  6  8  1  0
  8  9  1  0
  8 10  1  0
 10 11  1  0
 11  1  1  0
 10  3  1  0
 20 21  1  0
 20 22  1  0
 16 17  1  0
  7 12  1  0
  9 13  1  0
M  END
> <minimizedAffinity>
-2.15746

> <CNNscore>
0.7512500882

> <CNNaffinity>
6.4819412231

> <CNN_VS>
4.8695588112

> <CNNaffinity_variance>
0.5220198631

$$$$



 29 30  0  0  0  0  0  0  0  0999 V2000
  -16.9228    6.4678    9.0139 C   0  0  0  0  0  0  0  0  0  0  0  0
  -17.2869    5.3831    7.9891 C   0  0  0  0  0  0  0  0  0  0  0  0
  -18.6884    4.9197    8.3390 C   0  0  0  0  0  0  0  0  0  0  0  0
  -18.7611    3.4890    8.2840 O   0  0  0  0  0  0  0  0  0  0  0  0
  -19.8977    2.9792    9.0036 C   0  0  0  0  0  0  0  0  0  0  0  0
  -19.7676    3.2576   10.5160 C   0  0  0  0  0  0  0  0  0  0  0  0
  -19.3664    2.0651   11.2021 O   0  0  0  0  0  0  0  0  0  0  0  0
  -18.7435    4.3763   10.7850 C   0  0  0  0  0  0  0  0  0  0  0  0
  -17.4240    3.7900   10.7263 O   0  0  0  0  0  0  0  0  0  0  0  0
  -18.9378    5.4737    9.7289 C   0  0  0  0  0  0  0  0  0  0  0  0
  -18.0735    6.5944    9.8920 O   0  0  0  0  0  0  0  0  0  0  0  0
  -18.5004    1.7782   10.8725 H   0  0  0  0  0  0  0  0  0  0  0  0
  -17.2902    3.3811    9.8570 H   0  0  0  0  0  0  0  0  0  0  0  0
  -15.7145    6.1300    9.9094 C   0  0  0  0  0  0  0  0  0  0  0  0
  -14.7576    5.4307    9.6127 O   0  0  0  0  0  0  0  0  0  0  0  0
  -15.8053    6.6214   11.1626 O   0  0  0  0  0  0  0  0  0  0  0  0
  -16.5339    7.1590   11.4034 H   0  0  0  0  0  0  0  0  0  0  0  0
  -16.7176    7.8726    8.3996 C   0  0  0  0  0  0  0  0  0  0  0  0
  -15.8566    8.8990    9.1779 C   0  0  0  0  0  0  0  0  0  0  0  0
  -16.3254    8.9041   10.5672 N   0  0  0  0  0  0  0  0  0  0  0  0
  -17.3028    9.1946   10.5952 H   0  0  0  0  0  0  0  0  0  0  0  0
  -15.7615    9.5550   11.1139 H   0  0  0  0  0  0  0  0  0  0  0  0
  -15.9051   10.3265    8.5914 C   0  0  0  0  0  0  0  0  0  0  0  0
  -17.2650   10.8761    8.0499 C   0  0  0  0  0  0  0  0  0  0  0  0
  -17.9818    9.8153    7.1893 C   0  0  0  0  0  0  0  0  0  0  0  0
  -17.0779   12.1482    7.2015 C   0  0  0  0  0  0  0  0  0  0  0  0
  -18.2067   11.1990    9.2556 C   0  0  0  0  0  0  0  0  0  0  0  0
  -19.7434   12.1562    7.5014 C   0  0  0  0  0  0  0  0  0  0  0  0
  -19.6555   11.5478    8.8941 C   0  0  0  0  0  0  0  0  0  0  0  0
 28 29  1  0
 29 27  1  0
 27 24  1  0
 24 25  1  0
 24 26  1  0
 24 23  1  0
 23 19  1  0
 19 20  1  0
 19 18  1  0
  1 18  1  0
  1 14  1  0
 14 15  2  0
 14 16  1  0
  1  2  1  0
  3  2  1  0
  3  4  1  0
  4  5  1  0
  5  6  1  0
  6  7  1  0
  6  8  1  0
  8  9  1  0
  8 10  1  0
 10 11  1  0
 11  1  1  0
 10  3  1  0
 20 21  1  0
 20 22  1  0
 16 17  1  0
  7 12  1  0
  9 13  1  0
M  END
> <minimizedAffinity>
-3.05196

> <CNNscore>
0.5183253884

> <CNNaffinity>
4.8539881706

> <CNN_VS>
2.5159451962

> <CNNaffinity_variance>
0.0790179521

$$$$



 29 30  0  0  0  0  0  0  0  0999 V2000
   -9.4652   13.0054   20.2049 C   0  0  0  0  0  0  0  0  0  0  0  0
   -8.3483   12.4123   19.3331 C   0  0  0  0  0  0  0  0  0  0  0  0
   -7.0615   13.0838   19.7743 C   0  0  0  0  0  0  0  0  0  0  0  0
   -6.2889   13.4663   18.6289 O   0  0  0  0  0  0  0  0  0  0  0  0
   -5.3022   14.4620   18.9526 C   0  0  0  0  0  0  0  0  0  0  0  0
   -5.9695   15.7882   19.3741 C   0  0  0  0  0  0  0  0  0  0  0  0
   -5.9126   16.7308   18.2961 O   0  0  0  0  0  0  0  0  0  0  0  0
   -7.4370   15.5617   19.7838 C   0  0  0  0  0  0  0  0  0  0  0  0
   -8.2261   15.4881   18.5754 O   0  0  0  0  0  0  0  0  0  0  0  0
   -7.5149   14.2680   20.6069 C   0  0  0  0  0  0  0  0  0  0  0  0
   -8.8214   13.9642   21.0866 O   0  0  0  0  0  0  0  0  0  0  0  0
   -6.3966   16.3787   17.5328 H   0  0  0  0  0  0  0  0  0  0  0  0
   -7.8938   14.7691   18.0155 H   0  0  0  0  0  0  0  0  0  0  0  0
  -10.5510   13.7750   19.4273 C   0  0  0  0  0  0  0  0  0  0  0  0
  -10.5726   14.9744   19.1953 O   0  0  0  0  0  0  0  0  0  0  0  0
  -11.5982   13.0138   19.0474 O   0  0  0  0  0  0  0  0  0  0  0  0
  -11.5945   12.0927   19.2191 H   0  0  0  0  0  0  0  0  0  0  0  0
  -10.1472   11.9795   21.1405 C   0  0  0  0  0  0  0  0  0  0  0  0
  -11.0042   12.5105   22.3170 C   0  0  0  0  0  0  0  0  0  0  0  0
  -11.9277   11.4407   22.7077 N   0  0  0  0  0  0  0  0  0  0  0  0
  -12.5376   11.2143   21.9221 H   0  0  0  0  0  0  0  0  0  0  0  0
  -12.4925   11.7511   23.4983 H   0  0  0  0  0  0  0  0  0  0  0  0
  -11.7874   13.7995   21.9865 C   0  0  0  0  0  0  0  0  0  0  0  0
  -11.2838   15.1608   22.5675 C   0  0  0  0  0  0  0  0  0  0  0  0
   -9.8827   15.0051   23.1940 C   0  0  0  0  0  0  0  0  0  0  0  0
  -12.2384   15.7209   23.6389 C   0  0  0  0  0  0  0  0  0  0  0  0
  -11.1522   16.1992   21.4060 C   0  0  0  0  0  0  0  0  0  0  0  0
   -9.8292   18.2870   20.9101 C   0  0  0  0  0  0  0  0  0  0  0  0
  -10.8538   17.6415   21.8328 C   0  0  0  0  0  0  0  0  0  0  0  0
 28 29  1  0
 29 27  1  0
 27 24  1  0
 24 25  1  0
 24 26  1  0
 24 23  1  0
 23 19  1  0
 19 20  1  0
 19 18  1  0
  1 18  1  0
  1 14  1  0
 14 15  2  0
 14 16  1  0
  1  2  1  0
  3  2  1  0
  3  4  1  0
  4  5  1  0
  5  6  1  0
  6  7  1  0
  6  8  1  0
  8  9  1  0
  8 10  1  0
 10 11  1  0
 11  1  1  0
 10  3  1  0
 20 21  1  0
 20 22  1  0
 16 17  1  0
  7 12  1  0
  9 13  1  0
M  END
> <minimizedAffinity>
-0.81542

> <CNNscore>
0.4433895946

> <CNNaffinity>
6.2373309135

> <CNN_VS>
2.7655675411

> <CNNaffinity_variance>
0.8814067245

$$$$



 29 30  0  0  0  0  0  0  0  0999 V2000
   -8.5579   16.4821   20.8176 C   0  0  0  0  0  0  0  0  0  0  0  0
   -8.6928   15.6785   19.5155 C   0  0  0  0  0  0  0  0  0  0  0  0
   -7.5104   14.7287   19.4767 C   0  0  0  0  0  0  0  0  0  0  0  0
   -6.9294   14.7205   18.1661 O   0  0  0  0  0  0  0  0  0  0  0  0
   -5.5893   14.1973   18.1741 C   0  0  0  0  0  0  0  0  0  0  0  0
   -4.6379   15.1201   18.9647 C   0  0  0  0  0  0  0  0  0  0  0  0
   -3.8462   15.9002   18.0600 O   0  0  0  0  0  0  0  0  0  0  0  0
   -5.4275   16.0571   19.8982 C   0  0  0  0  0  0  0  0  0  0  0  0
   -5.9201   17.1590   19.1035 O   0  0  0  0  0  0  0  0  0  0  0  0
   -6.5654   15.2520   20.5416 C   0  0  0  0  0  0  0  0  0  0  0  0
   -7.3517   15.9975   21.4666 O   0  0  0  0  0  0  0  0  0  0  0  0
   -4.4277   16.4578   17.5198 H   0  0  0  0  0  0  0  0  0  0  0  0
   -6.4742   16.8168   18.3846 H   0  0  0  0  0  0  0  0  0  0  0  0
   -8.3794   18.0007   20.6231 C   0  0  0  0  0  0  0  0  0  0  0  0
   -7.3508   18.5819   20.3116 O   0  0  0  0  0  0  0  0  0  0  0  0
   -9.4820   18.7243   20.9076 O   0  0  0  0  0  0  0  0  0  0  0  0
  -10.2774   18.2912   21.1479 H   0  0  0  0  0  0  0  0  0  0  0  0
   -9.6989   16.2348   21.8326 C   0  0  0  0  0  0  0  0  0  0  0  0
  -11.1167   15.9289   21.2879 C   0  0  0  0  0  0  0  0  0  0  0  0
  -12.0719   16.2043   22.3658 N   0  0  0  0  0  0  0  0  0  0  0  0
  -11.8763   15.5924   23.1580 H   0  0  0  0  0  0  0  0  0  0  0  0
  -13.0204   16.0346   22.0311 H   0  0  0  0  0  0  0  0  0  0  0  0
  -11.2899   14.4825   20.7760 C   0  0  0  0  0  0  0  0  0  0  0  0
  -10.6979   13.3059   21.6183 C   0  0  0  0  0  0  0  0  0  0  0  0
   -9.6097   13.8165   22.5852 C   0  0  0  0  0  0  0  0  0  0  0  0
  -10.0842   12.2088   20.7279 C   0  0  0  0  0  0  0  0  0  0  0  0
  -11.8307   12.6793   22.4951 C   0  0  0  0  0  0  0  0  0  0  0  0
  -12.8490   10.6328   23.5581 C   0  0  0  0  0  0  0  0  0  0  0  0
  -11.9327   11.1497   22.4578 C   0  0  0  0  0  0  0  0  0  0  0  0
 28 29  1  0
 29 27  1  0
 27 24  1  0
 24 25  1  0
 24 26  1  0
 24 23  1  0
 23 19  1  0
 19 20  1  0
 19 18  1  0
  1 18  1  0
  1 14  1  0
 14 15  2  0
 14 16  1  0
  1  2  1  0
  3  2  1  0
  3  4  1  0
  4  5  1  0
  5  6  1  0
  6  7  1  0
  6  8  1  0
  8  9  1  0
  8 10  1  0
 10 11  1  0
 11  1  1  0
 10  3  1  0
 20 21  1  0
 20 22  1  0
 16 17  1  0
  7 12  1  0
  9 13  1  0
M  END
> <minimizedAffinity>
-2.95407

> <CNNscore>
0.2648309171

> <CNNaffinity>
5.5533294678

> <CNN_VS>
1.4706933498

> <CNNaffinity_variance>
0.1012316719

$$$$



 29 30  0  0  0  0  0  0  0  0999 V2000
   -5.9497   10.5998   29.9166 C   0  0  0  0  0  0  0  0  0  0  0  0
   -7.1325   11.2164   29.1550 C   0  0  0  0  0  0  0  0  0  0  0  0
   -6.6708   11.3913   27.7206 C   0  0  0  0  0  0  0  0  0  0  0  0
   -7.0659   12.6794   27.2307 O   0  0  0  0  0  0  0  0  0  0  0  0
   -6.3093   13.0701   26.0710 C   0  0  0  0  0  0  0  0  0  0  0  0
   -4.8215   13.2793   26.4236 C   0  0  0  0  0  0  0  0  0  0  0  0
   -4.5334   14.6794   26.5264 O   0  0  0  0  0  0  0  0  0  0  0  0
   -4.4652   12.5810   27.7495 C   0  0  0  0  0  0  0  0  0  0  0  0
   -4.8957   13.4392   28.8297 O   0  0  0  0  0  0  0  0  0  0  0  0
   -5.1654   11.2150   27.7799 C   0  0  0  0  0  0  0  0  0  0  0  0
   -4.8817   10.4442   28.9439 O   0  0  0  0  0  0  0  0  0  0  0  0
   -5.0692   15.0685   27.2353 H   0  0  0  0  0  0  0  0  0  0  0  0
   -5.8490   13.6014   28.7534 H   0  0  0  0  0  0  0  0  0  0  0  0
   -5.3900   11.4736   31.0564 C   0  0  0  0  0  0  0  0  0  0  0  0
   -6.0016   11.8827   32.0318 O   0  0  0  0  0  0  0  0  0  0  0  0
   -4.1097   11.8588   30.8752 O   0  0  0  0  0  0  0  0  0  0  0  0
   -3.6291   11.5526   30.1314 H   0  0  0  0  0  0  0  0  0  0  0  0
   -6.2218    9.1771   30.4598 C   0  0  0  0  0  0  0  0  0  0  0  0
   -7.6763    8.7967   30.8344 C   0  0  0  0  0  0  0  0  0  0  0  0
   -7.7604    8.7639   32.2979 N   0  0  0  0  0  0  0  0  0  0  0  0
   -7.1230    8.0542   32.6592 H   0  0  0  0  0  0  0  0  0  0  0  0
   -8.7147    8.5384   32.5786 H   0  0  0  0  0  0  0  0  0  0  0  0
   -8.1414    7.4491   30.2413 C   0  0  0  0  0  0  0  0  0  0  0  0
   -8.6372    6.3268   31.2104 C   0  0  0  0  0  0  0  0  0  0  0  0
   -9.9662    6.7296   31.8821 C   0  0  0  0  0  0  0  0  0  0  0  0
   -7.6066    6.0180   32.3130 C   0  0  0  0  0  0  0  0  0  0  0  0
   -8.9156    5.0247   30.3908 C   0  0  0  0  0  0  0  0  0  0  0  0
   -9.9596    2.7313   30.4647 C   0  0  0  0  0  0  0  0  0  0  0  0
   -9.1105    3.7472   31.2163 C   0  0  0  0  0  0  0  0  0  0  0  0
 28 29  1  0
 29 27  1  0
 27 24  1  0
 24 25  1  0
 24 26  1  0
 24 23  1  0
 23 19  1  0
 19 20  1  0
 19 18  1  0
  1 18  1  0
  1 14  1  0
 14 15  2  0
 14 16  1  0
  1  2  1  0
  3  2  1  0
  3  4  1  0
  4  5  1  0
  5  6  1  0
  6  7  1  0
  6  8  1  0
  8  9  1  0
  8 10  1  0
 10 11  1  0
 11  1  1  0
 10  3  1  0
 20 21  1  0
 20 22  1  0
 16 17  1  0
  7 12  1  0
  9 13  1  0
M  END
> <minimizedAffinity>
-1.44654

> <CNNscore>
0.2633478045

> <CNNaffinity>
4.2102456093

> <CNN_VS>
1.1087589264

> <CNNaffinity_variance>
0.7061401010

$$$$



 29 30  0  0  0  0  0  0  0  0999 V2000
  -17.9493    7.8751   30.1807 C   0  0  0  0  0  0  0  0  0  0  0  0
  -17.0178    6.9363   30.9617 C   0  0  0  0  0  0  0  0  0  0  0  0
  -17.1858    5.5601   30.3457 C   0  0  0  0  0  0  0  0  0  0  0  0
  -17.2935    4.5699   31.3768 O   0  0  0  0  0  0  0  0  0  0  0  0
  -17.8727    3.3462   30.8902 C   0  0  0  0  0  0  0  0  0  0  0  0
  -19.3408    3.5580   30.4641 C   0  0  0  0  0  0  0  0  0  0  0  0
  -20.2231    3.0474   31.4714 O   0  0  0  0  0  0  0  0  0  0  0  0
  -19.6370    5.0511   30.2282 C   0  0  0  0  0  0  0  0  0  0  0  0
  -19.8678    5.6639   31.5165 O   0  0  0  0  0  0  0  0  0  0  0  0
  -18.4382    5.6721   29.4972 C   0  0  0  0  0  0  0  0  0  0  0  0
  -18.6042    7.0508   29.1793 O   0  0  0  0  0  0  0  0  0  0  0  0
  -20.0777    3.5271   32.3019 H   0  0  0  0  0  0  0  0  0  0  0  0
  -19.0884    5.5363   32.0796 H   0  0  0  0  0  0  0  0  0  0  0  0
  -19.0657    8.5237   31.0227 C   0  0  0  0  0  0  0  0  0  0  0  0
  -19.2467    8.3904   32.2237 O   0  0  0  0  0  0  0  0  0  0  0  0
  -19.9491    9.2446   30.3016 O   0  0  0  0  0  0  0  0  0  0  0  0
  -19.8223    9.3548   29.3798 H   0  0  0  0  0  0  0  0  0  0  0  0
  -17.2114    8.9788   29.3866 C   0  0  0  0  0  0  0  0  0  0  0  0
  -17.5510    9.1592   27.8857 C   0  0  0  0  0  0  0  0  0  0  0  0
  -18.1796    7.9178   27.4235 N   0  0  0  0  0  0  0  0  0  0  0  0
  -17.5231    7.1443   27.5296 H   0  0  0  0  0  0  0  0  0  0  0  0
  -18.4375    8.0125   26.4413 H   0  0  0  0  0  0  0  0  0  0  0  0
  -16.3287    9.4999   27.0059 C   0  0  0  0  0  0  0  0  0  0  0  0
  -15.1271    8.5006   26.9604 C   0  0  0  0  0  0  0  0  0  0  0  0
  -15.4733    7.2650   26.1041 C   0  0  0  0  0  0  0  0  0  0  0  0
  -14.7198    8.0216   28.3667 C   0  0  0  0  0  0  0  0  0  0  0  0
  -13.9028    9.1978   26.2826 C   0  0  0  0  0  0  0  0  0  0  0  0
  -13.3115    9.6782   23.8796 C   0  0  0  0  0  0  0  0  0  0  0  0
  -13.4524    8.5994   24.9446 C   0  0  0  0  0  0  0  0  0  0  0  0
 28 29  1  0
 29 27  1  0
 27 24  1  0
 24 25  1  0
 24 26  1  0
 24 23  1  0
 23 19  1  0
 19 20  1  0
 19 18  1  0
  1 18  1  0
  1 14  1  0
 14 15  2  0
 14 16  1  0
  1  2  1  0
  3  2  1  0
  3  4  1  0
  4  5  1  0
  5  6  1  0
  6  7  1  0
  6  8  1  0
  8  9  1  0
  8 10  1  0
 10 11  1  0
 11  1  1  0
 10  3  1  0
 20 21  1  0
 20 22  1  0
 16 17  1  0
  7 12  1  0
  9 13  1  0
M  END
> <minimizedAffinity>
-3.02648

> <CNNscore>
0.2390720248

> <CNNaffinity>
4.4451045990

> <CNN_VS>
1.0627001524

> <CNNaffinity_variance>
0.0658360124

$$$$



 29 30  0  0  0  0  0  0  0  0999 V2000
   -6.7138   13.9444   19.2910 C   0  0  0  0  0  0  0  0  0  0  0  0
   -6.3170   14.3602   20.7153 C   0  0  0  0  0  0  0  0  0  0  0  0
   -7.2930   15.4451   21.1299 C   0  0  0  0  0  0  0  0  0  0  0  0
   -6.5912   16.5198   21.7682 O   0  0  0  0  0  0  0  0  0  0  0  0
   -7.3670   17.7312   21.7917 C   0  0  0  0  0  0  0  0  0  0  0  0
   -7.5958   18.2715   20.3643 C   0  0  0  0  0  0  0  0  0  0  0  0
   -6.7154   19.3733   20.1094 O   0  0  0  0  0  0  0  0  0  0  0  0
   -7.3609   17.1703   19.3133 C   0  0  0  0  0  0  0  0  0  0  0  0
   -5.9358   17.0609   19.0997 O   0  0  0  0  0  0  0  0  0  0  0  0
   -7.9705   15.8627   19.8386 C   0  0  0  0  0  0  0  0  0  0  0  0
   -7.8576   14.7668   18.9354 O   0  0  0  0  0  0  0  0  0  0  0  0
   -5.7952   19.0737   20.1748 H   0  0  0  0  0  0  0  0  0  0  0  0
   -5.4978   16.8552   19.9403 H   0  0  0  0  0  0  0  0  0  0  0  0
   -5.6339   14.1970   18.2205 C   0  0  0  0  0  0  0  0  0  0  0  0
   -4.7317   15.0193   18.2721 O   0  0  0  0  0  0  0  0  0  0  0  0
   -5.7871   13.4598   17.1010 O   0  0  0  0  0  0  0  0  0  0  0  0
   -6.4749   12.8257   17.0481 H   0  0  0  0  0  0  0  0  0  0  0  0
   -7.2063   12.4825   19.1746 C   0  0  0  0  0  0  0  0  0  0  0  0
   -8.2839   11.9860   20.1709 C   0  0  0  0  0  0  0  0  0  0  0  0
   -9.2612   11.2024   19.4089 N   0  0  0  0  0  0  0  0  0  0  0  0
   -9.7007   11.7973   18.7065 H   0  0  0  0  0  0  0  0  0  0  0  0
   -9.9743   10.8401   20.0419 H   0  0  0  0  0  0  0  0  0  0  0  0
   -8.9919   13.1215   20.9413 C   0  0  0  0  0  0  0  0  0  0  0  0
  -10.5171   13.3644   20.6978 C   0  0  0  0  0  0  0  0  0  0  0  0
  -11.3654   12.6332   21.7587 C   0  0  0  0  0  0  0  0  0  0  0  0
  -10.9631   12.8876   19.3025 C   0  0  0  0  0  0  0  0  0  0  0  0
  -10.8245   14.8908   20.8396 C   0  0  0  0  0  0  0  0  0  0  0  0
  -11.5975   16.8395   22.2396 C   0  0  0  0  0  0  0  0  0  0  0  0
  -11.4141   15.3292   22.1855 C   0  0  0  0  0  0  0  0  0  0  0  0
 28 29  1  0
 29 27  1  0
 27 24  1  0
 24 25  1  0
 24 26  1  0
 24 23  1  0
 23 19  1  0
 19 20  1  0
 19 18  1  0
  1 18  1  0
  1 14  1  0
 14 15  2  0
 14 16  1  0
  1  2  1  0
  3  2  1  0
  3  4  1  0
  4  5  1  0
  5  6  1  0
  6  7  1  0
  6  8  1  0
  8  9  1  0
  8 10  1  0
 10 11  1  0
 11  1  1  0
 10  3  1  0
 20 21  1  0
 20 22  1  0
 16 17  1  0
  7 12  1  0
  9 13  1  0
M  END
> <minimizedAffinity>
-4.54673

> <CNNscore>
0.1923143268

> <CNNaffinity>
5.8364944458

> <CNN_VS>
1.1224415302

> <CNNaffinity_variance>
0.6038872600

$$$$



 29 30  0  0  0  0  0  0  0  0999 V2000
  -17.6341    7.4587   27.9874 C   0  0  0  0  0  0  0  0  0  0  0  0
  -18.7308    7.7043   29.0343 C   0  0  0  0  0  0  0  0  0  0  0  0
  -18.4360    6.7649   30.1884 C   0  0  0  0  0  0  0  0  0  0  0  0
  -19.6455    6.1348   30.6306 O   0  0  0  0  0  0  0  0  0  0  0  0
  -19.3843    4.9485   31.4015 C   0  0  0  0  0  0  0  0  0  0  0  0
  -18.7267    3.8557   30.5327 C   0  0  0  0  0  0  0  0  0  0  0  0
  -19.6970    2.8642   30.1732 O   0  0  0  0  0  0  0  0  0  0  0  0
  -18.1113    4.4610   29.2570 C   0  0  0  0  0  0  0  0  0  0  0  0
  -19.1778    4.6528   28.3008 O   0  0  0  0  0  0  0  0  0  0  0  0
  -17.4240    5.7818   29.6315 C   0  0  0  0  0  0  0  0  0  0  0  0
  -16.7738    6.4265   28.5402 O   0  0  0  0  0  0  0  0  0  0  0  0
  -20.4044    3.2774   29.6539 H   0  0  0  0  0  0  0  0  0  0  0  0
  -19.8549    5.2323   28.6835 H   0  0  0  0  0  0  0  0  0  0  0  0
  -18.1431    6.9342   26.6303 C   0  0  0  0  0  0  0  0  0  0  0  0
  -17.4879    6.3516   25.7793 O   0  0  0  0  0  0  0  0  0  0  0  0
  -19.4322    7.2378   26.3726 O   0  0  0  0  0  0  0  0  0  0  0  0
  -19.9460    7.6844   27.0164 H   0  0  0  0  0  0  0  0  0  0  0  0
  -16.7113    8.6760   27.7429 C   0  0  0  0  0  0  0  0  0  0  0  0
  -15.1823    8.4867   27.9066 C   0  0  0  0  0  0  0  0  0  0  0  0
  -14.8817    8.5463   29.3405 N   0  0  0  0  0  0  0  0  0  0  0  0
  -15.1489    9.4602   29.7062 H   0  0  0  0  0  0  0  0  0  0  0  0
  -13.8824    8.4013   29.4848 H   0  0  0  0  0  0  0  0  0  0  0  0
  -14.3389    9.5279   27.1393 C   0  0  0  0  0  0  0  0  0  0  0  0
  -13.4184    9.0438   25.9719 C   0  0  0  0  0  0  0  0  0  0  0  0
  -13.9550    7.7350   25.3567 C   0  0  0  0  0  0  0  0  0  0  0  0
  -11.9696    8.8062   26.4383 C   0  0  0  0  0  0  0  0  0  0  0  0
  -13.4205   10.1176   24.8354 C   0  0  0  0  0  0  0  0  0  0  0  0
  -14.0238    8.8620   22.7343 C   0  0  0  0  0  0  0  0  0  0  0  0
  -12.9341    9.6358   23.4632 C   0  0  0  0  0  0  0  0  0  0  0  0
 28 29  1  0
 29 27  1  0
 27 24  1  0
 24 25  1  0
 24 26  1  0
 24 23  1  0
 23 19  1  0
 19 20  1  0
 19 18  1  0
  1 18  1  0
  1 14  1  0
 14 15  2  0
 14 16  1  0
  1  2  1  0
  3  2  1  0
  3  4  1  0
  4  5  1  0
  5  6  1  0
  6  7  1  0
  6  8  1  0
  8  9  1  0
  8 10  1  0
 10 11  1  0
 11  1  1  0
 10  3  1  0
 20 21  1  0
 20 22  1  0
 16 17  1  0
  7 12  1  0
  9 13  1  0
M  END
> <minimizedAffinity>
-4.65237

> <CNNscore>
0.1915873736

> <CNNaffinity>
4.3235721588

> <CNN_VS>
0.8283418417

> <CNNaffinity_variance>
0.4327149391

$$$$



 29 30  0  0  0  0  0  0  0  0999 V2000
   -8.4008   16.5818   20.7745 C   0  0  0  0  0  0  0  0  0  0  0  0
   -8.5562   15.8345   19.4416 C   0  0  0  0  0  0  0  0  0  0  0  0
   -7.4022   14.8526   19.3667 C   0  0  0  0  0  0  0  0  0  0  0  0
   -6.8185   14.8790   18.0575 O   0  0  0  0  0  0  0  0  0  0  0  0
   -5.4944   14.3166   18.0464 C   0  0  0  0  0  0  0  0  0  0  0  0
   -4.5182   15.1790   18.8741 C   0  0  0  0  0  0  0  0  0  0  0  0
   -3.7017   15.9705   18.0019 O   0  0  0  0  0  0  0  0  0  0  0  0
   -5.2820   16.1013   19.8428 C   0  0  0  0  0  0  0  0  0  0  0  0
   -5.7402   17.2478   19.0917 O   0  0  0  0  0  0  0  0  0  0  0  0
   -6.4447   15.3053   20.4526 C   0  0  0  0  0  0  0  0  0  0  0  0
   -7.2109   16.0366   21.4053 O   0  0  0  0  0  0  0  0  0  0  0  0
   -4.2652   16.5659   17.4834 H   0  0  0  0  0  0  0  0  0  0  0  0
   -6.3024   16.9507   18.3592 H   0  0  0  0  0  0  0  0  0  0  0  0
   -8.1772   18.1009   20.6404 C   0  0  0  0  0  0  0  0  0  0  0  0
   -8.9008   18.9871   21.0695 O   0  0  0  0  0  0  0  0  0  0  0  0
   -7.0971   18.4343   19.9039 O   0  0  0  0  0  0  0  0  0  0  0  0
   -6.5339   17.7647   19.5687 H   0  0  0  0  0  0  0  0  0  0  0  0
   -9.5509   16.3284   21.7776 C   0  0  0  0  0  0  0  0  0  0  0  0
  -10.9604   16.0107   21.2182 C   0  0  0  0  0  0  0  0  0  0  0  0
  -11.8779   15.9233   22.3586 N   0  0  0  0  0  0  0  0  0  0  0  0
  -11.5822   15.1668   22.9757 H   0  0  0  0  0  0  0  0  0  0  0  0
  -12.8225   15.7375   22.0216 H   0  0  0  0  0  0  0  0  0  0  0  0
  -11.0221   14.7148   20.3811 C   0  0  0  0  0  0  0  0  0  0  0  0
  -10.5320   13.3758   21.0225 C   0  0  0  0  0  0  0  0  0  0  0  0
  -11.6802   12.6778   21.7802 C   0  0  0  0  0  0  0  0  0  0  0  0
   -9.3640   13.5973   22.0022 C   0  0  0  0  0  0  0  0  0  0  0  0
  -10.0723   12.4004   19.8902 C   0  0  0  0  0  0  0  0  0  0  0  0
   -7.7348   11.6126   19.3699 C   0  0  0  0  0  0  0  0  0  0  0  0
   -8.9508   11.4247   20.2665 C   0  0  0  0  0  0  0  0  0  0  0  0
 28 29  1  0
 29 27  1  0
 27 24  1  0
 24 25  1  0
 24 26  1  0
 24 23  1  0
 23 19  1  0
 19 20  1  0
 19 18  1  0
  1 18  1  0
  1 14  1  0
 14 15  2  0
 14 16  1  0
  1  2  1  0
  3  2  1  0
  3  4  1  0
  4  5  1  0
  5  6  1  0
  6  7  1  0
  6  8  1  0
  8  9  1  0
  8 10  1  0
 10 11  1  0
 11  1  1  0
 10  3  1  0
 20 21  1  0
 20 22  1  0
 16 17  1  0
  7 12  1  0
  9 13  1  0
M  END
> <minimizedAffinity>
-5.18746

> <CNNscore>
0.1660489142

> <CNNaffinity>
5.3075203896

> <CNN_VS>
0.8813080192

> <CNNaffinity_variance>
0.0735354051

$$$$
