


 24 26  0  0  0  0  0  0  0  0999 V2000
  -14.6313   57.0315   10.6605 O   0  0  0  0  0  0  0  0  0  0  0  0
  -14.4096   57.6840   11.6726 C   0  0  0  0  0  0  0  0  0  0  0  0
  -13.2109   58.2662   12.0420 N   0  0  0  0  0  0  0  0  0  0  0  0
  -13.2222   58.8080   12.8639 H   0  0  0  0  0  0  0  0  0  0  0  0
  -15.5428   57.9258   12.6077 C   0  0  0  0  0  0  0  0  0  0  0  0
  -16.0723   56.8335   13.3060 C   0  0  0  0  0  0  0  0  0  0  0  0
  -17.1282   57.0273   14.1940 C   0  0  0  0  0  0  0  0  0  0  0  0
  -17.7877   55.6830   15.0413 Cl  0  0  0  0  0  0  0  0  0  0  0  0
  -17.6569   58.2994   14.4025 C   0  0  0  0  0  0  0  0  0  0  0  0
  -17.1126   59.3850   13.7191 C   0  0  0  0  0  0  0  0  0  0  0  0
  -17.8092   61.1183   14.0124 Br  0  0  0  0  0  0  0  0  0  0  0  0
  -16.0557   59.2108   12.8250 C   0  0  0  0  0  0  0  0  0  0  0  0
  -11.9728   58.1696   11.3709 C   0  0  0  0  0  0  0  0  0  0  0  0
  -11.7017   58.7688   10.1425 C   0  0  0  0  0  0  0  0  0  0  0  0
  -10.4487   58.6175    9.5444 C   0  0  0  0  0  0  0  0  0  0  0  0
   -9.4529   57.8628   10.1675 C   0  0  0  0  0  0  0  0  0  0  0  0
   -9.7003   57.2474   11.4006 C   0  0  0  0  0  0  0  0  0  0  0  0
  -10.9682   57.4102   11.9875 C   0  0  0  0  0  0  0  0  0  0  0  0
   -8.6958   56.4449   12.0956 C   0  0  0  0  0  0  0  0  0  0  0  0
   -8.8070   55.8808   13.2857 N   0  0  0  0  0  0  0  0  0  0  0  0
   -7.6216   55.2323   13.5288 N   0  0  0  0  0  0  0  0  0  0  0  0
   -6.7832   55.3853   12.5164 N   0  0  0  0  0  0  0  0  0  0  0  0
   -7.4461   56.1365   11.6287 N   0  0  0  0  0  0  0  0  0  0  0  0
   -7.0850   56.4271   10.7601 H   0  0  0  0  0  0  0  0  0  0  0  0
  1  2  2  0
  2  3  1  0
  3 13  1  0
 13 14  2  0
 14 15  1  0
 15 16  2  0
 16 17  1  0
 17 19  1  0
 19 20  2  0
 20 21  1  0
 21 22  2  0
 22 23  1  0
 17 18  2  0
  2  5  1  0
  5  6  2  0
  6  7  1  0
  7  8  1  0
  7  9  2  0
  9 10  1  0
 10 11  1  0
 10 12  2  0
 18 13  1  0
 12  5  1  0
 23 19  1  0
  3  4  1  0
 23 24  1  0
M  END
> <minimizedAffinity>
-6.15087

> <CNNscore>
0.5698646903

> <CNNaffinity>
4.7934031487

> <CNN_VS>
2.7315912247

> <CNNaffinity_variance>
0.4570889473

$$$$



 24 26  0  0  0  0  0  0  0  0999 V2000
   -8.7839   55.8543   13.5374 O   0  0  0  0  0  0  0  0  0  0  0  0
   -8.4511   55.7720   12.3619 C   0  0  0  0  0  0  0  0  0  0  0  0
   -7.5016   54.9234   11.8229 N   0  0  0  0  0  0  0  0  0  0  0  0
   -7.3989   54.9467   10.8440 H   0  0  0  0  0  0  0  0  0  0  0  0
   -9.1535   56.6398   11.3767 C   0  0  0  0  0  0  0  0  0  0  0  0
   -8.9579   56.3893   10.0128 C   0  0  0  0  0  0  0  0  0  0  0  0
   -9.6064   57.1786    9.0655 C   0  0  0  0  0  0  0  0  0  0  0  0
   -9.3549   56.8794    7.3900 Cl  0  0  0  0  0  0  0  0  0  0  0  0
  -10.4564   58.2092    9.4610 C   0  0  0  0  0  0  0  0  0  0  0  0
  -10.6620   58.4407   10.8197 C   0  0  0  0  0  0  0  0  0  0  0  0
  -11.8310   59.8230   11.3656 Br  0  0  0  0  0  0  0  0  0  0  0  0
  -10.0207   57.6616   11.7834 C   0  0  0  0  0  0  0  0  0  0  0  0
   -6.6632   54.0276   12.5209 C   0  0  0  0  0  0  0  0  0  0  0  0
   -6.1114   54.2896   13.7732 C   0  0  0  0  0  0  0  0  0  0  0  0
   -5.2860   53.3481   14.3919 C   0  0  0  0  0  0  0  0  0  0  0  0
   -5.0014   52.1341   13.7637 C   0  0  0  0  0  0  0  0  0  0  0  0
   -5.5403   51.8471   12.5037 C   0  0  0  0  0  0  0  0  0  0  0  0
   -6.3688   52.8076   11.8956 C   0  0  0  0  0  0  0  0  0  0  0  0
   -5.2738   50.5941   11.8001 C   0  0  0  0  0  0  0  0  0  0  0  0
   -6.0870   49.9478   10.9829 N   0  0  0  0  0  0  0  0  0  0  0  0
   -5.4159   48.8268   10.5612 N   0  0  0  0  0  0  0  0  0  0  0  0
   -4.2090   48.7678   11.1010 N   0  0  0  0  0  0  0  0  0  0  0  0
   -4.1197   49.8606   11.8690 N   0  0  0  0  0  0  0  0  0  0  0  0
   -3.3330   50.1032   12.4088 H   0  0  0  0  0  0  0  0  0  0  0  0
  1  2  2  0
  2  3  1  0
  3 13  1  0
 13 14  2  0
 14 15  1  0
 15 16  2  0
 16 17  1  0
 17 19  1  0
 19 20  2  0
 20 21  1  0
 21 22  2  0
 22 23  1  0
 17 18  2  0
  2  5  1  0
  5  6  2  0
  6  7  1  0
  7  8  1  0
  7  9  2  0
  9 10  1  0
 10 11  1  0
 10 12  2  0
 18 13  1  0
 12  5  1  0
 23 19  1  0
  3  4  1  0
 23 24  1  0
M  END
> <minimizedAffinity>
-7.64683

> <CNNscore>
0.4608099163

> <CNNaffinity>
4.8665776253

> <CNN_VS>
2.2425673008

> <CNNaffinity_variance>
0.5839120746

$$$$



 24 26  0  0  0  0  0  0  0  0999 V2000
   -8.9863   55.9030   13.5351 O   0  0  0  0  0  0  0  0  0  0  0  0
   -8.5738   55.9104   12.3823 C   0  0  0  0  0  0  0  0  0  0  0  0
   -7.5186   55.1773   11.8708 N   0  0  0  0  0  0  0  0  0  0  0  0
   -7.3568   55.2595   10.9032 H   0  0  0  0  0  0  0  0  0  0  0  0
   -9.2887   56.7621   11.3921 C   0  0  0  0  0  0  0  0  0  0  0  0
   -9.1060   56.4931   10.0300 C   0  0  0  0  0  0  0  0  0  0  0  0
   -9.7664   57.2669    9.0782 C   0  0  0  0  0  0  0  0  0  0  0  0
   -9.5307   56.9451    7.4046 Cl  0  0  0  0  0  0  0  0  0  0  0  0
  -10.6156   58.3005    9.4678 C   0  0  0  0  0  0  0  0  0  0  0  0
  -10.8084   58.5504   10.8251 C   0  0  0  0  0  0  0  0  0  0  0  0
  -11.9763   59.9366   11.3632 Br  0  0  0  0  0  0  0  0  0  0  0  0
  -10.1550   57.7869   11.7931 C   0  0  0  0  0  0  0  0  0  0  0  0
   -6.6479   54.3243   12.5827 C   0  0  0  0  0  0  0  0  0  0  0  0
   -7.0275   53.5695   13.6906 C   0  0  0  0  0  0  0  0  0  0  0  0
   -6.0988   52.7538   14.3410 C   0  0  0  0  0  0  0  0  0  0  0  0
   -4.7787   52.6857   13.8914 C   0  0  0  0  0  0  0  0  0  0  0  0
   -4.3703   53.4365   12.7825 C   0  0  0  0  0  0  0  0  0  0  0  0
   -5.3192   54.2528   12.1407 C   0  0  0  0  0  0  0  0  0  0  0  0
   -3.0015   53.4050   12.2711 C   0  0  0  0  0  0  0  0  0  0  0  0
   -1.8861   53.5615   12.9627 N   0  0  0  0  0  0  0  0  0  0  0  0
   -0.8485   53.4554   12.0700 N   0  0  0  0  0  0  0  0  0  0  0  0
   -1.2996   53.2383   10.8449 N   0  0  0  0  0  0  0  0  0  0  0  0
   -2.6323   53.2078   10.9674 N   0  0  0  0  0  0  0  0  0  0  0  0
   -3.2602   53.0636   10.2229 H   0  0  0  0  0  0  0  0  0  0  0  0
  1  2  2  0
  2  3  1  0
  3 13  1  0
 13 14  2  0
 14 15  1  0
 15 16  2  0
 16 17  1  0
 17 19  1  0
 19 20  2  0
 20 21  1  0
 21 22  2  0
 22 23  1  0
 17 18  2  0
  2  5  1  0
  5  6  2  0
  6  7  1  0
  7  8  1  0
  7  9  2  0
  9 10  1  0
 10 11  1  0
 10 12  2  0
 18 13  1  0
 12  5  1  0
 23 19  1  0
  3  4  1  0
 23 24  1  0
M  END
> <minimizedAffinity>
-8.66481

> <CNNscore>
0.4452902973

> <CNNaffinity>
4.9526786804

> <CNN_VS>
2.2053797245

> <CNNaffinity_variance>
0.6801837087

$$$$



 24 26  0  0  0  0  0  0  0  0999 V2000
   -1.8949   53.5168   13.1029 O   0  0  0  0  0  0  0  0  0  0  0  0
   -2.3346   52.9308   12.1218 C   0  0  0  0  0  0  0  0  0  0  0  0
   -3.6640   52.7318   11.7973 N   0  0  0  0  0  0  0  0  0  0  0  0
   -3.8430   52.2879   10.9369 H   0  0  0  0  0  0  0  0  0  0  0  0
   -1.3573   52.3965   11.1336 C   0  0  0  0  0  0  0  0  0  0  0  0
   -0.6215   53.3088   10.3672 C   0  0  0  0  0  0  0  0  0  0  0  0
    0.3062   52.8413    9.4389 C   0  0  0  0  0  0  0  0  0  0  0  0
    1.1999   53.9622    8.4876 Cl  0  0  0  0  0  0  0  0  0  0  0  0
    0.5174   51.4743    9.2720 C   0  0  0  0  0  0  0  0  0  0  0  0
   -0.2039   50.5722   10.0516 C   0  0  0  0  0  0  0  0  0  0  0  0
    0.0920   48.7158    9.8476 Br  0  0  0  0  0  0  0  0  0  0  0  0
   -1.1381   51.0211   10.9858 C   0  0  0  0  0  0  0  0  0  0  0  0
   -4.7928   53.0947   12.5632 C   0  0  0  0  0  0  0  0  0  0  0  0
   -5.1008   52.5481   13.8073 C   0  0  0  0  0  0  0  0  0  0  0  0
   -6.2432   52.9609   14.4965 C   0  0  0  0  0  0  0  0  0  0  0  0
   -7.0921   53.9240   13.9479 C   0  0  0  0  0  0  0  0  0  0  0  0
   -6.8076   54.4870   12.6978 C   0  0  0  0  0  0  0  0  0  0  0  0
   -5.6531   54.0585   12.0180 C   0  0  0  0  0  0  0  0  0  0  0  0
   -7.6622   55.4964   12.0760 C   0  0  0  0  0  0  0  0  0  0  0  0
   -8.7750   56.0137   12.5667 N   0  0  0  0  0  0  0  0  0  0  0  0
   -9.2336   56.9175   11.6405 N   0  0  0  0  0  0  0  0  0  0  0  0
   -8.4293   56.9673   10.5907 N   0  0  0  0  0  0  0  0  0  0  0  0
   -7.4565   56.0875   10.8581 N   0  0  0  0  0  0  0  0  0  0  0  0
   -6.6980   55.8924   10.2616 H   0  0  0  0  0  0  0  0  0  0  0  0
  1  2  2  0
  2  3  1  0
  3 13  1  0
 13 14  2  0
 14 15  1  0
 15 16  2  0
 16 17  1  0
 17 19  1  0
 19 20  2  0
 20 21  1  0
 21 22  2  0
 22 23  1  0
 17 18  2  0
  2  5  1  0
  5  6  2  0
  6  7  1  0
  7  8  1  0
  7  9  2  0
  9 10  1  0
 10 11  1  0
 10 12  2  0
 18 13  1  0
 12  5  1  0
 23 19  1  0
  3  4  1  0
 23 24  1  0
M  END
> <minimizedAffinity>
-7.85454

> <CNNscore>
0.3996728957

> <CNNaffinity>
5.0502834320

> <CNN_VS>
2.0184614658

> <CNNaffinity_variance>
0.3285184801

$$$$



 24 26  0  0  0  0  0  0  0  0999 V2000
   -8.7972   55.8960   13.3465 O   0  0  0  0  0  0  0  0  0  0  0  0
   -8.3851   55.7924   12.1981 C   0  0  0  0  0  0  0  0  0  0  0  0
   -7.3627   54.9757   11.7509 N   0  0  0  0  0  0  0  0  0  0  0  0
   -7.1979   54.9723   10.7803 H   0  0  0  0  0  0  0  0  0  0  0  0
   -9.0630   56.5912   11.1402 C   0  0  0  0  0  0  0  0  0  0  0  0
   -9.8003   57.7169   11.5278 C   0  0  0  0  0  0  0  0  0  0  0  0
  -10.4405   58.4898   10.5615 C   0  0  0  0  0  0  0  0  0  0  0  0
  -11.3577   59.8647   11.0393 Cl  0  0  0  0  0  0  0  0  0  0  0  0
  -10.3466   58.1601    9.2111 C   0  0  0  0  0  0  0  0  0  0  0  0
   -9.5953   57.0499    8.8303 C   0  0  0  0  0  0  0  0  0  0  0  0
   -9.4440   56.6077    6.9981 Br  0  0  0  0  0  0  0  0  0  0  0  0
   -8.9477   56.2631    9.7835 C   0  0  0  0  0  0  0  0  0  0  0  0
   -6.5293   54.1464   12.5321 C   0  0  0  0  0  0  0  0  0  0  0  0
   -6.9330   53.5219   13.7105 C   0  0  0  0  0  0  0  0  0  0  0  0
   -6.0406   52.7207   14.4263 C   0  0  0  0  0  0  0  0  0  0  0  0
   -4.7331   52.5368   13.9724 C   0  0  0  0  0  0  0  0  0  0  0  0
   -4.3009   53.1555   12.7931 C   0  0  0  0  0  0  0  0  0  0  0  0
   -5.2133   53.9593   12.0859 C   0  0  0  0  0  0  0  0  0  0  0  0
   -2.9438   52.9994   12.2737 C   0  0  0  0  0  0  0  0  0  0  0  0
   -2.2891   53.8335   11.4847 N   0  0  0  0  0  0  0  0  0  0  0  0
   -1.0550   53.2768   11.2568 N   0  0  0  0  0  0  0  0  0  0  0  0
   -0.9357   52.1188   11.8863 N   0  0  0  0  0  0  0  0  0  0  0  0
   -2.1043   51.9450   12.5155 N   0  0  0  0  0  0  0  0  0  0  0  0
   -2.3292   51.1667   13.0749 H   0  0  0  0  0  0  0  0  0  0  0  0
  1  2  2  0
  2  3  1  0
  3 13  1  0
 13 14  2  0
 14 15  1  0
 15 16  2  0
 16 17  1  0
 17 19  1  0
 19 20  2  0
 20 21  1  0
 21 22  2  0
 22 23  1  0
 17 18  2  0
  2  5  1  0
  5  6  2  0
  6  7  1  0
  7  8  1  0
  7  9  2  0
  9 10  1  0
 10 11  1  0
 10 12  2  0
 18 13  1  0
 12  5  1  0
 23 19  1  0
  3  4  1  0
 23 24  1  0
M  END
> <minimizedAffinity>
-8.31932

> <CNNscore>
0.3405131996

> <CNNaffinity>
4.7027649879

> <CNN_VS>
1.6013535261

> <CNNaffinity_variance>
0.7689636350

$$$$



 24 26  0  0  0  0  0  0  0  0999 V2000
  -10.1157   50.1485    9.0778 O   0  0  0  0  0  0  0  0  0  0  0  0
  -10.0872   49.8621   10.2680 C   0  0  0  0  0  0  0  0  0  0  0  0
   -9.8865   50.7273   11.3279 N   0  0  0  0  0  0  0  0  0  0  0  0
   -9.9521   50.3376   12.2296 H   0  0  0  0  0  0  0  0  0  0  0  0
  -10.3290   48.4432   10.6490 C   0  0  0  0  0  0  0  0  0  0  0  0
   -9.3322   47.5007   10.3674 C   0  0  0  0  0  0  0  0  0  0  0  0
   -9.5245   46.1661   10.7177 C   0  0  0  0  0  0  0  0  0  0  0  0
   -8.3056   45.0061   10.3590 Cl  0  0  0  0  0  0  0  0  0  0  0  0
  -10.6950   45.7604   11.3552 C   0  0  0  0  0  0  0  0  0  0  0  0
  -11.6746   46.7065   11.6502 C   0  0  0  0  0  0  0  0  0  0  0  0
  -13.2568   46.1688   12.5350 Br  0  0  0  0  0  0  0  0  0  0  0  0
  -11.5007   48.0476   11.3063 C   0  0  0  0  0  0  0  0  0  0  0  0
   -9.5980   52.1074   11.2600 C   0  0  0  0  0  0  0  0  0  0  0  0
  -10.1916   52.9856   10.3556 C   0  0  0  0  0  0  0  0  0  0  0  0
   -9.8434   54.3381   10.3527 C   0  0  0  0  0  0  0  0  0  0  0  0
   -8.8955   54.8274   11.2536 C   0  0  0  0  0  0  0  0  0  0  0  0
   -8.2815   53.9658   12.1706 C   0  0  0  0  0  0  0  0  0  0  0  0
   -8.6442   52.6067   12.1583 C   0  0  0  0  0  0  0  0  0  0  0  0
   -7.2819   54.4235   13.1336 C   0  0  0  0  0  0  0  0  0  0  0  0
   -7.1164   55.6526   13.5905 N   0  0  0  0  0  0  0  0  0  0  0  0
   -6.0624   55.6098   14.4692 N   0  0  0  0  0  0  0  0  0  0  0  0
   -5.5748   54.3831   14.5627 N   0  0  0  0  0  0  0  0  0  0  0  0
   -6.3279   53.6476   13.7357 N   0  0  0  0  0  0  0  0  0  0  0  0
   -6.2119   52.6821   13.5818 H   0  0  0  0  0  0  0  0  0  0  0  0
  1  2  2  0
  2  3  1  0
  3 13  1  0
 13 14  2  0
 14 15  1  0
 15 16  2  0
 16 17  1  0
 17 19  1  0
 19 20  2  0
 20 21  1  0
 21 22  2  0
 22 23  1  0
 17 18  2  0
  2  5  1  0
  5  6  2  0
  6  7  1  0
  7  8  1  0
  7  9  2  0
  9 10  1  0
 10 11  1  0
 10 12  2  0
 18 13  1  0
 12  5  1  0
 23 19  1  0
  3  4  1  0
 23 24  1  0
M  END
> <minimizedAffinity>
-5.93105

> <CNNscore>
0.3176669478

> <CNNaffinity>
4.9147338867

> <CNN_VS>
1.5612485409

> <CNNaffinity_variance>
0.0996463522

$$$$



 24 26  0  0  0  0  0  0  0  0999 V2000
   -2.7808   49.7139    9.1114 O   0  0  0  0  0  0  0  0  0  0  0  0
   -2.9821   48.7625    9.8554 C   0  0  0  0  0  0  0  0  0  0  0  0
   -4.0599   48.5814   10.7026 N   0  0  0  0  0  0  0  0  0  0  0  0
   -4.0946   47.7270   11.1904 H   0  0  0  0  0  0  0  0  0  0  0  0
   -1.9968   47.6463    9.8408 C   0  0  0  0  0  0  0  0  0  0  0  0
   -1.4896   47.2242    8.6056 C   0  0  0  0  0  0  0  0  0  0  0  0
   -0.5606   46.1871    8.5581 C   0  0  0  0  0  0  0  0  0  0  0  0
    0.0518   45.6595    7.0394 Cl  0  0  0  0  0  0  0  0  0  0  0  0
   -0.1226   45.5714    9.7287 C   0  0  0  0  0  0  0  0  0  0  0  0
   -0.6165   46.0092   10.9560 C   0  0  0  0  0  0  0  0  0  0  0  0
   -0.0111   45.1943   12.5513 Br  0  0  0  0  0  0  0  0  0  0  0  0
   -1.5481   47.0457   11.0238 C   0  0  0  0  0  0  0  0  0  0  0  0
   -5.1159   49.4861   10.9453 C   0  0  0  0  0  0  0  0  0  0  0  0
   -6.3558   49.4268   10.3124 C   0  0  0  0  0  0  0  0  0  0  0  0
   -7.3450   50.3674   10.6080 C   0  0  0  0  0  0  0  0  0  0  0  0
   -7.1042   51.3798   11.5389 C   0  0  0  0  0  0  0  0  0  0  0  0
   -5.8659   51.4641   12.1867 C   0  0  0  0  0  0  0  0  0  0  0  0
   -4.8815   50.5085   11.8758 C   0  0  0  0  0  0  0  0  0  0  0  0
   -5.5593   52.5036   13.1673 C   0  0  0  0  0  0  0  0  0  0  0  0
   -6.2766   53.5790   13.4426 N   0  0  0  0  0  0  0  0  0  0  0  0
   -5.6032   54.2635   14.4239 N   0  0  0  0  0  0  0  0  0  0  0  0
   -4.4876   53.6346   14.7579 N   0  0  0  0  0  0  0  0  0  0  0  0
   -4.4584   52.5455   13.9803 N   0  0  0  0  0  0  0  0  0  0  0  0
   -3.7440   51.8682   13.9914 H   0  0  0  0  0  0  0  0  0  0  0  0
  1  2  2  0
  2  3  1  0
  3 13  1  0
 13 14  2  0
 14 15  1  0
 15 16  2  0
 16 17  1  0
 17 19  1  0
 19 20  2  0
 20 21  1  0
 21 22  2  0
 22 23  1  0
 17 18  2  0
  2  5  1  0
  5  6  2  0
  6  7  1  0
  7  8  1  0
  7  9  2  0
  9 10  1  0
 10 11  1  0
 10 12  2  0
 18 13  1  0
 12  5  1  0
 23 19  1  0
  3  4  1  0
 23 24  1  0
M  END
> <minimizedAffinity>
-6.52221

> <CNNscore>
0.3167447746

> <CNNaffinity>
4.7860307693

> <CNN_VS>
1.5159502029

> <CNNaffinity_variance>
0.2943307757

$$$$



 24 26  0  0  0  0  0  0  0  0999 V2000
   -8.7973   56.0204   13.4307 O   0  0  0  0  0  0  0  0  0  0  0  0
   -8.7822   55.4435   12.3508 C   0  0  0  0  0  0  0  0  0  0  0  0
   -9.2916   55.9074   11.1518 N   0  0  0  0  0  0  0  0  0  0  0  0
   -9.1425   55.3375   10.3630 H   0  0  0  0  0  0  0  0  0  0  0  0
   -8.1170   54.1133   12.2809 C   0  0  0  0  0  0  0  0  0  0  0  0
   -8.7742   53.0765   11.6068 C   0  0  0  0  0  0  0  0  0  0  0  0
   -8.1753   51.8218   11.5172 C   0  0  0  0  0  0  0  0  0  0  0  0
   -8.9893   50.5447   10.7009 Cl  0  0  0  0  0  0  0  0  0  0  0  0
   -6.9235   51.5900   12.0832 C   0  0  0  0  0  0  0  0  0  0  0  0
   -6.2662   52.6311   12.7358 C   0  0  0  0  0  0  0  0  0  0  0  0
   -4.5573   52.3316   13.4876 Br  0  0  0  0  0  0  0  0  0  0  0  0
   -6.8502   53.8943   12.8367 C   0  0  0  0  0  0  0  0  0  0  0  0
  -10.0016   57.1078   10.9337 C   0  0  0  0  0  0  0  0  0  0  0  0
   -9.5463   58.1487   10.1270 C   0  0  0  0  0  0  0  0  0  0  0  0
  -10.3112   59.3067    9.9701 C   0  0  0  0  0  0  0  0  0  0  0  0
  -11.5398   59.4375   10.6204 C   0  0  0  0  0  0  0  0  0  0  0  0
  -12.0190   58.4079   11.4394 C   0  0  0  0  0  0  0  0  0  0  0  0
  -11.2346   57.2494   11.5861 C   0  0  0  0  0  0  0  0  0  0  0  0
  -13.2961   58.4927   12.1449 C   0  0  0  0  0  0  0  0  0  0  0  0
  -13.7336   59.4944   12.8880 N   0  0  0  0  0  0  0  0  0  0  0  0
  -14.9762   59.1335   13.3470 N   0  0  0  0  0  0  0  0  0  0  0  0
  -15.3128   57.9325   12.9046 N   0  0  0  0  0  0  0  0  0  0  0  0
  -14.2734   57.5339   12.1611 N   0  0  0  0  0  0  0  0  0  0  0  0
  -14.2193   56.6707   11.6908 H   0  0  0  0  0  0  0  0  0  0  0  0
  1  2  2  0
  2  3  1  0
  3 13  1  0
 13 14  2  0
 14 15  1  0
 15 16  2  0
 16 17  1  0
 17 19  1  0
 19 20  2  0
 20 21  1  0
 21 22  2  0
 22 23  1  0
 17 18  2  0
  2  5  1  0
  5  6  2  0
  6  7  1  0
  7  8  1  0
  7  9  2  0
  9 10  1  0
 10 11  1  0
 10 12  2  0
 18 13  1  0
 12  5  1  0
 23 19  1  0
  3  4  1  0
 23 24  1  0
M  END
> <minimizedAffinity>
-6.72122

> <CNNscore>
0.2742857039

> <CNNaffinity>
3.9431374073

> <CNN_VS>
1.0815461874

> <CNNaffinity_variance>
1.1330965757

$$$$



 24 26  0  0  0  0  0  0  0  0999 V2000
   -6.8578   52.1170    9.4021 O   0  0  0  0  0  0  0  0  0  0  0  0
   -6.6614   53.1635   10.0068 C   0  0  0  0  0  0  0  0  0  0  0  0
   -5.6866   53.4056   10.9572 N   0  0  0  0  0  0  0  0  0  0  0  0
   -5.6317   54.3255   11.3035 H   0  0  0  0  0  0  0  0  0  0  0  0
   -7.5252   54.3307    9.6777 C   0  0  0  0  0  0  0  0  0  0  0  0
   -8.0733   55.0700   10.7333 C   0  0  0  0  0  0  0  0  0  0  0  0
   -8.8799   56.1723   10.4591 C   0  0  0  0  0  0  0  0  0  0  0  0
   -9.5643   57.0720   11.7561 Cl  0  0  0  0  0  0  0  0  0  0  0  0
   -9.1393   56.5535    9.1443 C   0  0  0  0  0  0  0  0  0  0  0  0
   -8.5751   55.8253    8.0987 C   0  0  0  0  0  0  0  0  0  0  0  0
   -8.9036   56.3486    6.3117 Br  0  0  0  0  0  0  0  0  0  0  0  0
   -7.7654   54.7178    8.3533 C   0  0  0  0  0  0  0  0  0  0  0  0
   -4.7614   52.4797   11.4856 C   0  0  0  0  0  0  0  0  0  0  0  0
   -4.9298   51.8127   12.6974 C   0  0  0  0  0  0  0  0  0  0  0  0
   -3.9603   50.9150   13.1497 C   0  0  0  0  0  0  0  0  0  0  0  0
   -2.8098   50.6756   12.3958 C   0  0  0  0  0  0  0  0  0  0  0  0
   -2.6143   51.3351   11.1762 C   0  0  0  0  0  0  0  0  0  0  0  0
   -3.6011   52.2362   10.7370 C   0  0  0  0  0  0  0  0  0  0  0  0
   -1.4286   51.1241   10.3482 C   0  0  0  0  0  0  0  0  0  0  0  0
   -1.3818   50.5872    9.1414 N   0  0  0  0  0  0  0  0  0  0  0  0
   -0.0639   50.5928    8.7564 N   0  0  0  0  0  0  0  0  0  0  0  0
    0.7013   51.1196    9.6989 N   0  0  0  0  0  0  0  0  0  0  0  0
   -0.1417   51.4482   10.6855 N   0  0  0  0  0  0  0  0  0  0  0  0
    0.1265   51.8652   11.5360 H   0  0  0  0  0  0  0  0  0  0  0  0
  1  2  2  0
  2  3  1  0
  3 13  1  0
 13 14  2  0
 14 15  1  0
 15 16  2  0
 16 17  1  0
 17 19  1  0
 19 20  2  0
 20 21  1  0
 21 22  2  0
 22 23  1  0
 17 18  2  0
  2  5  1  0
  5  6  2  0
  6  7  1  0
  7  8  1  0
  7  9  2  0
  9 10  1  0
 10 11  1  0
 10 12  2  0
 18 13  1  0
 12  5  1  0
 23 19  1  0
  3  4  1  0
 23 24  1  0
M  END
> <minimizedAffinity>
-5.79758

> <CNNscore>
0.2264253944

> <CNNaffinity>
4.5806579590

> <CNN_VS>
1.0371773243

> <CNNaffinity_variance>
0.6531813741

$$$$
