


 26 32  0  0  0  0  0  0  0  0999 V2000
  -41.3986    1.0877  -15.5936 O   0  0  0  0  0  0  0  0  0  0  0  0
  -41.1957    2.2975  -15.6741 C   0  0  0  0  0  0  0  0  0  0  0  0
  -39.7725    2.8311  -15.8028 C   0  0  0  0  0  0  0  0  0  0  0  0
  -39.5898    4.1062  -16.6654 C   0  0  0  0  0  0  0  0  0  0  0  0
  -38.7740    4.9823  -15.8754 O   0  0  0  0  0  0  0  0  0  0  0  0
  -38.2574    6.1094  -16.5699 C   0  0  0  0  0  0  0  0  0  0  0  0
  -39.2220    7.2336  -16.4038 C   0  0  0  0  0  0  0  0  0  0  0  0
  -40.4581    7.2321  -16.9325 C   0  0  0  0  0  0  0  0  0  0  0  0
  -41.4547    8.3346  -16.6581 C   0  0  0  0  0  0  0  0  0  0  0  0
  -42.7368    7.8051  -16.1804 N   0  0  0  0  0  0  0  0  0  0  0  0
  -42.7129    7.4812  -14.7465 C   0  0  0  0  0  0  0  0  0  0  0  0
  -43.5113    6.1974  -14.6083 C   0  0  0  0  0  0  0  0  0  0  0  0
  -43.2063    5.4586  -15.9177 C   0  0  0  0  0  0  0  0  0  0  0  0
  -44.1743    4.3168  -16.1077 C   0  0  0  0  0  0  0  0  0  0  0  0
  -45.5291    4.3784  -16.4083 C   0  0  0  0  0  0  0  0  0  0  0  0
  -46.2494    3.1847  -16.4881 C   0  0  0  0  0  0  0  0  0  0  0  0
  -45.6124    1.9561  -16.2627 C   0  0  0  0  0  0  0  0  0  0  0  0
  -46.5293    0.5015  -16.3676 Cl  0  0  0  0  0  0  0  0  0  0  0  0
  -44.2524    1.8935  -15.9590 C   0  0  0  0  0  0  0  0  0  0  0  0
  -43.5480    3.0831  -15.8834 C   0  0  0  0  0  0  0  0  0  0  0  0
  -42.1763    3.2727  -15.6508 N   0  0  0  0  0  0  0  0  0  0  0  0
  -41.8462    4.6946  -15.8338 C   0  0  0  0  0  0  0  0  0  0  0  0
  -40.9457    4.7216  -17.0769 C   0  0  0  0  0  0  0  0  0  0  0  0
  -40.9590    6.0832  -17.7854 C   0  0  0  0  0  0  0  0  0  0  0  0
  -42.4176    6.3433  -18.1937 C   0  0  0  0  0  0  0  0  0  0  0  0
  -43.2311    6.6205  -16.9302 C   0  0  0  0  0  0  0  0  0  0  0  0
  1  2  2  0
  2  3  1  0
  4  3  1  0
  4  5  1  0
  5  6  1  0
  6  7  1  0
  7  8  2  0
  8  9  1  0
  9 10  1  0
 10 11  1  0
 11 12  1  0
 13 12  1  0
 13 14  1  0
 14 15  2  0
 15 16  1  0
 16 17  2  0
 17 18  1  0
 17 19  1  0
 19 20  2  0
 20 21  1  0
 22 21  1  0
 22 23  1  0
 23 24  1  0
 24 25  1  0
 26 25  1  0
 21  2  1  0
 23  4  1  0
 24  8  1  0
 26 10  1  0
 22 13  1  0
 26 13  1  0
 20 14  1  0
M  END
> <minimizedAffinity>
-10.72784

> <CNNscore>
0.9561843872

> <CNNaffinity>
7.9063796997

> <CNN_VS>
7.5599570274

> <CNNaffinity_variance>
0.3542625010

$$$$



 26 32  0  0  0  0  0  0  0  0999 V2000
  -41.0027    1.0345  -15.6790 O   0  0  0  0  0  0  0  0  0  0  0  0
  -41.6522    2.0438  -15.9447 C   0  0  0  0  0  0  0  0  0  0  0  0
  -43.1768    2.0066  -15.9144 C   0  0  0  0  0  0  0  0  0  0  0  0
  -43.8890    3.3038  -15.4523 C   0  0  0  0  0  0  0  0  0  0  0  0
  -44.9155    3.5380  -16.4263 O   0  0  0  0  0  0  0  0  0  0  0  0
  -45.8679    4.5297  -16.0672 C   0  0  0  0  0  0  0  0  0  0  0  0
  -45.3893    5.8391  -16.5948 C   0  0  0  0  0  0  0  0  0  0  0  0
  -44.2857    6.4601  -16.1430 C   0  0  0  0  0  0  0  0  0  0  0  0
  -43.7615    7.7318  -16.7692 C   0  0  0  0  0  0  0  0  0  0  0  0
  -42.3435    7.6194  -17.1281 N   0  0  0  0  0  0  0  0  0  0  0  0
  -42.1396    6.9172  -18.4035 C   0  0  0  0  0  0  0  0  0  0  0  0
  -40.9081    6.0536  -18.1976 C   0  0  0  0  0  0  0  0  0  0  0  0
  -41.0058    5.6603  -16.7180 C   0  0  0  0  0  0  0  0  0  0  0  0
  -39.6952    5.0796  -16.2470 C   0  0  0  0  0  0  0  0  0  0  0  0
  -38.4893    5.7364  -16.0368 C   0  0  0  0  0  0  0  0  0  0  0  0
  -37.3797    4.9842  -15.6453 C   0  0  0  0  0  0  0  0  0  0  0  0
  -37.4881    3.5966  -15.4760 C   0  0  0  0  0  0  0  0  0  0  0  0
  -36.1005    2.6971  -14.9932 Cl  0  0  0  0  0  0  0  0  0  0  0  0
  -38.6982    2.9361  -15.6886 C   0  0  0  0  0  0  0  0  0  0  0  0
  -39.7918    3.6919  -16.0756 C   0  0  0  0  0  0  0  0  0  0  0  0
  -41.1130    3.2690  -16.2931 N   0  0  0  0  0  0  0  0  0  0  0  0
  -41.9673    4.4455  -16.5168 C   0  0  0  0  0  0  0  0  0  0  0  0
  -42.8990    4.4796  -15.2970 C   0  0  0  0  0  0  0  0  0  0  0  0
  -43.4516    5.8837  -15.0159 C   0  0  0  0  0  0  0  0  0  0  0  0
  -42.2325    6.7853  -14.7649 C   0  0  0  0  0  0  0  0  0  0  0  0
  -41.4945    6.9798  -16.0888 C   0  0  0  0  0  0  0  0  0  0  0  0
  1  2  2  0
  2  3  1  0
  4  3  1  0
  4  5  1  0
  5  6  1  0
  6  7  1  0
  7  8  2  0
  8  9  1  0
  9 10  1  0
 10 11  1  0
 11 12  1  0
 13 12  1  0
 13 14  1  0
 14 15  2  0
 15 16  1  0
 16 17  2  0
 17 18  1  0
 17 19  1  0
 19 20  2  0
 20 21  1  0
 22 21  1  0
 22 23  1  0
 23 24  1  0
 24 25  1  0
 26 25  1  0
 21  2  1  0
 23  4  1  0
 24  8  1  0
 26 10  1  0
 22 13  1  0
 26 13  1  0
 20 14  1  0
M  END
> <minimizedAffinity>
-10.72926

> <CNNscore>
0.8750749230

> <CNNaffinity>
7.5735821724

> <CNN_VS>
6.6274518967

> <CNNaffinity_variance>
0.1806387752

$$$$



 26 32  0  0  0  0  0  0  0  0999 V2000
  -46.0371    5.4297  -16.3839 O   0  0  0  0  0  0  0  0  0  0  0  0
  -44.8132    5.3942  -16.2741 C   0  0  0  0  0  0  0  0  0  0  0  0
  -44.1045    4.0719  -15.9986 C   0  0  0  0  0  0  0  0  0  0  0  0
  -42.7046    3.8933  -16.6404 C   0  0  0  0  0  0  0  0  0  0  0  0
  -41.8642    3.4093  -15.5837 O   0  0  0  0  0  0  0  0  0  0  0  0
  -40.5954    2.9239  -16.0011 C   0  0  0  0  0  0  0  0  0  0  0  0
  -39.6276    4.0560  -15.9407 C   0  0  0  0  0  0  0  0  0  0  0  0
  -39.6958    5.1314  -16.7446 C   0  0  0  0  0  0  0  0  0  0  0  0
  -38.7688    6.3150  -16.5899 C   0  0  0  0  0  0  0  0  0  0  0  0
  -39.5081    7.5786  -16.4948 N   0  0  0  0  0  0  0  0  0  0  0  0
  -40.0327    7.8235  -15.1434 C   0  0  0  0  0  0  0  0  0  0  0  0
  -41.4071    8.4351  -15.3476 C   0  0  0  0  0  0  0  0  0  0  0  0
  -41.9063    7.7443  -16.6231 C   0  0  0  0  0  0  0  0  0  0  0  0
  -43.1131    8.4680  -17.1678 C   0  0  0  0  0  0  0  0  0  0  0  0
  -43.1665    9.7174  -17.7726 C   0  0  0  0  0  0  0  0  0  0  0  0
  -44.4114   10.2190  -18.1581 C   0  0  0  0  0  0  0  0  0  0  0  0
  -45.5771    9.4737  -17.9308 C   0  0  0  0  0  0  0  0  0  0  0  0
  -47.0976   10.1210  -18.4173 Cl  0  0  0  0  0  0  0  0  0  0  0  0
  -45.5245    8.2198  -17.3218 C   0  0  0  0  0  0  0  0  0  0  0  0
  -44.2849    7.7321  -16.9446 C   0  0  0  0  0  0  0  0  0  0  0  0
  -43.9728    6.4883  -16.3725 N   0  0  0  0  0  0  0  0  0  0  0  0
  -42.5107    6.3388  -16.3069 C   0  0  0  0  0  0  0  0  0  0  0  0
  -42.1979    5.2008  -17.2887 C   0  0  0  0  0  0  0  0  0  0  0  0
  -40.7584    5.2579  -17.8186 C   0  0  0  0  0  0  0  0  0  0  0  0
  -40.6132    6.6129  -18.5291 C   0  0  0  0  0  0  0  0  0  0  0  0
  -40.6200    7.7161  -17.4719 C   0  0  0  0  0  0  0  0  0  0  0  0
  1  2  2  0
  2  3  1  0
  4  3  1  0
  4  5  1  0
  5  6  1  0
  6  7  1  0
  7  8  2  0
  8  9  1  0
  9 10  1  0
 10 11  1  0
 11 12  1  0
 13 12  1  0
 13 14  1  0
 14 15  2  0
 15 16  1  0
 16 17  2  0
 17 18  1  0
 17 19  1  0
 19 20  2  0
 20 21  1  0
 22 21  1  0
 22 23  1  0
 23 24  1  0
 24 25  1  0
 26 25  1  0
 21  2  1  0
 23  4  1  0
 24  8  1  0
 26 10  1  0
 22 13  1  0
 26 13  1  0
 20 14  1  0
M  END
> <minimizedAffinity>
-9.19650

> <CNNscore>
0.8496795297

> <CNNaffinity>
7.9757857323

> <CNN_VS>
6.7768616676

> <CNNaffinity_variance>
0.7803735733

$$$$



 26 32  0  0  0  0  0  0  0  0999 V2000
  -46.3749    5.8168  -17.5014 O   0  0  0  0  0  0  0  0  0  0  0  0
  -45.2191    6.2158  -17.3747 C   0  0  0  0  0  0  0  0  0  0  0  0
  -44.8801    7.6815  -17.6269 C   0  0  0  0  0  0  0  0  0  0  0  0
  -43.7607    8.2918  -16.7450 C   0  0  0  0  0  0  0  0  0  0  0  0
  -42.8913    8.9753  -17.6583 O   0  0  0  0  0  0  0  0  0  0  0  0
  -41.9352    9.8320  -17.0490 C   0  0  0  0  0  0  0  0  0  0  0  0
  -40.6922    9.0425  -16.8172 C   0  0  0  0  0  0  0  0  0  0  0  0
  -40.6165    8.0204  -15.9471 C   0  0  0  0  0  0  0  0  0  0  0  0
  -39.3768    7.1667  -15.8107 C   0  0  0  0  0  0  0  0  0  0  0  0
  -39.6825    5.7369  -15.9317 N   0  0  0  0  0  0  0  0  0  0  0  0
  -39.8150    5.3061  -17.3311 C   0  0  0  0  0  0  0  0  0  0  0  0
  -40.9653    4.3154  -17.3423 C   0  0  0  0  0  0  0  0  0  0  0  0
  -41.9012    4.8609  -16.2561 C   0  0  0  0  0  0  0  0  0  0  0  0
  -42.9349    3.8238  -15.8920 C   0  0  0  0  0  0  0  0  0  0  0  0
  -42.7529    2.6345  -15.1977 C   0  0  0  0  0  0  0  0  0  0  0  0
  -43.8525    1.7929  -15.0167 C   0  0  0  0  0  0  0  0  0  0  0  0
  -45.1075    2.1458  -15.5327 C   0  0  0  0  0  0  0  0  0  0  0  0
  -46.4439    1.0854  -15.2932 Cl  0  0  0  0  0  0  0  0  0  0  0  0
  -45.2908    3.3391  -16.2316 C   0  0  0  0  0  0  0  0  0  0  0  0
  -44.1939    4.1660  -16.4042 C   0  0  0  0  0  0  0  0  0  0  0  0
  -44.1397    5.4288  -17.0159 N   0  0  0  0  0  0  0  0  0  0  0  0
  -42.8037    6.0094  -16.8103 C   0  0  0  0  0  0  0  0  0  0  0  0
  -43.0481    7.2170  -15.8943 C   0  0  0  0  0  0  0  0  0  0  0  0
  -41.8000    7.6113  -15.0925 C   0  0  0  0  0  0  0  0  0  0  0  0
  -41.4245    6.3843  -14.2469 C   0  0  0  0  0  0  0  0  0  0  0  0
  -40.8884    5.2997  -15.1803 C   0  0  0  0  0  0  0  0  0  0  0  0
  1  2  2  0
  2  3  1  0
  4  3  1  0
  4  5  1  0
  5  6  1  0
  6  7  1  0
  7  8  2  0
  8  9  1  0
  9 10  1  0
 10 11  1  0
 11 12  1  0
 13 12  1  0
 13 14  1  0
 14 15  2  0
 15 16  1  0
 16 17  2  0
 17 18  1  0
 17 19  1  0
 19 20  2  0
 20 21  1  0
 22 21  1  0
 22 23  1  0
 23 24  1  0
 24 25  1  0
 26 25  1  0
 21  2  1  0
 23  4  1  0
 24  8  1  0
 26 10  1  0
 22 13  1  0
 26 13  1  0
 20 14  1  0
M  END
> <minimizedAffinity>
-8.28922

> <CNNscore>
0.8166674376

> <CNNaffinity>
7.7065491676

> <CNN_VS>
6.2936878204

> <CNNaffinity_variance>
0.4102096856

$$$$



 26 32  0  0  0  0  0  0  0  0999 V2000
  -43.6084    1.1809  -15.8041 O   0  0  0  0  0  0  0  0  0  0  0  0
  -42.7607    2.0668  -15.7164 C   0  0  0  0  0  0  0  0  0  0  0  0
  -41.2887    1.7072  -15.5416 C   0  0  0  0  0  0  0  0  0  0  0  0
  -40.2629    2.6540  -16.2161 C   0  0  0  0  0  0  0  0  0  0  0  0
  -39.2794    2.9244  -15.2078 O   0  0  0  0  0  0  0  0  0  0  0  0
  -38.0992    3.5619  -15.6769 C   0  0  0  0  0  0  0  0  0  0  0  0
  -38.2933    5.0349  -15.5560 C   0  0  0  0  0  0  0  0  0  0  0  0
  -39.1874    5.7256  -16.2848 C   0  0  0  0  0  0  0  0  0  0  0  0
  -39.4413    7.1993  -16.0657 C   0  0  0  0  0  0  0  0  0  0  0  0
  -40.8675    7.4849  -15.8741 N   0  0  0  0  0  0  0  0  0  0  0  0
  -41.3168    7.2119  -14.5012 C   0  0  0  0  0  0  0  0  0  0  0  0
  -42.6990    6.5999  -14.6420 C   0  0  0  0  0  0  0  0  0  0  0  0
  -42.5948    5.8100  -15.9529 C   0  0  0  0  0  0  0  0  0  0  0  0
  -43.9695    5.4088  -16.4285 C   0  0  0  0  0  0  0  0  0  0  0  0
  -44.9710    6.2198  -16.9471 C   0  0  0  0  0  0  0  0  0  0  0  0
  -46.1962    5.6372  -17.2783 C   0  0  0  0  0  0  0  0  0  0  0  0
  -46.4040    4.2643  -17.0830 C   0  0  0  0  0  0  0  0  0  0  0  0
  -47.9271    3.5763  -17.5007 Cl  0  0  0  0  0  0  0  0  0  0  0  0
  -45.3994    3.4496  -16.5605 C   0  0  0  0  0  0  0  0  0  0  0  0
  -44.1886    4.0378  -16.2367 C   0  0  0  0  0  0  0  0  0  0  0  0
  -43.0210    3.4247  -15.7544 N   0  0  0  0  0  0  0  0  0  0  0  0
  -41.9326    4.4140  -15.7222 C   0  0  0  0  0  0  0  0  0  0  0  0
  -40.9375    3.9229  -16.7831 C   0  0  0  0  0  0  0  0  0  0  0  0
  -40.0539    5.0522  -17.3307 C   0  0  0  0  0  0  0  0  0  0  0  0
  -41.0082    6.0851  -17.9509 C   0  0  0  0  0  0  0  0  0  0  0  0
  -41.7692    6.7789  -16.8220 C   0  0  0  0  0  0  0  0  0  0  0  0
  1  2  2  0
  2  3  1  0
  4  3  1  0
  4  5  1  0
  5  6  1  0
  6  7  1  0
  7  8  2  0
  8  9  1  0
  9 10  1  0
 10 11  1  0
 11 12  1  0
 13 12  1  0
 13 14  1  0
 14 15  2  0
 15 16  1  0
 16 17  2  0
 17 18  1  0
 17 19  1  0
 19 20  2  0
 20 21  1  0
 22 21  1  0
 22 23  1  0
 23 24  1  0
 24 25  1  0
 26 25  1  0
 21  2  1  0
 23  4  1  0
 24  8  1  0
 26 10  1  0
 22 13  1  0
 26 13  1  0
 20 14  1  0
M  END
> <minimizedAffinity>
-9.69258

> <CNNscore>
0.7498705387

> <CNNaffinity>
7.6957650185

> <CNN_VS>
5.7708272934

> <CNNaffinity_variance>
0.5419602394

$$$$



 26 32  0  0  0  0  0  0  0  0999 V2000
  -38.3187    3.7919  -16.2882 O   0  0  0  0  0  0  0  0  0  0  0  0
  -39.0845    4.7533  -16.2773 C   0  0  0  0  0  0  0  0  0  0  0  0
  -38.5837    6.1392  -16.6715 C   0  0  0  0  0  0  0  0  0  0  0  0
  -39.5968    7.0557  -17.4043 C   0  0  0  0  0  0  0  0  0  0  0  0
  -39.5170    8.3199  -16.7316 O   0  0  0  0  0  0  0  0  0  0  0  0
  -40.1671    9.3948  -17.3959 C   0  0  0  0  0  0  0  0  0  0  0  0
  -41.5656    9.4722  -16.8859 C   0  0  0  0  0  0  0  0  0  0  0  0
  -42.4887    8.5210  -17.1107 C   0  0  0  0  0  0  0  0  0  0  0  0
  -43.8663    8.5706  -16.4911 C   0  0  0  0  0  0  0  0  0  0  0  0
  -44.1956    7.3236  -15.7919 N   0  0  0  0  0  0  0  0  0  0  0  0
  -43.6027    7.2581  -14.4482 C   0  0  0  0  0  0  0  0  0  0  0  0
  -43.1537    5.8184  -14.2737 C   0  0  0  0  0  0  0  0  0  0  0  0
  -42.7338    5.4135  -15.6925 C   0  0  0  0  0  0  0  0  0  0  0  0
  -42.5756    3.9154  -15.7800 C   0  0  0  0  0  0  0  0  0  0  0  0
  -43.5667    2.9425  -15.7498 C   0  0  0  0  0  0  0  0  0  0  0  0
  -43.1848    1.6000  -15.7940 C   0  0  0  0  0  0  0  0  0  0  0  0
  -41.8285    1.2508  -15.8615 C   0  0  0  0  0  0  0  0  0  0  0  0
  -41.3902   -0.4144  -15.9137 Cl  0  0  0  0  0  0  0  0  0  0  0  0
  -40.8326    2.2271  -15.8900 C   0  0  0  0  0  0  0  0  0  0  0  0
  -41.2228    3.5548  -15.8467 C   0  0  0  0  0  0  0  0  0  0  0  0
  -40.4194    4.7042  -15.9184 N   0  0  0  0  0  0  0  0  0  0  0  0
  -41.2815    5.8925  -16.0121 C   0  0  0  0  0  0  0  0  0  0  0  0
  -41.0168    6.4474  -17.4189 C   0  0  0  0  0  0  0  0  0  0  0  0
  -42.1824    7.2946  -17.9478 C   0  0  0  0  0  0  0  0  0  0  0  0
  -43.4102    6.3707  -17.9753 C   0  0  0  0  0  0  0  0  0  0  0  0
  -43.8345    6.0877  -16.5349 C   0  0  0  0  0  0  0  0  0  0  0  0
  1  2  2  0
  2  3  1  0
  4  3  1  0
  4  5  1  0
  5  6  1  0
  6  7  1  0
  7  8  2  0
  8  9  1  0
  9 10  1  0
 10 11  1  0
 11 12  1  0
 13 12  1  0
 13 14  1  0
 14 15  2  0
 15 16  1  0
 16 17  2  0
 17 18  1  0
 17 19  1  0
 19 20  2  0
 20 21  1  0
 22 21  1  0
 22 23  1  0
 23 24  1  0
 24 25  1  0
 26 25  1  0
 21  2  1  0
 23  4  1  0
 24  8  1  0
 26 10  1  0
 22 13  1  0
 26 13  1  0
 20 14  1  0
M  END
> <minimizedAffinity>
-8.88946

> <CNNscore>
0.2450974584

> <CNNaffinity>
6.6958298683

> <CNN_VS>
1.6411309242

> <CNNaffinity_variance>
0.0156813879

$$$$



 26 32  0  0  0  0  0  0  0  0999 V2000
  -48.1348    5.0469  -20.4871 O   0  0  0  0  0  0  0  0  0  0  0  0
  -49.2961    5.2494  -20.8355 C   0  0  0  0  0  0  0  0  0  0  0  0
  -50.2909    4.0950  -20.9015 C   0  0  0  0  0  0  0  0  0  0  0  0
  -51.7609    4.4303  -20.5405 C   0  0  0  0  0  0  0  0  0  0  0  0
  -52.5489    3.8467  -21.5872 O   0  0  0  0  0  0  0  0  0  0  0  0
  -53.9461    3.8008  -21.3315 C   0  0  0  0  0  0  0  0  0  0  0  0
  -54.5552    5.0453  -21.8813 C   0  0  0  0  0  0  0  0  0  0  0  0
  -54.3093    6.2707  -21.3858 C   0  0  0  0  0  0  0  0  0  0  0  0
  -54.8527    7.5255  -22.0294 C   0  0  0  0  0  0  0  0  0  0  0  0
  -53.7942    8.5069  -22.2916 N   0  0  0  0  0  0  0  0  0  0  0  0
  -53.0443    8.2111  -23.5210 C   0  0  0  0  0  0  0  0  0  0  0  0
  -51.5969    8.5386  -23.2008 C   0  0  0  0  0  0  0  0  0  0  0  0
  -51.4808    8.1730  -21.7155 C   0  0  0  0  0  0  0  0  0  0  0  0
  -50.2092    8.7440  -21.1377 C   0  0  0  0  0  0  0  0  0  0  0  0
  -49.9035   10.0740  -20.8781 C   0  0  0  0  0  0  0  0  0  0  0  0
  -48.6339   10.3825  -20.3853 C   0  0  0  0  0  0  0  0  0  0  0  0
  -47.6927    9.3666  -20.1657 C   0  0  0  0  0  0  0  0  0  0  0  0
  -46.1348    9.7802  -19.5580 Cl  0  0  0  0  0  0  0  0  0  0  0  0
  -47.9983    8.0310  -20.4279 C   0  0  0  0  0  0  0  0  0  0  0  0
  -49.2603    7.7367  -20.9153 C   0  0  0  0  0  0  0  0  0  0  0  0
  -49.8156    6.4786  -21.1993 N   0  0  0  0  0  0  0  0  0  0  0  0
  -51.2407    6.6410  -21.5260 C   0  0  0  0  0  0  0  0  0  0  0  0
  -51.9794    5.9502  -20.3710 C   0  0  0  0  0  0  0  0  0  0  0  0
  -53.4082    6.4790  -20.1845 C   0  0  0  0  0  0  0  0  0  0  0  0
  -53.2778    7.9824  -19.8936 C   0  0  0  0  0  0  0  0  0  0  0  0
  -52.8300    8.6854  -21.1743 C   0  0  0  0  0  0  0  0  0  0  0  0
  1  2  2  0
  2  3  1  0
  4  3  1  0
  4  5  1  0
  5  6  1  0
  6  7  1  0
  7  8  2  0
  8  9  1  0
  9 10  1  0
 10 11  1  0
 11 12  1  0
 13 12  1  0
 13 14  1  0
 14 15  2  0
 15 16  1  0
 16 17  2  0
 17 18  1  0
 17 19  1  0
 19 20  2  0
 20 21  1  0
 22 21  1  0
 22 23  1  0
 23 24  1  0
 24 25  1  0
 26 25  1  0
 21  2  1  0
 23  4  1  0
 24  8  1  0
 26 10  1  0
 22 13  1  0
 26 13  1  0
 20 14  1  0
M  END
> <minimizedAffinity>
-5.56501

> <CNNscore>
0.2405183166

> <CNNaffinity>
5.4982409477

> <CNN_VS>
1.3224276304

> <CNNaffinity_variance>
0.0173030775

$$$$



 26 32  0  0  0  0  0  0  0  0999 V2000
  -35.4158   -0.3084  -17.0930 O   0  0  0  0  0  0  0  0  0  0  0  0
  -34.4705   -0.2602  -16.3087 C   0  0  0  0  0  0  0  0  0  0  0  0
  -33.2694   -1.1817  -16.4953 C   0  0  0  0  0  0  0  0  0  0  0  0
  -31.8882   -0.6040  -16.0930 C   0  0  0  0  0  0  0  0  0  0  0  0
  -31.2729   -1.6213  -15.2907 O   0  0  0  0  0  0  0  0  0  0  0  0
  -29.8912   -1.4217  -15.0251 C   0  0  0  0  0  0  0  0  0  0  0  0
  -29.7736   -0.6655  -13.7459 C   0  0  0  0  0  0  0  0  0  0  0  0
  -30.1834    0.6064  -13.5980 C   0  0  0  0  0  0  0  0  0  0  0  0
  -30.1536    1.3140  -12.2629 C   0  0  0  0  0  0  0  0  0  0  0  0
  -31.4545    1.9040  -11.9286 N   0  0  0  0  0  0  0  0  0  0  0  0
  -32.3944    0.9179  -11.3756 C   0  0  0  0  0  0  0  0  0  0  0  0
  -33.7466    1.2712  -11.9684 C   0  0  0  0  0  0  0  0  0  0  0  0
  -33.3851    1.7986  -13.3628 C   0  0  0  0  0  0  0  0  0  0  0  0
  -34.5684    2.5093  -13.9725 C   0  0  0  0  0  0  0  0  0  0  0  0
  -35.1203    3.7306  -13.6070 C   0  0  0  0  0  0  0  0  0  0  0  0
  -36.2578    4.1773  -14.2827 C   0  0  0  0  0  0  0  0  0  0  0  0
  -36.8269    3.4012  -15.3024 C   0  0  0  0  0  0  0  0  0  0  0  0
  -38.2307    3.9799  -16.1161 Cl  0  0  0  0  0  0  0  0  0  0  0  0
  -36.2743    2.1738  -15.6688 C   0  0  0  0  0  0  0  0  0  0  0  0
  -35.1462    1.7414  -14.9927 C   0  0  0  0  0  0  0  0  0  0  0  0
  -34.3853    0.5823  -15.2150 N   0  0  0  0  0  0  0  0  0  0  0  0
  -33.1780    0.6273  -14.3756 C   0  0  0  0  0  0  0  0  0  0  0  0
  -32.0209    0.7580  -15.3761 C   0  0  0  0  0  0  0  0  0  0  0  0
  -30.7709    1.3941  -14.7525 C   0  0  0  0  0  0  0  0  0  0  0  0
  -31.1945    2.7876  -14.2618 C   0  0  0  0  0  0  0  0  0  0  0  0
  -32.1150    2.6156  -13.0543 C   0  0  0  0  0  0  0  0  0  0  0  0
  1  2  2  0
  2  3  1  0
  4  3  1  0
  4  5  1  0
  5  6  1  0
  6  7  1  0
  7  8  2  0
  8  9  1  0
  9 10  1  0
 10 11  1  0
 11 12  1  0
 13 12  1  0
 13 14  1  0
 14 15  2  0
 15 16  1  0
 16 17  2  0
 17 18  1  0
 17 19  1  0
 19 20  2  0
 20 21  1  0
 22 21  1  0
 22 23  1  0
 23 24  1  0
 24 25  1  0
 26 25  1  0
 21  2  1  0
 23  4  1  0
 24  8  1  0
 26 10  1  0
 22 13  1  0
 26 13  1  0
 20 14  1  0
M  END
> <minimizedAffinity>
-8.09955

> <CNNscore>
0.2035130113

> <CNNaffinity>
5.9311199188

> <CNN_VS>
1.2070600986

> <CNNaffinity_variance>
0.0399799459

$$$$



 26 32  0  0  0  0  0  0  0  0999 V2000
  -49.8304   11.4171  -21.5618 O   0  0  0  0  0  0  0  0  0  0  0  0
  -50.1309   11.4164  -22.7538 C   0  0  0  0  0  0  0  0  0  0  0  0
  -49.2260   12.0985  -23.7748 C   0  0  0  0  0  0  0  0  0  0  0  0
  -49.1506   11.4414  -25.1769 C   0  0  0  0  0  0  0  0  0  0  0  0
  -49.3257   12.5182  -26.1081 O   0  0  0  0  0  0  0  0  0  0  0  0
  -49.0323   12.1952  -27.4605 C   0  0  0  0  0  0  0  0  0  0  0  0
  -50.2942   11.7361  -28.1077 C   0  0  0  0  0  0  0  0  0  0  0  0
  -50.9268   10.5984  -27.7713 C   0  0  0  0  0  0  0  0  0  0  0  0
  -52.2613   10.2109  -28.3654 C   0  0  0  0  0  0  0  0  0  0  0  0
  -53.2497    9.8955  -27.3282 N   0  0  0  0  0  0  0  0  0  0  0  0
  -53.8653   11.1000  -26.7523 C   0  0  0  0  0  0  0  0  0  0  0  0
  -54.0064   10.8123  -25.2684 C   0  0  0  0  0  0  0  0  0  0  0  0
  -52.7800    9.9412  -24.9675 C   0  0  0  0  0  0  0  0  0  0  0  0
  -52.9295    9.2816  -23.6186 C   0  0  0  0  0  0  0  0  0  0  0  0
  -53.7975    8.2611  -23.2514 C   0  0  0  0  0  0  0  0  0  0  0  0
  -53.8012    7.8350  -21.9216 C   0  0  0  0  0  0  0  0  0  0  0  0
  -52.9483    8.4335  -20.9832 C   0  0  0  0  0  0  0  0  0  0  0  0
  -52.9777    7.8858  -19.3502 Cl  0  0  0  0  0  0  0  0  0  0  0  0
  -52.0777    9.4595  -21.3508 C   0  0  0  0  0  0  0  0  0  0  0  0
  -52.0819    9.8732  -22.6720 C   0  0  0  0  0  0  0  0  0  0  0  0
  -51.2675   10.8371  -23.2882 N   0  0  0  0  0  0  0  0  0  0  0  0
  -51.5057   10.8157  -24.7397 C   0  0  0  0  0  0  0  0  0  0  0  0
  -50.1863   10.3063  -25.3367 C   0  0  0  0  0  0  0  0  0  0  0  0
  -50.3736    9.6605  -26.7165 C   0  0  0  0  0  0  0  0  0  0  0  0
  -51.3420    8.4843  -26.5150 C   0  0  0  0  0  0  0  0  0  0  0  0
  -52.7321    9.0474  -26.2224 C   0  0  0  0  0  0  0  0  0  0  0  0
  1  2  2  0
  2  3  1  0
  4  3  1  0
  4  5  1  0
  5  6  1  0
  6  7  1  0
  7  8  2  0
  8  9  1  0
  9 10  1  0
 10 11  1  0
 11 12  1  0
 13 12  1  0
 13 14  1  0
 14 15  2  0
 15 16  1  0
 16 17  2  0
 17 18  1  0
 17 19  1  0
 19 20  2  0
 20 21  1  0
 22 21  1  0
 22 23  1  0
 23 24  1  0
 24 25  1  0
 26 25  1  0
 21  2  1  0
 23  4  1  0
 24  8  1  0
 26 10  1  0
 22 13  1  0
 26 13  1  0
 20 14  1  0
M  END
> <minimizedAffinity>
-6.87167

> <CNNscore>
0.1861346364

> <CNNaffinity>
5.1700816154

> <CNN_VS>
0.9623312354

> <CNNaffinity_variance>
0.0723480880

$$$$
