


 26 28  0  0  0  0  0  0  0  0999 V2000
   52.4918   39.7866   17.4347 N   0  0  0  0  0  0  0  0  0  0  0  0
   53.1609   40.1398   18.5926 C   0  0  0  0  0  0  0  0  0  0  0  0
   52.4808   40.7855   19.5503 N   0  0  0  0  0  0  0  0  0  0  0  0
   53.1323   41.1404   20.6762 C   0  0  0  0  0  0  0  0  0  0  0  0
   52.4090   41.7948   21.5983 F   0  0  0  0  0  0  0  0  0  0  0  0
   54.4265   40.9399   20.9755 N   0  0  0  0  0  0  0  0  0  0  0  0
   55.0914   40.2748   20.0093 C   0  0  0  0  0  0  0  0  0  0  0  0
   56.4393   39.8425   19.9126 C   0  0  0  0  0  0  0  0  0  0  0  0
   56.6660   39.2210   18.7398 N   0  0  0  0  0  0  0  0  0  0  0  0
   55.4650   39.2251   18.1326 N   0  0  0  0  0  0  0  0  0  0  0  0
   54.4935   39.8749   18.8306 C   0  0  0  0  0  0  0  0  0  0  0  0
   51.5380   40.0073   17.3306 H   0  0  0  0  0  0  0  0  0  0  0  0
   52.9693   39.3147   16.7147 H   0  0  0  0  0  0  0  0  0  0  0  0
   55.3035   38.7964   17.2612 H   0  0  0  0  0  0  0  0  0  0  0  0
   57.5387   40.0019   20.9232 C   0  0  0  0  0  0  0  0  0  0  0  0
   58.7739   39.3904   20.4579 O   0  0  0  0  0  0  0  0  0  0  0  0
   59.2298   38.4818   21.4809 C   0  0  0  0  0  0  0  0  0  0  0  0
   58.0012   38.0820   22.2843 C   0  0  0  0  0  0  0  0  0  0  0  0
   58.2965   37.6760   23.6200 O   0  0  0  0  0  0  0  0  0  0  0  0
   57.2049   39.3779   22.2864 C   0  0  0  0  0  0  0  0  0  0  0  0
   57.6776   40.2143   23.3592 O   0  0  0  0  0  0  0  0  0  0  0  0
   58.7583   38.3935   24.0814 H   0  0  0  0  0  0  0  0  0  0  0  0
   58.6323   40.3563   23.2619 H   0  0  0  0  0  0  0  0  0  0  0  0
   59.9195   37.2970   20.8114 C   0  0  0  0  0  0  0  0  0  0  0  0
   61.1980   37.6973   20.3207 O   0  0  0  0  0  0  0  0  0  0  0  0
   61.0868   38.4101   19.6723 H   0  0  0  0  0  0  0  0  0  0  0  0
  1  2  1  0
  2  3  2  0
  3  4  1  0
  4  5  1  0
  4  6  2  0
  6  7  1  0
  7  8  1  0
 15  8  1  0
 15 16  1  0
 16 17  1  0
 17 24  1  0
 24 25  1  0
 17 18  1  0
 18 19  1  0
 18 20  1  0
 20 21  1  0
  8  9  2  0
  9 10  1  0
 10 11  1  0
 11  2  1  0
 11  7  2  0
 20 15  1  0
  1 12  1  0
  1 13  1  0
 25 26  1  0
 19 22  1  0
 21 23  1  0
 10 14  1  0
M  END
> <minimizedAffinity>
-9.45105

> <CNNscore>
0.9543332458

> <CNNaffinity>
7.2412815094

> <CNN_VS>
6.9105958939

> <CNNaffinity_variance>
0.1862714738

$$$$



 26 28  0  0  0  0  0  0  0  0999 V2000
   52.1936   40.3765   17.4886 N   0  0  0  0  0  0  0  0  0  0  0  0
   52.9984   40.4305   18.6123 C   0  0  0  0  0  0  0  0  0  0  0  0
   52.4936   40.9649   19.7331 N   0  0  0  0  0  0  0  0  0  0  0  0
   53.2786   41.0285   20.8274 C   0  0  0  0  0  0  0  0  0  0  0  0
   52.7292   41.5831   21.9195 F   0  0  0  0  0  0  0  0  0  0  0  0
   54.5546   40.6264   20.9490 N   0  0  0  0  0  0  0  0  0  0  0  0
   55.0411   40.0764   19.8181 C   0  0  0  0  0  0  0  0  0  0  0  0
   56.3059   39.5142   19.5063 C   0  0  0  0  0  0  0  0  0  0  0  0
   56.3484   39.0960   18.2271 N   0  0  0  0  0  0  0  0  0  0  0  0
   55.1124   39.3521   17.7605 N   0  0  0  0  0  0  0  0  0  0  0  0
   54.2986   39.9722   18.6586 C   0  0  0  0  0  0  0  0  0  0  0  0
   51.2727   40.7227   17.5256 H   0  0  0  0  0  0  0  0  0  0  0  0
   52.5417   39.9919   16.6519 H   0  0  0  0  0  0  0  0  0  0  0  0
   54.8225   39.1123   16.8507 H   0  0  0  0  0  0  0  0  0  0  0  0
   57.4973   39.3557   20.4068 C   0  0  0  0  0  0  0  0  0  0  0  0
   57.8605   37.9552   20.5576 O   0  0  0  0  0  0  0  0  0  0  0  0
   57.9221   37.6642   21.9687 C   0  0  0  0  0  0  0  0  0  0  0  0
   57.0288   38.6829   22.6608 C   0  0  0  0  0  0  0  0  0  0  0  0
   57.3845   38.9276   24.0208 O   0  0  0  0  0  0  0  0  0  0  0  0
   57.2727   39.9240   21.8160 C   0  0  0  0  0  0  0  0  0  0  0  0
   58.4585   40.5875   22.2930 O   0  0  0  0  0  0  0  0  0  0  0  0
   58.3050   39.2303   24.0647 H   0  0  0  0  0  0  0  0  0  0  0  0
   59.2039   39.9670   22.2790 H   0  0  0  0  0  0  0  0  0  0  0  0
   57.4721   36.2235   22.1916 C   0  0  0  0  0  0  0  0  0  0  0  0
   56.4241   36.1896   23.1591 O   0  0  0  0  0  0  0  0  0  0  0  0
   56.7459   36.5568   23.9973 H   0  0  0  0  0  0  0  0  0  0  0  0
  1  2  1  0
  2  3  2  0
  3  4  1  0
  4  5  1  0
  4  6  2  0
  6  7  1  0
  7  8  1  0
 15  8  1  0
 15 16  1  0
 16 17  1  0
 17 24  1  0
 24 25  1  0
 17 18  1  0
 18 19  1  0
 18 20  1  0
 20 21  1  0
  8  9  2  0
  9 10  1  0
 10 11  1  0
 11  2  1  0
 11  7  2  0
 20 15  1  0
  1 12  1  0
  1 13  1  0
 25 26  1  0
 19 22  1  0
 21 23  1  0
 10 14  1  0
M  END
> <minimizedAffinity>
-9.93756

> <CNNscore>
0.9513758421

> <CNNaffinity>
7.3659172058

> <CNN_VS>
7.0077557564

> <CNNaffinity_variance>
0.4759305716

$$$$



 26 28  0  0  0  0  0  0  0  0999 V2000
   58.8756   37.4347   24.2648 N   0  0  0  0  0  0  0  0  0  0  0  0
   57.9679   37.5399   23.2263 C   0  0  0  0  0  0  0  0  0  0  0  0
   57.0593   36.5666   23.0727 N   0  0  0  0  0  0  0  0  0  0  0  0
   56.1794   36.6606   22.0553 C   0  0  0  0  0  0  0  0  0  0  0  0
   55.2985   35.6546   21.9386 F   0  0  0  0  0  0  0  0  0  0  0  0
   56.0948   37.6288   21.1278 N   0  0  0  0  0  0  0  0  0  0  0  0
   57.0046   38.6077   21.3069 C   0  0  0  0  0  0  0  0  0  0  0  0
   57.2602   39.8057   20.5913 C   0  0  0  0  0  0  0  0  0  0  0  0
   58.2944   40.4801   21.1287 N   0  0  0  0  0  0  0  0  0  0  0  0
   58.6498   39.7360   22.1922 N   0  0  0  0  0  0  0  0  0  0  0  0
   57.9356   38.5848   22.3265 C   0  0  0  0  0  0  0  0  0  0  0  0
   58.8419   36.6601   24.8714 H   0  0  0  0  0  0  0  0  0  0  0  0
   59.5552   38.1345   24.3973 H   0  0  0  0  0  0  0  0  0  0  0  0
   59.3628   40.0006   22.8174 H   0  0  0  0  0  0  0  0  0  0  0  0
   56.5340   40.3414   19.3908 C   0  0  0  0  0  0  0  0  0  0  0  0
   55.4798   41.2643   19.7819 O   0  0  0  0  0  0  0  0  0  0  0  0
   54.2530   40.8197   19.1677 C   0  0  0  0  0  0  0  0  0  0  0  0
   54.4138   39.3294   18.9074 C   0  0  0  0  0  0  0  0  0  0  0  0
   53.5998   38.8422   17.8416 O   0  0  0  0  0  0  0  0  0  0  0  0
   55.8858   39.2436   18.5341 C   0  0  0  0  0  0  0  0  0  0  0  0
   56.0296   39.5397   17.1321 O   0  0  0  0  0  0  0  0  0  0  0  0
   53.8047   39.3307   17.0290 H   0  0  0  0  0  0  0  0  0  0  0  0
   55.6409   40.4082   16.9436 H   0  0  0  0  0  0  0  0  0  0  0  0
   53.0920   41.1426   20.1034 C   0  0  0  0  0  0  0  0  0  0  0  0
   53.1965   40.3580   21.2905 O   0  0  0  0  0  0  0  0  0  0  0  0
   53.1678   39.4164   21.0592 H   0  0  0  0  0  0  0  0  0  0  0  0
  1  2  1  0
  2  3  2  0
  3  4  1  0
  4  5  1  0
  4  6  2  0
  6  7  1  0
  7  8  1  0
 15  8  1  0
 15 16  1  0
 16 17  1  0
 17 24  1  0
 24 25  1  0
 17 18  1  0
 18 19  1  0
 18 20  1  0
 20 21  1  0
  8  9  2  0
  9 10  1  0
 10 11  1  0
 11  2  1  0
 11  7  2  0
 20 15  1  0
  1 12  1  0
  1 13  1  0
 25 26  1  0
 19 22  1  0
 21 23  1  0
 10 14  1  0
M  END
> <minimizedAffinity>
-5.79800

> <CNNscore>
0.4444910586

> <CNNaffinity>
6.1365909576

> <CNN_VS>
2.7276597023

> <CNNaffinity_variance>
0.5388318896

$$$$



 26 28  0  0  0  0  0  0  0  0999 V2000
   63.8960   35.5795   18.7186 N   0  0  0  0  0  0  0  0  0  0  0  0
   63.5687   36.4552   19.7381 C   0  0  0  0  0  0  0  0  0  0  0  0
   64.5633   37.0471   20.4140 N   0  0  0  0  0  0  0  0  0  0  0  0
   64.2482   37.8935   21.4152 C   0  0  0  0  0  0  0  0  0  0  0  0
   65.2806   38.4505   22.0676 F   0  0  0  0  0  0  0  0  0  0  0  0
   63.0236   38.2270   21.8555 N   0  0  0  0  0  0  0  0  0  0  0  0
   62.0351   37.6361   21.1543 C   0  0  0  0  0  0  0  0  0  0  0  0
   60.6223   37.7136   21.2592 C   0  0  0  0  0  0  0  0  0  0  0  0
   60.0245   36.9256   20.3455 N   0  0  0  0  0  0  0  0  0  0  0  0
   61.0495   36.3991   19.6503 N   0  0  0  0  0  0  0  0  0  0  0  0
   62.2773   36.7609   20.1140 C   0  0  0  0  0  0  0  0  0  0  0  0
   64.8408   35.4067   18.5025 H   0  0  0  0  0  0  0  0  0  0  0  0
   63.1842   35.1291   18.2090 H   0  0  0  0  0  0  0  0  0  0  0  0
   60.9227   35.8051   18.8755 H   0  0  0  0  0  0  0  0  0  0  0  0
   59.8075   38.5334   22.2181 C   0  0  0  0  0  0  0  0  0  0  0  0
   59.0941   37.6859   23.1608 O   0  0  0  0  0  0  0  0  0  0  0  0
   57.6993   38.0498   23.1143 C   0  0  0  0  0  0  0  0  0  0  0  0
   57.4598   38.6746   21.7479 C   0  0  0  0  0  0  0  0  0  0  0  0
   56.3560   39.5783   21.7161 O   0  0  0  0  0  0  0  0  0  0  0  0
   58.7653   39.4220   21.5228 C   0  0  0  0  0  0  0  0  0  0  0  0
   58.6830   40.7086   22.1646 O   0  0  0  0  0  0  0  0  0  0  0  0
   56.4962   40.2830   22.3676 H   0  0  0  0  0  0  0  0  0  0  0  0
   58.4722   40.5885   23.1038 H   0  0  0  0  0  0  0  0  0  0  0  0
   56.8589   36.7998   23.3571 C   0  0  0  0  0  0  0  0  0  0  0  0
   56.1724   36.4399   22.1592 O   0  0  0  0  0  0  0  0  0  0  0  0
   55.5912   37.1677   21.8885 H   0  0  0  0  0  0  0  0  0  0  0  0
  1  2  1  0
  2  3  2  0
  3  4  1  0
  4  5  1  0
  4  6  2  0
  6  7  1  0
  7  8  1  0
 15  8  1  0
 15 16  1  0
 16 17  1  0
 17 24  1  0
 24 25  1  0
 17 18  1  0
 18 19  1  0
 18 20  1  0
 20 21  1  0
  8  9  2  0
  9 10  1  0
 10 11  1  0
 11  2  1  0
 11  7  2  0
 20 15  1  0
  1 12  1  0
  1 13  1  0
 25 26  1  0
 19 22  1  0
 21 23  1  0
 10 14  1  0
M  END
> <minimizedAffinity>
-8.66771

> <CNNscore>
0.4278565049

> <CNNaffinity>
5.4109573364

> <CNN_VS>
2.3151133060

> <CNNaffinity_variance>
0.0072124503

$$$$



 26 28  0  0  0  0  0  0  0  0999 V2000
   61.7159   33.3383   32.7770 N   0  0  0  0  0  0  0  0  0  0  0  0
   62.3341   33.2539   31.5426 C   0  0  0  0  0  0  0  0  0  0  0  0
   63.6443   33.5265   31.4657 N   0  0  0  0  0  0  0  0  0  0  0  0
   64.2482   33.4552   30.2624 C   0  0  0  0  0  0  0  0  0  0  0  0
   65.5578   33.7489   30.2380 F   0  0  0  0  0  0  0  0  0  0  0  0
   63.6905   33.1501   29.0789 N   0  0  0  0  0  0  0  0  0  0  0  0
   62.3768   32.8625   29.1767 C   0  0  0  0  0  0  0  0  0  0  0  0
   61.4161   32.4796   28.2055 C   0  0  0  0  0  0  0  0  0  0  0  0
   60.2029   32.3099   28.7645 N   0  0  0  0  0  0  0  0  0  0  0  0
   60.4135   32.5391   30.0737 N   0  0  0  0  0  0  0  0  0  0  0  0
   61.6888   32.9097   30.3731 C   0  0  0  0  0  0  0  0  0  0  0  0
   62.2378   33.5903   33.5728 H   0  0  0  0  0  0  0  0  0  0  0  0
   60.7538   33.1463   32.8599 H   0  0  0  0  0  0  0  0  0  0  0  0
   59.7082   32.4469   30.7544 H   0  0  0  0  0  0  0  0  0  0  0  0
   61.6215   32.2621   26.7338 C   0  0  0  0  0  0  0  0  0  0  0  0
   60.3520   32.2290   26.0244 O   0  0  0  0  0  0  0  0  0  0  0  0
   60.3081   31.0107   25.2538 C   0  0  0  0  0  0  0  0  0  0  0  0
   61.2478   30.0300   25.9395 C   0  0  0  0  0  0  0  0  0  0  0  0
   61.7684   29.0286   25.0665 O   0  0  0  0  0  0  0  0  0  0  0  0
   62.3598   30.9543   26.4111 C   0  0  0  0  0  0  0  0  0  0  0  0
   63.2937   31.1492   25.3323 O   0  0  0  0  0  0  0  0  0  0  0  0
   62.2347   29.4530   24.3293 H   0  0  0  0  0  0  0  0  0  0  0  0
   62.8232   31.4883   24.5548 H   0  0  0  0  0  0  0  0  0  0  0  0
   58.8652   30.5185   25.1979 C   0  0  0  0  0  0  0  0  0  0  0  0
   58.5196   29.8956   26.4341 O   0  0  0  0  0  0  0  0  0  0  0  0
   59.1085   29.1411   26.5917 H   0  0  0  0  0  0  0  0  0  0  0  0
  1  2  1  0
  2  3  2  0
  3  4  1  0
  4  5  1  0
  4  6  2  0
  6  7  1  0
  7  8  1  0
 15  8  1  0
 15 16  1  0
 16 17  1  0
 17 24  1  0
 24 25  1  0
 17 18  1  0
 18 19  1  0
 18 20  1  0
 20 21  1  0
  8  9  2  0
  9 10  1  0
 10 11  1  0
 11  2  1  0
 11  7  2  0
 20 15  1  0
  1 12  1  0
  1 13  1  0
 25 26  1  0
 19 22  1  0
 21 23  1  0
 10 14  1  0
M  END
> <minimizedAffinity>
-5.77597

> <CNNscore>
0.2715948224

> <CNNaffinity>
4.0367126465

> <CNN_VS>
1.0963503122

> <CNNaffinity_variance>
0.0255548507

$$$$



 26 28  0  0  0  0  0  0  0  0999 V2000
   65.8067   38.4657   21.3616 N   0  0  0  0  0  0  0  0  0  0  0  0
   64.6659   37.7640   21.0161 C   0  0  0  0  0  0  0  0  0  0  0  0
   64.7940   36.6861   20.2297 N   0  0  0  0  0  0  0  0  0  0  0  0
   63.6830   36.0056   19.8824 C   0  0  0  0  0  0  0  0  0  0  0  0
   63.8648   34.9416   19.0845 F   0  0  0  0  0  0  0  0  0  0  0  0
   62.4116   36.2799   20.2186 N   0  0  0  0  0  0  0  0  0  0  0  0
   62.3024   37.3565   21.0230 C   0  0  0  0  0  0  0  0  0  0  0  0
   61.1782   37.9814   21.6218 C   0  0  0  0  0  0  0  0  0  0  0  0
   61.5482   39.0563   22.3433 N   0  0  0  0  0  0  0  0  0  0  0  0
   62.8894   39.0752   22.2335 N   0  0  0  0  0  0  0  0  0  0  0  0
   63.3928   38.1025   21.4249 C   0  0  0  0  0  0  0  0  0  0  0  0
   66.6860   38.1679   21.0338 H   0  0  0  0  0  0  0  0  0  0  0  0
   65.7395   39.2629   21.9354 H   0  0  0  0  0  0  0  0  0  0  0  0
   63.4560   39.7338   22.6966 H   0  0  0  0  0  0  0  0  0  0  0  0
   59.7348   37.5768   21.5304 C   0  0  0  0  0  0  0  0  0  0  0  0
   59.0080   38.4263   20.5996 O   0  0  0  0  0  0  0  0  0  0  0  0
   57.8544   38.9506   21.2883 C   0  0  0  0  0  0  0  0  0  0  0  0
   58.1859   38.9221   22.7729 C   0  0  0  0  0  0  0  0  0  0  0  0
   57.0367   38.8527   23.6159 O   0  0  0  0  0  0  0  0  0  0  0  0
   59.0000   37.6416   22.8777 C   0  0  0  0  0  0  0  0  0  0  0  0
   58.0998   36.5268   23.0214 O   0  0  0  0  0  0  0  0  0  0  0  0
   56.5178   38.0647   23.3910 H   0  0  0  0  0  0  0  0  0  0  0  0
   57.4744   36.5186   22.2800 H   0  0  0  0  0  0  0  0  0  0  0  0
   57.5682   40.3549   20.7652 C   0  0  0  0  0  0  0  0  0  0  0  0
   57.1572   40.2869   19.4006 O   0  0  0  0  0  0  0  0  0  0  0  0
   57.8634   39.8862   18.8698 H   0  0  0  0  0  0  0  0  0  0  0  0
  1  2  1  0
  2  3  2  0
  3  4  1  0
  4  5  1  0
  4  6  2  0
  6  7  1  0
  7  8  1  0
 15  8  1  0
 15 16  1  0
 16 17  1  0
 17 24  1  0
 24 25  1  0
 17 18  1  0
 18 19  1  0
 18 20  1  0
 20 21  1  0
  8  9  2  0
  9 10  1  0
 10 11  1  0
 11  2  1  0
 11  7  2  0
 20 15  1  0
  1 12  1  0
  1 13  1  0
 25 26  1  0
 19 22  1  0
 21 23  1  0
 10 14  1  0
M  END
> <minimizedAffinity>
-7.21407

> <CNNscore>
0.2423013449

> <CNNaffinity>
5.0356192589

> <CNN_VS>
1.2201373577

> <CNNaffinity_variance>
0.0654914826

$$$$



 26 28  0  0  0  0  0  0  0  0999 V2000
   58.6623   30.8262   26.5812 N   0  0  0  0  0  0  0  0  0  0  0  0
   59.9813   31.1996   26.7661 C   0  0  0  0  0  0  0  0  0  0  0  0
   60.8388   31.0360   25.7490 N   0  0  0  0  0  0  0  0  0  0  0  0
   62.1275   31.3893   25.9290 C   0  0  0  0  0  0  0  0  0  0  0  0
   62.9471   31.1944   24.8839 F   0  0  0  0  0  0  0  0  0  0  0  0
   62.6959   31.8898   27.0385 N   0  0  0  0  0  0  0  0  0  0  0  0
   61.8165   32.0637   28.0457 C   0  0  0  0  0  0  0  0  0  0  0  0
   61.9717   32.5703   29.3618 C   0  0  0  0  0  0  0  0  0  0  0  0
   60.8045   32.5424   30.0327 N   0  0  0  0  0  0  0  0  0  0  0  0
   59.9239   32.0675   29.1327 N   0  0  0  0  0  0  0  0  0  0  0  0
   60.4810   31.7296   27.9374 C   0  0  0  0  0  0  0  0  0  0  0  0
   58.3727   30.4537   25.7171 H   0  0  0  0  0  0  0  0  0  0  0  0
   58.0132   30.9330   27.3136 H   0  0  0  0  0  0  0  0  0  0  0  0
   58.9624   31.9729   29.3218 H   0  0  0  0  0  0  0  0  0  0  0  0
   63.2197   33.0944   30.0122 C   0  0  0  0  0  0  0  0  0  0  0  0
   64.3971   32.3795   29.5444 O   0  0  0  0  0  0  0  0  0  0  0  0
   65.1102   31.8975   30.7017 C   0  0  0  0  0  0  0  0  0  0  0  0
   64.0893   31.7855   31.8242 C   0  0  0  0  0  0  0  0  0  0  0  0
   64.6588   31.8814   33.1290 O   0  0  0  0  0  0  0  0  0  0  0  0
   63.1973   32.9852   31.5442 C   0  0  0  0  0  0  0  0  0  0  0  0
   63.7842   34.1539   32.1471 O   0  0  0  0  0  0  0  0  0  0  0  0
   65.1332   32.7232   33.2137 H   0  0  0  0  0  0  0  0  0  0  0  0
   64.6887   34.2688   31.8161 H   0  0  0  0  0  0  0  0  0  0  0  0
   65.7658   30.5648   30.3528 C   0  0  0  0  0  0  0  0  0  0  0  0
   65.4138   29.5843   31.3276 O   0  0  0  0  0  0  0  0  0  0  0  0
   65.7211   29.8722   32.2015 H   0  0  0  0  0  0  0  0  0  0  0  0
  1  2  1  0
  2  3  2  0
  3  4  1  0
  4  5  1  0
  4  6  2  0
  6  7  1  0
  7  8  1  0
 15  8  1  0
 15 16  1  0
 16 17  1  0
 17 24  1  0
 24 25  1  0
 17 18  1  0
 18 19  1  0
 18 20  1  0
 20 21  1  0
  8  9  2  0
  9 10  1  0
 10 11  1  0
 11  2  1  0
 11  7  2  0
 20 15  1  0
  1 12  1  0
  1 13  1  0
 25 26  1  0
 19 22  1  0
 21 23  1  0
 10 14  1  0
M  END
> <minimizedAffinity>
-5.38367

> <CNNscore>
0.2379678935

> <CNNaffinity>
3.9883842468

> <CNN_VS>
0.9491074085

> <CNNaffinity_variance>
0.0487288572

$$$$



 26 28  0  0  0  0  0  0  0  0999 V2000
   59.0793   37.0360   24.2190 N   0  0  0  0  0  0  0  0  0  0  0  0
   59.1055   37.8066   23.0706 C   0  0  0  0  0  0  0  0  0  0  0  0
   60.2959   38.1777   22.5789 N   0  0  0  0  0  0  0  0  0  0  0  0
   60.3251   38.9374   21.4653 C   0  0  0  0  0  0  0  0  0  0  0  0
   61.5413   39.2915   21.0211 F   0  0  0  0  0  0  0  0  0  0  0  0
   59.2811   39.4045   20.7607 N   0  0  0  0  0  0  0  0  0  0  0  0
   58.0925   39.0082   21.2590 C   0  0  0  0  0  0  0  0  0  0  0  0
   56.7602   39.2464   20.8335 C   0  0  0  0  0  0  0  0  0  0  0  0
   55.8749   38.6571   21.6595 N   0  0  0  0  0  0  0  0  0  0  0  0
   56.6455   38.0220   22.5617 N   0  0  0  0  0  0  0  0  0  0  0  0
   57.9806   38.2272   22.3923 C   0  0  0  0  0  0  0  0  0  0  0  0
   59.9222   36.7705   24.6530 H   0  0  0  0  0  0  0  0  0  0  0  0
   58.2178   36.7530   24.6024 H   0  0  0  0  0  0  0  0  0  0  0  0
   56.2765   37.4591   23.2802 H   0  0  0  0  0  0  0  0  0  0  0  0
   56.2943   40.0292   19.6396 C   0  0  0  0  0  0  0  0  0  0  0  0
   55.3458   41.0626   20.0252 O   0  0  0  0  0  0  0  0  0  0  0  0
   54.1628   40.9007   19.2164 C   0  0  0  0  0  0  0  0  0  0  0  0
   54.1339   39.4442   18.7775 C   0  0  0  0  0  0  0  0  0  0  0  0
   53.4109   39.2242   17.5671 O   0  0  0  0  0  0  0  0  0  0  0  0
   55.6138   39.1597   18.5718 C   0  0  0  0  0  0  0  0  0  0  0  0
   55.9918   39.5872   17.2496 O   0  0  0  0  0  0  0  0  0  0  0  0
   53.7963   39.7623   16.8580 H   0  0  0  0  0  0  0  0  0  0  0  0
   55.7666   40.5239   17.1360 H   0  0  0  0  0  0  0  0  0  0  0  0
   52.9453   41.3013   20.0439 C   0  0  0  0  0  0  0  0  0  0  0  0
   53.1093   40.8569   21.3898 O   0  0  0  0  0  0  0  0  0  0  0  0
   53.2003   39.8912   21.4026 H   0  0  0  0  0  0  0  0  0  0  0  0
  1  2  1  0
  2  3  2  0
  3  4  1  0
  4  5  1  0
  4  6  2  0
  6  7  1  0
  7  8  1  0
 15  8  1  0
 15 16  1  0
 16 17  1  0
 17 24  1  0
 24 25  1  0
 17 18  1  0
 18 19  1  0
 18 20  1  0
 20 21  1  0
  8  9  2  0
  9 10  1  0
 10 11  1  0
 11  2  1  0
 11  7  2  0
 20 15  1  0
  1 12  1  0
  1 13  1  0
 25 26  1  0
 19 22  1  0
 21 23  1  0
 10 14  1  0
M  END
> <minimizedAffinity>
-6.07329

> <CNNscore>
0.1888478845

> <CNNaffinity>
5.3356571198

> <CNN_VS>
1.0076276064

> <CNNaffinity_variance>
0.2195423394

$$$$



 26 28  0  0  0  0  0  0  0  0999 V2000
   52.5807   40.8057   17.8652 N   0  0  0  0  0  0  0  0  0  0  0  0
   53.7625   40.2774   18.3524 C   0  0  0  0  0  0  0  0  0  0  0  0
   54.6672   39.8220   17.4744 N   0  0  0  0  0  0  0  0  0  0  0  0
   55.8160   39.2970   17.9460 C   0  0  0  0  0  0  0  0  0  0  0  0
   56.6827   38.8449   17.0261 F   0  0  0  0  0  0  0  0  0  0  0  0
   56.1870   39.1484   19.2286 N   0  0  0  0  0  0  0  0  0  0  0  0
   55.2736   39.6265   20.0975 C   0  0  0  0  0  0  0  0  0  0  0  0
   55.2577   39.6919   21.5147 C   0  0  0  0  0  0  0  0  0  0  0  0
   54.1142   40.2449   21.9617 N   0  0  0  0  0  0  0  0  0  0  0  0
   53.4457   40.5618   20.8376 N   0  0  0  0  0  0  0  0  0  0  0  0
   54.0758   40.1816   19.6923 C   0  0  0  0  0  0  0  0  0  0  0  0
   52.4218   40.8436   16.8944 H   0  0  0  0  0  0  0  0  0  0  0  0
   51.8985   41.1439   18.4893 H   0  0  0  0  0  0  0  0  0  0  0  0
   52.5781   41.0271   20.8430 H   0  0  0  0  0  0  0  0  0  0  0  0
   56.3196   39.2394   22.4755 C   0  0  0  0  0  0  0  0  0  0  0  0
   57.5229   40.0468   22.3485 O   0  0  0  0  0  0  0  0  0  0  0  0
   58.6357   39.1524   22.1443 C   0  0  0  0  0  0  0  0  0  0  0  0
   58.0615   37.8749   21.5500 C   0  0  0  0  0  0  0  0  0  0  0  0
   58.8576   36.7175   21.8006 O   0  0  0  0  0  0  0  0  0  0  0  0
   56.7305   37.7725   22.2789 C   0  0  0  0  0  0  0  0  0  0  0  0
   56.9424   37.1280   23.5492 O   0  0  0  0  0  0  0  0  0  0  0  0
   58.9674   36.6015   22.7573 H   0  0  0  0  0  0  0  0  0  0  0  0
   57.6131   37.6165   24.0517 H   0  0  0  0  0  0  0  0  0  0  0  0
   59.6508   39.8341   21.2320 C   0  0  0  0  0  0  0  0  0  0  0  0
   60.6544   38.8978   20.8423 O   0  0  0  0  0  0  0  0  0  0  0  0
   61.1085   38.5634   21.6315 H   0  0  0  0  0  0  0  0  0  0  0  0
  1  2  1  0
  2  3  2  0
  3  4  1  0
  4  5  1  0
  4  6  2  0
  6  7  1  0
  7  8  1  0
 15  8  1  0
 15 16  1  0
 16 17  1  0
 17 24  1  0
 24 25  1  0
 17 18  1  0
 18 19  1  0
 18 20  1  0
 20 21  1  0
  8  9  2  0
  9 10  1  0
 10 11  1  0
 11  2  1  0
 11  7  2  0
 20 15  1  0
  1 12  1  0
  1 13  1  0
 25 26  1  0
 19 22  1  0
 21 23  1  0
 10 14  1  0
M  END
> <minimizedAffinity>
-5.03237

> <CNNscore>
0.1856579334

> <CNNaffinity>
5.5784239769

> <CNN_VS>
1.0356786251

> <CNNaffinity_variance>
0.1196916997

$$$$
