


 26 27  0  0  0  0  0  0  0  0999 V2000
   90.8607   95.4837  -44.9803 C   0  0  0  0  0  0  0  0  0  0  0  0
   90.8895   94.5098  -45.9939 C   0  0  0  0  0  0  0  0  0  0  0  0
   91.3895   93.2278  -45.7423 C   0  0  0  0  0  0  0  0  0  0  0  0
   91.8538   92.8944  -44.4700 C   0  0  0  0  0  0  0  0  0  0  0  0
   91.8201   93.8435  -43.4480 C   0  0  0  0  0  0  0  0  0  0  0  0
   92.5318   93.2788  -41.5618 I   0  0  0  0  0  0  0  0  0  0  0  0
   91.3321   95.1314  -43.7021 C   0  0  0  0  0  0  0  0  0  0  0  0
   91.3289   96.0620  -42.6934 O   0  0  0  0  0  0  0  0  0  0  0  0
   91.6422   95.8304  -41.8413 H   0  0  0  0  0  0  0  0  0  0  0  0
   91.4164   92.2546  -46.7902 C   0  0  0  0  0  0  0  0  0  0  0  0
   91.4331   91.4348  -47.6699 C   0  0  0  0  0  0  0  0  0  0  0  0
   91.4701   90.4581  -48.7577 C   0  0  0  0  0  0  0  0  0  0  0  0
   92.3066   89.3729  -48.3878 O   0  0  0  0  0  0  0  0  0  0  0  0
   93.2032   89.7002  -48.2147 H   0  0  0  0  0  0  0  0  0  0  0  0
   90.2477   96.8385  -45.2814 C   0  0  0  0  0  0  0  0  0  0  0  0
   91.3431  100.7422  -43.6875 C   0  0  0  0  0  0  0  0  0  0  0  0
   90.2398   99.8796  -43.0341 C   0  0  0  0  0  0  0  0  0  0  0  0
   89.7066   98.8067  -43.9823 C   0  0  0  0  0  0  0  0  0  0  0  0
   90.7895   97.9219  -44.4313 N   0  0  0  0  0  0  0  0  0  0  0  0
   91.8019   98.7074  -45.1564 C   0  0  0  0  0  0  0  0  0  0  0  0
   92.4111   99.7869  -44.2608 C   0  0  0  0  0  0  0  0  0  0  0  0
   91.8732  101.7323  -42.7064 N   0  0  0  0  0  0  0  0  0  0  0  0
   93.9443  102.7822  -41.8934 C   0  0  0  0  0  0  0  0  0  0  0  0
   93.1947  102.2547  -43.1082 C   0  0  0  0  0  0  0  0  0  0  0  0
   91.8972  101.2484  -41.3203 C   0  0  0  0  0  0  0  0  0  0  0  0
   90.9145  101.9722  -40.4018 C   0  0  0  0  0  0  0  0  0  0  0  0
 23 24  1  0
 24 22  1  0
 22 25  1  0
 25 26  1  0
 22 16  1  0
 16 17  1  0
 17 18  1  0
 18 19  1  0
 19 15  1  0
 15  1  1  0
  1  2  2  0
  2  3  1  0
  3 10  1  0
 10 11  3  0
 11 12  1  0
 12 13  1  0
  3  4  2  0
  4  5  1  0
  5  6  1  0
  5  7  2  0
  7  8  1  0
 19 20  1  0
 20 21  1  0
 21 16  1  0
  7  1  1  0
 13 14  1  0
  8  9  1  0
M  END
> <minimizedAffinity>
-6.99809

> <CNNscore>
0.9279776216

> <CNNaffinity>
4.8342518806

> <CNN_VS>
4.4860777855

> <CNNaffinity_variance>
0.9902217984

$$$$



 26 27  0  0  0  0  0  0  0  0999 V2000
   90.9000   95.8441  -45.1426 C   0  0  0  0  0  0  0  0  0  0  0  0
   90.9044   94.8226  -46.1087 C   0  0  0  0  0  0  0  0  0  0  0  0
   91.2855   93.5193  -45.7722 C   0  0  0  0  0  0  0  0  0  0  0  0
   91.6529   93.2133  -44.4620 C   0  0  0  0  0  0  0  0  0  0  0  0
   91.6411   94.2109  -43.4867 C   0  0  0  0  0  0  0  0  0  0  0  0
   92.2033   93.6851  -41.5397 I   0  0  0  0  0  0  0  0  0  0  0  0
   91.2726   95.5189  -43.8252 C   0  0  0  0  0  0  0  0  0  0  0  0
   91.2904   96.4951  -42.8606 O   0  0  0  0  0  0  0  0  0  0  0  0
   91.5381   96.2816  -41.9825 H   0  0  0  0  0  0  0  0  0  0  0  0
   91.2899   92.4971  -46.7727 C   0  0  0  0  0  0  0  0  0  0  0  0
   91.2901   91.6340  -47.6101 C   0  0  0  0  0  0  0  0  0  0  0  0
   91.2882   90.6068  -48.6511 C   0  0  0  0  0  0  0  0  0  0  0  0
   91.5054   91.2161  -49.9143 O   0  0  0  0  0  0  0  0  0  0  0  0
   90.7991   91.8574  -50.0897 H   0  0  0  0  0  0  0  0  0  0  0  0
   90.4149   97.2262  -45.5380 C   0  0  0  0  0  0  0  0  0  0  0  0
   86.5390   99.0911  -44.8460 C   0  0  0  0  0  0  0  0  0  0  0  0
   86.6720   97.7583  -45.6167 C   0  0  0  0  0  0  0  0  0  0  0  0
   88.0903   97.5296  -46.1369 C   0  0  0  0  0  0  0  0  0  0  0  0
   89.0581   97.5312  -45.0320 N   0  0  0  0  0  0  0  0  0  0  0  0
   89.0284   98.8356  -44.3499 C   0  0  0  0  0  0  0  0  0  0  0  0
   87.6438   99.1254  -43.7689 C   0  0  0  0  0  0  0  0  0  0  0  0
   85.1564   99.2402  -44.3072 N   0  0  0  0  0  0  0  0  0  0  0  0
   83.6523  100.4637  -42.7929 C   0  0  0  0  0  0  0  0  0  0  0  0
   85.0220  100.4391  -43.4556 C   0  0  0  0  0  0  0  0  0  0  0  0
   84.6492   98.0461  -43.6199 C   0  0  0  0  0  0  0  0  0  0  0  0
   83.4680   97.3864  -44.3291 C   0  0  0  0  0  0  0  0  0  0  0  0
 23 24  1  0
 24 22  1  0
 22 25  1  0
 25 26  1  0
 22 16  1  0
 16 17  1  0
 17 18  1  0
 18 19  1  0
 19 15  1  0
 15  1  1  0
  1  2  2  0
  2  3  1  0
  3 10  1  0
 10 11  3  0
 11 12  1  0
 12 13  1  0
  3  4  2  0
  4  5  1  0
  5  6  1  0
  5  7  2  0
  7  8  1  0
 19 20  1  0
 20 21  1  0
 21 16  1  0
  7  1  1  0
 13 14  1  0
  8  9  1  0
M  END
> <minimizedAffinity>
-6.42067

> <CNNscore>
0.8972542882

> <CNNaffinity>
4.6291446686

> <CNN_VS>
4.1535201073

> <CNNaffinity_variance>
1.1666618586

$$$$



 26 27  0  0  0  0  0  0  0  0999 V2000
   90.7146   95.7665  -45.2186 C   0  0  0  0  0  0  0  0  0  0  0  0
   90.7764   94.7207  -46.1563 C   0  0  0  0  0  0  0  0  0  0  0  0
   91.2715   93.4631  -45.7959 C   0  0  0  0  0  0  0  0  0  0  0  0
   91.6977   93.2264  -44.4891 C   0  0  0  0  0  0  0  0  0  0  0  0
   91.6309   94.2481  -43.5414 C   0  0  0  0  0  0  0  0  0  0  0  0
   92.2862   93.8270  -41.5981 I   0  0  0  0  0  0  0  0  0  0  0  0
   91.1478   95.5115  -43.9043 C   0  0  0  0  0  0  0  0  0  0  0  0
   91.1118   96.5139  -42.9676 O   0  0  0  0  0  0  0  0  0  0  0  0
   91.3996   96.3471  -42.0916 H   0  0  0  0  0  0  0  0  0  0  0  0
   91.3324   92.4155  -46.7679 C   0  0  0  0  0  0  0  0  0  0  0  0
   91.3780   91.5365  -47.5874 C   0  0  0  0  0  0  0  0  0  0  0  0
   91.4646   90.4731  -48.5875 C   0  0  0  0  0  0  0  0  0  0  0  0
   92.4839   89.5584  -48.2152 O   0  0  0  0  0  0  0  0  0  0  0  0
   93.3330   90.0244  -48.1625 H   0  0  0  0  0  0  0  0  0  0  0  0
   90.1078   97.0927  -45.6371 C   0  0  0  0  0  0  0  0  0  0  0  0
   86.3060   98.8684  -44.4657 C   0  0  0  0  0  0  0  0  0  0  0  0
   86.3834   97.4596  -45.0960 C   0  0  0  0  0  0  0  0  0  0  0  0
   87.7002   97.2281  -45.8356 C   0  0  0  0  0  0  0  0  0  0  0  0
   88.8443   97.4007  -44.9309 N   0  0  0  0  0  0  0  0  0  0  0  0
   88.8547   98.7751  -44.4028 C   0  0  0  0  0  0  0  0  0  0  0  0
   87.5780   99.0758  -43.6166 C   0  0  0  0  0  0  0  0  0  0  0  0
   85.0324   99.0248  -43.7057 N   0  0  0  0  0  0  0  0  0  0  0  0
   82.9072   98.3469  -44.7433 C   0  0  0  0  0  0  0  0  0  0  0  0
   84.1118   97.8926  -43.9318 C   0  0  0  0  0  0  0  0  0  0  0  0
   84.3547  100.3079  -43.9297 C   0  0  0  0  0  0  0  0  0  0  0  0
   84.0616  101.0786  -42.6439 C   0  0  0  0  0  0  0  0  0  0  0  0
 23 24  1  0
 24 22  1  0
 22 25  1  0
 25 26  1  0
 22 16  1  0
 16 17  1  0
 17 18  1  0
 18 19  1  0
 19 15  1  0
 15  1  1  0
  1  2  2  0
  2  3  1  0
  3 10  1  0
 10 11  3  0
 11 12  1  0
 12 13  1  0
  3  4  2  0
  4  5  1  0
  5  6  1  0
  5  7  2  0
  7  8  1  0
 19 20  1  0
 20 21  1  0
 21 16  1  0
  7  1  1  0
 13 14  1  0
  8  9  1  0
M  END
> <minimizedAffinity>
-6.66252

> <CNNscore>
0.8549638987

> <CNNaffinity>
4.6856021881

> <CNN_VS>
4.0060205460

> <CNNaffinity_variance>
0.9142020345

$$$$



 26 27  0  0  0  0  0  0  0  0999 V2000
   90.6406   95.7538  -44.8284 C   0  0  0  0  0  0  0  0  0  0  0  0
   90.6649   94.8115  -45.8716 C   0  0  0  0  0  0  0  0  0  0  0  0
   91.2455   93.5522  -45.6868 C   0  0  0  0  0  0  0  0  0  0  0  0
   91.7966   93.2096  -44.4522 C   0  0  0  0  0  0  0  0  0  0  0  0
   91.7693   94.1267  -43.4011 C   0  0  0  0  0  0  0  0  0  0  0  0
   92.6133   93.5495  -41.5742 I   0  0  0  0  0  0  0  0  0  0  0  0
   91.2002   95.3924  -43.5888 C   0  0  0  0  0  0  0  0  0  0  0  0
   91.2034   96.2931  -42.5533 O   0  0  0  0  0  0  0  0  0  0  0  0
   91.5753   96.0554  -41.7268 H   0  0  0  0  0  0  0  0  0  0  0  0
   91.2659   92.6116  -46.7641 C   0  0  0  0  0  0  0  0  0  0  0  0
   91.2813   91.8252  -47.6738 C   0  0  0  0  0  0  0  0  0  0  0  0
   91.3260   90.8555  -48.7676 C   0  0  0  0  0  0  0  0  0  0  0  0
   92.4619   90.0194  -48.6095 O   0  0  0  0  0  0  0  0  0  0  0  0
   93.2664   90.5611  -48.6227 H   0  0  0  0  0  0  0  0  0  0  0  0
   89.9407   97.0808  -45.0542 C   0  0  0  0  0  0  0  0  0  0  0  0
   91.9571  100.7821  -46.1562 C   0  0  0  0  0  0  0  0  0  0  0  0
   92.7104   99.6219  -45.4672 C   0  0  0  0  0  0  0  0  0  0  0  0
   91.7611   98.6491  -44.7694 C   0  0  0  0  0  0  0  0  0  0  0  0
   90.7995   98.0826  -45.7243 N   0  0  0  0  0  0  0  0  0  0  0  0
   89.9914   99.1634  -46.3130 C   0  0  0  0  0  0  0  0  0  0  0  0
   90.8698  100.1664  -47.0620 C   0  0  0  0  0  0  0  0  0  0  0  0
   92.9187  101.6686  -46.8728 N   0  0  0  0  0  0  0  0  0  0  0  0
   93.2914  103.9416  -46.0085 C   0  0  0  0  0  0  0  0  0  0  0  0
   92.4473  103.0671  -46.9243 C   0  0  0  0  0  0  0  0  0  0  0  0
   93.2938  101.1894  -48.2090 C   0  0  0  0  0  0  0  0  0  0  0  0
   93.0323  102.2049  -49.3197 C   0  0  0  0  0  0  0  0  0  0  0  0
 23 24  1  0
 24 22  1  0
 22 25  1  0
 25 26  1  0
 22 16  1  0
 16 17  1  0
 17 18  1  0
 18 19  1  0
 19 15  1  0
 15  1  1  0
  1  2  2  0
  2  3  1  0
  3 10  1  0
 10 11  3  0
 11 12  1  0
 12 13  1  0
  3  4  2  0
  4  5  1  0
  5  6  1  0
  5  7  2  0
  7  8  1  0
 19 20  1  0
 20 21  1  0
 21 16  1  0
  7  1  1  0
 13 14  1  0
  8  9  1  0
M  END
> <minimizedAffinity>
-6.08177

> <CNNscore>
0.7898037434

> <CNNaffinity>
4.7880325317

> <CNN_VS>
3.7816059589

> <CNNaffinity_variance>
0.6654120088

$$$$



 26 27  0  0  0  0  0  0  0  0999 V2000
   90.7807   96.1898  -45.0950 C   0  0  0  0  0  0  0  0  0  0  0  0
   90.8576   95.1019  -45.9824 C   0  0  0  0  0  0  0  0  0  0  0  0
   91.2582   93.8386  -45.5348 C   0  0  0  0  0  0  0  0  0  0  0  0
   91.5729   93.6391  -44.1907 C   0  0  0  0  0  0  0  0  0  0  0  0
   91.4889   94.7036  -43.2927 C   0  0  0  0  0  0  0  0  0  0  0  0
   91.9746   94.3369  -41.2896 I   0  0  0  0  0  0  0  0  0  0  0  0
   91.1008   95.9719  -43.7421 C   0  0  0  0  0  0  0  0  0  0  0  0
   91.0474   97.0152  -42.8520 O   0  0  0  0  0  0  0  0  0  0  0  0
   91.2600   96.8732  -41.9505 H   0  0  0  0  0  0  0  0  0  0  0  0
   91.3367   92.7476  -46.4564 C   0  0  0  0  0  0  0  0  0  0  0  0
   91.3992   91.8335  -47.2354 C   0  0  0  0  0  0  0  0  0  0  0  0
   91.5054   90.7170  -48.1739 C   0  0  0  0  0  0  0  0  0  0  0  0
   92.8424   90.2412  -48.1902 O   0  0  0  0  0  0  0  0  0  0  0  0
   93.4366   90.9560  -48.4674 H   0  0  0  0  0  0  0  0  0  0  0  0
   90.2768   97.5243  -45.6118 C   0  0  0  0  0  0  0  0  0  0  0  0
   86.2154   98.4515  -46.8861 C   0  0  0  0  0  0  0  0  0  0  0  0
   87.3830   98.3679  -47.8949 C   0  0  0  0  0  0  0  0  0  0  0  0
   88.7454   98.4935  -47.2148 C   0  0  0  0  0  0  0  0  0  0  0  0
   88.9229   97.4431  -46.2037 N   0  0  0  0  0  0  0  0  0  0  0  0
   87.8841   97.5721  -45.1684 C   0  0  0  0  0  0  0  0  0  0  0  0
   86.4846   97.4237  -45.7667 C   0  0  0  0  0  0  0  0  0  0  0  0
   84.9127   98.2633  -47.5873 N   0  0  0  0  0  0  0  0  0  0  0  0
   84.3990   96.7295  -49.4410 C   0  0  0  0  0  0  0  0  0  0  0  0
   85.0936   98.0205  -49.0326 C   0  0  0  0  0  0  0  0  0  0  0  0
   83.9439   99.3410  -47.3512 C   0  0  0  0  0  0  0  0  0  0  0  0
   84.5636  100.6004  -46.7484 C   0  0  0  0  0  0  0  0  0  0  0  0
 23 24  1  0
 24 22  1  0
 22 25  1  0
 25 26  1  0
 22 16  1  0
 16 17  1  0
 17 18  1  0
 18 19  1  0
 19 15  1  0
 15  1  1  0
  1  2  2  0
  2  3  1  0
  3 10  1  0
 10 11  3  0
 11 12  1  0
 12 13  1  0
  3  4  2  0
  4  5  1  0
  5  6  1  0
  5  7  2  0
  7  8  1  0
 19 20  1  0
 20 21  1  0
 21 16  1  0
  7  1  1  0
 13 14  1  0
  8  9  1  0
M  END
> <minimizedAffinity>
-5.45038

> <CNNscore>
0.7077254057

> <CNNaffinity>
4.8557505608

> <CNN_VS>
3.4365379810

> <CNNaffinity_variance>
0.3361713588

$$$$



 26 27  0  0  0  0  0  0  0  0999 V2000
   90.7584   95.7627  -44.8210 C   0  0  0  0  0  0  0  0  0  0  0  0
   90.7435   94.8450  -45.8861 C   0  0  0  0  0  0  0  0  0  0  0  0
   91.2542   93.5526  -45.7260 C   0  0  0  0  0  0  0  0  0  0  0  0
   91.7734   93.1523  -44.4948 C   0  0  0  0  0  0  0  0  0  0  0  0
   91.7839   94.0448  -43.4226 C   0  0  0  0  0  0  0  0  0  0  0  0
   92.5769   93.3810  -41.6022 I   0  0  0  0  0  0  0  0  0  0  0  0
   91.2850   95.3432  -43.5853 C   0  0  0  0  0  0  0  0  0  0  0  0
   91.3253   96.2181  -42.5287 O   0  0  0  0  0  0  0  0  0  0  0  0
   91.6753   95.9416  -41.7047 H   0  0  0  0  0  0  0  0  0  0  0  0
   91.2359   92.6375  -46.8251 C   0  0  0  0  0  0  0  0  0  0  0  0
   91.2143   91.8693  -47.7501 C   0  0  0  0  0  0  0  0  0  0  0  0
   91.2171   90.9451  -48.8835 C   0  0  0  0  0  0  0  0  0  0  0  0
   91.2928   89.6117  -48.4036 O   0  0  0  0  0  0  0  0  0  0  0  0
   92.1082   89.4985  -47.8905 H   0  0  0  0  0  0  0  0  0  0  0  0
   90.1325   97.1302  -45.0216 C   0  0  0  0  0  0  0  0  0  0  0  0
   87.8677   98.3365  -48.5422 C   0  0  0  0  0  0  0  0  0  0  0  0
   89.1509   99.0806  -48.1089 C   0  0  0  0  0  0  0  0  0  0  0  0
   89.5120   98.8095  -46.6492 C   0  0  0  0  0  0  0  0  0  0  0  0
   89.7023   97.3718  -46.4168 N   0  0  0  0  0  0  0  0  0  0  0  0
   88.4535   96.6523  -46.7177 C   0  0  0  0  0  0  0  0  0  0  0  0
   88.0401   96.8469  -48.1771 C   0  0  0  0  0  0  0  0  0  0  0  0
   87.5910   98.5828  -49.9868 N   0  0  0  0  0  0  0  0  0  0  0  0
   89.3244   98.1562  -51.6797 C   0  0  0  0  0  0  0  0  0  0  0  0
   88.7596   99.1578  -50.6828 C   0  0  0  0  0  0  0  0  0  0  0  0
   86.3835   99.3795  -50.2381 C   0  0  0  0  0  0  0  0  0  0  0  0
   85.5718   99.6756  -48.9784 C   0  0  0  0  0  0  0  0  0  0  0  0
 23 24  1  0
 24 22  1  0
 22 25  1  0
 25 26  1  0
 22 16  1  0
 16 17  1  0
 17 18  1  0
 18 19  1  0
 19 15  1  0
 15  1  1  0
  1  2  2  0
  2  3  1  0
  3 10  1  0
 10 11  3  0
 11 12  1  0
 12 13  1  0
  3  4  2  0
  4  5  1  0
  5  6  1  0
  5  7  2  0
  7  8  1  0
 19 20  1  0
 20 21  1  0
 21 16  1  0
  7  1  1  0
 13 14  1  0
  8  9  1  0
M  END
> <minimizedAffinity>
-5.35827

> <CNNscore>
0.6693295240

> <CNNaffinity>
4.7547931671

> <CNN_VS>
3.1825234890

> <CNNaffinity_variance>
0.5396766067

$$$$



 26 27  0  0  0  0  0  0  0  0999 V2000
   90.4808   97.1129  -45.1235 C   0  0  0  0  0  0  0  0  0  0  0  0
   90.6204   95.9065  -45.8321 C   0  0  0  0  0  0  0  0  0  0  0  0
   91.0756   94.7484  -45.1931 C   0  0  0  0  0  0  0  0  0  0  0  0
   91.3834   94.7739  -43.8329 C   0  0  0  0  0  0  0  0  0  0  0  0
   91.2378   95.9585  -43.1104 C   0  0  0  0  0  0  0  0  0  0  0  0
   91.7165   95.9289  -41.0725 I   0  0  0  0  0  0  0  0  0  0  0  0
   90.7948   97.1219  -43.7519 C   0  0  0  0  0  0  0  0  0  0  0  0
   90.6808   98.2858  -43.0336 O   0  0  0  0  0  0  0  0  0  0  0  0
   90.8891   98.2949  -42.1201 H   0  0  0  0  0  0  0  0  0  0  0  0
   91.2174   93.5337  -45.9349 C   0  0  0  0  0  0  0  0  0  0  0  0
   91.3401   92.5101  -46.5541 C   0  0  0  0  0  0  0  0  0  0  0  0
   91.4590   91.2677  -47.3164 C   0  0  0  0  0  0  0  0  0  0  0  0
   90.6071   91.3274  -48.4498 O   0  0  0  0  0  0  0  0  0  0  0  0
   89.6891   91.4430  -48.1586 H   0  0  0  0  0  0  0  0  0  0  0  0
   89.9198   98.3256  -45.8423 C   0  0  0  0  0  0  0  0  0  0  0  0
   85.8739   96.7876  -46.3367 C   0  0  0  0  0  0  0  0  0  0  0  0
   86.2281   97.7947  -45.2195 C   0  0  0  0  0  0  0  0  0  0  0  0
   87.7289   97.8414  -44.9369 C   0  0  0  0  0  0  0  0  0  0  0  0
   88.4772   98.2022  -46.1482 N   0  0  0  0  0  0  0  0  0  0  0  0
   88.2423   97.1929  -47.1940 C   0  0  0  0  0  0  0  0  0  0  0  0
   86.7597   97.1084  -47.5592 C   0  0  0  0  0  0  0  0  0  0  0  0
   84.4098   96.8221  -46.6179 N   0  0  0  0  0  0  0  0  0  0  0  0
   83.2118   98.9122  -47.1170 C   0  0  0  0  0  0  0  0  0  0  0  0
   83.7610   98.0079  -46.0232 C   0  0  0  0  0  0  0  0  0  0  0  0
   83.6994   95.5916  -46.2477 C   0  0  0  0  0  0  0  0  0  0  0  0
   83.8722   94.4575  -47.2562 C   0  0  0  0  0  0  0  0  0  0  0  0
 23 24  1  0
 24 22  1  0
 22 25  1  0
 25 26  1  0
 22 16  1  0
 16 17  1  0
 17 18  1  0
 18 19  1  0
 19 15  1  0
 15  1  1  0
  1  2  2  0
  2  3  1  0
  3 10  1  0
 10 11  3  0
 11 12  1  0
 12 13  1  0
  3  4  2  0
  4  5  1  0
  5  6  1  0
  5  7  2  0
  7  8  1  0
 19 20  1  0
 20 21  1  0
 21 16  1  0
  7  1  1  0
 13 14  1  0
  8  9  1  0
M  END
> <minimizedAffinity>
-5.14465

> <CNNscore>
0.3523162305

> <CNNaffinity>
4.1376228333

> <CNN_VS>
1.4577516317

> <CNNaffinity_variance>
1.2816667557

$$$$



 26 27  0  0  0  0  0  0  0  0999 V2000
   88.6248   98.7653  -44.8000 C   0  0  0  0  0  0  0  0  0  0  0  0
   89.2786   99.5583  -43.8406 C   0  0  0  0  0  0  0  0  0  0  0  0
   90.4878   99.1443  -43.2721 C   0  0  0  0  0  0  0  0  0  0  0  0
   91.0702   97.9393  -43.6648 C   0  0  0  0  0  0  0  0  0  0  0  0
   90.4429   97.1459  -44.6258 C   0  0  0  0  0  0  0  0  0  0  0  0
   91.3697   95.3495  -45.1709 I   0  0  0  0  0  0  0  0  0  0  0  0
   89.2256   97.5528  -45.1860 C   0  0  0  0  0  0  0  0  0  0  0  0
   88.6076   96.7495  -46.1114 O   0  0  0  0  0  0  0  0  0  0  0  0
   89.0052   95.9415  -46.3704 H   0  0  0  0  0  0  0  0  0  0  0  0
   91.1322   99.9632  -42.2922 C   0  0  0  0  0  0  0  0  0  0  0  0
   91.6683  100.6535  -41.4662 C   0  0  0  0  0  0  0  0  0  0  0  0
   92.3424  101.4705  -40.4578 C   0  0  0  0  0  0  0  0  0  0  0  0
   93.4885  100.7813  -39.9828 O   0  0  0  0  0  0  0  0  0  0  0  0
   93.2180   99.9372  -39.5889 H   0  0  0  0  0  0  0  0  0  0  0  0
   87.3507   99.2864  -45.4381 C   0  0  0  0  0  0  0  0  0  0  0  0
   83.7809  100.9411  -43.5679 C   0  0  0  0  0  0  0  0  0  0  0  0
   84.1666   99.4536  -43.4052 C   0  0  0  0  0  0  0  0  0  0  0  0
   85.1490   98.9897  -44.4796 C   0  0  0  0  0  0  0  0  0  0  0  0
   86.3749   99.7981  -44.4502 N   0  0  0  0  0  0  0  0  0  0  0  0
   86.0442  101.2083  -44.7144 C   0  0  0  0  0  0  0  0  0  0  0  0
   85.0861  101.7598  -43.6578 C   0  0  0  0  0  0  0  0  0  0  0  0
   82.8709  101.3622  -42.4639 N   0  0  0  0  0  0  0  0  0  0  0  0
   80.6612  101.5760  -43.5241 C   0  0  0  0  0  0  0  0  0  0  0  0
   81.8470  102.3201  -42.9273 C   0  0  0  0  0  0  0  0  0  0  0  0
   83.5667  101.8691  -41.2744 C   0  0  0  0  0  0  0  0  0  0  0  0
   82.8538  103.0398  -40.6002 C   0  0  0  0  0  0  0  0  0  0  0  0
 23 24  1  0
 24 22  1  0
 22 25  1  0
 25 26  1  0
 22 16  1  0
 16 17  1  0
 17 18  1  0
 18 19  1  0
 19 15  1  0
 15  1  1  0
  1  2  2  0
  2  3  1  0
  3 10  1  0
 10 11  3  0
 11 12  1  0
 12 13  1  0
  3  4  2  0
  4  5  1  0
  5  6  1  0
  5  7  2  0
  7  8  1  0
 19 20  1  0
 20 21  1  0
 21 16  1  0
  7  1  1  0
 13 14  1  0
  8  9  1  0
M  END
> <minimizedAffinity>
-4.59615

> <CNNscore>
0.3355687559

> <CNNaffinity>
4.3382401466

> <CNN_VS>
1.4557778835

> <CNNaffinity_variance>
0.2895613611

$$$$



 26 27  0  0  0  0  0  0  0  0999 V2000
   85.7712   99.3009  -44.4967 C   0  0  0  0  0  0  0  0  0  0  0  0
   85.4639  100.1750  -43.4392 C   0  0  0  0  0  0  0  0  0  0  0  0
   84.1460  100.5812  -43.2048 C   0  0  0  0  0  0  0  0  0  0  0  0
   83.1129  100.1079  -44.0137 C   0  0  0  0  0  0  0  0  0  0  0  0
   83.3970   99.2288  -45.0592 C   0  0  0  0  0  0  0  0  0  0  0  0
   81.8009   98.5559  -46.2352 I   0  0  0  0  0  0  0  0  0  0  0  0
   84.7176   98.8318  -45.3031 C   0  0  0  0  0  0  0  0  0  0  0  0
   84.9848   97.9868  -46.3509 O   0  0  0  0  0  0  0  0  0  0  0  0
   84.2853   97.6728  -46.8896 H   0  0  0  0  0  0  0  0  0  0  0  0
   83.8569  101.4771  -42.1280 C   0  0  0  0  0  0  0  0  0  0  0  0
   83.6199  102.2320  -41.2223 C   0  0  0  0  0  0  0  0  0  0  0  0
   83.3042  103.1577  -40.1351 C   0  0  0  0  0  0  0  0  0  0  0  0
   83.8841  102.6835  -38.9297 O   0  0  0  0  0  0  0  0  0  0  0  0
   83.5271  101.8057  -38.7226 H   0  0  0  0  0  0  0  0  0  0  0  0
   87.2045   98.8349  -44.6708 C   0  0  0  0  0  0  0  0  0  0  0  0
   90.8371  100.8307  -43.3292 C   0  0  0  0  0  0  0  0  0  0  0  0
   89.6616  101.6176  -43.9513 C   0  0  0  0  0  0  0  0  0  0  0  0
   88.7223  100.7174  -44.7525 C   0  0  0  0  0  0  0  0  0  0  0  0
   88.1756   99.6486  -43.9061 N   0  0  0  0  0  0  0  0  0  0  0  0
   89.2742   98.8152  -43.3901 C   0  0  0  0  0  0  0  0  0  0  0  0
   90.2454   99.6405  -42.5449 C   0  0  0  0  0  0  0  0  0  0  0  0
   91.6897  101.7388  -42.5091 N   0  0  0  0  0  0  0  0  0  0  0  0
   93.0266  103.2884  -43.8744 C   0  0  0  0  0  0  0  0  0  0  0  0
   93.0120  101.9626  -43.1273 C   0  0  0  0  0  0  0  0  0  0  0  0
   91.8268  101.3272  -41.1063 C   0  0  0  0  0  0  0  0  0  0  0  0
   92.5464  102.3542  -40.2341 C   0  0  0  0  0  0  0  0  0  0  0  0
 23 24  1  0
 24 22  1  0
 22 25  1  0
 25 26  1  0
 22 16  1  0
 16 17  1  0
 17 18  1  0
 18 19  1  0
 19 15  1  0
 15  1  1  0
  1  2  2  0
  2  3  1  0
  3 10  1  0
 10 11  3  0
 11 12  1  0
 12 13  1  0
  3  4  2  0
  4  5  1  0
  5  6  1  0
  5  7  2  0
  7  8  1  0
 19 20  1  0
 20 21  1  0
 21 16  1  0
  7  1  1  0
 13 14  1  0
  8  9  1  0
M  END
> <minimizedAffinity>
-3.94993

> <CNNscore>
0.2123154849

> <CNNaffinity>
3.6829481125

> <CNN_VS>
0.7819468975

> <CNNaffinity_variance>
0.8729296327

$$$$
