


 20 21  0  0  0  0  0  0  0  0999 V2000
    2.2260    6.1424    9.6360 N   0  0  0  0  0  0  0  0  0  0  0  0
    0.9665    5.6685    9.7958 C   0  0  0  0  0  0  0  0  0  0  0  0
    0.7706    4.4389   10.1507 N   0  0  0  0  0  0  0  0  0  0  0  0
   -0.5294    4.0132   10.3032 C   0  0  0  0  0  0  0  0  0  0  0  0
   -1.5957    4.7969   10.0890 C   0  0  0  0  0  0  0  0  0  0  0  0
   -1.3587    6.1854    9.6758 C   0  0  0  0  0  0  0  0  0  0  0  0
   -2.2846    6.9523    9.4407 O   0  0  0  0  0  0  0  0  0  0  0  0
   -0.0488    6.5450    9.5762 N   0  0  0  0  0  0  0  0  0  0  0  0
    2.9976    5.5488    9.7828 H   0  0  0  0  0  0  0  0  0  0  0  0
    2.3694    7.0802    9.3730 H   0  0  0  0  0  0  0  0  0  0  0  0
    0.1707    7.4742    9.3361 H   0  0  0  0  0  0  0  0  0  0  0  0
   -0.6978    2.5667   10.7087 C   0  0  0  0  0  0  0  0  0  0  0  0
   -1.7295    2.4047   11.8298 C   0  0  0  0  0  0  0  0  0  0  0  0
   -2.8806    1.5235   11.4049 C   0  0  0  0  0  0  0  0  0  0  0  0
   -2.6665    0.1659   11.1272 C   0  0  0  0  0  0  0  0  0  0  0  0
   -3.7251   -0.6474   10.7175 C   0  0  0  0  0  0  0  0  0  0  0  0
   -5.0010   -0.1054   10.5801 C   0  0  0  0  0  0  0  0  0  0  0  0
   -6.3056   -1.1071   10.0747 Cl  0  0  0  0  0  0  0  0  0  0  0  0
   -5.2271    1.2430   10.8475 C   0  0  0  0  0  0  0  0  0  0  0  0
   -4.1686    2.0568   11.2572 C   0  0  0  0  0  0  0  0  0  0  0  0
  1  2  1  0
  2  3  2  0
  3  4  1  0
  4 12  1  0
 12 13  1  0
 13 14  1  0
 14 15  2  0
 15 16  1  0
 16 17  2  0
 17 18  1  0
 17 19  1  0
 19 20  2  0
  4  5  2  0
  5  6  1  0
  6  7  2  0
  6  8  1  0
  8  2  1  0
 20 14  1  0
  1  9  1  0
  1 10  1  0
  8 11  1  0
M  END
> <minimizedAffinity>
-8.43150

> <CNNscore>
0.8373619318

> <CNNaffinity>
5.0978817940

> <CNN_VS>
4.2687721252

> <CNNaffinity_variance>
0.9975808263

$$$$



 20 21  0  0  0  0  0  0  0  0999 V2000
   -3.5387    5.3237    5.8070 N   0  0  0  0  0  0  0  0  0  0  0  0
   -4.0810    6.5651    5.7727 C   0  0  0  0  0  0  0  0  0  0  0  0
   -3.3198    7.6091    5.6909 N   0  0  0  0  0  0  0  0  0  0  0  0
   -3.9251    8.8447    5.6543 C   0  0  0  0  0  0  0  0  0  0  0  0
   -5.2526    9.0216    5.7146 C   0  0  0  0  0  0  0  0  0  0  0  0
   -6.1027    7.8294    5.8189 C   0  0  0  0  0  0  0  0  0  0  0  0
   -7.3220    7.9154    5.9009 O   0  0  0  0  0  0  0  0  0  0  0  0
   -5.4373    6.6410    5.8178 N   0  0  0  0  0  0  0  0  0  0  0  0
   -2.5609    5.2126    5.7769 H   0  0  0  0  0  0  0  0  0  0  0  0
   -4.1225    4.5328    5.8619 H   0  0  0  0  0  0  0  0  0  0  0  0
   -5.9580    5.8062    5.8509 H   0  0  0  0  0  0  0  0  0  0  0  0
   -2.9874   10.0272    5.5687 C   0  0  0  0  0  0  0  0  0  0  0  0
   -2.9497   10.8216    6.8784 C   0  0  0  0  0  0  0  0  0  0  0  0
   -1.5656   10.8336    7.4833 C   0  0  0  0  0  0  0  0  0  0  0  0
   -0.9231    9.6289    7.8025 C   0  0  0  0  0  0  0  0  0  0  0  0
    0.3493    9.6370    8.3778 C   0  0  0  0  0  0  0  0  0  0  0  0
    0.9823   10.8499    8.6398 C   0  0  0  0  0  0  0  0  0  0  0  0
    2.5500   10.8605    9.3493 Cl  0  0  0  0  0  0  0  0  0  0  0  0
    0.3535   12.0547    8.3328 C   0  0  0  0  0  0  0  0  0  0  0  0
   -0.9191   12.0469    7.7576 C   0  0  0  0  0  0  0  0  0  0  0  0
  1  2  1  0
  2  3  2  0
  3  4  1  0
  4 12  1  0
 12 13  1  0
 13 14  1  0
 14 15  2  0
 15 16  1  0
 16 17  2  0
 17 18  1  0
 17 19  1  0
 19 20  2  0
  4  5  2  0
  5  6  1  0
  6  7  2  0
  6  8  1  0
  8  2  1  0
 20 14  1  0
  1  9  1  0
  1 10  1  0
  8 11  1  0
M  END
> <minimizedAffinity>
-5.68630

> <CNNscore>
0.6559345126

> <CNNaffinity>
4.1960930824

> <CNN_VS>
2.7523622513

> <CNNaffinity_variance>
0.4612301886

$$$$



 20 21  0  0  0  0  0  0  0  0999 V2000
   -1.7648    5.0449    8.4510 N   0  0  0  0  0  0  0  0  0  0  0  0
   -2.4888    5.7723    7.5660 C   0  0  0  0  0  0  0  0  0  0  0  0
   -2.0792    6.9417    7.1909 N   0  0  0  0  0  0  0  0  0  0  0  0
   -2.8519    7.6336    6.2861 C   0  0  0  0  0  0  0  0  0  0  0  0
   -4.0068    7.1684    5.7892 C   0  0  0  0  0  0  0  0  0  0  0  0
   -4.4647    5.8460    6.2324 C   0  0  0  0  0  0  0  0  0  0  0  0
   -5.5209    5.3668    5.8381 O   0  0  0  0  0  0  0  0  0  0  0  0
   -3.6347    5.2068    7.1027 N   0  0  0  0  0  0  0  0  0  0  0  0
   -0.9264    5.4082    8.8175 H   0  0  0  0  0  0  0  0  0  0  0  0
   -2.0772    4.1531    8.7274 H   0  0  0  0  0  0  0  0  0  0  0  0
   -3.8735    4.3016    7.4076 H   0  0  0  0  0  0  0  0  0  0  0  0
   -2.3303    8.9966    5.8920 C   0  0  0  0  0  0  0  0  0  0  0  0
   -2.6411   10.0558    6.9547 C   0  0  0  0  0  0  0  0  0  0  0  0
   -1.3808   10.5972    7.5874 C   0  0  0  0  0  0  0  0  0  0  0  0
   -1.1719   11.9809    7.6750 C   0  0  0  0  0  0  0  0  0  0  0  0
   -0.0001   12.4844    8.2437 C   0  0  0  0  0  0  0  0  0  0  0  0
    0.9690   11.6061    8.7233 C   0  0  0  0  0  0  0  0  0  0  0  0
    2.4134   12.2260    9.4236 Cl  0  0  0  0  0  0  0  0  0  0  0  0
    0.7771   10.2288    8.6379 C   0  0  0  0  0  0  0  0  0  0  0  0
   -0.3947    9.7249    8.0691 C   0  0  0  0  0  0  0  0  0  0  0  0
  1  2  1  0
  2  3  2  0
  3  4  1  0
  4 12  1  0
 12 13  1  0
 13 14  1  0
 14 15  2  0
 15 16  1  0
 16 17  2  0
 17 18  1  0
 17 19  1  0
 19 20  2  0
  4  5  2  0
  5  6  1  0
  6  7  2  0
  6  8  1  0
  8  2  1  0
 20 14  1  0
  1  9  1  0
  1 10  1  0
  8 11  1  0
M  END
> <minimizedAffinity>
-6.08519

> <CNNscore>
0.6475398540

> <CNNaffinity>
4.4561939240

> <CNN_VS>
2.8855631351

> <CNNaffinity_variance>
0.2720219195

$$$$



 20 21  0  0  0  0  0  0  0  0999 V2000
   -0.2856    1.0972    9.5795 N   0  0  0  0  0  0  0  0  0  0  0  0
   -1.5292    1.2458   10.0970 C   0  0  0  0  0  0  0  0  0  0  0  0
   -2.3503    0.2453   10.1237 N   0  0  0  0  0  0  0  0  0  0  0  0
   -3.5984    0.4523   10.6657 C   0  0  0  0  0  0  0  0  0  0  0  0
   -4.0098    1.6329   11.1493 C   0  0  0  0  0  0  0  0  0  0  0  0
   -3.0722    2.7615   11.1020 C   0  0  0  0  0  0  0  0  0  0  0  0
   -3.3867    3.8748   11.5049 O   0  0  0  0  0  0  0  0  0  0  0  0
   -1.8463    2.4753   10.5822 N   0  0  0  0  0  0  0  0  0  0  0  0
   -0.0051    0.2268    9.2147 H   0  0  0  0  0  0  0  0  0  0  0  0
    0.3373    1.8595    9.5683 H   0  0  0  0  0  0  0  0  0  0  0  0
   -1.1646    3.1852   10.5569 H   0  0  0  0  0  0  0  0  0  0  0  0
   -4.5177   -0.7477   10.6611 C   0  0  0  0  0  0  0  0  0  0  0  0
   -5.9934   -0.3360   10.6361 C   0  0  0  0  0  0  0  0  0  0  0  0
   -6.6857   -0.8195    9.3836 C   0  0  0  0  0  0  0  0  0  0  0  0
   -8.0698   -1.0435    9.3825 C   0  0  0  0  0  0  0  0  0  0  0  0
   -8.7102   -1.5070    8.2313 C   0  0  0  0  0  0  0  0  0  0  0  0
   -7.9682   -1.7519    7.0780 C   0  0  0  0  0  0  0  0  0  0  0  0
   -8.7567   -2.3236    5.6594 Cl  0  0  0  0  0  0  0  0  0  0  0  0
   -6.5915   -1.5389    7.0664 C   0  0  0  0  0  0  0  0  0  0  0  0
   -5.9507   -1.0755    8.2176 C   0  0  0  0  0  0  0  0  0  0  0  0
  1  2  1  0
  2  3  2  0
  3  4  1  0
  4 12  1  0
 12 13  1  0
 13 14  1  0
 14 15  2  0
 15 16  1  0
 16 17  2  0
 17 18  1  0
 17 19  1  0
 19 20  2  0
  4  5  2  0
  5  6  1  0
  6  7  2  0
  6  8  1  0
  8  2  1  0
 20 14  1  0
  1  9  1  0
  1 10  1  0
  8 11  1  0
M  END
> <minimizedAffinity>
-6.82904

> <CNNscore>
0.6145182848

> <CNNaffinity>
5.2065553665

> <CNN_VS>
3.1995234489

> <CNNaffinity_variance>
0.0965176150

$$$$



 20 21  0  0  0  0  0  0  0  0999 V2000
    0.2266    1.0629    9.9437 N   0  0  0  0  0  0  0  0  0  0  0  0
   -0.7151    2.0365    9.9854 C   0  0  0  0  0  0  0  0  0  0  0  0
   -1.9607    1.7508    9.7783 N   0  0  0  0  0  0  0  0  0  0  0  0
   -2.8744    2.7784    9.8381 C   0  0  0  0  0  0  0  0  0  0  0  0
   -2.5406    4.0535   10.0823 C   0  0  0  0  0  0  0  0  0  0  0  0
   -1.1232    4.3646   10.3037 C   0  0  0  0  0  0  0  0  0  0  0  0
   -0.7419    5.5104   10.5099 O   0  0  0  0  0  0  0  0  0  0  0  0
   -0.2814    3.2948   10.2613 N   0  0  0  0  0  0  0  0  0  0  0  0
   -0.0342    0.1339    9.7481 H   0  0  0  0  0  0  0  0  0  0  0  0
    1.1714    1.2845   10.1091 H   0  0  0  0  0  0  0  0  0  0  0  0
    0.6767    3.4382   10.4369 H   0  0  0  0  0  0  0  0  0  0  0  0
   -4.3116    2.3881    9.5784 C   0  0  0  0  0  0  0  0  0  0  0  0
   -4.4162    1.0312    8.8746 C   0  0  0  0  0  0  0  0  0  0  0  0
   -4.9272   -0.0421    9.8066 C   0  0  0  0  0  0  0  0  0  0  0  0
   -6.3034   -0.2882    9.9146 C   0  0  0  0  0  0  0  0  0  0  0  0
   -6.7801   -1.2678   10.7881 C   0  0  0  0  0  0  0  0  0  0  0  0
   -5.8827   -2.0025   11.5599 C   0  0  0  0  0  0  0  0  0  0  0  0
   -6.4697   -3.2094   12.6368 Cl  0  0  0  0  0  0  0  0  0  0  0  0
   -4.5131   -1.7651   11.4667 C   0  0  0  0  0  0  0  0  0  0  0  0
   -4.0360   -0.7852   10.5933 C   0  0  0  0  0  0  0  0  0  0  0  0
  1  2  1  0
  2  3  2  0
  3  4  1  0
  4 12  1  0
 12 13  1  0
 13 14  1  0
 14 15  2  0
 15 16  1  0
 16 17  2  0
 17 18  1  0
 17 19  1  0
 19 20  2  0
  4  5  2  0
  5  6  1  0
  6  7  2  0
  6  8  1  0
  8  2  1  0
 20 14  1  0
  1  9  1  0
  1 10  1  0
  8 11  1  0
M  END
> <minimizedAffinity>
-6.00514

> <CNNscore>
0.5968995690

> <CNNaffinity>
4.9004588127

> <CNN_VS>
2.9250817299

> <CNNaffinity_variance>
0.2420505136

$$$$



 20 21  0  0  0  0  0  0  0  0999 V2000
    0.4871    0.7655    9.5767 N   0  0  0  0  0  0  0  0  0  0  0  0
   -0.5273    1.5586    9.9990 C   0  0  0  0  0  0  0  0  0  0  0  0
   -1.6691    1.0422   10.3242 N   0  0  0  0  0  0  0  0  0  0  0  0
   -2.6618    1.8947   10.7513 C   0  0  0  0  0  0  0  0  0  0  0  0
   -2.5127    3.2244   10.8319 C   0  0  0  0  0  0  0  0  0  0  0  0
   -1.2164    3.7971   10.4488 C   0  0  0  0  0  0  0  0  0  0  0  0
   -1.0151    5.0052   10.4756 O   0  0  0  0  0  0  0  0  0  0  0  0
   -0.2729    2.8920   10.0673 N   0  0  0  0  0  0  0  0  0  0  0  0
    0.3556   -0.2078    9.5091 H   0  0  0  0  0  0  0  0  0  0  0  0
    1.3556    1.1627    9.3375 H   0  0  0  0  0  0  0  0  0  0  0  0
    0.6267    3.2156    9.8323 H   0  0  0  0  0  0  0  0  0  0  0  0
   -3.9757    1.2377   11.1079 C   0  0  0  0  0  0  0  0  0  0  0  0
   -4.0431   -0.2102   10.6115 C   0  0  0  0  0  0  0  0  0  0  0  0
   -5.4028   -0.5418   10.0430 C   0  0  0  0  0  0  0  0  0  0  0  0
   -5.5355   -0.9109    8.6968 C   0  0  0  0  0  0  0  0  0  0  0  0
   -6.7931   -1.2012    8.1639 C   0  0  0  0  0  0  0  0  0  0  0  0
   -7.9234   -1.1197    8.9741 C   0  0  0  0  0  0  0  0  0  0  0  0
   -9.4734   -1.4768    8.3177 Cl  0  0  0  0  0  0  0  0  0  0  0  0
   -7.8071   -0.7491   10.3120 C   0  0  0  0  0  0  0  0  0  0  0  0
   -6.5494   -0.4585   10.8453 C   0  0  0  0  0  0  0  0  0  0  0  0
  1  2  1  0
  2  3  2  0
  3  4  1  0
  4 12  1  0
 12 13  1  0
 13 14  1  0
 14 15  2  0
 15 16  1  0
 16 17  2  0
 17 18  1  0
 17 19  1  0
 19 20  2  0
  4  5  2  0
  5  6  1  0
  6  7  2  0
  6  8  1  0
  8  2  1  0
 20 14  1  0
  1  9  1  0
  1 10  1  0
  8 11  1  0
M  END
> <minimizedAffinity>
-6.69782

> <CNNscore>
0.5475721359

> <CNNaffinity>
4.9428639412

> <CNN_VS>
2.7065746784

> <CNNaffinity_variance>
0.3098873794

$$$$



 20 21  0  0  0  0  0  0  0  0999 V2000
  -11.8508    9.8517    2.7221 N   0  0  0  0  0  0  0  0  0  0  0  0
  -10.7019    9.1538    2.5501 C   0  0  0  0  0  0  0  0  0  0  0  0
  -10.6493    7.8962    2.8529 N   0  0  0  0  0  0  0  0  0  0  0  0
   -9.4582    7.2362    2.6527 C   0  0  0  0  0  0  0  0  0  0  0  0
   -8.3532    7.8288    2.1787 C   0  0  0  0  0  0  0  0  0  0  0  0
   -8.4243    9.2579    1.8507 C   0  0  0  0  0  0  0  0  0  0  0  0
   -7.4484    9.8704    1.4345 O   0  0  0  0  0  0  0  0  0  0  0  0
   -9.6416    9.8372    2.0439 N   0  0  0  0  0  0  0  0  0  0  0  0
  -12.6488    9.4043    3.0856 H   0  0  0  0  0  0  0  0  0  0  0  0
  -11.8873   10.8062    2.4834 H   0  0  0  0  0  0  0  0  0  0  0  0
   -9.7579   10.7859    1.8082 H   0  0  0  0  0  0  0  0  0  0  0  0
   -9.4523    5.7731    3.0328 C   0  0  0  0  0  0  0  0  0  0  0  0
   -8.7788    4.9081    1.9625 C   0  0  0  0  0  0  0  0  0  0  0  0
   -9.7948    4.2079    1.0911 C   0  0  0  0  0  0  0  0  0  0  0  0
  -11.1458    4.5796    1.1422 C   0  0  0  0  0  0  0  0  0  0  0  0
  -12.0903    3.9226    0.3508 C   0  0  0  0  0  0  0  0  0  0  0  0
  -11.6880    2.8888   -0.4918 C   0  0  0  0  0  0  0  0  0  0  0  0
  -12.8515    2.0786   -1.4669 Cl  0  0  0  0  0  0  0  0  0  0  0  0
  -10.3498    2.5054   -0.5488 C   0  0  0  0  0  0  0  0  0  0  0  0
   -9.4049    3.1621    0.2428 C   0  0  0  0  0  0  0  0  0  0  0  0
  1  2  1  0
  2  3  2  0
  3  4  1  0
  4 12  1  0
 12 13  1  0
 13 14  1  0
 14 15  2  0
 15 16  1  0
 16 17  2  0
 17 18  1  0
 17 19  1  0
 19 20  2  0
  4  5  2  0
  5  6  1  0
  6  7  2  0
  6  8  1  0
  8  2  1  0
 20 14  1  0
  1  9  1  0
  1 10  1  0
  8 11  1  0
M  END
> <minimizedAffinity>
-5.86920

> <CNNscore>
0.5060430169

> <CNNaffinity>
4.8099083900

> <CNN_VS>
2.4340205193

> <CNNaffinity_variance>
0.5793128610

$$$$



 20 21  0  0  0  0  0  0  0  0999 V2000
    1.2888    4.7601    9.8318 N   0  0  0  0  0  0  0  0  0  0  0  0
    1.2316    6.1121    9.9040 C   0  0  0  0  0  0  0  0  0  0  0  0
    1.5373    6.7217   11.0045 N   0  0  0  0  0  0  0  0  0  0  0  0
    1.4665    8.0962   11.0189 C   0  0  0  0  0  0  0  0  0  0  0  0
    1.0844    8.8297    9.9639 C   0  0  0  0  0  0  0  0  0  0  0  0
    0.7296    8.1244    8.7264 C   0  0  0  0  0  0  0  0  0  0  0  0
    0.3503    8.7275    7.7298 O   0  0  0  0  0  0  0  0  0  0  0  0
    0.8535    6.7690    8.7757 N   0  0  0  0  0  0  0  0  0  0  0  0
    1.5569    4.2359   10.6208 H   0  0  0  0  0  0  0  0  0  0  0  0
    1.0622    4.3021    8.9903 H   0  0  0  0  0  0  0  0  0  0  0  0
    0.6622    6.2456    7.9640 H   0  0  0  0  0  0  0  0  0  0  0  0
    1.8246    8.7531   12.3325 C   0  0  0  0  0  0  0  0  0  0  0  0
    2.4649    7.7623   13.3102 C   0  0  0  0  0  0  0  0  0  0  0  0
    3.2386    8.4722   14.3962 C   0  0  0  0  0  0  0  0  0  0  0  0
    3.9929    9.6152   14.0950 C   0  0  0  0  0  0  0  0  0  0  0  0
    4.7232   10.2636   15.0931 C   0  0  0  0  0  0  0  0  0  0  0  0
    4.7052    9.7692   16.3954 C   0  0  0  0  0  0  0  0  0  0  0  0
    5.6054   10.5675   17.6255 Cl  0  0  0  0  0  0  0  0  0  0  0  0
    3.9645    8.6313   16.7078 C   0  0  0  0  0  0  0  0  0  0  0  0
    3.2341    7.9825   15.7097 C   0  0  0  0  0  0  0  0  0  0  0  0
  1  2  1  0
  2  3  2  0
  3  4  1  0
  4 12  1  0
 12 13  1  0
 13 14  1  0
 14 15  2  0
 15 16  1  0
 16 17  2  0
 17 18  1  0
 17 19  1  0
 19 20  2  0
  4  5  2  0
  5  6  1  0
  6  7  2  0
  6  8  1  0
  8  2  1  0
 20 14  1  0
  1  9  1  0
  1 10  1  0
  8 11  1  0
M  END
> <minimizedAffinity>
-6.84066

> <CNNscore>
0.5023077726

> <CNNaffinity>
4.2902855873

> <CNN_VS>
2.1550438404

> <CNNaffinity_variance>
0.6590768695

$$$$



 20 21  0  0  0  0  0  0  0  0999 V2000
   -7.5846    0.4021    4.7604 N   0  0  0  0  0  0  0  0  0  0  0  0
   -7.1595    1.6400    4.4092 C   0  0  0  0  0  0  0  0  0  0  0  0
   -7.5086    2.1533    3.2731 N   0  0  0  0  0  0  0  0  0  0  0  0
   -7.0519    3.4161    2.9709 C   0  0  0  0  0  0  0  0  0  0  0  0
   -6.2567    4.1300    3.7803 C   0  0  0  0  0  0  0  0  0  0  0  0
   -5.8596    3.5306    5.0601 C   0  0  0  0  0  0  0  0  0  0  0  0
   -5.1169    4.1150    5.8397 O   0  0  0  0  0  0  0  0  0  0  0  0
   -6.3742    2.2937    5.3055 N   0  0  0  0  0  0  0  0  0  0  0  0
   -8.1559   -0.1145    4.1473 H   0  0  0  0  0  0  0  0  0  0  0  0
   -7.3221    0.0195    5.6287 H   0  0  0  0  0  0  0  0  0  0  0  0
   -6.1697    1.8570    6.1638 H   0  0  0  0  0  0  0  0  0  0  0  0
   -7.4825    3.9604    1.6279 C   0  0  0  0  0  0  0  0  0  0  0  0
   -8.0403    2.8606    0.7186 C   0  0  0  0  0  0  0  0  0  0  0  0
   -9.5008    3.0847    0.4044 C   0  0  0  0  0  0  0  0  0  0  0  0
  -10.1357    2.3229   -0.5868 C   0  0  0  0  0  0  0  0  0  0  0  0
  -11.4811    2.5394   -0.8917 C   0  0  0  0  0  0  0  0  0  0  0  0
  -12.1957    3.5213   -0.2092 C   0  0  0  0  0  0  0  0  0  0  0  0
  -13.8535    3.7889   -0.5848 Cl  0  0  0  0  0  0  0  0  0  0  0  0
  -11.5763    4.2893    0.7744 C   0  0  0  0  0  0  0  0  0  0  0  0
  -10.2306    4.0731    1.0794 C   0  0  0  0  0  0  0  0  0  0  0  0
  1  2  1  0
  2  3  2  0
  3  4  1  0
  4 12  1  0
 12 13  1  0
 13 14  1  0
 14 15  2  0
 15 16  1  0
 16 17  2  0
 17 18  1  0
 17 19  1  0
 19 20  2  0
  4  5  2  0
  5  6  1  0
  6  7  2  0
  6  8  1  0
  8  2  1  0
 20 14  1  0
  1  9  1  0
  1 10  1  0
  8 11  1  0
M  END
> <minimizedAffinity>
-5.82402

> <CNNscore>
0.4804187417

> <CNNaffinity>
4.8963913918

> <CNN_VS>
2.3523182869

> <CNNaffinity_variance>
0.0918341056

$$$$
