


 33 36  0  0  0  0  0  0  0  0999 V2000
    3.4542   31.5670    7.7148 C   0  0  0  0  0  0  0  0  0  0  0  0
    3.4303   31.4930    9.0513 N   0  0  0  0  0  0  0  0  0  0  0  0
    4.0660   30.4562    9.6176 C   0  0  0  0  0  0  0  0  0  0  0  0
    4.7312   29.4966    8.8993 C   0  0  0  0  0  0  0  0  0  0  0  0
    4.7184   29.6409    7.5275 C   0  0  0  0  0  0  0  0  0  0  0  0
    4.0776   30.6660    6.9395 N   0  0  0  0  0  0  0  0  0  0  0  0
    2.8296   32.5974    7.0177 N   0  0  0  0  0  0  0  0  0  0  0  0
    2.4895   33.3074    7.6089 H   0  0  0  0  0  0  0  0  0  0  0  0
    1.9452   33.4195    2.9643 C   0  0  0  0  0  0  0  0  0  0  0  0
    1.0363   33.7246    3.9795 C   0  0  0  0  0  0  0  0  0  0  0  0
    1.3532   33.4416    5.3131 C   0  0  0  0  0  0  0  0  0  0  0  0
    2.5775   32.8497    5.6668 C   0  0  0  0  0  0  0  0  0  0  0  0
    3.4754   32.5533    4.6358 C   0  0  0  0  0  0  0  0  0  0  0  0
    3.1679   32.8324    3.2968 C   0  0  0  0  0  0  0  0  0  0  0  0
    2.3159   33.6859    0.6012 O   0  0  0  0  0  0  0  0  0  0  0  0
    1.5730   33.7343    1.5644 C   0  0  0  0  0  0  0  0  0  0  0  0
    0.2846   34.0968    1.4340 O   0  0  0  0  0  0  0  0  0  0  0  0
   -0.2718   34.1281    2.1872 H   0  0  0  0  0  0  0  0  0  0  0  0
    5.3913   28.6596    6.7589 N   0  0  0  0  0  0  0  0  0  0  0  0
    5.1448   27.7244    6.9430 H   0  0  0  0  0  0  0  0  0  0  0  0
    6.3776   28.8567    5.7556 C   0  0  0  0  0  0  0  0  0  0  0  0
    6.0514   29.4713    4.5350 C   0  0  0  0  0  0  0  0  0  0  0  0
    6.9980   29.6204    3.5190 C   0  0  0  0  0  0  0  0  0  0  0  0
    8.2896   29.1406    3.6968 C   0  0  0  0  0  0  0  0  0  0  0  0
    8.6316   28.5037    4.8884 C   0  0  0  0  0  0  0  0  0  0  0  0
    7.6903   28.3442    5.9240 C   0  0  0  0  0  0  0  0  0  0  0  0
    8.1122   27.6609    7.1558 C   0  0  0  0  0  0  0  0  0  0  0  0
    8.6059   26.3466    7.1118 C   0  0  0  0  0  0  0  0  0  0  0  0
    8.9945   25.6947    8.2838 C   0  0  0  0  0  0  0  0  0  0  0  0
    8.8913   26.3556    9.5015 C   0  0  0  0  0  0  0  0  0  0  0  0
    9.2621   25.7293   10.6255 F   0  0  0  0  0  0  0  0  0  0  0  0
    8.4077   27.6564    9.5708 C   0  0  0  0  0  0  0  0  0  0  0  0
    8.0187   28.3087    8.3994 C   0  0  0  0  0  0  0  0  0  0  0  0
 15 16  2  0
 16 17  1  0
 16  9  1  0
  9 10  2  0
 10 11  1  0
 11 12  2  0
 12  7  1  0
  7  1  1  0
  1  2  2  0
  2  3  1  0
  3  4  2  0
  4  5  1  0
  5 19  1  0
 19 21  1  0
 21 22  2  0
 22 23  1  0
 23 24  2  0
 24 25  1  0
 25 26  2  0
 26 27  1  0
 27 28  2  0
 28 29  1  0
 29 30  2  0
 30 31  1  0
 30 32  1  0
 32 33  2  0
  5  6  2  0
 12 13  1  0
 13 14  2  0
 14  9  1  0
  6  1  1  0
 26 21  1  0
 33 27  1  0
 17 18  1  0
  7  8  1  0
 19 20  1  0
M  END
> <minimizedAffinity>
-10.48058

> <CNNscore>
0.9841701984

> <CNNaffinity>
7.5418515205

> <CNN_VS>
7.4224653244

> <CNNaffinity_variance>
0.0633782074

$$$$



 33 36  0  0  0  0  0  0  0  0999 V2000
    7.1706   28.1241    4.3044 C   0  0  0  0  0  0  0  0  0  0  0  0
    7.4567   28.4966    3.0507 N   0  0  0  0  0  0  0  0  0  0  0  0
    6.5909   29.3237    2.4459 C   0  0  0  0  0  0  0  0  0  0  0  0
    5.4556   29.7989    3.0497 C   0  0  0  0  0  0  0  0  0  0  0  0
    5.2287   29.3775    4.3434 C   0  0  0  0  0  0  0  0  0  0  0  0
    6.0777   28.5397    4.9636 N   0  0  0  0  0  0  0  0  0  0  0  0
    7.9951   27.2697    5.0309 N   0  0  0  0  0  0  0  0  0  0  0  0
    8.5349   26.6797    4.4565 H   0  0  0  0  0  0  0  0  0  0  0  0
    8.7681   26.5231    9.1215 C   0  0  0  0  0  0  0  0  0  0  0  0
    9.1606   25.6174    8.1339 C   0  0  0  0  0  0  0  0  0  0  0  0
    8.8921   25.8880    6.7872 C   0  0  0  0  0  0  0  0  0  0  0  0
    8.2282   27.0619    6.3928 C   0  0  0  0  0  0  0  0  0  0  0  0
    7.8447   27.9576    7.3966 C   0  0  0  0  0  0  0  0  0  0  0  0
    8.1086   27.6962    8.7484 C   0  0  0  0  0  0  0  0  0  0  0  0
    8.8263   25.1473   11.0954 O   0  0  0  0  0  0  0  0  0  0  0  0
    9.0704   26.2008   10.5365 C   0  0  0  0  0  0  0  0  0  0  0  0
    9.6658   27.2149   11.1889 O   0  0  0  0  0  0  0  0  0  0  0  0
    9.8456   28.0183   10.7416 H   0  0  0  0  0  0  0  0  0  0  0  0
    4.0589   29.8465    4.9899 N   0  0  0  0  0  0  0  0  0  0  0  0
    3.2294   29.8077    4.4611 H   0  0  0  0  0  0  0  0  0  0  0  0
    3.9334   30.3658    6.3063 C   0  0  0  0  0  0  0  0  0  0  0  0
    4.4134   29.6465    7.4137 C   0  0  0  0  0  0  0  0  0  0  0  0
    4.2463   30.1196    8.7172 C   0  0  0  0  0  0  0  0  0  0  0  0
    3.5780   31.3166    8.9415 C   0  0  0  0  0  0  0  0  0  0  0  0
    3.0693   32.0363    7.8619 C   0  0  0  0  0  0  0  0  0  0  0  0
    3.2282   31.5748    6.5405 C   0  0  0  0  0  0  0  0  0  0  0  0
    2.6661   32.3784    5.4450 C   0  0  0  0  0  0  0  0  0  0  0  0
    1.4881   33.1203    5.6331 C   0  0  0  0  0  0  0  0  0  0  0  0
    0.9488   33.8730    4.5880 C   0  0  0  0  0  0  0  0  0  0  0  0
    1.5863   33.8864    3.3537 C   0  0  0  0  0  0  0  0  0  0  0  0
    1.0675   34.6067    2.3511 F   0  0  0  0  0  0  0  0  0  0  0  0
    2.7534   33.1624    3.1433 C   0  0  0  0  0  0  0  0  0  0  0  0
    3.2931   32.4093    4.1876 C   0  0  0  0  0  0  0  0  0  0  0  0
 15 16  2  0
 16 17  1  0
 16  9  1  0
  9 10  2  0
 10 11  1  0
 11 12  2  0
 12  7  1  0
  7  1  1  0
  1  2  2  0
  2  3  1  0
  3  4  2  0
  4  5  1  0
  5 19  1  0
 19 21  1  0
 21 22  2  0
 22 23  1  0
 23 24  2  0
 24 25  1  0
 25 26  2  0
 26 27  1  0
 27 28  2  0
 28 29  1  0
 29 30  2  0
 30 31  1  0
 30 32  1  0
 32 33  2  0
  5  6  2  0
 12 13  1  0
 13 14  2  0
 14  9  1  0
  6  1  1  0
 26 21  1  0
 33 27  1  0
 17 18  1  0
  7  8  1  0
 19 20  1  0
M  END
> <minimizedAffinity>
-11.33790

> <CNNscore>
0.2349784821

> <CNNaffinity>
6.0102615356

> <CNN_VS>
1.4122821093

> <CNNaffinity_variance>
0.7610653043

$$$$



 33 36  0  0  0  0  0  0  0  0999 V2000
    4.4471   30.0067    7.7893 C   0  0  0  0  0  0  0  0  0  0  0  0
    3.5522   30.5207    8.6420 N   0  0  0  0  0  0  0  0  0  0  0  0
    2.8353   31.5715    8.2162 C   0  0  0  0  0  0  0  0  0  0  0  0
    2.9731   32.1217    6.9681 C   0  0  0  0  0  0  0  0  0  0  0  0
    3.9098   31.5365    6.1417 C   0  0  0  0  0  0  0  0  0  0  0  0
    4.6469   30.4901    6.5531 N   0  0  0  0  0  0  0  0  0  0  0  0
    5.2470   28.9168    8.1211 N   0  0  0  0  0  0  0  0  0  0  0  0
    5.0897   28.5922    9.0372 H   0  0  0  0  0  0  0  0  0  0  0  0
    8.2549   26.8067    6.0263 C   0  0  0  0  0  0  0  0  0  0  0  0
    8.1473   28.1959    5.9336 C   0  0  0  0  0  0  0  0  0  0  0  0
    7.1422   28.8701    6.6365 C   0  0  0  0  0  0  0  0  0  0  0  0
    6.2231   28.1803    7.4450 C   0  0  0  0  0  0  0  0  0  0  0  0
    6.3484   26.7894    7.5266 C   0  0  0  0  0  0  0  0  0  0  0  0
    7.3514   26.1043    6.8265 C   0  0  0  0  0  0  0  0  0  0  0  0
   10.0017   26.6275    4.3804 O   0  0  0  0  0  0  0  0  0  0  0  0
    9.3325   26.1291    5.2667 C   0  0  0  0  0  0  0  0  0  0  0  0
    9.5234   24.8550    5.6522 O   0  0  0  0  0  0  0  0  0  0  0  0
    8.9983   24.4889    6.3365 H   0  0  0  0  0  0  0  0  0  0  0  0
    4.0795   32.0890    4.8486 N   0  0  0  0  0  0  0  0  0  0  0  0
    5.0097   32.1988    4.5456 H   0  0  0  0  0  0  0  0  0  0  0  0
    3.0746   32.5043    3.9343 C   0  0  0  0  0  0  0  0  0  0  0  0
    1.9676   33.2517    4.3704 C   0  0  0  0  0  0  0  0  0  0  0  0
    0.9450   33.6182    3.4926 C   0  0  0  0  0  0  0  0  0  0  0  0
    1.0000   33.2283    2.1603 C   0  0  0  0  0  0  0  0  0  0  0  0
    2.0744   32.4643    1.7082 C   0  0  0  0  0  0  0  0  0  0  0  0
    3.1147   32.0853    2.5790 C   0  0  0  0  0  0  0  0  0  0  0  0
    4.2190   31.2766    2.0417 C   0  0  0  0  0  0  0  0  0  0  0  0
    4.7691   31.5639    0.7815 C   0  0  0  0  0  0  0  0  0  0  0  0
    5.8093   30.7873    0.2673 C   0  0  0  0  0  0  0  0  0  0  0  0
    6.3021   29.7230    1.0120 C   0  0  0  0  0  0  0  0  0  0  0  0
    7.2983   28.9772    0.5175 F   0  0  0  0  0  0  0  0  0  0  0  0
    5.7758   29.4199    2.2618 C   0  0  0  0  0  0  0  0  0  0  0  0
    4.7356   30.1957    2.7764 C   0  0  0  0  0  0  0  0  0  0  0  0
 15 16  2  0
 16 17  1  0
 16  9  1  0
  9 10  2  0
 10 11  1  0
 11 12  2  0
 12  7  1  0
  7  1  1  0
  1  2  2  0
  2  3  1  0
  3  4  2  0
  4  5  1  0
  5 19  1  0
 19 21  1  0
 21 22  2  0
 22 23  1  0
 23 24  2  0
 24 25  1  0
 25 26  2  0
 26 27  1  0
 27 28  2  0
 28 29  1  0
 29 30  2  0
 30 31  1  0
 30 32  1  0
 32 33  2  0
  5  6  2  0
 12 13  1  0
 13 14  2  0
 14  9  1  0
  6  1  1  0
 26 21  1  0
 33 27  1  0
 17 18  1  0
  7  8  1  0
 19 20  1  0
M  END
> <minimizedAffinity>
-8.83834

> <CNNscore>
0.2294932306

> <CNNaffinity>
6.5100226402

> <CNN_VS>
1.4940061569

> <CNNaffinity_variance>
0.0342921801

$$$$



 33 36  0  0  0  0  0  0  0  0999 V2000
    7.0239   27.8498    4.3061 C   0  0  0  0  0  0  0  0  0  0  0  0
    6.3155   27.1835    3.3861 N   0  0  0  0  0  0  0  0  0  0  0  0
    5.3025   27.8399    2.8009 C   0  0  0  0  0  0  0  0  0  0  0  0
    4.9769   29.1389    3.0943 C   0  0  0  0  0  0  0  0  0  0  0  0
    5.7538   29.7639    4.0475 C   0  0  0  0  0  0  0  0  0  0  0  0
    6.7662   29.1203    4.6543 N   0  0  0  0  0  0  0  0  0  0  0  0
    8.0966   27.2713    4.9787 N   0  0  0  0  0  0  0  0  0  0  0  0
    8.8392   27.0313    4.3786 H   0  0  0  0  0  0  0  0  0  0  0  0
    8.8157   26.4313    9.0611 C   0  0  0  0  0  0  0  0  0  0  0  0
    8.1935   27.6170    8.6649 C   0  0  0  0  0  0  0  0  0  0  0  0
    7.9678   27.8711    7.3072 C   0  0  0  0  0  0  0  0  0  0  0  0
    8.3552   26.9548    6.3148 C   0  0  0  0  0  0  0  0  0  0  0  0
    8.9752   25.7721    6.7317 C   0  0  0  0  0  0  0  0  0  0  0  0
    9.2062   25.5079    8.0890 C   0  0  0  0  0  0  0  0  0  0  0  0
    8.8119   25.1627   11.1063 O   0  0  0  0  0  0  0  0  0  0  0  0
    9.0372   26.1987   10.5082 C   0  0  0  0  0  0  0  0  0  0  0  0
    9.5315   27.2767   11.1422 O   0  0  0  0  0  0  0  0  0  0  0  0
    9.6984   28.0655   10.6647 H   0  0  0  0  0  0  0  0  0  0  0  0
    5.4356   31.1043    4.3766 N   0  0  0  0  0  0  0  0  0  0  0  0
    6.1809   31.6549    4.7091 H   0  0  0  0  0  0  0  0  0  0  0  0
    4.1750   31.7533    4.2865 C   0  0  0  0  0  0  0  0  0  0  0  0
    3.7863   32.4127    3.1083 C   0  0  0  0  0  0  0  0  0  0  0  0
    2.5743   33.1019    3.0256 C   0  0  0  0  0  0  0  0  0  0  0  0
    1.7319   33.1607    4.1287 C   0  0  0  0  0  0  0  0  0  0  0  0
    2.1062   32.5369    5.3175 C   0  0  0  0  0  0  0  0  0  0  0  0
    3.3246   31.8375    5.4195 C   0  0  0  0  0  0  0  0  0  0  0  0
    3.6635   31.2032    6.7020 C   0  0  0  0  0  0  0  0  0  0  0  0
    4.2218   29.9147    6.7377 C   0  0  0  0  0  0  0  0  0  0  0  0
    4.5316   29.3088    7.9569 C   0  0  0  0  0  0  0  0  0  0  0  0
    4.2848   29.9899    9.1423 C   0  0  0  0  0  0  0  0  0  0  0  0
    4.5801   29.4076   10.3115 F   0  0  0  0  0  0  0  0  0  0  0  0
    3.7349   31.2660    9.1332 C   0  0  0  0  0  0  0  0  0  0  0  0
    3.4247   31.8723    7.9146 C   0  0  0  0  0  0  0  0  0  0  0  0
 15 16  2  0
 16 17  1  0
 16  9  1  0
  9 10  2  0
 10 11  1  0
 11 12  2  0
 12  7  1  0
  7  1  1  0
  1  2  2  0
  2  3  1  0
  3  4  2  0
  4  5  1  0
  5 19  1  0
 19 21  1  0
 21 22  2  0
 22 23  1  0
 23 24  2  0
 24 25  1  0
 25 26  2  0
 26 27  1  0
 27 28  2  0
 28 29  1  0
 29 30  2  0
 30 31  1  0
 30 32  1  0
 32 33  2  0
  5  6  2  0
 12 13  1  0
 13 14  2  0
 14  9  1  0
  6  1  1  0
 26 21  1  0
 33 27  1  0
 17 18  1  0
  7  8  1  0
 19 20  1  0
M  END
> <minimizedAffinity>
-11.09960

> <CNNscore>
0.2274212390

> <CNNaffinity>
6.1270956993

> <CNN_VS>
1.3934316635

> <CNNaffinity_variance>
0.5893316269

$$$$



 33 36  0  0  0  0  0  0  0  0999 V2000
    2.1574   33.5820    3.0491 C   0  0  0  0  0  0  0  0  0  0  0  0
    1.1898   34.1045    3.8126 N   0  0  0  0  0  0  0  0  0  0  0  0
    1.1628   33.7365    5.1024 C   0  0  0  0  0  0  0  0  0  0  0  0
    2.0711   32.8736    5.6589 C   0  0  0  0  0  0  0  0  0  0  0  0
    3.0429   32.3797    4.8136 C   0  0  0  0  0  0  0  0  0  0  0  0
    3.0808   32.7267    3.5154 N   0  0  0  0  0  0  0  0  0  0  0  0
    2.2842   33.8910    1.6977 N   0  0  0  0  0  0  0  0  0  0  0  0
    1.6795   34.6138    1.4126 H   0  0  0  0  0  0  0  0  0  0  0  0
    4.5907   32.3207   -1.4807 C   0  0  0  0  0  0  0  0  0  0  0  0
    3.3989   31.7120   -1.0819 C   0  0  0  0  0  0  0  0  0  0  0  0
    2.6546   32.2515   -0.0265 C   0  0  0  0  0  0  0  0  0  0  0  0
    3.0776   33.4050    0.6553 C   0  0  0  0  0  0  0  0  0  0  0  0
    4.2729   34.0013    0.2399 C   0  0  0  0  0  0  0  0  0  0  0  0
    5.0261   33.4691   -0.8160 C   0  0  0  0  0  0  0  0  0  0  0  0
    4.9443   30.8531   -3.3552 O   0  0  0  0  0  0  0  0  0  0  0  0
    5.3505   31.7193   -2.6025 C   0  0  0  0  0  0  0  0  0  0  0  0
    6.5875   32.2309   -2.7308 O   0  0  0  0  0  0  0  0  0  0  0  0
    6.8824   32.8972   -2.1417 H   0  0  0  0  0  0  0  0  0  0  0  0
    3.9906   31.4796    5.3595 N   0  0  0  0  0  0  0  0  0  0  0  0
    4.7037   31.1823    4.7492 H   0  0  0  0  0  0  0  0  0  0  0  0
    4.0405   30.9523    6.6777 C   0  0  0  0  0  0  0  0  0  0  0  0
    3.4477   31.6380    7.7512 C   0  0  0  0  0  0  0  0  0  0  0  0
    3.5378   31.1589    9.0600 C   0  0  0  0  0  0  0  0  0  0  0  0
    4.2399   29.9899    9.3251 C   0  0  0  0  0  0  0  0  0  0  0  0
    4.8592   29.3046    8.2814 C   0  0  0  0  0  0  0  0  0  0  0  0
    4.7791   29.7728    6.9553 C   0  0  0  0  0  0  0  0  0  0  0  0
    5.4566   29.0062    5.8992 C   0  0  0  0  0  0  0  0  0  0  0  0
    6.6221   28.2746    6.1815 C   0  0  0  0  0  0  0  0  0  0  0  0
    7.2713   27.5573    5.1747 C   0  0  0  0  0  0  0  0  0  0  0  0
    6.7561   27.5690    3.8845 C   0  0  0  0  0  0  0  0  0  0  0  0
    7.3802   26.8826    2.9188 F   0  0  0  0  0  0  0  0  0  0  0  0
    5.6038   28.2834    3.5806 C   0  0  0  0  0  0  0  0  0  0  0  0
    4.9544   29.0012    4.5866 C   0  0  0  0  0  0  0  0  0  0  0  0
 15 16  2  0
 16 17  1  0
 16  9  1  0
  9 10  2  0
 10 11  1  0
 11 12  2  0
 12  7  1  0
  7  1  1  0
  1  2  2  0
  2  3  1  0
  3  4  2  0
  4  5  1  0
  5 19  1  0
 19 21  1  0
 21 22  2  0
 22 23  1  0
 23 24  2  0
 24 25  1  0
 25 26  2  0
 26 27  1  0
 27 28  2  0
 28 29  1  0
 29 30  2  0
 30 31  1  0
 30 32  1  0
 32 33  2  0
  5  6  2  0
 12 13  1  0
 13 14  2  0
 14  9  1  0
  6  1  1  0
 26 21  1  0
 33 27  1  0
 17 18  1  0
  7  8  1  0
 19 20  1  0
M  END
> <minimizedAffinity>
-9.49564

> <CNNscore>
0.1637878567

> <CNNaffinity>
5.6185379028

> <CNN_VS>
0.9202482700

> <CNNaffinity_variance>
0.4158477485

$$$$



 33 36  0  0  0  0  0  0  0  0999 V2000
    4.6826   29.7677    6.1910 C   0  0  0  0  0  0  0  0  0  0  0  0
    3.9234   30.8700    6.1666 N   0  0  0  0  0  0  0  0  0  0  0  0
    3.6406   31.3912    4.9633 C   0  0  0  0  0  0  0  0  0  0  0  0
    4.0804   30.8472    3.7843 C   0  0  0  0  0  0  0  0  0  0  0  0
    4.8527   29.7088    3.8865 C   0  0  0  0  0  0  0  0  0  0  0  0
    5.1574   29.1772    5.0830 N   0  0  0  0  0  0  0  0  0  0  0  0
    5.0402   29.1394    7.3807 N   0  0  0  0  0  0  0  0  0  0  0  0
    4.4486   29.3769    8.1310 H   0  0  0  0  0  0  0  0  0  0  0  0
    8.1577   26.5399    8.5686 C   0  0  0  0  0  0  0  0  0  0  0  0
    8.1449   27.8804    8.9594 C   0  0  0  0  0  0  0  0  0  0  0  0
    7.1017   28.7199    8.5520 C   0  0  0  0  0  0  0  0  0  0  0  0
    6.0507   28.2472    7.7482 C   0  0  0  0  0  0  0  0  0  0  0  0
    6.0803   26.9010    7.3687 C   0  0  0  0  0  0  0  0  0  0  0  0
    7.1205   26.0516    7.7711 C   0  0  0  0  0  0  0  0  0  0  0  0
    9.7955   24.7866    8.3779 O   0  0  0  0  0  0  0  0  0  0  0  0
    9.2796   25.6828    9.0203 C   0  0  0  0  0  0  0  0  0  0  0  0
    9.7054   25.9871   10.2591 O   0  0  0  0  0  0  0  0  0  0  0  0
    9.2956   26.6804   10.7381 H   0  0  0  0  0  0  0  0  0  0  0  0
    5.3279   29.1291    2.6846 N   0  0  0  0  0  0  0  0  0  0  0  0
    5.0233   28.2115    2.4990 H   0  0  0  0  0  0  0  0  0  0  0  0
    6.1893   29.7066    1.7137 C   0  0  0  0  0  0  0  0  0  0  0  0
    5.6685   30.3213    0.5626 C   0  0  0  0  0  0  0  0  0  0  0  0
    6.5056   30.8429   -0.4263 C   0  0  0  0  0  0  0  0  0  0  0  0
    7.8848   30.7445   -0.2920 C   0  0  0  0  0  0  0  0  0  0  0  0
    8.4265   30.1162    0.8279 C   0  0  0  0  0  0  0  0  0  0  0  0
    7.5980   29.5842    1.8352 C   0  0  0  0  0  0  0  0  0  0  0  0
    8.2305   28.9309    2.9907 C   0  0  0  0  0  0  0  0  0  0  0  0
    8.6062   27.5786    2.9311 C   0  0  0  0  0  0  0  0  0  0  0  0
    9.1954   26.9564    4.0335 C   0  0  0  0  0  0  0  0  0  0  0  0
    9.4111   27.6848    5.1968 C   0  0  0  0  0  0  0  0  0  0  0  0
    9.9743   27.0870    6.2545 F   0  0  0  0  0  0  0  0  0  0  0  0
    9.0499   29.0239    5.2797 C   0  0  0  0  0  0  0  0  0  0  0  0
    8.4604   29.6466    4.1781 C   0  0  0  0  0  0  0  0  0  0  0  0
 15 16  2  0
 16 17  1  0
 16  9  1  0
  9 10  2  0
 10 11  1  0
 11 12  2  0
 12  7  1  0
  7  1  1  0
  1  2  2  0
  2  3  1  0
  3  4  2  0
  4  5  1  0
  5 19  1  0
 19 21  1  0
 21 22  2  0
 22 23  1  0
 23 24  2  0
 24 25  1  0
 25 26  2  0
 26 27  1  0
 27 28  2  0
 28 29  1  0
 29 30  2  0
 30 31  1  0
 30 32  1  0
 32 33  2  0
  5  6  2  0
 12 13  1  0
 13 14  2  0
 14  9  1  0
  6  1  1  0
 26 21  1  0
 33 27  1  0
 17 18  1  0
  7  8  1  0
 19 20  1  0
M  END
> <minimizedAffinity>
-9.10992

> <CNNscore>
0.1512824446

> <CNNaffinity>
5.6613039970

> <CNN_VS>
0.8564559221

> <CNNaffinity_variance>
1.0170713663

$$$$



 33 36  0  0  0  0  0  0  0  0999 V2000
    5.0971   30.5190    1.8288 C   0  0  0  0  0  0  0  0  0  0  0  0
    5.8288   29.9631    0.8553 N   0  0  0  0  0  0  0  0  0  0  0  0
    6.9255   29.2852    1.2258 C   0  0  0  0  0  0  0  0  0  0  0  0
    7.3130   29.1348    2.5322 C   0  0  0  0  0  0  0  0  0  0  0  0
    6.5077   29.7295    3.4813 C   0  0  0  0  0  0  0  0  0  0  0  0
    5.4109   30.4231    3.1304 N   0  0  0  0  0  0  0  0  0  0  0  0
    3.9394   31.2452    1.5642 N   0  0  0  0  0  0  0  0  0  0  0  0
    3.6665   31.1982    0.6194 H   0  0  0  0  0  0  0  0  0  0  0  0
    1.4197   33.5947    4.0176 C   0  0  0  0  0  0  0  0  0  0  0  0
    2.5836   33.0122    4.5234 C   0  0  0  0  0  0  0  0  0  0  0  0
    3.3999   32.2385    3.6903 C   0  0  0  0  0  0  0  0  0  0  0  0
    3.0781   32.0261    2.3392 C   0  0  0  0  0  0  0  0  0  0  0  0
    1.9092   32.6195    1.8507 C   0  0  0  0  0  0  0  0  0  0  0  0
    1.0844   33.3961    2.6765 C   0  0  0  0  0  0  0  0  0  0  0  0
   -0.5979   34.2221    5.1701 O   0  0  0  0  0  0  0  0  0  0  0  0
    0.5814   34.4071    4.9312 C   0  0  0  0  0  0  0  0  0  0  0  0
    1.2593   35.4167    5.5051 O   0  0  0  0  0  0  0  0  0  0  0  0
    2.1667   35.5431    5.3087 H   0  0  0  0  0  0  0  0  0  0  0  0
    6.8878   29.5972    4.8393 N   0  0  0  0  0  0  0  0  0  0  0  0
    6.9550   30.4353    5.3515 H   0  0  0  0  0  0  0  0  0  0  0  0
    7.1842   28.4060    5.5544 C   0  0  0  0  0  0  0  0  0  0  0  0
    8.1223   27.4836    5.0612 C   0  0  0  0  0  0  0  0  0  0  0  0
    8.3815   26.2828    5.7257 C   0  0  0  0  0  0  0  0  0  0  0  0
    7.6928   25.9710    6.8911 C   0  0  0  0  0  0  0  0  0  0  0  0
    6.7383   26.8571    7.3872 C   0  0  0  0  0  0  0  0  0  0  0  0
    6.4635   28.0726    6.7306 C   0  0  0  0  0  0  0  0  0  0  0  0
    5.4431   28.9633    7.3028 C   0  0  0  0  0  0  0  0  0  0  0  0
    4.5858   29.6989    6.4678 C   0  0  0  0  0  0  0  0  0  0  0  0
    3.6256   30.5538    7.0126 C   0  0  0  0  0  0  0  0  0  0  0  0
    3.5199   30.6742    8.3926 C   0  0  0  0  0  0  0  0  0  0  0  0
    2.6003   31.4958    8.9146 F   0  0  0  0  0  0  0  0  0  0  0  0
    4.3551   29.9559    9.2395 C   0  0  0  0  0  0  0  0  0  0  0  0
    5.3155   29.1012    8.6956 C   0  0  0  0  0  0  0  0  0  0  0  0
 15 16  2  0
 16 17  1  0
 16  9  1  0
  9 10  2  0
 10 11  1  0
 11 12  2  0
 12  7  1  0
  7  1  1  0
  1  2  2  0
  2  3  1  0
  3  4  2  0
  4  5  1  0
  5 19  1  0
 19 21  1  0
 21 22  2  0
 22 23  1  0
 23 24  2  0
 24 25  1  0
 25 26  2  0
 26 27  1  0
 27 28  2  0
 28 29  1  0
 29 30  2  0
 30 31  1  0
 30 32  1  0
 32 33  2  0
  5  6  2  0
 12 13  1  0
 13 14  2  0
 14  9  1  0
  6  1  1  0
 26 21  1  0
 33 27  1  0
 17 18  1  0
  7  8  1  0
 19 20  1  0
M  END
> <minimizedAffinity>
-10.36699

> <CNNscore>
0.1485328376

> <CNNaffinity>
5.3888154030

> <CNN_VS>
0.8004160523

> <CNNaffinity_variance>
1.0648325682

$$$$



 33 36  0  0  0  0  0  0  0  0999 V2000
    7.9955   29.2168    3.5815 C   0  0  0  0  0  0  0  0  0  0  0  0
    8.5037   28.0962    4.1088 N   0  0  0  0  0  0  0  0  0  0  0  0
    7.7658   27.4674    5.0360 C   0  0  0  0  0  0  0  0  0  0  0  0
    6.5363   27.9115    5.4489 C   0  0  0  0  0  0  0  0  0  0  0  0
    6.0739   29.0689    4.8578 C   0  0  0  0  0  0  0  0  0  0  0  0
    6.8028   29.7207    3.9353 N   0  0  0  0  0  0  0  0  0  0  0  0
    8.6708   29.9531    2.6122 N   0  0  0  0  0  0  0  0  0  0  0  0
    9.0697   30.7794    2.9690 H   0  0  0  0  0  0  0  0  0  0  0  0
    9.3428   29.5628   -1.5453 C   0  0  0  0  0  0  0  0  0  0  0  0
    8.7425   30.7060   -1.0135 C   0  0  0  0  0  0  0  0  0  0  0  0
    8.5308   30.8098    0.3661 C   0  0  0  0  0  0  0  0  0  0  0  0
    8.9094   29.7819    1.2461 C   0  0  0  0  0  0  0  0  0  0  0  0
    9.5109   28.6457    0.6944 C   0  0  0  0  0  0  0  0  0  0  0  0
    9.7274   28.5315   -0.6859 C   0  0  0  0  0  0  0  0  0  0  0  0
    8.8488   30.0148   -3.8570 O   0  0  0  0  0  0  0  0  0  0  0  0
    9.5499   29.4904   -3.0113 C   0  0  0  0  0  0  0  0  0  0  0  0
   10.6279   28.7624   -3.3525 O   0  0  0  0  0  0  0  0  0  0  0  0
   11.1555   28.3663   -2.6872 H   0  0  0  0  0  0  0  0  0  0  0  0
    4.8095   29.5558    5.2707 N   0  0  0  0  0  0  0  0  0  0  0  0
    4.0908   29.5124    4.5992 H   0  0  0  0  0  0  0  0  0  0  0  0
    4.4490   30.0991    6.5329 C   0  0  0  0  0  0  0  0  0  0  0  0
    4.7937   29.4413    7.7257 C   0  0  0  0  0  0  0  0  0  0  0  0
    4.3971   29.9354    8.9704 C   0  0  0  0  0  0  0  0  0  0  0  0
    3.6303   31.0913    9.0468 C   0  0  0  0  0  0  0  0  0  0  0  0
    3.2530   31.7483    7.8771 C   0  0  0  0  0  0  0  0  0  0  0  0
    3.6436   31.2648    6.6130 C   0  0  0  0  0  0  0  0  0  0  0  0
    3.2110   32.0016    5.4164 C   0  0  0  0  0  0  0  0  0  0  0  0
    2.0010   32.7151    5.4138 C   0  0  0  0  0  0  0  0  0  0  0  0
    1.5856   33.4040    4.2726 C   0  0  0  0  0  0  0  0  0  0  0  0
    2.3792   33.3818    3.1325 C   0  0  0  0  0  0  0  0  0  0  0  0
    1.9794   34.0409    2.0375 F   0  0  0  0  0  0  0  0  0  0  0  0
    3.5810   32.6848    3.1107 C   0  0  0  0  0  0  0  0  0  0  0  0
    3.9968   31.9955    4.2513 C   0  0  0  0  0  0  0  0  0  0  0  0
 15 16  2  0
 16 17  1  0
 16  9  1  0
  9 10  2  0
 10 11  1  0
 11 12  2  0
 12  7  1  0
  7  1  1  0
  1  2  2  0
  2  3  1  0
  3  4  2  0
  4  5  1  0
  5 19  1  0
 19 21  1  0
 21 22  2  0
 22 23  1  0
 23 24  2  0
 24 25  1  0
 25 26  2  0
 26 27  1  0
 27 28  2  0
 28 29  1  0
 29 30  2  0
 30 31  1  0
 30 32  1  0
 32 33  2  0
  5  6  2  0
 12 13  1  0
 13 14  2  0
 14  9  1  0
  6  1  1  0
 26 21  1  0
 33 27  1  0
 17 18  1  0
  7  8  1  0
 19 20  1  0
M  END
> <minimizedAffinity>
-9.85315

> <CNNscore>
0.1004536375

> <CNNaffinity>
5.0429573059

> <CNN_VS>
0.5065833926

> <CNNaffinity_variance>
1.2250238657

$$$$



 33 36  0  0  0  0  0  0  0  0999 V2000
    7.4890   26.9596    7.7132 C   0  0  0  0  0  0  0  0  0  0  0  0
    8.3844   26.1935    8.3484 N   0  0  0  0  0  0  0  0  0  0  0  0
    9.2246   25.4760    7.5875 C   0  0  0  0  0  0  0  0  0  0  0  0
    9.2091   25.5024    6.2169 C   0  0  0  0  0  0  0  0  0  0  0  0
    8.2636   26.3187    5.6316 C   0  0  0  0  0  0  0  0  0  0  0  0
    7.4046   27.0369    6.3757 N   0  0  0  0  0  0  0  0  0  0  0  0
    6.5675   27.7467    8.3980 N   0  0  0  0  0  0  0  0  0  0  0  0
    6.5543   27.5652    9.3655 H   0  0  0  0  0  0  0  0  0  0  0  0
    3.8549   30.7299    7.1209 C   0  0  0  0  0  0  0  0  0  0  0  0
    4.7423   30.1279    6.2264 C   0  0  0  0  0  0  0  0  0  0  0  0
    5.6304   29.1435    6.6749 C   0  0  0  0  0  0  0  0  0  0  0  0
    5.6571   28.7368    8.0196 C   0  0  0  0  0  0  0  0  0  0  0  0
    4.7593   29.3502    8.8998 C   0  0  0  0  0  0  0  0  0  0  0  0
    3.8657   30.3373    8.4610 C   0  0  0  0  0  0  0  0  0  0  0  0
    2.1834   32.4540    7.2817 O   0  0  0  0  0  0  0  0  0  0  0  0
    2.9299   31.7683    6.6077 C   0  0  0  0  0  0  0  0  0  0  0  0
    2.9815   31.9009    5.2704 O   0  0  0  0  0  0  0  0  0  0  0  0
    3.5626   31.3639    4.7685 H   0  0  0  0  0  0  0  0  0  0  0  0
    8.2191   26.3601    4.2165 N   0  0  0  0  0  0  0  0  0  0  0  0
    7.3723   26.0744    3.8035 H   0  0  0  0  0  0  0  0  0  0  0  0
    9.2440   26.7624    3.3188 C   0  0  0  0  0  0  0  0  0  0  0  0
   10.5006   26.1340    3.3311 C   0  0  0  0  0  0  0  0  0  0  0  0
   11.5345   26.5570    2.4928 C   0  0  0  0  0  0  0  0  0  0  0  0
   11.3377   27.6318    1.6350 C   0  0  0  0  0  0  0  0  0  0  0  0
   10.1088   28.2891    1.6221 C   0  0  0  0  0  0  0  0  0  0  0  0
    9.0547   27.8766    2.4605 C   0  0  0  0  0  0  0  0  0  0  0  0
    7.7833   28.6130    2.4020 C   0  0  0  0  0  0  0  0  0  0  0  0
    6.8780   28.3953    1.3501 C   0  0  0  0  0  0  0  0  0  0  0  0
    5.6767   29.1044    1.2893 C   0  0  0  0  0  0  0  0  0  0  0  0
    5.3777   30.0313    2.2800 C   0  0  0  0  0  0  0  0  0  0  0  0
    4.2265   30.7127    2.2201 F   0  0  0  0  0  0  0  0  0  0  0  0
    6.2560   30.2632    3.3315 C   0  0  0  0  0  0  0  0  0  0  0  0
    7.4574   29.5548    3.3928 C   0  0  0  0  0  0  0  0  0  0  0  0
 15 16  2  0
 16 17  1  0
 16  9  1  0
  9 10  2  0
 10 11  1  0
 11 12  2  0
 12  7  1  0
  7  1  1  0
  1  2  2  0
  2  3  1  0
  3  4  2  0
  4  5  1  0
  5 19  1  0
 19 21  1  0
 21 22  2  0
 22 23  1  0
 23 24  2  0
 24 25  1  0
 25 26  2  0
 26 27  1  0
 27 28  2  0
 28 29  1  0
 29 30  2  0
 30 31  1  0
 30 32  1  0
 32 33  2  0
  5  6  2  0
 12 13  1  0
 13 14  2  0
 14  9  1  0
  6  1  1  0
 26 21  1  0
 33 27  1  0
 17 18  1  0
  7  8  1  0
 19 20  1  0
M  END
> <minimizedAffinity>
-8.85703

> <CNNscore>
0.0988109335

> <CNNaffinity>
6.2526097298

> <CNN_VS>
0.6178262234

> <CNNaffinity_variance>
0.0494315661

$$$$
