


 25 26  0  0  0  0  0  0  0  0999 V2000
   13.9408    9.3589    3.0418 C   0  0  0  0  0  0  0  0  0  0  0  0
   14.8016    9.5731    4.3402 C   0  0  0  0  0  0  0  0  0  0  0  0
   16.1635    8.8877    4.1680 C   0  0  0  0  0  0  0  0  0  0  0  0
   15.0248   11.0850    4.5449 C   0  0  0  0  0  0  0  0  0  0  0  0
   13.9487    8.9628    5.5140 C   0  0  0  0  0  0  0  0  0  0  0  0
   14.3409    9.0220    7.0429 C   0  0  0  0  0  0  0  0  0  0  0  0
   13.7351    7.7429    7.6649 C   0  0  0  0  0  0  0  0  0  0  0  0
   15.8728    8.9147    7.1966 C   0  0  0  0  0  0  0  0  0  0  0  0
   13.7728   10.3092    7.7105 C   0  0  0  0  0  0  0  0  0  0  0  0
   13.5351   10.4694    9.2478 C   0  0  0  0  0  0  0  0  0  0  0  0
   12.6879   11.6904    9.6196 C   0  0  0  0  0  0  0  0  0  0  0  0
   14.8532   10.4960   10.0419 C   0  0  0  0  0  0  0  0  0  0  0  0
   12.7593    9.2097    9.7136 C   0  0  0  0  0  0  0  0  0  0  0  0
   13.8175   10.5500    2.0787 C   0  0  0  0  0  0  0  0  0  0  0  0
   13.8617    9.9143   -3.2801 C   0  0  0  0  0  0  0  0  0  0  0  0
   12.7250    9.9893   -2.4675 C   0  0  0  0  0  0  0  0  0  0  0  0
   12.8350   10.1587   -1.0765 C   0  0  0  0  0  0  0  0  0  0  0  0
   14.1143   10.2517   -0.5001 C   0  0  0  0  0  0  0  0  0  0  0  0
   14.6302   10.4209    0.8244 C   0  0  0  0  0  0  0  0  0  0  0  0
   16.0058   10.4184    0.6795 C   0  0  0  0  0  0  0  0  0  0  0  0
   16.3664   10.2706   -0.6202 O   0  0  0  0  0  0  0  0  0  0  0  0
   15.2180   10.1689   -1.3401 C   0  0  0  0  0  0  0  0  0  0  0  0
   15.1414   10.0047   -2.7199 C   0  0  0  0  0  0  0  0  0  0  0  0
   15.1243    9.7562   -5.2935 C   0  0  0  0  0  0  0  0  0  0  0  0
   13.8600    9.7554   -4.6411 O   0  0  0  0  0  0  0  0  0  0  0  0
 24 25  1  0
 25 15  1  0
 15 16  2  0
 16 17  1  0
 17 18  2  0
 18 19  1  0
 19 14  1  0
 14  1  1  0
  1  2  1  0
  2  3  1  0
  2  4  1  0
  2  5  1  0
  5  6  1  0
  6  7  1  0
  6  8  1  0
  6  9  1  0
  9 10  1  0
 10 11  1  0
 10 12  1  0
 10 13  1  0
 19 20  2  0
 20 21  1  0
 21 22  1  0
 22 23  2  0
 23 15  1  0
 22 18  1  0
M  END
> <minimizedAffinity>
-8.63956

> <CNNscore>
0.5679265857

> <CNNaffinity>
6.0177578926

> <CNN_VS>
3.4176447392

> <CNNaffinity_variance>
0.3950581551

$$$$



 25 26  0  0  0  0  0  0  0  0999 V2000
   17.3299   11.0752   -0.0145 C   0  0  0  0  0  0  0  0  0  0  0  0
   18.0645   11.1650    1.3729 C   0  0  0  0  0  0  0  0  0  0  0  0
   19.5820   11.1823    1.1463 C   0  0  0  0  0  0  0  0  0  0  0  0
   17.6482   12.4747    2.0720 C   0  0  0  0  0  0  0  0  0  0  0  0
   17.5774    9.9090    2.1872 C   0  0  0  0  0  0  0  0  0  0  0  0
   18.2723    9.3516    3.4916 C   0  0  0  0  0  0  0  0  0  0  0  0
   18.7555   10.6040    4.2583 C   0  0  0  0  0  0  0  0  0  0  0  0
   17.2265    8.6526    4.3859 C   0  0  0  0  0  0  0  0  0  0  0  0
   19.4573    8.4090    3.1276 C   0  0  0  0  0  0  0  0  0  0  0  0
   20.1647    7.4548    4.1447 C   0  0  0  0  0  0  0  0  0  0  0  0
   20.4117    8.0868    5.5182 C   0  0  0  0  0  0  0  0  0  0  0  0
   21.4857    6.8901    3.5926 C   0  0  0  0  0  0  0  0  0  0  0  0
   19.2169    6.2455    4.3564 C   0  0  0  0  0  0  0  0  0  0  0  0
   16.7389    9.7121   -0.4073 C   0  0  0  0  0  0  0  0  0  0  0  0
   13.1091    9.7188   -4.4007 C   0  0  0  0  0  0  0  0  0  0  0  0
   14.4991    9.6550   -4.5492 C   0  0  0  0  0  0  0  0  0  0  0  0
   15.3511    9.6580   -3.4313 C   0  0  0  0  0  0  0  0  0  0  0  0
   14.7875    9.7283   -2.1448 C   0  0  0  0  0  0  0  0  0  0  0  0
   15.2933    9.7538   -0.8059 C   0  0  0  0  0  0  0  0  0  0  0  0
   14.1738    9.8415    0.0017 C   0  0  0  0  0  0  0  0  0  0  0  0
   13.0336    9.8629   -0.7334 O   0  0  0  0  0  0  0  0  0  0  0  0
   13.4037    9.7941   -2.0394 C   0  0  0  0  0  0  0  0  0  0  0  0
   12.5344    9.7897   -3.1262 C   0  0  0  0  0  0  0  0  0  0  0  0
   10.8333    9.5134   -5.0724 C   0  0  0  0  0  0  0  0  0  0  0  0
   12.1970    9.7170   -5.4232 O   0  0  0  0  0  0  0  0  0  0  0  0
 24 25  1  0
 25 15  1  0
 15 16  2  0
 16 17  1  0
 17 18  2  0
 18 19  1  0
 19 14  1  0
 14  1  1  0
  1  2  1  0
  2  3  1  0
  2  4  1  0
  2  5  1  0
  5  6  1  0
  6  7  1  0
  6  8  1  0
  6  9  1  0
  9 10  1  0
 10 11  1  0
 10 12  1  0
 10 13  1  0
 19 20  2  0
 20 21  1  0
 21 22  1  0
 22 23  2  0
 23 15  1  0
 22 18  1  0
M  END
> <minimizedAffinity>
-6.12891

> <CNNscore>
0.5241889358

> <CNNaffinity>
5.2303452492

> <CNN_VS>
2.7416892052

> <CNNaffinity_variance>
0.7481325269

$$$$



 25 26  0  0  0  0  0  0  0  0999 V2000
   16.6097   10.1672    1.7707 C   0  0  0  0  0  0  0  0  0  0  0  0
   17.4738   11.1108    2.6849 C   0  0  0  0  0  0  0  0  0  0  0  0
   18.8810   10.5197    2.8419 C   0  0  0  0  0  0  0  0  0  0  0  0
   17.5840   12.4925    2.0096 C   0  0  0  0  0  0  0  0  0  0  0  0
   16.6904   11.2072    4.0468 C   0  0  0  0  0  0  0  0  0  0  0  0
   16.2181    9.9702    4.9081 C   0  0  0  0  0  0  0  0  0  0  0  0
   15.4466    9.0629    3.9224 C   0  0  0  0  0  0  0  0  0  0  0  0
   17.4446    9.1680    5.3918 C   0  0  0  0  0  0  0  0  0  0  0  0
   15.3150   10.4314    6.0901 C   0  0  0  0  0  0  0  0  0  0  0  0
   14.4280    9.4683    6.9451 C   0  0  0  0  0  0  0  0  0  0  0  0
   15.2267    8.4188    7.7245 C   0  0  0  0  0  0  0  0  0  0  0  0
   13.3456    8.7704    6.1024 C   0  0  0  0  0  0  0  0  0  0  0  0
   13.6854   10.3488    7.9838 C   0  0  0  0  0  0  0  0  0  0  0  0
   16.5115   10.5326    0.2813 C   0  0  0  0  0  0  0  0  0  0  0  0
   13.5029    9.7446   -4.1289 C   0  0  0  0  0  0  0  0  0  0  0  0
   14.8998    9.8139   -4.0847 C   0  0  0  0  0  0  0  0  0  0  0  0
   15.5799   10.0218   -2.8722 C   0  0  0  0  0  0  0  0  0  0  0  0
   14.8346   10.1634   -1.6882 C   0  0  0  0  0  0  0  0  0  0  0  0
   15.1399   10.3795   -0.3064 C   0  0  0  0  0  0  0  0  0  0  0  0
   13.9133   10.4302    0.3310 C   0  0  0  0  0  0  0  0  0  0  0  0
   12.8924   10.2549   -0.5453 O   0  0  0  0  0  0  0  0  0  0  0  0
   13.4497   10.0924   -1.7743 C   0  0  0  0  0  0  0  0  0  0  0  0
   12.7483    9.8844   -2.9582 C   0  0  0  0  0  0  0  0  0  0  0  0
   11.3361    9.5929   -5.1058 C   0  0  0  0  0  0  0  0  0  0  0  0
   12.7500    9.5412   -5.2554 O   0  0  0  0  0  0  0  0  0  0  0  0
 24 25  1  0
 25 15  1  0
 15 16  2  0
 16 17  1  0
 17 18  2  0
 18 19  1  0
 19 14  1  0
 14  1  1  0
  1  2  1  0
  2  3  1  0
  2  4  1  0
  2  5  1  0
  5  6  1  0
  6  7  1  0
  6  8  1  0
  6  9  1  0
  9 10  1  0
 10 11  1  0
 10 12  1  0
 10 13  1  0
 19 20  2  0
 20 21  1  0
 21 22  1  0
 22 23  2  0
 23 15  1  0
 22 18  1  0
M  END
> <minimizedAffinity>
-7.78910

> <CNNscore>
0.3937703371

> <CNNaffinity>
5.2006077766

> <CNN_VS>
2.0478451252

> <CNNaffinity_variance>
1.1036995649

$$$$



 25 26  0  0  0  0  0  0  0  0999 V2000
   15.4604    9.1402    3.4782 C   0  0  0  0  0  0  0  0  0  0  0  0
   15.7980    9.9368    4.7913 C   0  0  0  0  0  0  0  0  0  0  0  0
   16.9548    9.2449    5.5243 C   0  0  0  0  0  0  0  0  0  0  0  0
   16.2320   11.3658    4.4081 C   0  0  0  0  0  0  0  0  0  0  0  0
   14.4631    9.9550    5.6253 C   0  0  0  0  0  0  0  0  0  0  0  0
   14.3357    9.5188    7.1381 C   0  0  0  0  0  0  0  0  0  0  0  0
   13.3701    8.3116    7.1302 C   0  0  0  0  0  0  0  0  0  0  0  0
   15.6964    9.0030    7.6523 C   0  0  0  0  0  0  0  0  0  0  0  0
   13.7850   10.6883    8.0067 C   0  0  0  0  0  0  0  0  0  0  0  0
   13.5938   10.6161    9.5571 C   0  0  0  0  0  0  0  0  0  0  0  0
   13.0414    9.2754   10.0512 C   0  0  0  0  0  0  0  0  0  0  0  0
   12.7164   11.7625   10.0903 C   0  0  0  0  0  0  0  0  0  0  0  0
   14.9983   10.7983   10.1895 C   0  0  0  0  0  0  0  0  0  0  0  0
   15.7742    9.8290    2.1408 C   0  0  0  0  0  0  0  0  0  0  0  0
   14.4118    9.8350   -3.0810 C   0  0  0  0  0  0  0  0  0  0  0  0
   15.7038    9.9858   -2.5652 C   0  0  0  0  0  0  0  0  0  0  0  0
   15.9411    9.9659   -1.1799 C   0  0  0  0  0  0  0  0  0  0  0  0
   14.8543    9.7926   -0.3046 C   0  0  0  0  0  0  0  0  0  0  0  0
   14.6852    9.7182    1.1150 C   0  0  0  0  0  0  0  0  0  0  0  0
   13.3266    9.5451    1.3086 C   0  0  0  0  0  0  0  0  0  0  0  0
   12.6601    9.4998    0.1276 O   0  0  0  0  0  0  0  0  0  0  0  0
   13.5867    9.6501   -0.8555 C   0  0  0  0  0  0  0  0  0  0  0  0
   13.3205    9.6623   -2.2214 C   0  0  0  0  0  0  0  0  0  0  0  0
   15.1487    9.9139   -5.3445 C   0  0  0  0  0  0  0  0  0  0  0  0
   14.0787    9.8355   -4.4101 O   0  0  0  0  0  0  0  0  0  0  0  0
 24 25  1  0
 25 15  1  0
 15 16  2  0
 16 17  1  0
 17 18  2  0
 18 19  1  0
 19 14  1  0
 14  1  1  0
  1  2  1  0
  2  3  1  0
  2  4  1  0
  2  5  1  0
  5  6  1  0
  6  7  1  0
  6  8  1  0
  6  9  1  0
  9 10  1  0
 10 11  1  0
 10 12  1  0
 10 13  1  0
 19 20  2  0
 20 21  1  0
 21 22  1  0
 22 23  2  0
 23 15  1  0
 22 18  1  0
M  END
> <minimizedAffinity>
-8.21060

> <CNNscore>
0.3461591899

> <CNNaffinity>
5.6928691864

> <CNN_VS>
1.9706389904

> <CNNaffinity_variance>
0.6537523866

$$$$



 25 26  0  0  0  0  0  0  0  0999 V2000
   14.4821    8.7411    2.6714 C   0  0  0  0  0  0  0  0  0  0  0  0
   13.6402    9.4903    3.7681 C   0  0  0  0  0  0  0  0  0  0  0  0
   13.8529   11.0034    3.6289 C   0  0  0  0  0  0  0  0  0  0  0  0
   12.1469    9.1730    3.5512 C   0  0  0  0  0  0  0  0  0  0  0  0
   14.1456    8.9211    5.1459 C   0  0  0  0  0  0  0  0  0  0  0  0
   15.1351    9.6678    6.1248 C   0  0  0  0  0  0  0  0  0  0  0  0
   15.9544    8.5462    6.8036 C   0  0  0  0  0  0  0  0  0  0  0  0
   16.1305   10.5236    5.3132 C   0  0  0  0  0  0  0  0  0  0  0  0
   14.3475   10.5146    7.1679 C   0  0  0  0  0  0  0  0  0  0  0  0
   13.6423    9.9188    8.4301 C   0  0  0  0  0  0  0  0  0  0  0  0
   12.7924    8.6784    8.1371 C   0  0  0  0  0  0  0  0  0  0  0  0
   12.7889   10.9648    9.1693 C   0  0  0  0  0  0  0  0  0  0  0  0
   14.7661    9.4883    9.4084 C   0  0  0  0  0  0  0  0  0  0  0  0
   15.0660    9.5929    1.5334 C   0  0  0  0  0  0  0  0  0  0  0  0
   14.7239    9.9013   -3.8435 C   0  0  0  0  0  0  0  0  0  0  0  0
   15.9025    9.7990   -3.0963 C   0  0  0  0  0  0  0  0  0  0  0  0
   15.8701    9.7229   -1.6931 C   0  0  0  0  0  0  0  0  0  0  0  0
   14.6265    9.7525   -1.0373 C   0  0  0  0  0  0  0  0  0  0  0  0
   14.1856    9.7000    0.3235 C   0  0  0  0  0  0  0  0  0  0  0  0
   12.8066    9.7871    0.2603 C   0  0  0  0  0  0  0  0  0  0  0  0
   12.3747    9.8794   -1.0227 O   0  0  0  0  0  0  0  0  0  0  0  0
   13.4795    9.8586   -1.8143 C   0  0  0  0  0  0  0  0  0  0  0  0
   13.4790    9.9324   -3.2040 C   0  0  0  0  0  0  0  0  0  0  0  0
   15.7259    9.4089   -5.9473 C   0  0  0  0  0  0  0  0  0  0  0  0
   14.6497    9.9762   -5.2096 O   0  0  0  0  0  0  0  0  0  0  0  0
 24 25  1  0
 25 15  1  0
 15 16  2  0
 16 17  1  0
 17 18  2  0
 18 19  1  0
 19 14  1  0
 14  1  1  0
  1  2  1  0
  2  3  1  0
  2  4  1  0
  2  5  1  0
  5  6  1  0
  6  7  1  0
  6  8  1  0
  6  9  1  0
  9 10  1  0
 10 11  1  0
 10 12  1  0
 10 13  1  0
 19 20  2  0
 20 21  1  0
 21 22  1  0
 22 23  2  0
 23 15  1  0
 22 18  1  0
M  END
> <minimizedAffinity>
-6.57586

> <CNNscore>
0.3250156343

> <CNNaffinity>
5.6867766380

> <CNN_VS>
1.8482912779

> <CNNaffinity_variance>
0.5490052104

$$$$



 25 26  0  0  0  0  0  0  0  0999 V2000
   17.3355   10.0076    0.4764 C   0  0  0  0  0  0  0  0  0  0  0  0
   18.1674   10.9370    1.4339 C   0  0  0  0  0  0  0  0  0  0  0  0
   19.5588   11.1744    0.8321 C   0  0  0  0  0  0  0  0  0  0  0  0
   17.4419   12.2910    1.5663 C   0  0  0  0  0  0  0  0  0  0  0  0
   18.2138   10.1822    2.8145 C   0  0  0  0  0  0  0  0  0  0  0  0
   16.9922   10.0316    3.8045 C   0  0  0  0  0  0  0  0  0  0  0  0
   17.5348    9.2038    4.9921 C   0  0  0  0  0  0  0  0  0  0  0  0
   16.5961   11.4144    4.3640 C   0  0  0  0  0  0  0  0  0  0  0  0
   15.7980    9.3173    3.1053 C   0  0  0  0  0  0  0  0  0  0  0  0
   14.2975    9.5398    3.4850 C   0  0  0  0  0  0  0  0  0  0  0  0
   13.3284    8.6059    2.7533 C   0  0  0  0  0  0  0  0  0  0  0  0
   13.8557   11.0003    3.2841 C   0  0  0  0  0  0  0  0  0  0  0  0
   14.1711    9.2404    5.0016 C   0  0  0  0  0  0  0  0  0  0  0  0
   16.8474   10.6210   -0.8453 C   0  0  0  0  0  0  0  0  0  0  0  0
   12.9767    9.6510   -4.4785 C   0  0  0  0  0  0  0  0  0  0  0  0
   14.3480    9.7478   -4.7398 C   0  0  0  0  0  0  0  0  0  0  0  0
   15.2688   10.0031   -3.7089 C   0  0  0  0  0  0  0  0  0  0  0  0
   14.7939   10.1642   -2.3951 C   0  0  0  0  0  0  0  0  0  0  0  0
   15.3853   10.4254   -1.1179 C   0  0  0  0  0  0  0  0  0  0  0  0
   14.3247   10.4711   -0.2311 C   0  0  0  0  0  0  0  0  0  0  0  0
   13.1431   10.2517   -0.8609 O   0  0  0  0  0  0  0  0  0  0  0  0
   13.4253   10.0647   -2.1773 C   0  0  0  0  0  0  0  0  0  0  0  0
   12.4899    9.8099   -3.1757 C   0  0  0  0  0  0  0  0  0  0  0  0
   10.6526    9.5572   -4.9906 C   0  0  0  0  0  0  0  0  0  0  0  0
   12.0032    9.4014   -5.4098 O   0  0  0  0  0  0  0  0  0  0  0  0
 24 25  1  0
 25 15  1  0
 15 16  2  0
 16 17  1  0
 17 18  2  0
 18 19  1  0
 19 14  1  0
 14  1  1  0
  1  2  1  0
  2  3  1  0
  2  4  1  0
  2  5  1  0
  5  6  1  0
  6  7  1  0
  6  8  1  0
  6  9  1  0
  9 10  1  0
 10 11  1  0
 10 12  1  0
 10 13  1  0
 19 20  2  0
 20 21  1  0
 21 22  1  0
 22 23  2  0
 23 15  1  0
 22 18  1  0
M  END
> <minimizedAffinity>
-7.51361

> <CNNscore>
0.2769564092

> <CNNaffinity>
5.1712112427

> <CNN_VS>
1.4322000742

> <CNNaffinity_variance>
1.0510245562

$$$$



 25 26  0  0  0  0  0  0  0  0999 V2000
   15.1743    9.5035    2.1666 C   0  0  0  0  0  0  0  0  0  0  0  0
   13.7765    9.4727    2.8863 C   0  0  0  0  0  0  0  0  0  0  0  0
   13.0652   10.8160    2.6764 C   0  0  0  0  0  0  0  0  0  0  0  0
   12.9213    8.3511    2.2636 C   0  0  0  0  0  0  0  0  0  0  0  0
   14.0906    9.1716    4.3991 C   0  0  0  0  0  0  0  0  0  0  0  0
   15.0485   10.0332    5.3129 C   0  0  0  0  0  0  0  0  0  0  0  0
   16.3409    9.1954    5.4459 C   0  0  0  0  0  0  0  0  0  0  0  0
   15.4324   11.3397    4.5865 C   0  0  0  0  0  0  0  0  0  0  0  0
   14.3946   10.3034    6.7002 C   0  0  0  0  0  0  0  0  0  0  0  0
   14.2479    9.2281    7.8262 C   0  0  0  0  0  0  0  0  0  0  0  0
   15.3006    8.1170    7.7624 C   0  0  0  0  0  0  0  0  0  0  0  0
   12.8415    8.6038    7.8564 C   0  0  0  0  0  0  0  0  0  0  0  0
   14.4370    9.9667    9.1768 C   0  0  0  0  0  0  0  0  0  0  0  0
   15.5192   10.7651    1.3598 C   0  0  0  0  0  0  0  0  0  0  0  0
   13.1667    9.8172   -3.4037 C   0  0  0  0  0  0  0  0  0  0  0  0
   12.5117    9.9807   -2.1780 C   0  0  0  0  0  0  0  0  0  0  0  0
   13.2311   10.2267   -0.9957 C   0  0  0  0  0  0  0  0  0  0  0  0
   14.6338   10.3065   -1.0554 C   0  0  0  0  0  0  0  0  0  0  0  0
   15.6870   10.5337   -0.1128 C   0  0  0  0  0  0  0  0  0  0  0  0
   16.8538   10.4727   -0.8531 C   0  0  0  0  0  0  0  0  0  0  0  0
   16.5965   10.2364   -2.1642 O   0  0  0  0  0  0  0  0  0  0  0  0
   15.2470   10.1348   -2.2903 C   0  0  0  0  0  0  0  0  0  0  0  0
   14.5626    9.8936   -3.4777 C   0  0  0  0  0  0  0  0  0  0  0  0
   11.1578    9.3268   -4.5852 C   0  0  0  0  0  0  0  0  0  0  0  0
   12.5577    9.5796   -4.6078 O   0  0  0  0  0  0  0  0  0  0  0  0
 24 25  1  0
 25 15  1  0
 15 16  2  0
 16 17  1  0
 17 18  2  0
 18 19  1  0
 19 14  1  0
 14  1  1  0
  1  2  1  0
  2  3  1  0
  2  4  1  0
  2  5  1  0
  5  6  1  0
  6  7  1  0
  6  8  1  0
  6  9  1  0
  9 10  1  0
 10 11  1  0
 10 12  1  0
 10 13  1  0
 19 20  2  0
 20 21  1  0
 21 22  1  0
 22 23  2  0
 23 15  1  0
 22 18  1  0
M  END
> <minimizedAffinity>
-8.37775

> <CNNscore>
0.2751795352

> <CNNaffinity>
5.3313202858

> <CNN_VS>
1.4670702219

> <CNNaffinity_variance>
0.8901316524

$$$$



 25 26  0  0  0  0  0  0  0  0999 V2000
   16.6243    9.2088    3.2962 C   0  0  0  0  0  0  0  0  0  0  0  0
   17.8484    9.3077    4.2783 C   0  0  0  0  0  0  0  0  0  0  0  0
   18.6116   10.6119    4.0123 C   0  0  0  0  0  0  0  0  0  0  0  0
   17.3228    9.3225    5.7278 C   0  0  0  0  0  0  0  0  0  0  0  0
   18.7121    8.0210    4.0024 C   0  0  0  0  0  0  0  0  0  0  0  0
   20.0296    7.6316    4.7820 C   0  0  0  0  0  0  0  0  0  0  0  0
   19.5778    6.6154    5.8558 C   0  0  0  0  0  0  0  0  0  0  0  0
   20.9979    6.8878    3.8381 C   0  0  0  0  0  0  0  0  0  0  0  0
   20.6857    8.8902    5.4231 C   0  0  0  0  0  0  0  0  0  0  0  0
   22.0246    8.8674    6.2306 C   0  0  0  0  0  0  0  0  0  0  0  0
   23.0234    7.8125    5.7443 C   0  0  0  0  0  0  0  0  0  0  0  0
   21.7910    8.6971    7.7423 C   0  0  0  0  0  0  0  0  0  0  0  0
   22.6877   10.2559    6.0357 C   0  0  0  0  0  0  0  0  0  0  0  0
   16.4929   10.3057    2.2279 C   0  0  0  0  0  0  0  0  0  0  0  0
   14.4677    9.9184   -2.7592 C   0  0  0  0  0  0  0  0  0  0  0  0
   15.8230   10.0136   -2.4242 C   0  0  0  0  0  0  0  0  0  0  0  0
   16.2362   10.1082   -1.0840 C   0  0  0  0  0  0  0  0  0  0  0  0
   15.2630   10.1081   -0.0689 C   0  0  0  0  0  0  0  0  0  0  0  0
   15.2751   10.1847    1.3605 C   0  0  0  0  0  0  0  0  0  0  0  0
   13.9445   10.1409    1.7360 C   0  0  0  0  0  0  0  0  0  0  0  0
   13.1288   10.0359    0.6568 O   0  0  0  0  0  0  0  0  0  0  0  0
   13.9279   10.0157   -0.4425 C   0  0  0  0  0  0  0  0  0  0  0  0
   13.4881    9.9176   -1.7592 C   0  0  0  0  0  0  0  0  0  0  0  0
   14.8959    9.5526   -5.0734 C   0  0  0  0  0  0  0  0  0  0  0  0
   13.9656    9.8176   -4.0301 O   0  0  0  0  0  0  0  0  0  0  0  0
 24 25  1  0
 25 15  1  0
 15 16  2  0
 16 17  1  0
 17 18  2  0
 18 19  1  0
 19 14  1  0
 14  1  1  0
  1  2  1  0
  2  3  1  0
  2  4  1  0
  2  5  1  0
  5  6  1  0
  6  7  1  0
  6  8  1  0
  6  9  1  0
  9 10  1  0
 10 11  1  0
 10 12  1  0
 10 13  1  0
 19 20  2  0
 20 21  1  0
 21 22  1  0
 22 23  2  0
 23 15  1  0
 22 18  1  0
M  END
> <minimizedAffinity>
-6.31168

> <CNNscore>
0.2711327374

> <CNNaffinity>
4.3803620338

> <CNN_VS>
1.1876595020

> <CNNaffinity_variance>
1.4901269674

$$$$



 25 26  0  0  0  0  0  0  0  0999 V2000
   13.7521    9.3625    2.6684 C   0  0  0  0  0  0  0  0  0  0  0  0
   14.6359    9.6388    3.9393 C   0  0  0  0  0  0  0  0  0  0  0  0
   14.7955   11.1529    4.1301 C   0  0  0  0  0  0  0  0  0  0  0  0
   13.9264    9.0509    5.1755 C   0  0  0  0  0  0  0  0  0  0  0  0
   16.0016    8.9046    3.6678 C   0  0  0  0  0  0  0  0  0  0  0  0
   17.3702    9.2485    4.3774 C   0  0  0  0  0  0  0  0  0  0  0  0
   17.6461   10.7286    4.0265 C   0  0  0  0  0  0  0  0  0  0  0  0
   17.2007    9.1737    5.9096 C   0  0  0  0  0  0  0  0  0  0  0  0
   18.5081    8.3161    3.8666 C   0  0  0  0  0  0  0  0  0  0  0  0
   19.6911    7.8072    4.7536 C   0  0  0  0  0  0  0  0  0  0  0  0
   19.2549    6.8928    5.9027 C   0  0  0  0  0  0  0  0  0  0  0  0
   20.5419    8.9628    5.3098 C   0  0  0  0  0  0  0  0  0  0  0  0
   20.6181    6.9762    3.8285 C   0  0  0  0  0  0  0  0  0  0  0  0
   13.6013   10.5097    1.6571 C   0  0  0  0  0  0  0  0  0  0  0  0
   13.9036    9.8289   -3.6878 C   0  0  0  0  0  0  0  0  0  0  0  0
   12.7295    9.8892   -2.9289 C   0  0  0  0  0  0  0  0  0  0  0  0
   12.7723   10.0726   -1.5359 C   0  0  0  0  0  0  0  0  0  0  0  0
   14.0218   10.1949   -0.9025 C   0  0  0  0  0  0  0  0  0  0  0  0
   14.4731   10.3853    0.4426 C   0  0  0  0  0  0  0  0  0  0  0  0
   15.8537   10.4078    0.3609 C   0  0  0  0  0  0  0  0  0  0  0  0
   16.2763   10.2557   -0.9195 O   0  0  0  0  0  0  0  0  0  0  0  0
   15.1642   10.1260   -1.6902 C   0  0  0  0  0  0  0  0  0  0  0  0
   15.1543    9.9486   -3.0705 C   0  0  0  0  0  0  0  0  0  0  0  0
   15.2519    9.7539   -5.6496 C   0  0  0  0  0  0  0  0  0  0  0  0
   13.9673    9.6583   -5.0458 O   0  0  0  0  0  0  0  0  0  0  0  0
 24 25  1  0
 25 15  1  0
 15 16  2  0
 16 17  1  0
 17 18  2  0
 18 19  1  0
 19 14  1  0
 14  1  1  0
  1  2  1  0
  2  3  1  0
  2  4  1  0
  2  5  1  0
  5  6  1  0
  6  7  1  0
  6  8  1  0
  6  9  1  0
  9 10  1  0
 10 11  1  0
 10 12  1  0
 10 13  1  0
 19 20  2  0
 20 21  1  0
 21 22  1  0
 22 23  2  0
 23 15  1  0
 22 18  1  0
M  END
> <minimizedAffinity>
-6.98315

> <CNNscore>
0.2202546149

> <CNNaffinity>
4.7073802948

> <CNN_VS>
1.0368221998

> <CNNaffinity_variance>
1.1075782776

$$$$
