


 30 32  0  0  0  0  0  0  0  0999 V2000
   19.3367   18.5882   33.5300 C   0  0  0  0  0  0  0  0  0  0  0  0
   18.9639   17.6903   32.5281 C   0  0  0  0  0  0  0  0  0  0  0  0
   19.8283   16.6560   32.1631 C   0  0  0  0  0  0  0  0  0  0  0  0
   21.0701   16.5008   32.8001 C   0  0  0  0  0  0  0  0  0  0  0  0
   21.9475   15.4634   32.4427 C   0  0  0  0  0  0  0  0  0  0  0  0
   23.1800   15.3179   33.0937 C   0  0  0  0  0  0  0  0  0  0  0  0
   23.5544   16.2271   34.0864 C   0  0  0  0  0  0  0  0  0  0  0  0
   22.6902   17.2614   34.4504 C   0  0  0  0  0  0  0  0  0  0  0  0
   21.4457   17.4103   33.8190 C   0  0  0  0  0  0  0  0  0  0  0  0
   20.5697   18.4481   34.1755 C   0  0  0  0  0  0  0  0  0  0  0  0
   18.8188   20.8523   34.2851 N   0  0  0  0  0  0  0  0  0  0  0  0
   18.4072   19.6827   33.9137 C   0  0  0  0  0  0  0  0  0  0  0  0
   17.0606   19.4772   33.8917 N   0  0  0  0  0  0  0  0  0  0  0  0
   18.1672   21.5483   34.5308 H   0  0  0  0  0  0  0  0  0  0  0  0
   16.4475   20.2041   34.1465 H   0  0  0  0  0  0  0  0  0  0  0  0
   16.7007   18.6017   33.6212 H   0  0  0  0  0  0  0  0  0  0  0  0
   24.1292   14.2275   32.7342 C   0  0  0  0  0  0  0  0  0  0  0  0
   24.3511   13.3575   33.5669 O   0  0  0  0  0  0  0  0  0  0  0  0
   24.6373   14.3027   31.4499 N   0  0  0  0  0  0  0  0  0  0  0  0
   24.3047   15.0418   30.8910 H   0  0  0  0  0  0  0  0  0  0  0  0
   25.5786   13.4393   30.8510 C   0  0  0  0  0  0  0  0  0  0  0  0
   26.0833   13.8120   29.5990 C   0  0  0  0  0  0  0  0  0  0  0  0
   27.0244   13.0139   28.9401 C   0  0  0  0  0  0  0  0  0  0  0  0
   27.4752   11.8230   29.5200 C   0  0  0  0  0  0  0  0  0  0  0  0
   26.9790   11.4586   30.7773 C   0  0  0  0  0  0  0  0  0  0  0  0
   26.0377   12.2591   31.4355 C   0  0  0  0  0  0  0  0  0  0  0  0
   28.5074   10.9721   28.8271 C   0  0  0  0  0  0  0  0  0  0  0  0
   28.0687    9.5853   28.7281 N   0  0  0  0  0  0  0  0  0  0  0  0
   27.9268    9.2060   29.6643 H   0  0  0  0  0  0  0  0  0  0  0  0
   28.7796    9.0376   28.2435 H   0  0  0  0  0  0  0  0  0  0  0  0
 11 12  2  0
 12 13  1  0
 12  1  1  0
  1  2  2  0
  2  3  1  0
  3  4  2  0
  4  5  1  0
  5  6  2  0
  6 17  1  0
 17 18  2  0
 17 19  1  0
 19 21  1  0
 21 22  2  0
 22 23  1  0
 23 24  2  0
 24 27  1  0
 27 28  1  0
 24 25  1  0
 25 26  2  0
  6  7  1  0
  7  8  2  0
  8  9  1  0
  9 10  2  0
 10  1  1  0
  9  4  1  0
 26 21  1  0
 11 14  1  0
 13 15  1  0
 13 16  1  0
 19 20  1  0
 28 29  1  0
 28 30  1  0
M  END
> <minimizedAffinity>
-8.45966

> <CNNscore>
0.9511575103

> <CNNaffinity>
6.6108946800

> <CNN_VS>
6.2880020142

> <CNNaffinity_variance>
0.0925561115

$$$$



 30 32  0  0  0  0  0  0  0  0999 V2000
   24.9394    9.0619   32.6424 C   0  0  0  0  0  0  0  0  0  0  0  0
   23.8971    9.1080   33.5702 C   0  0  0  0  0  0  0  0  0  0  0  0
   23.2898   10.3279   33.8753 C   0  0  0  0  0  0  0  0  0  0  0  0
   23.7097   11.5138   33.2514 C   0  0  0  0  0  0  0  0  0  0  0  0
   23.1056   12.7468   33.5490 C   0  0  0  0  0  0  0  0  0  0  0  0
   23.5313   13.9200   32.9117 C   0  0  0  0  0  0  0  0  0  0  0  0
   24.5838   13.8709   31.9940 C   0  0  0  0  0  0  0  0  0  0  0  0
   25.1911   12.6512   31.6898 C   0  0  0  0  0  0  0  0  0  0  0  0
   24.7648   11.4653   32.3076 C   0  0  0  0  0  0  0  0  0  0  0  0
   25.3699   10.2334   32.0109 C   0  0  0  0  0  0  0  0  0  0  0  0
   25.9596    7.4412   31.1269 N   0  0  0  0  0  0  0  0  0  0  0  0
   25.5757    7.7576   32.3218 C   0  0  0  0  0  0  0  0  0  0  0  0
   25.7707    6.8312   33.3016 N   0  0  0  0  0  0  0  0  0  0  0  0
   26.3770    6.5654   30.9597 H   0  0  0  0  0  0  0  0  0  0  0  0
   26.1924    5.9681   33.0860 H   0  0  0  0  0  0  0  0  0  0  0  0
   25.4898    7.0249   34.2251 H   0  0  0  0  0  0  0  0  0  0  0  0
   22.9087   15.2403   33.2088 C   0  0  0  0  0  0  0  0  0  0  0  0
   23.6252   16.1306   33.6489 O   0  0  0  0  0  0  0  0  0  0  0  0
   21.5610   15.3251   32.9093 N   0  0  0  0  0  0  0  0  0  0  0  0
   21.1523   14.5262   32.5043 H   0  0  0  0  0  0  0  0  0  0  0  0
   20.7062   16.4278   33.1189 C   0  0  0  0  0  0  0  0  0  0  0  0
   19.6509   16.6006   32.2148 C   0  0  0  0  0  0  0  0  0  0  0  0
   18.7550   17.6657   32.3553 C   0  0  0  0  0  0  0  0  0  0  0  0
   18.9015   18.5827   33.4021 C   0  0  0  0  0  0  0  0  0  0  0  0
   19.9496   18.4009   34.3121 C   0  0  0  0  0  0  0  0  0  0  0  0
   20.8448   17.3338   34.1701 C   0  0  0  0  0  0  0  0  0  0  0  0
   17.9252   19.7171   33.5737 C   0  0  0  0  0  0  0  0  0  0  0  0
   18.6107   20.9560   33.9209 N   0  0  0  0  0  0  0  0  0  0  0  0
   19.1076   20.8339   34.8032 H   0  0  0  0  0  0  0  0  0  0  0  0
   17.9274   21.7073   34.0166 H   0  0  0  0  0  0  0  0  0  0  0  0
 11 12  2  0
 12 13  1  0
 12  1  1  0
  1  2  2  0
  2  3  1  0
  3  4  2  0
  4  5  1  0
  5  6  2  0
  6 17  1  0
 17 18  2  0
 17 19  1  0
 19 21  1  0
 21 22  2  0
 22 23  1  0
 23 24  2  0
 24 27  1  0
 27 28  1  0
 24 25  1  0
 25 26  2  0
  6  7  1  0
  7  8  2  0
  8  9  1  0
  9 10  2  0
 10  1  1  0
  9  4  1  0
 26 21  1  0
 11 14  1  0
 13 15  1  0
 13 16  1  0
 19 20  1  0
 28 29  1  0
 28 30  1  0
M  END
> <minimizedAffinity>
-8.31679

> <CNNscore>
0.8913316727

> <CNNaffinity>
6.2331066132

> <CNN_VS>
5.5557651520

> <CNNaffinity_variance>
0.1717397720

$$$$



 30 32  0  0  0  0  0  0  0  0999 V2000
   19.2420   18.6182   33.5730 C   0  0  0  0  0  0  0  0  0  0  0  0
   18.8626   17.5921   32.7058 C   0  0  0  0  0  0  0  0  0  0  0  0
   19.7358   16.5307   32.4586 C   0  0  0  0  0  0  0  0  0  0  0  0
   20.9935   16.4770   33.0809 C   0  0  0  0  0  0  0  0  0  0  0  0
   21.8800   15.4138   32.8412 C   0  0  0  0  0  0  0  0  0  0  0  0
   23.1285   15.3714   33.4763 C   0  0  0  0  0  0  0  0  0  0  0  0
   23.5092   16.4075   34.3329 C   0  0  0  0  0  0  0  0  0  0  0  0
   22.6361   17.4688   34.5792 C   0  0  0  0  0  0  0  0  0  0  0  0
   21.3759   17.5169   33.9634 C   0  0  0  0  0  0  0  0  0  0  0  0
   20.4908   18.5805   34.2021 C   0  0  0  0  0  0  0  0  0  0  0  0
   17.0207   19.5790   33.9008 N   0  0  0  0  0  0  0  0  0  0  0  0
   18.3031   19.7408   33.8326 C   0  0  0  0  0  0  0  0  0  0  0  0
   18.7785   21.0061   34.0028 N   0  0  0  0  0  0  0  0  0  0  0  0
   16.4357   20.3514   34.0749 H   0  0  0  0  0  0  0  0  0  0  0  0
   18.1540   21.7476   34.1746 H   0  0  0  0  0  0  0  0  0  0  0  0
   19.7465   21.1790   33.9540 H   0  0  0  0  0  0  0  0  0  0  0  0
   24.0876   14.2564   33.2398 C   0  0  0  0  0  0  0  0  0  0  0  0
   25.2809   14.4767   33.4042 O   0  0  0  0  0  0  0  0  0  0  0  0
   23.5016   13.0537   32.8884 N   0  0  0  0  0  0  0  0  0  0  0  0
   22.5176   13.0394   32.8585 H   0  0  0  0  0  0  0  0  0  0  0  0
   24.1555   11.8453   32.5681 C   0  0  0  0  0  0  0  0  0  0  0  0
   23.5732   10.6596   33.0330 C   0  0  0  0  0  0  0  0  0  0  0  0
   24.1557    9.4188   32.7542 C   0  0  0  0  0  0  0  0  0  0  0  0
   25.3368    9.3410   32.0080 C   0  0  0  0  0  0  0  0  0  0  0  0
   25.9104   10.5266   31.5333 C   0  0  0  0  0  0  0  0  0  0  0  0
   25.3254   11.7675   31.8129 C   0  0  0  0  0  0  0  0  0  0  0  0
   25.9552    8.0064   31.6828 C   0  0  0  0  0  0  0  0  0  0  0  0
   26.3835    7.9477   30.2905 N   0  0  0  0  0  0  0  0  0  0  0  0
   25.5760    8.0760   29.6807 H   0  0  0  0  0  0  0  0  0  0  0  0
   26.8097    7.0401   30.1038 H   0  0  0  0  0  0  0  0  0  0  0  0
 11 12  2  0
 12 13  1  0
 12  1  1  0
  1  2  2  0
  2  3  1  0
  3  4  2  0
  4  5  1  0
  5  6  2  0
  6 17  1  0
 17 18  2  0
 17 19  1  0
 19 21  1  0
 21 22  2  0
 22 23  1  0
 23 24  2  0
 24 27  1  0
 27 28  1  0
 24 25  1  0
 25 26  2  0
  6  7  1  0
  7  8  2  0
  8  9  1  0
  9 10  2  0
 10  1  1  0
  9  4  1  0
 26 21  1  0
 11 14  1  0
 13 15  1  0
 13 16  1  0
 19 20  1  0
 28 29  1  0
 28 30  1  0
M  END
> <minimizedAffinity>
-8.88004

> <CNNscore>
0.8793854713

> <CNNaffinity>
6.2713894844

> <CNN_VS>
5.5149688721

> <CNNaffinity_variance>
0.0801553205

$$$$



 30 32  0  0  0  0  0  0  0  0999 V2000
   19.3840   18.4759   33.3759 C   0  0  0  0  0  0  0  0  0  0  0  0
   18.9777   17.3947   32.5917 C   0  0  0  0  0  0  0  0  0  0  0  0
   19.9331   16.5611   32.0063 C   0  0  0  0  0  0  0  0  0  0  0  0
   21.3040   16.7919   32.2042 C   0  0  0  0  0  0  0  0  0  0  0  0
   22.2744   15.9596   31.6217 C   0  0  0  0  0  0  0  0  0  0  0  0
   23.6385   16.1992   31.8355 C   0  0  0  0  0  0  0  0  0  0  0  0
   24.0404   17.2904   32.6100 C   0  0  0  0  0  0  0  0  0  0  0  0
   23.0849   18.1239   33.1945 C   0  0  0  0  0  0  0  0  0  0  0  0
   21.7150   17.8871   33.0030 C   0  0  0  0  0  0  0  0  0  0  0  0
   20.7455   18.7202   33.5842 C   0  0  0  0  0  0  0  0  0  0  0  0
   17.1039   19.2939   33.6867 N   0  0  0  0  0  0  0  0  0  0  0  0
   18.3589   19.3540   33.9979 C   0  0  0  0  0  0  0  0  0  0  0  0
   18.7226   20.2763   34.9323 N   0  0  0  0  0  0  0  0  0  0  0  0
   16.4589   19.8953   34.1243 H   0  0  0  0  0  0  0  0  0  0  0  0
   18.0413   20.8565   35.3426 H   0  0  0  0  0  0  0  0  0  0  0  0
   19.6669   20.3626   35.1973 H   0  0  0  0  0  0  0  0  0  0  0  0
   24.6880   15.3328   31.2296 C   0  0  0  0  0  0  0  0  0  0  0  0
   24.3924   14.1780   30.9495 O   0  0  0  0  0  0  0  0  0  0  0  0
   25.9009   15.9605   31.0105 N   0  0  0  0  0  0  0  0  0  0  0  0
   25.9469   16.9160   31.2434 H   0  0  0  0  0  0  0  0  0  0  0  0
   27.0797   15.3853   30.4909 C   0  0  0  0  0  0  0  0  0  0  0  0
   27.6828   16.0321   29.4051 C   0  0  0  0  0  0  0  0  0  0  0  0
   28.8571   15.5296   28.8348 C   0  0  0  0  0  0  0  0  0  0  0  0
   29.4484   14.3653   29.3377 C   0  0  0  0  0  0  0  0  0  0  0  0
   28.8509   13.7274   30.4312 C   0  0  0  0  0  0  0  0  0  0  0  0
   27.6760   14.2323   31.0011 C   0  0  0  0  0  0  0  0  0  0  0  0
   30.7267   13.8333   28.7442 C   0  0  0  0  0  0  0  0  0  0  0  0
   30.7675   14.0439   27.3022 N   0  0  0  0  0  0  0  0  0  0  0  0
   29.9894   13.5504   26.8645 H   0  0  0  0  0  0  0  0  0  0  0  0
   31.6481   13.6872   26.9313 H   0  0  0  0  0  0  0  0  0  0  0  0
 11 12  2  0
 12 13  1  0
 12  1  1  0
  1  2  2  0
  2  3  1  0
  3  4  2  0
  4  5  1  0
  5  6  2  0
  6 17  1  0
 17 18  2  0
 17 19  1  0
 19 21  1  0
 21 22  2  0
 22 23  1  0
 23 24  2  0
 24 27  1  0
 27 28  1  0
 24 25  1  0
 25 26  2  0
  6  7  1  0
  7  8  2  0
  8  9  1  0
  9 10  2  0
 10  1  1  0
  9  4  1  0
 26 21  1  0
 11 14  1  0
 13 15  1  0
 13 16  1  0
 19 20  1  0
 28 29  1  0
 28 30  1  0
M  END
> <minimizedAffinity>
-7.23604

> <CNNscore>
0.8768222332

> <CNNaffinity>
6.2994379997

> <CNN_VS>
5.5234870911

> <CNNaffinity_variance>
0.1372509450

$$$$



 30 32  0  0  0  0  0  0  0  0999 V2000
   26.0003    9.3953   31.1078 C   0  0  0  0  0  0  0  0  0  0  0  0
   26.6719   10.5082   30.5984 C   0  0  0  0  0  0  0  0  0  0  0  0
   26.2404   11.7941   30.9307 C   0  0  0  0  0  0  0  0  0  0  0  0
   25.1398   11.9837   31.7818 C   0  0  0  0  0  0  0  0  0  0  0  0
   24.6972   13.2724   32.1244 C   0  0  0  0  0  0  0  0  0  0  0  0
   23.6019   13.4442   32.9813 C   0  0  0  0  0  0  0  0  0  0  0  0
   22.9247   12.3274   33.4777 C   0  0  0  0  0  0  0  0  0  0  0  0
   23.3559   11.0420   33.1448 C   0  0  0  0  0  0  0  0  0  0  0  0
   24.4614   10.8538   32.3009 C   0  0  0  0  0  0  0  0  0  0  0  0
   24.9024    9.5656   31.9577 C   0  0  0  0  0  0  0  0  0  0  0  0
   26.0738    6.9688   31.3755 N   0  0  0  0  0  0  0  0  0  0  0  0
   26.4707    8.0312   30.7515 C   0  0  0  0  0  0  0  0  0  0  0  0
   27.3621    7.8574   29.7361 N   0  0  0  0  0  0  0  0  0  0  0  0
   26.4117    6.0844   31.1056 H   0  0  0  0  0  0  0  0  0  0  0  0
   27.6719    6.9525   29.5024 H   0  0  0  0  0  0  0  0  0  0  0  0
   27.6966    8.6366   29.2359 H   0  0  0  0  0  0  0  0  0  0  0  0
   23.1116   14.7989   33.3602 C   0  0  0  0  0  0  0  0  0  0  0  0
   23.8721   15.5376   33.9731 O   0  0  0  0  0  0  0  0  0  0  0  0
   21.8296   15.0913   32.9311 N   0  0  0  0  0  0  0  0  0  0  0  0
   21.3792   14.3983   32.3961 H   0  0  0  0  0  0  0  0  0  0  0  0
   21.0949   16.2710   33.1739 C   0  0  0  0  0  0  0  0  0  0  0  0
   19.9483   16.4821   32.3982 C   0  0  0  0  0  0  0  0  0  0  0  0
   19.1612   17.6241   32.5801 C   0  0  0  0  0  0  0  0  0  0  0  0
   19.5100   18.5808   33.5398 C   0  0  0  0  0  0  0  0  0  0  0  0
   20.6496   18.3616   34.3229 C   0  0  0  0  0  0  0  0  0  0  0  0
   21.4356   17.2176   34.1397 C   0  0  0  0  0  0  0  0  0  0  0  0
   18.6527   19.8001   33.7580 C   0  0  0  0  0  0  0  0  0  0  0  0
   17.2455   19.4407   33.8846 N   0  0  0  0  0  0  0  0  0  0  0  0
   16.9321   18.9865   33.0268 H   0  0  0  0  0  0  0  0  0  0  0  0
   16.6926   20.2826   34.0451 H   0  0  0  0  0  0  0  0  0  0  0  0
 11 12  2  0
 12 13  1  0
 12  1  1  0
  1  2  2  0
  2  3  1  0
  3  4  2  0
  4  5  1  0
  5  6  2  0
  6 17  1  0
 17 18  2  0
 17 19  1  0
 19 21  1  0
 21 22  2  0
 22 23  1  0
 23 24  2  0
 24 27  1  0
 27 28  1  0
 24 25  1  0
 25 26  2  0
  6  7  1  0
  7  8  2  0
  8  9  1  0
  9 10  2  0
 10  1  1  0
  9  4  1  0
 26 21  1  0
 11 14  1  0
 13 15  1  0
 13 16  1  0
 19 20  1  0
 28 29  1  0
 28 30  1  0
M  END
> <minimizedAffinity>
-8.61362

> <CNNscore>
0.8582327366

> <CNNaffinity>
6.1760787964

> <CNN_VS>
5.3005127907

> <CNNaffinity_variance>
0.0777262524

$$$$



 30 32  0  0  0  0  0  0  0  0999 V2000
   19.2523   18.4778   33.3415 C   0  0  0  0  0  0  0  0  0  0  0  0
   18.7201   17.4258   32.5937 C   0  0  0  0  0  0  0  0  0  0  0  0
   19.5737   16.5269   31.9506 C   0  0  0  0  0  0  0  0  0  0  0  0
   20.9675   16.6624   32.0541 C   0  0  0  0  0  0  0  0  0  0  0  0
   21.8364   15.7636   31.4130 C   0  0  0  0  0  0  0  0  0  0  0  0
   23.2251   15.9084   31.5327 C   0  0  0  0  0  0  0  0  0  0  0  0
   23.7530   16.9707   32.2711 C   0  0  0  0  0  0  0  0  0  0  0  0
   22.8993   17.8696   32.9132 C   0  0  0  0  0  0  0  0  0  0  0  0
   21.5064   17.7280   32.8161 C   0  0  0  0  0  0  0  0  0  0  0  0
   20.6384   18.6274   33.4559 C   0  0  0  0  0  0  0  0  0  0  0  0
   17.0667   19.4790   33.7717 N   0  0  0  0  0  0  0  0  0  0  0  0
   18.3348   19.4260   34.0255 C   0  0  0  0  0  0  0  0  0  0  0  0
   18.8174   20.2942   34.9580 N   0  0  0  0  0  0  0  0  0  0  0  0
   16.4956   20.1234   34.2491 H   0  0  0  0  0  0  0  0  0  0  0  0
   18.2071   20.9211   35.4094 H   0  0  0  0  0  0  0  0  0  0  0  0
   19.7764   20.2945   35.1805 H   0  0  0  0  0  0  0  0  0  0  0  0
   24.1688   14.9703   30.8631 C   0  0  0  0  0  0  0  0  0  0  0  0
   24.3836   15.1232   29.6673 O   0  0  0  0  0  0  0  0  0  0  0  0
   24.7412   14.0297   31.7003 N   0  0  0  0  0  0  0  0  0  0  0  0
   24.4987   14.0872   32.6527 H   0  0  0  0  0  0  0  0  0  0  0  0
   25.6335   12.9970   31.3427 C   0  0  0  0  0  0  0  0  0  0  0  0
   25.3451   11.7102   31.8136 C   0  0  0  0  0  0  0  0  0  0  0  0
   26.1765   10.6299   31.4996 C   0  0  0  0  0  0  0  0  0  0  0  0
   27.3171   10.8181   30.7112 C   0  0  0  0  0  0  0  0  0  0  0  0
   27.5967   12.1031   30.2308 C   0  0  0  0  0  0  0  0  0  0  0  0
   26.7629   13.1828   30.5457 C   0  0  0  0  0  0  0  0  0  0  0  0
   28.2025    9.6546   30.3484 C   0  0  0  0  0  0  0  0  0  0  0  0
   28.1890    9.4083   28.9116 N   0  0  0  0  0  0  0  0  0  0  0  0
   27.2394    9.1845   28.6139 H   0  0  0  0  0  0  0  0  0  0  0  0
   28.8065    8.6260   28.6948 H   0  0  0  0  0  0  0  0  0  0  0  0
 11 12  2  0
 12 13  1  0
 12  1  1  0
  1  2  2  0
  2  3  1  0
  3  4  2  0
  4  5  1  0
  5  6  2  0
  6 17  1  0
 17 18  2  0
 17 19  1  0
 19 21  1  0
 21 22  2  0
 22 23  1  0
 23 24  2  0
 24 27  1  0
 27 28  1  0
 24 25  1  0
 25 26  2  0
  6  7  1  0
  7  8  2  0
  8  9  1  0
  9 10  2  0
 10  1  1  0
  9  4  1  0
 26 21  1  0
 11 14  1  0
 13 15  1  0
 13 16  1  0
 19 20  1  0
 28 29  1  0
 28 30  1  0
M  END
> <minimizedAffinity>
-8.34373

> <CNNscore>
0.8464643955

> <CNNaffinity>
6.3313045502

> <CNN_VS>
5.3592238426

> <CNNaffinity_variance>
0.0151117602

$$$$



 30 32  0  0  0  0  0  0  0  0999 V2000
   19.8554   18.3537   33.7062 C   0  0  0  0  0  0  0  0  0  0  0  0
   20.8239   18.4280   34.7090 C   0  0  0  0  0  0  0  0  0  0  0  0
   22.0053   17.6926   34.5919 C   0  0  0  0  0  0  0  0  0  0  0  0
   22.2372   16.8821   33.4689 C   0  0  0  0  0  0  0  0  0  0  0  0
   23.4223   16.1388   33.3392 C   0  0  0  0  0  0  0  0  0  0  0  0
   23.6415   15.3407   32.2083 C   0  0  0  0  0  0  0  0  0  0  0  0
   22.6634   15.2590   31.2139 C   0  0  0  0  0  0  0  0  0  0  0  0
   21.4822   15.9939   31.3316 C   0  0  0  0  0  0  0  0  0  0  0  0
   21.2554   16.8103   32.4504 C   0  0  0  0  0  0  0  0  0  0  0  0
   20.0701   17.5519   32.5803 C   0  0  0  0  0  0  0  0  0  0  0  0
   18.4950   20.1534   34.6416 N   0  0  0  0  0  0  0  0  0  0  0  0
   18.6036   19.1440   33.8387 C   0  0  0  0  0  0  0  0  0  0  0  0
   17.5043   18.8143   33.1046 N   0  0  0  0  0  0  0  0  0  0  0  0
   17.6461   20.6488   34.6974 H   0  0  0  0  0  0  0  0  0  0  0  0
   16.6766   19.3397   33.1946 H   0  0  0  0  0  0  0  0  0  0  0  0
   17.5376   18.0506   32.4842 H   0  0  0  0  0  0  0  0  0  0  0  0
   24.8885   14.5422   32.0457 C   0  0  0  0  0  0  0  0  0  0  0  0
   25.5118   14.2333   33.0536 O   0  0  0  0  0  0  0  0  0  0  0  0
   25.1890   14.1978   30.7402 N   0  0  0  0  0  0  0  0  0  0  0  0
   24.5432   14.4818   30.0536 H   0  0  0  0  0  0  0  0  0  0  0  0
   26.3171   13.4850   30.2821 C   0  0  0  0  0  0  0  0  0  0  0  0
   27.2359   14.1825   29.4881 C   0  0  0  0  0  0  0  0  0  0  0  0
   28.3834   13.5503   28.9981 C   0  0  0  0  0  0  0  0  0  0  0  0
   28.6313   12.2043   29.2896 C   0  0  0  0  0  0  0  0  0  0  0  0
   27.7181   11.5124   30.0940 C   0  0  0  0  0  0  0  0  0  0  0  0
   26.5704   12.1472   30.5840 C   0  0  0  0  0  0  0  0  0  0  0  0
   29.8780   11.5248   28.7862 C   0  0  0  0  0  0  0  0  0  0  0  0
   29.7453   11.1492   27.3838 N   0  0  0  0  0  0  0  0  0  0  0  0
   28.9684   10.4966   27.2787 H   0  0  0  0  0  0  0  0  0  0  0  0
   30.6074   10.7051   27.0677 H   0  0  0  0  0  0  0  0  0  0  0  0
 11 12  2  0
 12 13  1  0
 12  1  1  0
  1  2  2  0
  2  3  1  0
  3  4  2  0
  4  5  1  0
  5  6  2  0
  6 17  1  0
 17 18  2  0
 17 19  1  0
 19 21  1  0
 21 22  2  0
 22 23  1  0
 23 24  2  0
 24 27  1  0
 27 28  1  0
 24 25  1  0
 25 26  2  0
  6  7  1  0
  7  8  2  0
  8  9  1  0
  9 10  2  0
 10  1  1  0
  9  4  1  0
 26 21  1  0
 11 14  1  0
 13 15  1  0
 13 16  1  0
 19 20  1  0
 28 29  1  0
 28 30  1  0
M  END
> <minimizedAffinity>
-6.74207

> <CNNscore>
0.8446831107

> <CNNaffinity>
6.1187133789

> <CNN_VS>
5.1683740616

> <CNNaffinity_variance>
0.0600218661

$$$$



 30 32  0  0  0  0  0  0  0  0999 V2000
   19.2457   18.1294   33.1965 C   0  0  0  0  0  0  0  0  0  0  0  0
   19.9579   18.4790   34.3452 C   0  0  0  0  0  0  0  0  0  0  0  0
   21.2335   17.9531   34.5607 C   0  0  0  0  0  0  0  0  0  0  0  0
   21.8161   17.0798   33.6281 C   0  0  0  0  0  0  0  0  0  0  0  0
   23.0991   16.5454   33.8332 C   0  0  0  0  0  0  0  0  0  0  0  0
   23.6693   15.6812   32.8888 C   0  0  0  0  0  0  0  0  0  0  0  0
   22.9472   15.3235   31.7474 C   0  0  0  0  0  0  0  0  0  0  0  0
   21.6716   15.8490   31.5327 C   0  0  0  0  0  0  0  0  0  0  0  0
   21.0940   16.7286   32.4613 C   0  0  0  0  0  0  0  0  0  0  0  0
   19.8110   17.2612   32.2566 C   0  0  0  0  0  0  0  0  0  0  0  0
   17.1928   18.4509   31.9132 N   0  0  0  0  0  0  0  0  0  0  0  0
   17.8907   18.6984   32.9749 C   0  0  0  0  0  0  0  0  0  0  0  0
   17.3340   19.5243   33.9044 N   0  0  0  0  0  0  0  0  0  0  0  0
   16.2988   18.8496   31.8078 H   0  0  0  0  0  0  0  0  0  0  0  0
   16.4363   19.8997   33.7547 H   0  0  0  0  0  0  0  0  0  0  0  0
   17.8295   19.7458   34.7258 H   0  0  0  0  0  0  0  0  0  0  0  0
   25.0273   15.1001   33.0815 C   0  0  0  0  0  0  0  0  0  0  0  0
   25.1109   13.9192   33.3949 O   0  0  0  0  0  0  0  0  0  0  0  0
   26.0708   15.9754   32.8403 N   0  0  0  0  0  0  0  0  0  0  0  0
   25.8224   16.8787   32.5378 H   0  0  0  0  0  0  0  0  0  0  0  0
   27.4512   15.7191   32.9790 C   0  0  0  0  0  0  0  0  0  0  0  0
   28.1110   15.1545   31.8804 C   0  0  0  0  0  0  0  0  0  0  0  0
   29.4805   14.8744   31.9343 C   0  0  0  0  0  0  0  0  0  0  0  0
   30.2160   15.1498   33.0924 C   0  0  0  0  0  0  0  0  0  0  0  0
   29.5571   15.7259   34.1850 C   0  0  0  0  0  0  0  0  0  0  0  0
   28.1865   16.0061   34.1288 C   0  0  0  0  0  0  0  0  0  0  0  0
   31.6960   14.8741   33.1479 C   0  0  0  0  0  0  0  0  0  0  0  0
   31.9950   13.7763   34.0594 N   0  0  0  0  0  0  0  0  0  0  0  0
   31.6864   14.0218   35.0000 H   0  0  0  0  0  0  0  0  0  0  0  0
   33.0003   13.6038   34.0655 H   0  0  0  0  0  0  0  0  0  0  0  0
 11 12  2  0
 12 13  1  0
 12  1  1  0
  1  2  2  0
  2  3  1  0
  3  4  2  0
  4  5  1  0
  5  6  2  0
  6 17  1  0
 17 18  2  0
 17 19  1  0
 19 21  1  0
 21 22  2  0
 22 23  1  0
 23 24  2  0
 24 27  1  0
 27 28  1  0
 24 25  1  0
 25 26  2  0
  6  7  1  0
  7  8  2  0
  8  9  1  0
  9 10  2  0
 10  1  1  0
  9  4  1  0
 26 21  1  0
 11 14  1  0
 13 15  1  0
 13 16  1  0
 19 20  1  0
 28 29  1  0
 28 30  1  0
M  END
> <minimizedAffinity>
-6.48904

> <CNNscore>
0.7174355984

> <CNNaffinity>
5.5226750374

> <CNN_VS>
3.9621636868

> <CNNaffinity_variance>
0.2696510553

$$$$



 30 32  0  0  0  0  0  0  0  0999 V2000
   19.2868   18.1273   33.2322 C   0  0  0  0  0  0  0  0  0  0  0  0
   20.0219   18.4417   34.3767 C   0  0  0  0  0  0  0  0  0  0  0  0
   21.2914   17.8902   34.5623 C   0  0  0  0  0  0  0  0  0  0  0  0
   21.8449   17.0261   33.6038 C   0  0  0  0  0  0  0  0  0  0  0  0
   23.1215   16.4662   33.7786 C   0  0  0  0  0  0  0  0  0  0  0  0
   23.6627   15.6116   32.8087 C   0  0  0  0  0  0  0  0  0  0  0  0
   22.9177   15.2893   31.6715 C   0  0  0  0  0  0  0  0  0  0  0  0
   21.6483   15.8403   31.4867 C   0  0  0  0  0  0  0  0  0  0  0  0
   21.0996   16.7107   32.4413 C   0  0  0  0  0  0  0  0  0  0  0  0
   19.8231   17.2688   32.2668 C   0  0  0  0  0  0  0  0  0  0  0  0
   17.3862   19.4982   33.9200 N   0  0  0  0  0  0  0  0  0  0  0  0
   17.9386   18.7234   33.0426 C   0  0  0  0  0  0  0  0  0  0  0  0
   17.2247   18.4575   31.9131 N   0  0  0  0  0  0  0  0  0  0  0  0
   16.4906   19.8713   33.7528 H   0  0  0  0  0  0  0  0  0  0  0  0
   16.3319   18.8538   31.7903 H   0  0  0  0  0  0  0  0  0  0  0  0
   17.6016   17.8690   31.2196 H   0  0  0  0  0  0  0  0  0  0  0  0
   25.0133   15.0040   32.9691 C   0  0  0  0  0  0  0  0  0  0  0  0
   25.7456   15.4476   33.8447 O   0  0  0  0  0  0  0  0  0  0  0  0
   25.2801   13.9520   32.1116 N   0  0  0  0  0  0  0  0  0  0  0  0
   24.5512   13.6868   31.5053 H   0  0  0  0  0  0  0  0  0  0  0  0
   26.4795   13.2164   32.0082 C   0  0  0  0  0  0  0  0  0  0  0  0
   26.5064   11.9489   32.6029 C   0  0  0  0  0  0  0  0  0  0  0  0
   27.6552   11.1533   32.5408 C   0  0  0  0  0  0  0  0  0  0  0  0
   28.8027   11.6137   31.8857 C   0  0  0  0  0  0  0  0  0  0  0  0
   28.7696   12.8758   31.2808 C   0  0  0  0  0  0  0  0  0  0  0  0
   27.6185   13.6704   31.3435 C   0  0  0  0  0  0  0  0  0  0  0  0
   30.0345   10.7514   31.7935 C   0  0  0  0  0  0  0  0  0  0  0  0
   30.0353    9.9607   30.5687 N   0  0  0  0  0  0  0  0  0  0  0  0
   29.2211    9.3463   30.5601 H   0  0  0  0  0  0  0  0  0  0  0  0
   30.8856    9.3989   30.5272 H   0  0  0  0  0  0  0  0  0  0  0  0
 11 12  2  0
 12 13  1  0
 12  1  1  0
  1  2  2  0
  2  3  1  0
  3  4  2  0
  4  5  1  0
  5  6  2  0
  6 17  1  0
 17 18  2  0
 17 19  1  0
 19 21  1  0
 21 22  2  0
 22 23  1  0
 23 24  2  0
 24 27  1  0
 27 28  1  0
 24 25  1  0
 25 26  2  0
  6  7  1  0
  7  8  2  0
  8  9  1  0
  9 10  2  0
 10  1  1  0
  9  4  1  0
 26 21  1  0
 11 14  1  0
 13 15  1  0
 13 16  1  0
 19 20  1  0
 28 29  1  0
 28 30  1  0
M  END
> <minimizedAffinity>
-7.16334

> <CNNscore>
0.6828922033

> <CNNaffinity>
5.7944359779

> <CNN_VS>
3.9569752216

> <CNNaffinity_variance>
0.0187011305

$$$$
