


 18 19  0  0  0  0  0  0  0  0999 V2000
   48.8950   23.1331   12.0319 C   0  0  0  0  0  0  0  0  0  0  0  0
   49.6233   21.8284   11.8625 C   0  0  0  0  0  0  0  0  0  0  0  0
   48.8808   20.6576   11.6811 C   0  0  0  0  0  0  0  0  0  0  0  0
   49.5436   19.4540   11.5222 C   0  0  0  0  0  0  0  0  0  0  0  0
   48.8306   18.2748   11.3221 N   0  0  0  0  0  0  0  0  0  0  0  0
   50.8795   19.3530   11.5168 N   0  0  0  0  0  0  0  0  0  0  0  0
   51.6094   20.4674   11.6850 C   0  0  0  0  0  0  0  0  0  0  0  0
   52.9892   20.3494   11.6625 C   0  0  0  0  0  0  0  0  0  0  0  0
   53.8188   21.4595   11.8345 C   0  0  0  0  0  0  0  0  0  0  0  0
   55.6995   21.1915   11.7669 Br  0  0  0  0  0  0  0  0  0  0  0  0
   53.2808   22.7275   12.0763 C   0  0  0  0  0  0  0  0  0  0  0  0
   54.0768   23.8823   12.1310 N   0  0  0  0  0  0  0  0  0  0  0  0
   51.8893   22.8602   12.0454 C   0  0  0  0  0  0  0  0  0  0  0  0
   51.0351   21.7441   11.8714 C   0  0  0  0  0  0  0  0  0  0  0  0
   47.8462   18.2897   11.3163 H   0  0  0  0  0  0  0  0  0  0  0  0
   49.3109   17.4262   11.1866 H   0  0  0  0  0  0  0  0  0  0  0  0
   55.0579   23.8034   12.1532 H   0  0  0  0  0  0  0  0  0  0  0  0
   53.6541   24.7713   12.1472 H   0  0  0  0  0  0  0  0  0  0  0  0
  1  2  1  0
  2  3  2  0
  3  4  1  0
  4  5  1  0
  4  6  2  0
  6  7  1  0
  7  8  2  0
  8  9  1  0
  9 10  1  0
  9 11  2  0
 11 12  1  0
 11 13  1  0
 13 14  2  0
 14  2  1  0
 14  7  1  0
  5 15  1  0
  5 16  1  0
 12 17  1  0
 12 18  1  0
M  END
> <minimizedAffinity>
-7.06629

> <CNNscore>
0.9669818282

> <CNNaffinity>
5.2368836403

> <CNN_VS>
5.0639715195

> <CNNaffinity_variance>
0.1480417997

$$$$



 18 19  0  0  0  0  0  0  0  0999 V2000
   54.5740   20.9161   11.4484 C   0  0  0  0  0  0  0  0  0  0  0  0
   53.5093   21.8743   11.9059 C   0  0  0  0  0  0  0  0  0  0  0  0
   53.8867   23.1493   12.3383 C   0  0  0  0  0  0  0  0  0  0  0  0
   52.9128   24.0371   12.7582 C   0  0  0  0  0  0  0  0  0  0  0  0
   53.2578   25.3194   13.1774 N   0  0  0  0  0  0  0  0  0  0  0  0
   51.6064   23.7399   12.7568 N   0  0  0  0  0  0  0  0  0  0  0  0
   51.2245   22.5219   12.3406 C   0  0  0  0  0  0  0  0  0  0  0  0
   49.8697   22.2343   12.3310 C   0  0  0  0  0  0  0  0  0  0  0  0
   49.3915   20.9893   11.9166 C   0  0  0  0  0  0  0  0  0  0  0  0
   47.5121   20.7041   11.9230 Br  0  0  0  0  0  0  0  0  0  0  0  0
   50.2724   19.9728   11.5338 C   0  0  0  0  0  0  0  0  0  0  0  0
   49.8253   18.7556   10.9965 N   0  0  0  0  0  0  0  0  0  0  0  0
   51.6364   20.2767   11.4901 C   0  0  0  0  0  0  0  0  0  0  0  0
   52.1363   21.5346   11.9063 C   0  0  0  0  0  0  0  0  0  0  0  0
   54.2034   25.5926   13.1986 H   0  0  0  0  0  0  0  0  0  0  0  0
   52.5561   25.9528   13.4525 H   0  0  0  0  0  0  0  0  0  0  0  0
   48.8676   18.5290   11.0206 H   0  0  0  0  0  0  0  0  0  0  0  0
   50.4696   18.1284   10.5954 H   0  0  0  0  0  0  0  0  0  0  0  0
  1  2  1  0
  2  3  2  0
  3  4  1  0
  4  5  1  0
  4  6  2  0
  6  7  1  0
  7  8  2  0
  8  9  1  0
  9 10  1  0
  9 11  2  0
 11 12  1  0
 11 13  1  0
 13 14  2  0
 14  2  1  0
 14  7  1  0
  5 15  1  0
  5 16  1  0
 12 17  1  0
 12 18  1  0
M  END
> <minimizedAffinity>
-7.13136

> <CNNscore>
0.8707140088

> <CNNaffinity>
5.3815150261

> <CNN_VS>
4.6857604980

> <CNNaffinity_variance>
0.1412301213

$$$$



 18 19  0  0  0  0  0  0  0  0999 V2000
   58.0992   27.4818   18.8318 C   0  0  0  0  0  0  0  0  0  0  0  0
   56.6986   27.2860   19.3428 C   0  0  0  0  0  0  0  0  0  0  0  0
   56.3142   27.9249   20.5255 C   0  0  0  0  0  0  0  0  0  0  0  0
   55.0268   27.7516   21.0005 C   0  0  0  0  0  0  0  0  0  0  0  0
   54.6109   28.3897   22.1662 N   0  0  0  0  0  0  0  0  0  0  0  0
   54.1111   27.0055   20.3682 N   0  0  0  0  0  0  0  0  0  0  0  0
   54.4605   26.3879   19.2284 C   0  0  0  0  0  0  0  0  0  0  0  0
   53.4990   25.6320   18.5784 C   0  0  0  0  0  0  0  0  0  0  0  0
   53.7839   24.9551   17.3906 C   0  0  0  0  0  0  0  0  0  0  0  0
   52.3873   23.9615   16.5686 Br  0  0  0  0  0  0  0  0  0  0  0  0
   55.0676   24.9858   16.8366 C   0  0  0  0  0  0  0  0  0  0  0  0
   55.3582   24.4216   15.5846 N   0  0  0  0  0  0  0  0  0  0  0  0
   56.0256   25.7912   17.4596 C   0  0  0  0  0  0  0  0  0  0  0  0
   55.7515   26.4841   18.6640 C   0  0  0  0  0  0  0  0  0  0  0  0
   55.2419   28.9511   22.6721 H   0  0  0  0  0  0  0  0  0  0  0  0
   53.6858   28.2795   22.4845 H   0  0  0  0  0  0  0  0  0  0  0  0
   54.6927   23.8524   15.1347 H   0  0  0  0  0  0  0  0  0  0  0  0
   56.2275   24.5950   15.1564 H   0  0  0  0  0  0  0  0  0  0  0  0
  1  2  1  0
  2  3  2  0
  3  4  1  0
  4  5  1  0
  4  6  2  0
  6  7  1  0
  7  8  2  0
  8  9  1  0
  9 10  1  0
  9 11  2  0
 11 12  1  0
 11 13  1  0
 13 14  2  0
 14  2  1  0
 14  7  1  0
  5 15  1  0
  5 16  1  0
 12 17  1  0
 12 18  1  0
M  END
> <minimizedAffinity>
-5.13767

> <CNNscore>
0.4381928742

> <CNNaffinity>
4.2654552460

> <CNN_VS>
1.8690921068

> <CNNaffinity_variance>
0.1810841113

$$$$



 18 19  0  0  0  0  0  0  0  0999 V2000
   55.6032   19.1769   12.7594 C   0  0  0  0  0  0  0  0  0  0  0  0
   54.9884   20.5420   12.6178 C   0  0  0  0  0  0  0  0  0  0  0  0
   55.8198   21.6655   12.6525 C   0  0  0  0  0  0  0  0  0  0  0  0
   55.2620   22.9242   12.5204 C   0  0  0  0  0  0  0  0  0  0  0  0
   56.0675   24.0600   12.5335 N   0  0  0  0  0  0  0  0  0  0  0  0
   53.9493   23.1245   12.3422 N   0  0  0  0  0  0  0  0  0  0  0  0
   53.1357   22.0572   12.3016 C   0  0  0  0  0  0  0  0  0  0  0  0
   51.7832   22.2791   12.1022 C   0  0  0  0  0  0  0  0  0  0  0  0
   50.8707   21.2230   12.0520 C   0  0  0  0  0  0  0  0  0  0  0  0
   49.0391   21.6350   11.7541 Br  0  0  0  0  0  0  0  0  0  0  0  0
   51.2895   19.9024   12.2426 C   0  0  0  0  0  0  0  0  0  0  0  0
   50.4242   18.8096   12.0772 N   0  0  0  0  0  0  0  0  0  0  0  0
   52.6603   19.6697   12.3896 C   0  0  0  0  0  0  0  0  0  0  0  0
   53.5977   20.7300   12.4417 C   0  0  0  0  0  0  0  0  0  0  0  0
   57.0398   23.9725   12.6608 H   0  0  0  0  0  0  0  0  0  0  0  0
   55.6647   24.9506   12.4155 H   0  0  0  0  0  0  0  0  0  0  0  0
   49.4568   18.9592   11.9726 H   0  0  0  0  0  0  0  0  0  0  0  0
   50.7848   17.8936   12.0658 H   0  0  0  0  0  0  0  0  0  0  0  0
  1  2  1  0
  2  3  2  0
  3  4  1  0
  4  5  1  0
  4  6  2  0
  6  7  1  0
  7  8  2  0
  8  9  1  0
  9 10  1  0
  9 11  2  0
 11 12  1  0
 11 13  1  0
 13 14  2  0
 14  2  1  0
 14  7  1  0
  5 15  1  0
  5 16  1  0
 12 17  1  0
 12 18  1  0
M  END
> <minimizedAffinity>
-5.17834

> <CNNscore>
0.4332018793

> <CNNaffinity>
5.1291174889

> <CNN_VS>
2.2219433784

> <CNNaffinity_variance>
0.0283230245

$$$$



 18 19  0  0  0  0  0  0  0  0999 V2000
   57.2722   29.1476   12.1680 C   0  0  0  0  0  0  0  0  0  0  0  0
   56.3768   28.7149   11.0400 C   0  0  0  0  0  0  0  0  0  0  0  0
   55.0165   28.5153   11.2943 C   0  0  0  0  0  0  0  0  0  0  0  0
   54.1861   28.1197   10.2613 C   0  0  0  0  0  0  0  0  0  0  0  0
   52.8242   27.9304   10.4813 N   0  0  0  0  0  0  0  0  0  0  0  0
   54.6211   27.9309    9.0082 N   0  0  0  0  0  0  0  0  0  0  0  0
   55.9235   28.1223    8.7439 C   0  0  0  0  0  0  0  0  0  0  0  0
   56.3556   27.9376    7.4411 C   0  0  0  0  0  0  0  0  0  0  0  0
   57.6947   28.1125    7.0853 C   0  0  0  0  0  0  0  0  0  0  0  0
   58.1794   27.8531    5.2656 Br  0  0  0  0  0  0  0  0  0  0  0  0
   58.6558   28.4426    8.0460 C   0  0  0  0  0  0  0  0  0  0  0  0
   59.9834   28.7458    7.7059 N   0  0  0  0  0  0  0  0  0  0  0  0
   58.2150   28.6832    9.3509 C   0  0  0  0  0  0  0  0  0  0  0  0
   56.8605   28.5107    9.7266 C   0  0  0  0  0  0  0  0  0  0  0  0
   52.4492   28.0555   11.3829 H   0  0  0  0  0  0  0  0  0  0  0  0
   52.2364   27.6715    9.7352 H   0  0  0  0  0  0  0  0  0  0  0  0
   60.3069   28.5814    6.7907 H   0  0  0  0  0  0  0  0  0  0  0  0
   60.5911   29.1229    8.3825 H   0  0  0  0  0  0  0  0  0  0  0  0
  1  2  1  0
  2  3  2  0
  3  4  1  0
  4  5  1  0
  4  6  2  0
  6  7  1  0
  7  8  2  0
  8  9  1  0
  9 10  1  0
  9 11  2  0
 11 12  1  0
 11 13  1  0
 13 14  2  0
 14  2  1  0
 14  7  1  0
  5 15  1  0
  5 16  1  0
 12 17  1  0
 12 18  1  0
M  END
> <minimizedAffinity>
-4.64419

> <CNNscore>
0.3677114248

> <CNNaffinity>
4.1729321480

> <CNN_VS>
1.5344347954

> <CNNaffinity_variance>
0.1161667705

$$$$



 18 19  0  0  0  0  0  0  0  0999 V2000
   51.7993   23.3001   13.9796 C   0  0  0  0  0  0  0  0  0  0  0  0
   51.6100   21.9680   13.3082 C   0  0  0  0  0  0  0  0  0  0  0  0
   50.4357   21.7350   12.5859 C   0  0  0  0  0  0  0  0  0  0  0  0
   50.2555   20.5130   11.9635 C   0  0  0  0  0  0  0  0  0  0  0  0
   49.1040   20.2594   11.2228 N   0  0  0  0  0  0  0  0  0  0  0  0
   51.1680   19.5329   12.0041 N   0  0  0  0  0  0  0  0  0  0  0  0
   52.3041   19.7401   12.6892 C   0  0  0  0  0  0  0  0  0  0  0  0
   53.2443   18.7233   12.7099 C   0  0  0  0  0  0  0  0  0  0  0  0
   54.4491   18.8583   13.4032 C   0  0  0  0  0  0  0  0  0  0  0  0
   55.6794   17.4102   13.3518 Br  0  0  0  0  0  0  0  0  0  0  0  0
   54.7299   20.0155   14.1364 C   0  0  0  0  0  0  0  0  0  0  0  0
   55.9771   20.2361   14.7416 N   0  0  0  0  0  0  0  0  0  0  0  0
   53.8083   21.0650   14.0733 C   0  0  0  0  0  0  0  0  0  0  0  0
   52.5828   20.9433   13.3740 C   0  0  0  0  0  0  0  0  0  0  0  0
   48.3995   20.9441   11.1581 H   0  0  0  0  0  0  0  0  0  0  0  0
   48.9944   19.3954   10.7637 H   0  0  0  0  0  0  0  0  0  0  0  0
   56.6354   19.5059   14.7928 H   0  0  0  0  0  0  0  0  0  0  0  0
   56.1934   21.1210   15.1149 H   0  0  0  0  0  0  0  0  0  0  0  0
  1  2  1  0
  2  3  2  0
  3  4  1  0
  4  5  1  0
  4  6  2  0
  6  7  1  0
  7  8  2  0
  8  9  1  0
  9 10  1  0
  9 11  2  0
 11 12  1  0
 11 13  1  0
 13 14  2  0
 14  2  1  0
 14  7  1  0
  5 15  1  0
  5 16  1  0
 12 17  1  0
 12 18  1  0
M  END
> <minimizedAffinity>
-5.05404

> <CNNscore>
0.3294814825

> <CNNaffinity>
4.0473155975

> <CNN_VS>
1.3335155249

> <CNNaffinity_variance>
0.3835887909

$$$$



 18 19  0  0  0  0  0  0  0  0999 V2000
   56.3267   28.2394   16.4472 C   0  0  0  0  0  0  0  0  0  0  0  0
   55.4278   27.3854   17.2980 C   0  0  0  0  0  0  0  0  0  0  0  0
   55.2263   27.7386   18.6357 C   0  0  0  0  0  0  0  0  0  0  0  0
   54.3989   26.9594   19.4239 C   0  0  0  0  0  0  0  0  0  0  0  0
   54.1659   27.2971   20.7546 N   0  0  0  0  0  0  0  0  0  0  0  0
   53.7586   25.8774   18.9609 N   0  0  0  0  0  0  0  0  0  0  0  0
   53.9362   25.5253   17.6774 C   0  0  0  0  0  0  0  0  0  0  0  0
   53.2564   24.4132   17.2092 C   0  0  0  0  0  0  0  0  0  0  0  0
   53.3908   23.9790   15.8887 C   0  0  0  0  0  0  0  0  0  0  0  0
   52.3982   22.4526   15.3422 Br  0  0  0  0  0  0  0  0  0  0  0  0
   54.2519   24.6329   15.0018 C   0  0  0  0  0  0  0  0  0  0  0  0
   54.3189   24.3015   13.6395 N   0  0  0  0  0  0  0  0  0  0  0  0
   54.8976   25.7874   15.4545 C   0  0  0  0  0  0  0  0  0  0  0  0
   54.7706   26.2404   16.7903 C   0  0  0  0  0  0  0  0  0  0  0  0
   54.6099   28.0827   21.1481 H   0  0  0  0  0  0  0  0  0  0  0  0
   53.5571   26.7501   21.3019 H   0  0  0  0  0  0  0  0  0  0  0  0
   53.8688   23.4914   13.3072 H   0  0  0  0  0  0  0  0  0  0  0  0
   54.8159   24.8792   13.0162 H   0  0  0  0  0  0  0  0  0  0  0  0
  1  2  1  0
  2  3  2  0
  3  4  1  0
  4  5  1  0
  4  6  2  0
  6  7  1  0
  7  8  2  0
  8  9  1  0
  9 10  1  0
  9 11  2  0
 11 12  1  0
 11 13  1  0
 13 14  2  0
 14  2  1  0
 14  7  1  0
  5 15  1  0
  5 16  1  0
 12 17  1  0
 12 18  1  0
M  END
> <minimizedAffinity>
-4.55613

> <CNNscore>
0.3101090193

> <CNNaffinity>
4.0917267799

> <CNN_VS>
1.2688813210

> <CNNaffinity_variance>
0.2172602862

$$$$



 18 19  0  0  0  0  0  0  0  0999 V2000
   55.8846   30.6395   14.4852 C   0  0  0  0  0  0  0  0  0  0  0  0
   56.8590   30.4757   13.3516 C   0  0  0  0  0  0  0  0  0  0  0  0
   58.1754   30.9149   13.5219 C   0  0  0  0  0  0  0  0  0  0  0  0
   59.0780   30.7655   12.4846 C   0  0  0  0  0  0  0  0  0  0  0  0
   60.3999   31.1776   12.6321 N   0  0  0  0  0  0  0  0  0  0  0  0
   58.7556   30.1988   11.3141 N   0  0  0  0  0  0  0  0  0  0  0  0
   57.4972   29.7667   11.1338 C   0  0  0  0  0  0  0  0  0  0  0  0
   57.1827   29.1699    9.9242 C   0  0  0  0  0  0  0  0  0  0  0  0
   55.8957   28.6983    9.6567 C   0  0  0  0  0  0  0  0  0  0  0  0
   55.5744   27.8777    7.9724 Br  0  0  0  0  0  0  0  0  0  0  0  0
   54.8665   28.8502   10.5912 C   0  0  0  0  0  0  0  0  0  0  0  0
   53.5965   28.2812   10.4078 N   0  0  0  0  0  0  0  0  0  0  0  0
   55.1926   29.4024   11.8336 C   0  0  0  0  0  0  0  0  0  0  0  0
   56.4931   29.8843   12.1199 C   0  0  0  0  0  0  0  0  0  0  0  0
   60.6929   31.6004   13.4715 H   0  0  0  0  0  0  0  0  0  0  0  0
   61.0414   31.0461   11.8970 H   0  0  0  0  0  0  0  0  0  0  0  0
   53.3539   27.8888    9.5381 H   0  0  0  0  0  0  0  0  0  0  0  0
   52.9485   28.2744   11.1489 H   0  0  0  0  0  0  0  0  0  0  0  0
  1  2  1  0
  2  3  2  0
  3  4  1  0
  4  5  1  0
  4  6  2  0
  6  7  1  0
  7  8  2  0
  8  9  1  0
  9 10  1  0
  9 11  2  0
 11 12  1  0
 11 13  1  0
 13 14  2  0
 14  2  1  0
 14  7  1  0
  5 15  1  0
  5 16  1  0
 12 17  1  0
 12 18  1  0
M  END
> <minimizedAffinity>
-4.90447

> <CNNscore>
0.2818187475

> <CNNaffinity>
4.4425373077

> <CNN_VS>
1.2519903183

> <CNNaffinity_variance>
0.0228881892

$$$$



 18 19  0  0  0  0  0  0  0  0999 V2000
   56.6543   27.3052    6.6007 C   0  0  0  0  0  0  0  0  0  0  0  0
   57.2900   28.0033    7.7711 C   0  0  0  0  0  0  0  0  0  0  0  0
   58.6438   28.3456    7.7011 C   0  0  0  0  0  0  0  0  0  0  0  0
   59.2349   28.9901    8.7726 C   0  0  0  0  0  0  0  0  0  0  0  0
   60.5768   29.3588    8.7238 N   0  0  0  0  0  0  0  0  0  0  0  0
   58.5638   29.3225    9.8835 N   0  0  0  0  0  0  0  0  0  0  0  0
   57.2617   29.0060    9.9671 C   0  0  0  0  0  0  0  0  0  0  0  0
   56.5776   29.3690   11.1154 C   0  0  0  0  0  0  0  0  0  0  0  0
   55.2231   29.0724   11.2817 C   0  0  0  0  0  0  0  0  0  0  0  0
   54.3739   29.6326   12.8875 Br  0  0  0  0  0  0  0  0  0  0  0  0
   54.5189   28.3600   10.3059 C   0  0  0  0  0  0  0  0  0  0  0  0
   53.1328   28.1521   10.3827 N   0  0  0  0  0  0  0  0  0  0  0  0
   55.1911   28.0398    9.1225 C   0  0  0  0  0  0  0  0  0  0  0  0
   56.5641   28.3344    8.9390 C   0  0  0  0  0  0  0  0  0  0  0  0
   61.1188   29.1403    7.9315 H   0  0  0  0  0  0  0  0  0  0  0  0
   60.9835   29.8381    9.4815 H   0  0  0  0  0  0  0  0  0  0  0  0
   52.6470   28.3732   11.2100 H   0  0  0  0  0  0  0  0  0  0  0  0
   52.6465   27.7852    9.6094 H   0  0  0  0  0  0  0  0  0  0  0  0
  1  2  1  0
  2  3  2  0
  3  4  1  0
  4  5  1  0
  4  6  2  0
  6  7  1  0
  7  8  2  0
  8  9  1  0
  9 10  1  0
  9 11  2  0
 11 12  1  0
 11 13  1  0
 13 14  2  0
 14  2  1  0
 14  7  1  0
  5 15  1  0
  5 16  1  0
 12 17  1  0
 12 18  1  0
M  END
> <minimizedAffinity>
-4.91516

> <CNNscore>
0.2738178968

> <CNNaffinity>
4.3467164040

> <CNN_VS>
1.1902087927

> <CNNaffinity_variance>
0.0512913316

$$$$
