


 23 25  0  0  0  0  0  0  0  0999 V2000
   37.7161  -10.3423  -14.8133 O   0  0  0  0  0  0  0  0  0  0  0  0
   38.4221  -11.2108  -14.0418 C   0  0  0  0  0  0  0  0  0  0  0  0
   38.4193  -10.8773  -12.7479 N   0  0  0  0  0  0  0  0  0  0  0  0
   39.1064  -11.7091  -11.9500 C   0  0  0  0  0  0  0  0  0  0  0  0
   39.8042  -12.7746  -12.3800 N   0  0  0  0  0  0  0  0  0  0  0  0
   39.7729  -13.0600  -13.7038 C   0  0  0  0  0  0  0  0  0  0  0  0
   39.0590  -12.2948  -14.6079 C   0  0  0  0  0  0  0  0  0  0  0  0
   39.0023  -12.5178  -16.0859 C   0  0  0  0  0  0  0  0  0  0  0  0
   39.5791  -14.1376  -16.6616 S   0  0  0  0  0  0  0  0  0  0  0  0
   40.9989  -14.3040  -15.5488 C   0  0  0  0  0  0  0  0  0  0  0  0
   40.5261  -14.3007  -14.1041 C   0  0  0  0  0  0  0  0  0  0  0  0
   37.2865   -9.6085  -14.4197 H   0  0  0  0  0  0  0  0  0  0  0  0
   39.1632  -11.3790  -10.5229 C   0  0  0  0  0  0  0  0  0  0  0  0
   38.2893  -12.0346   -9.6300 C   0  0  0  0  0  0  0  0  0  0  0  0
   38.2864  -11.7487   -8.2607 C   0  0  0  0  0  0  0  0  0  0  0  0
   39.1707  -10.8016   -7.7341 C   0  0  0  0  0  0  0  0  0  0  0  0
   40.0481  -10.1441   -8.6083 C   0  0  0  0  0  0  0  0  0  0  0  0
   40.0503  -10.4318   -9.9819 C   0  0  0  0  0  0  0  0  0  0  0  0
   41.2312   -9.6031  -10.9411 Cl  0  0  0  0  0  0  0  0  0  0  0  0
   39.1623  -10.4665   -6.2629 C   0  0  0  0  0  0  0  0  0  0  0  0
   39.6949   -9.2402   -6.0107 F   0  0  0  0  0  0  0  0  0  0  0  0
   39.8780  -11.3495   -5.5131 F   0  0  0  0  0  0  0  0  0  0  0  0
   37.9111  -10.4507   -5.7252 F   0  0  0  0  0  0  0  0  0  0  0  0
  1  2  1  0
  2  3  2  0
  3  4  1  0
  4 13  1  0
 13 14  2  0
 14 15  1  0
 15 16  2  0
 16 20  1  0
 20 21  1  0
 20 22  1  0
 20 23  1  0
 16 17  1  0
 17 18  2  0
 18 19  1  0
  4  5  2  0
  5  6  1  0
  6  7  2  0
  7  8  1  0
  8  9  1  0
  9 10  1  0
 10 11  1  0
  7  2  1  0
 18 13  1  0
 11  6  1  0
  1 12  1  0
M  END
> <minimizedAffinity>
-11.03325

> <CNNscore>
0.8857219219

> <CNNaffinity>
7.2762522697

> <CNN_VS>
6.4447360039

> <CNNaffinity_variance>
0.0947971642

$$$$



 23 25  0  0  0  0  0  0  0  0999 V2000
   37.7626  -10.1418  -14.0292 O   0  0  0  0  0  0  0  0  0  0  0  0
   38.4108  -11.0583  -13.2625 C   0  0  0  0  0  0  0  0  0  0  0  0
   38.3560  -10.7763  -11.9575 N   0  0  0  0  0  0  0  0  0  0  0  0
   38.9851  -11.6567  -11.1638 C   0  0  0  0  0  0  0  0  0  0  0  0
   39.6761  -12.7221  -11.6048 N   0  0  0  0  0  0  0  0  0  0  0  0
   39.6994  -12.9540  -12.9392 C   0  0  0  0  0  0  0  0  0  0  0  0
   39.0469  -12.1353  -13.8429 C   0  0  0  0  0  0  0  0  0  0  0  0
   39.0535  -12.2979  -15.3297 C   0  0  0  0  0  0  0  0  0  0  0  0
   39.6169  -13.9082  -15.9443 S   0  0  0  0  0  0  0  0  0  0  0  0
   40.9792  -14.1554  -14.7758 C   0  0  0  0  0  0  0  0  0  0  0  0
   40.4400  -14.1971  -13.3551 C   0  0  0  0  0  0  0  0  0  0  0  0
   37.3331   -9.4132  -13.6259 H   0  0  0  0  0  0  0  0  0  0  0  0
   38.9835  -11.3849   -9.7234 C   0  0  0  0  0  0  0  0  0  0  0  0
   40.2146  -11.2395   -9.0496 C   0  0  0  0  0  0  0  0  0  0  0  0
   40.2756  -10.9961   -7.6735 C   0  0  0  0  0  0  0  0  0  0  0  0
   39.1009  -10.8770   -6.9236 C   0  0  0  0  0  0  0  0  0  0  0  0
   37.8694  -11.0154   -7.5796 C   0  0  0  0  0  0  0  0  0  0  0  0
   37.8093  -11.2594   -8.9604 C   0  0  0  0  0  0  0  0  0  0  0  0
   36.2268  -11.3382   -9.6611 Cl  0  0  0  0  0  0  0  0  0  0  0  0
   39.1523  -10.6379   -5.4347 C   0  0  0  0  0  0  0  0  0  0  0  0
   39.7575   -9.4600   -5.1225 F   0  0  0  0  0  0  0  0  0  0  0  0
   39.8399  -11.6038   -4.7651 F   0  0  0  0  0  0  0  0  0  0  0  0
   37.9195  -10.5915   -4.8577 F   0  0  0  0  0  0  0  0  0  0  0  0
  1  2  1  0
  2  3  2  0
  3  4  1  0
  4 13  1  0
 13 14  2  0
 14 15  1  0
 15 16  2  0
 16 20  1  0
 20 21  1  0
 20 22  1  0
 20 23  1  0
 16 17  1  0
 17 18  2  0
 18 19  1  0
  4  5  2  0
  5  6  1  0
  6  7  2  0
  7  8  1  0
  8  9  1  0
  9 10  1  0
 10 11  1  0
  7  2  1  0
 18 13  1  0
 11  6  1  0
  1 12  1  0
M  END
> <minimizedAffinity>
-8.01129

> <CNNscore>
0.4718435705

> <CNNaffinity>
6.7465014458

> <CNN_VS>
3.1832933426

> <CNNaffinity_variance>
0.1663550436

$$$$



 23 25  0  0  0  0  0  0  0  0999 V2000
   37.8144  -19.9495   -0.1279 O   0  0  0  0  0  0  0  0  0  0  0  0
   36.8307  -19.2372   -0.7387 C   0  0  0  0  0  0  0  0  0  0  0  0
   37.2444  -18.0408   -1.1664 N   0  0  0  0  0  0  0  0  0  0  0  0
   36.3029  -17.3036   -1.7754 C   0  0  0  0  0  0  0  0  0  0  0  0
   35.0186  -17.6742   -1.9178 N   0  0  0  0  0  0  0  0  0  0  0  0
   34.6576  -18.8969   -1.4600 C   0  0  0  0  0  0  0  0  0  0  0  0
   35.5585  -19.7556   -0.8569 C   0  0  0  0  0  0  0  0  0  0  0  0
   35.2355  -21.1024   -0.2920 C   0  0  0  0  0  0  0  0  0  0  0  0
   33.6467  -21.8114   -0.8032 S   0  0  0  0  0  0  0  0  0  0  0  0
   32.6634  -20.2916   -0.7305 C   0  0  0  0  0  0  0  0  0  0  0  0
   33.2199  -19.2690   -1.7079 C   0  0  0  0  0  0  0  0  0  0  0  0
   38.6759  -19.5890   -0.0522 H   0  0  0  0  0  0  0  0  0  0  0  0
   36.6903  -15.9688   -2.2414 C   0  0  0  0  0  0  0  0  0  0  0  0
   37.9839  -15.4869   -1.9494 C   0  0  0  0  0  0  0  0  0  0  0  0
   38.4035  -14.2152   -2.3534 C   0  0  0  0  0  0  0  0  0  0  0  0
   37.5432  -13.3834   -3.0775 C   0  0  0  0  0  0  0  0  0  0  0  0
   36.2555  -13.8496   -3.3788 C   0  0  0  0  0  0  0  0  0  0  0  0
   35.8354  -15.1258   -2.9731 C   0  0  0  0  0  0  0  0  0  0  0  0
   34.2478  -15.6091   -3.4705 Cl  0  0  0  0  0  0  0  0  0  0  0  0
   37.9745  -12.0004   -3.4993 C   0  0  0  0  0  0  0  0  0  0  0  0
   37.2708  -11.5457   -4.5713 F   0  0  0  0  0  0  0  0  0  0  0  0
   39.2870  -11.9395   -3.8569 F   0  0  0  0  0  0  0  0  0  0  0  0
   37.8124  -11.0678   -2.5201 F   0  0  0  0  0  0  0  0  0  0  0  0
  1  2  1  0
  2  3  2  0
  3  4  1  0
  4 13  1  0
 13 14  2  0
 14 15  1  0
 15 16  2  0
 16 20  1  0
 20 21  1  0
 20 22  1  0
 20 23  1  0
 16 17  1  0
 17 18  2  0
 18 19  1  0
  4  5  2  0
  5  6  1  0
  6  7  2  0
  7  8  1  0
  8  9  1  0
  9 10  1  0
 10 11  1  0
  7  2  1  0
 18 13  1  0
 11  6  1  0
  1 12  1  0
M  END
> <minimizedAffinity>
-4.83019

> <CNNscore>
0.2867198586

> <CNNaffinity>
4.6680569649

> <CNN_VS>
1.3384246826

> <CNNaffinity_variance>
0.0024381774

$$$$



 23 25  0  0  0  0  0  0  0  0999 V2000
   38.5037  -14.7821   -1.8988 O   0  0  0  0  0  0  0  0  0  0  0  0
   38.1964  -13.4804   -2.1419 C   0  0  0  0  0  0  0  0  0  0  0  0
   36.8828  -13.2395   -2.0986 N   0  0  0  0  0  0  0  0  0  0  0  0
   36.5355  -11.9649   -2.3342 C   0  0  0  0  0  0  0  0  0  0  0  0
   37.4005  -10.9849   -2.6482 N   0  0  0  0  0  0  0  0  0  0  0  0
   38.7196  -11.2908   -2.6810 C   0  0  0  0  0  0  0  0  0  0  0  0
   39.1901  -12.5627   -2.4098 C   0  0  0  0  0  0  0  0  0  0  0  0
   40.6220  -12.9923   -2.4609 C   0  0  0  0  0  0  0  0  0  0  0  0
   41.8462  -11.6548   -2.4810 S   0  0  0  0  0  0  0  0  0  0  0  0
   40.9648  -10.5302   -3.5948 C   0  0  0  0  0  0  0  0  0  0  0  0
   39.6333  -10.1318   -2.9791 C   0  0  0  0  0  0  0  0  0  0  0  0
   37.8216  -15.3985   -1.7176 H   0  0  0  0  0  0  0  0  0  0  0  0
   35.1049  -11.6451   -2.3282 C   0  0  0  0  0  0  0  0  0  0  0  0
   34.2235  -12.4206   -3.1109 C   0  0  0  0  0  0  0  0  0  0  0  0
   32.8516  -12.1520   -3.1578 C   0  0  0  0  0  0  0  0  0  0  0  0
   32.3107  -11.1010   -2.4099 C   0  0  0  0  0  0  0  0  0  0  0  0
   33.1733  -10.3235   -1.6241 C   0  0  0  0  0  0  0  0  0  0  0  0
   34.5497  -10.5939   -1.5776 C   0  0  0  0  0  0  0  0  0  0  0  0
   35.4940   -9.6054   -0.5134 Cl  0  0  0  0  0  0  0  0  0  0  0  0
   30.8364  -10.7854   -2.4694 C   0  0  0  0  0  0  0  0  0  0  0  0
   30.5936   -9.5552   -2.9973 F   0  0  0  0  0  0  0  0  0  0  0  0
   30.2418  -10.7938   -1.2444 F   0  0  0  0  0  0  0  0  0  0  0  0
   30.1311  -11.6671   -3.2310 F   0  0  0  0  0  0  0  0  0  0  0  0
  1  2  1  0
  2  3  2  0
  3  4  1  0
  4 13  1  0
 13 14  2  0
 14 15  1  0
 15 16  2  0
 16 20  1  0
 20 21  1  0
 20 22  1  0
 20 23  1  0
 16 17  1  0
 17 18  2  0
 18 19  1  0
  4  5  2  0
  5  6  1  0
  6  7  2  0
  7  8  1  0
  8  9  1  0
  9 10  1  0
 10 11  1  0
  7  2  1  0
 18 13  1  0
 11  6  1  0
  1 12  1  0
M  END
> <minimizedAffinity>
-4.41571

> <CNNscore>
0.2566643357

> <CNNaffinity>
4.8612322807

> <CNN_VS>
1.2477049828

> <CNNaffinity_variance>
0.1959099174

$$$$



 23 25  0  0  0  0  0  0  0  0999 V2000
   34.6968  -16.1977   -3.8348 O   0  0  0  0  0  0  0  0  0  0  0  0
   34.8958  -14.9697   -3.2868 C   0  0  0  0  0  0  0  0  0  0  0  0
   36.1340  -14.5073   -3.4831 N   0  0  0  0  0  0  0  0  0  0  0  0
   36.3734  -13.2964   -2.9567 C   0  0  0  0  0  0  0  0  0  0  0  0
   35.4866  -12.5909   -2.2336 N   0  0  0  0  0  0  0  0  0  0  0  0
   34.2484  -13.1134   -2.0647 C   0  0  0  0  0  0  0  0  0  0  0  0
   33.8816  -14.3334   -2.6028 C   0  0  0  0  0  0  0  0  0  0  0  0
   32.5521  -14.9974   -2.4328 C   0  0  0  0  0  0  0  0  0  0  0  0
   31.2133  -13.9369   -1.8235 S   0  0  0  0  0  0  0  0  0  0  0  0
   32.1735  -13.0042   -0.6027 C   0  0  0  0  0  0  0  0  0  0  0  0
   33.2903  -12.2417   -1.2970 C   0  0  0  0  0  0  0  0  0  0  0  0
   35.3920  -16.6223   -4.2978 H   0  0  0  0  0  0  0  0  0  0  0  0
   37.7239  -12.7487   -3.1153 C   0  0  0  0  0  0  0  0  0  0  0  0
   38.6871  -12.9929   -2.1137 C   0  0  0  0  0  0  0  0  0  0  0  0
   39.9863  -12.4821   -2.2026 C   0  0  0  0  0  0  0  0  0  0  0  0
   40.3711  -11.7163   -3.3080 C   0  0  0  0  0  0  0  0  0  0  0  0
   39.4260  -11.4679   -4.3137 C   0  0  0  0  0  0  0  0  0  0  0  0
   38.1228  -11.9811   -4.2237 C   0  0  0  0  0  0  0  0  0  0  0  0
   37.0745  -11.6625   -5.5657 Cl  0  0  0  0  0  0  0  0  0  0  0  0
   41.7619  -11.1395   -3.4055 C   0  0  0  0  0  0  0  0  0  0  0  0
   41.7494   -9.7884   -3.5652 F   0  0  0  0  0  0  0  0  0  0  0  0
   42.4703  -11.6365   -4.4568 F   0  0  0  0  0  0  0  0  0  0  0  0
   42.5195  -11.3804   -2.2997 F   0  0  0  0  0  0  0  0  0  0  0  0
  1  2  1  0
  2  3  2  0
  3  4  1  0
  4 13  1  0
 13 14  2  0
 14 15  1  0
 15 16  2  0
 16 20  1  0
 20 21  1  0
 20 22  1  0
 20 23  1  0
 16 17  1  0
 17 18  2  0
 18 19  1  0
  4  5  2  0
  5  6  1  0
  6  7  2  0
  7  8  1  0
  8  9  1  0
  9 10  1  0
 10 11  1  0
  7  2  1  0
 18 13  1  0
 11  6  1  0
  1 12  1  0
M  END
> <minimizedAffinity>
-5.50440

> <CNNscore>
0.2503104210

> <CNNaffinity>
4.8216056824

> <CNN_VS>
1.2068980932

> <CNNaffinity_variance>
0.2904956043

$$$$



 23 25  0  0  0  0  0  0  0  0999 V2000
   40.0505  -10.0955   -4.7487 O   0  0  0  0  0  0  0  0  0  0  0  0
   38.9792  -10.8090   -5.1858 C   0  0  0  0  0  0  0  0  0  0  0  0
   38.3532  -11.4620   -4.2023 N   0  0  0  0  0  0  0  0  0  0  0  0
   37.2888  -12.1806   -4.5912 C   0  0  0  0  0  0  0  0  0  0  0  0
   36.8797  -12.3083   -5.8654 N   0  0  0  0  0  0  0  0  0  0  0  0
   37.5569  -11.6258   -6.8195 C   0  0  0  0  0  0  0  0  0  0  0  0
   38.6410  -10.8199   -6.5226 C   0  0  0  0  0  0  0  0  0  0  0  0
   39.4645  -10.0645   -7.5168 C   0  0  0  0  0  0  0  0  0  0  0  0
   38.7338   -9.8771   -9.1658 S   0  0  0  0  0  0  0  0  0  0  0  0
   38.0297  -11.5398   -9.3142 C   0  0  0  0  0  0  0  0  0  0  0  0
   37.0062  -11.7675   -8.2136 C   0  0  0  0  0  0  0  0  0  0  0  0
   40.2727  -10.0941   -3.8384 H   0  0  0  0  0  0  0  0  0  0  0  0
   36.5778  -12.9423   -3.5600 C   0  0  0  0  0  0  0  0  0  0  0  0
   36.8190  -14.3272   -3.4389 C   0  0  0  0  0  0  0  0  0  0  0  0
   36.1579  -15.1081   -2.4852 C   0  0  0  0  0  0  0  0  0  0  0  0
   35.2379  -14.5248   -1.6079 C   0  0  0  0  0  0  0  0  0  0  0  0
   34.9901  -13.1487   -1.7133 C   0  0  0  0  0  0  0  0  0  0  0  0
   35.6541  -12.3659   -2.6705 C   0  0  0  0  0  0  0  0  0  0  0  0
   35.3121  -10.6677   -2.6491 Cl  0  0  0  0  0  0  0  0  0  0  0  0
   34.5003  -15.3594   -0.5900 C   0  0  0  0  0  0  0  0  0  0  0  0
   33.2835  -15.7670   -1.0421 F   0  0  0  0  0  0  0  0  0  0  0  0
   34.2658  -14.6927    0.5738 F   0  0  0  0  0  0  0  0  0  0  0  0
   35.1704  -16.4925   -0.2409 F   0  0  0  0  0  0  0  0  0  0  0  0
  1  2  1  0
  2  3  2  0
  3  4  1  0
  4 13  1  0
 13 14  2  0
 14 15  1  0
 15 16  2  0
 16 20  1  0
 20 21  1  0
 20 22  1  0
 20 23  1  0
 16 17  1  0
 17 18  2  0
 18 19  1  0
  4  5  2  0
  5  6  1  0
  6  7  2  0
  7  8  1  0
  8  9  1  0
  9 10  1  0
 10 11  1  0
  7  2  1  0
 18 13  1  0
 11  6  1  0
  1 12  1  0
M  END
> <minimizedAffinity>
-6.58295

> <CNNscore>
0.2474125922

> <CNNaffinity>
4.8360733986

> <CNN_VS>
1.1965054274

> <CNNaffinity_variance>
0.3652061224

$$$$



 23 25  0  0  0  0  0  0  0  0999 V2000
   30.9187  -13.7650    0.4042 O   0  0  0  0  0  0  0  0  0  0  0  0
   31.1282  -13.1730   -0.8015 C   0  0  0  0  0  0  0  0  0  0  0  0
   32.4227  -13.0905   -1.1222 N   0  0  0  0  0  0  0  0  0  0  0  0
   32.6742  -12.5110   -2.3061 C   0  0  0  0  0  0  0  0  0  0  0  0
   31.7350  -11.9898   -3.1143 N   0  0  0  0  0  0  0  0  0  0  0  0
   30.4397  -12.0998   -2.7336 C   0  0  0  0  0  0  0  0  0  0  0  0
   30.0662  -12.7185   -1.5545 C   0  0  0  0  0  0  0  0  0  0  0  0
   28.6665  -12.8488   -1.0432 C   0  0  0  0  0  0  0  0  0  0  0  0
   27.3528  -12.5329   -2.2525 S   0  0  0  0  0  0  0  0  0  0  0  0
   28.1219  -11.1223   -3.0897 C   0  0  0  0  0  0  0  0  0  0  0  0
   29.4400  -11.5488   -3.7153 C   0  0  0  0  0  0  0  0  0  0  0  0
   31.6466  -14.0708    0.9087 H   0  0  0  0  0  0  0  0  0  0  0  0
   34.0789  -12.3663   -2.6996 C   0  0  0  0  0  0  0  0  0  0  0  0
   34.7003  -11.1052   -2.5801 C   0  0  0  0  0  0  0  0  0  0  0  0
   36.0325  -10.9032   -2.9555 C   0  0  0  0  0  0  0  0  0  0  0  0
   36.7955  -11.9642   -3.4541 C   0  0  0  0  0  0  0  0  0  0  0  0
   36.1931  -13.2246   -3.5754 C   0  0  0  0  0  0  0  0  0  0  0  0
   34.8564  -13.4263   -3.1982 C   0  0  0  0  0  0  0  0  0  0  0  0
   34.2541  -15.0454   -3.3301 Cl  0  0  0  0  0  0  0  0  0  0  0  0
   38.2263  -11.7552   -3.8848 C   0  0  0  0  0  0  0  0  0  0  0  0
   39.0752  -12.6442   -3.3014 F   0  0  0  0  0  0  0  0  0  0  0  0
   38.7007  -10.5185   -3.5690 F   0  0  0  0  0  0  0  0  0  0  0  0
   38.4056  -11.8902   -5.2281 F   0  0  0  0  0  0  0  0  0  0  0  0
  1  2  1  0
  2  3  2  0
  3  4  1  0
  4 13  1  0
 13 14  2  0
 14 15  1  0
 15 16  2  0
 16 20  1  0
 20 21  1  0
 20 22  1  0
 20 23  1  0
 16 17  1  0
 17 18  2  0
 18 19  1  0
  4  5  2  0
  5  6  1  0
  6  7  2  0
  7  8  1  0
  8  9  1  0
  9 10  1  0
 10 11  1  0
  7  2  1  0
 18 13  1  0
 11  6  1  0
  1 12  1  0
M  END
> <minimizedAffinity>
-5.47769

> <CNNscore>
0.2405917645

> <CNNaffinity>
4.5048084259

> <CNN_VS>
1.0838198662

> <CNNaffinity_variance>
0.1052886248

$$$$



 23 25  0  0  0  0  0  0  0  0999 V2000
   37.9699   -8.3834   -9.9641 O   0  0  0  0  0  0  0  0  0  0  0  0
   38.5724   -9.5936   -9.8224 C   0  0  0  0  0  0  0  0  0  0  0  0
   38.7505  -10.2251  -10.9864 N   0  0  0  0  0  0  0  0  0  0  0  0
   39.3423  -11.4258  -10.8915 C   0  0  0  0  0  0  0  0  0  0  0  0
   39.6951  -12.0121   -9.7345 N   0  0  0  0  0  0  0  0  0  0  0  0
   39.4856  -11.3248   -8.5862 C   0  0  0  0  0  0  0  0  0  0  0  0
   38.9240  -10.0610   -8.5736 C   0  0  0  0  0  0  0  0  0  0  0  0
   38.6247   -9.2517   -7.3518 C   0  0  0  0  0  0  0  0  0  0  0  0
   39.4296   -9.8039   -5.8237 S   0  0  0  0  0  0  0  0  0  0  0  0
   39.2333  -11.5877   -6.0719 C   0  0  0  0  0  0  0  0  0  0  0  0
   39.9605  -12.0165   -7.3361 C   0  0  0  0  0  0  0  0  0  0  0  0
   37.7347   -8.0741  -10.8167 H   0  0  0  0  0  0  0  0  0  0  0  0
   39.5388  -12.1793  -12.1335 C   0  0  0  0  0  0  0  0  0  0  0  0
   40.4053  -13.2928  -12.1326 C   0  0  0  0  0  0  0  0  0  0  0  0
   40.6446  -14.0393  -13.2910 C   0  0  0  0  0  0  0  0  0  0  0  0
   40.0124  -13.7029  -14.4925 C   0  0  0  0  0  0  0  0  0  0  0  0
   39.1453  -12.6010  -14.5086 C   0  0  0  0  0  0  0  0  0  0  0  0
   38.9057  -11.8527  -13.3457 C   0  0  0  0  0  0  0  0  0  0  0  0
   37.7593  -10.5611  -13.4827 Cl  0  0  0  0  0  0  0  0  0  0  0  0
   40.2794  -14.4851  -15.7548 C   0  0  0  0  0  0  0  0  0  0  0  0
   41.5174  -14.2378  -16.2622 F   0  0  0  0  0  0  0  0  0  0  0  0
   39.3990  -14.1985  -16.7533 F   0  0  0  0  0  0  0  0  0  0  0  0
   40.2099  -15.8331  -15.5734 F   0  0  0  0  0  0  0  0  0  0  0  0
  1  2  1  0
  2  3  2  0
  3  4  1  0
  4 13  1  0
 13 14  2  0
 14 15  1  0
 15 16  2  0
 16 20  1  0
 20 21  1  0
 20 22  1  0
 20 23  1  0
 16 17  1  0
 17 18  2  0
 18 19  1  0
  4  5  2  0
  5  6  1  0
  6  7  2  0
  7  8  1  0
  8  9  1  0
  9 10  1  0
 10 11  1  0
  7  2  1  0
 18 13  1  0
 11  6  1  0
  1 12  1  0
M  END
> <minimizedAffinity>
-9.98042

> <CNNscore>
0.2393732667

> <CNNaffinity>
5.5945229530

> <CNN_VS>
1.3391792774

> <CNNaffinity_variance>
0.4903555810

$$$$



 23 25  0  0  0  0  0  0  0  0999 V2000
   38.6385   -7.8633   -9.2621 O   0  0  0  0  0  0  0  0  0  0  0  0
   38.8077   -9.1337   -8.8090 C   0  0  0  0  0  0  0  0  0  0  0  0
   38.7891   -9.2167   -7.4755 N   0  0  0  0  0  0  0  0  0  0  0  0
   38.9538  -10.4551   -6.9855 C   0  0  0  0  0  0  0  0  0  0  0  0
   39.1785  -11.5478   -7.7357 N   0  0  0  0  0  0  0  0  0  0  0  0
   39.1906  -11.4003   -9.0821 C   0  0  0  0  0  0  0  0  0  0  0  0
   38.9866  -10.1765   -9.6932 C   0  0  0  0  0  0  0  0  0  0  0  0
   39.0213   -9.9207  -11.1665 C   0  0  0  0  0  0  0  0  0  0  0  0
   38.9193  -11.3899  -12.2244 S   0  0  0  0  0  0  0  0  0  0  0  0
   39.9858  -12.4761  -11.2420 C   0  0  0  0  0  0  0  0  0  0  0  0
   39.3868  -12.6749   -9.8591 C   0  0  0  0  0  0  0  0  0  0  0  0
   38.5176   -7.1610   -8.6537 H   0  0  0  0  0  0  0  0  0  0  0  0
   38.9709  -10.6052   -5.5275 C   0  0  0  0  0  0  0  0  0  0  0  0
   39.9787   -9.9585   -4.7812 C   0  0  0  0  0  0  0  0  0  0  0  0
   40.0554  -10.0790   -3.3898 C   0  0  0  0  0  0  0  0  0  0  0  0
   39.1143  -10.8442   -2.6932 C   0  0  0  0  0  0  0  0  0  0  0  0
   38.1043  -11.4901   -3.4204 C   0  0  0  0  0  0  0  0  0  0  0  0
   38.0281  -11.3685   -4.8165 C   0  0  0  0  0  0  0  0  0  0  0  0
   36.6917  -12.1567   -5.5872 Cl  0  0  0  0  0  0  0  0  0  0  0  0
   39.1988  -11.0019   -1.1950 C   0  0  0  0  0  0  0  0  0  0  0  0
   38.7469  -12.2156   -0.7782 F   0  0  0  0  0  0  0  0  0  0  0  0
   38.4639  -10.0746   -0.5212 F   0  0  0  0  0  0  0  0  0  0  0  0
   40.4689  -10.8891   -0.7163 F   0  0  0  0  0  0  0  0  0  0  0  0
  1  2  1  0
  2  3  2  0
  3  4  1  0
  4 13  1  0
 13 14  2  0
 14 15  1  0
 15 16  2  0
 16 20  1  0
 20 21  1  0
 20 22  1  0
 20 23  1  0
 16 17  1  0
 17 18  2  0
 18 19  1  0
  4  5  2  0
  5  6  1  0
  6  7  2  0
  7  8  1  0
  8  9  1  0
  9 10  1  0
 10 11  1  0
  7  2  1  0
 18 13  1  0
 11  6  1  0
  1 12  1  0
M  END
> <minimizedAffinity>
-7.32001

> <CNNscore>
0.2351042479

> <CNNaffinity>
5.4918303490

> <CNN_VS>
1.2911525965

> <CNNaffinity_variance>
0.1416222900

$$$$
