


 19 20  0  0  0  0  0  0  0  0999 V2000
  -16.4837   16.6848   35.8791 C   0  0  0  0  0  0  0  0  0  0  0  0
  -16.8387   17.7466   34.8080 C   0  0  0  0  0  0  0  0  0  0  0  0
  -18.3189   17.4202   34.5443 C   0  0  0  0  0  0  0  0  0  0  0  0
  -18.2750   15.8813   34.5132 C   0  0  0  0  0  0  0  0  0  0  0  0
  -19.6579   15.2317   34.5565 C   0  0  0  0  0  0  0  0  0  0  0  0
  -17.2810   15.4705   35.5361 N   0  0  0  0  0  0  0  0  0  0  0  0
  -17.8361   14.8669   36.7430 C   0  0  0  0  0  0  0  0  0  0  0  0
  -12.2587   15.6755   36.0405 C   0  0  0  0  0  0  0  0  0  0  0  0
  -12.9913   15.4761   34.8717 C   0  0  0  0  0  0  0  0  0  0  0  0
  -14.3507   15.8087   34.8269 C   0  0  0  0  0  0  0  0  0  0  0  0
  -15.0042   16.3368   35.9512 C   0  0  0  0  0  0  0  0  0  0  0  0
  -14.2528   16.5486   37.1157 C   0  0  0  0  0  0  0  0  0  0  0  0
  -12.8964   16.2152   37.1584 C   0  0  0  0  0  0  0  0  0  0  0  0
  -10.2972   15.9805   37.3469 C   0  0  0  0  0  0  0  0  0  0  0  0
  -10.9325   15.3929   36.2187 O   0  0  0  0  0  0  0  0  0  0  0  0
  -16.6906   19.1140   35.1999 O   0  0  0  0  0  0  0  0  0  0  0  0
  -15.4912   19.7159   34.7374 C   0  0  0  0  0  0  0  0  0  0  0  0
  -19.1877   17.8495   35.6065 O   0  0  0  0  0  0  0  0  0  0  0  0
  -20.1995   18.7446   35.1661 C   0  0  0  0  0  0  0  0  0  0  0  0
 14 15  1  0
 15  8  1  0
  8  9  2  0
  9 10  1  0
 10 11  2  0
  1 11  1  0
  1  2  1  0
  2 16  1  0
 16 17  1  0
  2  3  1  0
  3 18  1  0
 18 19  1  0
  3  4  1  0
  4  5  1  0
  4  6  1  0
  6  7  1  0
 11 12  1  0
 12 13  2  0
 13  8  1  0
  6  1  1  0
M  END
> <minimizedAffinity>
-4.38407

> <CNNscore>
0.7381201386

> <CNNaffinity>
3.7146046162

> <CNN_VS>
2.7418243885

> <CNNaffinity_variance>
0.5893434882

$$$$



 19 20  0  0  0  0  0  0  0  0999 V2000
  -16.5413   12.5207   33.7474 C   0  0  0  0  0  0  0  0  0  0  0  0
  -17.7265   11.7335   33.1338 C   0  0  0  0  0  0  0  0  0  0  0  0
  -16.9837   10.6172   32.3794 C   0  0  0  0  0  0  0  0  0  0  0  0
  -15.8241   11.4132   31.7525 C   0  0  0  0  0  0  0  0  0  0  0  0
  -14.7252   10.5280   31.1653 C   0  0  0  0  0  0  0  0  0  0  0  0
  -15.4321   12.4382   32.7521 N   0  0  0  0  0  0  0  0  0  0  0  0
  -14.1591   12.2028   33.4251 C   0  0  0  0  0  0  0  0  0  0  0  0
  -17.3867   16.6826   34.6745 C   0  0  0  0  0  0  0  0  0  0  0  0
  -16.1436   16.1278   34.9736 C   0  0  0  0  0  0  0  0  0  0  0  0
  -15.8780   14.7876   34.6668 C   0  0  0  0  0  0  0  0  0  0  0  0
  -16.8523   13.9758   34.0655 C   0  0  0  0  0  0  0  0  0  0  0  0
  -18.0929   14.5497   33.7542 C   0  0  0  0  0  0  0  0  0  0  0  0
  -18.3561   15.8872   34.0618 C   0  0  0  0  0  0  0  0  0  0  0  0
  -18.9126   18.4447   34.2125 C   0  0  0  0  0  0  0  0  0  0  0  0
  -17.7753   17.9703   34.9218 O   0  0  0  0  0  0  0  0  0  0  0  0
  -18.6612   11.1742   34.0604 O   0  0  0  0  0  0  0  0  0  0  0  0
  -18.6519   11.8023   35.3332 C   0  0  0  0  0  0  0  0  0  0  0  0
  -16.4496    9.6071   33.2522 O   0  0  0  0  0  0  0  0  0  0  0  0
  -16.7191    8.2870   32.8009 C   0  0  0  0  0  0  0  0  0  0  0  0
 14 15  1  0
 15  8  1  0
  8  9  2  0
  9 10  1  0
 10 11  2  0
  1 11  1  0
  1  2  1  0
  2 16  1  0
 16 17  1  0
  2  3  1  0
  3 18  1  0
 18 19  1  0
  3  4  1  0
  4  5  1  0
  4  6  1  0
  6  7  1  0
 11 12  1  0
 12 13  2  0
 13  8  1  0
  6  1  1  0
M  END
> <minimizedAffinity>
-6.03506

> <CNNscore>
0.4393654168

> <CNNaffinity>
4.3366818428

> <CNN_VS>
1.9053879976

> <CNNaffinity_variance>
0.3471260071

$$$$



 19 20  0  0  0  0  0  0  0  0999 V2000
  -16.4616   12.5903   33.7449 C   0  0  0  0  0  0  0  0  0  0  0  0
  -17.6752   11.8288   33.1546 C   0  0  0  0  0  0  0  0  0  0  0  0
  -16.9714   10.6951   32.3888 C   0  0  0  0  0  0  0  0  0  0  0  0
  -15.8061   11.4641   31.7392 C   0  0  0  0  0  0  0  0  0  0  0  0
  -14.7382   10.5536   31.1336 C   0  0  0  0  0  0  0  0  0  0  0  0
  -15.3729   12.4814   32.7295 N   0  0  0  0  0  0  0  0  0  0  0  0
  -14.0933   12.2187   33.3795 C   0  0  0  0  0  0  0  0  0  0  0  0
  -17.2847   16.7620   34.6471 C   0  0  0  0  0  0  0  0  0  0  0  0
  -18.2853   15.9356   34.1388 C   0  0  0  0  0  0  0  0  0  0  0  0
  -18.0128   14.5916   33.8557 C   0  0  0  0  0  0  0  0  0  0  0  0
  -16.7342   14.0524   34.0659 C   0  0  0  0  0  0  0  0  0  0  0  0
  -15.7406   14.8891   34.5933 C   0  0  0  0  0  0  0  0  0  0  0  0
  -16.0145   16.2303   34.8745 C   0  0  0  0  0  0  0  0  0  0  0  0
  -16.2556   18.8965   34.8253 C   0  0  0  0  0  0  0  0  0  0  0  0
  -17.4158   18.0862   34.9627 O   0  0  0  0  0  0  0  0  0  0  0  0
  -18.6049   11.2918   34.0993 O   0  0  0  0  0  0  0  0  0  0  0  0
  -19.8952   11.8792   34.0306 C   0  0  0  0  0  0  0  0  0  0  0  0
  -16.4441    9.6746   33.2536 O   0  0  0  0  0  0  0  0  0  0  0  0
  -16.7213    8.3599   32.7913 C   0  0  0  0  0  0  0  0  0  0  0  0
 14 15  1  0
 15  8  1  0
  8  9  2  0
  9 10  1  0
 10 11  2  0
  1 11  1  0
  1  2  1  0
  2 16  1  0
 16 17  1  0
  2  3  1  0
  3 18  1  0
 18 19  1  0
  3  4  1  0
  4  5  1  0
  4  6  1  0
  6  7  1  0
 11 12  1  0
 12 13  2  0
 13  8  1  0
  6  1  1  0
M  END
> <minimizedAffinity>
-6.04411

> <CNNscore>
0.4304309189

> <CNNaffinity>
4.2765650749

> <CNN_VS>
1.8407658339

> <CNNaffinity_variance>
0.6783778667

$$$$



 19 20  0  0  0  0  0  0  0  0999 V2000
  -17.2570   18.0415   35.3952 C   0  0  0  0  0  0  0  0  0  0  0  0
  -16.6654   19.4651   35.5508 C   0  0  0  0  0  0  0  0  0  0  0  0
  -17.8724   20.3338   35.1561 C   0  0  0  0  0  0  0  0  0  0  0  0
  -18.4062   19.5530   33.9408 C   0  0  0  0  0  0  0  0  0  0  0  0
  -19.7933   20.0068   33.4870 C   0  0  0  0  0  0  0  0  0  0  0  0
  -18.2111   18.1143   34.2497 N   0  0  0  0  0  0  0  0  0  0  0  0
  -19.4277   17.3672   34.5506 C   0  0  0  0  0  0  0  0  0  0  0  0
  -14.3292   14.9063   34.6923 C   0  0  0  0  0  0  0  0  0  0  0  0
  -15.6367   14.5873   35.0544 C   0  0  0  0  0  0  0  0  0  0  0  0
  -16.5748   15.6034   35.2739 C   0  0  0  0  0  0  0  0  0  0  0  0
  -16.2208   16.9555   35.1455 C   0  0  0  0  0  0  0  0  0  0  0  0
  -14.9073   17.2633   34.7643 C   0  0  0  0  0  0  0  0  0  0  0  0
  -13.9725   16.2477   34.5464 C   0  0  0  0  0  0  0  0  0  0  0  0
  -13.7002   12.7091   34.0414 C   0  0  0  0  0  0  0  0  0  0  0  0
  -13.3193   14.0160   34.4519 O   0  0  0  0  0  0  0  0  0  0  0  0
  -16.2017   19.8177   36.8568 O   0  0  0  0  0  0  0  0  0  0  0  0
  -16.5245   18.8632   37.8565 C   0  0  0  0  0  0  0  0  0  0  0  0
  -18.8876   20.3821   36.1732 O   0  0  0  0  0  0  0  0  0  0  0  0
  -19.0933   21.6903   36.6880 C   0  0  0  0  0  0  0  0  0  0  0  0
 14 15  1  0
 15  8  1  0
  8  9  2  0
  9 10  1  0
 10 11  2  0
  1 11  1  0
  1  2  1  0
  2 16  1  0
 16 17  1  0
  2  3  1  0
  3 18  1  0
 18 19  1  0
  3  4  1  0
  4  5  1  0
  4  6  1  0
  6  7  1  0
 11 12  1  0
 12 13  2  0
 13  8  1  0
  6  1  1  0
M  END
> <minimizedAffinity>
-4.07472

> <CNNscore>
0.3752694130

> <CNNaffinity>
3.3077461720

> <CNN_VS>
1.2412959337

> <CNNaffinity_variance>
0.6876881719

$$$$



 19 20  0  0  0  0  0  0  0  0999 V2000
  -17.3807   14.3960   34.7512 C   0  0  0  0  0  0  0  0  0  0  0  0
  -16.9586   15.8857   34.6889 C   0  0  0  0  0  0  0  0  0  0  0  0
  -18.2139   16.5745   35.2518 C   0  0  0  0  0  0  0  0  0  0  0  0
  -19.3244   15.7746   34.5459 C   0  0  0  0  0  0  0  0  0  0  0  0
  -20.7175   16.0288   35.1212 C   0  0  0  0  0  0  0  0  0  0  0  0
  -18.8470   14.3710   34.4734 N   0  0  0  0  0  0  0  0  0  0  0  0
  -19.5195   13.4331   35.3662 C   0  0  0  0  0  0  0  0  0  0  0  0
  -15.2460   11.8178   31.9779 C   0  0  0  0  0  0  0  0  0  0  0  0
  -14.6774   12.1685   33.2011 C   0  0  0  0  0  0  0  0  0  0  0  0
  -15.3742   12.9954   34.0907 C   0  0  0  0  0  0  0  0  0  0  0  0
  -16.6462   13.4944   33.7700 C   0  0  0  0  0  0  0  0  0  0  0  0
  -17.2148   13.1210   32.5442 C   0  0  0  0  0  0  0  0  0  0  0  0
  -16.5174   12.2962   31.6575 C   0  0  0  0  0  0  0  0  0  0  0  0
  -14.8331    9.6193   31.1761 C   0  0  0  0  0  0  0  0  0  0  0  0
  -14.6754   11.0239   31.0217 O   0  0  0  0  0  0  0  0  0  0  0  0
  -15.8049   16.2483   35.4522 O   0  0  0  0  0  0  0  0  0  0  0  0
  -14.7018   16.6633   34.6612 C   0  0  0  0  0  0  0  0  0  0  0  0
  -18.3494   16.4217   36.6750 O   0  0  0  0  0  0  0  0  0  0  0  0
  -18.1342   17.6338   37.3846 C   0  0  0  0  0  0  0  0  0  0  0  0
 14 15  1  0
 15  8  1  0
  8  9  2  0
  9 10  1  0
 10 11  2  0
  1 11  1  0
  1  2  1  0
  2 16  1  0
 16 17  1  0
  2  3  1  0
  3 18  1  0
 18 19  1  0
  3  4  1  0
  4  5  1  0
  4  6  1  0
  6  7  1  0
 11 12  1  0
 12 13  2  0
 13  8  1  0
  6  1  1  0
M  END
> <minimizedAffinity>
-5.36224

> <CNNscore>
0.3244580030

> <CNNaffinity>
4.1222701073

> <CNN_VS>
1.3375035524

> <CNNaffinity_variance>
0.3662093878

$$$$



 19 20  0  0  0  0  0  0  0  0999 V2000
  -20.3031   13.9297   36.0241 C   0  0  0  0  0  0  0  0  0  0  0  0
  -21.3285   14.9842   35.5368 C   0  0  0  0  0  0  0  0  0  0  0  0
  -22.6370   14.1772   35.5971 C   0  0  0  0  0  0  0  0  0  0  0  0
  -22.1724   12.8283   35.0175 C   0  0  0  0  0  0  0  0  0  0  0  0
  -23.1855   11.7006   35.2121 C   0  0  0  0  0  0  0  0  0  0  0  0
  -20.7896   12.6144   35.5127 N   0  0  0  0  0  0  0  0  0  0  0  0
  -20.6420   11.5835   36.5345 C   0  0  0  0  0  0  0  0  0  0  0  0
  -16.2127   14.6122   34.7212 C   0  0  0  0  0  0  0  0  0  0  0  0
  -16.4835   13.7607   35.7909 C   0  0  0  0  0  0  0  0  0  0  0  0
  -17.8045   13.5425   36.2008 C   0  0  0  0  0  0  0  0  0  0  0  0
  -18.8769   14.1785   35.5561 C   0  0  0  0  0  0  0  0  0  0  0  0
  -18.5931   15.0194   34.4709 C   0  0  0  0  0  0  0  0  0  0  0  0
  -17.2739   15.2363   34.0640 C   0  0  0  0  0  0  0  0  0  0  0  0
  -14.3664   16.1080   34.6956 C   0  0  0  0  0  0  0  0  0  0  0  0
  -14.9748   14.9128   34.2236 O   0  0  0  0  0  0  0  0  0  0  0  0
  -21.4371   16.1721   36.3257 O   0  0  0  0  0  0  0  0  0  0  0  0
  -21.6743   17.3460   35.5640 C   0  0  0  0  0  0  0  0  0  0  0  0
  -23.1145   13.9788   36.9388 O   0  0  0  0  0  0  0  0  0  0  0  0
  -24.4025   14.5380   37.1561 C   0  0  0  0  0  0  0  0  0  0  0  0
 14 15  1  0
 15  8  1  0
  8  9  2  0
  9 10  1  0
 10 11  2  0
  1 11  1  0
  1  2  1  0
  2 16  1  0
 16 17  1  0
  2  3  1  0
  3 18  1  0
 18 19  1  0
  3  4  1  0
  4  5  1  0
  4  6  1  0
  6  7  1  0
 11 12  1  0
 12 13  2  0
 13  8  1  0
  6  1  1  0
M  END
> <minimizedAffinity>
-4.12878

> <CNNscore>
0.3100892901

> <CNNaffinity>
3.4748096466

> <CNN_VS>
1.0775012970

> <CNNaffinity_variance>
0.4178079367

$$$$



 19 20  0  0  0  0  0  0  0  0999 V2000
  -16.8983   14.6902   34.6399 C   0  0  0  0  0  0  0  0  0  0  0  0
  -18.4118   14.4788   34.3837 C   0  0  0  0  0  0  0  0  0  0  0  0
  -18.4191   13.0550   33.8007 C   0  0  0  0  0  0  0  0  0  0  0  0
  -17.2012   13.1208   32.8606 C   0  0  0  0  0  0  0  0  0  0  0  0
  -16.7600   11.7534   32.3392 C   0  0  0  0  0  0  0  0  0  0  0  0
  -16.1895   13.9639   33.5453 N   0  0  0  0  0  0  0  0  0  0  0  0
  -15.0317   13.2498   34.0731 C   0  0  0  0  0  0  0  0  0  0  0  0
  -15.7039   18.8691   34.7163 C   0  0  0  0  0  0  0  0  0  0  0  0
  -17.0512   18.5176   34.6538 C   0  0  0  0  0  0  0  0  0  0  0  0
  -17.4274   17.1690   34.6347 C   0  0  0  0  0  0  0  0  0  0  0  0
  -16.4645   16.1483   34.6675 C   0  0  0  0  0  0  0  0  0  0  0  0
  -15.1135   16.5142   34.7474 C   0  0  0  0  0  0  0  0  0  0  0  0
  -14.7403   17.8608   34.7656 C   0  0  0  0  0  0  0  0  0  0  0  0
  -15.8999   21.0915   35.5342 C   0  0  0  0  0  0  0  0  0  0  0  0
  -15.2030   20.1414   34.7386 O   0  0  0  0  0  0  0  0  0  0  0  0
  -19.2635   14.5538   35.5301 O   0  0  0  0  0  0  0  0  0  0  0  0
  -20.5118   15.1799   35.2765 C   0  0  0  0  0  0  0  0  0  0  0  0
  -18.1985   12.0391   34.7940 O   0  0  0  0  0  0  0  0  0  0  0  0
  -19.4039   11.5672   35.3800 C   0  0  0  0  0  0  0  0  0  0  0  0
 14 15  1  0
 15  8  1  0
  8  9  2  0
  9 10  1  0
 10 11  2  0
  1 11  1  0
  1  2  1  0
  2 16  1  0
 16 17  1  0
  2  3  1  0
  3 18  1  0
 18 19  1  0
  3  4  1  0
  4  5  1  0
  4  6  1  0
  6  7  1  0
 11 12  1  0
 12 13  2  0
 13  8  1  0
  6  1  1  0
M  END
> <minimizedAffinity>
-4.97375

> <CNNscore>
0.2591017187

> <CNNaffinity>
4.0214705467

> <CNN_VS>
1.0419698954

> <CNNaffinity_variance>
0.3125477135

$$$$



 19 20  0  0  0  0  0  0  0  0999 V2000
  -16.6385   15.4620   34.5457 C   0  0  0  0  0  0  0  0  0  0  0  0
  -15.3560   14.7821   35.0879 C   0  0  0  0  0  0  0  0  0  0  0  0
  -15.9006   13.4026   35.4969 C   0  0  0  0  0  0  0  0  0  0  0  0
  -17.2307   13.8019   36.1624 C   0  0  0  0  0  0  0  0  0  0  0  0
  -18.1604   12.6173   36.4240 C   0  0  0  0  0  0  0  0  0  0  0  0
  -17.7634   14.9449   35.3795 N   0  0  0  0  0  0  0  0  0  0  0  0
  -18.9224   14.6471   34.5447 C   0  0  0  0  0  0  0  0  0  0  0  0
  -16.6019   19.8070   34.6702 C   0  0  0  0  0  0  0  0  0  0  0  0
  -17.8049   19.1105   34.5690 C   0  0  0  0  0  0  0  0  0  0  0  0
  -17.8079   17.7107   34.5346 C   0  0  0  0  0  0  0  0  0  0  0  0
  -16.6093   16.9827   34.5907 C   0  0  0  0  0  0  0  0  0  0  0  0
  -15.4070   17.6938   34.7095 C   0  0  0  0  0  0  0  0  0  0  0  0
  -15.4063   19.0909   34.7429 C   0  0  0  0  0  0  0  0  0  0  0  0
  -15.3766   21.7198   33.9728 C   0  0  0  0  0  0  0  0  0  0  0  0
  -16.4584   21.1664   34.7110 O   0  0  0  0  0  0  0  0  0  0  0  0
  -14.2765   14.6385   34.1610 O   0  0  0  0  0  0  0  0  0  0  0  0
  -12.9981   14.8798   34.7285 C   0  0  0  0  0  0  0  0  0  0  0  0
  -16.1696   12.5478   34.3725 O   0  0  0  0  0  0  0  0  0  0  0  0
  -15.1893   11.5336   34.2014 C   0  0  0  0  0  0  0  0  0  0  0  0
 14 15  1  0
 15  8  1  0
  8  9  2  0
  9 10  1  0
 10 11  2  0
  1 11  1  0
  1  2  1  0
  2 16  1  0
 16 17  1  0
  2  3  1  0
  3 18  1  0
 18 19  1  0
  3  4  1  0
  4  5  1  0
  4  6  1  0
  6  7  1  0
 11 12  1  0
 12 13  2  0
 13  8  1  0
  6  1  1  0
M  END
> <minimizedAffinity>
-4.73470

> <CNNscore>
0.2474121302

> <CNNaffinity>
3.4453341961

> <CNN_VS>
0.8524174690

> <CNNaffinity_variance>
0.6906736493

$$$$



 19 20  0  0  0  0  0  0  0  0999 V2000
  -15.5996   16.4815   35.4623 C   0  0  0  0  0  0  0  0  0  0  0  0
  -15.7130   15.2664   34.5075 C   0  0  0  0  0  0  0  0  0  0  0  0
  -14.4483   14.4744   34.8820 C   0  0  0  0  0  0  0  0  0  0  0  0
  -13.4188   15.6132   35.0033 C   0  0  0  0  0  0  0  0  0  0  0  0
  -12.1059   15.1802   35.6552 C   0  0  0  0  0  0  0  0  0  0  0  0
  -14.1406   16.7684   35.5931 N   0  0  0  0  0  0  0  0  0  0  0  0
  -13.8035   17.0773   36.9786 C   0  0  0  0  0  0  0  0  0  0  0  0
  -17.7464   20.0072   34.0997 C   0  0  0  0  0  0  0  0  0  0  0  0
  -18.4121   18.7954   34.2756 C   0  0  0  0  0  0  0  0  0  0  0  0
  -17.7139   17.6659   34.7197 C   0  0  0  0  0  0  0  0  0  0  0  0
  -16.3371   17.7244   34.9862 C   0  0  0  0  0  0  0  0  0  0  0  0
  -15.6819   18.9529   34.8218 C   0  0  0  0  0  0  0  0  0  0  0  0
  -16.3806   20.0787   34.3778 C   0  0  0  0  0  0  0  0  0  0  0  0
  -17.7232   21.7871   32.5255 C   0  0  0  0  0  0  0  0  0  0  0  0
  -18.3056   21.1794   33.6714 O   0  0  0  0  0  0  0  0  0  0  0  0
  -16.8773   14.4498   34.6592 O   0  0  0  0  0  0  0  0  0  0  0  0
  -17.4830   14.0817   33.4295 C   0  0  0  0  0  0  0  0  0  0  0  0
  -14.5611   13.7989   36.1463 O   0  0  0  0  0  0  0  0  0  0  0  0
  -14.5480   12.3837   36.0205 C   0  0  0  0  0  0  0  0  0  0  0  0
 14 15  1  0
 15  8  1  0
  8  9  2  0
  9 10  1  0
 10 11  2  0
  1 11  1  0
  1  2  1  0
  2 16  1  0
 16 17  1  0
  2  3  1  0
  3 18  1  0
 18 19  1  0
  3  4  1  0
  4  5  1  0
  4  6  1  0
  6  7  1  0
 11 12  1  0
 12 13  2  0
 13  8  1  0
  6  1  1  0
M  END
> <minimizedAffinity>
-4.57531

> <CNNscore>
0.2356411368

> <CNNaffinity>
3.3835802078

> <CNN_VS>
0.7973107100

> <CNNaffinity_variance>
0.7912850976

$$$$
