


 17 18  0  0  0  0  0  0  0  0999 V2000
   -0.8437    6.4320   15.7289 C   0  0  0  0  0  0  0  0  0  0  0  0
   -1.7344    5.4629   16.5620 C   0  0  0  0  0  0  0  0  0  0  0  0
   -3.0013    6.1722   17.1059 C   0  0  0  0  0  0  0  0  0  0  0  0
   -4.0258    5.2284   17.4936 O   0  0  0  0  0  0  0  0  0  0  0  0
   -3.6049    7.1656   16.0757 C   0  0  0  0  0  0  0  0  0  0  0  0
   -4.7541    7.7947   16.5957 O   0  0  0  0  0  0  0  0  0  0  0  0
   -3.9336    6.5274   14.7226 C   0  0  0  0  0  0  0  0  0  0  0  0
   -2.6491    6.6862   13.9141 C   0  0  0  0  0  0  0  0  0  0  0  0
   -1.6915    7.4067   14.8680 C   0  0  0  0  0  0  0  0  0  0  0  0
   -2.6015    8.1651   15.7394 N   0  0  0  0  0  0  0  0  0  0  0  0
   -4.3214    4.7334   16.7135 H   0  0  0  0  0  0  0  0  0  0  0  0
   -5.4180    7.1232   16.8174 H   0  0  0  0  0  0  0  0  0  0  0  0
   -3.0165    8.9543   15.2440 H   0  0  0  0  0  0  0  0  0  0  0  0
    0.6574    4.5896   15.3967 C   0  0  0  0  0  0  0  0  0  0  0  0
    0.0173    5.7191   14.8170 O   0  0  0  0  0  0  0  0  0  0  0  0
   -0.9202    4.9365   17.6361 O   0  0  0  0  0  0  0  0  0  0  0  0
   -1.3359    3.6716   18.1304 C   0  0  0  0  0  0  0  0  0  0  0  0
 14 15  1  0
  1 15  1  0
  1  2  1  0
  2 16  1  0
 16 17  1  0
  2  3  1  0
  3  4  1  0
  3  5  1  0
  5  6  1  0
  5  7  1  0
  7  8  1  0
  9  8  1  0
  9 10  1  0
  9  1  1  0
 10  5  1  0
  4 11  1  0
  6 12  1  0
 10 13  1  0
M  END
> <minimizedAffinity>
-6.90397

> <CNNscore>
0.2753710151

> <CNNaffinity>
3.5306098461

> <CNN_VS>
0.9722276330

> <CNNaffinity_variance>
0.5236676335

$$$$



 17 18  0  0  0  0  0  0  0  0999 V2000
   -1.0285    7.0838   15.4921 C   0  0  0  0  0  0  0  0  0  0  0  0
   -1.5359    5.8346   16.2723 C   0  0  0  0  0  0  0  0  0  0  0  0
   -2.8582    6.1272   17.0271 C   0  0  0  0  0  0  0  0  0  0  0  0
   -3.5577    4.9132   17.3844 O   0  0  0  0  0  0  0  0  0  0  0  0
   -3.8170    7.0289   16.2024 C   0  0  0  0  0  0  0  0  0  0  0  0
   -5.0094    7.2779   16.9116 O   0  0  0  0  0  0  0  0  0  0  0  0
   -4.1486    6.4704   14.8152 C   0  0  0  0  0  0  0  0  0  0  0  0
   -3.0589    7.0426   13.9131 C   0  0  0  0  0  0  0  0  0  0  0  0
   -2.1953    7.8861   14.8559 C   0  0  0  0  0  0  0  0  0  0  0  0
   -3.1449    8.2855   15.9054 N   0  0  0  0  0  0  0  0  0  0  0  0
   -3.8192    4.4415   16.5781 H   0  0  0  0  0  0  0  0  0  0  0  0
   -5.4516    6.4367   17.1060 H   0  0  0  0  0  0  0  0  0  0  0  0
   -3.8030    8.9853   15.5625 H   0  0  0  0  0  0  0  0  0  0  0  0
   -0.2047    7.5986   13.2980 C   0  0  0  0  0  0  0  0  0  0  0  0
   -0.1425    6.7195   14.4136 O   0  0  0  0  0  0  0  0  0  0  0  0
   -0.4852    5.4315   17.1817 O   0  0  0  0  0  0  0  0  0  0  0  0
   -0.2021    4.0398   17.1818 C   0  0  0  0  0  0  0  0  0  0  0  0
 14 15  1  0
  1 15  1  0
  1  2  1  0
  2 16  1  0
 16 17  1  0
  2  3  1  0
  3  4  1  0
  3  5  1  0
  5  6  1  0
  5  7  1  0
  7  8  1  0
  9  8  1  0
  9 10  1  0
  9  1  1  0
 10  5  1  0
  4 11  1  0
  6 12  1  0
 10 13  1  0
M  END
> <minimizedAffinity>
-6.83393

> <CNNscore>
0.2692787349

> <CNNaffinity>
3.8040087223

> <CNN_VS>
1.0243386030

> <CNNaffinity_variance>
0.2202211767

$$$$



 17 18  0  0  0  0  0  0  0  0999 V2000
   -0.2446    3.8878   15.9076 C   0  0  0  0  0  0  0  0  0  0  0  0
   -0.0908    5.3591   16.3958 C   0  0  0  0  0  0  0  0  0  0  0  0
   -1.4672    6.0291   16.6419 C   0  0  0  0  0  0  0  0  0  0  0  0
   -1.3565    7.1999   17.4833 O   0  0  0  0  0  0  0  0  0  0  0  0
   -2.4891    5.0509   17.2832 C   0  0  0  0  0  0  0  0  0  0  0  0
   -3.7294    5.6859   17.4960 O   0  0  0  0  0  0  0  0  0  0  0  0
   -2.0017    4.4192   18.5908 C   0  0  0  0  0  0  0  0  0  0  0  0
   -1.2786    3.1515   18.1451 C   0  0  0  0  0  0  0  0  0  0  0  0
   -1.4152    3.1578   16.6195 C   0  0  0  0  0  0  0  0  0  0  0  0
   -2.6630    3.9051   16.4025 N   0  0  0  0  0  0  0  0  0  0  0  0
   -1.0356    6.9384   18.3606 H   0  0  0  0  0  0  0  0  0  0  0  0
   -3.6060    6.4479   18.0834 H   0  0  0  0  0  0  0  0  0  0  0  0
   -3.4771    3.3522   16.6706 H   0  0  0  0  0  0  0  0  0  0  0  0
    1.2984    2.2369   15.1003 C   0  0  0  0  0  0  0  0  0  0  0  0
    0.9431    3.1103   16.1645 O   0  0  0  0  0  0  0  0  0  0  0  0
    0.6742    6.0728   15.3962 O   0  0  0  0  0  0  0  0  0  0  0  0
   -0.0817    6.5261   14.2826 C   0  0  0  0  0  0  0  0  0  0  0  0
 14 15  1  0
  1 15  1  0
  1  2  1  0
  2 16  1  0
 16 17  1  0
  2  3  1  0
  3  4  1  0
  3  5  1  0
  5  6  1  0
  5  7  1  0
  7  8  1  0
  9  8  1  0
  9 10  1  0
  9  1  1  0
 10  5  1  0
  4 11  1  0
  6 12  1  0
 10 13  1  0
M  END
> <minimizedAffinity>
-6.40295

> <CNNscore>
0.2591311634

> <CNNaffinity>
3.1747329235

> <CNN_VS>
0.8226722479

> <CNNaffinity_variance>
0.6388559341

$$$$



 17 18  0  0  0  0  0  0  0  0999 V2000
   -1.0378    3.3053   14.4271 C   0  0  0  0  0  0  0  0  0  0  0  0
   -0.5048    3.6466   15.8505 C   0  0  0  0  0  0  0  0  0  0  0  0
   -0.4581    5.1771   16.0943 C   0  0  0  0  0  0  0  0  0  0  0  0
   -0.3902    5.4992   17.5023 O   0  0  0  0  0  0  0  0  0  0  0  0
   -1.6818    5.9069   15.4759 C   0  0  0  0  0  0  0  0  0  0  0  0
   -1.6136    7.2948   15.7129 O   0  0  0  0  0  0  0  0  0  0  0  0
   -3.0313    5.3667   15.9589 C   0  0  0  0  0  0  0  0  0  0  0  0
   -3.3660    4.2582   14.9650 C   0  0  0  0  0  0  0  0  0  0  0  0
   -2.1838    4.2575   13.9910 C   0  0  0  0  0  0  0  0  0  0  0  0
   -1.7114    5.6491   14.0436 N   0  0  0  0  0  0  0  0  0  0  0  0
   -1.1974    5.1915   17.9436 H   0  0  0  0  0  0  0  0  0  0  0  0
   -1.5942    7.4590   16.6687 H   0  0  0  0  0  0  0  0  0  0  0  0
   -2.3581    6.2780   13.5675 H   0  0  0  0  0  0  0  0  0  0  0  0
   -0.9195    1.1401   13.3997 C   0  0  0  0  0  0  0  0  0  0  0  0
   -1.5672    1.9651   14.3595 O   0  0  0  0  0  0  0  0  0  0  0  0
    0.8068    3.0496   15.9801 O   0  0  0  0  0  0  0  0  0  0  0  0
    0.8563    1.9016   16.8147 C   0  0  0  0  0  0  0  0  0  0  0  0
 14 15  1  0
  1 15  1  0
  1  2  1  0
  2 16  1  0
 16 17  1  0
  2  3  1  0
  3  4  1  0
  3  5  1  0
  5  6  1  0
  5  7  1  0
  7  8  1  0
  9  8  1  0
  9 10  1  0
  9  1  1  0
 10  5  1  0
  4 11  1  0
  6 12  1  0
 10 13  1  0
M  END
> <minimizedAffinity>
-4.54808

> <CNNscore>
0.2521127462

> <CNNaffinity>
3.2888991833

> <CNN_VS>
0.8291733861

> <CNNaffinity_variance>
0.1583850831

$$$$



 17 18  0  0  0  0  0  0  0  0999 V2000
   -1.6236    6.1999   14.9040 C   0  0  0  0  0  0  0  0  0  0  0  0
   -0.7451    5.0612   14.3055 C   0  0  0  0  0  0  0  0  0  0  0  0
   -0.6985    3.8224   15.2368 C   0  0  0  0  0  0  0  0  0  0  0  0
   -0.2713    2.6329   14.5343 O   0  0  0  0  0  0  0  0  0  0  0  0
   -2.0719    3.5389   15.9045 C   0  0  0  0  0  0  0  0  0  0  0  0
   -2.0005    2.4087   16.7439 O   0  0  0  0  0  0  0  0  0  0  0  0
   -3.2203    3.3680   14.9054 C   0  0  0  0  0  0  0  0  0  0  0  0
   -3.7616    4.7819   14.7148 C   0  0  0  0  0  0  0  0  0  0  0  0
   -2.8828    5.6464   15.6239 C   0  0  0  0  0  0  0  0  0  0  0  0
   -2.4714    4.7061   16.6771 N   0  0  0  0  0  0  0  0  0  0  0  0
   -0.9182    2.4144   13.8454 H   0  0  0  0  0  0  0  0  0  0  0  0
   -1.7340    1.6353   16.2228 H   0  0  0  0  0  0  0  0  0  0  0  0
   -3.2471    4.4884   17.3027 H   0  0  0  0  0  0  0  0  0  0  0  0
   -1.5865    8.4266   14.0105 C   0  0  0  0  0  0  0  0  0  0  0  0
   -2.0959    7.1052   13.8850 O   0  0  0  0  0  0  0  0  0  0  0  0
    0.5772    5.6033   14.0791 O   0  0  0  0  0  0  0  0  0  0  0  0
    0.9637    5.6739   12.7143 C   0  0  0  0  0  0  0  0  0  0  0  0
 14 15  1  0
  1 15  1  0
  1  2  1  0
  2 16  1  0
 16 17  1  0
  2  3  1  0
  3  4  1  0
  3  5  1  0
  5  6  1  0
  5  7  1  0
  7  8  1  0
  9  8  1  0
  9 10  1  0
  9  1  1  0
 10  5  1  0
  4 11  1  0
  6 12  1  0
 10 13  1  0
M  END
> <minimizedAffinity>
-4.81006

> <CNNscore>
0.2409633845

> <CNNaffinity>
2.8513126373

> <CNN_VS>
0.6870619655

> <CNNaffinity_variance>
0.6845987439

$$$$



 17 18  0  0  0  0  0  0  0  0999 V2000
   -1.9277    5.3785   14.4434 C   0  0  0  0  0  0  0  0  0  0  0  0
   -2.3516    6.8565   14.6927 C   0  0  0  0  0  0  0  0  0  0  0  0
   -3.5702    6.9512   15.6466 C   0  0  0  0  0  0  0  0  0  0  0  0
   -3.7045    8.2700   16.2241 O   0  0  0  0  0  0  0  0  0  0  0  0
   -3.4967    5.9100   16.7968 C   0  0  0  0  0  0  0  0  0  0  0  0
   -4.6152    6.0190   17.6476 O   0  0  0  0  0  0  0  0  0  0  0  0
   -2.2097    5.9934   17.6232 C   0  0  0  0  0  0  0  0  0  0  0  0
   -1.2429    5.0585   16.9023 C   0  0  0  0  0  0  0  0  0  0  0  0
   -2.0563    4.5120   15.7251 C   0  0  0  0  0  0  0  0  0  0  0  0
   -3.4391    4.5740   16.2217 N   0  0  0  0  0  0  0  0  0  0  0  0
   -2.9294    8.4622   16.7749 H   0  0  0  0  0  0  0  0  0  0  0  0
   -4.6472    6.9111   18.0270 H   0  0  0  0  0  0  0  0  0  0  0  0
   -3.6112    3.8590   16.9285 H   0  0  0  0  0  0  0  0  0  0  0  0
   -0.3954    4.7044   12.7242 C   0  0  0  0  0  0  0  0  0  0  0  0
   -0.5538    5.2792   14.0149 O   0  0  0  0  0  0  0  0  0  0  0  0
   -2.6395    7.4510   13.4054 O   0  0  0  0  0  0  0  0  0  0  0  0
   -1.6633    8.3750   12.9469 C   0  0  0  0  0  0  0  0  0  0  0  0
 14 15  1  0
  1 15  1  0
  1  2  1  0
  2 16  1  0
 16 17  1  0
  2  3  1  0
  3  4  1  0
  3  5  1  0
  5  6  1  0
  5  7  1  0
  7  8  1  0
  9  8  1  0
  9 10  1  0
  9  1  1  0
 10  5  1  0
  4 11  1  0
  6 12  1  0
 10 13  1  0
M  END
> <minimizedAffinity>
-6.20740

> <CNNscore>
0.2405418754

> <CNNaffinity>
3.4095401764

> <CNN_VS>
0.8201372027

> <CNNaffinity_variance>
0.4423830211

$$$$



 17 18  0  0  0  0  0  0  0  0999 V2000
   -1.7985    4.5059   16.3527 C   0  0  0  0  0  0  0  0  0  0  0  0
   -0.8382    3.2798   16.3204 C   0  0  0  0  0  0  0  0  0  0  0  0
   -1.5227    2.0304   15.7083 C   0  0  0  0  0  0  0  0  0  0  0  0
   -0.5592    1.0427   15.2759 O   0  0  0  0  0  0  0  0  0  0  0  0
   -2.4368    2.3927   14.5061 C   0  0  0  0  0  0  0  0  0  0  0  0
   -3.0448    1.2396   13.9698 O   0  0  0  0  0  0  0  0  0  0  0  0
   -1.7175    3.1616   13.3937 C   0  0  0  0  0  0  0  0  0  0  0  0
   -1.8864    4.6270   13.7846 C   0  0  0  0  0  0  0  0  0  0  0  0
   -2.6929    4.5781   15.0859 C   0  0  0  0  0  0  0  0  0  0  0  0
   -3.4576    3.3288   14.9540 N   0  0  0  0  0  0  0  0  0  0  0  0
   -0.0135    1.4130   14.5647 H   0  0  0  0  0  0  0  0  0  0  0  0
   -2.3592    0.6206   13.6735 H   0  0  0  0  0  0  0  0  0  0  0  0
   -4.2030    3.4220   14.2640 H   0  0  0  0  0  0  0  0  0  0  0  0
   -1.4874    6.5995   17.4831 C   0  0  0  0  0  0  0  0  0  0  0  0
   -1.0753    5.7523   16.4183 O   0  0  0  0  0  0  0  0  0  0  0  0
   -0.4007    3.0323   17.6773 O   0  0  0  0  0  0  0  0  0  0  0  0
   -1.4207    2.5810   18.5565 C   0  0  0  0  0  0  0  0  0  0  0  0
 14 15  1  0
  1 15  1  0
  1  2  1  0
  2 16  1  0
 16 17  1  0
  2  3  1  0
  3  4  1  0
  3  5  1  0
  5  6  1  0
  5  7  1  0
  7  8  1  0
  9  8  1  0
  9 10  1  0
  9  1  1  0
 10  5  1  0
  4 11  1  0
  6 12  1  0
 10 13  1  0
M  END
> <minimizedAffinity>
-4.98718

> <CNNscore>
0.2355331630

> <CNNaffinity>
2.6710760593

> <CNN_VS>
0.6291269660

> <CNNaffinity_variance>
1.0213745832

$$$$



 17 18  0  0  0  0  0  0  0  0999 V2000
   -3.1577    5.3710   16.1581 C   0  0  0  0  0  0  0  0  0  0  0  0
   -1.8124    5.8245   16.7993 C   0  0  0  0  0  0  0  0  0  0  0  0
   -0.6227    4.9590   16.3099 C   0  0  0  0  0  0  0  0  0  0  0  0
    0.6488    5.6095   16.5354 O   0  0  0  0  0  0  0  0  0  0  0  0
   -0.7381    4.6023   14.8026 C   0  0  0  0  0  0  0  0  0  0  0  0
    0.3554    3.8167   14.3854 O   0  0  0  0  0  0  0  0  0  0  0  0
   -0.8747    5.8236   13.8883 C   0  0  0  0  0  0  0  0  0  0  0  0
   -2.3800    6.0598   13.8048 C   0  0  0  0  0  0  0  0  0  0  0  0
   -2.9828    4.9517   14.6737 C   0  0  0  0  0  0  0  0  0  0  0  0
   -1.9816    3.8785   14.5823 N   0  0  0  0  0  0  0  0  0  0  0  0
    0.6913    6.4261   16.0137 H   0  0  0  0  0  0  0  0  0  0  0  0
    1.1801    4.3049   14.5351 H   0  0  0  0  0  0  0  0  0  0  0  0
   -1.9951    3.4368   13.6630 H   0  0  0  0  0  0  0  0  0  0  0  0
   -3.5863    7.7314   16.1040 C   0  0  0  0  0  0  0  0  0  0  0  0
   -4.1426    6.4249   16.1755 O   0  0  0  0  0  0  0  0  0  0  0  0
   -1.9663    5.7489   18.2360 O   0  0  0  0  0  0  0  0  0  0  0  0
   -1.8712    4.4383   18.7747 C   0  0  0  0  0  0  0  0  0  0  0  0
 14 15  1  0
  1 15  1  0
  1  2  1  0
  2 16  1  0
 16 17  1  0
  2  3  1  0
  3  4  1  0
  3  5  1  0
  5  6  1  0
  5  7  1  0
  7  8  1  0
  9  8  1  0
  9 10  1  0
  9  1  1  0
 10  5  1  0
  4 11  1  0
  6 12  1  0
 10 13  1  0
M  END
> <minimizedAffinity>
-5.58061

> <CNNscore>
0.2248697132

> <CNNaffinity>
2.3931286335

> <CNN_VS>
0.5381421447

> <CNNaffinity_variance>
1.9565938711

$$$$



 17 18  0  0  0  0  0  0  0  0999 V2000
   -1.4675    5.7793   14.8974 C   0  0  0  0  0  0  0  0  0  0  0  0
   -2.1086    4.3605   14.9490 C   0  0  0  0  0  0  0  0  0  0  0  0
   -1.3722    3.4340   15.9507 C   0  0  0  0  0  0  0  0  0  0  0  0
   -2.1811    2.2978   16.3324 O   0  0  0  0  0  0  0  0  0  0  0  0
   -0.9372    4.1887   17.2365 C   0  0  0  0  0  0  0  0  0  0  0  0
   -0.2716    3.3233   18.1282 O   0  0  0  0  0  0  0  0  0  0  0  0
   -2.0908    4.8888   17.9613 C   0  0  0  0  0  0  0  0  0  0  0  0
   -2.1393    6.2772   17.3301 C   0  0  0  0  0  0  0  0  0  0  0  0
   -1.0065    6.2610   16.2993 C   0  0  0  0  0  0  0  0  0  0  0  0
   -0.0591    5.2886   16.8645 N   0  0  0  0  0  0  0  0  0  0  0  0
   -2.9727    2.6071   16.8000 H   0  0  0  0  0  0  0  0  0  0  0  0
   -0.8622    2.5934   18.3717 H   0  0  0  0  0  0  0  0  0  0  0  0
    0.4216    5.6704   17.6791 H   0  0  0  0  0  0  0  0  0  0  0  0
   -3.7457    6.3280   14.3808 C   0  0  0  0  0  0  0  0  0  0  0  0
   -2.3943    6.7693   14.4055 O   0  0  0  0  0  0  0  0  0  0  0  0
   -2.0793    3.8193   13.6075 O   0  0  0  0  0  0  0  0  0  0  0  0
   -0.7938    3.7986   13.0040 C   0  0  0  0  0  0  0  0  0  0  0  0
 14 15  1  0
  1 15  1  0
  1  2  1  0
  2 16  1  0
 16 17  1  0
  2  3  1  0
  3  4  1  0
  3  5  1  0
  5  6  1  0
  5  7  1  0
  7  8  1  0
  9  8  1  0
  9 10  1  0
  9  1  1  0
 10  5  1  0
  4 11  1  0
  6 12  1  0
 10 13  1  0
M  END
> <minimizedAffinity>
-5.46348

> <CNNscore>
0.2179573029

> <CNNaffinity>
3.1116688251

> <CNN_VS>
0.6782109737

> <CNNaffinity_variance>
0.6647323370

$$$$
