


 28 29  0  0  0  0  0  0  0  0999 V2000
  -27.5331    7.7878  -11.6480 C   0  0  0  0  0  0  0  0  0  0  0  0
  -28.1090    8.7281  -10.7788 C   0  0  0  0  0  0  0  0  0  0  0  0
  -27.9399   10.0935  -11.0115 C   0  0  0  0  0  0  0  0  0  0  0  0
  -28.7084   11.2957   -9.7537 Br  0  0  0  0  0  0  0  0  0  0  0  0
  -27.2245   10.5224  -12.1330 C   0  0  0  0  0  0  0  0  0  0  0  0
  -26.9750   12.1968  -12.4861 Cl  0  0  0  0  0  0  0  0  0  0  0  0
  -26.6915    9.5830  -13.0294 C   0  0  0  0  0  0  0  0  0  0  0  0
  -26.8504    8.2092  -12.8117 C   0  0  0  0  0  0  0  0  0  0  0  0
  -29.7144    2.3909   -9.9396 C   0  0  0  0  0  0  0  0  0  0  0  0
  -29.5921    3.9019  -10.0999 C   0  0  0  0  0  0  0  0  0  0  0  0
  -30.9607    4.5812   -9.9163 C   0  0  0  0  0  0  0  0  0  0  0  0
  -30.8708    6.0976  -10.1569 C   0  0  0  0  0  0  0  0  0  0  0  0
  -32.2537    6.7404  -10.0750 C   0  0  0  0  0  0  0  0  0  0  0  0
  -30.2190    6.3958  -11.5170 C   0  0  0  0  0  0  0  0  0  0  0  0
  -28.9236    5.7164  -11.6280 N   0  0  0  0  0  0  0  0  0  0  0  0
  -27.7036    6.3390  -11.3523 C   0  0  0  0  0  0  0  0  0  0  0  0
  -26.7394    5.7444  -10.8708 O   0  0  0  0  0  0  0  0  0  0  0  0
  -28.9999    4.2655  -11.4679 C   0  0  0  0  0  0  0  0  0  0  0  0
  -26.3814    7.2328  -13.7271 N   0  0  0  0  0  0  0  0  0  0  0  0
  -25.0805    6.8352  -13.9666 C   0  0  0  0  0  0  0  0  0  0  0  0
  -24.0898    7.1844  -13.3381 O   0  0  0  0  0  0  0  0  0  0  0  0
  -27.0730    6.7794  -14.2613 H   0  0  0  0  0  0  0  0  0  0  0  0
  -25.0010    5.8377  -15.1067 C   0  0  0  0  0  0  0  0  0  0  0  0
  -24.0388    6.3069  -16.1875 C   0  0  0  0  0  0  0  0  0  0  0  0
  -24.7487    6.4986  -17.4952 C   0  0  0  0  0  0  0  0  0  0  0  0
  -25.2415    7.5307  -17.9166 O   0  0  0  0  0  0  0  0  0  0  0  0
  -24.8405    5.3542  -18.2015 O   0  0  0  0  0  0  0  0  0  0  0  0
  -24.4582    4.5662  -17.8686 H   0  0  0  0  0  0  0  0  0  0  0  0
 10  9  1  0
 10 11  1  0
 11 12  1  0
 12 13  1  0
 12 14  1  0
 14 15  1  0
 15 16  1  0
 16 17  2  0
 16  1  1  0
  1  2  2  0
  2  3  1  0
  3  4  1  0
  3  5  2  0
  5  6  1  0
  5  7  1  0
  7  8  2  0
  8 19  1  0
 19 20  1  0
 20 21  2  0
 20 23  1  0
 23 24  1  0
 24 25  1  0
 25 26  2  0
 25 27  1  0
 15 18  1  0
 18 10  1  0
  8  1  1  0
 19 22  1  0
 27 28  1  0
M  END
> <minimizedAffinity>
-5.56650

> <CNNscore>
0.6835394502

> <CNNaffinity>
5.4194827080

> <CNN_VS>
3.7044303417

> <CNNaffinity_variance>
0.2711860538

$$$$



 28 29  0  0  0  0  0  0  0  0999 V2000
  -26.9461    7.3910  -12.6122 C   0  0  0  0  0  0  0  0  0  0  0  0
  -28.2597    7.3962  -12.1165 C   0  0  0  0  0  0  0  0  0  0  0  0
  -28.6886    8.4266  -11.2789 C   0  0  0  0  0  0  0  0  0  0  0  0
  -30.4663    8.3256  -10.6100 Br  0  0  0  0  0  0  0  0  0  0  0  0
  -27.8166    9.4724  -10.9635 C   0  0  0  0  0  0  0  0  0  0  0  0
  -28.2781   10.7826   -9.9336 Cl  0  0  0  0  0  0  0  0  0  0  0  0
  -26.5196    9.4932  -11.4996 C   0  0  0  0  0  0  0  0  0  0  0  0
  -26.0716    8.4677  -12.3408 C   0  0  0  0  0  0  0  0  0  0  0  0
  -26.5702    3.1374  -16.9214 C   0  0  0  0  0  0  0  0  0  0  0  0
  -27.1550    4.2273  -16.0305 C   0  0  0  0  0  0  0  0  0  0  0  0
  -28.3647    4.8942  -16.7090 C   0  0  0  0  0  0  0  0  0  0  0  0
  -28.9158    6.0522  -15.8600 C   0  0  0  0  0  0  0  0  0  0  0  0
  -30.0466    6.7695  -16.5942 C   0  0  0  0  0  0  0  0  0  0  0  0
  -27.7970    7.0423  -15.4972 C   0  0  0  0  0  0  0  0  0  0  0  0
  -26.6760    6.3428  -14.8601 N   0  0  0  0  0  0  0  0  0  0  0  0
  -26.5097    6.2596  -13.4754 C   0  0  0  0  0  0  0  0  0  0  0  0
  -26.0096    5.2838  -12.9161 O   0  0  0  0  0  0  0  0  0  0  0  0
  -26.0963    5.2816  -15.6812 C   0  0  0  0  0  0  0  0  0  0  0  0
  -24.7916    8.4866  -12.9513 N   0  0  0  0  0  0  0  0  0  0  0  0
  -24.4274    9.0359  -14.1651 C   0  0  0  0  0  0  0  0  0  0  0  0
  -25.1379    9.7158  -14.8939 O   0  0  0  0  0  0  0  0  0  0  0  0
  -24.0687    8.0517  -12.4439 H   0  0  0  0  0  0  0  0  0  0  0  0
  -22.9771    8.7427  -14.4995 C   0  0  0  0  0  0  0  0  0  0  0  0
  -22.0347    9.4007  -13.5028 C   0  0  0  0  0  0  0  0  0  0  0  0
  -21.1144    8.3907  -12.8835 C   0  0  0  0  0  0  0  0  0  0  0  0
  -20.3012    8.5874  -11.9970 O   0  0  0  0  0  0  0  0  0  0  0  0
  -21.2362    7.1722  -13.4470 O   0  0  0  0  0  0  0  0  0  0  0  0
  -21.8644    7.0316  -14.1278 H   0  0  0  0  0  0  0  0  0  0  0  0
 10  9  1  0
 10 11  1  0
 11 12  1  0
 12 13  1  0
 12 14  1  0
 14 15  1  0
 15 16  1  0
 16 17  2  0
 16  1  1  0
  1  2  2  0
  2  3  1  0
  3  4  1  0
  3  5  2  0
  5  6  1  0
  5  7  1  0
  7  8  2  0
  8 19  1  0
 19 20  1  0
 20 21  2  0
 20 23  1  0
 23 24  1  0
 24 25  1  0
 25 26  2  0
 25 27  1  0
 15 18  1  0
 18 10  1  0
  8  1  1  0
 19 22  1  0
 27 28  1  0
M  END
> <minimizedAffinity>
-6.56106

> <CNNscore>
0.6557538509

> <CNNaffinity>
5.5330672264

> <CNN_VS>
3.6283302307

> <CNNaffinity_variance>
0.0347527936

$$$$



 28 29  0  0  0  0  0  0  0  0999 V2000
  -24.0144    5.4275  -16.5902 C   0  0  0  0  0  0  0  0  0  0  0  0
  -22.6190    5.5505  -16.4947 C   0  0  0  0  0  0  0  0  0  0  0  0
  -21.7886    4.6630  -17.1802 C   0  0  0  0  0  0  0  0  0  0  0  0
  -19.9116    4.8688  -16.9509 Br  0  0  0  0  0  0  0  0  0  0  0  0
  -22.3508    3.6727  -17.9906 C   0  0  0  0  0  0  0  0  0  0  0  0
  -21.3853    2.5389  -18.8699 Cl  0  0  0  0  0  0  0  0  0  0  0  0
  -23.7448    3.5813  -18.1258 C   0  0  0  0  0  0  0  0  0  0  0  0
  -24.5935    4.4623  -17.4451 C   0  0  0  0  0  0  0  0  0  0  0  0
  -26.0699    9.6341  -12.7323 C   0  0  0  0  0  0  0  0  0  0  0  0
  -25.1339    8.6242  -13.3864 C   0  0  0  0  0  0  0  0  0  0  0  0
  -23.6669    8.9426  -13.0472 C   0  0  0  0  0  0  0  0  0  0  0  0
  -22.7040    7.9830  -13.7666 C   0  0  0  0  0  0  0  0  0  0  0  0
  -21.2522    8.3774  -13.5041 C   0  0  0  0  0  0  0  0  0  0  0  0
  -22.9892    7.9561  -15.2771 C   0  0  0  0  0  0  0  0  0  0  0  0
  -24.4020    7.6523  -15.5298 N   0  0  0  0  0  0  0  0  0  0  0  0
  -24.8718    6.3688  -15.8193 C   0  0  0  0  0  0  0  0  0  0  0  0
  -25.9798    5.9637  -15.4680 O   0  0  0  0  0  0  0  0  0  0  0  0
  -25.3308    8.5940  -14.9078 C   0  0  0  0  0  0  0  0  0  0  0  0
  -26.0024    4.4413  -17.6062 N   0  0  0  0  0  0  0  0  0  0  0  0
  -26.7482    4.8488  -18.6950 C   0  0  0  0  0  0  0  0  0  0  0  0
  -26.3088    5.2049  -19.7805 O   0  0  0  0  0  0  0  0  0  0  0  0
  -26.5156    4.0906  -16.8427 H   0  0  0  0  0  0  0  0  0  0  0  0
  -28.2371    4.7604  -18.4182 C   0  0  0  0  0  0  0  0  0  0  0  0
  -28.8465    3.5206  -19.0551 C   0  0  0  0  0  0  0  0  0  0  0  0
  -28.8689    2.3735  -18.0884 C   0  0  0  0  0  0  0  0  0  0  0  0
  -28.3241    2.3229  -16.9992 O   0  0  0  0  0  0  0  0  0  0  0  0
  -29.5530    1.3144  -18.5651 O   0  0  0  0  0  0  0  0  0  0  0  0
  -29.9682    1.3637  -19.4036 H   0  0  0  0  0  0  0  0  0  0  0  0
 10  9  1  0
 10 11  1  0
 11 12  1  0
 12 13  1  0
 12 14  1  0
 14 15  1  0
 15 16  1  0
 16 17  2  0
 16  1  1  0
  1  2  2  0
  2  3  1  0
  3  4  1  0
  3  5  2  0
  5  6  1  0
  5  7  1  0
  7  8  2  0
  8 19  1  0
 19 20  1  0
 20 21  2  0
 20 23  1  0
 23 24  1  0
 24 25  1  0
 25 26  2  0
 25 27  1  0
 15 18  1  0
 18 10  1  0
  8  1  1  0
 19 22  1  0
 27 28  1  0
M  END
> <minimizedAffinity>
-5.67356

> <CNNscore>
0.3858880103

> <CNNaffinity>
5.3143234253

> <CNN_VS>
2.0507338047

> <CNNaffinity_variance>
0.0827126279

$$$$



 28 29  0  0  0  0  0  0  0  0999 V2000
  -25.5665    7.6264  -12.6538 C   0  0  0  0  0  0  0  0  0  0  0  0
  -24.3073    8.2465  -12.6886 C   0  0  0  0  0  0  0  0  0  0  0  0
  -23.3292    7.7974  -13.5768 C   0  0  0  0  0  0  0  0  0  0  0  0
  -21.6346    8.6593  -13.5186 Br  0  0  0  0  0  0  0  0  0  0  0  0
  -23.6193    6.7508  -14.4565 C   0  0  0  0  0  0  0  0  0  0  0  0
  -22.4585    6.1423  -15.5848 Cl  0  0  0  0  0  0  0  0  0  0  0  0
  -24.8944    6.1642  -14.4564 C   0  0  0  0  0  0  0  0  0  0  0  0
  -25.8878    6.6009  -13.5719 C   0  0  0  0  0  0  0  0  0  0  0  0
  -29.5138   10.9869   -9.5026 C   0  0  0  0  0  0  0  0  0  0  0  0
  -28.3991   10.6215  -10.4762 C   0  0  0  0  0  0  0  0  0  0  0  0
  -28.2360   11.7113  -11.5505 C   0  0  0  0  0  0  0  0  0  0  0  0
  -27.1718   11.3195  -12.5895 C   0  0  0  0  0  0  0  0  0  0  0  0
  -27.0970   12.3602  -13.7048 C   0  0  0  0  0  0  0  0  0  0  0  0
  -27.4654    9.9273  -13.1719 C   0  0  0  0  0  0  0  0  0  0  0  0
  -27.6136    8.9396  -12.0974 N   0  0  0  0  0  0  0  0  0  0  0  0
  -26.5758    8.1071  -11.6710 C   0  0  0  0  0  0  0  0  0  0  0  0
  -26.4468    7.7380  -10.5038 O   0  0  0  0  0  0  0  0  0  0  0  0
  -28.6667    9.2628  -11.1368 C   0  0  0  0  0  0  0  0  0  0  0  0
  -27.2054    6.0763  -13.5857 N   0  0  0  0  0  0  0  0  0  0  0  0
  -27.6064    4.7674  -13.7696 C   0  0  0  0  0  0  0  0  0  0  0  0
  -26.8736    3.7899  -13.8444 O   0  0  0  0  0  0  0  0  0  0  0  0
  -27.9281    6.7300  -13.4459 H   0  0  0  0  0  0  0  0  0  0  0  0
  -29.1177    4.6474  -13.8224 C   0  0  0  0  0  0  0  0  0  0  0  0
  -29.7557    5.1040  -12.5191 C   0  0  0  0  0  0  0  0  0  0  0  0
  -29.4276    4.1614  -11.3990 C   0  0  0  0  0  0  0  0  0  0  0  0
  -28.9351    4.4477  -10.3214 O   0  0  0  0  0  0  0  0  0  0  0  0
  -29.7024    2.8791  -11.7106 O   0  0  0  0  0  0  0  0  0  0  0  0
  -30.0810    2.6697  -12.5418 H   0  0  0  0  0  0  0  0  0  0  0  0
 10  9  1  0
 10 11  1  0
 11 12  1  0
 12 13  1  0
 12 14  1  0
 14 15  1  0
 15 16  1  0
 16 17  2  0
 16  1  1  0
  1  2  2  0
  2  3  1  0
  3  4  1  0
  3  5  2  0
  5  6  1  0
  5  7  1  0
  7  8  2  0
  8 19  1  0
 19 20  1  0
 20 21  2  0
 20 23  1  0
 23 24  1  0
 24 25  1  0
 25 26  2  0
 25 27  1  0
 15 18  1  0
 18 10  1  0
  8  1  1  0
 19 22  1  0
 27 28  1  0
M  END
> <minimizedAffinity>
-6.30024

> <CNNscore>
0.3843018413

> <CNNaffinity>
4.7763051987

> <CNN_VS>
1.8355429173

> <CNNaffinity_variance>
0.5216440558

$$$$



 28 29  0  0  0  0  0  0  0  0999 V2000
  -31.5519   13.0160  -12.1487 C   0  0  0  0  0  0  0  0  0  0  0  0
  -31.8100   12.6838  -13.4883 C   0  0  0  0  0  0  0  0  0  0  0  0
  -32.6153   13.5104  -14.2727 C   0  0  0  0  0  0  0  0  0  0  0  0
  -32.9567   12.9563  -16.0599 Br  0  0  0  0  0  0  0  0  0  0  0  0
  -33.1356   14.6889  -13.7303 C   0  0  0  0  0  0  0  0  0  0  0  0
  -34.1399   15.7619  -14.6417 Cl  0  0  0  0  0  0  0  0  0  0  0  0
  -32.8364   15.0464  -12.4064 C   0  0  0  0  0  0  0  0  0  0  0  0
  -32.0311   14.2291  -11.6043 C   0  0  0  0  0  0  0  0  0  0  0  0
  -27.1084    9.4427  -10.0771 C   0  0  0  0  0  0  0  0  0  0  0  0
  -27.9357   10.2919  -11.0354 C   0  0  0  0  0  0  0  0  0  0  0  0
  -27.0691   10.7953  -12.2033 C   0  0  0  0  0  0  0  0  0  0  0  0
  -27.8678   11.7221  -13.1353 C   0  0  0  0  0  0  0  0  0  0  0  0
  -26.9674   12.2961  -14.2272 C   0  0  0  0  0  0  0  0  0  0  0  0
  -28.5341   12.8547  -12.3373 C   0  0  0  0  0  0  0  0  0  0  0  0
  -29.3391   12.3077  -11.2397 N   0  0  0  0  0  0  0  0  0  0  0  0
  -30.7170   12.0953  -11.3296 C   0  0  0  0  0  0  0  0  0  0  0  0
  -31.2935   11.1717  -10.7553 O   0  0  0  0  0  0  0  0  0  0  0  0
  -28.5809   11.4774  -10.3057 C   0  0  0  0  0  0  0  0  0  0  0  0
  -31.6557   14.5880  -10.2846 N   0  0  0  0  0  0  0  0  0  0  0  0
  -30.5909   15.3676   -9.8769 C   0  0  0  0  0  0  0  0  0  0  0  0
  -29.8305   15.9918  -10.6052 O   0  0  0  0  0  0  0  0  0  0  0  0
  -32.2285   14.2357   -9.5656 H   0  0  0  0  0  0  0  0  0  0  0  0
  -30.4806   15.4176   -8.3647 C   0  0  0  0  0  0  0  0  0  0  0  0
  -31.1039   16.6875   -7.8053 C   0  0  0  0  0  0  0  0  0  0  0  0
  -30.3054   17.2166   -6.6507 C   0  0  0  0  0  0  0  0  0  0  0  0
  -30.7403   17.7089   -5.6239 O   0  0  0  0  0  0  0  0  0  0  0  0
  -28.9772   17.1358   -6.8657 O   0  0  0  0  0  0  0  0  0  0  0  0
  -28.6532   16.7555   -7.6584 H   0  0  0  0  0  0  0  0  0  0  0  0
 10  9  1  0
 10 11  1  0
 11 12  1  0
 12 13  1  0
 12 14  1  0
 14 15  1  0
 15 16  1  0
 16 17  2  0
 16  1  1  0
  1  2  2  0
  2  3  1  0
  3  4  1  0
  3  5  2  0
  5  6  1  0
  5  7  1  0
  7  8  2  0
  8 19  1  0
 19 20  1  0
 20 21  2  0
 20 23  1  0
 23 24  1  0
 24 25  1  0
 25 26  2  0
 25 27  1  0
 15 18  1  0
 18 10  1  0
  8  1  1  0
 19 22  1  0
 27 28  1  0
M  END
> <minimizedAffinity>
-5.46366

> <CNNscore>
0.3476069570

> <CNNaffinity>
4.7980446815

> <CNN_VS>
1.6678336859

> <CNNaffinity_variance>
0.1930357963

$$$$



 28 29  0  0  0  0  0  0  0  0999 V2000
  -27.2271    7.6812  -13.3824 C   0  0  0  0  0  0  0  0  0  0  0  0
  -26.8817    8.9944  -13.0255 C   0  0  0  0  0  0  0  0  0  0  0  0
  -27.5551    9.6387  -11.9869 C   0  0  0  0  0  0  0  0  0  0  0  0
  -27.0596   11.4352  -11.6065 Br  0  0  0  0  0  0  0  0  0  0  0  0
  -28.5511    8.9594  -11.2797 C   0  0  0  0  0  0  0  0  0  0  0  0
  -29.4269    9.6925   -9.9812 Cl  0  0  0  0  0  0  0  0  0  0  0  0
  -28.8617    7.6295  -11.6035 C   0  0  0  0  0  0  0  0  0  0  0  0
  -28.1973    6.9674  -12.6428 C   0  0  0  0  0  0  0  0  0  0  0  0
  -23.0246    5.8348  -17.3489 C   0  0  0  0  0  0  0  0  0  0  0  0
  -23.6884    6.6286  -16.2295 C   0  0  0  0  0  0  0  0  0  0  0  0
  -22.6295    7.2633  -15.3106 C   0  0  0  0  0  0  0  0  0  0  0  0
  -23.2820    7.9987  -14.1278 C   0  0  0  0  0  0  0  0  0  0  0  0
  -22.2183    8.5316  -13.1702 C   0  0  0  0  0  0  0  0  0  0  0  0
  -24.2604    7.0748  -13.3844 C   0  0  0  0  0  0  0  0  0  0  0  0
  -25.2372    6.5012  -14.3166 N   0  0  0  0  0  0  0  0  0  0  0  0
  -26.5127    7.0349  -14.5171 C   0  0  0  0  0  0  0  0  0  0  0  0
  -27.0937    6.9980  -15.6017 O   0  0  0  0  0  0  0  0  0  0  0  0
  -24.6362    5.7418  -15.4114 C   0  0  0  0  0  0  0  0  0  0  0  0
  -28.4392    5.6058  -12.9572 N   0  0  0  0  0  0  0  0  0  0  0  0
  -29.4739    5.0659  -13.6960 C   0  0  0  0  0  0  0  0  0  0  0  0
  -30.3229    5.6918  -14.3170 O   0  0  0  0  0  0  0  0  0  0  0  0
  -27.7844    4.9616  -12.6029 H   0  0  0  0  0  0  0  0  0  0  0  0
  -29.4240    3.5498  -13.7042 C   0  0  0  0  0  0  0  0  0  0  0  0
  -29.0339    3.0156  -15.0741 C   0  0  0  0  0  0  0  0  0  0  0  0
  -27.5853    3.2783  -15.3627 C   0  0  0  0  0  0  0  0  0  0  0  0
  -27.0982    3.5991  -16.4330 O   0  0  0  0  0  0  0  0  0  0  0  0
  -26.8033    3.0818  -14.2825 O   0  0  0  0  0  0  0  0  0  0  0  0
  -27.1878    2.8354  -13.4643 H   0  0  0  0  0  0  0  0  0  0  0  0
 10  9  1  0
 10 11  1  0
 11 12  1  0
 12 13  1  0
 12 14  1  0
 14 15  1  0
 15 16  1  0
 16 17  2  0
 16  1  1  0
  1  2  2  0
  2  3  1  0
  3  4  1  0
  3  5  2  0
  5  6  1  0
  5  7  1  0
  7  8  2  0
  8 19  1  0
 19 20  1  0
 20 21  2  0
 20 23  1  0
 23 24  1  0
 24 25  1  0
 25 26  2  0
 25 27  1  0
 15 18  1  0
 18 10  1  0
  8  1  1  0
 19 22  1  0
 27 28  1  0
M  END
> <minimizedAffinity>
-5.54156

> <CNNscore>
0.3350179791

> <CNNaffinity>
5.3018403053

> <CNN_VS>
1.7762118578

> <CNNaffinity_variance>
0.0014860583

$$$$



 28 29  0  0  0  0  0  0  0  0999 V2000
  -27.6085    9.4055  -13.8512 C   0  0  0  0  0  0  0  0  0  0  0  0
  -28.8628    9.6370  -13.2644 C   0  0  0  0  0  0  0  0  0  0  0  0
  -28.9596    9.8974  -11.8969 C   0  0  0  0  0  0  0  0  0  0  0  0
  -30.7023   10.1455  -11.1762 Br  0  0  0  0  0  0  0  0  0  0  0  0
  -27.7999    9.9618  -11.1195 C   0  0  0  0  0  0  0  0  0  0  0  0
  -27.8419   10.2805   -9.4203 Cl  0  0  0  0  0  0  0  0  0  0  0  0
  -26.5421    9.7801  -11.7154 C   0  0  0  0  0  0  0  0  0  0  0  0
  -26.4257    9.5171  -13.0855 C   0  0  0  0  0  0  0  0  0  0  0  0
  -26.8560    6.6756  -19.2164 C   0  0  0  0  0  0  0  0  0  0  0  0
  -26.7812    6.9318  -17.7155 C   0  0  0  0  0  0  0  0  0  0  0  0
  -26.5780    5.6135  -16.9479 C   0  0  0  0  0  0  0  0  0  0  0  0
  -26.5836    5.8437  -15.4272 C   0  0  0  0  0  0  0  0  0  0  0  0
  -26.4870    4.5155  -14.6796 C   0  0  0  0  0  0  0  0  0  0  0  0
  -27.8435    6.6125  -14.9970 C   0  0  0  0  0  0  0  0  0  0  0  0
  -27.9793    7.8528  -15.7686 N   0  0  0  0  0  0  0  0  0  0  0  0
  -27.5431    9.0968  -15.3059 C   0  0  0  0  0  0  0  0  0  0  0  0
  -27.1007    9.9727  -16.0489 O   0  0  0  0  0  0  0  0  0  0  0  0
  -28.0426    7.6472  -17.2143 C   0  0  0  0  0  0  0  0  0  0  0  0
  -25.1706    9.3908  -13.7338 N   0  0  0  0  0  0  0  0  0  0  0  0
  -24.2485    8.3680  -13.6276 C   0  0  0  0  0  0  0  0  0  0  0  0
  -24.4042    7.3130  -13.0269 O   0  0  0  0  0  0  0  0  0  0  0  0
  -24.9247   10.1281  -14.3382 H   0  0  0  0  0  0  0  0  0  0  0  0
  -22.9827    8.6726  -14.4062 C   0  0  0  0  0  0  0  0  0  0  0  0
  -21.9521    9.3753  -13.5355 C   0  0  0  0  0  0  0  0  0  0  0  0
  -21.0721    8.3829  -12.8344 C   0  0  0  0  0  0  0  0  0  0  0  0
  -20.3009    8.6073  -11.9175 O   0  0  0  0  0  0  0  0  0  0  0  0
  -21.1779    7.1448  -13.3567 O   0  0  0  0  0  0  0  0  0  0  0  0
  -21.7738    6.9829  -14.0614 H   0  0  0  0  0  0  0  0  0  0  0  0
 10  9  1  0
 10 11  1  0
 11 12  1  0
 12 13  1  0
 12 14  1  0
 14 15  1  0
 15 16  1  0
 16 17  2  0
 16  1  1  0
  1  2  2  0
  2  3  1  0
  3  4  1  0
  3  5  2  0
  5  6  1  0
  5  7  1  0
  7  8  2  0
  8 19  1  0
 19 20  1  0
 20 21  2  0
 20 23  1  0
 23 24  1  0
 24 25  1  0
 25 26  2  0
 25 27  1  0
 15 18  1  0
 18 10  1  0
  8  1  1  0
 19 22  1  0
 27 28  1  0
M  END
> <minimizedAffinity>
-6.33332

> <CNNscore>
0.3263306320

> <CNNaffinity>
4.9742984772

> <CNN_VS>
1.6232659817

> <CNNaffinity_variance>
0.3272049725

$$$$



 28 29  0  0  0  0  0  0  0  0999 V2000
  -24.7189    8.8121  -13.5785 C   0  0  0  0  0  0  0  0  0  0  0  0
  -23.4506    9.1847  -13.1053 C   0  0  0  0  0  0  0  0  0  0  0  0
  -22.3132    8.5000  -13.5348 C   0  0  0  0  0  0  0  0  0  0  0  0
  -20.6420    9.0359  -12.8015 Br  0  0  0  0  0  0  0  0  0  0  0  0
  -22.4373    7.4643  -14.4652 C   0  0  0  0  0  0  0  0  0  0  0  0
  -21.0734    6.5722  -15.0436 Cl  0  0  0  0  0  0  0  0  0  0  0  0
  -23.6997    7.1249  -14.9763 C   0  0  0  0  0  0  0  0  0  0  0  0
  -24.8519    7.8002  -14.5563 C   0  0  0  0  0  0  0  0  0  0  0  0
  -30.0630   10.2581  -11.0979 C   0  0  0  0  0  0  0  0  0  0  0  0
  -28.9359    9.4155  -11.6840 C   0  0  0  0  0  0  0  0  0  0  0  0
  -29.0347    7.9593  -11.1960 C   0  0  0  0  0  0  0  0  0  0  0  0
  -27.8575    7.1142  -11.7113 C   0  0  0  0  0  0  0  0  0  0  0  0
  -27.9130    5.7016  -11.1334 C   0  0  0  0  0  0  0  0  0  0  0  0
  -26.5160    7.7827  -11.3695 C   0  0  0  0  0  0  0  0  0  0  0  0
  -26.4901    9.1659  -11.8574 N   0  0  0  0  0  0  0  0  0  0  0  0
  -25.9150    9.5405  -13.0743 C   0  0  0  0  0  0  0  0  0  0  0  0
  -26.3487   10.4605  -13.7676 O   0  0  0  0  0  0  0  0  0  0  0  0
  -27.5643   10.0021  -11.3251 C   0  0  0  0  0  0  0  0  0  0  0  0
  -26.1347    7.5283  -15.0966 N   0  0  0  0  0  0  0  0  0  0  0  0
  -26.8151    6.3268  -15.1301 C   0  0  0  0  0  0  0  0  0  0  0  0
  -26.4703    5.2847  -14.5884 O   0  0  0  0  0  0  0  0  0  0  0  0
  -26.6008    8.2958  -15.5002 H   0  0  0  0  0  0  0  0  0  0  0  0
  -28.1181    6.4428  -15.8981 C   0  0  0  0  0  0  0  0  0  0  0  0
  -27.9723    5.9194  -17.3190 C   0  0  0  0  0  0  0  0  0  0  0  0
  -27.0780    6.8084  -18.1319 C   0  0  0  0  0  0  0  0  0  0  0  0
  -27.0154    8.0248  -18.0844 O   0  0  0  0  0  0  0  0  0  0  0  0
  -26.3233    6.1145  -19.0071 O   0  0  0  0  0  0  0  0  0  0  0  0
  -26.3790    5.1796  -19.0354 H   0  0  0  0  0  0  0  0  0  0  0  0
 10  9  1  0
 10 11  1  0
 11 12  1  0
 12 13  1  0
 12 14  1  0
 14 15  1  0
 15 16  1  0
 16 17  2  0
 16  1  1  0
  1  2  2  0
  2  3  1  0
  3  4  1  0
  3  5  2  0
  5  6  1  0
  5  7  1  0
  7  8  2  0
  8 19  1  0
 19 20  1  0
 20 21  2  0
 20 23  1  0
 23 24  1  0
 24 25  1  0
 25 26  2  0
 25 27  1  0
 15 18  1  0
 18 10  1  0
  8  1  1  0
 19 22  1  0
 27 28  1  0
M  END
> <minimizedAffinity>
-5.22235

> <CNNscore>
0.3171172142

> <CNNaffinity>
5.2715392113

> <CNN_VS>
1.6716958284

> <CNNaffinity_variance>
0.1694198400

$$$$



 28 29  0  0  0  0  0  0  0  0999 V2000
  -28.0492    6.0039  -12.5579 C   0  0  0  0  0  0  0  0  0  0  0  0
  -28.8593    6.1001  -11.4151 C   0  0  0  0  0  0  0  0  0  0  0  0
  -30.1879    5.6759  -11.4601 C   0  0  0  0  0  0  0  0  0  0  0  0
  -31.2279    5.8928   -9.8825 Br  0  0  0  0  0  0  0  0  0  0  0  0
  -30.6995    5.1221  -12.6371 C   0  0  0  0  0  0  0  0  0  0  0  0
  -32.3346    4.5743  -12.7668 Cl  0  0  0  0  0  0  0  0  0  0  0  0
  -29.8753    4.9797  -13.7642 C   0  0  0  0  0  0  0  0  0  0  0  0
  -28.5403    5.4004  -13.7378 C   0  0  0  0  0  0  0  0  0  0  0  0
  -22.8789    9.0589  -13.4180 C   0  0  0  0  0  0  0  0  0  0  0  0
  -24.2981    8.5504  -13.6446 C   0  0  0  0  0  0  0  0  0  0  0  0
  -25.0963    9.5355  -14.5170 C   0  0  0  0  0  0  0  0  0  0  0  0
  -26.5552    9.0791  -14.6867 C   0  0  0  0  0  0  0  0  0  0  0  0
  -27.3592   10.1185  -15.4648 C   0  0  0  0  0  0  0  0  0  0  0  0
  -27.2045    8.8103  -13.3193 C   0  0  0  0  0  0  0  0  0  0  0  0
  -26.3930    7.8697  -12.5390 N   0  0  0  0  0  0  0  0  0  0  0  0
  -26.6465    6.4968  -12.4862 C   0  0  0  0  0  0  0  0  0  0  0  0
  -25.7569    5.6529  -12.3786 O   0  0  0  0  0  0  0  0  0  0  0  0
  -25.0208    8.3188  -12.3112 C   0  0  0  0  0  0  0  0  0  0  0  0
  -27.6606    5.2152  -14.8347 N   0  0  0  0  0  0  0  0  0  0  0  0
  -26.8533    4.1298  -15.1140 C   0  0  0  0  0  0  0  0  0  0  0  0
  -26.8371    3.0656  -14.5096 O   0  0  0  0  0  0  0  0  0  0  0  0
  -27.6201    5.9567  -15.4811 H   0  0  0  0  0  0  0  0  0  0  0  0
  -25.9828    4.3784  -16.3313 C   0  0  0  0  0  0  0  0  0  0  0  0
  -25.3394    5.7560  -16.2804 C   0  0  0  0  0  0  0  0  0  0  0  0
  -24.3477    5.9291  -17.3927 C   0  0  0  0  0  0  0  0  0  0  0  0
  -23.1330    5.8781  -17.3055 O   0  0  0  0  0  0  0  0  0  0  0  0
  -24.9416    6.2025  -18.5715 O   0  0  0  0  0  0  0  0  0  0  0  0
  -25.8762    6.2394  -18.6278 H   0  0  0  0  0  0  0  0  0  0  0  0
 10  9  1  0
 10 11  1  0
 11 12  1  0
 12 13  1  0
 12 14  1  0
 14 15  1  0
 15 16  1  0
 16 17  2  0
 16  1  1  0
  1  2  2  0
  2  3  1  0
  3  4  1  0
  3  5  2  0
  5  6  1  0
  5  7  1  0
  7  8  2  0
  8 19  1  0
 19 20  1  0
 20 21  2  0
 20 23  1  0
 23 24  1  0
 24 25  1  0
 25 26  2  0
 25 27  1  0
 15 18  1  0
 18 10  1  0
  8  1  1  0
 19 22  1  0
 27 28  1  0
M  END
> <minimizedAffinity>
-5.36691

> <CNNscore>
0.2981436551

> <CNNaffinity>
4.8194117546

> <CNN_VS>
1.4368770123

> <CNNaffinity_variance>
0.0706641898

$$$$
