


 26 28  0  0  0  0  0  0  0  0999 V2000
  -48.8867  -47.2677   29.3488 C   0  0  0  0  0  0  0  0  0  0  0  0
  -49.7603  -47.1719   30.4174 C   0  0  0  0  0  0  0  0  0  0  0  0
  -51.1055  -47.0277   30.1377 C   0  0  0  0  0  0  0  0  0  0  0  0
  -51.5573  -46.9938   28.8678 N   0  0  0  0  0  0  0  0  0  0  0  0
  -50.6495  -47.0884   27.8986 C   0  0  0  0  0  0  0  0  0  0  0  0
  -51.1084  -47.0731   26.5968 N   0  0  0  0  0  0  0  0  0  0  0  0
  -49.3392  -47.2434   28.0851 N   0  0  0  0  0  0  0  0  0  0  0  0
  -52.0695  -46.9609   26.4149 H   0  0  0  0  0  0  0  0  0  0  0  0
  -50.4747  -47.1745   25.8502 H   0  0  0  0  0  0  0  0  0  0  0  0
  -43.2595  -47.2053   30.2211 C   0  0  0  0  0  0  0  0  0  0  0  0
  -44.6859  -46.7911   29.8686 C   0  0  0  0  0  0  0  0  0  0  0  0
  -45.2306  -47.6351   28.7089 C   0  0  0  0  0  0  0  0  0  0  0  0
  -46.6827  -47.2696   28.3957 C   0  0  0  0  0  0  0  0  0  0  0  0
  -47.5028  -47.4308   29.6089 N   0  0  0  0  0  0  0  0  0  0  0  0
  -47.0585  -46.5807   30.7273 C   0  0  0  0  0  0  0  0  0  0  0  0
  -45.6101  -46.9192   31.0865 C   0  0  0  0  0  0  0  0  0  0  0  0
  -52.1404  -46.9180   31.1899 C   0  0  0  0  0  0  0  0  0  0  0  0
  -52.7679  -48.0684   31.7026 C   0  0  0  0  0  0  0  0  0  0  0  0
  -53.7468  -47.9897   32.6999 C   0  0  0  0  0  0  0  0  0  0  0  0
  -54.1317  -46.7493   33.2214 C   0  0  0  0  0  0  0  0  0  0  0  0
  -53.5301  -45.5927   32.7099 C   0  0  0  0  0  0  0  0  0  0  0  0
  -52.5505  -45.6780   31.7121 C   0  0  0  0  0  0  0  0  0  0  0  0
  -55.2034  -46.6564   34.2790 C   0  0  0  0  0  0  0  0  0  0  0  0
  -56.4553  -46.6086   33.7463 F   0  0  0  0  0  0  0  0  0  0  0  0
  -55.0869  -45.5449   35.0591 F   0  0  0  0  0  0  0  0  0  0  0  0
  -55.2021  -47.7131   35.1392 F   0  0  0  0  0  0  0  0  0  0  0  0
 10 11  1  0
 11 12  1  0
 12 13  1  0
 13 14  1  0
 14  1  1  0
  1  2  2  0
  2  3  1  0
  3 17  1  0
 17 18  2  0
 18 19  1  0
 19 20  2  0
 20 23  1  0
 23 24  1  0
 23 25  1  0
 23 26  1  0
 20 21  1  0
 21 22  2  0
  3  4  2  0
  4  5  1  0
  5  6  1  0
  5  7  2  0
 14 15  1  0
 15 16  1  0
 16 11  1  0
  7  1  1  0
 22 17  1  0
  6  8  1  0
  6  9  1  0
M  END
> <minimizedAffinity>
-10.96552

> <CNNscore>
0.9116686583

> <CNNaffinity>
8.0831975937

> <CNN_VS>
7.3691978455

> <CNNaffinity_variance>
0.2807200849

$$$$



 26 28  0  0  0  0  0  0  0  0999 V2000
  -52.6716  -46.3025   31.6901 C   0  0  0  0  0  0  0  0  0  0  0  0
  -53.3941  -47.4337   32.0260 C   0  0  0  0  0  0  0  0  0  0  0  0
  -54.4484  -47.2859   32.9065 C   0  0  0  0  0  0  0  0  0  0  0  0
  -54.7734  -46.0797   33.4139 N   0  0  0  0  0  0  0  0  0  0  0  0
  -54.0244  -45.0437   33.0422 C   0  0  0  0  0  0  0  0  0  0  0  0
  -54.3645  -43.8035   33.5439 N   0  0  0  0  0  0  0  0  0  0  0  0
  -53.0026  -45.1009   32.1888 N   0  0  0  0  0  0  0  0  0  0  0  0
  -55.1133  -43.7171   34.1772 H   0  0  0  0  0  0  0  0  0  0  0  0
  -53.8581  -43.0054   33.2685 H   0  0  0  0  0  0  0  0  0  0  0  0
  -48.4394  -47.5271   28.0819 C   0  0  0  0  0  0  0  0  0  0  0  0
  -49.5908  -47.6521   29.0765 C   0  0  0  0  0  0  0  0  0  0  0  0
  -49.2350  -46.9873   30.4127 C   0  0  0  0  0  0  0  0  0  0  0  0
  -50.4099  -47.0512   31.3903 C   0  0  0  0  0  0  0  0  0  0  0  0
  -51.5941  -46.4250   30.7773 N   0  0  0  0  0  0  0  0  0  0  0  0
  -52.0159  -47.0806   29.5270 C   0  0  0  0  0  0  0  0  0  0  0  0
  -50.8740  -47.0307   28.5098 C   0  0  0  0  0  0  0  0  0  0  0  0
  -55.2995  -48.4155   33.3418 C   0  0  0  0  0  0  0  0  0  0  0  0
  -54.9190  -49.2240   34.4289 C   0  0  0  0  0  0  0  0  0  0  0  0
  -55.7091  -50.2957   34.8606 C   0  0  0  0  0  0  0  0  0  0  0  0
  -56.9146  -50.5947   34.2155 C   0  0  0  0  0  0  0  0  0  0  0  0
  -57.2998  -49.8113   33.1204 C   0  0  0  0  0  0  0  0  0  0  0  0
  -56.5050  -48.7396   32.6934 C   0  0  0  0  0  0  0  0  0  0  0  0
  -57.7583  -51.7633   34.6609 C   0  0  0  0  0  0  0  0  0  0  0  0
  -58.9644  -51.3730   35.1574 F   0  0  0  0  0  0  0  0  0  0  0  0
  -57.1703  -52.5002   35.6452 F   0  0  0  0  0  0  0  0  0  0  0  0
  -58.0330  -52.6414   33.6561 F   0  0  0  0  0  0  0  0  0  0  0  0
 10 11  1  0
 11 12  1  0
 12 13  1  0
 13 14  1  0
 14  1  1  0
  1  2  2  0
  2  3  1  0
  3 17  1  0
 17 18  2  0
 18 19  1  0
 19 20  2  0
 20 23  1  0
 23 24  1  0
 23 25  1  0
 23 26  1  0
 20 21  1  0
 21 22  2  0
  3  4  2  0
  4  5  1  0
  5  6  1  0
  5  7  2  0
 14 15  1  0
 15 16  1  0
 16 11  1  0
  7  1  1  0
 22 17  1  0
  6  8  1  0
  6  9  1  0
M  END
> <minimizedAffinity>
-7.70743

> <CNNscore>
0.6636844277

> <CNNaffinity>
7.3057465553

> <CNN_VS>
4.8487100601

> <CNNaffinity_variance>
0.4291504920

$$$$



 26 28  0  0  0  0  0  0  0  0999 V2000
  -51.0063  -47.0217   30.3051 C   0  0  0  0  0  0  0  0  0  0  0  0
  -49.6366  -47.0704   30.4946 C   0  0  0  0  0  0  0  0  0  0  0  0
  -48.8331  -47.1197   29.3718 C   0  0  0  0  0  0  0  0  0  0  0  0
  -49.3614  -47.1081   28.1314 N   0  0  0  0  0  0  0  0  0  0  0  0
  -50.6887  -47.0640   28.0379 C   0  0  0  0  0  0  0  0  0  0  0  0
  -51.2341  -47.0329   26.7702 N   0  0  0  0  0  0  0  0  0  0  0  0
  -51.5301  -47.0005   29.0693 N   0  0  0  0  0  0  0  0  0  0  0  0
  -50.6476  -47.0775   25.9808 H   0  0  0  0  0  0  0  0  0  0  0  0
  -52.2096  -46.9661   26.6556 H   0  0  0  0  0  0  0  0  0  0  0  0
  -54.9675  -46.7280   34.3859 C   0  0  0  0  0  0  0  0  0  0  0  0
  -54.2727  -46.7664   33.0272 C   0  0  0  0  0  0  0  0  0  0  0  0
  -53.2977  -45.5914   32.8771 C   0  0  0  0  0  0  0  0  0  0  0  0
  -52.5497  -45.6624   31.5446 C   0  0  0  0  0  0  0  0  0  0  0  0
  -51.8521  -46.9559   31.4407 N   0  0  0  0  0  0  0  0  0  0  0  0
  -52.7619  -48.1130   31.5056 C   0  0  0  0  0  0  0  0  0  0  0  0
  -53.5262  -48.0924   32.8311 C   0  0  0  0  0  0  0  0  0  0  0  0
  -47.3557  -47.1712   29.4394 C   0  0  0  0  0  0  0  0  0  0  0  0
  -46.5948  -47.4764   28.2958 C   0  0  0  0  0  0  0  0  0  0  0  0
  -45.1966  -47.5278   28.3347 C   0  0  0  0  0  0  0  0  0  0  0  0
  -44.5092  -47.2724   29.5268 C   0  0  0  0  0  0  0  0  0  0  0  0
  -45.2516  -46.9845   30.6788 C   0  0  0  0  0  0  0  0  0  0  0  0
  -46.6509  -46.9340   30.6333 C   0  0  0  0  0  0  0  0  0  0  0  0
  -43.0036  -47.3501   29.5806 C   0  0  0  0  0  0  0  0  0  0  0  0
  -42.4739  -46.5132   30.5145 F   0  0  0  0  0  0  0  0  0  0  0  0
  -42.4105  -47.0151   28.4000 F   0  0  0  0  0  0  0  0  0  0  0  0
  -42.5406  -48.5944   29.8866 F   0  0  0  0  0  0  0  0  0  0  0  0
 10 11  1  0
 11 12  1  0
 12 13  1  0
 13 14  1  0
 14  1  1  0
  1  2  2  0
  2  3  1  0
  3 17  1  0
 17 18  2  0
 18 19  1  0
 19 20  2  0
 20 23  1  0
 23 24  1  0
 23 25  1  0
 23 26  1  0
 20 21  1  0
 21 22  2  0
  3  4  2  0
  4  5  1  0
  5  6  1  0
  5  7  2  0
 14 15  1  0
 15 16  1  0
 16 11  1  0
  7  1  1  0
 22 17  1  0
  6  8  1  0
  6  9  1  0
M  END
> <minimizedAffinity>
-10.74920

> <CNNscore>
0.6267859936

> <CNNaffinity>
7.4327635765

> <CNN_VS>
4.6587519646

> <CNNaffinity_variance>
0.0115797119

$$$$



 26 28  0  0  0  0  0  0  0  0999 V2000
  -53.6309  -47.4965   33.0479 C   0  0  0  0  0  0  0  0  0  0  0  0
  -54.2331  -48.7175   33.2949 C   0  0  0  0  0  0  0  0  0  0  0  0
  -55.3526  -48.7307   34.1044 C   0  0  0  0  0  0  0  0  0  0  0  0
  -55.8520  -47.5929   34.6278 N   0  0  0  0  0  0  0  0  0  0  0  0
  -55.2099  -46.4618   34.3437 C   0  0  0  0  0  0  0  0  0  0  0  0
  -55.7279  -45.2918   34.8615 N   0  0  0  0  0  0  0  0  0  0  0  0
  -54.1352  -46.3636   33.5620 N   0  0  0  0  0  0  0  0  0  0  0  0
  -56.5213  -45.3200   35.4437 H   0  0  0  0  0  0  0  0  0  0  0  0
  -55.3039  -44.4291   34.6486 H   0  0  0  0  0  0  0  0  0  0  0  0
  -49.5205  -47.3676   29.1087 C   0  0  0  0  0  0  0  0  0  0  0  0
  -50.8820  -47.4471   29.7945 C   0  0  0  0  0  0  0  0  0  0  0  0
  -50.9559  -48.6642   30.7258 C   0  0  0  0  0  0  0  0  0  0  0  0
  -52.2938  -48.7113   31.4660 C   0  0  0  0  0  0  0  0  0  0  0  0
  -52.4894  -47.4540   32.2086 N   0  0  0  0  0  0  0  0  0  0  0  0
  -52.4995  -46.2630   31.3412 C   0  0  0  0  0  0  0  0  0  0  0  0
  -51.1720  -46.1655   30.5864 C   0  0  0  0  0  0  0  0  0  0  0  0
  -56.0889  -49.9693   34.4417 C   0  0  0  0  0  0  0  0  0  0  0  0
  -55.6591  -50.7954   35.4967 C   0  0  0  0  0  0  0  0  0  0  0  0
  -56.3410  -51.9697   35.8361 C   0  0  0  0  0  0  0  0  0  0  0  0
  -57.4837  -52.3579   35.1273 C   0  0  0  0  0  0  0  0  0  0  0  0
  -57.9151  -51.5566   34.0628 C   0  0  0  0  0  0  0  0  0  0  0  0
  -57.2286  -50.3821   33.7283 C   0  0  0  0  0  0  0  0  0  0  0  0
  -58.2086  -53.6349   35.4728 C   0  0  0  0  0  0  0  0  0  0  0  0
  -57.3995  -54.5407   36.0877 F   0  0  0  0  0  0  0  0  0  0  0  0
  -58.7179  -54.2705   34.3801 F   0  0  0  0  0  0  0  0  0  0  0  0
  -59.2634  -53.4430   36.3136 F   0  0  0  0  0  0  0  0  0  0  0  0
 10 11  1  0
 11 12  1  0
 12 13  1  0
 13 14  1  0
 14  1  1  0
  1  2  2  0
  2  3  1  0
  3 17  1  0
 17 18  2  0
 18 19  1  0
 19 20  2  0
 20 23  1  0
 23 24  1  0
 23 25  1  0
 23 26  1  0
 20 21  1  0
 21 22  2  0
  3  4  2  0
  4  5  1  0
  5  6  1  0
  5  7  2  0
 14 15  1  0
 15 16  1  0
 16 11  1  0
  7  1  1  0
 22 17  1  0
  6  8  1  0
  6  9  1  0
M  END
> <minimizedAffinity>
-7.64022

> <CNNscore>
0.5893440247

> <CNNaffinity>
6.7644138336

> <CNN_VS>
3.9865667820

> <CNNaffinity_variance>
0.1056159735

$$$$



 26 28  0  0  0  0  0  0  0  0999 V2000
  -49.5951  -47.3730   30.5397 C   0  0  0  0  0  0  0  0  0  0  0  0
  -50.6021  -46.6195   31.1163 C   0  0  0  0  0  0  0  0  0  0  0  0
  -51.7866  -47.2590   31.4272 C   0  0  0  0  0  0  0  0  0  0  0  0
  -51.9550  -48.5755   31.1900 N   0  0  0  0  0  0  0  0  0  0  0  0
  -50.9377  -49.2256   30.6291 C   0  0  0  0  0  0  0  0  0  0  0  0
  -51.0979  -50.5777   30.4013 N   0  0  0  0  0  0  0  0  0  0  0  0
  -49.7611  -48.6857   30.3130 N   0  0  0  0  0  0  0  0  0  0  0  0
  -51.9517  -51.0160   30.6207 H   0  0  0  0  0  0  0  0  0  0  0  0
  -50.3585  -51.1036   30.0194 H   0  0  0  0  0  0  0  0  0  0  0  0
  -44.3445  -45.5149   29.3528 C   0  0  0  0  0  0  0  0  0  0  0  0
  -45.5270  -46.4031   29.7310 C   0  0  0  0  0  0  0  0  0  0  0  0
  -46.2013  -45.9005   31.0141 C   0  0  0  0  0  0  0  0  0  0  0  0
  -47.4271  -46.7474   31.3609 C   0  0  0  0  0  0  0  0  0  0  0  0
  -48.3646  -46.7437   30.2245 N   0  0  0  0  0  0  0  0  0  0  0  0
  -47.7793  -47.2889   28.9872 C   0  0  0  0  0  0  0  0  0  0  0  0
  -46.5527  -46.4640   28.5917 C   0  0  0  0  0  0  0  0  0  0  0  0
  -52.9372  -46.5668   32.0492 C   0  0  0  0  0  0  0  0  0  0  0  0
  -54.2120  -47.1626   32.0624 C   0  0  0  0  0  0  0  0  0  0  0  0
  -55.3142  -46.5286   32.6474 C   0  0  0  0  0  0  0  0  0  0  0  0
  -55.1761  -45.2699   33.2436 C   0  0  0  0  0  0  0  0  0  0  0  0
  -53.9182  -44.6546   33.2236 C   0  0  0  0  0  0  0  0  0  0  0  0
  -52.8186  -45.2945   32.6371 C   0  0  0  0  0  0  0  0  0  0  0  0
  -56.3654  -44.5711   33.8541 C   0  0  0  0  0  0  0  0  0  0  0  0
  -57.0168  -45.3512   34.7600 F   0  0  0  0  0  0  0  0  0  0  0  0
  -57.3014  -44.2089   32.9320 F   0  0  0  0  0  0  0  0  0  0  0  0
  -56.0350  -43.4262   34.5145 F   0  0  0  0  0  0  0  0  0  0  0  0
 10 11  1  0
 11 12  1  0
 12 13  1  0
 13 14  1  0
 14  1  1  0
  1  2  2  0
  2  3  1  0
  3 17  1  0
 17 18  2  0
 18 19  1  0
 19 20  2  0
 20 23  1  0
 23 24  1  0
 23 25  1  0
 23 26  1  0
 20 21  1  0
 21 22  2  0
  3  4  2  0
  4  5  1  0
  5  6  1  0
  5  7  2  0
 14 15  1  0
 15 16  1  0
 16 11  1  0
  7  1  1  0
 22 17  1  0
  6  8  1  0
  6  9  1  0
M  END
> <minimizedAffinity>
-7.84592

> <CNNscore>
0.5212417841

> <CNNaffinity>
7.1381359100

> <CNN_VS>
3.7206947803

> <CNNaffinity_variance>
0.1469330490

$$$$



 26 28  0  0  0  0  0  0  0  0999 V2000
  -45.9079  -46.5093   29.3920 C   0  0  0  0  0  0  0  0  0  0  0  0
  -45.1209  -47.6265   29.1756 C   0  0  0  0  0  0  0  0  0  0  0  0
  -43.7494  -47.4609   29.1944 C   0  0  0  0  0  0  0  0  0  0  0  0
  -43.1927  -46.2554   29.4278 N   0  0  0  0  0  0  0  0  0  0  0  0
  -44.0216  -45.2319   29.6223 C   0  0  0  0  0  0  0  0  0  0  0  0
  -43.4568  -43.9991   29.8804 N   0  0  0  0  0  0  0  0  0  0  0  0
  -45.3517  -45.3117   29.6339 N   0  0  0  0  0  0  0  0  0  0  0  0
  -42.4777  -43.8967   29.8815 H   0  0  0  0  0  0  0  0  0  0  0  0
  -44.0332  -43.2222   30.0634 H   0  0  0  0  0  0  0  0  0  0  0  0
  -51.4483  -47.8245   29.4508 C   0  0  0  0  0  0  0  0  0  0  0  0
  -49.9251  -47.9245   29.4500 C   0  0  0  0  0  0  0  0  0  0  0  0
  -49.3371  -47.3189   28.1688 C   0  0  0  0  0  0  0  0  0  0  0  0
  -47.8080  -47.3562   28.1927 C   0  0  0  0  0  0  0  0  0  0  0  0
  -47.3179  -46.6553   29.3923 N   0  0  0  0  0  0  0  0  0  0  0  0
  -47.8000  -47.2513   30.6506 C   0  0  0  0  0  0  0  0  0  0  0  0
  -49.3296  -47.2251   30.6788 C   0  0  0  0  0  0  0  0  0  0  0  0
  -42.7998  -48.5755   28.9804 C   0  0  0  0  0  0  0  0  0  0  0  0
  -41.4140  -48.3377   28.9258 C   0  0  0  0  0  0  0  0  0  0  0  0
  -40.4967  -49.3762   28.7276 C   0  0  0  0  0  0  0  0  0  0  0  0
  -40.9387  -50.6957   28.5780 C   0  0  0  0  0  0  0  0  0  0  0  0
  -42.3159  -50.9479   28.6119 C   0  0  0  0  0  0  0  0  0  0  0  0
  -43.2290  -49.9044   28.8112 C   0  0  0  0  0  0  0  0  0  0  0  0
  -39.9564  -51.8156   28.3400 C   0  0  0  0  0  0  0  0  0  0  0  0
  -39.8647  -52.1545   27.0246 F   0  0  0  0  0  0  0  0  0  0  0  0
  -40.2863  -52.9623   28.9987 F   0  0  0  0  0  0  0  0  0  0  0  0
  -38.6893  -51.5123   28.7382 F   0  0  0  0  0  0  0  0  0  0  0  0
 10 11  1  0
 11 12  1  0
 12 13  1  0
 13 14  1  0
 14  1  1  0
  1  2  2  0
  2  3  1  0
  3 17  1  0
 17 18  2  0
 18 19  1  0
 19 20  2  0
 20 23  1  0
 23 24  1  0
 23 25  1  0
 23 26  1  0
 20 21  1  0
 21 22  2  0
  3  4  2  0
  4  5  1  0
  5  6  1  0
  5  7  2  0
 14 15  1  0
 15 16  1  0
 16 11  1  0
  7  1  1  0
 22 17  1  0
  6  8  1  0
  6  9  1  0
M  END
> <minimizedAffinity>
-9.13996

> <CNNscore>
0.5195005536

> <CNNaffinity>
6.8845291138

> <CNN_VS>
3.5765166283

> <CNNaffinity_variance>
0.0513826609

$$$$



 26 28  0  0  0  0  0  0  0  0999 V2000
  -55.4362  -51.8679   39.0978 C   0  0  0  0  0  0  0  0  0  0  0  0
  -55.6247  -51.7240   37.7347 C   0  0  0  0  0  0  0  0  0  0  0  0
  -56.7179  -52.3494   37.1667 C   0  0  0  0  0  0  0  0  0  0  0  0
  -57.5813  -53.0662   37.9141 N   0  0  0  0  0  0  0  0  0  0  0  0
  -57.3244  -53.1576   39.2172 C   0  0  0  0  0  0  0  0  0  0  0  0
  -58.2155  -53.8746   39.9901 N   0  0  0  0  0  0  0  0  0  0  0  0
  -56.3022  -52.5739   39.8419 N   0  0  0  0  0  0  0  0  0  0  0  0
  -58.9846  -54.3213   39.5680 H   0  0  0  0  0  0  0  0  0  0  0  0
  -58.0820  -53.9392   40.9633 H   0  0  0  0  0  0  0  0  0  0  0  0
  -50.7397  -49.9623   41.6942 C   0  0  0  0  0  0  0  0  0  0  0  0
  -51.8235  -50.8733   41.1234 C   0  0  0  0  0  0  0  0  0  0  0  0
  -53.1811  -50.5860   41.7778 C   0  0  0  0  0  0  0  0  0  0  0  0
  -54.2835  -51.4497   41.1624 C   0  0  0  0  0  0  0  0  0  0  0  0
  -54.3302  -51.2241   39.7072 N   0  0  0  0  0  0  0  0  0  0  0  0
  -53.0669  -51.5590   39.0270 C   0  0  0  0  0  0  0  0  0  0  0  0
  -51.9322  -50.7084   39.6019 C   0  0  0  0  0  0  0  0  0  0  0  0
  -57.0318  -52.2701   35.7228 C   0  0  0  0  0  0  0  0  0  0  0  0
  -57.8511  -53.2375   35.1119 C   0  0  0  0  0  0  0  0  0  0  0  0
  -58.1643  -53.1814   33.7488 C   0  0  0  0  0  0  0  0  0  0  0  0
  -57.6660  -52.1481   32.9472 C   0  0  0  0  0  0  0  0  0  0  0  0
  -56.8344  -51.1867   33.5352 C   0  0  0  0  0  0  0  0  0  0  0  0
  -56.5250  -51.2479   34.9001 C   0  0  0  0  0  0  0  0  0  0  0  0
  -57.9803  -52.0960   31.4727 C   0  0  0  0  0  0  0  0  0  0  0  0
  -56.9327  -52.5024   30.7041 F   0  0  0  0  0  0  0  0  0  0  0  0
  -58.2970  -50.8431   31.0396 F   0  0  0  0  0  0  0  0  0  0  0  0
  -59.0328  -52.8858   31.1197 F   0  0  0  0  0  0  0  0  0  0  0  0
 10 11  1  0
 11 12  1  0
 12 13  1  0
 13 14  1  0
 14  1  1  0
  1  2  2  0
  2  3  1  0
  3 17  1  0
 17 18  2  0
 18 19  1  0
 19 20  2  0
 20 23  1  0
 23 24  1  0
 23 25  1  0
 23 26  1  0
 20 21  1  0
 21 22  2  0
  3  4  2  0
  4  5  1  0
  5  6  1  0
  5  7  2  0
 14 15  1  0
 15 16  1  0
 16 11  1  0
  7  1  1  0
 22 17  1  0
  6  8  1  0
  6  9  1  0
M  END
> <minimizedAffinity>
-6.93936

> <CNNscore>
0.4110863805

> <CNNaffinity>
5.5053062439

> <CNN_VS>
2.2631564140

> <CNNaffinity_variance>
0.0587759726

$$$$



 26 28  0  0  0  0  0  0  0  0999 V2000
  -46.2044  -46.5978   29.0094 C   0  0  0  0  0  0  0  0  0  0  0  0
  -45.5315  -47.6383   28.3939 C   0  0  0  0  0  0  0  0  0  0  0  0
  -44.1626  -47.5220   28.2477 C   0  0  0  0  0  0  0  0  0  0  0  0
  -43.4994  -46.4386   28.6996 N   0  0  0  0  0  0  0  0  0  0  0  0
  -44.2232  -45.4814   29.2761 C   0  0  0  0  0  0  0  0  0  0  0  0
  -43.5469  -44.3785   29.7574 N   0  0  0  0  0  0  0  0  0  0  0  0
  -45.5412  -45.5241   29.4673 N   0  0  0  0  0  0  0  0  0  0  0  0
  -42.5723  -44.3075   29.6372 H   0  0  0  0  0  0  0  0  0  0  0  0
  -44.0391  -43.6628   30.2208 H   0  0  0  0  0  0  0  0  0  0  0  0
  -51.7335  -47.7369   29.7584 C   0  0  0  0  0  0  0  0  0  0  0  0
  -50.2260  -47.8851   29.5697 C   0  0  0  0  0  0  0  0  0  0  0  0
  -49.7823  -47.2989   28.2230 C   0  0  0  0  0  0  0  0  0  0  0  0
  -48.2639  -47.3846   28.0579 C   0  0  0  0  0  0  0  0  0  0  0  0
  -47.6074  -46.6990   29.1846 N   0  0  0  0  0  0  0  0  0  0  0  0
  -47.9486  -47.2789   30.4954 C   0  0  0  0  0  0  0  0  0  0  0  0
  -49.4615  -47.2044   30.7125 C   0  0  0  0  0  0  0  0  0  0  0  0
  -43.3285  -48.5653   27.6106 C   0  0  0  0  0  0  0  0  0  0  0  0
  -42.8170  -49.6364   28.3664 C   0  0  0  0  0  0  0  0  0  0  0  0
  -42.0285  -50.6363   27.7852 C   0  0  0  0  0  0  0  0  0  0  0  0
  -41.7252  -50.5978   26.4194 C   0  0  0  0  0  0  0  0  0  0  0  0
  -42.2113  -49.5292   25.6559 C   0  0  0  0  0  0  0  0  0  0  0  0
  -43.0004  -48.5318   26.2432 C   0  0  0  0  0  0  0  0  0  0  0  0
  -40.8560  -51.6595   25.7925 C   0  0  0  0  0  0  0  0  0  0  0  0
  -41.0219  -51.7358   24.4434 F   0  0  0  0  0  0  0  0  0  0  0  0
  -41.1128  -52.9094   26.2714 F   0  0  0  0  0  0  0  0  0  0  0  0
  -39.5247  -51.4524   25.9953 F   0  0  0  0  0  0  0  0  0  0  0  0
 10 11  1  0
 11 12  1  0
 12 13  1  0
 13 14  1  0
 14  1  1  0
  1  2  2  0
  2  3  1  0
  3 17  1  0
 17 18  2  0
 18 19  1  0
 19 20  2  0
 20 23  1  0
 23 24  1  0
 23 25  1  0
 23 26  1  0
 20 21  1  0
 21 22  2  0
  3  4  2  0
  4  5  1  0
  5  6  1  0
  5  7  2  0
 14 15  1  0
 15 16  1  0
 16 11  1  0
  7  1  1  0
 22 17  1  0
  6  8  1  0
  6  9  1  0
M  END
> <minimizedAffinity>
-8.78723

> <CNNscore>
0.3934670985

> <CNNaffinity>
6.6979002953

> <CNN_VS>
2.6354033947

> <CNNaffinity_variance>
0.0447174720

$$$$



 26 28  0  0  0  0  0  0  0  0999 V2000
  -45.5789  -47.0900   28.8944 C   0  0  0  0  0  0  0  0  0  0  0  0
  -44.7039  -47.7717   28.0673 C   0  0  0  0  0  0  0  0  0  0  0  0
  -43.4543  -47.2205   27.8587 C   0  0  0  0  0  0  0  0  0  0  0  0
  -43.0914  -46.0641   28.4493 N   0  0  0  0  0  0  0  0  0  0  0  0
  -43.9946  -45.4707   29.2268 C   0  0  0  0  0  0  0  0  0  0  0  0
  -43.6216  -44.2962   29.8489 N   0  0  0  0  0  0  0  0  0  0  0  0
  -45.2124  -45.9437   29.4892 N   0  0  0  0  0  0  0  0  0  0  0  0
  -42.7303  -43.9125   29.6824 H   0  0  0  0  0  0  0  0  0  0  0  0
  -44.2468  -43.8422   30.4590 H   0  0  0  0  0  0  0  0  0  0  0  0
  -50.8968  -48.6609   30.1912 C   0  0  0  0  0  0  0  0  0  0  0  0
  -49.5996  -47.8659   30.0676 C   0  0  0  0  0  0  0  0  0  0  0  0
  -48.4392  -48.6012   30.7508 C   0  0  0  0  0  0  0  0  0  0  0  0
  -47.1236  -47.8412   30.5723 C   0  0  0  0  0  0  0  0  0  0  0  0
  -46.8620  -47.6418   29.1363 N   0  0  0  0  0  0  0  0  0  0  0  0
  -47.9186  -46.8738   28.4548 C   0  0  0  0  0  0  0  0  0  0  0  0
  -49.2564  -47.6032   28.5955 C   0  0  0  0  0  0  0  0  0  0  0  0
  -42.4279  -47.8521   27.0000 C   0  0  0  0  0  0  0  0  0  0  0  0
  -42.6616  -49.1058   26.4053 C   0  0  0  0  0  0  0  0  0  0  0  0
  -41.7072  -49.7211   25.5869 C   0  0  0  0  0  0  0  0  0  0  0  0
  -40.4800  -49.0976   25.3340 C   0  0  0  0  0  0  0  0  0  0  0  0
  -40.2237  -47.8576   25.9323 C   0  0  0  0  0  0  0  0  0  0  0  0
  -41.1832  -47.2465   26.7499 C   0  0  0  0  0  0  0  0  0  0  0  0
  -39.4381  -49.7669   24.4726 C   0  0  0  0  0  0  0  0  0  0  0  0
  -38.9140  -48.9228   23.5419 F   0  0  0  0  0  0  0  0  0  0  0  0
  -39.9264  -50.8325   23.7771 F   0  0  0  0  0  0  0  0  0  0  0  0
  -38.3789  -50.2444   25.1842 F   0  0  0  0  0  0  0  0  0  0  0  0
 10 11  1  0
 11 12  1  0
 12 13  1  0
 13 14  1  0
 14  1  1  0
  1  2  2  0
  2  3  1  0
  3 17  1  0
 17 18  2  0
 18 19  1  0
 19 20  2  0
 20 23  1  0
 23 24  1  0
 23 25  1  0
 23 26  1  0
 20 21  1  0
 21 22  2  0
  3  4  2  0
  4  5  1  0
  5  6  1  0
  5  7  2  0
 14 15  1  0
 15 16  1  0
 16 11  1  0
  7  1  1  0
 22 17  1  0
  6  8  1  0
  6  9  1  0
M  END
> <minimizedAffinity>
-8.93043

> <CNNscore>
0.3845450580

> <CNNaffinity>
6.6062989235

> <CNN_VS>
2.5404195786

> <CNNaffinity_variance>
0.0209669340

$$$$
