


 30 31  0  0  0  0  0  0  0  0999 V2000
   10.9619   10.0557   50.4390 C   0  0  0  0  0  0  0  0  0  0  0  0
   10.0134   10.6584   51.4037 N   0  0  0  0  0  0  0  0  0  0  0  0
    9.0579   10.5097   51.0792 H   0  0  0  0  0  0  0  0  0  0  0  0
   10.1950   11.6593   51.4790 H   0  0  0  0  0  0  0  0  0  0  0  0
   10.7535   10.7417   49.0464 C   0  0  0  0  0  0  0  0  0  0  0  0
   12.0863   10.9623   48.1356 N   0  0  0  0  0  0  0  0  0  0  0  0
   11.6476   10.7125   46.6818 C   0  0  0  0  0  0  0  0  0  0  0  0
   13.1031    9.9084   48.5449 C   0  0  0  0  0  0  0  0  0  0  0  0
   12.4573   12.4160   48.3915 C   0  0  0  0  0  0  0  0  0  0  0  0
   12.2931   13.5604   47.3426 N   0  0  0  0  0  0  0  0  0  0  0  0
   13.4396   13.4538   46.3310 C   0  0  0  0  0  0  0  0  0  0  0  0
   10.9691   13.5192   46.6311 C   0  0  0  0  0  0  0  0  0  0  0  0
   12.4627   14.8648   48.1744 C   0  0  0  0  0  0  0  0  0  0  0  0
   12.8431   17.2409   48.7063 C   0  0  0  0  0  0  0  0  0  0  0  0
   13.1123   16.1248   47.6288 N   0  0  0  0  0  0  0  0  0  0  0  0
   14.6250   16.1160   47.4463 C   0  0  0  0  0  0  0  0  0  0  0  0
   12.4539   16.6698   46.3483 C   0  0  0  0  0  0  0  0  0  0  0  0
   10.7695    8.5086   50.3208 C   0  0  0  0  0  0  0  0  0  0  0  0
   11.6855    7.7241   51.1654 N   0  0  0  0  0  0  0  0  0  0  0  0
   11.7423    6.3470   51.0611 C   0  0  0  0  0  0  0  0  0  0  0  0
   12.6450    5.6106   51.7128 C   0  0  0  0  0  0  0  0  0  0  0  0
   13.6328    6.2498   52.5725 C   0  0  0  0  0  0  0  0  0  0  0  0
   14.5052    5.6394   53.1670 O   0  0  0  0  0  0  0  0  0  0  0  0
   13.5059    7.6105   52.6563 N   0  0  0  0  0  0  0  0  0  0  0  0
   12.6097    8.3914   51.9756 C   0  0  0  0  0  0  0  0  0  0  0  0
   12.6213    9.6196   52.1021 O   0  0  0  0  0  0  0  0  0  0  0  0
   12.5413    4.1558   51.4436 C   0  0  0  0  0  0  0  0  0  0  0  0
   11.1713    4.0690   50.7641 C   0  0  0  0  0  0  0  0  0  0  0  0
   10.8577    5.4740   50.2287 C   0  0  0  0  0  0  0  0  0  0  0  0
   14.1216    8.0750   53.2682 H   0  0  0  0  0  0  0  0  0  0  0  0
 14 15  1  0
 15 16  1  0
 15 17  1  0
 15 13  1  0
 13 10  1  0
 10 11  1  0
 10 12  1  0
 10  9  1  0
  9  6  1  0
  6  7  1  0
  6  8  1  0
  6  5  1  0
  5  1  1  0
  1  2  1  0
  1 18  1  0
 18 19  1  0
 19 20  1  0
 20 21  2  0
 21 22  1  0
 22 23  2  0
 22 24  1  0
 24 25  1  0
 25 26  2  0
 21 27  1  0
 27 28  1  0
 28 29  1  0
 25 19  1  0
 29 20  1  0
  2  3  1  0
  2  4  1  0
 24 30  1  0
M  CHG 1   6   1
M  CHG 1  10   1
M  CHG 1  15   1
M  END
> <minimizedAffinity>
-5.12917

> <CNNscore>
0.0656489581

> <CNNaffinity>
3.9923794270

> <CNN_VS>
0.2620955408

> <CNNaffinity_variance>
1.3344770670

$$$$



 30 31  0  0  0  0  0  0  0  0999 V2000
   30.3045   17.4146   61.6882 C   0  0  0  0  0  0  0  0  0  0  0  0
   29.2449   16.4036   61.4678 N   0  0  0  0  0  0  0  0  0  0  0  0
   28.5745   16.4408   62.2357 H   0  0  0  0  0  0  0  0  0  0  0  0
   29.6644   15.4747   61.4274 H   0  0  0  0  0  0  0  0  0  0  0  0
   31.0203   17.0934   63.0438 C   0  0  0  0  0  0  0  0  0  0  0  0
   30.1000   16.4352   64.2163 N   0  0  0  0  0  0  0  0  0  0  0  0
   29.4190   15.2114   63.5786 C   0  0  0  0  0  0  0  0  0  0  0  0
   29.0431   17.4586   64.6007 C   0  0  0  0  0  0  0  0  0  0  0  0
   31.1092   16.0489   65.2880 C   0  0  0  0  0  0  0  0  0  0  0  0
   32.6569   16.0775   65.0859 N   0  0  0  0  0  0  0  0  0  0  0  0
   33.0443   14.9092   64.1726 C   0  0  0  0  0  0  0  0  0  0  0  0
   33.1493   17.3742   64.5052 C   0  0  0  0  0  0  0  0  0  0  0  0
   33.2304   15.8268   66.5107 C   0  0  0  0  0  0  0  0  0  0  0  0
   31.9315   13.9683   67.4763 C   0  0  0  0  0  0  0  0  0  0  0  0
   32.3671   15.4637   67.7066 N   0  0  0  0  0  0  0  0  0  0  0  0
   33.0262   15.4706   69.0803 C   0  0  0  0  0  0  0  0  0  0  0  0
   31.0377   16.2366   67.7823 C   0  0  0  0  0  0  0  0  0  0  0  0
   29.7294   18.8684   61.7045 C   0  0  0  0  0  0  0  0  0  0  0  0
   29.8709   19.5836   60.4254 N   0  0  0  0  0  0  0  0  0  0  0  0
   28.7714   19.8280   59.6240 C   0  0  0  0  0  0  0  0  0  0  0  0
   28.8335   20.5812   58.5237 C   0  0  0  0  0  0  0  0  0  0  0  0
   30.0932   21.1946   58.1230 C   0  0  0  0  0  0  0  0  0  0  0  0
   30.2102   21.9210   57.1505 O   0  0  0  0  0  0  0  0  0  0  0  0
   31.1490   20.8916   58.9403 N   0  0  0  0  0  0  0  0  0  0  0  0
   31.1058   20.1479   60.0899 C   0  0  0  0  0  0  0  0  0  0  0  0
   32.1228   19.9792   60.7694 O   0  0  0  0  0  0  0  0  0  0  0  0
   27.5349   20.7302   57.8232 C   0  0  0  0  0  0  0  0  0  0  0  0
   26.6991   19.6371   58.4960 C   0  0  0  0  0  0  0  0  0  0  0  0
   27.3769   19.3317   59.8401 C   0  0  0  0  0  0  0  0  0  0  0  0
   32.0290   21.2441   58.6748 H   0  0  0  0  0  0  0  0  0  0  0  0
 14 15  1  0
 15 16  1  0
 15 17  1  0
 15 13  1  0
 13 10  1  0
 10 11  1  0
 10 12  1  0
 10  9  1  0
  9  6  1  0
  6  7  1  0
  6  8  1  0
  6  5  1  0
  5  1  1  0
  1  2  1  0
  1 18  1  0
 18 19  1  0
 19 20  1  0
 20 21  2  0
 21 22  1  0
 22 23  2  0
 22 24  1  0
 24 25  1  0
 25 26  2  0
 21 27  1  0
 27 28  1  0
 28 29  1  0
 25 19  1  0
 29 20  1  0
  2  3  1  0
  2  4  1  0
 24 30  1  0
M  CHG 1   6   1
M  CHG 1  10   1
M  CHG 1  15   1
M  END
> <minimizedAffinity>
-5.99531

> <CNNscore>
0.0633046627

> <CNNaffinity>
3.3942215443

> <CNN_VS>
0.2148700505

> <CNNaffinity_variance>
2.0534989834

$$$$



 30 31  0  0  0  0  0  0  0  0999 V2000
   14.2744   13.4338   49.0849 C   0  0  0  0  0  0  0  0  0  0  0  0
   14.4242   12.4870   50.2140 N   0  0  0  0  0  0  0  0  0  0  0  0
   15.3412   12.0429   50.1658 H   0  0  0  0  0  0  0  0  0  0  0  0
   13.6975   11.7735   50.1581 H   0  0  0  0  0  0  0  0  0  0  0  0
   14.4150   12.6331   47.7462 C   0  0  0  0  0  0  0  0  0  0  0  0
   13.1017   12.5865   46.7830 N   0  0  0  0  0  0  0  0  0  0  0  0
   13.1959   11.2603   46.0081 C   0  0  0  0  0  0  0  0  0  0  0  0
   13.2041   13.7495   45.8087 C   0  0  0  0  0  0  0  0  0  0  0  0
   11.9383   12.6078   47.7639 C   0  0  0  0  0  0  0  0  0  0  0  0
   10.9782   11.4020   48.0116 N   0  0  0  0  0  0  0  0  0  0  0  0
    9.7355   11.9194   48.7444 C   0  0  0  0  0  0  0  0  0  0  0  0
   10.5772   10.7007   46.7434 C   0  0  0  0  0  0  0  0  0  0  0  0
   11.7812   10.4664   48.9612 C   0  0  0  0  0  0  0  0  0  0  0  0
   10.4438    8.6155   49.8879 C   0  0  0  0  0  0  0  0  0  0  0  0
   11.2262    9.9277   50.2686 N   0  0  0  0  0  0  0  0  0  0  0  0
   12.2259    9.4908   51.3323 C   0  0  0  0  0  0  0  0  0  0  0  0
   10.1598   10.8276   50.9192 C   0  0  0  0  0  0  0  0  0  0  0  0
   15.3291   14.5864   49.1462 C   0  0  0  0  0  0  0  0  0  0  0  0
   15.1759   15.5964   48.0859 N   0  0  0  0  0  0  0  0  0  0  0  0
   14.0481   16.3931   48.0229 C   0  0  0  0  0  0  0  0  0  0  0  0
   13.9258   17.4038   47.1595 C   0  0  0  0  0  0  0  0  0  0  0  0
   15.0081   17.7156   46.2349 C   0  0  0  0  0  0  0  0  0  0  0  0
   14.9747   18.6454   45.4466 O   0  0  0  0  0  0  0  0  0  0  0  0
   16.0839   16.8736   46.3270 N   0  0  0  0  0  0  0  0  0  0  0  0
   16.2467   15.8503   47.2230 C   0  0  0  0  0  0  0  0  0  0  0  0
   17.2866   15.1847   47.2365 O   0  0  0  0  0  0  0  0  0  0  0  0
   12.6440   18.1408   47.2745 C   0  0  0  0  0  0  0  0  0  0  0  0
   11.8209   17.1859   48.1444 C   0  0  0  0  0  0  0  0  0  0  0  0
   12.8256   16.2851   48.8782 C   0  0  0  0  0  0  0  0  0  0  0  0
   16.8149   17.0184   45.6836 H   0  0  0  0  0  0  0  0  0  0  0  0
 14 15  1  0
 15 16  1  0
 15 17  1  0
 15 13  1  0
 13 10  1  0
 10 11  1  0
 10 12  1  0
 10  9  1  0
  9  6  1  0
  6  7  1  0
  6  8  1  0
  6  5  1  0
  5  1  1  0
  1  2  1  0
  1 18  1  0
 18 19  1  0
 19 20  1  0
 20 21  2  0
 21 22  1  0
 22 23  2  0
 22 24  1  0
 24 25  1  0
 25 26  2  0
 21 27  1  0
 27 28  1  0
 28 29  1  0
 25 19  1  0
 29 20  1  0
  2  3  1  0
  2  4  1  0
 24 30  1  0
M  CHG 1   6   1
M  CHG 1  10   1
M  CHG 1  15   1
M  END
> <minimizedAffinity>
-4.28462

> <CNNscore>
0.0620895699

> <CNNaffinity>
3.6963469982

> <CNN_VS>
0.2295046002

> <CNNaffinity_variance>
1.6909197569

$$$$



 30 31  0  0  0  0  0  0  0  0999 V2000
   31.8660   18.9436   61.0680 C   0  0  0  0  0  0  0  0  0  0  0  0
   31.6542   17.4780   61.0898 N   0  0  0  0  0  0  0  0  0  0  0  0
   31.1191   17.2241   61.9202 H   0  0  0  0  0  0  0  0  0  0  0  0
   32.5573   17.0043   61.1093 H   0  0  0  0  0  0  0  0  0  0  0  0
   32.6528   19.3489   62.3602 C   0  0  0  0  0  0  0  0  0  0  0  0
   32.4074   18.4287   63.6821 N   0  0  0  0  0  0  0  0  0  0  0  0
   32.9859   19.2275   64.8634 C   0  0  0  0  0  0  0  0  0  0  0  0
   33.2019   17.1446   63.5029 C   0  0  0  0  0  0  0  0  0  0  0  0
   30.8925   18.2994   63.7512 C   0  0  0  0  0  0  0  0  0  0  0  0
   30.1221   17.6393   64.9377 N   0  0  0  0  0  0  0  0  0  0  0  0
   30.8233   16.3238   65.2939 C   0  0  0  0  0  0  0  0  0  0  0  0
   30.0385   18.5262   66.1491 C   0  0  0  0  0  0  0  0  0  0  0  0
   28.7151   17.3279   64.3503 C   0  0  0  0  0  0  0  0  0  0  0  0
   29.7220   15.3213   63.3340 C   0  0  0  0  0  0  0  0  0  0  0  0
   28.4696   16.2742   63.2841 N   0  0  0  0  0  0  0  0  0  0  0  0
   27.2706   15.3519   63.4670 C   0  0  0  0  0  0  0  0  0  0  0  0
   28.4689   16.8215   61.8451 C   0  0  0  0  0  0  0  0  0  0  0  0
   30.5156   19.7270   60.9818 C   0  0  0  0  0  0  0  0  0  0  0  0
   30.2159   20.2600   59.6424 N   0  0  0  0  0  0  0  0  0  0  0  0
   28.9329   20.2116   59.1305 C   0  0  0  0  0  0  0  0  0  0  0  0
   28.5926   20.7957   57.9795 C   0  0  0  0  0  0  0  0  0  0  0  0
   29.5855   21.5307   57.2066 C   0  0  0  0  0  0  0  0  0  0  0  0
   29.3328   22.1159   56.1670 O   0  0  0  0  0  0  0  0  0  0  0  0
   30.8417   21.5175   57.7512 N   0  0  0  0  0  0  0  0  0  0  0  0
   31.2098   20.9527   58.9437 C   0  0  0  0  0  0  0  0  0  0  0  0
   32.3714   21.0446   59.3520 O   0  0  0  0  0  0  0  0  0  0  0  0
   27.1610   20.6381   57.6256 C   0  0  0  0  0  0  0  0  0  0  0  0
   26.7258   19.5397   58.6004 C   0  0  0  0  0  0  0  0  0  0  0  0
   27.7460   19.5431   59.7487 C   0  0  0  0  0  0  0  0  0  0  0  0
   31.5529   21.9588   57.2329 H   0  0  0  0  0  0  0  0  0  0  0  0
 14 15  1  0
 15 16  1  0
 15 17  1  0
 15 13  1  0
 13 10  1  0
 10 11  1  0
 10 12  1  0
 10  9  1  0
  9  6  1  0
  6  7  1  0
  6  8  1  0
  6  5  1  0
  5  1  1  0
  1  2  1  0
  1 18  1  0
 18 19  1  0
 19 20  1  0
 20 21  2  0
 21 22  1  0
 22 23  2  0
 22 24  1  0
 24 25  1  0
 25 26  2  0
 21 27  1  0
 27 28  1  0
 28 29  1  0
 25 19  1  0
 29 20  1  0
  2  3  1  0
  2  4  1  0
 24 30  1  0
M  CHG 1   6   1
M  CHG 1  10   1
M  CHG 1  15   1
M  END
> <minimizedAffinity>
-6.31496

> <CNNscore>
0.0605796538

> <CNNaffinity>
3.2281291485

> <CNN_VS>
0.1955589503

> <CNNaffinity_variance>
2.8577697277

$$$$



 30 31  0  0  0  0  0  0  0  0999 V2000
   13.9486   10.2278   50.0669 C   0  0  0  0  0  0  0  0  0  0  0  0
   15.2303    9.8358   50.6971 N   0  0  0  0  0  0  0  0  0  0  0  0
   15.3987   10.4193   51.5166 H   0  0  0  0  0  0  0  0  0  0  0  0
   15.9903    9.9612   50.0285 H   0  0  0  0  0  0  0  0  0  0  0  0
   14.0449   11.7332   49.6453 C   0  0  0  0  0  0  0  0  0  0  0  0
   13.4376   12.1215   48.1841 N   0  0  0  0  0  0  0  0  0  0  0  0
   12.0178   12.6536   48.4472 C   0  0  0  0  0  0  0  0  0  0  0  0
   13.3545   10.8426   47.3657 C   0  0  0  0  0  0  0  0  0  0  0  0
   14.3823   13.2034   47.6806 C   0  0  0  0  0  0  0  0  0  0  0  0
   14.7867   14.4666   48.5038 N   0  0  0  0  0  0  0  0  0  0  0  0
   15.2321   14.0102   49.8975 C   0  0  0  0  0  0  0  0  0  0  0  0
   15.8762   15.2700   47.8490 C   0  0  0  0  0  0  0  0  0  0  0  0
   13.4645   15.2779   48.6280 C   0  0  0  0  0  0  0  0  0  0  0  0
   14.2634   16.5839   46.6968 C   0  0  0  0  0  0  0  0  0  0  0  0
   13.0008   16.2837   47.5883 N   0  0  0  0  0  0  0  0  0  0  0  0
   11.9264   15.8367   46.6047 C   0  0  0  0  0  0  0  0  0  0  0  0
   12.6131   17.6563   48.1679 C   0  0  0  0  0  0  0  0  0  0  0  0
   12.7345   10.0053   51.0267 C   0  0  0  0  0  0  0  0  0  0  0  0
   12.0855    8.6921   50.8781 N   0  0  0  0  0  0  0  0  0  0  0  0
   12.4629    7.6212   51.6663 C   0  0  0  0  0  0  0  0  0  0  0  0
   11.8168    6.4532   51.6543 C   0  0  0  0  0  0  0  0  0  0  0  0
   10.6562    6.2640   50.7937 C   0  0  0  0  0  0  0  0  0  0  0  0
   10.0012    5.2360   50.7611 O   0  0  0  0  0  0  0  0  0  0  0  0
   10.3510    7.3501   50.0178 N   0  0  0  0  0  0  0  0  0  0  0  0
   10.9779    8.5680   50.0333 C   0  0  0  0  0  0  0  0  0  0  0  0
   10.5813    9.4896   49.3137 O   0  0  0  0  0  0  0  0  0  0  0  0
   12.3753    5.4476   52.5905 C   0  0  0  0  0  0  0  0  0  0  0  0
   13.7222    6.0820   52.9503 C   0  0  0  0  0  0  0  0  0  0  0  0
   13.5975    7.5812   52.6403 C   0  0  0  0  0  0  0  0  0  0  0  0
    9.6050    7.2450   49.3840 H   0  0  0  0  0  0  0  0  0  0  0  0
 14 15  1  0
 15 16  1  0
 15 17  1  0
 15 13  1  0
 13 10  1  0
 10 11  1  0
 10 12  1  0
 10  9  1  0
  9  6  1  0
  6  7  1  0
  6  8  1  0
  6  5  1  0
  5  1  1  0
  1  2  1  0
  1 18  1  0
 18 19  1  0
 19 20  1  0
 20 21  2  0
 21 22  1  0
 22 23  2  0
 22 24  1  0
 24 25  1  0
 25 26  2  0
 21 27  1  0
 27 28  1  0
 28 29  1  0
 25 19  1  0
 29 20  1  0
  2  3  1  0
  2  4  1  0
 24 30  1  0
M  CHG 1   6   1
M  CHG 1  10   1
M  CHG 1  15   1
M  END
> <minimizedAffinity>
-5.72287

> <CNNscore>
0.0513827056

> <CNNaffinity>
4.3034920692

> <CNN_VS>
0.2211250663

> <CNNaffinity_variance>
1.6675602198

$$$$



 30 31  0  0  0  0  0  0  0  0999 V2000
   31.4892   18.3080   61.6553 C   0  0  0  0  0  0  0  0  0  0  0  0
   31.6937   16.9431   61.1182 N   0  0  0  0  0  0  0  0  0  0  0  0
   31.1223   16.2816   61.6440 H   0  0  0  0  0  0  0  0  0  0  0  0
   32.6772   16.6872   61.2054 H   0  0  0  0  0  0  0  0  0  0  0  0
   31.9098   18.3139   63.1640 C   0  0  0  0  0  0  0  0  0  0  0  0
   30.7022   18.3292   64.2577 N   0  0  0  0  0  0  0  0  0  0  0  0
   29.6863   17.2783   63.7765 C   0  0  0  0  0  0  0  0  0  0  0  0
   30.0615   19.7076   64.2165 C   0  0  0  0  0  0  0  0  0  0  0  0
   31.3894   17.9257   65.5544 C   0  0  0  0  0  0  0  0  0  0  0  0
   31.7554   16.4559   65.9320 N   0  0  0  0  0  0  0  0  0  0  0  0
   30.9823   15.5138   65.0026 C   0  0  0  0  0  0  0  0  0  0  0  0
   33.2302   16.1766   65.8426 C   0  0  0  0  0  0  0  0  0  0  0  0
   31.2228   16.2936   67.3853 C   0  0  0  0  0  0  0  0  0  0  0  0
   32.9327   15.7178   69.0640 C   0  0  0  0  0  0  0  0  0  0  0  0
   31.6592   15.1741   68.3147 N   0  0  0  0  0  0  0  0  0  0  0  0
   30.6991   14.7644   69.4246 C   0  0  0  0  0  0  0  0  0  0  0  0
   32.1585   13.9112   67.5894 C   0  0  0  0  0  0  0  0  0  0  0  0
   30.0069   18.7805   61.4991 C   0  0  0  0  0  0  0  0  0  0  0  0
   29.7752   19.6537   60.3365 N   0  0  0  0  0  0  0  0  0  0  0  0
   30.8177   20.3483   59.7522 C   0  0  0  0  0  0  0  0  0  0  0  0
   30.6765   21.0471   58.6237 C   0  0  0  0  0  0  0  0  0  0  0  0
   29.3871   21.0969   57.9465 C   0  0  0  0  0  0  0  0  0  0  0  0
   29.1996   21.6867   56.8958 O   0  0  0  0  0  0  0  0  0  0  0  0
   28.3898   20.4137   58.5894 N   0  0  0  0  0  0  0  0  0  0  0  0
   28.5153   19.6649   59.7296 C   0  0  0  0  0  0  0  0  0  0  0  0
   27.5464   19.0557   60.1928 O   0  0  0  0  0  0  0  0  0  0  0  0
   31.9253   21.6989   58.1600 C   0  0  0  0  0  0  0  0  0  0  0  0
   32.8144   21.5702   59.4006 C   0  0  0  0  0  0  0  0  0  0  0  0
   32.2285   20.4275   60.2433 C   0  0  0  0  0  0  0  0  0  0  0  0
   27.4907   20.4659   58.1916 H   0  0  0  0  0  0  0  0  0  0  0  0
 14 15  1  0
 15 16  1  0
 15 17  1  0
 15 13  1  0
 13 10  1  0
 10 11  1  0
 10 12  1  0
 10  9  1  0
  9  6  1  0
  6  7  1  0
  6  8  1  0
  6  5  1  0
  5  1  1  0
  1  2  1  0
  1 18  1  0
 18 19  1  0
 19 20  1  0
 20 21  2  0
 21 22  1  0
 22 23  2  0
 22 24  1  0
 24 25  1  0
 25 26  2  0
 21 27  1  0
 27 28  1  0
 28 29  1  0
 25 19  1  0
 29 20  1  0
  2  3  1  0
  2  4  1  0
 24 30  1  0
M  CHG 1   6   1
M  CHG 1  10   1
M  CHG 1  15   1
M  END
> <minimizedAffinity>
-4.96589

> <CNNscore>
0.0492862277

> <CNNaffinity>
3.7035739422

> <CNN_VS>
0.1825351864

> <CNNaffinity_variance>
0.9310910106

$$$$



 30 31  0  0  0  0  0  0  0  0999 V2000
   11.2442    7.8752   50.3890 C   0  0  0  0  0  0  0  0  0  0  0  0
   12.0055    7.7709   51.6551 N   0  0  0  0  0  0  0  0  0  0  0  0
   11.3685    7.8773   52.4446 H   0  0  0  0  0  0  0  0  0  0  0  0
   12.7131    8.5048   51.6878 H   0  0  0  0  0  0  0  0  0  0  0  0
   10.5563    9.2815   50.3401 C   0  0  0  0  0  0  0  0  0  0  0  0
   10.7377   10.1344   48.9637 N   0  0  0  0  0  0  0  0  0  0  0  0
   10.1251   11.5182   49.2432 C   0  0  0  0  0  0  0  0  0  0  0  0
    9.9330    9.4351   47.8795 C   0  0  0  0  0  0  0  0  0  0  0  0
   12.2468   10.1916   48.7751 C   0  0  0  0  0  0  0  0  0  0  0  0
   12.9651   11.0909   47.7203 N   0  0  0  0  0  0  0  0  0  0  0  0
   14.0831   10.2691   47.0693 C   0  0  0  0  0  0  0  0  0  0  0  0
   12.0314   11.6207   46.6674 C   0  0  0  0  0  0  0  0  0  0  0  0
   13.5953   12.2364   48.5644 C   0  0  0  0  0  0  0  0  0  0  0  0
   12.6520   14.4453   48.0127 C   0  0  0  0  0  0  0  0  0  0  0  0
   13.9732   13.5893   47.9861 N   0  0  0  0  0  0  0  0  0  0  0  0
   14.9935   14.4231   48.7511 C   0  0  0  0  0  0  0  0  0  0  0  0
   14.3681   13.5510   46.4985 C   0  0  0  0  0  0  0  0  0  0  0  0
   10.1777    6.7399   50.2543 C   0  0  0  0  0  0  0  0  0  0  0  0
   10.7500    5.3855   50.1776 N   0  0  0  0  0  0  0  0  0  0  0  0
   10.6226    4.5009   51.2321 C   0  0  0  0  0  0  0  0  0  0  0  0
   11.0123    3.2265   51.1560 C   0  0  0  0  0  0  0  0  0  0  0  0
   11.5932    2.7078   49.9244 C   0  0  0  0  0  0  0  0  0  0  0  0
   11.9367    1.5470   49.7774 O   0  0  0  0  0  0  0  0  0  0  0  0
   11.7189    3.6390   48.9285 N   0  0  0  0  0  0  0  0  0  0  0  0
   11.2997    4.9424   48.9704 C   0  0  0  0  0  0  0  0  0  0  0  0
   11.4297    5.6776   47.9870 O   0  0  0  0  0  0  0  0  0  0  0  0
   10.7664    2.4478   52.3940 C   0  0  0  0  0  0  0  0  0  0  0  0
   10.4632    3.5627   53.3996 C   0  0  0  0  0  0  0  0  0  0  0  0
   10.0393    4.7900   52.5789 C   0  0  0  0  0  0  0  0  0  0  0  0
   12.1549    3.3414   48.0975 H   0  0  0  0  0  0  0  0  0  0  0  0
 14 15  1  0
 15 16  1  0
 15 17  1  0
 15 13  1  0
 13 10  1  0
 10 11  1  0
 10 12  1  0
 10  9  1  0
  9  6  1  0
  6  7  1  0
  6  8  1  0
  6  5  1  0
  5  1  1  0
  1  2  1  0
  1 18  1  0
 18 19  1  0
 19 20  1  0
 20 21  2  0
 21 22  1  0
 22 23  2  0
 22 24  1  0
 24 25  1  0
 25 26  2  0
 21 27  1  0
 27 28  1  0
 28 29  1  0
 25 19  1  0
 29 20  1  0
  2  3  1  0
  2  4  1  0
 24 30  1  0
M  CHG 1   6   1
M  CHG 1  10   1
M  CHG 1  15   1
M  END
> <minimizedAffinity>
-4.63820

> <CNNscore>
0.0474316515

> <CNNaffinity>
4.8438930511

> <CNN_VS>
0.2297538519

> <CNNaffinity_variance>
0.0860243365

$$$$



 30 31  0  0  0  0  0  0  0  0999 V2000
   32.0032   18.9562   61.0384 C   0  0  0  0  0  0  0  0  0  0  0  0
   31.6637   17.5767   60.6199 N   0  0  0  0  0  0  0  0  0  0  0  0
   31.0080   17.1705   61.2873 H   0  0  0  0  0  0  0  0  0  0  0  0
   32.5125   17.0117   60.5904 H   0  0  0  0  0  0  0  0  0  0  0  0
   32.6529   18.8952   62.4623 C   0  0  0  0  0  0  0  0  0  0  0  0
   31.6493   19.0914   63.7308 N   0  0  0  0  0  0  0  0  0  0  0  0
   30.2419   18.7509   63.2095 C   0  0  0  0  0  0  0  0  0  0  0  0
   31.6981   20.5567   64.1339 C   0  0  0  0  0  0  0  0  0  0  0  0
   32.1560   18.0782   64.7472 C   0  0  0  0  0  0  0  0  0  0  0  0
   31.5405   17.8788   66.1680 N   0  0  0  0  0  0  0  0  0  0  0  0
   31.0940   19.2470   66.6950 C   0  0  0  0  0  0  0  0  0  0  0  0
   30.3842   16.9176   66.1772 C   0  0  0  0  0  0  0  0  0  0  0  0
   32.7301   17.3613   67.0276 C   0  0  0  0  0  0  0  0  0  0  0  0
   33.2282   15.2045   68.1108 C   0  0  0  0  0  0  0  0  0  0  0  0
   32.5506   16.6080   68.3344 N   0  0  0  0  0  0  0  0  0  0  0  0
   33.2299   17.1756   69.5746 C   0  0  0  0  0  0  0  0  0  0  0  0
   31.0868   16.2710   68.6720 C   0  0  0  0  0  0  0  0  0  0  0  0
   30.7478   19.8881   61.0496 C   0  0  0  0  0  0  0  0  0  0  0  0
   30.2964   20.3021   59.7107 N   0  0  0  0  0  0  0  0  0  0  0  0
   28.9818   20.1286   59.3204 C   0  0  0  0  0  0  0  0  0  0  0  0
   28.5022   20.6042   58.1690 C   0  0  0  0  0  0  0  0  0  0  0  0
   29.3679   21.3490   57.2638 C   0  0  0  0  0  0  0  0  0  0  0  0
   28.9846   21.8395   56.2153 O   0  0  0  0  0  0  0  0  0  0  0  0
   30.6631   21.4615   57.6931 N   0  0  0  0  0  0  0  0  0  0  0  0
   31.1725   21.0102   58.8819 C   0  0  0  0  0  0  0  0  0  0  0  0
   32.3544   21.2110   59.1774 O   0  0  0  0  0  0  0  0  0  0  0  0
   27.0616   20.3232   57.9562 C   0  0  0  0  0  0  0  0  0  0  0  0
   26.7944   19.2698   59.0356 C   0  0  0  0  0  0  0  0  0  0  0  0
   27.9052   19.4257   60.0849 C   0  0  0  0  0  0  0  0  0  0  0  0
   31.2926   21.9128   57.0854 H   0  0  0  0  0  0  0  0  0  0  0  0
 14 15  1  0
 15 16  1  0
 15 17  1  0
 15 13  1  0
 13 10  1  0
 10 11  1  0
 10 12  1  0
 10  9  1  0
  9  6  1  0
  6  7  1  0
  6  8  1  0
  6  5  1  0
  5  1  1  0
  1  2  1  0
  1 18  1  0
 18 19  1  0
 19 20  1  0
 20 21  2  0
 21 22  1  0
 22 23  2  0
 22 24  1  0
 24 25  1  0
 25 26  2  0
 21 27  1  0
 27 28  1  0
 28 29  1  0
 25 19  1  0
 29 20  1  0
  2  3  1  0
  2  4  1  0
 24 30  1  0
M  CHG 1   6   1
M  CHG 1  10   1
M  CHG 1  15   1
M  END
> <minimizedAffinity>
-4.69724

> <CNNscore>
0.0473863818

> <CNNaffinity>
3.2514247894

> <CNN_VS>
0.1540732533

> <CNNaffinity_variance>
1.8000222445

$$$$



 30 31  0  0  0  0  0  0  0  0999 V2000
   10.9558    8.7875   49.9420 C   0  0  0  0  0  0  0  0  0  0  0  0
   12.0998    9.1172   50.8229 N   0  0  0  0  0  0  0  0  0  0  0  0
   11.7728    9.2091   51.7847 H   0  0  0  0  0  0  0  0  0  0  0  0
   12.5191    9.9966   50.5208 H   0  0  0  0  0  0  0  0  0  0  0  0
    9.9034    9.9430   50.0447 C   0  0  0  0  0  0  0  0  0  0  0  0
    9.6198   10.7940   48.6845 N   0  0  0  0  0  0  0  0  0  0  0  0
    8.2858   11.5252   48.9169 C   0  0  0  0  0  0  0  0  0  0  0  0
    9.4596    9.8002   47.5448 C   0  0  0  0  0  0  0  0  0  0  0  0
   10.8027   11.7485   48.6071 C   0  0  0  0  0  0  0  0  0  0  0  0
   11.1595   12.6023   47.3498 N   0  0  0  0  0  0  0  0  0  0  0  0
    9.8665   12.8829   46.5762 C   0  0  0  0  0  0  0  0  0  0  0  0
   11.8482   13.8940   47.6935 C   0  0  0  0  0  0  0  0  0  0  0  0
   12.0714   11.6679   46.5029 C   0  0  0  0  0  0  0  0  0  0  0  0
   13.9938   12.5202   47.7878 C   0  0  0  0  0  0  0  0  0  0  0  0
   13.5026   11.3292   46.8828 N   0  0  0  0  0  0  0  0  0  0  0  0
   13.7321   10.0798   47.7243 C   0  0  0  0  0  0  0  0  0  0  0  0
   14.4854   11.3255   45.6977 C   0  0  0  0  0  0  0  0  0  0  0  0
   10.3032    7.4182   50.3211 C   0  0  0  0  0  0  0  0  0  0  0  0
   11.0637    6.2440   49.8622 N   0  0  0  0  0  0  0  0  0  0  0  0
   11.9051    5.5635   50.7222 C   0  0  0  0  0  0  0  0  0  0  0  0
   12.5122    4.4233   50.3860 C   0  0  0  0  0  0  0  0  0  0  0  0
   12.2972    3.8365   49.0695 C   0  0  0  0  0  0  0  0  0  0  0  0
   12.7925    2.7810   48.7126 O   0  0  0  0  0  0  0  0  0  0  0  0
   11.4779    4.5718   48.2554 N   0  0  0  0  0  0  0  0  0  0  0  0
   10.8196    5.7267   48.5860 C   0  0  0  0  0  0  0  0  0  0  0  0
   10.0694    6.2782   47.7751 O   0  0  0  0  0  0  0  0  0  0  0  0
   13.3544    3.8501   51.4638 C   0  0  0  0  0  0  0  0  0  0  0  0
   13.4471    5.0292   52.4370 C   0  0  0  0  0  0  0  0  0  0  0  0
   12.2597    5.9515   52.1227 C   0  0  0  0  0  0  0  0  0  0  0  0
   11.3488    4.2363   47.3389 H   0  0  0  0  0  0  0  0  0  0  0  0
 14 15  1  0
 15 16  1  0
 15 17  1  0
 15 13  1  0
 13 10  1  0
 10 11  1  0
 10 12  1  0
 10  9  1  0
  9  6  1  0
  6  7  1  0
  6  8  1  0
  6  5  1  0
  5  1  1  0
  1  2  1  0
  1 18  1  0
 18 19  1  0
 19 20  1  0
 20 21  2  0
 21 22  1  0
 22 23  2  0
 22 24  1  0
 24 25  1  0
 25 26  2  0
 21 27  1  0
 27 28  1  0
 28 29  1  0
 25 19  1  0
 29 20  1  0
  2  3  1  0
  2  4  1  0
 24 30  1  0
M  CHG 1   6   1
M  CHG 1  10   1
M  CHG 1  15   1
M  END
> <minimizedAffinity>
-3.96563

> <CNNscore>
0.0461397730

> <CNNaffinity>
4.0893325806

> <CNN_VS>
0.1886808723

> <CNNaffinity_variance>
0.7404506207

$$$$
