


 31 34  0  0  0  0  0  0  0  0999 V2000
   44.2295   -3.0821   26.5841 C   0  0  0  0  0  0  0  0  0  0  0  0
   44.7070   -1.7648   26.6749 C   0  0  0  0  0  0  0  0  0  0  0  0
   44.6403   -1.0555   27.8758 C   0  0  0  0  0  0  0  0  0  0  0  0
   44.1012   -1.7206   28.9801 C   0  0  0  0  0  0  0  0  0  0  0  0
   43.9331   -1.2923   30.2700 N   0  0  0  0  0  0  0  0  0  0  0  0
   43.4269   -2.2896   31.0779 C   0  0  0  0  0  0  0  0  0  0  0  0
   43.1947   -3.3712   30.2462 C   0  0  0  0  0  0  0  0  0  0  0  0
   43.6229   -3.0280   28.9322 C   0  0  0  0  0  0  0  0  0  0  0  0
   43.6699   -3.7171   27.7078 C   0  0  0  0  0  0  0  0  0  0  0  0
   44.1474   -0.3837   30.5827 H   0  0  0  0  0  0  0  0  0  0  0  0
   44.2029   -5.1289   25.3463 N   0  0  0  0  0  0  0  0  0  0  0  0
   44.3575   -3.8241   25.3346 C   0  0  0  0  0  0  0  0  0  0  0  0
   44.6502   -3.1583   24.2419 N   0  0  0  0  0  0  0  0  0  0  0  0
   44.2865   -5.6420   24.5103 H   0  0  0  0  0  0  0  0  0  0  0  0
   44.0033   -5.5934   26.1911 H   0  0  0  0  0  0  0  0  0  0  0  0
   44.7424   -3.6345   23.3852 H   0  0  0  0  0  0  0  0  0  0  0  0
   44.7775   -2.1828   24.2791 H   0  0  0  0  0  0  0  0  0  0  0  0
   43.2576   -2.0562   32.5375 C   0  0  0  0  0  0  0  0  0  0  0  0
   43.0535   -3.1904   33.3556 C   0  0  0  0  0  0  0  0  0  0  0  0
   42.9218   -3.0731   34.7306 C   0  0  0  0  0  0  0  0  0  0  0  0
   42.9961   -1.8193   35.3094 C   0  0  0  0  0  0  0  0  0  0  0  0
   43.1886   -0.6565   34.5282 C   0  0  0  0  0  0  0  0  0  0  0  0
   43.3150   -0.7226   33.0985 C   0  0  0  0  0  0  0  0  0  0  0  0
   43.4671    0.3382   32.3804 O   0  0  0  0  0  0  0  0  0  0  0  0
   43.2938    0.6262   35.2685 C   0  0  0  0  0  0  0  0  0  0  0  0
   44.5438    1.1774   35.5955 C   0  0  0  0  0  0  0  0  0  0  0  0
   44.6312    2.4114   36.2493 C   0  0  0  0  0  0  0  0  0  0  0  0
   43.4683    3.1012   36.5830 C   0  0  0  0  0  0  0  0  0  0  0  0
   43.5868    4.7623   37.4808 Br  0  0  0  0  0  0  0  0  0  0  0  0
   42.2162    2.5704   36.2748 C   0  0  0  0  0  0  0  0  0  0  0  0
   42.1342    1.3385   35.6199 C   0  0  0  0  0  0  0  0  0  0  0  0
 11 12  1  0
 12 13  2  0
 12  1  1  0
  1  2  2  0
  2  3  1  0
  3  4  2  0
  4  5  1  0
  5  6  1  0
  6 18  1  0
 18 19  2  0
 19 20  1  0
 20 21  2  0
 21 22  1  0
 22 25  1  0
 25 26  2  0
 26 27  1  0
 27 28  2  0
 28 29  1  0
 28 30  1  0
 30 31  2  0
 22 23  2  0
 23 24  1  0
  6  7  2  0
  7  8  1  0
  8  9  2  0
  9  1  1  0
  8  4  1  0
 23 18  1  0
 31 25  1  0
 11 14  1  0
 11 15  1  0
 13 16  1  0
 13 17  1  0
  5 10  1  0
M  CHG 1  13   1
M  CHG 1  24  -1
M  END
> <minimizedAffinity>
-9.70333

> <CNNscore>
0.9679688215

> <CNNaffinity>
6.7831096649

> <CNN_VS>
6.5658388138

> <CNNaffinity_variance>
0.1814482361

$$$$



 31 34  0  0  0  0  0  0  0  0999 V2000
   44.1348   -3.0625   26.5608 C   0  0  0  0  0  0  0  0  0  0  0  0
   44.6599   -1.7691   26.7121 C   0  0  0  0  0  0  0  0  0  0  0  0
   44.4936   -1.0589   27.9028 C   0  0  0  0  0  0  0  0  0  0  0  0
   43.8053   -1.6993   28.9365 C   0  0  0  0  0  0  0  0  0  0  0  0
   43.5155   -1.2651   30.2026 N   0  0  0  0  0  0  0  0  0  0  0  0
   42.8773   -2.2385   30.9433 C   0  0  0  0  0  0  0  0  0  0  0  0
   42.6887   -3.3071   30.0842 C   0  0  0  0  0  0  0  0  0  0  0  0
   43.2752   -2.9828   28.8278 C   0  0  0  0  0  0  0  0  0  0  0  0
   43.4254   -3.6719   27.6118 C   0  0  0  0  0  0  0  0  0  0  0  0
   43.7357   -0.3678   30.5428 H   0  0  0  0  0  0  0  0  0  0  0  0
   44.2600   -5.1179   25.3434 N   0  0  0  0  0  0  0  0  0  0  0  0
   44.3658   -3.8083   25.3284 C   0  0  0  0  0  0  0  0  0  0  0  0
   44.6986   -3.1398   24.2489 N   0  0  0  0  0  0  0  0  0  0  0  0
   44.4132   -5.6336   24.5189 H   0  0  0  0  0  0  0  0  0  0  0  0
   44.0275   -5.5834   26.1791 H   0  0  0  0  0  0  0  0  0  0  0  0
   44.8602   -3.6184   23.4039 H   0  0  0  0  0  0  0  0  0  0  0  0
   44.7866   -2.1599   24.2843 H   0  0  0  0  0  0  0  0  0  0  0  0
   42.5584   -1.9992   32.3767 C   0  0  0  0  0  0  0  0  0  0  0  0
   43.1309   -2.8785   33.3234 C   0  0  0  0  0  0  0  0  0  0  0  0
   42.9191   -2.7111   34.6831 C   0  0  0  0  0  0  0  0  0  0  0  0
   42.1340   -1.6586   35.1175 C   0  0  0  0  0  0  0  0  0  0  0  0
   41.5329   -0.7611   34.2050 C   0  0  0  0  0  0  0  0  0  0  0  0
   41.7086   -0.9006   32.7858 C   0  0  0  0  0  0  0  0  0  0  0  0
   41.1427   -0.0979   31.9493 O   0  0  0  0  0  0  0  0  0  0  0  0
   40.7479    0.3526   34.7945 C   0  0  0  0  0  0  0  0  0  0  0  0
   41.3687    1.3592   35.5525 C   0  0  0  0  0  0  0  0  0  0  0  0
   40.6263    2.4307   36.0611 C   0  0  0  0  0  0  0  0  0  0  0  0
   39.2570    2.5010   35.8172 C   0  0  0  0  0  0  0  0  0  0  0  0
   38.2512    3.9418   36.5183 Br  0  0  0  0  0  0  0  0  0  0  0  0
   38.6178    1.5097   35.0735 C   0  0  0  0  0  0  0  0  0  0  0  0
   39.3640    0.4425   34.5659 C   0  0  0  0  0  0  0  0  0  0  0  0
 11 12  1  0
 12 13  2  0
 12  1  1  0
  1  2  2  0
  2  3  1  0
  3  4  2  0
  4  5  1  0
  5  6  1  0
  6 18  1  0
 18 19  2  0
 19 20  1  0
 20 21  2  0
 21 22  1  0
 22 25  1  0
 25 26  2  0
 26 27  1  0
 27 28  2  0
 28 29  1  0
 28 30  1  0
 30 31  2  0
 22 23  2  0
 23 24  1  0
  6  7  2  0
  7  8  1  0
  8  9  2  0
  9  1  1  0
  8  4  1  0
 23 18  1  0
 31 25  1  0
 11 14  1  0
 11 15  1  0
 13 16  1  0
 13 17  1  0
  5 10  1  0
M  CHG 1  13   1
M  CHG 1  24  -1
M  END
> <minimizedAffinity>
-8.65075

> <CNNscore>
0.9163981676

> <CNNaffinity>
6.4622287750

> <CNN_VS>
5.9219746590

> <CNNaffinity_variance>
0.2093003243

$$$$



 31 34  0  0  0  0  0  0  0  0999 V2000
   44.1228   -2.8498   26.8084 C   0  0  0  0  0  0  0  0  0  0  0  0
   43.6937   -4.1218   27.2200 C   0  0  0  0  0  0  0  0  0  0  0  0
   43.4359   -4.3948   28.5649 C   0  0  0  0  0  0  0  0  0  0  0  0
   43.6017   -3.3449   29.4719 C   0  0  0  0  0  0  0  0  0  0  0  0
   43.4034   -3.3121   30.8266 N   0  0  0  0  0  0  0  0  0  0  0  0
   43.6107   -2.0497   31.3432 C   0  0  0  0  0  0  0  0  0  0  0  0
   44.0313   -1.2688   30.2807 C   0  0  0  0  0  0  0  0  0  0  0  0
   44.0195   -2.0684   29.1026 C   0  0  0  0  0  0  0  0  0  0  0  0
   44.3039   -1.8191   27.7487 C   0  0  0  0  0  0  0  0  0  0  0  0
   43.1444   -4.0939   31.3660 H   0  0  0  0  0  0  0  0  0  0  0  0
   44.5995   -3.5650   24.5760 N   0  0  0  0  0  0  0  0  0  0  0  0
   44.3349   -2.5700   25.3924 C   0  0  0  0  0  0  0  0  0  0  0  0
   44.2786   -1.3223   24.9887 N   0  0  0  0  0  0  0  0  0  0  0  0
   44.7448   -3.3904   23.6181 H   0  0  0  0  0  0  0  0  0  0  0  0
   44.6524   -4.4850   24.9223 H   0  0  0  0  0  0  0  0  0  0  0  0
   44.4180   -1.1056   24.0385 H   0  0  0  0  0  0  0  0  0  0  0  0
   44.0970   -0.6032   25.6361 H   0  0  0  0  0  0  0  0  0  0  0  0
   43.3562   -1.7799   32.7840 C   0  0  0  0  0  0  0  0  0  0  0  0
   43.0968   -2.8927   33.6156 C   0  0  0  0  0  0  0  0  0  0  0  0
   42.8841   -2.7412   34.9770 C   0  0  0  0  0  0  0  0  0  0  0  0
   42.9316   -1.4740   35.5288 C   0  0  0  0  0  0  0  0  0  0  0  0
   43.1773   -0.3316   34.7327 C   0  0  0  0  0  0  0  0  0  0  0  0
   43.3882   -0.4332   33.3150 C   0  0  0  0  0  0  0  0  0  0  0  0
   43.5893    0.6090   32.5819 O   0  0  0  0  0  0  0  0  0  0  0  0
   43.2461    0.9684   35.4467 C   0  0  0  0  0  0  0  0  0  0  0  0
   42.0804    1.6338   35.8609 C   0  0  0  0  0  0  0  0  0  0  0  0
   42.1591    2.8334   36.5768 C   0  0  0  0  0  0  0  0  0  0  0  0
   43.4046    3.3771   36.8809 C   0  0  0  0  0  0  0  0  0  0  0  0
   43.5099    5.0071   37.8356 Br  0  0  0  0  0  0  0  0  0  0  0  0
   44.5753    2.7380   36.4740 C   0  0  0  0  0  0  0  0  0  0  0  0
   44.4916    1.5389   35.7609 C   0  0  0  0  0  0  0  0  0  0  0  0
 11 12  1  0
 12 13  2  0
 12  1  1  0
  1  2  2  0
  2  3  1  0
  3  4  2  0
  4  5  1  0
  5  6  1  0
  6 18  1  0
 18 19  2  0
 19 20  1  0
 20 21  2  0
 21 22  1  0
 22 25  1  0
 25 26  2  0
 26 27  1  0
 27 28  2  0
 28 29  1  0
 28 30  1  0
 30 31  2  0
 22 23  2  0
 23 24  1  0
  6  7  2  0
  7  8  1  0
  8  9  2  0
  9  1  1  0
  8  4  1  0
 23 18  1  0
 31 25  1  0
 11 14  1  0
 11 15  1  0
 13 16  1  0
 13 17  1  0
  5 10  1  0
M  CHG 1  13   1
M  CHG 1  24  -1
M  END
> <minimizedAffinity>
-8.74162

> <CNNscore>
0.8848696947

> <CNNaffinity>
6.2799220085

> <CNN_VS>
5.5569128990

> <CNNaffinity_variance>
0.3242368400

$$$$



 31 34  0  0  0  0  0  0  0  0999 V2000
   43.6511   -3.4529   27.2847 C   0  0  0  0  0  0  0  0  0  0  0  0
   43.1078   -4.5552   27.9640 C   0  0  0  0  0  0  0  0  0  0  0  0
   42.6090   -4.4270   29.2619 C   0  0  0  0  0  0  0  0  0  0  0  0
   42.6544   -3.1557   29.8399 C   0  0  0  0  0  0  0  0  0  0  0  0
   42.2242   -2.7313   31.0689 N   0  0  0  0  0  0  0  0  0  0  0  0
   42.3868   -1.3702   31.2255 C   0  0  0  0  0  0  0  0  0  0  0  0
   43.0162   -0.9279   30.0750 C   0  0  0  0  0  0  0  0  0  0  0  0
   43.1793   -2.0369   29.1969 C   0  0  0  0  0  0  0  0  0  0  0  0
   43.7049   -2.1901   27.9022 C   0  0  0  0  0  0  0  0  0  0  0  0
   41.8450   -3.3251   31.7567 H   0  0  0  0  0  0  0  0  0  0  0  0
   44.3738   -4.7971   25.4427 N   0  0  0  0  0  0  0  0  0  0  0  0
   44.1176   -3.5960   25.9099 C   0  0  0  0  0  0  0  0  0  0  0  0
   44.2900   -2.5093   25.1942 N   0  0  0  0  0  0  0  0  0  0  0  0
   44.6893   -4.9082   24.5167 H   0  0  0  0  0  0  0  0  0  0  0  0
   44.2503   -5.5860   26.0186 H   0  0  0  0  0  0  0  0  0  0  0  0
   44.6041   -2.5774   24.2636 H   0  0  0  0  0  0  0  0  0  0  0  0
   44.1052   -1.6261   25.5880 H   0  0  0  0  0  0  0  0  0  0  0  0
   41.8954   -0.6949   32.4568 C   0  0  0  0  0  0  0  0  0  0  0  0
   42.8665   -0.1750   33.3421 C   0  0  0  0  0  0  0  0  0  0  0  0
   42.5016    0.5018   34.4957 C   0  0  0  0  0  0  0  0  0  0  0  0
   41.1589    0.6725   34.7797 C   0  0  0  0  0  0  0  0  0  0  0  0
   40.1537    0.1597   33.9276 C   0  0  0  0  0  0  0  0  0  0  0  0
   40.4794   -0.5624   32.7289 C   0  0  0  0  0  0  0  0  0  0  0  0
   39.5654   -1.0520   31.9614 O   0  0  0  0  0  0  0  0  0  0  0  0
   38.7496    0.4438   34.3175 C   0  0  0  0  0  0  0  0  0  0  0  0
   37.9546    1.3343   33.5771 C   0  0  0  0  0  0  0  0  0  0  0  0
   36.6175    1.5562   33.9248 C   0  0  0  0  0  0  0  0  0  0  0  0
   36.0673    0.8907   35.0174 C   0  0  0  0  0  0  0  0  0  0  0  0
   34.2638    1.2028   35.4961 Br  0  0  0  0  0  0  0  0  0  0  0  0
   36.8392    0.0075   35.7715 C   0  0  0  0  0  0  0  0  0  0  0  0
   38.1737   -0.2123   35.4190 C   0  0  0  0  0  0  0  0  0  0  0  0
 11 12  1  0
 12 13  2  0
 12  1  1  0
  1  2  2  0
  2  3  1  0
  3  4  2  0
  4  5  1  0
  5  6  1  0
  6 18  1  0
 18 19  2  0
 19 20  1  0
 20 21  2  0
 21 22  1  0
 22 25  1  0
 25 26  2  0
 26 27  1  0
 27 28  2  0
 28 29  1  0
 28 30  1  0
 30 31  2  0
 22 23  2  0
 23 24  1  0
  6  7  2  0
  7  8  1  0
  8  9  2  0
  9  1  1  0
  8  4  1  0
 23 18  1  0
 31 25  1  0
 11 14  1  0
 11 15  1  0
 13 16  1  0
 13 17  1  0
  5 10  1  0
M  CHG 1  13   1
M  CHG 1  24  -1
M  END
> <minimizedAffinity>
-7.02085

> <CNNscore>
0.8186942935

> <CNNaffinity>
5.9395642281

> <CNN_VS>
4.8626871109

> <CNNaffinity_variance>
0.3166258931

$$$$



 31 34  0  0  0  0  0  0  0  0999 V2000
   43.8939    2.5704   37.0757 C   0  0  0  0  0  0  0  0  0  0  0  0
   44.4719    3.8497   37.1058 C   0  0  0  0  0  0  0  0  0  0  0  0
   43.7074    4.9786   37.4072 C   0  0  0  0  0  0  0  0  0  0  0  0
   42.3559    4.7746   37.6975 C   0  0  0  0  0  0  0  0  0  0  0  0
   41.3843    5.6751   38.0448 N   0  0  0  0  0  0  0  0  0  0  0  0
   40.1852    5.0517   38.3227 C   0  0  0  0  0  0  0  0  0  0  0  0
   40.3881    3.7067   38.0669 C   0  0  0  0  0  0  0  0  0  0  0  0
   41.7471    3.5218   37.6843 C   0  0  0  0  0  0  0  0  0  0  0  0
   42.5246    2.3996   37.3491 C   0  0  0  0  0  0  0  0  0  0  0  0
   41.5243    6.6485   38.0907 H   0  0  0  0  0  0  0  0  0  0  0  0
   44.4349    0.2645   37.4112 N   0  0  0  0  0  0  0  0  0  0  0  0
   44.7210    1.3980   36.8115 C   0  0  0  0  0  0  0  0  0  0  0  0
   45.7433    1.5273   35.9983 N   0  0  0  0  0  0  0  0  0  0  0  0
   44.9847   -0.5344   37.2420 H   0  0  0  0  0  0  0  0  0  0  0  0
   43.6706    0.2141   38.0297 H   0  0  0  0  0  0  0  0  0  0  0  0
   46.3178    0.7521   35.8027 H   0  0  0  0  0  0  0  0  0  0  0  0
   45.9355    2.3995   35.5841 H   0  0  0  0  0  0  0  0  0  0  0  0
   39.0249    5.8451   38.8101 C   0  0  0  0  0  0  0  0  0  0  0  0
   38.6980    5.7396   40.1810 C   0  0  0  0  0  0  0  0  0  0  0  0
   37.6559    6.4694   40.7318 C   0  0  0  0  0  0  0  0  0  0  0  0
   36.9267    7.3193   39.9203 C   0  0  0  0  0  0  0  0  0  0  0  0
   37.2122    7.4479   38.5414 C   0  0  0  0  0  0  0  0  0  0  0  0
   38.2711    6.7021   37.9192 C   0  0  0  0  0  0  0  0  0  0  0  0
   38.5192    6.7991   36.6570 O   0  0  0  0  0  0  0  0  0  0  0  0
   36.3872    8.4231   37.7846 C   0  0  0  0  0  0  0  0  0  0  0  0
   36.9749    9.5108   37.1179 C   0  0  0  0  0  0  0  0  0  0  0  0
   36.1929   10.3950   36.3665 C   0  0  0  0  0  0  0  0  0  0  0  0
   34.8170   10.1986   36.2793 C   0  0  0  0  0  0  0  0  0  0  0  0
   33.7582   11.4033   35.2759 Br  0  0  0  0  0  0  0  0  0  0  0  0
   34.2105    9.1298   36.9384 C   0  0  0  0  0  0  0  0  0  0  0  0
   34.9961    8.2482   37.6860 C   0  0  0  0  0  0  0  0  0  0  0  0
 11 12  1  0
 12 13  2  0
 12  1  1  0
  1  2  2  0
  2  3  1  0
  3  4  2  0
  4  5  1  0
  5  6  1  0
  6 18  1  0
 18 19  2  0
 19 20  1  0
 20 21  2  0
 21 22  1  0
 22 25  1  0
 25 26  2  0
 26 27  1  0
 27 28  2  0
 28 29  1  0
 28 30  1  0
 30 31  2  0
 22 23  2  0
 23 24  1  0
  6  7  2  0
  7  8  1  0
  8  9  2  0
  9  1  1  0
  8  4  1  0
 23 18  1  0
 31 25  1  0
 11 14  1  0
 11 15  1  0
 13 16  1  0
 13 17  1  0
  5 10  1  0
M  CHG 1  13   1
M  CHG 1  24  -1
M  END
> <minimizedAffinity>
-6.48452

> <CNNscore>
0.5908252597

> <CNNaffinity>
5.9126982689

> <CNN_VS>
3.4933714867

> <CNNaffinity_variance>
0.0908941031

$$$$



 31 34  0  0  0  0  0  0  0  0999 V2000
   38.4936   -0.6104   32.2894 C   0  0  0  0  0  0  0  0  0  0  0  0
   37.1673   -0.1874   32.1064 C   0  0  0  0  0  0  0  0  0  0  0  0
   36.6222    0.8328   32.8886 C   0  0  0  0  0  0  0  0  0  0  0  0
   37.4587    1.4241   33.8388 C   0  0  0  0  0  0  0  0  0  0  0  0
   37.2102    2.4454   34.7168 N   0  0  0  0  0  0  0  0  0  0  0  0
   38.3356    2.7830   35.4400 C   0  0  0  0  0  0  0  0  0  0  0  0
   39.3173    1.8862   35.0559 C   0  0  0  0  0  0  0  0  0  0  0  0
   38.7808    1.0374   34.0464 C   0  0  0  0  0  0  0  0  0  0  0  0
   39.3043   -0.0119   33.2710 C   0  0  0  0  0  0  0  0  0  0  0  0
   36.3353    2.8850   34.8194 H   0  0  0  0  0  0  0  0  0  0  0  0
   38.6056   -2.8703   31.5131 N   0  0  0  0  0  0  0  0  0  0  0  0
   39.0605   -1.6406   31.4260 C   0  0  0  0  0  0  0  0  0  0  0  0
   40.0289   -1.3032   30.6067 N   0  0  0  0  0  0  0  0  0  0  0  0
   38.9792   -3.5753   30.9364 H   0  0  0  0  0  0  0  0  0  0  0  0
   37.8912   -3.0865   32.1551 H   0  0  0  0  0  0  0  0  0  0  0  0
   40.4293   -1.9789   30.0131 H   0  0  0  0  0  0  0  0  0  0  0  0
   40.3548   -0.3745   30.5858 H   0  0  0  0  0  0  0  0  0  0  0  0
   38.3014    3.9328   36.3836 C   0  0  0  0  0  0  0  0  0  0  0  0
   39.1351    3.8612   37.5225 C   0  0  0  0  0  0  0  0  0  0  0  0
   39.1964    4.9009   38.4375 C   0  0  0  0  0  0  0  0  0  0  0  0
   38.4271    6.0304   38.2254 C   0  0  0  0  0  0  0  0  0  0  0  0
   37.5710    6.1402   37.1053 C   0  0  0  0  0  0  0  0  0  0  0  0
   37.4596    5.0847   36.1368 C   0  0  0  0  0  0  0  0  0  0  0  0
   36.6622    5.1715   35.1265 O   0  0  0  0  0  0  0  0  0  0  0  0
   36.8285    7.4182   36.9646 C   0  0  0  0  0  0  0  0  0  0  0  0
   37.4469    8.5652   36.4403 C   0  0  0  0  0  0  0  0  0  0  0  0
   36.7234    9.7501   36.2659 C   0  0  0  0  0  0  0  0  0  0  0  0
   35.3767    9.7964   36.6176 C   0  0  0  0  0  0  0  0  0  0  0  0
   34.4030   11.4033   36.3960 Br  0  0  0  0  0  0  0  0  0  0  0  0
   34.7434    8.6723   37.1466 C   0  0  0  0  0  0  0  0  0  0  0  0
   35.4698    7.4905   37.3170 C   0  0  0  0  0  0  0  0  0  0  0  0
 11 12  1  0
 12 13  2  0
 12  1  1  0
  1  2  2  0
  2  3  1  0
  3  4  2  0
  4  5  1  0
  5  6  1  0
  6 18  1  0
 18 19  2  0
 19 20  1  0
 20 21  2  0
 21 22  1  0
 22 25  1  0
 25 26  2  0
 26 27  1  0
 27 28  2  0
 28 29  1  0
 28 30  1  0
 30 31  2  0
 22 23  2  0
 23 24  1  0
  6  7  2  0
  7  8  1  0
  8  9  2  0
  9  1  1  0
  8  4  1  0
 23 18  1  0
 31 25  1  0
 11 14  1  0
 11 15  1  0
 13 16  1  0
 13 17  1  0
  5 10  1  0
M  CHG 1  13   1
M  CHG 1  24  -1
M  END
> <minimizedAffinity>
-6.14532

> <CNNscore>
0.5643450618

> <CNNaffinity>
5.8810138702

> <CNN_VS>
3.3189210892

> <CNNaffinity_variance>
0.5485379696

$$$$



 31 34  0  0  0  0  0  0  0  0999 V2000
   34.8565    8.8038   36.9496 C   0  0  0  0  0  0  0  0  0  0  0  0
   36.1288    9.3053   36.6314 C   0  0  0  0  0  0  0  0  0  0  0  0
   37.1749    8.4481   36.2842 C   0  0  0  0  0  0  0  0  0  0  0  0
   36.8925    7.0801   36.2463 C   0  0  0  0  0  0  0  0  0  0  0  0
   37.7006    6.0229   35.9223 N   0  0  0  0  0  0  0  0  0  0  0  0
   37.0102    4.8285   35.9371 C   0  0  0  0  0  0  0  0  0  0  0  0
   35.7293    5.1353   36.3620 C   0  0  0  0  0  0  0  0  0  0  0  0
   35.6428    6.5442   36.5488 C   0  0  0  0  0  0  0  0  0  0  0  0
   34.6091    7.4191   36.9259 C   0  0  0  0  0  0  0  0  0  0  0  0
   38.6573    6.1052   35.7053 H   0  0  0  0  0  0  0  0  0  0  0  0
   32.8772    9.9940   36.3267 N   0  0  0  0  0  0  0  0  0  0  0  0
   33.7632    9.7194   37.2573 C   0  0  0  0  0  0  0  0  0  0  0  0
   33.7202   10.2585   38.4533 N   0  0  0  0  0  0  0  0  0  0  0  0
   32.1343   10.6102   36.5209 H   0  0  0  0  0  0  0  0  0  0  0  0
   32.9562    9.5837   35.4353 H   0  0  0  0  0  0  0  0  0  0  0  0
   32.9932   10.8798   38.6873 H   0  0  0  0  0  0  0  0  0  0  0  0
   34.4149   10.0416   39.1163 H   0  0  0  0  0  0  0  0  0  0  0  0
   37.6853    3.5691   35.5228 C   0  0  0  0  0  0  0  0  0  0  0  0
   38.7934    3.1451   36.2907 C   0  0  0  0  0  0  0  0  0  0  0  0
   39.4620    1.9656   36.0013 C   0  0  0  0  0  0  0  0  0  0  0  0
   39.0299    1.1896   34.9412 C   0  0  0  0  0  0  0  0  0  0  0  0
   37.9325    1.5808   34.1399 C   0  0  0  0  0  0  0  0  0  0  0  0
   37.2162    2.8013   34.3884 C   0  0  0  0  0  0  0  0  0  0  0  0
   36.2296    3.1730   33.6451 O   0  0  0  0  0  0  0  0  0  0  0  0
   37.5377    0.6435   33.0582 C   0  0  0  0  0  0  0  0  0  0  0  0
   36.1883    0.3356   32.8186 C   0  0  0  0  0  0  0  0  0  0  0  0
   35.8250   -0.5100   31.7646 C   0  0  0  0  0  0  0  0  0  0  0  0
   36.8096   -1.0556   30.9447 C   0  0  0  0  0  0  0  0  0  0  0  0
   36.3188   -2.2112   29.5294 Br  0  0  0  0  0  0  0  0  0  0  0  0
   38.1561   -0.7699   31.1678 C   0  0  0  0  0  0  0  0  0  0  0  0
   38.5138    0.0769   32.2206 C   0  0  0  0  0  0  0  0  0  0  0  0
 11 12  1  0
 12 13  2  0
 12  1  1  0
  1  2  2  0
  2  3  1  0
  3  4  2  0
  4  5  1  0
  5  6  1  0
  6 18  1  0
 18 19  2  0
 19 20  1  0
 20 21  2  0
 21 22  1  0
 22 25  1  0
 25 26  2  0
 26 27  1  0
 27 28  2  0
 28 29  1  0
 28 30  1  0
 30 31  2  0
 22 23  2  0
 23 24  1  0
  6  7  2  0
  7  8  1  0
  8  9  2  0
  9  1  1  0
  8  4  1  0
 23 18  1  0
 31 25  1  0
 11 14  1  0
 11 15  1  0
 13 16  1  0
 13 17  1  0
  5 10  1  0
M  CHG 1  13   1
M  CHG 1  24  -1
M  END
> <minimizedAffinity>
-6.59197

> <CNNscore>
0.5459620953

> <CNNaffinity>
5.0808835030

> <CNN_VS>
2.7739698887

> <CNNaffinity_variance>
0.1520593017

$$$$



 31 34  0  0  0  0  0  0  0  0999 V2000
   35.7039   -1.6280   29.8027 C   0  0  0  0  0  0  0  0  0  0  0  0
   34.4723   -1.0322   30.1186 C   0  0  0  0  0  0  0  0  0  0  0  0
   34.3490   -0.1668   31.2075 C   0  0  0  0  0  0  0  0  0  0  0  0
   35.5045    0.0942   31.9486 C   0  0  0  0  0  0  0  0  0  0  0  0
   35.6883    0.9061   33.0361 N   0  0  0  0  0  0  0  0  0  0  0  0
   37.0103    0.9429   33.4290 C   0  0  0  0  0  0  0  0  0  0  0  0
   37.6776    0.0575   32.6006 C   0  0  0  0  0  0  0  0  0  0  0  0
   36.7450   -0.4717   31.6637 C   0  0  0  0  0  0  0  0  0  0  0  0
   36.8448   -1.3643   30.5823 C   0  0  0  0  0  0  0  0  0  0  0  0
   34.9652    1.4029   33.4830 H   0  0  0  0  0  0  0  0  0  0  0  0
   34.9197   -2.4020   27.6794 N   0  0  0  0  0  0  0  0  0  0  0  0
   35.8236   -2.4866   28.6293 C   0  0  0  0  0  0  0  0  0  0  0  0
   36.8229   -3.3360   28.5784 N   0  0  0  0  0  0  0  0  0  0  0  0
   34.9883   -2.9755   26.8821 H   0  0  0  0  0  0  0  0  0  0  0  0
   34.1738   -1.7651   27.7649 H   0  0  0  0  0  0  0  0  0  0  0  0
   36.9272   -3.9272   27.7980 H   0  0  0  0  0  0  0  0  0  0  0  0
   37.4682   -3.3820   29.3205 H   0  0  0  0  0  0  0  0  0  0  0  0
   37.4370    1.8405   34.5361 C   0  0  0  0  0  0  0  0  0  0  0  0
   38.4939    1.3940   35.3614 C   0  0  0  0  0  0  0  0  0  0  0  0
   38.9824    2.1785   36.3947 C   0  0  0  0  0  0  0  0  0  0  0  0
   38.4236    3.4240   36.6163 C   0  0  0  0  0  0  0  0  0  0  0  0
   37.3577    3.9061   35.8221 C   0  0  0  0  0  0  0  0  0  0  0  0
   36.8053    3.1257   34.7496 C   0  0  0  0  0  0  0  0  0  0  0  0
   35.8175    3.5524   34.0381 O   0  0  0  0  0  0  0  0  0  0  0  0
   36.8712    5.2746   36.1304 C   0  0  0  0  0  0  0  0  0  0  0  0
   35.5304    5.5094   36.4771 C   0  0  0  0  0  0  0  0  0  0  0  0
   35.0947    6.7957   36.8141 C   0  0  0  0  0  0  0  0  0  0  0  0
   35.9970    7.8565   36.8039 C   0  0  0  0  0  0  0  0  0  0  0  0
   35.4037    9.5980   37.2447 Br  0  0  0  0  0  0  0  0  0  0  0  0
   37.3312    7.6487   36.4561 C   0  0  0  0  0  0  0  0  0  0  0  0
   37.7621    6.3617   36.1222 C   0  0  0  0  0  0  0  0  0  0  0  0
 11 12  1  0
 12 13  2  0
 12  1  1  0
  1  2  2  0
  2  3  1  0
  3  4  2  0
  4  5  1  0
  5  6  1  0
  6 18  1  0
 18 19  2  0
 19 20  1  0
 20 21  2  0
 21 22  1  0
 22 25  1  0
 25 26  2  0
 26 27  1  0
 27 28  2  0
 28 29  1  0
 28 30  1  0
 30 31  2  0
 22 23  2  0
 23 24  1  0
  6  7  2  0
  7  8  1  0
  8  9  2  0
  9  1  1  0
  8  4  1  0
 23 18  1  0
 31 25  1  0
 11 14  1  0
 11 15  1  0
 13 16  1  0
 13 17  1  0
  5 10  1  0
M  CHG 1  13   1
M  CHG 1  24  -1
M  END
> <minimizedAffinity>
-6.78618

> <CNNscore>
0.5413691998

> <CNNaffinity>
5.3981494904

> <CNN_VS>
2.9223918915

> <CNNaffinity_variance>
0.0735072121

$$$$



 31 34  0  0  0  0  0  0  0  0999 V2000
   42.1966    2.9387   37.5428 C   0  0  0  0  0  0  0  0  0  0  0  0
   43.0065    3.9225   36.9533 C   0  0  0  0  0  0  0  0  0  0  0  0
   44.3646    3.6943   36.7226 C   0  0  0  0  0  0  0  0  0  0  0  0
   44.8710    2.4427   37.0821 C   0  0  0  0  0  0  0  0  0  0  0  0
   46.1368    1.9354   36.9550 N   0  0  0  0  0  0  0  0  0  0  0  0
   46.2045    0.6207   37.3680 C   0  0  0  0  0  0  0  0  0  0  0  0
   44.9443    0.3075   37.8468 C   0  0  0  0  0  0  0  0  0  0  0  0
   44.0995    1.4389   37.6631 C   0  0  0  0  0  0  0  0  0  0  0  0
   42.7409    1.6963   37.9162 C   0  0  0  0  0  0  0  0  0  0  0  0
   46.9047    2.4465   36.6110 H   0  0  0  0  0  0  0  0  0  0  0  0
   40.3134    4.4081   37.6703 N   0  0  0  0  0  0  0  0  0  0  0  0
   40.7691    3.1770   37.7260 C   0  0  0  0  0  0  0  0  0  0  0  0
   39.9915    2.1474   37.9673 N   0  0  0  0  0  0  0  0  0  0  0  0
   39.3523    4.5833   37.7922 H   0  0  0  0  0  0  0  0  0  0  0  0
   40.9330    5.1554   37.5066 H   0  0  0  0  0  0  0  0  0  0  0  0
   39.0244    2.2801   38.0949 H   0  0  0  0  0  0  0  0  0  0  0  0
   40.3755    1.2424   38.0206 H   0  0  0  0  0  0  0  0  0  0  0  0
   47.4723   -0.1443   37.2239 C   0  0  0  0  0  0  0  0  0  0  0  0
   47.8671   -0.5037   35.9153 C   0  0  0  0  0  0  0  0  0  0  0  0
   49.0512   -1.1854   35.6813 C   0  0  0  0  0  0  0  0  0  0  0  0
   49.8612   -1.5151   36.7526 C   0  0  0  0  0  0  0  0  0  0  0  0
   49.5003   -1.1848   38.0793 C   0  0  0  0  0  0  0  0  0  0  0  0
   48.2766   -0.4929   38.3764 C   0  0  0  0  0  0  0  0  0  0  0  0
   47.9327   -0.2108   39.5873 O   0  0  0  0  0  0  0  0  0  0  0  0
   50.4720   -1.5545   39.1393 C   0  0  0  0  0  0  0  0  0  0  0  0
   51.3653   -0.6091   39.6695 C   0  0  0  0  0  0  0  0  0  0  0  0
   52.2423   -0.9563   40.7031 C   0  0  0  0  0  0  0  0  0  0  0  0
   52.2335   -2.2529   41.2113 C   0  0  0  0  0  0  0  0  0  0  0  0
   53.4303   -2.7259   42.5981 Br  0  0  0  0  0  0  0  0  0  0  0  0
   51.3605   -3.2103   40.6959 C   0  0  0  0  0  0  0  0  0  0  0  0
   50.4850   -2.8580   39.6650 C   0  0  0  0  0  0  0  0  0  0  0  0
 11 12  1  0
 12 13  2  0
 12  1  1  0
  1  2  2  0
  2  3  1  0
  3  4  2  0
  4  5  1  0
  5  6  1  0
  6 18  1  0
 18 19  2  0
 19 20  1  0
 20 21  2  0
 21 22  1  0
 22 25  1  0
 25 26  2  0
 26 27  1  0
 27 28  2  0
 28 29  1  0
 28 30  1  0
 30 31  2  0
 22 23  2  0
 23 24  1  0
  6  7  2  0
  7  8  1  0
  8  9  2  0
  9  1  1  0
  8  4  1  0
 23 18  1  0
 31 25  1  0
 11 14  1  0
 11 15  1  0
 13 16  1  0
 13 17  1  0
  5 10  1  0
M  CHG 1  13   1
M  CHG 1  24  -1
M  END
> <minimizedAffinity>
-6.02367

> <CNNscore>
0.4936037064

> <CNNaffinity>
5.8790984154

> <CNN_VS>
2.9019448757

> <CNNaffinity_variance>
0.1511446089

$$$$
