


 23 23  0  0  0  0  0  0  0  0999 V2000
    4.1565   15.8355   17.0510 C   0  0  0  0  0  0  0  0  0  0  0  0
    5.4653   16.3666   16.8862 O   0  0  0  0  0  0  0  0  0  0  0  0
    3.2353   16.7317   16.2543 C   0  0  0  0  0  0  0  0  0  0  0  0
    2.4050   17.6576   16.7789 C   0  0  0  0  0  0  0  0  0  0  0  0
    2.3529   17.9347   18.2627 C   0  0  0  0  0  0  0  0  0  0  0  0
    1.1051   17.4312   18.7354 O   0  0  0  0  0  0  0  0  0  0  0  0
    3.5232   17.2947   19.0469 C   0  0  0  0  0  0  0  0  0  0  0  0
    4.7291   18.0630   18.9135 O   0  0  0  0  0  0  0  0  0  0  0  0
    3.7926   15.8712   18.5574 C   0  0  0  0  0  0  0  0  0  0  0  0
    5.7052   16.3497   15.9465 H   0  0  0  0  0  0  0  0  0  0  0  0
    1.0593   16.4760   18.5728 H   0  0  0  0  0  0  0  0  0  0  0  0
    4.9973   18.0845   17.9815 H   0  0  0  0  0  0  0  0  0  0  0  0
    4.1084   14.3511   16.5784 C   0  0  0  0  0  0  0  0  0  0  0  0
    4.9639   13.8397   15.3595 C   0  0  0  0  0  0  0  0  0  0  0  0
    6.4309   14.2118   15.6795 C   0  0  0  0  0  0  0  0  0  0  0  0
    4.8807   12.3113   15.2309 C   0  0  0  0  0  0  0  0  0  0  0  0
    4.4966   14.5405   14.0448 C   0  0  0  0  0  0  0  0  0  0  0  0
    3.0154   14.2727   11.9485 C   0  0  0  0  0  0  0  0  0  0  0  0
    4.1021   13.6845   12.8309 C   0  0  0  0  0  0  0  0  0  0  0  0
    1.4715   18.4586   15.8912 C   0  0  0  0  0  0  0  0  0  0  0  0
    0.3098   17.6409   15.3199 C   0  0  0  0  0  0  0  0  0  0  0  0
   -0.7140   17.4376   16.2908 O   0  0  0  0  0  0  0  0  0  0  0  0
   -0.3516   16.9466   17.0448 H   0  0  0  0  0  0  0  0  0  0  0  0
 18 19  1  0
 19 17  1  0
 17 14  1  0
 14 15  1  0
 14 16  1  0
 14 13  1  0
 13  1  1  0
  1  2  1  0
  1  3  1  0
  3  4  2  0
  4 20  1  0
 20 21  1  0
 21 22  1  0
  4  5  1  0
  5  6  1  0
  5  7  1  0
  7  8  1  0
  7  9  1  0
  9  1  1  0
  2 10  1  0
 22 23  1  0
  6 11  1  0
  8 12  1  0
M  END
> <minimizedAffinity>
-4.06901

> <CNNscore>
0.3774245679

> <CNNaffinity>
3.8803069592

> <CNN_VS>
1.4645231962

> <CNNaffinity_variance>
0.0888539553

$$$$



 23 23  0  0  0  0  0  0  0  0999 V2000
    6.7204   15.5397   16.1744 C   0  0  0  0  0  0  0  0  0  0  0  0
    6.9873   16.3385   15.0286 O   0  0  0  0  0  0  0  0  0  0  0  0
    5.6021   16.2330   16.9196 C   0  0  0  0  0  0  0  0  0  0  0  0
    5.7507   16.9535   18.0513 C   0  0  0  0  0  0  0  0  0  0  0  0
    7.1054   17.1896   18.6758 C   0  0  0  0  0  0  0  0  0  0  0  0
    7.1464   16.4258   19.8796 O   0  0  0  0  0  0  0  0  0  0  0  0
    8.2829   16.7996   17.7509 C   0  0  0  0  0  0  0  0  0  0  0  0
    8.5293   17.8080   16.7585 O   0  0  0  0  0  0  0  0  0  0  0  0
    8.0028   15.4735   17.0427 C   0  0  0  0  0  0  0  0  0  0  0  0
    6.1914   16.3878   14.4763 H   0  0  0  0  0  0  0  0  0  0  0  0
    7.0354   15.4853   19.6696 H   0  0  0  0  0  0  0  0  0  0  0  0
    7.7482   17.9007   16.1908 H   0  0  0  0  0  0  0  0  0  0  0  0
    6.3500   14.0865   15.7500 C   0  0  0  0  0  0  0  0  0  0  0  0
    4.8567   13.6442   15.5186 C   0  0  0  0  0  0  0  0  0  0  0  0
    4.9163   12.1861   15.0053 C   0  0  0  0  0  0  0  0  0  0  0  0
    4.0699   13.6496   16.8378 C   0  0  0  0  0  0  0  0  0  0  0  0
    4.1815   14.5699   14.4578 C   0  0  0  0  0  0  0  0  0  0  0  0
    3.0856   14.3854   12.1287 C   0  0  0  0  0  0  0  0  0  0  0  0
    4.3472   14.2531   12.9632 C   0  0  0  0  0  0  0  0  0  0  0  0
    4.5487   17.5526   18.7563 C   0  0  0  0  0  0  0  0  0  0  0  0
    3.8647   16.5931   19.7341 C   0  0  0  0  0  0  0  0  0  0  0  0
    3.8868   17.1000   21.0662 O   0  0  0  0  0  0  0  0  0  0  0  0
    4.8062   17.2087   21.3555 H   0  0  0  0  0  0  0  0  0  0  0  0
 18 19  1  0
 19 17  1  0
 17 14  1  0
 14 15  1  0
 14 16  1  0
 14 13  1  0
 13  1  1  0
  1  2  1  0
  1  3  1  0
  3  4  2  0
  4 20  1  0
 20 21  1  0
 21 22  1  0
  4  5  1  0
  5  6  1  0
  5  7  1  0
  7  8  1  0
  7  9  1  0
  9  1  1  0
  2 10  1  0
 22 23  1  0
  6 11  1  0
  8 12  1  0
M  END
> <minimizedAffinity>
-4.28984

> <CNNscore>
0.3523966074

> <CNNaffinity>
3.9326026440

> <CNN_VS>
1.3858358860

> <CNNaffinity_variance>
0.1337636113

$$$$



 23 23  0  0  0  0  0  0  0  0999 V2000
    4.5211   15.0848   16.3605 C   0  0  0  0  0  0  0  0  0  0  0  0
    3.9259   14.1833   17.2854 O   0  0  0  0  0  0  0  0  0  0  0  0
    6.0094   14.8236   16.4166 C   0  0  0  0  0  0  0  0  0  0  0  0
    6.9153   15.6127   17.0319 C   0  0  0  0  0  0  0  0  0  0  0  0
    6.5084   16.8498   17.7969 C   0  0  0  0  0  0  0  0  0  0  0  0
    6.9502   17.9723   17.0360 O   0  0  0  0  0  0  0  0  0  0  0  0
    4.9849   16.9389   18.0521 C   0  0  0  0  0  0  0  0  0  0  0  0
    4.5833   16.0941   19.1419 O   0  0  0  0  0  0  0  0  0  0  0  0
    4.1992   16.5349   16.8039 C   0  0  0  0  0  0  0  0  0  0  0  0
    4.1203   13.2712   17.0186 H   0  0  0  0  0  0  0  0  0  0  0  0
    6.5214   17.9622   16.1660 H   0  0  0  0  0  0  0  0  0  0  0  0
    4.7750   15.1692   18.9216 H   0  0  0  0  0  0  0  0  0  0  0  0
    3.9266   14.8731   14.9354 C   0  0  0  0  0  0  0  0  0  0  0  0
    4.6773   14.0276   13.8398 C   0  0  0  0  0  0  0  0  0  0  0  0
    4.9023   12.6277   14.4585 C   0  0  0  0  0  0  0  0  0  0  0  0
    3.8082   13.8561   12.5850 C   0  0  0  0  0  0  0  0  0  0  0  0
    6.0441   14.6964   13.4896 C   0  0  0  0  0  0  0  0  0  0  0  0
    6.5358   16.3466   11.5672 C   0  0  0  0  0  0  0  0  0  0  0  0
    6.0694   16.1527   12.9992 C   0  0  0  0  0  0  0  0  0  0  0  0
    8.3967   15.2923   16.9699 C   0  0  0  0  0  0  0  0  0  0  0  0
    9.1567   15.6340   18.2545 C   0  0  0  0  0  0  0  0  0  0  0  0
    9.8103   16.8969   18.1554 O   0  0  0  0  0  0  0  0  0  0  0  0
   10.4544   16.8715   17.4306 H   0  0  0  0  0  0  0  0  0  0  0  0
 18 19  1  0
 19 17  1  0
 17 14  1  0
 14 15  1  0
 14 16  1  0
 14 13  1  0
 13  1  1  0
  1  2  1  0
  1  3  1  0
  3  4  2  0
  4 20  1  0
 20 21  1  0
 21 22  1  0
  4  5  1  0
  5  6  1  0
  5  7  1  0
  7  8  1  0
  7  9  1  0
  9  1  1  0
  2 10  1  0
 22 23  1  0
  6 11  1  0
  8 12  1  0
M  END
> <minimizedAffinity>
-3.70425

> <CNNscore>
0.3309769630

> <CNNaffinity>
3.9389736652

> <CNN_VS>
1.3037095070

> <CNNaffinity_variance>
0.1775227338

$$$$



 23 23  0  0  0  0  0  0  0  0999 V2000
    8.0365   15.4407   16.0291 C   0  0  0  0  0  0  0  0  0  0  0  0
    9.1802   14.6210   15.8233 O   0  0  0  0  0  0  0  0  0  0  0  0
    6.8573   14.4997   16.1320 C   0  0  0  0  0  0  0  0  0  0  0  0
    5.9395   14.2935   15.1640 C   0  0  0  0  0  0  0  0  0  0  0  0
    6.0353   14.9675   13.8158 C   0  0  0  0  0  0  0  0  0  0  0  0
    4.9870   15.9330   13.7590 O   0  0  0  0  0  0  0  0  0  0  0  0
    7.4040   15.6440   13.5648 C   0  0  0  0  0  0  0  0  0  0  0  0
    8.4052   14.6844   13.1918 O   0  0  0  0  0  0  0  0  0  0  0  0
    7.8801   16.3888   14.8127 C   0  0  0  0  0  0  0  0  0  0  0  0
    9.2891   14.0224   16.5788 H   0  0  0  0  0  0  0  0  0  0  0  0
    5.1090   16.5847   14.4670 H   0  0  0  0  0  0  0  0  0  0  0  0
    8.5351   14.0540   13.9174 H   0  0  0  0  0  0  0  0  0  0  0  0
    8.2186   16.3183   17.3042 C   0  0  0  0  0  0  0  0  0  0  0  0
    9.4535   17.2788   17.4816 C   0  0  0  0  0  0  0  0  0  0  0  0
   10.3698   16.6091   18.5328 C   0  0  0  0  0  0  0  0  0  0  0  0
   10.2474   17.4030   16.1725 C   0  0  0  0  0  0  0  0  0  0  0  0
    8.9766   18.6780   17.9844 C   0  0  0  0  0  0  0  0  0  0  0  0
    9.5103   19.9986   20.1365 C   0  0  0  0  0  0  0  0  0  0  0  0
    9.9581   19.5822   18.7466 C   0  0  0  0  0  0  0  0  0  0  0  0
    4.7549   13.3751   15.3971 C   0  0  0  0  0  0  0  0  0  0  0  0
    4.0739   13.5779   16.7534 C   0  0  0  0  0  0  0  0  0  0  0  0
    3.1419   14.6558   16.7148 O   0  0  0  0  0  0  0  0  0  0  0  0
    3.6071   15.4777   16.4936 H   0  0  0  0  0  0  0  0  0  0  0  0
 18 19  1  0
 19 17  1  0
 17 14  1  0
 14 15  1  0
 14 16  1  0
 14 13  1  0
 13  1  1  0
  1  2  1  0
  1  3  1  0
  3  4  2  0
  4 20  1  0
 20 21  1  0
 21 22  1  0
  4  5  1  0
  5  6  1  0
  5  7  1  0
  7  8  1  0
  7  9  1  0
  9  1  1  0
  2 10  1  0
 22 23  1  0
  6 11  1  0
  8 12  1  0
M  END
> <minimizedAffinity>
-3.44698

> <CNNscore>
0.2925038338

> <CNNaffinity>
3.3724308014

> <CNN_VS>
0.9864489436

> <CNNaffinity_variance>
0.4956039488

$$$$



 23 23  0  0  0  0  0  0  0  0999 V2000
    3.6818   15.5504   16.2236 C   0  0  0  0  0  0  0  0  0  0  0  0
    3.1560   14.5623   17.1007 O   0  0  0  0  0  0  0  0  0  0  0  0
    4.9345   16.0778   16.8863 C   0  0  0  0  0  0  0  0  0  0  0  0
    5.0406   17.2681   17.5139 C   0  0  0  0  0  0  0  0  0  0  0  0
    3.8609   18.1987   17.6665 C   0  0  0  0  0  0  0  0  0  0  0  0
    4.0997   19.3152   16.8118 O   0  0  0  0  0  0  0  0  0  0  0  0
    2.5075   17.5345   17.3183 C   0  0  0  0  0  0  0  0  0  0  0  0
    2.0348   16.7076   18.3931 O   0  0  0  0  0  0  0  0  0  0  0  0
    2.6301   16.6771   16.0580 C   0  0  0  0  0  0  0  0  0  0  0  0
    3.8056   13.8507   17.2127 H   0  0  0  0  0  0  0  0  0  0  0  0
    4.1676   19.0107   15.8934 H   0  0  0  0  0  0  0  0  0  0  0  0
    2.6661   15.9879   18.5491 H   0  0  0  0  0  0  0  0  0  0  0  0
    3.9577   14.9379   14.8172 C   0  0  0  0  0  0  0  0  0  0  0  0
    5.1746   13.9737   14.5557 C   0  0  0  0  0  0  0  0  0  0  0  0
    5.1164   12.8990   15.6670 C   0  0  0  0  0  0  0  0  0  0  0  0
    5.0329   13.2624   13.2018 C   0  0  0  0  0  0  0  0  0  0  0  0
    6.5158   14.7694   14.6347 C   0  0  0  0  0  0  0  0  0  0  0  0
    8.9478   14.9304   15.4831 C   0  0  0  0  0  0  0  0  0  0  0  0
    7.5386   14.4203   15.7274 C   0  0  0  0  0  0  0  0  0  0  0  0
    6.3665   17.7301   18.0880 C   0  0  0  0  0  0  0  0  0  0  0  0
    7.4265   18.0352   17.0260 C   0  0  0  0  0  0  0  0  0  0  0  0
    7.0445   19.1379   16.2074 O   0  0  0  0  0  0  0  0  0  0  0  0
    6.2179   18.9268   15.7457 H   0  0  0  0  0  0  0  0  0  0  0  0
 18 19  1  0
 19 17  1  0
 17 14  1  0
 14 15  1  0
 14 16  1  0
 14 13  1  0
 13  1  1  0
  1  2  1  0
  1  3  1  0
  3  4  2  0
  4 20  1  0
 20 21  1  0
 21 22  1  0
  4  5  1  0
  5  6  1  0
  5  7  1  0
  7  8  1  0
  7  9  1  0
  9  1  1  0
  2 10  1  0
 22 23  1  0
  6 11  1  0
  8 12  1  0
M  END
> <minimizedAffinity>
-3.60845

> <CNNscore>
0.2880658209

> <CNNaffinity>
3.8718993664

> <CNN_VS>
1.1153619289

> <CNNaffinity_variance>
0.2772658169

$$$$



 23 23  0  0  0  0  0  0  0  0999 V2000
   -7.3030   10.8374   24.3100 C   0  0  0  0  0  0  0  0  0  0  0  0
   -5.9889   10.4082   23.9767 O   0  0  0  0  0  0  0  0  0  0  0  0
   -8.0578   10.9355   23.0034 C   0  0  0  0  0  0  0  0  0  0  0  0
   -8.3628   12.0851   22.3653 C   0  0  0  0  0  0  0  0  0  0  0  0
   -7.9170   13.4306   22.8867 C   0  0  0  0  0  0  0  0  0  0  0  0
   -9.0835   14.0979   23.3645 O   0  0  0  0  0  0  0  0  0  0  0  0
   -6.8561   13.3321   24.0087 C   0  0  0  0  0  0  0  0  0  0  0  0
   -5.5486   13.0700   23.4756 O   0  0  0  0  0  0  0  0  0  0  0  0
   -7.2127   12.2230   24.9992 C   0  0  0  0  0  0  0  0  0  0  0  0
   -6.0319    9.5411   23.5442 H   0  0  0  0  0  0  0  0  0  0  0  0
   -9.4828   13.5787   24.0799 H   0  0  0  0  0  0  0  0  0  0  0  0
   -5.5513   12.2141   23.0190 H   0  0  0  0  0  0  0  0  0  0  0  0
   -7.9623    9.8424   25.3123 C   0  0  0  0  0  0  0  0  0  0  0  0
   -7.9032   10.0707   26.8690 C   0  0  0  0  0  0  0  0  0  0  0  0
   -6.4765   10.5862   27.1726 C   0  0  0  0  0  0  0  0  0  0  0  0
   -8.9005   11.1544   27.3051 C   0  0  0  0  0  0  0  0  0  0  0  0
   -8.1699    8.7271   27.6185 C   0  0  0  0  0  0  0  0  0  0  0  0
   -8.5205    6.1771   27.4333 C   0  0  0  0  0  0  0  0  0  0  0  0
   -8.8106    7.5534   26.8612 C   0  0  0  0  0  0  0  0  0  0  0  0
   -9.1846   12.0736   21.0904 C   0  0  0  0  0  0  0  0  0  0  0  0
   -8.6529   13.0130   20.0044 C   0  0  0  0  0  0  0  0  0  0  0  0
   -8.4922   12.3362   18.7601 O   0  0  0  0  0  0  0  0  0  0  0  0
   -7.8518   11.6152   18.8646 H   0  0  0  0  0  0  0  0  0  0  0  0
 18 19  1  0
 19 17  1  0
 17 14  1  0
 14 15  1  0
 14 16  1  0
 14 13  1  0
 13  1  1  0
  1  2  1  0
  1  3  1  0
  3  4  2  0
  4 20  1  0
 20 21  1  0
 21 22  1  0
  4  5  1  0
  5  6  1  0
  5  7  1  0
  7  8  1  0
  7  9  1  0
  9  1  1  0
  2 10  1  0
 22 23  1  0
  6 11  1  0
  8 12  1  0
M  END
> <minimizedAffinity>
-4.55839

> <CNNscore>
0.2850925624

> <CNNaffinity>
3.2350318432

> <CNN_VS>
0.9222835302

> <CNNaffinity_variance>
0.5796062350

$$$$



 23 23  0  0  0  0  0  0  0  0999 V2000
    4.1285   15.6763   16.5753 C   0  0  0  0  0  0  0  0  0  0  0  0
    3.3842   14.5446   17.0082 O   0  0  0  0  0  0  0  0  0  0  0  0
    5.3421   15.7508   17.4742 C   0  0  0  0  0  0  0  0  0  0  0  0
    5.5092   16.6297   18.4849 C   0  0  0  0  0  0  0  0  0  0  0  0
    4.4381   17.6251   18.8631 C   0  0  0  0  0  0  0  0  0  0  0  0
    4.9121   18.9128   18.4743 O   0  0  0  0  0  0  0  0  0  0  0  0
    3.0697   17.3335   18.2023 C   0  0  0  0  0  0  0  0  0  0  0  0
    2.3721   16.2770   18.8802 O   0  0  0  0  0  0  0  0  0  0  0  0
    3.2465   16.9410   16.7349 C   0  0  0  0  0  0  0  0  0  0  0  0
    3.9259   13.7457   16.9132 H   0  0  0  0  0  0  0  0  0  0  0  0
    5.0576   18.9278   17.5153 H   0  0  0  0  0  0  0  0  0  0  0  0
    2.8894   15.4585   18.8221 H   0  0  0  0  0  0  0  0  0  0  0  0
    4.5034   15.5369   15.0689 C   0  0  0  0  0  0  0  0  0  0  0  0
    5.5446   14.4674   14.5680 C   0  0  0  0  0  0  0  0  0  0  0  0
    6.0313   14.9585   13.1841 C   0  0  0  0  0  0  0  0  0  0  0  0
    6.7620   14.4038   15.5024 C   0  0  0  0  0  0  0  0  0  0  0  0
    4.8594   13.0700   14.4420 C   0  0  0  0  0  0  0  0  0  0  0  0
    4.8777   10.9498   12.9707 C   0  0  0  0  0  0  0  0  0  0  0  0
    4.6569   12.4500   13.0505 C   0  0  0  0  0  0  0  0  0  0  0  0
    6.7983   16.6618   19.2838 C   0  0  0  0  0  0  0  0  0  0  0  0
    7.9231   17.4521   18.6094 C   0  0  0  0  0  0  0  0  0  0  0  0
    7.8834   18.8304   18.9707 O   0  0  0  0  0  0  0  0  0  0  0  0
    7.0406   19.2157   18.6839 H   0  0  0  0  0  0  0  0  0  0  0  0
 18 19  1  0
 19 17  1  0
 17 14  1  0
 14 15  1  0
 14 16  1  0
 14 13  1  0
 13  1  1  0
  1  2  1  0
  1  3  1  0
  3  4  2  0
  4 20  1  0
 20 21  1  0
 21 22  1  0
  4  5  1  0
  5  6  1  0
  5  7  1  0
  7  8  1  0
  7  9  1  0
  9  1  1  0
  2 10  1  0
 22 23  1  0
  6 11  1  0
  8 12  1  0
M  END
> <minimizedAffinity>
-4.22449

> <CNNscore>
0.2773601115

> <CNNaffinity>
3.8737289906

> <CNN_VS>
1.0744179487

> <CNNaffinity_variance>
0.4978162348

$$$$



 23 23  0  0  0  0  0  0  0  0999 V2000
    4.3813   14.1745   16.2386 C   0  0  0  0  0  0  0  0  0  0  0  0
    3.9783   13.5689   17.4605 O   0  0  0  0  0  0  0  0  0  0  0  0
    5.6444   14.9461   16.5478 C   0  0  0  0  0  0  0  0  0  0  0  0
    5.7244   16.2870   16.6809 C   0  0  0  0  0  0  0  0  0  0  0  0
    4.5055   17.1735   16.5829 C   0  0  0  0  0  0  0  0  0  0  0  0
    4.6168   17.8984   15.3597 O   0  0  0  0  0  0  0  0  0  0  0  0
    3.1724   16.3891   16.6241 C   0  0  0  0  0  0  0  0  0  0  0  0
    2.8268   16.0081   17.9649 O   0  0  0  0  0  0  0  0  0  0  0  0
    3.2558   15.1283   15.7626 C   0  0  0  0  0  0  0  0  0  0  0  0
    4.6751   12.9689   17.7692 H   0  0  0  0  0  0  0  0  0  0  0  0
    4.6372   17.2762   14.6158 H   0  0  0  0  0  0  0  0  0  0  0  0
    3.5090   15.4163   18.3189 H   0  0  0  0  0  0  0  0  0  0  0  0
    4.5925   13.0911   15.1383 C   0  0  0  0  0  0  0  0  0  0  0  0
    4.8032   13.4739   13.6256 C   0  0  0  0  0  0  0  0  0  0  0  0
    6.1452   14.2405   13.5606 C   0  0  0  0  0  0  0  0  0  0  0  0
    4.9334   12.2171   12.7523 C   0  0  0  0  0  0  0  0  0  0  0  0
    3.6312   14.3809   13.1338 C   0  0  0  0  0  0  0  0  0  0  0  0
    2.9299   16.7231   12.3076 C   0  0  0  0  0  0  0  0  0  0  0  0
    3.9365   15.5886   12.2338 C   0  0  0  0  0  0  0  0  0  0  0  0
    7.0580   16.9670   16.9258 C   0  0  0  0  0  0  0  0  0  0  0  0
    7.1474   17.6830   18.2763 C   0  0  0  0  0  0  0  0  0  0  0  0
    6.6113   16.8843   19.3283 O   0  0  0  0  0  0  0  0  0  0  0  0
    5.6745   16.7042   19.1523 H   0  0  0  0  0  0  0  0  0  0  0  0
 18 19  1  0
 19 17  1  0
 17 14  1  0
 14 15  1  0
 14 16  1  0
 14 13  1  0
 13  1  1  0
  1  2  1  0
  1  3  1  0
  3  4  2  0
  4 20  1  0
 20 21  1  0
 21 22  1  0
  4  5  1  0
  5  6  1  0
  5  7  1  0
  7  8  1  0
  7  9  1  0
  9  1  1  0
  2 10  1  0
 22 23  1  0
  6 11  1  0
  8 12  1  0
M  END
> <minimizedAffinity>
-3.99619

> <CNNscore>
0.2589110136

> <CNNaffinity>
3.9453535080

> <CNN_VS>
1.0214954615

> <CNNaffinity_variance>
0.1125794128

$$$$



 23 23  0  0  0  0  0  0  0  0999 V2000
   -7.6397   15.4017   20.4295 C   0  0  0  0  0  0  0  0  0  0  0  0
   -8.9760   15.4470   19.9450 O   0  0  0  0  0  0  0  0  0  0  0  0
   -6.9356   16.6005   19.8349 C   0  0  0  0  0  0  0  0  0  0  0  0
   -6.0561   16.5581   18.8118 C   0  0  0  0  0  0  0  0  0  0  0  0
   -5.7186   15.2686   18.1016 C   0  0  0  0  0  0  0  0  0  0  0  0
   -4.3813   14.9320   18.4656 O   0  0  0  0  0  0  0  0  0  0  0  0
   -6.6796   14.1072   18.4504 C   0  0  0  0  0  0  0  0  0  0  0  0
   -7.9187   14.2154   17.7325 O   0  0  0  0  0  0  0  0  0  0  0  0
   -6.9823   14.0826   19.9492 C   0  0  0  0  0  0  0  0  0  0  0  0
   -9.3988   16.2689   20.2393 H   0  0  0  0  0  0  0  0  0  0  0  0
   -4.3294   14.8071   19.4261 H   0  0  0  0  0  0  0  0  0  0  0  0
   -8.3694   15.0358   17.9872 H   0  0  0  0  0  0  0  0  0  0  0  0
   -7.6257   15.4078   21.9880 C   0  0  0  0  0  0  0  0  0  0  0  0
   -7.9455   14.1139   22.8262 C   0  0  0  0  0  0  0  0  0  0  0  0
   -8.8297   14.5768   24.0082 C   0  0  0  0  0  0  0  0  0  0  0  0
   -8.7547   13.1059   21.9965 C   0  0  0  0  0  0  0  0  0  0  0  0
   -6.6214   13.4747   23.3518 C   0  0  0  0  0  0  0  0  0  0  0  0
   -6.4914   10.9961   24.0589 C   0  0  0  0  0  0  0  0  0  0  0  0
   -6.6798   12.4406   24.4872 C   0  0  0  0  0  0  0  0  0  0  0  0
   -5.3543   17.8158   18.3357 C   0  0  0  0  0  0  0  0  0  0  0  0
   -3.8364   17.7891   18.5352 C   0  0  0  0  0  0  0  0  0  0  0  0
   -3.4896   17.3844   19.8573 O   0  0  0  0  0  0  0  0  0  0  0  0
   -3.8591   18.0144   20.4956 H   0  0  0  0  0  0  0  0  0  0  0  0
 18 19  1  0
 19 17  1  0
 17 14  1  0
 14 15  1  0
 14 16  1  0
 14 13  1  0
 13  1  1  0
  1  2  1  0
  1  3  1  0
  3  4  2  0
  4 20  1  0
 20 21  1  0
 21 22  1  0
  4  5  1  0
  5  6  1  0
  5  7  1  0
  7  8  1  0
  7  9  1  0
  9  1  1  0
  2 10  1  0
 22 23  1  0
  6 11  1  0
  8 12  1  0
M  END
> <minimizedAffinity>
-4.86926

> <CNNscore>
0.2546015084

> <CNNaffinity>
3.4975535870

> <CNN_VS>
0.8904824257

> <CNNaffinity_variance>
0.2556607425

$$$$
