


 31 32  0  0  0  0  0  0  0  0999 V2000
  -42.8109  -65.9864  -44.4375 C   0  0  0  0  0  0  0  0  0  0  0  0
  -42.8086  -65.4549  -43.0916 O   0  0  0  0  0  0  0  0  0  0  0  0
  -42.0597  -64.9641  -45.3051 C   0  0  0  0  0  0  0  0  0  0  0  0
  -42.6606  -63.5320  -45.2740 C   0  0  0  0  0  0  0  0  0  0  0  0
  -44.1825  -63.5526  -45.0284 C   0  0  0  0  0  0  0  0  0  0  0  0
  -44.7876  -62.4361  -45.6967 O   0  0  0  0  0  0  0  0  0  0  0  0
  -44.8079  -64.8409  -45.5733 C   0  0  0  0  0  0  0  0  0  0  0  0
  -46.2344  -64.7775  -45.4808 O   0  0  0  0  0  0  0  0  0  0  0  0
  -44.3068  -66.0715  -44.8161 C   0  0  0  0  0  0  0  0  0  0  0  0
  -41.8944  -65.3707  -42.7787 H   0  0  0  0  0  0  0  0  0  0  0  0
  -44.6234  -62.5023  -46.6504 H   0  0  0  0  0  0  0  0  0  0  0  0
  -46.4948  -64.6958  -44.5500 H   0  0  0  0  0  0  0  0  0  0  0  0
  -42.1441  -67.3902  -44.3160 C   0  0  0  0  0  0  0  0  0  0  0  0
  -42.7662  -68.5816  -43.4884 C   0  0  0  0  0  0  0  0  0  0  0  0
  -44.0100  -69.0344  -44.2857 C   0  0  0  0  0  0  0  0  0  0  0  0
  -43.2681  -68.0558  -42.1275 C   0  0  0  0  0  0  0  0  0  0  0  0
  -41.7361  -69.7407  -43.3389 C   0  0  0  0  0  0  0  0  0  0  0  0
  -40.0462  -68.7550  -41.6278 C   0  0  0  0  0  0  0  0  0  0  0  0
  -40.8580  -69.9778  -42.0665 C   0  0  0  0  0  0  0  0  0  0  0  0
  -41.6930  -70.4891  -40.8766 C   0  0  0  0  0  0  0  0  0  0  0  0
  -39.8516  -71.1024  -42.4211 C   0  0  0  0  0  0  0  0  0  0  0  0
  -41.9104  -62.6355  -44.2597 C   0  0  0  0  0  0  0  0  0  0  0  0
  -41.8280  -61.1618  -44.6773 C   0  0  0  0  0  0  0  0  0  0  0  0
  -40.3909  -60.7272  -44.9744 C   0  0  0  0  0  0  0  0  0  0  0  0
  -39.5012  -61.0624  -43.9105 O   0  0  0  0  0  0  0  0  0  0  0  0
  -38.1571  -61.0862  -44.1575 C   0  0  0  0  0  0  0  0  0  0  0  0
  -37.5031  -60.4977  -45.2399 C   0  0  0  0  0  0  0  0  0  0  0  0
  -36.1136  -60.6064  -45.3661 C   0  0  0  0  0  0  0  0  0  0  0  0
  -35.3728  -61.3055  -44.4143 C   0  0  0  0  0  0  0  0  0  0  0  0
  -36.0202  -61.9013  -43.3355 C   0  0  0  0  0  0  0  0  0  0  0  0
  -37.4069  -61.7927  -43.2118 C   0  0  0  0  0  0  0  0  0  0  0  0
 18 19  1  0
 19 20  1  0
 19 21  1  0
 19 17  1  0
 17 14  1  0
 14 15  1  0
 14 16  1  0
 14 13  1  0
 13  1  1  0
  1  2  1  0
  1  3  1  0
  3  4  1  0
  4 22  1  0
 22 23  1  0
 23 24  1  0
 24 25  1  0
 25 26  1  0
 26 27  2  0
 27 28  1  0
 28 29  2  0
 29 30  1  0
 30 31  2  0
  4  5  1  0
  5  6  1  0
  5  7  1  0
  7  8  1  0
  7  9  1  0
  9  1  1  0
 31 26  1  0
  2 10  1  0
  6 11  1  0
  8 12  1  0
M  END
> <minimizedAffinity>
-6.17541

> <CNNscore>
0.3905309141

> <CNNaffinity>
4.9790077209

> <CNN_VS>
1.9444564581

> <CNNaffinity_variance>
0.0426721387

$$$$



 31 32  0  0  0  0  0  0  0  0999 V2000
  -31.4775  -50.8870  -40.6922 C   0  0  0  0  0  0  0  0  0  0  0  0
  -30.4234  -50.5130  -39.7740 O   0  0  0  0  0  0  0  0  0  0  0  0
  -31.2676  -52.3771  -41.0044 C   0  0  0  0  0  0  0  0  0  0  0  0
  -29.8718  -52.7182  -41.5948 C   0  0  0  0  0  0  0  0  0  0  0  0
  -29.2862  -51.5422  -42.4018 C   0  0  0  0  0  0  0  0  0  0  0  0
  -28.4699  -52.0544  -43.4652 O   0  0  0  0  0  0  0  0  0  0  0  0
  -30.4017  -50.6891  -43.0146 C   0  0  0  0  0  0  0  0  0  0  0  0
  -29.8471  -49.6989  -43.8860 O   0  0  0  0  0  0  0  0  0  0  0  0
  -31.2385  -50.0007  -41.9354 C   0  0  0  0  0  0  0  0  0  0  0  0
  -30.5055  -51.0319  -38.9587 H   0  0  0  0  0  0  0  0  0  0  0  0
  -29.0129  -52.5998  -44.0556 H   0  0  0  0  0  0  0  0  0  0  0  0
  -29.2707  -49.1070  -43.3776 H   0  0  0  0  0  0  0  0  0  0  0  0
  -32.8013  -50.5313  -39.9499 C   0  0  0  0  0  0  0  0  0  0  0  0
  -33.6410  -51.5763  -39.1167 C   0  0  0  0  0  0  0  0  0  0  0  0
  -34.6450  -50.7385  -38.2934 C   0  0  0  0  0  0  0  0  0  0  0  0
  -32.7172  -52.2928  -38.1097 C   0  0  0  0  0  0  0  0  0  0  0  0
  -34.3758  -52.5694  -40.0658 C   0  0  0  0  0  0  0  0  0  0  0  0
  -34.0513  -54.9670  -39.1161 C   0  0  0  0  0  0  0  0  0  0  0  0
  -35.0438  -53.9032  -39.5959 C   0  0  0  0  0  0  0  0  0  0  0  0
  -36.1029  -53.6640  -38.5024 C   0  0  0  0  0  0  0  0  0  0  0  0
  -35.7928  -54.4844  -40.8224 C   0  0  0  0  0  0  0  0  0  0  0  0
  -28.9073  -53.2161  -40.4916 C   0  0  0  0  0  0  0  0  0  0  0  0
  -28.2953  -54.5931  -40.7786 C   0  0  0  0  0  0  0  0  0  0  0  0
  -27.7255  -55.2442  -39.5161 C   0  0  0  0  0  0  0  0  0  0  0  0
  -27.6666  -56.6653  -39.6286 O   0  0  0  0  0  0  0  0  0  0  0  0
  -27.7597  -57.4212  -38.4936 C   0  0  0  0  0  0  0  0  0  0  0  0
  -28.1630  -56.9782  -37.2339 C   0  0  0  0  0  0  0  0  0  0  0  0
  -28.2077  -57.8693  -36.1558 C   0  0  0  0  0  0  0  0  0  0  0  0
  -27.8471  -59.2046  -36.3306 C   0  0  0  0  0  0  0  0  0  0  0  0
  -27.4369  -59.6514  -37.5835 C   0  0  0  0  0  0  0  0  0  0  0  0
  -27.3918  -58.7606  -38.6580 C   0  0  0  0  0  0  0  0  0  0  0  0
 18 19  1  0
 19 20  1  0
 19 21  1  0
 19 17  1  0
 17 14  1  0
 14 15  1  0
 14 16  1  0
 14 13  1  0
 13  1  1  0
  1  2  1  0
  1  3  1  0
  3  4  1  0
  4 22  1  0
 22 23  1  0
 23 24  1  0
 24 25  1  0
 25 26  1  0
 26 27  2  0
 27 28  1  0
 28 29  2  0
 29 30  1  0
 30 31  2  0
  4  5  1  0
  5  6  1  0
  5  7  1  0
  7  8  1  0
  7  9  1  0
  9  1  1  0
 31 26  1  0
  2 10  1  0
  6 11  1  0
  8 12  1  0
M  END
> <minimizedAffinity>
-5.08836

> <CNNscore>
0.2687574327

> <CNNaffinity>
4.9896655083

> <CNN_VS>
1.3410097361

> <CNNaffinity_variance>
0.3415237665

$$$$



 31 32  0  0  0  0  0  0  0  0999 V2000
  -41.5850  -60.1915  -49.2841 C   0  0  0  0  0  0  0  0  0  0  0  0
  -41.1978  -58.8622  -48.8635 O   0  0  0  0  0  0  0  0  0  0  0  0
  -40.3153  -61.0540  -49.2078 C   0  0  0  0  0  0  0  0  0  0  0  0
  -39.1293  -60.5263  -50.0612 C   0  0  0  0  0  0  0  0  0  0  0  0
  -39.6147  -59.7538  -51.3041 C   0  0  0  0  0  0  0  0  0  0  0  0
  -38.6684  -59.9236  -52.3695 O   0  0  0  0  0  0  0  0  0  0  0  0
  -40.9756  -60.2757  -51.7765 C   0  0  0  0  0  0  0  0  0  0  0  0
  -41.3395  -59.6608  -53.0162 O   0  0  0  0  0  0  0  0  0  0  0  0
  -42.0687  -60.0096  -50.7406 C   0  0  0  0  0  0  0  0  0  0  0  0
  -40.8788  -58.8928  -47.9480 H   0  0  0  0  0  0  0  0  0  0  0  0
  -38.5988  -60.8649  -52.5932 H   0  0  0  0  0  0  0  0  0  0  0  0
  -41.4204  -58.7024  -52.8904 H   0  0  0  0  0  0  0  0  0  0  0  0
  -42.7383  -60.5985  -48.3175 C   0  0  0  0  0  0  0  0  0  0  0  0
  -42.9044  -60.0097  -46.8625 C   0  0  0  0  0  0  0  0  0  0  0  0
  -42.7100  -58.4836  -47.0088 C   0  0  0  0  0  0  0  0  0  0  0  0
  -41.7614  -60.5271  -45.9645 C   0  0  0  0  0  0  0  0  0  0  0  0
  -44.3138  -60.3493  -46.2922 C   0  0  0  0  0  0  0  0  0  0  0  0
  -46.3517  -60.0084  -47.8690 C   0  0  0  0  0  0  0  0  0  0  0  0
  -45.6112  -59.5370  -46.6135 C   0  0  0  0  0  0  0  0  0  0  0  0
  -46.5888  -59.5166  -45.4225 C   0  0  0  0  0  0  0  0  0  0  0  0
  -45.1719  -58.0701  -46.8550 C   0  0  0  0  0  0  0  0  0  0  0  0
  -38.1469  -59.6991  -49.1976 C   0  0  0  0  0  0  0  0  0  0  0  0
  -38.7388  -59.2303  -47.8623 C   0  0  0  0  0  0  0  0  0  0  0  0
  -38.5107  -60.2484  -46.7425 C   0  0  0  0  0  0  0  0  0  0  0  0
  -37.3951  -59.9004  -45.9240 O   0  0  0  0  0  0  0  0  0  0  0  0
  -37.1118  -60.6726  -44.8323 C   0  0  0  0  0  0  0  0  0  0  0  0
  -38.0061  -61.0525  -43.8316 C   0  0  0  0  0  0  0  0  0  0  0  0
  -37.5721  -61.8478  -42.7650 C   0  0  0  0  0  0  0  0  0  0  0  0
  -36.2435  -62.2638  -42.6921 C   0  0  0  0  0  0  0  0  0  0  0  0
  -35.3442  -61.8821  -43.6838 C   0  0  0  0  0  0  0  0  0  0  0  0
  -35.7788  -61.0876  -44.7468 C   0  0  0  0  0  0  0  0  0  0  0  0
 18 19  1  0
 19 20  1  0
 19 21  1  0
 19 17  1  0
 17 14  1  0
 14 15  1  0
 14 16  1  0
 14 13  1  0
 13  1  1  0
  1  2  1  0
  1  3  1  0
  3  4  1  0
  4 22  1  0
 22 23  1  0
 23 24  1  0
 24 25  1  0
 25 26  1  0
 26 27  2  0
 27 28  1  0
 28 29  2  0
 29 30  1  0
 30 31  2  0
  4  5  1  0
  5  6  1  0
  5  7  1  0
  7  8  1  0
  7  9  1  0
  9  1  1  0
 31 26  1  0
  2 10  1  0
  6 11  1  0
  8 12  1  0
M  END
> <minimizedAffinity>
-7.47201

> <CNNscore>
0.2614888847

> <CNNaffinity>
4.8386917114

> <CNN_VS>
1.2652641535

> <CNNaffinity_variance>
0.7726573944

$$$$



 31 32  0  0  0  0  0  0  0  0999 V2000
  -45.5040  -59.6367  -46.5383 C   0  0  0  0  0  0  0  0  0  0  0  0
  -44.9572  -60.5459  -47.5224 O   0  0  0  0  0  0  0  0  0  0  0  0
  -44.4458  -59.5144  -45.4305 C   0  0  0  0  0  0  0  0  0  0  0  0
  -44.0446  -60.8644  -44.7750 C   0  0  0  0  0  0  0  0  0  0  0  0
  -45.2027  -61.8818  -44.7997 C   0  0  0  0  0  0  0  0  0  0  0  0
  -45.1119  -62.7345  -43.6490 O   0  0  0  0  0  0  0  0  0  0  0  0
  -46.5588  -61.1691  -44.7693 C   0  0  0  0  0  0  0  0  0  0  0  0
  -47.6173  -62.1224  -44.6341 O   0  0  0  0  0  0  0  0  0  0  0  0
  -46.7847  -60.3391  -46.0337 C   0  0  0  0  0  0  0  0  0  0  0  0
  -44.1414  -60.1718  -47.8903 H   0  0  0  0  0  0  0  0  0  0  0  0
  -45.1827  -62.1989  -42.8434 H   0  0  0  0  0  0  0  0  0  0  0  0
  -47.6159  -62.7178  -45.3998 H   0  0  0  0  0  0  0  0  0  0  0  0
  -45.8112  -58.3282  -47.3277 C   0  0  0  0  0  0  0  0  0  0  0  0
  -46.8250  -57.2265  -46.8278 C   0  0  0  0  0  0  0  0  0  0  0  0
  -46.4330  -55.9328  -47.5765 C   0  0  0  0  0  0  0  0  0  0  0  0
  -46.5998  -56.9646  -45.3240 C   0  0  0  0  0  0  0  0  0  0  0  0
  -48.2907  -57.6452  -47.1492 C   0  0  0  0  0  0  0  0  0  0  0  0
  -49.9705  -57.2373  -49.0902 C   0  0  0  0  0  0  0  0  0  0  0  0
  -48.7932  -58.0673  -48.5689 C   0  0  0  0  0  0  0  0  0  0  0  0
  -47.6578  -58.0523  -49.6107 C   0  0  0  0  0  0  0  0  0  0  0  0
  -49.2737  -59.5368  -48.4543 C   0  0  0  0  0  0  0  0  0  0  0  0
  -42.7496  -61.4276  -45.4083 C   0  0  0  0  0  0  0  0  0  0  0  0
  -41.4868  -60.6364  -45.0444 C   0  0  0  0  0  0  0  0  0  0  0  0
  -40.3542  -61.5480  -44.5662 C   0  0  0  0  0  0  0  0  0  0  0  0
  -39.3983  -60.8423  -43.7765 O   0  0  0  0  0  0  0  0  0  0  0  0
  -38.0712  -60.9684  -44.0786 C   0  0  0  0  0  0  0  0  0  0  0  0
  -37.4290  -60.4725  -45.2132 C   0  0  0  0  0  0  0  0  0  0  0  0
  -36.0569  -60.6812  -45.3927 C   0  0  0  0  0  0  0  0  0  0  0  0
  -35.3220  -61.3884  -44.4422 C   0  0  0  0  0  0  0  0  0  0  0  0
  -35.9583  -61.8921  -43.3112 C   0  0  0  0  0  0  0  0  0  0  0  0
  -37.3278  -61.6837  -43.1342 C   0  0  0  0  0  0  0  0  0  0  0  0
 18 19  1  0
 19 20  1  0
 19 21  1  0
 19 17  1  0
 17 14  1  0
 14 15  1  0
 14 16  1  0
 14 13  1  0
 13  1  1  0
  1  2  1  0
  1  3  1  0
  3  4  1  0
  4 22  1  0
 22 23  1  0
 23 24  1  0
 24 25  1  0
 25 26  1  0
 26 27  2  0
 27 28  1  0
 28 29  2  0
 29 30  1  0
 30 31  2  0
  4  5  1  0
  5  6  1  0
  5  7  1  0
  7  8  1  0
  7  9  1  0
  9  1  1  0
 31 26  1  0
  2 10  1  0
  6 11  1  0
  8 12  1  0
M  END
> <minimizedAffinity>
-6.05465

> <CNNscore>
0.2570515275

> <CNNaffinity>
4.7782859802

> <CNN_VS>
1.2282657623

> <CNNaffinity_variance>
0.2154725045

$$$$



 31 32  0  0  0  0  0  0  0  0999 V2000
  -42.7402  -66.0687  -44.5405 C   0  0  0  0  0  0  0  0  0  0  0  0
  -42.8774  -65.7319  -43.1399 O   0  0  0  0  0  0  0  0  0  0  0  0
  -42.1011  -64.8454  -45.2167 C   0  0  0  0  0  0  0  0  0  0  0  0
  -42.8999  -63.5248  -45.0401 C   0  0  0  0  0  0  0  0  0  0  0  0
  -44.4134  -63.7830  -44.9006 C   0  0  0  0  0  0  0  0  0  0  0  0
  -45.1383  -62.6766  -45.4572 O   0  0  0  0  0  0  0  0  0  0  0  0
  -44.8231  -65.0563  -45.6480 C   0  0  0  0  0  0  0  0  0  0  0  0
  -46.2470  -65.1982  -45.6428 O   0  0  0  0  0  0  0  0  0  0  0  0
  -44.1891  -66.3008  -45.0251 C   0  0  0  0  0  0  0  0  0  0  0  0
  -42.0003  -65.5696  -42.7589 H   0  0  0  0  0  0  0  0  0  0  0  0
  -44.9211  -62.5884  -46.3985 H   0  0  0  0  0  0  0  0  0  0  0  0
  -46.5603  -65.2809  -44.7285 H   0  0  0  0  0  0  0  0  0  0  0  0
  -41.8876  -67.3736  -44.5579 C   0  0  0  0  0  0  0  0  0  0  0  0
  -42.1628  -68.6070  -43.6122 C   0  0  0  0  0  0  0  0  0  0  0  0
  -43.5954  -68.4019  -43.0705 C   0  0  0  0  0  0  0  0  0  0  0  0
  -41.2088  -68.5495  -42.4009 C   0  0  0  0  0  0  0  0  0  0  0  0
  -42.0427  -69.9424  -44.4054 C   0  0  0  0  0  0  0  0  0  0  0  0
  -42.0913  -69.1351  -46.8755 C   0  0  0  0  0  0  0  0  0  0  0  0
  -42.5952  -70.1581  -45.8525 C   0  0  0  0  0  0  0  0  0  0  0  0
  -42.3118  -71.5808  -46.3722 C   0  0  0  0  0  0  0  0  0  0  0  0
  -44.1364  -70.0127  -45.7688 C   0  0  0  0  0  0  0  0  0  0  0  0
  -42.3336  -62.6839  -43.8708 C   0  0  0  0  0  0  0  0  0  0  0  0
  -41.6651  -61.3764  -44.3144 C   0  0  0  0  0  0  0  0  0  0  0  0
  -40.2768  -61.2006  -43.6947 C   0  0  0  0  0  0  0  0  0  0  0  0
  -39.3492  -60.6301  -44.6165 O   0  0  0  0  0  0  0  0  0  0  0  0
  -38.0200  -60.9162  -44.4768 C   0  0  0  0  0  0  0  0  0  0  0  0
  -36.9883  -60.4892  -45.3128 C   0  0  0  0  0  0  0  0  0  0  0  0
  -35.6665  -60.8645  -45.0472 C   0  0  0  0  0  0  0  0  0  0  0  0
  -35.3705  -61.6697  -43.9482 C   0  0  0  0  0  0  0  0  0  0  0  0
  -36.3964  -62.1051  -43.1141 C   0  0  0  0  0  0  0  0  0  0  0  0
  -37.7149  -61.7306  -43.3813 C   0  0  0  0  0  0  0  0  0  0  0  0
 18 19  1  0
 19 20  1  0
 19 21  1  0
 19 17  1  0
 17 14  1  0
 14 15  1  0
 14 16  1  0
 14 13  1  0
 13  1  1  0
  1  2  1  0
  1  3  1  0
  3  4  1  0
  4 22  1  0
 22 23  1  0
 23 24  1  0
 24 25  1  0
 25 26  1  0
 26 27  2  0
 27 28  1  0
 28 29  2  0
 29 30  1  0
 30 31  2  0
  4  5  1  0
  5  6  1  0
  5  7  1  0
  7  8  1  0
  7  9  1  0
  9  1  1  0
 31 26  1  0
  2 10  1  0
  6 11  1  0
  8 12  1  0
M  END
> <minimizedAffinity>
-6.40282

> <CNNscore>
0.2562177479

> <CNNaffinity>
4.7042484283

> <CNN_VS>
1.2053118944

> <CNNaffinity_variance>
0.1702141613

$$$$



 31 32  0  0  0  0  0  0  0  0999 V2000
  -42.2130  -59.4116  -47.3492 C   0  0  0  0  0  0  0  0  0  0  0  0
  -41.7065  -58.0584  -47.4279 O   0  0  0  0  0  0  0  0  0  0  0  0
  -41.0092  -60.3022  -47.0031 C   0  0  0  0  0  0  0  0  0  0  0  0
  -39.8316  -60.2092  -48.0119 C   0  0  0  0  0  0  0  0  0  0  0  0
  -40.3197  -59.8757  -49.4358 C   0  0  0  0  0  0  0  0  0  0  0  0
  -39.4437  -60.4865  -50.3945 O   0  0  0  0  0  0  0  0  0  0  0  0
  -41.7380  -60.4072  -49.6672 C   0  0  0  0  0  0  0  0  0  0  0  0
  -42.1168  -60.2306  -51.0357 O   0  0  0  0  0  0  0  0  0  0  0  0
  -42.7545  -59.7038  -48.7668 C   0  0  0  0  0  0  0  0  0  0  0  0
  -41.3449  -57.7978  -46.5664 H   0  0  0  0  0  0  0  0  0  0  0  0
  -39.4562  -61.4492  -50.2766 H   0  0  0  0  0  0  0  0  0  0  0  0
  -42.1191  -59.2848  -51.2511 H   0  0  0  0  0  0  0  0  0  0  0  0
  -43.3433  -59.3555  -46.2772 C   0  0  0  0  0  0  0  0  0  0  0  0
  -44.7712  -58.7398  -46.5480 C   0  0  0  0  0  0  0  0  0  0  0  0
  -44.5873  -57.2087  -46.4498 C   0  0  0  0  0  0  0  0  0  0  0  0
  -45.7331  -59.1533  -45.4146 C   0  0  0  0  0  0  0  0  0  0  0  0
  -45.2902  -59.1591  -47.9557 C   0  0  0  0  0  0  0  0  0  0  0  0
  -46.8677  -58.8894  -50.0037 C   0  0  0  0  0  0  0  0  0  0  0  0
  -46.7384  -58.8817  -48.4773 C   0  0  0  0  0  0  0  0  0  0  0  0
  -47.7659  -59.8586  -47.8736 C   0  0  0  0  0  0  0  0  0  0  0  0
  -47.1273  -57.4644  -47.9839 C   0  0  0  0  0  0  0  0  0  0  0  0
  -38.7477  -59.2237  -47.5128 C   0  0  0  0  0  0  0  0  0  0  0  0
  -38.0704  -59.6568  -46.2063 C   0  0  0  0  0  0  0  0  0  0  0  0
  -36.8379  -60.5285  -46.4583 C   0  0  0  0  0  0  0  0  0  0  0  0
  -36.0937  -60.7589  -45.2630 O   0  0  0  0  0  0  0  0  0  0  0  0
  -36.7631  -61.1296  -44.1305 C   0  0  0  0  0  0  0  0  0  0  0  0
  -38.1346  -61.0152  -43.9038 C   0  0  0  0  0  0  0  0  0  0  0  0
  -38.6842  -61.4359  -42.6874 C   0  0  0  0  0  0  0  0  0  0  0  0
  -37.8663  -61.9690  -41.6922 C   0  0  0  0  0  0  0  0  0  0  0  0
  -36.4957  -62.0793  -41.9094 C   0  0  0  0  0  0  0  0  0  0  0  0
  -35.9489  -61.6580  -43.1233 C   0  0  0  0  0  0  0  0  0  0  0  0
 18 19  1  0
 19 20  1  0
 19 21  1  0
 19 17  1  0
 17 14  1  0
 14 15  1  0
 14 16  1  0
 14 13  1  0
 13  1  1  0
  1  2  1  0
  1  3  1  0
  3  4  1  0
  4 22  1  0
 22 23  1  0
 23 24  1  0
 24 25  1  0
 25 26  1  0
 26 27  2  0
 27 28  1  0
 28 29  2  0
 29 30  1  0
 30 31  2  0
  4  5  1  0
  5  6  1  0
  5  7  1  0
  7  8  1  0
  7  9  1  0
  9  1  1  0
 31 26  1  0
  2 10  1  0
  6 11  1  0
  8 12  1  0
M  END
> <minimizedAffinity>
-7.45838

> <CNNscore>
0.2534647584

> <CNNaffinity>
5.3380970955

> <CNN_VS>
1.3530194759

> <CNNaffinity_variance>
0.1090633869

$$$$



 31 32  0  0  0  0  0  0  0  0999 V2000
  -44.6836  -60.0277  -43.2068 C   0  0  0  0  0  0  0  0  0  0  0  0
  -45.0096  -61.0537  -42.2399 O   0  0  0  0  0  0  0  0  0  0  0  0
  -43.1623  -60.0986  -43.4131 C   0  0  0  0  0  0  0  0  0  0  0  0
  -42.3299  -59.9200  -42.1138 C   0  0  0  0  0  0  0  0  0  0  0  0
  -43.0542  -59.0286  -41.0853 C   0  0  0  0  0  0  0  0  0  0  0  0
  -42.0832  -58.3087  -40.3118 O   0  0  0  0  0  0  0  0  0  0  0  0
  -43.9656  -58.0147  -41.7847 C   0  0  0  0  0  0  0  0  0  0  0  0
  -44.5080  -57.0954  -40.8317 O   0  0  0  0  0  0  0  0  0  0  0  0
  -45.1097  -58.7071  -42.5265 C   0  0  0  0  0  0  0  0  0  0  0  0
  -44.7690  -61.9228  -42.5971 H   0  0  0  0  0  0  0  0  0  0  0  0
  -41.5560  -57.7445  -40.8989 H   0  0  0  0  0  0  0  0  0  0  0  0
  -45.0476  -57.5789  -40.1868 H   0  0  0  0  0  0  0  0  0  0  0  0
  -45.5521  -60.3636  -44.4569 C   0  0  0  0  0  0  0  0  0  0  0  0
  -45.7138  -59.3939  -45.6918 C   0  0  0  0  0  0  0  0  0  0  0  0
  -45.0892  -60.1426  -46.8906 C   0  0  0  0  0  0  0  0  0  0  0  0
  -44.8690  -58.1233  -45.4623 C   0  0  0  0  0  0  0  0  0  0  0  0
  -47.2176  -59.0749  -45.9441 C   0  0  0  0  0  0  0  0  0  0  0  0
  -48.8920  -60.0294  -47.6879 C   0  0  0  0  0  0  0  0  0  0  0  0
  -48.3004  -60.1523  -46.2802 C   0  0  0  0  0  0  0  0  0  0  0  0
  -47.7725  -61.5851  -46.0724 C   0  0  0  0  0  0  0  0  0  0  0  0
  -49.4585  -59.9528  -45.2691 C   0  0  0  0  0  0  0  0  0  0  0  0
  -41.9193  -61.2902  -41.5230 C   0  0  0  0  0  0  0  0  0  0  0  0
  -40.4752  -61.3354  -41.0075 C   0  0  0  0  0  0  0  0  0  0  0  0
  -39.4845  -60.7542  -42.0190 C   0  0  0  0  0  0  0  0  0  0  0  0
  -38.9533  -61.7578  -42.8829 O   0  0  0  0  0  0  0  0  0  0  0  0
  -37.7977  -61.4969  -43.5646 C   0  0  0  0  0  0  0  0  0  0  0  0
  -36.5163  -61.9247  -43.2173 C   0  0  0  0  0  0  0  0  0  0  0  0
  -35.4187  -61.5770  -44.0129 C   0  0  0  0  0  0  0  0  0  0  0  0
  -35.5961  -60.7986  -45.1558 C   0  0  0  0  0  0  0  0  0  0  0  0
  -36.8713  -60.3624  -45.5040 C   0  0  0  0  0  0  0  0  0  0  0  0
  -37.9652  -60.7094  -44.7083 C   0  0  0  0  0  0  0  0  0  0  0  0
 18 19  1  0
 19 20  1  0
 19 21  1  0
 19 17  1  0
 17 14  1  0
 14 15  1  0
 14 16  1  0
 14 13  1  0
 13  1  1  0
  1  2  1  0
  1  3  1  0
  3  4  1  0
  4 22  1  0
 22 23  1  0
 23 24  1  0
 24 25  1  0
 25 26  1  0
 26 27  2  0
 27 28  1  0
 28 29  2  0
 29 30  1  0
 30 31  2  0
  4  5  1  0
  5  6  1  0
  5  7  1  0
  7  8  1  0
  7  9  1  0
  9  1  1  0
 31 26  1  0
  2 10  1  0
  6 11  1  0
  8 12  1  0
M  END
> <minimizedAffinity>
-5.31797

> <CNNscore>
0.2095339447

> <CNNaffinity>
3.8436834812

> <CNN_VS>
0.8053821325

> <CNNaffinity_variance>
0.8742648959

$$$$



 31 32  0  0  0  0  0  0  0  0999 V2000
  -43.9949  -60.3770  -44.8979 C   0  0  0  0  0  0  0  0  0  0  0  0
  -42.7385  -59.6712  -44.7665 O   0  0  0  0  0  0  0  0  0  0  0  0
  -44.1550  -61.2129  -43.6182 C   0  0  0  0  0  0  0  0  0  0  0  0
  -42.9888  -62.2032  -43.3491 C   0  0  0  0  0  0  0  0  0  0  0  0
  -42.3300  -62.6844  -44.6573 C   0  0  0  0  0  0  0  0  0  0  0  0
  -41.8418  -64.0221  -44.4803 O   0  0  0  0  0  0  0  0  0  0  0  0
  -43.3387  -62.6849  -45.8106 C   0  0  0  0  0  0  0  0  0  0  0  0
  -42.7594  -63.2796  -46.9760 O   0  0  0  0  0  0  0  0  0  0  0  0
  -43.8077  -61.2685  -46.1463 C   0  0  0  0  0  0  0  0  0  0  0  0
  -42.7768  -59.0837  -43.9956 H   0  0  0  0  0  0  0  0  0  0  0  0
  -42.5825  -64.6112  -44.2676 H   0  0  0  0  0  0  0  0  0  0  0  0
  -41.9918  -62.7577  -47.2578 H   0  0  0  0  0  0  0  0  0  0  0  0
  -45.0615  -59.2610  -45.1147 C   0  0  0  0  0  0  0  0  0  0  0  0
  -46.3398  -59.4419  -46.0227 C   0  0  0  0  0  0  0  0  0  0  0  0
  -47.4303  -58.5524  -45.3843 C   0  0  0  0  0  0  0  0  0  0  0  0
  -46.8345  -60.9004  -45.9301 C   0  0  0  0  0  0  0  0  0  0  0  0
  -46.0374  -59.0046  -47.4871 C   0  0  0  0  0  0  0  0  0  0  0  0
  -48.4749  -59.3473  -48.3219 C   0  0  0  0  0  0  0  0  0  0  0  0
  -47.1348  -58.6375  -48.5392 C   0  0  0  0  0  0  0  0  0  0  0  0
  -47.3706  -57.1168  -48.6202 C   0  0  0  0  0  0  0  0  0  0  0  0
  -46.5929  -59.0789  -49.9230 C   0  0  0  0  0  0  0  0  0  0  0  0
  -41.9640  -61.6003  -42.3583 C   0  0  0  0  0  0  0  0  0  0  0  0
  -40.7458  -60.9625  -43.0382 C   0  0  0  0  0  0  0  0  0  0  0  0
  -39.5277  -60.9180  -42.1127 C   0  0  0  0  0  0  0  0  0  0  0  0
  -38.5543  -61.9003  -42.4639 O   0  0  0  0  0  0  0  0  0  0  0  0
  -37.5871  -61.5747  -43.3731 C   0  0  0  0  0  0  0  0  0  0  0  0
  -37.7415  -60.7504  -44.4876 C   0  0  0  0  0  0  0  0  0  0  0  0
  -36.6571  -60.5067  -45.3381 C   0  0  0  0  0  0  0  0  0  0  0  0
  -35.4161  -61.0875  -45.0808 C   0  0  0  0  0  0  0  0  0  0  0  0
  -35.2572  -61.9169  -43.9741 C   0  0  0  0  0  0  0  0  0  0  0  0
  -36.3407  -62.1599  -43.1272 C   0  0  0  0  0  0  0  0  0  0  0  0
 18 19  1  0
 19 20  1  0
 19 21  1  0
 19 17  1  0
 17 14  1  0
 14 15  1  0
 14 16  1  0
 14 13  1  0
 13  1  1  0
  1  2  1  0
  1  3  1  0
  3  4  1  0
  4 22  1  0
 22 23  1  0
 23 24  1  0
 24 25  1  0
 25 26  1  0
 26 27  2  0
 27 28  1  0
 28 29  2  0
 29 30  1  0
 30 31  2  0
  4  5  1  0
  5  6  1  0
  5  7  1  0
  7  8  1  0
  7  9  1  0
  9  1  1  0
 31 26  1  0
  2 10  1  0
  6 11  1  0
  8 12  1  0
M  END
> <minimizedAffinity>
-6.98267

> <CNNscore>
0.1957982481

> <CNNaffinity>
4.5933327675

> <CNN_VS>
0.8993664980

> <CNNaffinity_variance>
0.3902967870

$$$$



 31 32  0  0  0  0  0  0  0  0999 V2000
  -44.4492  -59.6013  -45.9957 C   0  0  0  0  0  0  0  0  0  0  0  0
  -44.0107  -59.3260  -44.6444 O   0  0  0  0  0  0  0  0  0  0  0  0
  -44.0800  -61.0662  -46.2779 C   0  0  0  0  0  0  0  0  0  0  0  0
  -42.5704  -61.3913  -46.1082 C   0  0  0  0  0  0  0  0  0  0  0  0
  -41.6817  -60.1686  -46.4118 C   0  0  0  0  0  0  0  0  0  0  0  0
  -40.4300  -60.6131  -46.9549 O   0  0  0  0  0  0  0  0  0  0  0  0
  -42.3524  -59.2438  -47.4330 C   0  0  0  0  0  0  0  0  0  0  0  0
  -41.4540  -58.2004  -47.8224 O   0  0  0  0  0  0  0  0  0  0  0  0
  -43.6334  -58.6245  -46.8724 C   0  0  0  0  0  0  0  0  0  0  0  0
  -44.4826  -59.9062  -44.0268 H   0  0  0  0  0  0  0  0  0  0  0  0
  -40.5893  -61.0971  -47.7803 H   0  0  0  0  0  0  0  0  0  0  0  0
  -41.2254  -57.6644  -47.0470 H   0  0  0  0  0  0  0  0  0  0  0  0
  -45.9736  -59.2755  -45.9972 C   0  0  0  0  0  0  0  0  0  0  0  0
  -46.9339  -59.6053  -47.2057 C   0  0  0  0  0  0  0  0  0  0  0  0
  -47.5241  -60.9996  -46.8969 C   0  0  0  0  0  0  0  0  0  0  0  0
  -46.1045  -59.7417  -48.4996 C   0  0  0  0  0  0  0  0  0  0  0  0
  -48.0543  -58.5293  -47.3240 C   0  0  0  0  0  0  0  0  0  0  0  0
  -49.8074  -57.0689  -48.5686 C   0  0  0  0  0  0  0  0  0  0  0  0
  -48.9811  -58.3588  -48.5722 C   0  0  0  0  0  0  0  0  0  0  0  0
  -48.1935  -58.4561  -49.8931 C   0  0  0  0  0  0  0  0  0  0  0  0
  -49.9748  -59.5486  -48.5569 C   0  0  0  0  0  0  0  0  0  0  0  0
  -42.2850  -61.9976  -44.7132 C   0  0  0  0  0  0  0  0  0  0  0  0
  -41.5939  -61.0283  -43.7457 C   0  0  0  0  0  0  0  0  0  0  0  0
  -40.1445  -61.4315  -43.4644 C   0  0  0  0  0  0  0  0  0  0  0  0
  -39.2178  -60.6530  -44.2198 O   0  0  0  0  0  0  0  0  0  0  0  0
  -37.8953  -60.9979  -44.1985 C   0  0  0  0  0  0  0  0  0  0  0  0
  -36.9154  -60.5793  -45.0985 C   0  0  0  0  0  0  0  0  0  0  0  0
  -35.5943  -61.0180  -44.9545 C   0  0  0  0  0  0  0  0  0  0  0  0
  -35.2476  -61.8784  -43.9138 C   0  0  0  0  0  0  0  0  0  0  0  0
  -36.2224  -62.3057  -43.0164 C   0  0  0  0  0  0  0  0  0  0  0  0
  -37.5403  -61.8677  -43.1623 C   0  0  0  0  0  0  0  0  0  0  0  0
 18 19  1  0
 19 20  1  0
 19 21  1  0
 19 17  1  0
 17 14  1  0
 14 15  1  0
 14 16  1  0
 14 13  1  0
 13  1  1  0
  1  2  1  0
  1  3  1  0
  3  4  1  0
  4 22  1  0
 22 23  1  0
 23 24  1  0
 24 25  1  0
 25 26  1  0
 26 27  2  0
 27 28  1  0
 28 29  2  0
 29 30  1  0
 30 31  2  0
  4  5  1  0
  5  6  1  0
  5  7  1  0
  7  8  1  0
  7  9  1  0
  9  1  1  0
 31 26  1  0
  2 10  1  0
  6 11  1  0
  8 12  1  0
M  END
> <minimizedAffinity>
-7.05941

> <CNNscore>
0.1814214438

> <CNNaffinity>
4.7157607079

> <CNN_VS>
0.8555400968

> <CNNaffinity_variance>
0.2245997190

$$$$
