


 36 40  0  0  0  0  0  0  0  0999 V2000
   24.7123   28.8106   18.1024 C   0  0  0  0  0  0  0  0  0  0  0  0
   23.7778   29.5926   18.7595 C   0  0  0  0  0  0  0  0  0  0  0  0
   23.6966   29.5014   20.1384 C   0  0  0  0  0  0  0  0  0  0  0  0
   24.5271   28.6982   20.8169 N   0  0  0  0  0  0  0  0  0  0  0  0
   25.4149   27.9839   20.1118 C   0  0  0  0  0  0  0  0  0  0  0  0
   25.5487   28.0090   18.7795 N   0  0  0  0  0  0  0  0  0  0  0  0
   22.7691   30.3000   20.8393 N   0  0  0  0  0  0  0  0  0  0  0  0
   23.1731   31.7201   20.9356 C   0  0  0  0  0  0  0  0  0  0  0  0
   22.1423   32.5288   21.7636 C   0  0  0  0  0  0  0  0  0  0  0  0
   20.7337   32.4043   21.3330 N   0  0  0  0  0  0  0  0  0  0  0  0
   20.4852   33.1200   20.0839 C   0  0  0  0  0  0  0  0  0  0  0  0
   20.3971   30.9683   21.2128 C   0  0  0  0  0  0  0  0  0  0  0  0
   21.3775   30.1286   20.3590 C   0  0  0  0  0  0  0  0  0  0  0  0
   24.8308   28.9438   16.6967 N   0  0  0  0  0  0  0  0  0  0  0  0
   24.1383   29.4708   16.2364 H   0  0  0  0  0  0  0  0  0  0  0  0
   29.0196   27.0478   14.7774 C   0  0  0  0  0  0  0  0  0  0  0  0
   27.6494   27.5559   15.0233 C   0  0  0  0  0  0  0  0  0  0  0  0
   27.1134   28.0755   16.2265 C   0  0  0  0  0  0  0  0  0  0  0  0
   25.8133   28.4100   15.9284 C   0  0  0  0  0  0  0  0  0  0  0  0
   25.6465   28.0787   14.6082 N   0  0  0  0  0  0  0  0  0  0  0  0
   26.7479   27.5618   14.0340 N   0  0  0  0  0  0  0  0  0  0  0  0
   24.7985   28.2074   14.1249 H   0  0  0  0  0  0  0  0  0  0  0  0
   26.5161   26.9347   21.0263 S   0  0  0  0  0  0  0  0  0  0  0  0
   27.4272   26.1750   19.6974 C   0  0  0  0  0  0  0  0  0  0  0  0
   28.6379   26.7064   19.2437 C   0  0  0  0  0  0  0  0  0  0  0  0
   29.3482   26.0734   18.2179 C   0  0  0  0  0  0  0  0  0  0  0  0
   28.8696   24.8910   17.6399 C   0  0  0  0  0  0  0  0  0  0  0  0
   27.6636   24.3585   18.0978 C   0  0  0  0  0  0  0  0  0  0  0  0
   26.9485   24.9956   19.1204 C   0  0  0  0  0  0  0  0  0  0  0  0
   29.6562   24.3050   16.6299 N   0  0  0  0  0  0  0  0  0  0  0  0
   30.1044   23.0047   16.5611 C   0  0  0  0  0  0  0  0  0  0  0  0
   29.8945   22.0883   17.3404 O   0  0  0  0  0  0  0  0  0  0  0  0
   29.9164   24.8940   15.8852 H   0  0  0  0  0  0  0  0  0  0  0  0
   30.9325   22.7505   15.3474 C   0  0  0  0  0  0  0  0  0  0  0  0
   31.9082   23.8046   14.8778 C   0  0  0  0  0  0  0  0  0  0  0  0
   30.6837   23.5107   14.0627 C   0  0  0  0  0  0  0  0  0  0  0  0
 16 17  1  0
 17 18  1  0
 18 19  2  0
 19 14  1  0
 14  1  1  0
  1  2  2  0
  2  3  1  0
  3  7  1  0
  7  8  1  0
  8  9  1  0
  9 10  1  0
 10 11  1  0
 10 12  1  0
 12 13  1  0
  3  4  2  0
  4  5  1  0
  5 23  1  0
 23 24  1  0
 24 25  2  0
 25 26  1  0
 26 27  2  0
 27 30  1  0
 30 31  1  0
 31 32  2  0
 31 34  1  0
 34 35  1  0
 35 36  1  0
 27 28  1  0
 28 29  2  0
  5  6  2  0
 19 20  1  0
 20 21  1  0
 21 17  2  0
  6  1  1  0
 13  7  1  0
 29 24  1  0
 36 34  1  0
 14 15  1  0
 30 33  1  0
 20 22  1  0
M  END
> <minimizedAffinity>
-9.81900

> <CNNscore>
0.9758215547

> <CNNaffinity>
8.4723577499

> <CNN_VS>
8.2675094604

> <CNNaffinity_variance>
0.0073352992

$$$$



 36 40  0  0  0  0  0  0  0  0999 V2000
   24.4686   29.0396   18.8110 C   0  0  0  0  0  0  0  0  0  0  0  0
   23.3841   29.4791   19.5508 C   0  0  0  0  0  0  0  0  0  0  0  0
   23.3346   29.1624   20.8975 C   0  0  0  0  0  0  0  0  0  0  0  0
   24.3312   28.4749   21.4714 N   0  0  0  0  0  0  0  0  0  0  0  0
   25.3544   28.0972   20.6930 C   0  0  0  0  0  0  0  0  0  0  0  0
   25.4705   28.3551   19.3840 N   0  0  0  0  0  0  0  0  0  0  0  0
   22.2534   29.6127   21.6832 N   0  0  0  0  0  0  0  0  0  0  0  0
   21.1884   30.2696   20.8936 C   0  0  0  0  0  0  0  0  0  0  0  0
   20.0602   30.7899   21.8200 C   0  0  0  0  0  0  0  0  0  0  0  0
   19.4924   29.7992   22.7588 N   0  0  0  0  0  0  0  0  0  0  0  0
   18.6529   28.8217   22.0703 C   0  0  0  0  0  0  0  0  0  0  0  0
   20.6006   29.1451   23.4893 C   0  0  0  0  0  0  0  0  0  0  0  0
   21.7313   28.5727   22.6009 C   0  0  0  0  0  0  0  0  0  0  0  0
   24.5446   29.4092   17.4453 N   0  0  0  0  0  0  0  0  0  0  0  0
   23.9905   30.1696   17.1552 H   0  0  0  0  0  0  0  0  0  0  0  0
   28.1001   27.1756   14.7631 C   0  0  0  0  0  0  0  0  0  0  0  0
   26.8573   27.8096   15.2627 C   0  0  0  0  0  0  0  0  0  0  0  0
   26.6018   28.3337   16.5530 C   0  0  0  0  0  0  0  0  0  0  0  0
   25.3125   28.8090   16.5016 C   0  0  0  0  0  0  0  0  0  0  0  0
   24.8795   28.5476   15.2270 N   0  0  0  0  0  0  0  0  0  0  0  0
   25.8001   27.9447   14.4530 N   0  0  0  0  0  0  0  0  0  0  0  0
   23.9777   28.7798   14.9075 H   0  0  0  0  0  0  0  0  0  0  0  0
   26.6724   27.1985   21.4711 S   0  0  0  0  0  0  0  0  0  0  0  0
   27.3764   26.3622   20.0647 C   0  0  0  0  0  0  0  0  0  0  0  0
   28.4652   26.8938   19.3676 C   0  0  0  0  0  0  0  0  0  0  0  0
   29.0178   26.2021   18.2843 C   0  0  0  0  0  0  0  0  0  0  0  0
   28.5028   24.9610   17.8897 C   0  0  0  0  0  0  0  0  0  0  0  0
   27.4193   24.4289   18.5901 C   0  0  0  0  0  0  0  0  0  0  0  0
   26.8613   25.1242   19.6709 C   0  0  0  0  0  0  0  0  0  0  0  0
   29.1309   24.3198   16.8049 N   0  0  0  0  0  0  0  0  0  0  0  0
   30.3789   23.7384   16.7798 C   0  0  0  0  0  0  0  0  0  0  0  0
   31.1852   23.6343   17.6909 O   0  0  0  0  0  0  0  0  0  0  0  0
   28.6174   24.2828   15.9657 H   0  0  0  0  0  0  0  0  0  0  0  0
   30.7167   23.1712   15.4428 C   0  0  0  0  0  0  0  0  0  0  0  0
   31.9054   23.7129   14.6830 C   0  0  0  0  0  0  0  0  0  0  0  0
   30.5178   23.9823   14.1807 C   0  0  0  0  0  0  0  0  0  0  0  0
 16 17  1  0
 17 18  1  0
 18 19  2  0
 19 14  1  0
 14  1  1  0
  1  2  2  0
  2  3  1  0
  3  7  1  0
  7  8  1  0
  8  9  1  0
  9 10  1  0
 10 11  1  0
 10 12  1  0
 12 13  1  0
  3  4  2  0
  4  5  1  0
  5 23  1  0
 23 24  1  0
 24 25  2  0
 25 26  1  0
 26 27  2  0
 27 30  1  0
 30 31  1  0
 31 32  2  0
 31 34  1  0
 34 35  1  0
 35 36  1  0
 27 28  1  0
 28 29  2  0
  5  6  2  0
 19 20  1  0
 20 21  1  0
 21 17  2  0
  6  1  1  0
 13  7  1  0
 29 24  1  0
 36 34  1  0
 14 15  1  0
 30 33  1  0
 20 22  1  0
M  END
> <minimizedAffinity>
-9.61247

> <CNNscore>
0.9300071597

> <CNNaffinity>
8.5095987320

> <CNN_VS>
7.9139876366

> <CNNaffinity_variance>
0.0624756701

$$$$



 36 40  0  0  0  0  0  0  0  0999 V2000
   25.4768   28.3036   17.7802 C   0  0  0  0  0  0  0  0  0  0  0  0
   24.6704   29.2999   18.3032 C   0  0  0  0  0  0  0  0  0  0  0  0
   24.2939   29.2115   19.6325 C   0  0  0  0  0  0  0  0  0  0  0  0
   24.7296   28.2009   20.3968 N   0  0  0  0  0  0  0  0  0  0  0  0
   25.5195   27.2833   19.8227 C   0  0  0  0  0  0  0  0  0  0  0  0
   25.9187   27.2930   18.5444 N   0  0  0  0  0  0  0  0  0  0  0  0
   23.4897   30.2211   20.2009 N   0  0  0  0  0  0  0  0  0  0  0  0
   22.4281   30.7065   19.2916 C   0  0  0  0  0  0  0  0  0  0  0  0
   21.6193   31.8505   19.9539 C   0  0  0  0  0  0  0  0  0  0  0  0
   21.0764   31.5585   21.2975 N   0  0  0  0  0  0  0  0  0  0  0  0
   19.9535   30.6260   21.2357 C   0  0  0  0  0  0  0  0  0  0  0  0
   22.1685   31.0383   22.1499 C   0  0  0  0  0  0  0  0  0  0  0  0
   22.9778   29.8657   21.5455 C   0  0  0  0  0  0  0  0  0  0  0  0
   25.9049   28.4227   16.4347 N   0  0  0  0  0  0  0  0  0  0  0  0
   25.3712   29.0021   15.8442 H   0  0  0  0  0  0  0  0  0  0  0  0
   30.1561   26.0182   15.4498 C   0  0  0  0  0  0  0  0  0  0  0  0
   28.8637   26.7410   15.3916 C   0  0  0  0  0  0  0  0  0  0  0  0
   28.0728   27.2045   16.4707 C   0  0  0  0  0  0  0  0  0  0  0  0
   26.9845   27.8098   15.8876 C   0  0  0  0  0  0  0  0  0  0  0  0
   27.1748   27.6755   14.5362 N   0  0  0  0  0  0  0  0  0  0  0  0
   28.3108   27.0336   14.2083 N   0  0  0  0  0  0  0  0  0  0  0  0
   26.5386   28.0175   13.8673 H   0  0  0  0  0  0  0  0  0  0  0  0
   26.0984   25.9582   20.8519 S   0  0  0  0  0  0  0  0  0  0  0  0
   25.3303   26.3847   22.4014 C   0  0  0  0  0  0  0  0  0  0  0  0
   26.0183   27.0997   23.3861 C   0  0  0  0  0  0  0  0  0  0  0  0
   25.3820   27.4473   24.5827 C   0  0  0  0  0  0  0  0  0  0  0  0
   24.0440   27.1011   24.8087 C   0  0  0  0  0  0  0  0  0  0  0  0
   23.3567   26.3922   23.8224 C   0  0  0  0  0  0  0  0  0  0  0  0
   23.9953   26.0380   22.6267 C   0  0  0  0  0  0  0  0  0  0  0  0
   23.4717   27.5090   26.0287 N   0  0  0  0  0  0  0  0  0  0  0  0
   23.3739   26.7844   27.1956 C   0  0  0  0  0  0  0  0  0  0  0  0
   23.7821   25.6564   27.4240 O   0  0  0  0  0  0  0  0  0  0  0  0
   23.0973   28.4193   26.0500 H   0  0  0  0  0  0  0  0  0  0  0  0
   22.6842   27.5404   28.2801 C   0  0  0  0  0  0  0  0  0  0  0  0
   22.6951   29.0515   28.2572 C   0  0  0  0  0  0  0  0  0  0  0  0
   23.4743   28.3192   29.3094 C   0  0  0  0  0  0  0  0  0  0  0  0
 16 17  1  0
 17 18  1  0
 18 19  2  0
 19 14  1  0
 14  1  1  0
  1  2  2  0
  2  3  1  0
  3  7  1  0
  7  8  1  0
  8  9  1  0
  9 10  1  0
 10 11  1  0
 10 12  1  0
 12 13  1  0
  3  4  2  0
  4  5  1  0
  5 23  1  0
 23 24  1  0
 24 25  2  0
 25 26  1  0
 26 27  2  0
 27 30  1  0
 30 31  1  0
 31 32  2  0
 31 34  1  0
 34 35  1  0
 35 36  1  0
 27 28  1  0
 28 29  2  0
  5  6  2  0
 19 20  1  0
 20 21  1  0
 21 17  2  0
  6  1  1  0
 13  7  1  0
 29 24  1  0
 36 34  1  0
 14 15  1  0
 30 33  1  0
 20 22  1  0
M  END
> <minimizedAffinity>
-7.66737

> <CNNscore>
0.6480057240

> <CNNaffinity>
7.4345746040

> <CNN_VS>
4.8176469803

> <CNNaffinity_variance>
0.0110071190

$$$$



 36 40  0  0  0  0  0  0  0  0999 V2000
   24.2755   28.7590   19.3661 C   0  0  0  0  0  0  0  0  0  0  0  0
   23.2283   29.2229   20.1439 C   0  0  0  0  0  0  0  0  0  0  0  0
   23.0195   28.6394   21.3817 C   0  0  0  0  0  0  0  0  0  0  0  0
   23.8346   27.6722   21.8237 N   0  0  0  0  0  0  0  0  0  0  0  0
   24.8353   27.2873   21.0200 C   0  0  0  0  0  0  0  0  0  0  0  0
   25.0963   27.7939   19.8081 N   0  0  0  0  0  0  0  0  0  0  0  0
   21.9738   29.1032   22.2068 N   0  0  0  0  0  0  0  0  0  0  0  0
   21.0242   28.0400   22.6032 C   0  0  0  0  0  0  0  0  0  0  0  0
   19.8721   28.6246   23.4590 C   0  0  0  0  0  0  0  0  0  0  0  0
   20.2853   29.4313   24.6267 N   0  0  0  0  0  0  0  0  0  0  0  0
   20.8285   28.5964   25.6954 C   0  0  0  0  0  0  0  0  0  0  0  0
   21.2636   30.4484   24.1812 C   0  0  0  0  0  0  0  0  0  0  0  0
   22.4552   29.9034   23.3576 C   0  0  0  0  0  0  0  0  0  0  0  0
   24.5209   29.3925   18.1227 N   0  0  0  0  0  0  0  0  0  0  0  0
   24.1408   30.2916   17.9949 H   0  0  0  0  0  0  0  0  0  0  0  0
   27.9047   27.3626   15.0807 C   0  0  0  0  0  0  0  0  0  0  0  0
   26.6990   27.9667   15.6949 C   0  0  0  0  0  0  0  0  0  0  0  0
   26.5133   28.3725   17.0387 C   0  0  0  0  0  0  0  0  0  0  0  0
   25.2327   28.8707   17.0924 C   0  0  0  0  0  0  0  0  0  0  0  0
   24.7368   28.7357   15.8210 N   0  0  0  0  0  0  0  0  0  0  0  0
   25.6088   28.1930   14.9521 N   0  0  0  0  0  0  0  0  0  0  0  0
   23.8261   29.0107   15.5675 H   0  0  0  0  0  0  0  0  0  0  0  0
   25.9135   26.0141   21.6255 S   0  0  0  0  0  0  0  0  0  0  0  0
   25.3595   25.8884   23.3137 C   0  0  0  0  0  0  0  0  0  0  0  0
   24.3741   24.9726   23.6936 C   0  0  0  0  0  0  0  0  0  0  0  0
   23.9779   24.8739   25.0317 C   0  0  0  0  0  0  0  0  0  0  0  0
   24.5707   25.6761   26.0148 C   0  0  0  0  0  0  0  0  0  0  0  0
   25.5584   26.5860   25.6350 C   0  0  0  0  0  0  0  0  0  0  0  0
   25.9508   26.6900   24.2940 C   0  0  0  0  0  0  0  0  0  0  0  0
   24.1318   25.4981   27.3406 N   0  0  0  0  0  0  0  0  0  0  0  0
   24.7995   24.8747   28.3710 C   0  0  0  0  0  0  0  0  0  0  0  0
   25.9127   24.3729   28.3591 O   0  0  0  0  0  0  0  0  0  0  0  0
   23.2429   25.8622   27.5564 H   0  0  0  0  0  0  0  0  0  0  0  0
   24.0101   24.8604   29.6359 C   0  0  0  0  0  0  0  0  0  0  0  0
   24.7256   24.7098   30.9584 C   0  0  0  0  0  0  0  0  0  0  0  0
   23.8651   23.5919   30.4483 C   0  0  0  0  0  0  0  0  0  0  0  0
 16 17  1  0
 17 18  1  0
 18 19  2  0
 19 14  1  0
 14  1  1  0
  1  2  2  0
  2  3  1  0
  3  7  1  0
  7  8  1  0
  8  9  1  0
  9 10  1  0
 10 11  1  0
 10 12  1  0
 12 13  1  0
  3  4  2  0
  4  5  1  0
  5 23  1  0
 23 24  1  0
 24 25  2  0
 25 26  1  0
 26 27  2  0
 27 30  1  0
 30 31  1  0
 31 32  2  0
 31 34  1  0
 34 35  1  0
 35 36  1  0
 27 28  1  0
 28 29  2  0
  5  6  2  0
 19 20  1  0
 20 21  1  0
 21 17  2  0
  6  1  1  0
 13  7  1  0
 29 24  1  0
 36 34  1  0
 14 15  1  0
 30 33  1  0
 20 22  1  0
M  END
> <minimizedAffinity>
-7.58409

> <CNNscore>
0.4290519953

> <CNNaffinity>
6.6105513573

> <CNN_VS>
2.8362703323

> <CNNaffinity_variance>
0.0089368969

$$$$



 36 40  0  0  0  0  0  0  0  0999 V2000
   25.7158   27.0720   19.6634 C   0  0  0  0  0  0  0  0  0  0  0  0
   24.7698   27.6361   20.5021 C   0  0  0  0  0  0  0  0  0  0  0  0
   24.0366   28.7139   20.0359 C   0  0  0  0  0  0  0  0  0  0  0  0
   24.2205   29.1739   18.7909 N   0  0  0  0  0  0  0  0  0  0  0  0
   25.1439   28.5658   18.0338 C   0  0  0  0  0  0  0  0  0  0  0  0
   25.8988   27.5273   18.4145 N   0  0  0  0  0  0  0  0  0  0  0  0
   23.0509   29.2981   20.8582 N   0  0  0  0  0  0  0  0  0  0  0  0
   23.0438   28.7610   22.2369 C   0  0  0  0  0  0  0  0  0  0  0  0
   21.9044   29.4017   23.0694 C   0  0  0  0  0  0  0  0  0  0  0  0
   21.8656   30.8794   23.0739 N   0  0  0  0  0  0  0  0  0  0  0  0
   22.9462   31.4459   23.8774 C   0  0  0  0  0  0  0  0  0  0  0  0
   21.9174   31.3618   21.6759 C   0  0  0  0  0  0  0  0  0  0  0  0
   23.0662   30.7796   20.8177 C   0  0  0  0  0  0  0  0  0  0  0  0
   26.4282   25.9362   20.1219 N   0  0  0  0  0  0  0  0  0  0  0  0
   26.4575   25.7880   21.0948 H   0  0  0  0  0  0  0  0  0  0  0  0
   27.9414   22.0090   17.4550 C   0  0  0  0  0  0  0  0  0  0  0  0
   27.7939   23.3175   18.1348 C   0  0  0  0  0  0  0  0  0  0  0  0
   26.7280   23.7605   18.9549 C   0  0  0  0  0  0  0  0  0  0  0  0
   27.0735   25.0346   19.3401 C   0  0  0  0  0  0  0  0  0  0  0  0
   28.2848   25.2781   18.7452 N   0  0  0  0  0  0  0  0  0  0  0  0
   28.7464   24.2496   18.0109 N   0  0  0  0  0  0  0  0  0  0  0  0
   28.7720   26.1276   18.8463 H   0  0  0  0  0  0  0  0  0  0  0  0
   25.3662   29.1789   16.3831 S   0  0  0  0  0  0  0  0  0  0  0  0
   26.6653   28.1060   15.8051 C   0  0  0  0  0  0  0  0  0  0  0  0
   26.5824   27.4576   14.5695 C   0  0  0  0  0  0  0  0  0  0  0  0
   27.6301   26.6432   14.1262 C   0  0  0  0  0  0  0  0  0  0  0  0
   28.7843   26.4762   14.9016 C   0  0  0  0  0  0  0  0  0  0  0  0
   28.8680   27.1286   16.1325 C   0  0  0  0  0  0  0  0  0  0  0  0
   27.8163   27.9390   16.5800 C   0  0  0  0  0  0  0  0  0  0  0  0
   29.8015   25.6590   14.3727 N   0  0  0  0  0  0  0  0  0  0  0  0
   29.8455   24.2830   14.3448 C   0  0  0  0  0  0  0  0  0  0  0  0
   29.0083   23.4894   14.7453 O   0  0  0  0  0  0  0  0  0  0  0  0
   30.5719   26.1264   13.9761 H   0  0  0  0  0  0  0  0  0  0  0  0
   31.0958   23.7652   13.7186 C   0  0  0  0  0  0  0  0  0  0  0  0
   31.7672   22.5416   14.2982 C   0  0  0  0  0  0  0  0  0  0  0  0
   32.4275   23.8823   14.4280 C   0  0  0  0  0  0  0  0  0  0  0  0
 16 17  1  0
 17 18  1  0
 18 19  2  0
 19 14  1  0
 14  1  1  0
  1  2  2  0
  2  3  1  0
  3  7  1  0
  7  8  1  0
  8  9  1  0
  9 10  1  0
 10 11  1  0
 10 12  1  0
 12 13  1  0
  3  4  2  0
  4  5  1  0
  5 23  1  0
 23 24  1  0
 24 25  2  0
 25 26  1  0
 26 27  2  0
 27 30  1  0
 30 31  1  0
 31 32  2  0
 31 34  1  0
 34 35  1  0
 35 36  1  0
 27 28  1  0
 28 29  2  0
  5  6  2  0
 19 20  1  0
 20 21  1  0
 21 17  2  0
  6  1  1  0
 13  7  1  0
 29 24  1  0
 36 34  1  0
 14 15  1  0
 30 33  1  0
 20 22  1  0
M  END
> <minimizedAffinity>
-7.85807

> <CNNscore>
0.4043740928

> <CNNaffinity>
7.3940696716

> <CNN_VS>
2.9899702072

> <CNNaffinity_variance>
0.1232027188

$$$$



 36 40  0  0  0  0  0  0  0  0999 V2000
   25.1960   28.6800   20.1273 C   0  0  0  0  0  0  0  0  0  0  0  0
   24.0301   29.3442   20.4685 C   0  0  0  0  0  0  0  0  0  0  0  0
   23.1911   29.7651   19.4510 C   0  0  0  0  0  0  0  0  0  0  0  0
   23.4900   29.5041   18.1712 N   0  0  0  0  0  0  0  0  0  0  0  0
   24.6287   28.8433   17.9214 C   0  0  0  0  0  0  0  0  0  0  0  0
   25.4956   28.4129   18.8469 N   0  0  0  0  0  0  0  0  0  0  0  0
   21.9858   30.4263   19.7661 N   0  0  0  0  0  0  0  0  0  0  0  0
   21.2480   29.7989   20.8847 C   0  0  0  0  0  0  0  0  0  0  0  0
   19.9101   30.5374   21.1422 C   0  0  0  0  0  0  0  0  0  0  0  0
   20.0096   32.0010   21.3249 N   0  0  0  0  0  0  0  0  0  0  0  0
   20.5974   32.3454   22.6172 C   0  0  0  0  0  0  0  0  0  0  0  0
   20.7905   32.5693   20.2038 C   0  0  0  0  0  0  0  0  0  0  0  0
   22.1547   31.8888   19.9364 C   0  0  0  0  0  0  0  0  0  0  0  0
   26.0275   28.2031   21.1708 N   0  0  0  0  0  0  0  0  0  0  0  0
   26.9612   28.5152   21.1780 H   0  0  0  0  0  0  0  0  0  0  0  0
   24.8340   24.3293   24.0680 C   0  0  0  0  0  0  0  0  0  0  0  0
   25.1136   25.6675   23.4959 C   0  0  0  0  0  0  0  0  0  0  0  0
   25.5473   25.9840   22.1857 C   0  0  0  0  0  0  0  0  0  0  0  0
   25.6520   27.3549   22.1607 C   0  0  0  0  0  0  0  0  0  0  0  0
   25.2919   27.7697   23.4172 N   0  0  0  0  0  0  0  0  0  0  0  0
   24.9563   26.7646   24.2462 N   0  0  0  0  0  0  0  0  0  0  0  0
   25.2799   28.7162   23.6878 H   0  0  0  0  0  0  0  0  0  0  0  0
   25.0037   28.4942   16.2221 S   0  0  0  0  0  0  0  0  0  0  0  0
   26.5637   27.6519   16.3951 C   0  0  0  0  0  0  0  0  0  0  0  0
   26.8240   26.8109   17.4810 C   0  0  0  0  0  0  0  0  0  0  0  0
   28.0469   26.1382   17.5777 C   0  0  0  0  0  0  0  0  0  0  0  0
   29.0230   26.2812   16.5837 C   0  0  0  0  0  0  0  0  0  0  0  0
   28.7596   27.1167   15.4974 C   0  0  0  0  0  0  0  0  0  0  0  0
   27.5377   27.7959   15.4033 C   0  0  0  0  0  0  0  0  0  0  0  0
   30.2163   25.5515   16.7449 N   0  0  0  0  0  0  0  0  0  0  0  0
   30.4112   24.2032   16.5439 C   0  0  0  0  0  0  0  0  0  0  0  0
   29.6049   23.3693   16.1623 O   0  0  0  0  0  0  0  0  0  0  0  0
   31.0040   26.0657   17.0354 H   0  0  0  0  0  0  0  0  0  0  0  0
   31.8113   23.7801   16.8337 C   0  0  0  0  0  0  0  0  0  0  0  0
   32.0623   22.6606   17.8173 C   0  0  0  0  0  0  0  0  0  0  0  0
   32.4480   24.0650   18.1767 C   0  0  0  0  0  0  0  0  0  0  0  0
 16 17  1  0
 17 18  1  0
 18 19  2  0
 19 14  1  0
 14  1  1  0
  1  2  2  0
  2  3  1  0
  3  7  1  0
  7  8  1  0
  8  9  1  0
  9 10  1  0
 10 11  1  0
 10 12  1  0
 12 13  1  0
  3  4  2  0
  4  5  1  0
  5 23  1  0
 23 24  1  0
 24 25  2  0
 25 26  1  0
 26 27  2  0
 27 30  1  0
 30 31  1  0
 31 32  2  0
 31 34  1  0
 34 35  1  0
 35 36  1  0
 27 28  1  0
 28 29  2  0
  5  6  2  0
 19 20  1  0
 20 21  1  0
 21 17  2  0
  6  1  1  0
 13  7  1  0
 29 24  1  0
 36 34  1  0
 14 15  1  0
 30 33  1  0
 20 22  1  0
M  END
> <minimizedAffinity>
-9.03418

> <CNNscore>
0.1072623953

> <CNNaffinity>
6.6655726433

> <CNN_VS>
0.7149652839

> <CNNaffinity_variance>
0.1455919743

$$$$



 36 40  0  0  0  0  0  0  0  0999 V2000
   23.4308   29.3800   18.7335 C   0  0  0  0  0  0  0  0  0  0  0  0
   22.4543   30.3243   19.0005 C   0  0  0  0  0  0  0  0  0  0  0  0
   21.8645   30.3246   20.2530 C   0  0  0  0  0  0  0  0  0  0  0  0
   22.2571   29.4507   21.1897 N   0  0  0  0  0  0  0  0  0  0  0  0
   23.2186   28.5773   20.8608 C   0  0  0  0  0  0  0  0  0  0  0  0
   23.8294   28.5067   19.6711 N   0  0  0  0  0  0  0  0  0  0  0  0
   20.8811   31.2868   20.5632 N   0  0  0  0  0  0  0  0  0  0  0  0
   19.8583   30.7947   21.5125 C   0  0  0  0  0  0  0  0  0  0  0  0
   18.7793   31.8777   21.7666 C   0  0  0  0  0  0  0  0  0  0  0  0
   19.2860   33.2060   22.1717 N   0  0  0  0  0  0  0  0  0  0  0  0
   19.7859   33.1979   23.5444 C   0  0  0  0  0  0  0  0  0  0  0  0
   20.3323   33.6292   21.2147 C   0  0  0  0  0  0  0  0  0  0  0  0
   21.4546   32.5940   20.9616 C   0  0  0  0  0  0  0  0  0  0  0  0
   24.0710   29.4142   17.4699 N   0  0  0  0  0  0  0  0  0  0  0  0
   23.6478   29.9591   16.7676 H   0  0  0  0  0  0  0  0  0  0  0  0
   27.9660   27.2354   15.2549 C   0  0  0  0  0  0  0  0  0  0  0  0
   26.9726   27.7831   16.2084 C   0  0  0  0  0  0  0  0  0  0  0  0
   25.7737   28.4782   15.9176 C   0  0  0  0  0  0  0  0  0  0  0  0
   25.2150   28.7631   17.1413 C   0  0  0  0  0  0  0  0  0  0  0  0
   26.0836   28.2444   18.0670 N   0  0  0  0  0  0  0  0  0  0  0  0
   27.1573   27.6403   17.5263 N   0  0  0  0  0  0  0  0  0  0  0  0
   25.9352   28.3083   19.0381 H   0  0  0  0  0  0  0  0  0  0  0  0
   23.7361   27.4350   22.1167 S   0  0  0  0  0  0  0  0  0  0  0  0
   22.9947   28.1723   23.5588 C   0  0  0  0  0  0  0  0  0  0  0  0
   21.6700   27.9060   23.9169 C   0  0  0  0  0  0  0  0  0  0  0  0
   21.1210   28.4752   25.0710 C   0  0  0  0  0  0  0  0  0  0  0  0
   21.8903   29.3063   25.8949 C   0  0  0  0  0  0  0  0  0  0  0  0
   23.2144   29.5668   25.5390 C   0  0  0  0  0  0  0  0  0  0  0  0
   23.7628   29.0024   24.3798 C   0  0  0  0  0  0  0  0  0  0  0  0
   21.2696   29.8197   27.0496 N   0  0  0  0  0  0  0  0  0  0  0  0
   20.9561   29.1430   28.2072 C   0  0  0  0  0  0  0  0  0  0  0  0
   21.1719   27.9733   28.4837 O   0  0  0  0  0  0  0  0  0  0  0  0
   21.0316   30.7747   27.0267 H   0  0  0  0  0  0  0  0  0  0  0  0
   20.2835   30.0147   29.2127 C   0  0  0  0  0  0  0  0  0  0  0  0
   19.6892   29.3951   30.4564 C   0  0  0  0  0  0  0  0  0  0  0  0
   18.7833   29.9654   29.4056 C   0  0  0  0  0  0  0  0  0  0  0  0
 16 17  1  0
 17 18  1  0
 18 19  2  0
 19 14  1  0
 14  1  1  0
  1  2  2  0
  2  3  1  0
  3  7  1  0
  7  8  1  0
  8  9  1  0
  9 10  1  0
 10 11  1  0
 10 12  1  0
 12 13  1  0
  3  4  2  0
  4  5  1  0
  5 23  1  0
 23 24  1  0
 24 25  2  0
 25 26  1  0
 26 27  2  0
 27 30  1  0
 30 31  1  0
 31 32  2  0
 31 34  1  0
 34 35  1  0
 35 36  1  0
 27 28  1  0
 28 29  2  0
  5  6  2  0
 19 20  1  0
 20 21  1  0
 21 17  2  0
  6  1  1  0
 13  7  1  0
 29 24  1  0
 36 34  1  0
 14 15  1  0
 30 33  1  0
 20 22  1  0
M  END
> <minimizedAffinity>
-6.58515

> <CNNscore>
0.0967880785

> <CNNaffinity>
5.6489353180

> <CNN_VS>
0.5467495918

> <CNNaffinity_variance>
0.1652536243

$$$$



 36 40  0  0  0  0  0  0  0  0999 V2000
   26.0322   26.7461   20.7032 C   0  0  0  0  0  0  0  0  0  0  0  0
   26.9794   25.8885   20.1703 C   0  0  0  0  0  0  0  0  0  0  0  0
   27.1959   25.9150   18.8033 C   0  0  0  0  0  0  0  0  0  0  0  0
   26.5249   26.7750   18.0251 N   0  0  0  0  0  0  0  0  0  0  0  0
   25.6352   27.5841   18.6164 C   0  0  0  0  0  0  0  0  0  0  0  0
   25.3622   27.6118   19.9271 N   0  0  0  0  0  0  0  0  0  0  0  0
   28.1685   25.0684   18.2320 N   0  0  0  0  0  0  0  0  0  0  0  0
   27.5903   23.9016   17.5294 C   0  0  0  0  0  0  0  0  0  0  0  0
   28.7100   22.9846   16.9754 C   0  0  0  0  0  0  0  0  0  0  0  0
   29.7341   23.6523   16.1443 N   0  0  0  0  0  0  0  0  0  0  0  0
   29.2087   24.0210   14.8319 C   0  0  0  0  0  0  0  0  0  0  0  0
   30.2463   24.8323   16.8758 C   0  0  0  0  0  0  0  0  0  0  0  0
   29.1632   25.7993   17.4118 C   0  0  0  0  0  0  0  0  0  0  0  0
   25.8492   26.7556   22.1082 N   0  0  0  0  0  0  0  0  0  0  0  0
   26.3771   27.4066   22.6246 H   0  0  0  0  0  0  0  0  0  0  0  0
   23.6809   23.4249   25.1132 C   0  0  0  0  0  0  0  0  0  0  0  0
   23.9933   24.4846   24.1255 C   0  0  0  0  0  0  0  0  0  0  0  0
   25.2645   24.9873   23.7564 C   0  0  0  0  0  0  0  0  0  0  0  0
   25.0114   25.9478   22.8054 C   0  0  0  0  0  0  0  0  0  0  0  0
   23.6474   25.9700   22.6655 N   0  0  0  0  0  0  0  0  0  0  0  0
   23.0057   25.0879   23.4531 N   0  0  0  0  0  0  0  0  0  0  0  0
   23.1806   26.5758   22.0456 H   0  0  0  0  0  0  0  0  0  0  0  0
   24.7642   28.7260   17.5736 S   0  0  0  0  0  0  0  0  0  0  0  0
   23.8157   29.6221   18.7862 C   0  0  0  0  0  0  0  0  0  0  0  0
   24.3291   29.9003   20.0562 C   0  0  0  0  0  0  0  0  0  0  0  0
   23.5744   30.6315   20.9799 C   0  0  0  0  0  0  0  0  0  0  0  0
   22.3019   31.1108   20.6450 C   0  0  0  0  0  0  0  0  0  0  0  0
   21.7929   30.8371   19.3747 C   0  0  0  0  0  0  0  0  0  0  0  0
   22.5454   30.0992   18.4515 C   0  0  0  0  0  0  0  0  0  0  0  0
   21.6182   31.8578   21.6232 N   0  0  0  0  0  0  0  0  0  0  0  0
   22.1036   32.9067   22.3718 C   0  0  0  0  0  0  0  0  0  0  0  0
   23.2098   33.4219   22.3271 O   0  0  0  0  0  0  0  0  0  0  0  0
   20.6832   31.5998   21.7919 H   0  0  0  0  0  0  0  0  0  0  0  0
   21.0913   33.4420   23.3268 C   0  0  0  0  0  0  0  0  0  0  0  0
   19.6606   33.6187   22.8735 C   0  0  0  0  0  0  0  0  0  0  0  0
   20.5074   34.8265   23.1465 C   0  0  0  0  0  0  0  0  0  0  0  0
 16 17  1  0
 17 18  1  0
 18 19  2  0
 19 14  1  0
 14  1  1  0
  1  2  2  0
  2  3  1  0
  3  7  1  0
  7  8  1  0
  8  9  1  0
  9 10  1  0
 10 11  1  0
 10 12  1  0
 12 13  1  0
  3  4  2  0
  4  5  1  0
  5 23  1  0
 23 24  1  0
 24 25  2  0
 25 26  1  0
 26 27  2  0
 27 30  1  0
 30 31  1  0
 31 32  2  0
 31 34  1  0
 34 35  1  0
 35 36  1  0
 27 28  1  0
 28 29  2  0
  5  6  2  0
 19 20  1  0
 20 21  1  0
 21 17  2  0
  6  1  1  0
 13  7  1  0
 29 24  1  0
 36 34  1  0
 14 15  1  0
 30 33  1  0
 20 22  1  0
M  END
> <minimizedAffinity>
-8.14569

> <CNNscore>
0.0775630400

> <CNNaffinity>
5.8315644264

> <CNN_VS>
0.4523138702

> <CNNaffinity_variance>
0.7061064243

$$$$



 36 40  0  0  0  0  0  0  0  0999 V2000
   26.8788   27.6970   20.1004 C   0  0  0  0  0  0  0  0  0  0  0  0
   26.5573   27.2466   21.3694 C   0  0  0  0  0  0  0  0  0  0  0  0
   25.2745   27.4679   21.8406 C   0  0  0  0  0  0  0  0  0  0  0  0
   24.3622   28.0749   21.0696 N   0  0  0  0  0  0  0  0  0  0  0  0
   24.7445   28.4686   19.8472 C   0  0  0  0  0  0  0  0  0  0  0  0
   25.9658   28.3007   19.3241 N   0  0  0  0  0  0  0  0  0  0  0  0
   24.9094   27.0034   23.1212 N   0  0  0  0  0  0  0  0  0  0  0  0
   23.8726   25.9483   23.0886 C   0  0  0  0  0  0  0  0  0  0  0  0
   23.4769   25.5233   24.5254 C   0  0  0  0  0  0  0  0  0  0  0  0
   24.5957   25.1424   25.4133 N   0  0  0  0  0  0  0  0  0  0  0  0
   25.1596   23.8456   25.0462 C   0  0  0  0  0  0  0  0  0  0  0  0
   25.6193   26.2105   25.3751 C   0  0  0  0  0  0  0  0  0  0  0  0
   26.0758   26.6385   23.9596 C   0  0  0  0  0  0  0  0  0  0  0  0
   28.1753   27.4232   19.5987 N   0  0  0  0  0  0  0  0  0  0  0  0
   28.9282   27.5201   20.2256 H   0  0  0  0  0  0  0  0  0  0  0  0
   28.5776   26.7942   14.6725 C   0  0  0  0  0  0  0  0  0  0  0  0
   28.6929   26.7189   16.1480 C   0  0  0  0  0  0  0  0  0  0  0  0
   28.0257   27.5061   17.1176 C   0  0  0  0  0  0  0  0  0  0  0  0
   28.4720   27.0395   18.3317 C   0  0  0  0  0  0  0  0  0  0  0  0
   29.3562   26.0351   18.0321 N   0  0  0  0  0  0  0  0  0  0  0  0
   29.5053   25.8176   16.7129 N   0  0  0  0  0  0  0  0  0  0  0  0
   29.8377   25.5203   18.7195 H   0  0  0  0  0  0  0  0  0  0  0  0
   23.5207   29.2595   18.8338 S   0  0  0  0  0  0  0  0  0  0  0  0
   22.7486   30.3334   20.0269 C   0  0  0  0  0  0  0  0  0  0  0  0
   21.4335   30.1268   20.4532 C   0  0  0  0  0  0  0  0  0  0  0  0
   20.8606   30.9678   21.4134 C   0  0  0  0  0  0  0  0  0  0  0  0
   21.5967   32.0183   21.9755 C   0  0  0  0  0  0  0  0  0  0  0  0
   22.9114   32.2198   21.5530 C   0  0  0  0  0  0  0  0  0  0  0  0
   23.4835   31.3821   20.5866 C   0  0  0  0  0  0  0  0  0  0  0  0
   20.9542   32.8031   22.9519 N   0  0  0  0  0  0  0  0  0  0  0  0
   20.5991   34.1307   22.8638 C   0  0  0  0  0  0  0  0  0  0  0  0
   20.7415   34.8925   21.9201 O   0  0  0  0  0  0  0  0  0  0  0  0
   20.7327   32.3495   23.7972 H   0  0  0  0  0  0  0  0  0  0  0  0
   19.9496   34.6310   24.1093 C   0  0  0  0  0  0  0  0  0  0  0  0
   19.7669   36.1180   24.3079 C   0  0  0  0  0  0  0  0  0  0  0  0
   20.7489   35.3702   25.1605 C   0  0  0  0  0  0  0  0  0  0  0  0
 16 17  1  0
 17 18  1  0
 18 19  2  0
 19 14  1  0
 14  1  1  0
  1  2  2  0
  2  3  1  0
  3  7  1  0
  7  8  1  0
  8  9  1  0
  9 10  1  0
 10 11  1  0
 10 12  1  0
 12 13  1  0
  3  4  2  0
  4  5  1  0
  5 23  1  0
 23 24  1  0
 24 25  2  0
 25 26  1  0
 26 27  2  0
 27 30  1  0
 30 31  1  0
 31 32  2  0
 31 34  1  0
 34 35  1  0
 35 36  1  0
 27 28  1  0
 28 29  2  0
  5  6  2  0
 19 20  1  0
 20 21  1  0
 21 17  2  0
  6  1  1  0
 13  7  1  0
 29 24  1  0
 36 34  1  0
 14 15  1  0
 30 33  1  0
 20 22  1  0
M  END
> <minimizedAffinity>
-7.26791

> <CNNscore>
0.0755558759

> <CNNaffinity>
5.3016457558

> <CNN_VS>
0.4005704820

> <CNNaffinity_variance>
0.8854249120

$$$$
