


 17 19  0  0  0  0  0  0  0  0999 V2000
   21.3032   33.4290   42.9619 O   0  0  0  0  0  0  0  0  0  0  0  0
   22.2467   34.1837   42.7935 C   0  0  0  0  0  0  0  0  0  0  0  0
   23.5145   34.0103   43.3353 N   0  0  0  0  0  0  0  0  0  0  0  0
   24.3642   35.0455   42.9834 C   0  0  0  0  0  0  0  0  0  0  0  0
   25.6854   35.1989   43.3448 C   0  0  0  0  0  0  0  0  0  0  0  0
   26.3435   36.3308   42.8631 C   0  0  0  0  0  0  0  0  0  0  0  0
   28.1594   36.6119   43.3151 Br  0  0  0  0  0  0  0  0  0  0  0  0
   25.6843   37.2675   42.0469 C   0  0  0  0  0  0  0  0  0  0  0  0
   24.3421   37.0856   41.6966 C   0  0  0  0  0  0  0  0  0  0  0  0
   23.6887   35.9627   42.1776 C   0  0  0  0  0  0  0  0  0  0  0  0
   22.2669   35.4942   41.9734 C   0  0  0  0  0  0  0  0  0  0  0  0
   21.2118   36.4792   42.4792 C   0  0  0  0  0  0  0  0  0  0  0  0
   20.1405   36.4455   41.4013 C   0  0  0  0  0  0  0  0  0  0  0  0
   20.8902   36.2423   40.1563 N   0  0  0  0  0  0  0  0  0  0  0  0
   21.8976   35.2226   40.5121 C   0  0  0  0  0  0  0  0  0  0  0  0
   23.7760   33.2466   43.8989 H   0  0  0  0  0  0  0  0  0  0  0  0
   21.3395   37.1079   39.8576 H   0  0  0  0  0  0  0  0  0  0  0  0
  1  2  2  0
  2  3  1  0
  3  4  1  0
  4  5  2  0
  5  6  1  0
  6  7  1  0
  6  8  2  0
  8  9  1  0
  9 10  2  0
 10 11  1  0
 11 12  1  0
 12 13  1  0
 13 14  1  0
 14 15  1  0
 11  2  1  0
 10  4  1  0
 15 11  1  0
  3 16  1  0
 14 17  1  0
M  END
> <minimizedAffinity>
-6.57381

> <CNNscore>
0.9322661161

> <CNNaffinity>
5.0867004395

> <CNN_VS>
4.7421584129

> <CNNaffinity_variance>
0.0939224884

$$$$



 17 19  0  0  0  0  0  0  0  0999 V2000
   20.8435   33.4929   42.4555 O   0  0  0  0  0  0  0  0  0  0  0  0
   21.7136   34.3009   42.1759 C   0  0  0  0  0  0  0  0  0  0  0  0
   23.0685   34.0108   42.0706 N   0  0  0  0  0  0  0  0  0  0  0  0
   23.8083   35.1404   41.7634 C   0  0  0  0  0  0  0  0  0  0  0  0
   25.1731   35.2208   41.5886 C   0  0  0  0  0  0  0  0  0  0  0  0
   25.6962   36.4766   41.2792 C   0  0  0  0  0  0  0  0  0  0  0  0
   27.5613   36.6684   41.0236 Br  0  0  0  0  0  0  0  0  0  0  0  0
   24.8644   37.6037   41.1522 C   0  0  0  0  0  0  0  0  0  0  0  0
   23.4820   37.4917   41.3357 C   0  0  0  0  0  0  0  0  0  0  0  0
   22.9639   36.2449   41.6456 C   0  0  0  0  0  0  0  0  0  0  0  0
   21.5380   35.8106   41.8929 C   0  0  0  0  0  0  0  0  0  0  0  0
   20.8704   36.5201   43.0719 C   0  0  0  0  0  0  0  0  0  0  0  0
   19.4634   36.8047   42.5720 C   0  0  0  0  0  0  0  0  0  0  0  0
   19.6376   37.0662   41.1387 N   0  0  0  0  0  0  0  0  0  0  0  0
   20.5978   36.0315   40.7043 C   0  0  0  0  0  0  0  0  0  0  0  0
   23.4543   33.1142   42.1985 H   0  0  0  0  0  0  0  0  0  0  0  0
   20.0158   38.0007   40.9834 H   0  0  0  0  0  0  0  0  0  0  0  0
  1  2  2  0
  2  3  1  0
  3  4  1  0
  4  5  2  0
  5  6  1  0
  6  7  1  0
  6  8  2  0
  8  9  1  0
  9 10  2  0
 10 11  1  0
 11 12  1  0
 12 13  1  0
 13 14  1  0
 14 15  1  0
 11  2  1  0
 10  4  1  0
 15 11  1  0
  3 16  1  0
 14 17  1  0
M  END
> <minimizedAffinity>
-6.72947

> <CNNscore>
0.8702347279

> <CNNaffinity>
4.8524327278

> <CNN_VS>
4.2227554321

> <CNNaffinity_variance>
0.2397202998

$$$$



 17 19  0  0  0  0  0  0  0  0999 V2000
   21.9190   37.9980   40.2007 O   0  0  0  0  0  0  0  0  0  0  0  0
   21.3118   37.1908   40.8847 C   0  0  0  0  0  0  0  0  0  0  0  0
   19.9392   37.2001   41.1011 N   0  0  0  0  0  0  0  0  0  0  0  0
   19.5495   36.1705   41.9410 C   0  0  0  0  0  0  0  0  0  0  0  0
   18.2716   35.8831   42.3701 C   0  0  0  0  0  0  0  0  0  0  0  0
   18.1231   34.7852   43.2179 C   0  0  0  0  0  0  0  0  0  0  0  0
   16.3994   34.3261   43.8496 Br  0  0  0  0  0  0  0  0  0  0  0  0
   19.2295   34.0113   43.6122 C   0  0  0  0  0  0  0  0  0  0  0  0
   20.5155   34.3273   43.1609 C   0  0  0  0  0  0  0  0  0  0  0  0
   20.6622   35.4193   42.3212 C   0  0  0  0  0  0  0  0  0  0  0  0
   21.8989   35.9985   41.6746 C   0  0  0  0  0  0  0  0  0  0  0  0
   22.9589   36.4652   42.6734 C   0  0  0  0  0  0  0  0  0  0  0  0
   24.2681   36.0101   42.0493 C   0  0  0  0  0  0  0  0  0  0  0  0
   23.9269   34.7512   41.3771 N   0  0  0  0  0  0  0  0  0  0  0  0
   22.6276   35.0340   40.7342 C   0  0  0  0  0  0  0  0  0  0  0  0
   19.3209   37.8568   40.7065 H   0  0  0  0  0  0  0  0  0  0  0  0
   23.8403   33.9911   42.0519 H   0  0  0  0  0  0  0  0  0  0  0  0
  1  2  2  0
  2  3  1  0
  3  4  1  0
  4  5  2  0
  5  6  1  0
  6  7  1  0
  6  8  2  0
  8  9  1  0
  9 10  2  0
 10 11  1  0
 11 12  1  0
 12 13  1  0
 13 14  1  0
 14 15  1  0
 11  2  1  0
 10  4  1  0
 15 11  1  0
  3 16  1  0
 14 17  1  0
M  END
> <minimizedAffinity>
-6.79074

> <CNNscore>
0.7498182654

> <CNNaffinity>
4.6071381569

> <CNN_VS>
3.4545164108

> <CNNaffinity_variance>
0.2304110527

$$$$



 17 19  0  0  0  0  0  0  0  0999 V2000
   19.4721   35.5679   40.9466 O   0  0  0  0  0  0  0  0  0  0  0  0
   20.6269   35.7624   41.2886 C   0  0  0  0  0  0  0  0  0  0  0  0
   21.6211   36.2949   40.4769 N   0  0  0  0  0  0  0  0  0  0  0  0
   22.8335   36.3719   41.1415 C   0  0  0  0  0  0  0  0  0  0  0  0
   24.0289   36.8434   40.6429 C   0  0  0  0  0  0  0  0  0  0  0  0
   25.1237   36.8252   41.5074 C   0  0  0  0  0  0  0  0  0  0  0  0
   26.7997   37.4567   40.8968 Br  0  0  0  0  0  0  0  0  0  0  0  0
   25.0064   36.3476   42.8252 C   0  0  0  0  0  0  0  0  0  0  0  0
   23.7798   35.8747   43.3038 C   0  0  0  0  0  0  0  0  0  0  0  0
   22.6940   35.8906   42.4437 C   0  0  0  0  0  0  0  0  0  0  0  0
   21.2629   35.4592   42.6647 C   0  0  0  0  0  0  0  0  0  0  0  0
   21.1112   33.9818   43.0305 C   0  0  0  0  0  0  0  0  0  0  0  0
   20.0485   33.9865   44.1173 C   0  0  0  0  0  0  0  0  0  0  0  0
   20.2837   35.2394   44.8441 N   0  0  0  0  0  0  0  0  0  0  0  0
   20.5389   36.2261   43.7752 C   0  0  0  0  0  0  0  0  0  0  0  0
   21.4810   36.5816   39.5456 H   0  0  0  0  0  0  0  0  0  0  0  0
   21.0916   35.1552   45.4610 H   0  0  0  0  0  0  0  0  0  0  0  0
  1  2  2  0
  2  3  1  0
  3  4  1  0
  4  5  2  0
  5  6  1  0
  6  7  1  0
  6  8  2  0
  8  9  1  0
  9 10  2  0
 10 11  1  0
 11 12  1  0
 12 13  1  0
 13 14  1  0
 14 15  1  0
 11  2  1  0
 10  4  1  0
 15 11  1  0
  3 16  1  0
 14 17  1  0
M  END
> <minimizedAffinity>
-6.15623

> <CNNscore>
0.6751047373

> <CNNaffinity>
4.4795684814

> <CNN_VS>
3.0241777897

> <CNNaffinity_variance>
0.2416803837

$$$$



 17 19  0  0  0  0  0  0  0  0999 V2000
   19.1675   33.5742   44.8588 O   0  0  0  0  0  0  0  0  0  0  0  0
   18.7765   34.7156   45.0387 C   0  0  0  0  0  0  0  0  0  0  0  0
   18.5393   35.2920   46.2806 N   0  0  0  0  0  0  0  0  0  0  0  0
   18.0795   36.5924   46.1586 C   0  0  0  0  0  0  0  0  0  0  0  0
   17.7421   37.4564   47.1782 C   0  0  0  0  0  0  0  0  0  0  0  0
   17.3027   38.7277   46.8080 C   0  0  0  0  0  0  0  0  0  0  0  0
   16.8213   39.9714   48.1505 Br  0  0  0  0  0  0  0  0  0  0  0  0
   17.2113   39.1043   45.4558 C   0  0  0  0  0  0  0  0  0  0  0  0
   17.5605   38.2056   44.4421 C   0  0  0  0  0  0  0  0  0  0  0  0
   17.9940   36.9426   44.8107 C   0  0  0  0  0  0  0  0  0  0  0  0
   18.4391   35.7737   43.9631 C   0  0  0  0  0  0  0  0  0  0  0  0
   17.3654   35.2618   43.0016 C   0  0  0  0  0  0  0  0  0  0  0  0
   18.1334   34.9781   41.7209 C   0  0  0  0  0  0  0  0  0  0  0  0
   19.1771   36.0093   41.6922 N   0  0  0  0  0  0  0  0  0  0  0  0
   19.6615   36.0615   43.0865 C   0  0  0  0  0  0  0  0  0  0  0  0
   18.6805   34.8330   47.1401 H   0  0  0  0  0  0  0  0  0  0  0  0
   18.7904   36.9094   41.4082 H   0  0  0  0  0  0  0  0  0  0  0  0
  1  2  2  0
  2  3  1  0
  3  4  1  0
  4  5  2  0
  5  6  1  0
  6  7  1  0
  6  8  2  0
  8  9  1  0
  9 10  2  0
 10 11  1  0
 11 12  1  0
 12 13  1  0
 13 14  1  0
 14 15  1  0
 11  2  1  0
 10  4  1  0
 15 11  1  0
  3 16  1  0
 14 17  1  0
M  END
> <minimizedAffinity>
-5.38718

> <CNNscore>
0.4743038714

> <CNNaffinity>
4.4206423759

> <CNN_VS>
2.0967278481

> <CNNaffinity_variance>
0.2637833655

$$$$



 17 19  0  0  0  0  0  0  0  0999 V2000
   20.1070   34.4192   45.0075 O   0  0  0  0  0  0  0  0  0  0  0  0
   20.6334   35.0639   44.1156 C   0  0  0  0  0  0  0  0  0  0  0  0
   22.0017   35.2591   43.9723 N   0  0  0  0  0  0  0  0  0  0  0  0
   22.2901   36.0550   42.8764 C   0  0  0  0  0  0  0  0  0  0  0  0
   23.5354   36.4533   42.4401 C   0  0  0  0  0  0  0  0  0  0  0  0
   23.5769   37.2584   41.3015 C   0  0  0  0  0  0  0  0  0  0  0  0
   25.2496   37.8461   40.6400 Br  0  0  0  0  0  0  0  0  0  0  0  0
   22.3995   37.6415   40.6341 C   0  0  0  0  0  0  0  0  0  0  0  0
   21.1490   37.2220   41.1004 C   0  0  0  0  0  0  0  0  0  0  0  0
   21.1087   36.4249   42.2327 C   0  0  0  0  0  0  0  0  0  0  0  0
   19.9328   35.8191   42.9628 C   0  0  0  0  0  0  0  0  0  0  0  0
   18.9398   36.8506   43.5005 C   0  0  0  0  0  0  0  0  0  0  0  0
   17.5827   36.2308   43.2096 C   0  0  0  0  0  0  0  0  0  0  0  0
   17.7809   35.5082   41.9480 N   0  0  0  0  0  0  0  0  0  0  0  0
   19.0952   34.8558   42.1165 C   0  0  0  0  0  0  0  0  0  0  0  0
   22.6814   34.8790   44.5747 H   0  0  0  0  0  0  0  0  0  0  0  0
   17.7945   36.1535   41.1582 H   0  0  0  0  0  0  0  0  0  0  0  0
  1  2  2  0
  2  3  1  0
  3  4  1  0
  4  5  2  0
  5  6  1  0
  6  7  1  0
  6  8  2  0
  8  9  1  0
  9 10  2  0
 10 11  1  0
 11 12  1  0
 12 13  1  0
 13 14  1  0
 14 15  1  0
 11  2  1  0
 10  4  1  0
 15 11  1  0
  3 16  1  0
 14 17  1  0
M  END
> <minimizedAffinity>
-7.02119

> <CNNscore>
0.4420695603

> <CNNaffinity>
4.3749952316

> <CNN_VS>
1.9340522289

> <CNNaffinity_variance>
0.5539209843

$$$$



 17 19  0  0  0  0  0  0  0  0999 V2000
   18.8839   36.0140   46.6401 O   0  0  0  0  0  0  0  0  0  0  0  0
   18.3027   36.9021   46.0388 C   0  0  0  0  0  0  0  0  0  0  0  0
   18.4689   37.1947   44.6906 N   0  0  0  0  0  0  0  0  0  0  0  0
   17.6899   38.2723   44.3040 C   0  0  0  0  0  0  0  0  0  0  0  0
   17.6087   38.8341   43.0480 C   0  0  0  0  0  0  0  0  0  0  0  0
   16.7462   39.9203   42.8977 C   0  0  0  0  0  0  0  0  0  0  0  0
   16.5792   40.7460   41.2032 Br  0  0  0  0  0  0  0  0  0  0  0  0
   15.9968   40.4138   43.9809 C   0  0  0  0  0  0  0  0  0  0  0  0
   16.1001   39.8233   45.2449 C   0  0  0  0  0  0  0  0  0  0  0  0
   16.9589   38.7465   45.3937 C   0  0  0  0  0  0  0  0  0  0  0  0
   17.2775   37.9085   46.6100 C   0  0  0  0  0  0  0  0  0  0  0  0
   17.8730   38.7051   47.7719 C   0  0  0  0  0  0  0  0  0  0  0  0
   17.1868   38.1236   48.9973 C   0  0  0  0  0  0  0  0  0  0  0  0
   15.8393   37.7831   48.5265 N   0  0  0  0  0  0  0  0  0  0  0  0
   16.0709   37.1735   47.2013 C   0  0  0  0  0  0  0  0  0  0  0  0
   19.0660   36.6978   44.0857 H   0  0  0  0  0  0  0  0  0  0  0  0
   15.2609   38.6192   48.4455 H   0  0  0  0  0  0  0  0  0  0  0  0
  1  2  2  0
  2  3  1  0
  3  4  1  0
  4  5  2  0
  5  6  1  0
  6  7  1  0
  6  8  2  0
  8  9  1  0
  9 10  2  0
 10 11  1  0
 11 12  1  0
 12 13  1  0
 13 14  1  0
 14 15  1  0
 11  2  1  0
 10  4  1  0
 15 11  1  0
  3 16  1  0
 14 17  1  0
M  END
> <minimizedAffinity>
-5.11316

> <CNNscore>
0.4405330718

> <CNNaffinity>
3.7697427273

> <CNN_VS>
1.6606963873

> <CNNaffinity_variance>
0.4284685850

$$$$



 17 19  0  0  0  0  0  0  0  0999 V2000
   18.7853   36.0748   46.6361 O   0  0  0  0  0  0  0  0  0  0  0  0
   18.4234   36.8840   45.7980 C   0  0  0  0  0  0  0  0  0  0  0  0
   18.0520   38.1964   46.0633 N   0  0  0  0  0  0  0  0  0  0  0  0
   17.6680   38.8596   44.9100 C   0  0  0  0  0  0  0  0  0  0  0  0
   17.2385   40.1649   44.8028 C   0  0  0  0  0  0  0  0  0  0  0  0
   16.9057   40.6164   43.5254 C   0  0  0  0  0  0  0  0  0  0  0  0
   16.3079   42.3971   43.2962 Br  0  0  0  0  0  0  0  0  0  0  0  0
   17.0067   39.7742   42.4034 C   0  0  0  0  0  0  0  0  0  0  0  0
   17.4456   38.4532   42.5428 C   0  0  0  0  0  0  0  0  0  0  0  0
   17.7732   38.0051   43.8121 C   0  0  0  0  0  0  0  0  0  0  0  0
   18.2740   36.6572   44.2760 C   0  0  0  0  0  0  0  0  0  0  0  0
   17.3132   35.5045   43.9804 C   0  0  0  0  0  0  0  0  0  0  0  0
   18.2281   34.3811   43.5204 C   0  0  0  0  0  0  0  0  0  0  0  0
   19.3098   35.0687   42.8060 N   0  0  0  0  0  0  0  0  0  0  0  0
   19.6110   36.2362   43.6589 C   0  0  0  0  0  0  0  0  0  0  0  0
   18.0608   38.6039   46.9595 H   0  0  0  0  0  0  0  0  0  0  0  0
   19.0021   35.3653   41.8798 H   0  0  0  0  0  0  0  0  0  0  0  0
  1  2  2  0
  2  3  1  0
  3  4  1  0
  4  5  2  0
  5  6  1  0
  6  7  1  0
  6  8  2  0
  8  9  1  0
  9 10  2  0
 10 11  1  0
 11 12  1  0
 12 13  1  0
 13 14  1  0
 14 15  1  0
 11  2  1  0
 10  4  1  0
 15 11  1  0
  3 16  1  0
 14 17  1  0
M  END
> <minimizedAffinity>
-6.22990

> <CNNscore>
0.4279434085

> <CNNaffinity>
4.0015826225

> <CNN_VS>
1.7124508619

> <CNNaffinity_variance>
0.3291262686

$$$$



 17 19  0  0  0  0  0  0  0  0999 V2000
   21.8743   32.7920   43.5108 O   0  0  0  0  0  0  0  0  0  0  0  0
   23.0227   32.9879   43.1491 C   0  0  0  0  0  0  0  0  0  0  0  0
   24.0410   32.0428   43.1776 N   0  0  0  0  0  0  0  0  0  0  0  0
   25.2384   32.5712   42.7253 C   0  0  0  0  0  0  0  0  0  0  0  0
   26.4499   31.9219   42.6221 C   0  0  0  0  0  0  0  0  0  0  0  0
   27.5241   32.6655   42.1328 C   0  0  0  0  0  0  0  0  0  0  0  0
   29.2204   31.8445   41.9612 Br  0  0  0  0  0  0  0  0  0  0  0  0
   27.3713   34.0140   41.7631 C   0  0  0  0  0  0  0  0  0  0  0  0
   26.1291   34.6469   41.8792 C   0  0  0  0  0  0  0  0  0  0  0  0
   25.0637   33.9085   42.3678 C   0  0  0  0  0  0  0  0  0  0  0  0
   23.6236   34.3022   42.5996 C   0  0  0  0  0  0  0  0  0  0  0  0
   23.4480   35.4493   43.5958 C   0  0  0  0  0  0  0  0  0  0  0  0
   22.3605   36.3074   42.9701 C   0  0  0  0  0  0  0  0  0  0  0  0
   22.5918   36.1838   41.5263 N   0  0  0  0  0  0  0  0  0  0  0  0
   22.8820   34.7482   41.3360 C   0  0  0  0  0  0  0  0  0  0  0  0
   23.9256   31.1135   43.4815 H   0  0  0  0  0  0  0  0  0  0  0  0
   23.3843   36.7561   41.2352 H   0  0  0  0  0  0  0  0  0  0  0  0
  1  2  2  0
  2  3  1  0
  3  4  1  0
  4  5  2  0
  5  6  1  0
  6  7  1  0
  6  8  2  0
  8  9  1  0
  9 10  2  0
 10 11  1  0
 11 12  1  0
 12 13  1  0
 13 14  1  0
 14 15  1  0
 11  2  1  0
 10  4  1  0
 15 11  1  0
  3 16  1  0
 14 17  1  0
M  END
> <minimizedAffinity>
-5.08035

> <CNNscore>
0.4157288373

> <CNNaffinity>
3.7818918228

> <CNN_VS>
1.5722415447

> <CNNaffinity_variance>
0.5952610373

$$$$
