


 29 31  0  0  0  0  0  0  0  0999 V2000
   28.1608   66.3101    7.3859 C   0  0  0  0  0  0  0  0  0  0  0  0
   28.4527   66.7772    5.9463 C   0  0  0  0  0  0  0  0  0  0  0  0
   29.8609   66.4102    5.4836 C   0  0  0  0  0  0  0  0  0  0  0  0
   30.8377   66.2090    6.6406 C   0  0  0  0  0  0  0  0  0  0  0  0
   32.1528   66.4768    6.1488 O   0  0  0  0  0  0  0  0  0  0  0  0
   30.4775   67.1213    7.8342 C   0  0  0  0  0  0  0  0  0  0  0  0
   31.3735   66.9216    9.0714 C   0  0  0  0  0  0  0  0  0  0  0  0
   32.6631   66.3809    8.7836 O   0  0  0  0  0  0  0  0  0  0  0  0
   30.5702   65.9645    9.9418 C   0  0  0  0  0  0  0  0  0  0  0  0
   30.8594   64.6198    9.5291 O   0  0  0  0  0  0  0  0  0  0  0  0
   29.1215   66.3501    9.6585 C   0  0  0  0  0  0  0  0  0  0  0  0
   29.0821   66.9854    8.3262 N   0  0  0  0  0  0  0  0  0  0  0  0
   32.1958   67.3885    5.8205 H   0  0  0  0  0  0  0  0  0  0  0  0
   32.5630   65.5162    8.3554 H   0  0  0  0  0  0  0  0  0  0  0  0
   30.6722   64.5249    8.5821 H   0  0  0  0  0  0  0  0  0  0  0  0
   26.7018   66.6474    7.7612 C   0  0  0  0  0  0  0  0  0  0  0  0
   25.9115   65.4093    8.1467 C   0  0  0  0  0  0  0  0  0  0  0  0
   25.6550   64.5172    7.3388 O   0  0  0  0  0  0  0  0  0  0  0  0
   24.5186   65.0769   12.2322 C   0  0  0  0  0  0  0  0  0  0  0  0
   24.6916   66.3215   11.6039 C   0  0  0  0  0  0  0  0  0  0  0  0
   25.1395   66.4133   10.2789 C   0  0  0  0  0  0  0  0  0  0  0  0
   25.4344   65.2599    9.5457 C   0  0  0  0  0  0  0  0  0  0  0  0
   25.2533   64.0215   10.1502 C   0  0  0  0  0  0  0  0  0  0  0  0
   25.4763   62.8809    9.4823 F   0  0  0  0  0  0  0  0  0  0  0  0
   24.8062   63.9278   11.4701 C   0  0  0  0  0  0  0  0  0  0  0  0
   23.2063   66.1473   14.1844 C   0  0  0  0  0  0  0  0  0  0  0  0
   24.0291   64.9383   13.6850 C   0  0  0  0  0  0  0  0  0  0  0  0
   23.1308   63.6893   13.8108 C   0  0  0  0  0  0  0  0  0  0  0  0
   25.2409   64.7900   14.6305 C   0  0  0  0  0  0  0  0  0  0  0  0
 26 27  1  0
 27 28  1  0
 27 29  1  0
 27 19  1  0
 19 20  2  0
 20 21  1  0
 21 22  2  0
 22 17  1  0
 17 18  2  0
 17 16  1  0
  1 16  1  0
  1  2  1  0
  2  3  1  0
  3  4  1  0
  4  5  1  0
  4  6  1  0
  6  7  1  0
  7  8  1  0
  7  9  1  0
  9 10  1  0
  9 11  1  0
 11 12  1  0
 22 23  1  0
 23 24  1  0
 23 25  2  0
 25 19  1  0
 12  1  1  0
  6 12  1  0
  5 13  1  0
  8 14  1  0
 10 15  1  0
M  END
> <minimizedAffinity>
-8.11914

> <CNNscore>
0.6814435720

> <CNNaffinity>
6.3776297569

> <CNN_VS>
4.3459949493

> <CNNaffinity_variance>
0.0890487656

$$$$



 29 31  0  0  0  0  0  0  0  0999 V2000
   27.6669   66.1646    7.5336 C   0  0  0  0  0  0  0  0  0  0  0  0
   28.0385   66.8355    6.1965 C   0  0  0  0  0  0  0  0  0  0  0  0
   29.4733   66.5366    5.7679 C   0  0  0  0  0  0  0  0  0  0  0  0
   30.3829   66.1671    6.9381 C   0  0  0  0  0  0  0  0  0  0  0  0
   31.7225   66.5007    6.5676 O   0  0  0  0  0  0  0  0  0  0  0  0
   29.9487   66.8967    8.2287 C   0  0  0  0  0  0  0  0  0  0  0  0
   30.7730   66.5172    9.4736 C   0  0  0  0  0  0  0  0  0  0  0  0
   32.0804   66.0212    9.1856 O   0  0  0  0  0  0  0  0  0  0  0  0
   29.9268   65.4454   10.1475 C   0  0  0  0  0  0  0  0  0  0  0  0
   30.2478   64.1745    9.5612 O   0  0  0  0  0  0  0  0  0  0  0  0
   28.4945   65.8713    9.8397 C   0  0  0  0  0  0  0  0  0  0  0  0
   28.5281   66.6938    8.6139 N   0  0  0  0  0  0  0  0  0  0  0  0
   31.7787   67.4504    6.3784 H   0  0  0  0  0  0  0  0  0  0  0  0
   32.0106   65.2284    8.6312 H   0  0  0  0  0  0  0  0  0  0  0  0
   30.1161   64.2188    8.6012 H   0  0  0  0  0  0  0  0  0  0  0  0
   26.1865   66.4468    7.8686 C   0  0  0  0  0  0  0  0  0  0  0  0
   25.4515   65.1919    8.3054 C   0  0  0  0  0  0  0  0  0  0  0  0
   25.2586   64.2458    7.5425 O   0  0  0  0  0  0  0  0  0  0  0  0
   23.9611   65.0010   12.3656 C   0  0  0  0  0  0  0  0  0  0  0  0
   23.7981   66.1447   11.5659 C   0  0  0  0  0  0  0  0  0  0  0  0
   24.2824   66.1902   10.2514 C   0  0  0  0  0  0  0  0  0  0  0  0
   24.9516   65.0929    9.7010 C   0  0  0  0  0  0  0  0  0  0  0  0
   25.1067   63.9495   10.4759 C   0  0  0  0  0  0  0  0  0  0  0  0
   25.6993   62.8513    9.9867 F   0  0  0  0  0  0  0  0  0  0  0  0
   24.6238   63.9017   11.7857 C   0  0  0  0  0  0  0  0  0  0  0  0
   22.7963   63.5569   14.1645 C   0  0  0  0  0  0  0  0  0  0  0  0
   23.4427   64.9156   13.8123 C   0  0  0  0  0  0  0  0  0  0  0  0
   24.6132   65.1345   14.7946 C   0  0  0  0  0  0  0  0  0  0  0  0
   22.3725   66.0038   14.0468 C   0  0  0  0  0  0  0  0  0  0  0  0
 26 27  1  0
 27 28  1  0
 27 29  1  0
 27 19  1  0
 19 20  2  0
 20 21  1  0
 21 22  2  0
 22 17  1  0
 17 18  2  0
 17 16  1  0
  1 16  1  0
  1  2  1  0
  2  3  1  0
  3  4  1  0
  4  5  1  0
  4  6  1  0
  6  7  1  0
  7  8  1  0
  7  9  1  0
  9 10  1  0
  9 11  1  0
 11 12  1  0
 22 23  1  0
 23 24  1  0
 23 25  2  0
 25 19  1  0
 12  1  1  0
  6 12  1  0
  5 13  1  0
  8 14  1  0
 10 15  1  0
M  END
> <minimizedAffinity>
-8.62619

> <CNNscore>
0.4942778349

> <CNNaffinity>
6.2770924568

> <CNN_VS>
3.1026277542

> <CNNaffinity_variance>
0.1285432726

$$$$



 29 31  0  0  0  0  0  0  0  0999 V2000
   25.1951   65.1499   14.8918 C   0  0  0  0  0  0  0  0  0  0  0  0
   25.7783   65.5230   16.2690 C   0  0  0  0  0  0  0  0  0  0  0  0
   27.1824   66.1151   16.1716 C   0  0  0  0  0  0  0  0  0  0  0  0
   27.9210   65.6984   14.9011 C   0  0  0  0  0  0  0  0  0  0  0  0
   29.3226   65.7652   15.1731 O   0  0  0  0  0  0  0  0  0  0  0  0
   27.4933   64.2840   14.4508 C   0  0  0  0  0  0  0  0  0  0  0  0
   28.1398   63.8215   13.1311 C   0  0  0  0  0  0  0  0  0  0  0  0
   29.3764   64.4654   12.8238 O   0  0  0  0  0  0  0  0  0  0  0  0
   27.0854   64.1522   12.0832 C   0  0  0  0  0  0  0  0  0  0  0  0
   27.2586   65.5185   11.6765 O   0  0  0  0  0  0  0  0  0  0  0  0
   25.7666   63.9381   12.8197 C   0  0  0  0  0  0  0  0  0  0  0  0
   26.0304   64.1032   14.2631 N   0  0  0  0  0  0  0  0  0  0  0  0
   29.5388   65.1667   15.9053 H   0  0  0  0  0  0  0  0  0  0  0  0
   29.2348   65.4227   12.7575 H   0  0  0  0  0  0  0  0  0  0  0  0
   27.2185   66.0953   12.4553 H   0  0  0  0  0  0  0  0  0  0  0  0
   23.7516   64.6280   15.0573 C   0  0  0  0  0  0  0  0  0  0  0  0
   22.7462   65.4847   14.3082 C   0  0  0  0  0  0  0  0  0  0  0  0
   22.9775   66.6552   14.0070 O   0  0  0  0  0  0  0  0  0  0  0  0
   18.9544   63.6912   13.2369 C   0  0  0  0  0  0  0  0  0  0  0  0
   19.7637   63.1663   14.2583 C   0  0  0  0  0  0  0  0  0  0  0  0
   20.9873   63.7605   14.5969 C   0  0  0  0  0  0  0  0  0  0  0  0
   21.4400   64.8950   13.9166 C   0  0  0  0  0  0  0  0  0  0  0  0
   20.6422   65.4335   12.9139 C   0  0  0  0  0  0  0  0  0  0  0  0
   21.0029   66.5457   12.2584 F   0  0  0  0  0  0  0  0  0  0  0  0
   19.4222   64.8436   12.5757 C   0  0  0  0  0  0  0  0  0  0  0  0
   17.7382   61.8354   11.9120 C   0  0  0  0  0  0  0  0  0  0  0  0
   17.6059   63.0652   12.8382 C   0  0  0  0  0  0  0  0  0  0  0  0
   16.8545   62.6056   14.1059 C   0  0  0  0  0  0  0  0  0  0  0  0
   16.7486   64.1090   12.0899 C   0  0  0  0  0  0  0  0  0  0  0  0
 26 27  1  0
 27 28  1  0
 27 29  1  0
 27 19  1  0
 19 20  2  0
 20 21  1  0
 21 22  2  0
 22 17  1  0
 17 18  2  0
 17 16  1  0
  1 16  1  0
  1  2  1  0
  2  3  1  0
  3  4  1  0
  4  5  1  0
  4  6  1  0
  6  7  1  0
  7  8  1  0
  7  9  1  0
  9 10  1  0
  9 11  1  0
 11 12  1  0
 22 23  1  0
 23 24  1  0
 23 25  2  0
 25 19  1  0
 12  1  1  0
  6 12  1  0
  5 13  1  0
  8 14  1  0
 10 15  1  0
M  END
> <minimizedAffinity>
-6.46068

> <CNNscore>
0.4851485193

> <CNNaffinity>
4.9484691620

> <CNN_VS>
2.4007425308

> <CNNaffinity_variance>
0.1963938922

$$$$



 29 31  0  0  0  0  0  0  0  0999 V2000
   25.5724   64.8527   14.1476 C   0  0  0  0  0  0  0  0  0  0  0  0
   26.7124   65.0649   15.1631 C   0  0  0  0  0  0  0  0  0  0  0  0
   28.0407   65.4072   14.4922 C   0  0  0  0  0  0  0  0  0  0  0  0
   28.1253   64.9181   13.0476 C   0  0  0  0  0  0  0  0  0  0  0  0
   29.5071   64.7295   12.7343 O   0  0  0  0  0  0  0  0  0  0  0  0
   27.3133   63.6181   12.8548 C   0  0  0  0  0  0  0  0  0  0  0  0
   27.2874   63.1019   11.4036 C   0  0  0  0  0  0  0  0  0  0  0  0
   28.3902   63.5324   10.6056 O   0  0  0  0  0  0  0  0  0  0  0  0
   25.9779   63.6513   10.8537 C   0  0  0  0  0  0  0  0  0  0  0  0
   26.2101   64.9814   10.3648 O   0  0  0  0  0  0  0  0  0  0  0  0
   25.0475   63.6413   12.0628 C   0  0  0  0  0  0  0  0  0  0  0  0
   25.8902   63.7019   13.2738 N   0  0  0  0  0  0  0  0  0  0  0  0
   29.8893   64.0747   13.3392 H   0  0  0  0  0  0  0  0  0  0  0  0
   28.4036   64.5016   10.5685 H   0  0  0  0  0  0  0  0  0  0  0  0
   26.5858   65.5257   11.0744 H   0  0  0  0  0  0  0  0  0  0  0  0
   24.2481   64.5836   14.8941 C   0  0  0  0  0  0  0  0  0  0  0  0
   23.1743   65.5947   14.5326 C   0  0  0  0  0  0  0  0  0  0  0  0
   23.4464   66.7366   14.1634 O   0  0  0  0  0  0  0  0  0  0  0  0
   19.0059   64.4348   14.6799 C   0  0  0  0  0  0  0  0  0  0  0  0
   19.6955   64.5799   13.4644 C   0  0  0  0  0  0  0  0  0  0  0  0
   21.0465   64.9521   13.4326 C   0  0  0  0  0  0  0  0  0  0  0  0
   21.7454   65.1971   14.6186 C   0  0  0  0  0  0  0  0  0  0  0  0
   21.0794   65.0426   15.8287 C   0  0  0  0  0  0  0  0  0  0  0  0
   21.7096   65.2197   16.9984 F   0  0  0  0  0  0  0  0  0  0  0  0
   19.7335   64.6708   15.8626 C   0  0  0  0  0  0  0  0  0  0  0  0
   16.8576   64.3361   16.1129 C   0  0  0  0  0  0  0  0  0  0  0  0
   17.5232   64.0280   14.7527 C   0  0  0  0  0  0  0  0  0  0  0  0
   16.7255   64.7858   13.6701 C   0  0  0  0  0  0  0  0  0  0  0  0
   17.3881   62.5085   14.5131 C   0  0  0  0  0  0  0  0  0  0  0  0
 26 27  1  0
 27 28  1  0
 27 29  1  0
 27 19  1  0
 19 20  2  0
 20 21  1  0
 21 22  2  0
 22 17  1  0
 17 18  2  0
 17 16  1  0
  1 16  1  0
  1  2  1  0
  2  3  1  0
  3  4  1  0
  4  5  1  0
  4  6  1  0
  6  7  1  0
  7  8  1  0
  7  9  1  0
  9 10  1  0
  9 11  1  0
 11 12  1  0
 22 23  1  0
 23 24  1  0
 23 25  2  0
 25 19  1  0
 12  1  1  0
  6 12  1  0
  5 13  1  0
  8 14  1  0
 10 15  1  0
M  END
> <minimizedAffinity>
-6.68469

> <CNNscore>
0.3608475626

> <CNNaffinity>
5.0966362953

> <CNN_VS>
1.8391088247

> <CNNaffinity_variance>
0.4486261606

$$$$



 29 31  0  0  0  0  0  0  0  0999 V2000
   27.4064   67.1523   10.5235 C   0  0  0  0  0  0  0  0  0  0  0  0
   26.1046   67.3973    9.7354 C   0  0  0  0  0  0  0  0  0  0  0  0
   25.8758   66.3575    8.6408 C   0  0  0  0  0  0  0  0  0  0  0  0
   27.1664   65.6882    8.1719 C   0  0  0  0  0  0  0  0  0  0  0  0
   26.9595   65.2408    6.8302 O   0  0  0  0  0  0  0  0  0  0  0  0
   28.3623   66.6609    8.2717 C   0  0  0  0  0  0  0  0  0  0  0  0
   29.7163   66.0347    7.8870 C   0  0  0  0  0  0  0  0  0  0  0  0
   29.6177   64.9074    7.0164 O   0  0  0  0  0  0  0  0  0  0  0  0
   30.3147   65.6294    9.2274 C   0  0  0  0  0  0  0  0  0  0  0  0
   29.8219   64.3253    9.5718 O   0  0  0  0  0  0  0  0  0  0  0  0
   29.8092   66.7028   10.1864 C   0  0  0  0  0  0  0  0  0  0  0  0
   28.5684   67.2627    9.6145 N   0  0  0  0  0  0  0  0  0  0  0  0
   26.7442   65.9997    6.2658 H   0  0  0  0  0  0  0  0  0  0  0  0
   29.0886   64.2150    7.4426 H   0  0  0  0  0  0  0  0  0  0  0  0
   28.8520   64.3360    9.5730 H   0  0  0  0  0  0  0  0  0  0  0  0
   27.5372   68.1923   11.6569 C   0  0  0  0  0  0  0  0  0  0  0  0
   26.1896   68.5571   12.2542 C   0  0  0  0  0  0  0  0  0  0  0  0
   25.5076   67.7453   12.8788 O   0  0  0  0  0  0  0  0  0  0  0  0
   24.6187   72.5533   11.7013 C   0  0  0  0  0  0  0  0  0  0  0  0
   24.0936   71.4457   11.0148 C   0  0  0  0  0  0  0  0  0  0  0  0
   24.6099   70.1568   11.2073 C   0  0  0  0  0  0  0  0  0  0  0  0
   25.6735   69.9405   12.0887 C   0  0  0  0  0  0  0  0  0  0  0  0
   26.1927   71.0251   12.7857 C   0  0  0  0  0  0  0  0  0  0  0  0
   27.1819   70.8717   13.6772 F   0  0  0  0  0  0  0  0  0  0  0  0
   25.6790   72.3101   12.5960 C   0  0  0  0  0  0  0  0  0  0  0  0
   24.3499   74.9146   12.7163 C   0  0  0  0  0  0  0  0  0  0  0  0
   24.0772   73.9820   11.5147 C   0  0  0  0  0  0  0  0  0  0  0  0
   24.7350   74.6265   10.2759 C   0  0  0  0  0  0  0  0  0  0  0  0
   22.5472   73.9362   11.3115 C   0  0  0  0  0  0  0  0  0  0  0  0
 26 27  1  0
 27 28  1  0
 27 29  1  0
 27 19  1  0
 19 20  2  0
 20 21  1  0
 21 22  2  0
 22 17  1  0
 17 18  2  0
 17 16  1  0
  1 16  1  0
  1  2  1  0
  2  3  1  0
  3  4  1  0
  4  5  1  0
  4  6  1  0
  6  7  1  0
  7  8  1  0
  7  9  1  0
  9 10  1  0
  9 11  1  0
 11 12  1  0
 22 23  1  0
 23 24  1  0
 23 25  2  0
 25 19  1  0
 12  1  1  0
  6 12  1  0
  5 13  1  0
  8 14  1  0
 10 15  1  0
M  END
> <minimizedAffinity>
-6.43490

> <CNNscore>
0.3462177515

> <CNNaffinity>
5.6752548218

> <CNN_VS>
1.9648739100

> <CNNaffinity_variance>
0.1782965660

$$$$



 29 31  0  0  0  0  0  0  0  0999 V2000
   34.4884   74.0050   15.9233 C   0  0  0  0  0  0  0  0  0  0  0  0
   34.6311   72.5644   16.4527 C   0  0  0  0  0  0  0  0  0  0  0  0
   35.4837   72.4849   17.7171 C   0  0  0  0  0  0  0  0  0  0  0  0
   36.4525   73.6571   17.8605 C   0  0  0  0  0  0  0  0  0  0  0  0
   37.5535   73.2142   18.6572 O   0  0  0  0  0  0  0  0  0  0  0  0
   36.9161   74.1646   16.4771 C   0  0  0  0  0  0  0  0  0  0  0  0
   37.8384   75.3972   16.5358 C   0  0  0  0  0  0  0  0  0  0  0  0
   38.5444   75.5463   17.7677 O   0  0  0  0  0  0  0  0  0  0  0  0
   36.8861   76.5650   16.3160 C   0  0  0  0  0  0  0  0  0  0  0  0
   36.3230   76.9397   17.5828 O   0  0  0  0  0  0  0  0  0  0  0  0
   35.8337   75.9977   15.3683 C   0  0  0  0  0  0  0  0  0  0  0  0
   35.8182   74.5320   15.5457 N   0  0  0  0  0  0  0  0  0  0  0  0
   37.9874   72.4644   18.2208 H   0  0  0  0  0  0  0  0  0  0  0  0
   37.9095   75.6241   18.4969 H   0  0  0  0  0  0  0  0  0  0  0  0
   35.8962   76.1685   17.9877 H   0  0  0  0  0  0  0  0  0  0  0  0
   33.5579   74.0214   14.6915 C   0  0  0  0  0  0  0  0  0  0  0  0
   33.6403   72.7296   13.8975 C   0  0  0  0  0  0  0  0  0  0  0  0
   34.6918   72.3348   13.3947 O   0  0  0  0  0  0  0  0  0  0  0  0
   30.1221   70.2499   13.4330 C   0  0  0  0  0  0  0  0  0  0  0  0
   31.2902   69.7757   14.0531 C   0  0  0  0  0  0  0  0  0  0  0  0
   32.4203   70.5918   14.2001 C   0  0  0  0  0  0  0  0  0  0  0  0
   32.4161   71.9061   13.7232 C   0  0  0  0  0  0  0  0  0  0  0  0
   31.2619   72.3929   13.1209 C   0  0  0  0  0  0  0  0  0  0  0  0
   31.1836   73.6581   12.6855 F   0  0  0  0  0  0  0  0  0  0  0  0
   30.1343   71.5816   12.9744 C   0  0  0  0  0  0  0  0  0  0  0  0
   27.6587   70.1457   12.6589 C   0  0  0  0  0  0  0  0  0  0  0  0
   28.8633   69.3824   13.2542 C   0  0  0  0  0  0  0  0  0  0  0  0
   29.1761   68.2071   12.3037 C   0  0  0  0  0  0  0  0  0  0  0  0
   28.4173   68.8240   14.6230 C   0  0  0  0  0  0  0  0  0  0  0  0
 26 27  1  0
 27 28  1  0
 27 29  1  0
 27 19  1  0
 19 20  2  0
 20 21  1  0
 21 22  2  0
 22 17  1  0
 17 18  2  0
 17 16  1  0
  1 16  1  0
  1  2  1  0
  2  3  1  0
  3  4  1  0
  4  5  1  0
  4  6  1  0
  6  7  1  0
  7  8  1  0
  7  9  1  0
  9 10  1  0
  9 11  1  0
 11 12  1  0
 22 23  1  0
 23 24  1  0
 23 25  2  0
 25 19  1  0
 12  1  1  0
  6 12  1  0
  5 13  1  0
  8 14  1  0
 10 15  1  0
M  END
> <minimizedAffinity>
-6.30555

> <CNNscore>
0.2837764323

> <CNNaffinity>
4.4618239403

> <CNN_VS>
1.2661604881

> <CNNaffinity_variance>
0.3184864223

$$$$



 29 31  0  0  0  0  0  0  0  0999 V2000
   25.0838   65.1029   13.6073 C   0  0  0  0  0  0  0  0  0  0  0  0
   24.1358   65.5446   12.4749 C   0  0  0  0  0  0  0  0  0  0  0  0
   24.4031   64.8083   11.1641 C   0  0  0  0  0  0  0  0  0  0  0  0
   25.8271   64.2652   11.0623 C   0  0  0  0  0  0  0  0  0  0  0  0
   26.1538   64.1637    9.6744 O   0  0  0  0  0  0  0  0  0  0  0  0
   26.8217   65.1740   11.8182 C   0  0  0  0  0  0  0  0  0  0  0  0
   28.2709   64.6514   11.8255 C   0  0  0  0  0  0  0  0  0  0  0  0
   28.5861   63.7741   10.7441 O   0  0  0  0  0  0  0  0  0  0  0  0
   28.3801   63.9237   13.1587 C   0  0  0  0  0  0  0  0  0  0  0  0
   27.9077   62.5788   12.9850 O   0  0  0  0  0  0  0  0  0  0  0  0
   27.4761   64.7317   14.0848 C   0  0  0  0  0  0  0  0  0  0  0  0
   26.4809   65.4249   13.2426 N   0  0  0  0  0  0  0  0  0  0  0  0
   26.0926   65.0400    9.2629 H   0  0  0  0  0  0  0  0  0  0  0  0
   27.9993   63.0023   10.7724 H   0  0  0  0  0  0  0  0  0  0  0  0
   27.0046   62.5965   12.6312 H   0  0  0  0  0  0  0  0  0  0  0  0
   24.7115   65.8306   14.9170 C   0  0  0  0  0  0  0  0  0  0  0  0
   23.9195   64.9404   15.8584 C   0  0  0  0  0  0  0  0  0  0  0  0
   24.4553   64.3035   16.7648 O   0  0  0  0  0  0  0  0  0  0  0  0
   19.6434   64.5535   15.3033 C   0  0  0  0  0  0  0  0  0  0  0  0
   20.5553   63.6747   14.6950 C   0  0  0  0  0  0  0  0  0  0  0  0
   21.9372   63.8099   14.8874 C   0  0  0  0  0  0  0  0  0  0  0  0
   22.4471   64.8350   15.6899 C   0  0  0  0  0  0  0  0  0  0  0  0
   21.5554   65.7025   16.3098 C   0  0  0  0  0  0  0  0  0  0  0  0
   21.9834   66.6756   17.1261 F   0  0  0  0  0  0  0  0  0  0  0  0
   20.1780   65.5688   16.1202 C   0  0  0  0  0  0  0  0  0  0  0  0
   17.5379   65.4413   14.0962 C   0  0  0  0  0  0  0  0  0  0  0  0
   18.1204   64.4353   15.1143 C   0  0  0  0  0  0  0  0  0  0  0  0
   17.7704   63.0188   14.6104 C   0  0  0  0  0  0  0  0  0  0  0  0
   17.4079   64.6859   16.4611 C   0  0  0  0  0  0  0  0  0  0  0  0
 26 27  1  0
 27 28  1  0
 27 29  1  0
 27 19  1  0
 19 20  2  0
 20 21  1  0
 21 22  2  0
 22 17  1  0
 17 18  2  0
 17 16  1  0
  1 16  1  0
  1  2  1  0
  2  3  1  0
  3  4  1  0
  4  5  1  0
  4  6  1  0
  6  7  1  0
  7  8  1  0
  7  9  1  0
  9 10  1  0
  9 11  1  0
 11 12  1  0
 22 23  1  0
 23 24  1  0
 23 25  2  0
 25 19  1  0
 12  1  1  0
  6 12  1  0
  5 13  1  0
  8 14  1  0
 10 15  1  0
M  END
> <minimizedAffinity>
-6.98109

> <CNNscore>
0.2677323222

> <CNNaffinity>
4.5619397163

> <CNN_VS>
1.2213786840

> <CNNaffinity_variance>
0.4134105742

$$$$



 29 31  0  0  0  0  0  0  0  0999 V2000
   24.6499   64.1935   12.7726 C   0  0  0  0  0  0  0  0  0  0  0  0
   24.6529   64.0159   11.2414 C   0  0  0  0  0  0  0  0  0  0  0  0
   25.9615   63.4255   10.7210 C   0  0  0  0  0  0  0  0  0  0  0  0
   27.1429   63.6697   11.6581 C   0  0  0  0  0  0  0  0  0  0  0  0
   28.3338   63.6502   10.8679 O   0  0  0  0  0  0  0  0  0  0  0  0
   26.9817   65.0066   12.4152 C   0  0  0  0  0  0  0  0  0  0  0  0
   28.0985   65.2889   13.4381 C   0  0  0  0  0  0  0  0  0  0  0  0
   29.3290   64.6174   13.1670 O   0  0  0  0  0  0  0  0  0  0  0  0
   27.5033   64.8112   14.7559 C   0  0  0  0  0  0  0  0  0  0  0  0
   27.7545   63.4034   14.8867 O   0  0  0  0  0  0  0  0  0  0  0  0
   26.0154   65.1150   14.6098 C   0  0  0  0  0  0  0  0  0  0  0  0
   25.7076   65.1502   13.1661 N   0  0  0  0  0  0  0  0  0  0  0  0
   28.2850   64.3444   10.1922 H   0  0  0  0  0  0  0  0  0  0  0  0
   29.1792   63.6591   13.1581 H   0  0  0  0  0  0  0  0  0  0  0  0
   27.3973   62.9381   14.1142 H   0  0  0  0  0  0  0  0  0  0  0  0
   23.2761   64.7234   13.2365 C   0  0  0  0  0  0  0  0  0  0  0  0
   22.5628   63.7387   14.1462 C   0  0  0  0  0  0  0  0  0  0  0  0
   23.1006   62.7062   14.5450 O   0  0  0  0  0  0  0  0  0  0  0  0
   18.4727   64.5270   15.3263 C   0  0  0  0  0  0  0  0  0  0  0  0
   18.7855   63.7242   14.2165 C   0  0  0  0  0  0  0  0  0  0  0  0
   20.1149   63.4744   13.8489 C   0  0  0  0  0  0  0  0  0  0  0  0
   21.1712   64.0280   14.5788 C   0  0  0  0  0  0  0  0  0  0  0  0
   20.8762   64.8119   15.6880 C   0  0  0  0  0  0  0  0  0  0  0  0
   21.8472   65.3316   16.4521 F   0  0  0  0  0  0  0  0  0  0  0  0
   19.5522   65.0612   16.0565 C   0  0  0  0  0  0  0  0  0  0  0  0
   16.8255   64.8524   17.2907 C   0  0  0  0  0  0  0  0  0  0  0  0
   17.0254   64.8227   15.7587 C   0  0  0  0  0  0  0  0  0  0  0  0
   16.5943   66.2010   15.2135 C   0  0  0  0  0  0  0  0  0  0  0  0
   16.0823   63.7366   15.1972 C   0  0  0  0  0  0  0  0  0  0  0  0
 26 27  1  0
 27 28  1  0
 27 29  1  0
 27 19  1  0
 19 20  2  0
 20 21  1  0
 21 22  2  0
 22 17  1  0
 17 18  2  0
 17 16  1  0
  1 16  1  0
  1  2  1  0
  2  3  1  0
  3  4  1  0
  4  5  1  0
  4  6  1  0
  6  7  1  0
  7  8  1  0
  7  9  1  0
  9 10  1  0
  9 11  1  0
 11 12  1  0
 22 23  1  0
 23 24  1  0
 23 25  2  0
 25 19  1  0
 12  1  1  0
  6 12  1  0
  5 13  1  0
  8 14  1  0
 10 15  1  0
M  END
> <minimizedAffinity>
-7.33819

> <CNNscore>
0.2607057393

> <CNNaffinity>
4.7121667862

> <CNN_VS>
1.2284889221

> <CNNaffinity_variance>
0.2371301651

$$$$



 29 31  0  0  0  0  0  0  0  0999 V2000
   34.1746   69.4269   16.1218 C   0  0  0  0  0  0  0  0  0  0  0  0
   35.3201   70.4520   16.0074 C   0  0  0  0  0  0  0  0  0  0  0  0
   36.1932   70.4994   17.2593 C   0  0  0  0  0  0  0  0  0  0  0  0
   35.4704   70.0084   18.5122 C   0  0  0  0  0  0  0  0  0  0  0  0
   36.0876   70.6318   19.6407 O   0  0  0  0  0  0  0  0  0  0  0  0
   33.9601   70.3249   18.4399 C   0  0  0  0  0  0  0  0  0  0  0  0
   33.1478   69.7925   19.6357 C   0  0  0  0  0  0  0  0  0  0  0  0
   33.9114   69.5969   20.8261 O   0  0  0  0  0  0  0  0  0  0  0  0
   32.5932   68.4682   19.1280 C   0  0  0  0  0  0  0  0  0  0  0  0
   33.5754   67.4452   19.3538 O   0  0  0  0  0  0  0  0  0  0  0  0
   32.3629   68.7210   17.6411 C   0  0  0  0  0  0  0  0  0  0  0  0
   33.2707   69.8100   17.2285 N   0  0  0  0  0  0  0  0  0  0  0  0
   36.0125   71.5954   19.5590 H   0  0  0  0  0  0  0  0  0  0  0  0
   34.6231   68.9611   20.6529 H   0  0  0  0  0  0  0  0  0  0  0  0
   34.4099   67.6988   18.9294 H   0  0  0  0  0  0  0  0  0  0  0  0
   33.3796   69.3789   14.7992 C   0  0  0  0  0  0  0  0  0  0  0  0
   33.8396   70.4433   13.8186 C   0  0  0  0  0  0  0  0  0  0  0  0
   34.8023   70.2741   13.0710 O   0  0  0  0  0  0  0  0  0  0  0  0
   31.6109   74.1473   13.5832 C   0  0  0  0  0  0  0  0  0  0  0  0
   31.0228   72.9052   13.2919 C   0  0  0  0  0  0  0  0  0  0  0  0
   31.7560   71.7135   13.3765 C   0  0  0  0  0  0  0  0  0  0  0  0
   33.1035   71.7320   13.7490 C   0  0  0  0  0  0  0  0  0  0  0  0
   33.6940   72.9525   14.0545 C   0  0  0  0  0  0  0  0  0  0  0  0
   34.9691   73.0274   14.4610 F   0  0  0  0  0  0  0  0  0  0  0  0
   32.9648   74.1410   13.9717 C   0  0  0  0  0  0  0  0  0  0  0  0
   30.4853   75.9040   12.0583 C   0  0  0  0  0  0  0  0  0  0  0  0
   30.8368   75.4751   13.5007 C   0  0  0  0  0  0  0  0  0  0  0  0
   29.5089   75.3485   14.2776 C   0  0  0  0  0  0  0  0  0  0  0  0
   31.6817   76.6095   14.1202 C   0  0  0  0  0  0  0  0  0  0  0  0
 26 27  1  0
 27 28  1  0
 27 29  1  0
 27 19  1  0
 19 20  2  0
 20 21  1  0
 21 22  2  0
 22 17  1  0
 17 18  2  0
 17 16  1  0
  1 16  1  0
  1  2  1  0
  2  3  1  0
  3  4  1  0
  4  5  1  0
  4  6  1  0
  6  7  1  0
  7  8  1  0
  7  9  1  0
  9 10  1  0
  9 11  1  0
 11 12  1  0
 22 23  1  0
 23 24  1  0
 23 25  2  0
 25 19  1  0
 12  1  1  0
  6 12  1  0
  5 13  1  0
  8 14  1  0
 10 15  1  0
M  END
> <minimizedAffinity>
-7.21702

> <CNNscore>
0.2474064529

> <CNNaffinity>
3.8070724010

> <CNN_VS>
0.9418942928

> <CNNaffinity_variance>
1.5632673502

$$$$
