


 28 29  0  0  0  0  0  0  0  0999 V2000
    8.2453   34.2976   73.5139 C   0  0  0  0  0  0  0  0  0  0  0  0
    9.5188   33.7295   73.1474 C   0  0  0  0  0  0  0  0  0  0  0  0
    9.4345   32.7281   72.2087 C   0  0  0  0  0  0  0  0  0  0  0  0
    7.8272   32.4109   71.7818 S   0  0  0  0  0  0  0  0  0  0  0  0
    7.2242   33.5550   72.9165 C   0  0  0  0  0  0  0  0  0  0  0  0
    5.7945   33.5394   73.1267 C   0  0  0  0  0  0  0  0  0  0  0  0
    5.1466   34.0451   74.0336 O   0  0  0  0  0  0  0  0  0  0  0  0
    5.1383   32.9740   72.0837 O   0  0  0  0  0  0  0  0  0  0  0  0
    5.6215   32.5831   71.3826 H   0  0  0  0  0  0  0  0  0  0  0  0
    8.0652   35.4087   74.3902 N   0  0  0  0  0  0  0  0  0  0  0  0
    8.1175   35.2278   75.7931 C   0  0  0  0  0  0  0  0  0  0  0  0
    8.0326   34.1212   76.3380 O   0  0  0  0  0  0  0  0  0  0  0  0
    8.2428   36.4986   76.6603 C   0  0  0  0  0  0  0  0  0  0  0  0
    7.1492   36.5327   77.7412 C   0  0  0  0  0  0  0  0  0  0  0  0
    7.6148   37.2182   79.0202 C   0  0  0  0  0  0  0  0  0  0  0  0
    8.7958   36.4789   79.6640 C   0  0  0  0  0  0  0  0  0  0  0  0
    9.5070   37.3917   80.6642 C   0  0  0  0  0  0  0  0  0  0  0  0
    9.7773   35.9131   78.6239 C   0  0  0  0  0  0  0  0  0  0  0  0
    9.6605   36.6013   77.2649 C   0  0  0  0  0  0  0  0  0  0  0  0
    8.8389   37.6729   73.9305 C   0  0  0  0  0  0  0  0  0  0  0  0
    7.7555   36.7025   73.8926 N   0  0  0  0  0  0  0  0  0  0  0  0
    6.4557   37.2243   74.2864 C   0  0  0  0  0  0  0  0  0  0  0  0
   10.5509   32.0426   71.6477 C   0  0  0  0  0  0  0  0  0  0  0  0
   11.4929   31.4693   71.1719 C   0  0  0  0  0  0  0  0  0  0  0  0
   12.6501   30.7691   70.5710 C   0  0  0  0  0  0  0  0  0  0  0  0
   12.5782   29.2760   70.9199 C   0  0  0  0  0  0  0  0  0  0  0  0
   13.9515   31.3648   71.1252 C   0  0  0  0  0  0  0  0  0  0  0  0
   12.6131   30.9426   69.0462 C   0  0  0  0  0  0  0  0  0  0  0  0
 20 21  1  0
 21 22  1  0
 21 10  1  0
 10  1  1  0
  1  2  1  0
  2  3  2  0
  3 23  1  0
 23 24  3  0
 24 25  1  0
 25 26  1  0
 25 27  1  0
 25 28  1  0
  3  4  1  0
  4  5  1  0
  5  6  1  0
  6  7  2  0
  6  8  1  0
 10 11  1  0
 11 12  2  0
 13 11  1  0
 13 14  1  0
 14 15  1  0
 15 16  1  0
 16 17  1  0
 16 18  1  0
 18 19  1  0
  5  1  2  0
 19 13  1  0
  8  9  1  0
M  END
> <minimizedAffinity>
-6.55660

> <CNNscore>
0.6664481759

> <CNNaffinity>
6.4577031136

> <CNN_VS>
4.3037242889

> <CNNaffinity_variance>
0.0583353527

$$$$



 28 29  0  0  0  0  0  0  0  0999 V2000
    7.7781   32.3531   74.3314 C   0  0  0  0  0  0  0  0  0  0  0  0
    9.0638   31.8991   73.8629 C   0  0  0  0  0  0  0  0  0  0  0  0
    9.2168   31.9669   72.4979 C   0  0  0  0  0  0  0  0  0  0  0  0
    7.8094   32.5276   71.7424 S   0  0  0  0  0  0  0  0  0  0  0  0
    6.9527   32.6026   73.2325 C   0  0  0  0  0  0  0  0  0  0  0  0
    5.5316   32.8442   73.1300 C   0  0  0  0  0  0  0  0  0  0  0  0
    4.8024   33.4684   73.8895 O   0  0  0  0  0  0  0  0  0  0  0  0
    5.0272   32.3918   71.9556 O   0  0  0  0  0  0  0  0  0  0  0  0
    5.5740   31.9126   71.3646 H   0  0  0  0  0  0  0  0  0  0  0  0
    7.4011   32.4744   75.7019 N   0  0  0  0  0  0  0  0  0  0  0  0
    7.2345   33.7528   76.2864 C   0  0  0  0  0  0  0  0  0  0  0  0
    7.6618   34.7938   75.7742 O   0  0  0  0  0  0  0  0  0  0  0  0
    6.5184   33.8119   77.6526 C   0  0  0  0  0  0  0  0  0  0  0  0
    6.8663   35.1123   78.3963 C   0  0  0  0  0  0  0  0  0  0  0  0
    5.7184   35.6120   79.2652 C   0  0  0  0  0  0  0  0  0  0  0  0
    4.4755   35.9455   78.4286 C   0  0  0  0  0  0  0  0  0  0  0  0
    3.2398   36.0196   79.3269 C   0  0  0  0  0  0  0  0  0  0  0  0
    4.2652   34.9631   77.2643 C   0  0  0  0  0  0  0  0  0  0  0  0
    4.9945   33.6366   77.4707 C   0  0  0  0  0  0  0  0  0  0  0  0
    8.4794   30.8353   77.1466 C   0  0  0  0  0  0  0  0  0  0  0  0
    7.2567   31.3330   76.5347 N   0  0  0  0  0  0  0  0  0  0  0  0
    6.3664   30.3013   76.0250 C   0  0  0  0  0  0  0  0  0  0  0  0
   10.4077   31.6232   71.7946 C   0  0  0  0  0  0  0  0  0  0  0  0
   11.4141   31.3375   71.2046 C   0  0  0  0  0  0  0  0  0  0  0  0
   12.6578   31.0011   70.4763 C   0  0  0  0  0  0  0  0  0  0  0  0
   13.1540   29.6205   70.9278 C   0  0  0  0  0  0  0  0  0  0  0  0
   13.7291   32.0574   70.7801 C   0  0  0  0  0  0  0  0  0  0  0  0
   12.3725   30.9765   68.9681 C   0  0  0  0  0  0  0  0  0  0  0  0
 20 21  1  0
 21 22  1  0
 21 10  1  0
 10  1  1  0
  1  2  1  0
  2  3  2  0
  3 23  1  0
 23 24  3  0
 24 25  1  0
 25 26  1  0
 25 27  1  0
 25 28  1  0
  3  4  1  0
  4  5  1  0
  5  6  1  0
  6  7  2  0
  6  8  1  0
 10 11  1  0
 11 12  2  0
 13 11  1  0
 13 14  1  0
 14 15  1  0
 15 16  1  0
 16 17  1  0
 16 18  1  0
 18 19  1  0
  5  1  2  0
 19 13  1  0
  8  9  1  0
M  END
> <minimizedAffinity>
-4.75809

> <CNNscore>
0.5745065808

> <CNNaffinity>
5.3863143921

> <CNN_VS>
3.0944731236

> <CNNaffinity_variance>
0.0389789380

$$$$



 28 29  0  0  0  0  0  0  0  0999 V2000
    5.4699   34.5237   75.8238 C   0  0  0  0  0  0  0  0  0  0  0  0
    4.4150   34.9192   76.7235 C   0  0  0  0  0  0  0  0  0  0  0  0
    3.3746   34.0226   76.7930 C   0  0  0  0  0  0  0  0  0  0  0  0
    3.6125   32.7129   75.7469 S   0  0  0  0  0  0  0  0  0  0  0  0
    5.0724   33.3800   75.1273 C   0  0  0  0  0  0  0  0  0  0  0  0
    5.6266   32.7154   73.9699 C   0  0  0  0  0  0  0  0  0  0  0  0
    6.2919   31.6893   73.9194 O   0  0  0  0  0  0  0  0  0  0  0  0
    5.2187   33.2939   72.8136 O   0  0  0  0  0  0  0  0  0  0  0  0
    4.7088   34.0797   72.8373 H   0  0  0  0  0  0  0  0  0  0  0  0
    6.6985   35.2254   75.6423 N   0  0  0  0  0  0  0  0  0  0  0  0
    6.8611   36.1103   74.5495 C   0  0  0  0  0  0  0  0  0  0  0  0
    6.1112   36.1193   73.5666 O   0  0  0  0  0  0  0  0  0  0  0  0
    8.0697   37.0693   74.5969 C   0  0  0  0  0  0  0  0  0  0  0  0
    9.2495   36.5020   73.7897 C   0  0  0  0  0  0  0  0  0  0  0  0
   10.0944   37.5947   73.1457 C   0  0  0  0  0  0  0  0  0  0  0  0
    9.2816   38.4254   72.1432 C   0  0  0  0  0  0  0  0  0  0  0  0
    9.9978   39.7443   71.8485 C   0  0  0  0  0  0  0  0  0  0  0  0
    7.8350   38.6635   72.6078 C   0  0  0  0  0  0  0  0  0  0  0  0
    7.6595   38.4781   74.1141 C   0  0  0  0  0  0  0  0  0  0  0  0
    8.4424   33.6980   76.3923 C   0  0  0  0  0  0  0  0  0  0  0  0
    7.8113   35.0048   76.4970 N   0  0  0  0  0  0  0  0  0  0  0  0
    7.6580   35.5006   77.8562 C   0  0  0  0  0  0  0  0  0  0  0  0
    2.2383   34.1590   77.6423 C   0  0  0  0  0  0  0  0  0  0  0  0
    1.2776   34.2745   78.3537 C   0  0  0  0  0  0  0  0  0  0  0  0
    0.0879   34.4285   79.2206 C   0  0  0  0  0  0  0  0  0  0  0  0
    0.2575   33.5611   80.4756 C   0  0  0  0  0  0  0  0  0  0  0  0
   -1.1644   33.9834   78.4530 C   0  0  0  0  0  0  0  0  0  0  0  0
   -0.0555   35.9011   79.6296 C   0  0  0  0  0  0  0  0  0  0  0  0
 20 21  1  0
 21 22  1  0
 21 10  1  0
 10  1  1  0
  1  2  1  0
  2  3  2  0
  3 23  1  0
 23 24  3  0
 24 25  1  0
 25 26  1  0
 25 27  1  0
 25 28  1  0
  3  4  1  0
  4  5  1  0
  5  6  1  0
  6  7  2  0
  6  8  1  0
 10 11  1  0
 11 12  2  0
 13 11  1  0
 13 14  1  0
 14 15  1  0
 15 16  1  0
 16 17  1  0
 16 18  1  0
 18 19  1  0
  5  1  2  0
 19 13  1  0
  8  9  1  0
M  END
> <minimizedAffinity>
-5.87327

> <CNNscore>
0.5140372515

> <CNNaffinity>
5.2761216164

> <CNN_VS>
2.7121231556

> <CNNaffinity_variance>
0.1976141185

$$$$



 28 29  0  0  0  0  0  0  0  0999 V2000
    6.2857   32.7280   74.7568 C   0  0  0  0  0  0  0  0  0  0  0  0
    6.7370   31.4217   74.3462 C   0  0  0  0  0  0  0  0  0  0  0  0
    5.7207   30.5180   74.1426 C   0  0  0  0  0  0  0  0  0  0  0  0
    4.2082   31.1967   74.4859 S   0  0  0  0  0  0  0  0  0  0  0  0
    4.9099   32.6831   74.9940 C   0  0  0  0  0  0  0  0  0  0  0  0
    4.0110   33.6182   75.6311 C   0  0  0  0  0  0  0  0  0  0  0  0
    2.7963   33.7151   75.5159 O   0  0  0  0  0  0  0  0  0  0  0  0
    4.6487   34.3820   76.5520 O   0  0  0  0  0  0  0  0  0  0  0  0
    5.5782   34.3182   76.6510 H   0  0  0  0  0  0  0  0  0  0  0  0
    7.1266   33.8657   74.9398 N   0  0  0  0  0  0  0  0  0  0  0  0
    7.2889   34.8091   73.8970 C   0  0  0  0  0  0  0  0  0  0  0  0
    6.9733   34.5837   72.7231 O   0  0  0  0  0  0  0  0  0  0  0  0
    7.9354   36.1609   74.2680 C   0  0  0  0  0  0  0  0  0  0  0  0
    9.3533   36.2676   73.6821 C   0  0  0  0  0  0  0  0  0  0  0  0
    9.7258   37.6988   73.3137 C   0  0  0  0  0  0  0  0  0  0  0  0
    8.7978   38.2671   72.2313 C   0  0  0  0  0  0  0  0  0  0  0  0
    8.9036   39.7925   72.1942 C   0  0  0  0  0  0  0  0  0  0  0  0
    7.3396   37.8094   72.4024 C   0  0  0  0  0  0  0  0  0  0  0  0
    7.0323   37.3315   73.8206 C   0  0  0  0  0  0  0  0  0  0  0  0
    8.4409   32.8400   76.7166 C   0  0  0  0  0  0  0  0  0  0  0  0
    7.8789   34.0475   76.1308 N   0  0  0  0  0  0  0  0  0  0  0  0
    7.3080   34.9814   77.0892 C   0  0  0  0  0  0  0  0  0  0  0  0
    5.9012   29.1791   73.6887 C   0  0  0  0  0  0  0  0  0  0  0  0
    6.0480   28.0499   73.3069 C   0  0  0  0  0  0  0  0  0  0  0  0
    6.2188   26.6532   72.8482 C   0  0  0  0  0  0  0  0  0  0  0  0
    4.9190   26.1720   72.1886 C   0  0  0  0  0  0  0  0  0  0  0  0
    6.5480   25.7575   74.0503 C   0  0  0  0  0  0  0  0  0  0  0  0
    7.3657   26.5897   71.8298 C   0  0  0  0  0  0  0  0  0  0  0  0
 20 21  1  0
 21 22  1  0
 21 10  1  0
 10  1  1  0
  1  2  1  0
  2  3  2  0
  3 23  1  0
 23 24  3  0
 24 25  1  0
 25 26  1  0
 25 27  1  0
 25 28  1  0
  3  4  1  0
  4  5  1  0
  5  6  1  0
  6  7  2  0
  6  8  1  0
 10 11  1  0
 11 12  2  0
 13 11  1  0
 13 14  1  0
 14 15  1  0
 15 16  1  0
 16 17  1  0
 16 18  1  0
 18 19  1  0
  5  1  2  0
 19 13  1  0
  8  9  1  0
M  END
> <minimizedAffinity>
-5.86867

> <CNNscore>
0.5127692819

> <CNNaffinity>
5.2007670403

> <CNN_VS>
2.6667935848

> <CNNaffinity_variance>
0.0777548552

$$$$



 28 29  0  0  0  0  0  0  0  0999 V2000
    5.5430   34.4798   75.8489 C   0  0  0  0  0  0  0  0  0  0  0  0
    5.3579   33.1799   75.2534 C   0  0  0  0  0  0  0  0  0  0  0  0
    4.0945   32.6633   75.4211 C   0  0  0  0  0  0  0  0  0  0  0  0
    3.1169   33.6985   76.3368 S   0  0  0  0  0  0  0  0  0  0  0  0
    4.4058   34.8096   76.5900 C   0  0  0  0  0  0  0  0  0  0  0  0
    4.1535   35.8576   77.5526 C   0  0  0  0  0  0  0  0  0  0  0  0
    4.9432   36.4199   78.2997 O   0  0  0  0  0  0  0  0  0  0  0  0
    2.8771   36.3092   77.4824 O   0  0  0  0  0  0  0  0  0  0  0  0
    2.2618   35.8883   76.9147 H   0  0  0  0  0  0  0  0  0  0  0  0
    6.7239   35.2722   75.7369 N   0  0  0  0  0  0  0  0  0  0  0  0
    7.0226   35.9418   74.5261 C   0  0  0  0  0  0  0  0  0  0  0  0
    6.4772   35.6726   73.4496 O   0  0  0  0  0  0  0  0  0  0  0  0
    8.1195   37.0267   74.5762 C   0  0  0  0  0  0  0  0  0  0  0  0
    9.3666   36.5795   73.7951 C   0  0  0  0  0  0  0  0  0  0  0  0
   10.0988   37.7483   73.1468 C   0  0  0  0  0  0  0  0  0  0  0  0
    9.2172   38.4722   72.1199 C   0  0  0  0  0  0  0  0  0  0  0  0
    9.7912   39.8568   71.8154 C   0  0  0  0  0  0  0  0  0  0  0  0
    7.7460   38.5586   72.5596 C   0  0  0  0  0  0  0  0  0  0  0  0
    7.5673   38.3760   74.0659 C   0  0  0  0  0  0  0  0  0  0  0  0
    7.9784   36.6938   77.2672 C   0  0  0  0  0  0  0  0  0  0  0  0
    7.6657   35.3529   76.7970 N   0  0  0  0  0  0  0  0  0  0  0  0
    8.8128   34.4659   76.6771 C   0  0  0  0  0  0  0  0  0  0  0  0
    3.6463   31.4202   74.8873 C   0  0  0  0  0  0  0  0  0  0  0  0
    3.2635   30.3737   74.4392 C   0  0  0  0  0  0  0  0  0  0  0  0
    2.7824   29.0821   73.9001 C   0  0  0  0  0  0  0  0  0  0  0  0
    3.9568   28.3292   73.2598 C   0  0  0  0  0  0  0  0  0  0  0  0
    1.7000   29.3413   72.8432 C   0  0  0  0  0  0  0  0  0  0  0  0
    2.1952   28.2417   75.0427 C   0  0  0  0  0  0  0  0  0  0  0  0
 20 21  1  0
 21 22  1  0
 21 10  1  0
 10  1  1  0
  1  2  1  0
  2  3  2  0
  3 23  1  0
 23 24  3  0
 24 25  1  0
 25 26  1  0
 25 27  1  0
 25 28  1  0
  3  4  1  0
  4  5  1  0
  5  6  1  0
  6  7  2  0
  6  8  1  0
 10 11  1  0
 11 12  2  0
 13 11  1  0
 13 14  1  0
 14 15  1  0
 15 16  1  0
 16 17  1  0
 16 18  1  0
 18 19  1  0
  5  1  2  0
 19 13  1  0
  8  9  1  0
M  END
> <minimizedAffinity>
-6.21314

> <CNNscore>
0.5005543232

> <CNNaffinity>
5.4915547371

> <CNN_VS>
2.7488214970

> <CNNaffinity_variance>
0.0803779960

$$$$



 28 29  0  0  0  0  0  0  0  0999 V2000
    8.1558   33.7097   73.8168 C   0  0  0  0  0  0  0  0  0  0  0  0
    9.4356   33.1506   73.4589 C   0  0  0  0  0  0  0  0  0  0  0  0
    9.4226   32.4298   72.2879 C   0  0  0  0  0  0  0  0  0  0  0  0
    7.8698   32.3637   71.6166 S   0  0  0  0  0  0  0  0  0  0  0  0
    7.1840   33.2287   72.9362 C   0  0  0  0  0  0  0  0  0  0  0  0
    5.7402   33.2775   72.9745 C   0  0  0  0  0  0  0  0  0  0  0  0
    4.9434   32.3537   73.0730 O   0  0  0  0  0  0  0  0  0  0  0  0
    5.2805   34.5521   73.0210 O   0  0  0  0  0  0  0  0  0  0  0  0
    5.8792   35.2691   72.9469 H   0  0  0  0  0  0  0  0  0  0  0  0
    7.9204   34.5737   74.9272 N   0  0  0  0  0  0  0  0  0  0  0  0
    7.9812   35.9786   74.7646 C   0  0  0  0  0  0  0  0  0  0  0  0
    8.4998   36.5262   73.7849 O   0  0  0  0  0  0  0  0  0  0  0  0
    7.4023   36.8428   75.9051 C   0  0  0  0  0  0  0  0  0  0  0  0
    6.6313   35.9732   76.9124 C   0  0  0  0  0  0  0  0  0  0  0  0
    6.7180   36.5129   78.3350 C   0  0  0  0  0  0  0  0  0  0  0  0
    8.1648   36.5370   78.8467 C   0  0  0  0  0  0  0  0  0  0  0  0
    8.2788   37.4588   80.0619 C   0  0  0  0  0  0  0  0  0  0  0  0
    9.1731   36.9239   77.7518 C   0  0  0  0  0  0  0  0  0  0  0  0
    8.5227   37.6620   76.5830 C   0  0  0  0  0  0  0  0  0  0  0  0
    8.8719   33.5644   76.9303 C   0  0  0  0  0  0  0  0  0  0  0  0
    7.6954   34.0595   76.2320 N   0  0  0  0  0  0  0  0  0  0  0  0
    6.5073   33.2322   76.3767 C   0  0  0  0  0  0  0  0  0  0  0  0
   10.5661   31.8196   71.6953 C   0  0  0  0  0  0  0  0  0  0  0  0
   11.5326   31.3100   71.1966 C   0  0  0  0  0  0  0  0  0  0  0  0
   12.7266   30.6958   70.5741 C   0  0  0  0  0  0  0  0  0  0  0  0
   13.9924   31.2839   71.2129 C   0  0  0  0  0  0  0  0  0  0  0  0
   12.7260   30.9906   69.0678 C   0  0  0  0  0  0  0  0  0  0  0  0
   12.6942   29.1780   70.8015 C   0  0  0  0  0  0  0  0  0  0  0  0
 20 21  1  0
 21 22  1  0
 21 10  1  0
 10  1  1  0
  1  2  1  0
  2  3  2  0
  3 23  1  0
 23 24  3  0
 24 25  1  0
 25 26  1  0
 25 27  1  0
 25 28  1  0
  3  4  1  0
  4  5  1  0
  5  6  1  0
  6  7  2  0
  6  8  1  0
 10 11  1  0
 11 12  2  0
 13 11  1  0
 13 14  1  0
 14 15  1  0
 15 16  1  0
 16 17  1  0
 16 18  1  0
 18 19  1  0
  5  1  2  0
 19 13  1  0
  8  9  1  0
M  END
> <minimizedAffinity>
-5.78775

> <CNNscore>
0.4603728652

> <CNNaffinity>
6.0376467705

> <CNN_VS>
2.7795686722

> <CNNaffinity_variance>
0.0461272709

$$$$



 28 29  0  0  0  0  0  0  0  0999 V2000
    8.1799   34.9527   74.1366 C   0  0  0  0  0  0  0  0  0  0  0  0
    9.4472   34.4633   73.6539 C   0  0  0  0  0  0  0  0  0  0  0  0
    9.3487   33.3420   72.8638 C   0  0  0  0  0  0  0  0  0  0  0  0
    7.7442   32.8208   72.7226 S   0  0  0  0  0  0  0  0  0  0  0  0
    7.1768   34.0442   73.7909 C   0  0  0  0  0  0  0  0  0  0  0  0
    5.8000   33.9223   74.2129 C   0  0  0  0  0  0  0  0  0  0  0  0
    5.2749   34.3224   75.2435 O   0  0  0  0  0  0  0  0  0  0  0  0
    5.0207   33.3881   73.2406 O   0  0  0  0  0  0  0  0  0  0  0  0
    5.4092   33.0778   72.4464 H   0  0  0  0  0  0  0  0  0  0  0  0
    7.9971   36.1490   74.8920 N   0  0  0  0  0  0  0  0  0  0  0  0
    7.2226   37.2123   74.3694 C   0  0  0  0  0  0  0  0  0  0  0  0
    6.9113   37.3023   73.1762 O   0  0  0  0  0  0  0  0  0  0  0  0
    6.7983   38.3219   75.3551 C   0  0  0  0  0  0  0  0  0  0  0  0
    5.9963   39.4174   74.6327 C   0  0  0  0  0  0  0  0  0  0  0  0
    4.9416   40.0550   75.5293 C   0  0  0  0  0  0  0  0  0  0  0  0
    3.8975   39.0313   75.9956 C   0  0  0  0  0  0  0  0  0  0  0  0
    3.1316   39.5726   77.2038 C   0  0  0  0  0  0  0  0  0  0  0  0
    4.5118   37.6529   76.2918 C   0  0  0  0  0  0  0  0  0  0  0  0
    6.0173   37.7181   76.5432 C   0  0  0  0  0  0  0  0  0  0  0  0
    9.9463   36.9803   76.0946 C   0  0  0  0  0  0  0  0  0  0  0  0
    8.6403   36.3408   76.1437 N   0  0  0  0  0  0  0  0  0  0  0  0
    8.5436   35.2222   77.0691 C   0  0  0  0  0  0  0  0  0  0  0  0
   10.4482   32.6959   72.2275 C   0  0  0  0  0  0  0  0  0  0  0  0
   11.3751   32.1556   71.6878 C   0  0  0  0  0  0  0  0  0  0  0  0
   12.5114   31.4943   71.0082 C   0  0  0  0  0  0  0  0  0  0  0  0
   12.8268   32.2389   69.7035 C   0  0  0  0  0  0  0  0  0  0  0  0
   12.1410   30.0385   70.6931 C   0  0  0  0  0  0  0  0  0  0  0  0
   13.7406   31.5251   71.9272 C   0  0  0  0  0  0  0  0  0  0  0  0
 20 21  1  0
 21 22  1  0
 21 10  1  0
 10  1  1  0
  1  2  1  0
  2  3  2  0
  3 23  1  0
 23 24  3  0
 24 25  1  0
 25 26  1  0
 25 27  1  0
 25 28  1  0
  3  4  1  0
  4  5  1  0
  5  6  1  0
  6  7  2  0
  6  8  1  0
 10 11  1  0
 11 12  2  0
 13 11  1  0
 13 14  1  0
 14 15  1  0
 15 16  1  0
 16 17  1  0
 16 18  1  0
 18 19  1  0
  5  1  2  0
 19 13  1  0
  8  9  1  0
M  END
> <minimizedAffinity>
-5.65120

> <CNNscore>
0.4318341315

> <CNNaffinity>
6.1087651253

> <CNN_VS>
2.6379733086

> <CNNaffinity_variance>
0.0143475337

$$$$



 28 29  0  0  0  0  0  0  0  0999 V2000
    7.9686   32.8283   74.5065 C   0  0  0  0  0  0  0  0  0  0  0  0
    9.1800   32.2688   73.9605 C   0  0  0  0  0  0  0  0  0  0  0  0
    9.2220   32.2612   72.5860 C   0  0  0  0  0  0  0  0  0  0  0  0
    7.7935   32.8769   71.9177 S   0  0  0  0  0  0  0  0  0  0  0  0
    7.0710   33.0790   73.4660 C   0  0  0  0  0  0  0  0  0  0  0  0
    5.6639   33.4086   73.4657 C   0  0  0  0  0  0  0  0  0  0  0  0
    5.0563   34.1803   74.1960 O   0  0  0  0  0  0  0  0  0  0  0  0
    5.0142   32.8420   72.4193 O   0  0  0  0  0  0  0  0  0  0  0  0
    5.4669   32.2494   71.8521 H   0  0  0  0  0  0  0  0  0  0  0  0
    7.7160   33.0393   75.8945 N   0  0  0  0  0  0  0  0  0  0  0  0
    7.9917   34.2945   76.4879 C   0  0  0  0  0  0  0  0  0  0  0  0
    8.7018   35.1553   75.9555 O   0  0  0  0  0  0  0  0  0  0  0  0
    7.3979   34.5539   77.8890 C   0  0  0  0  0  0  0  0  0  0  0  0
    8.4462   34.2930   78.9837 C   0  0  0  0  0  0  0  0  0  0  0  0
    8.2644   35.2017   80.1935 C   0  0  0  0  0  0  0  0  0  0  0  0
    8.4281   36.6820   79.8224 C   0  0  0  0  0  0  0  0  0  0  0  0
    7.8276   37.5687   80.9144 C   0  0  0  0  0  0  0  0  0  0  0  0
    7.8381   37.0144   78.4416 C   0  0  0  0  0  0  0  0  0  0  0  0
    6.8148   35.9819   77.9716 C   0  0  0  0  0  0  0  0  0  0  0  0
    8.2434   30.9750   77.0764 C   0  0  0  0  0  0  0  0  0  0  0  0
    7.2575   31.9883   76.7326 N   0  0  0  0  0  0  0  0  0  0  0  0
    5.9367   31.4696   76.4114 C   0  0  0  0  0  0  0  0  0  0  0  0
   10.3263   31.8068   71.8082 C   0  0  0  0  0  0  0  0  0  0  0  0
   11.2576   31.4288   71.1507 C   0  0  0  0  0  0  0  0  0  0  0  0
   12.4003   30.9724   70.3282 C   0  0  0  0  0  0  0  0  0  0  0  0
   11.9673   30.8889   68.8579 C   0  0  0  0  0  0  0  0  0  0  0  0
   12.8556   29.5881   70.8099 C   0  0  0  0  0  0  0  0  0  0  0  0
   13.5573   31.9718   70.4669 C   0  0  0  0  0  0  0  0  0  0  0  0
 20 21  1  0
 21 22  1  0
 21 10  1  0
 10  1  1  0
  1  2  1  0
  2  3  2  0
  3 23  1  0
 23 24  3  0
 24 25  1  0
 25 26  1  0
 25 27  1  0
 25 28  1  0
  3  4  1  0
  4  5  1  0
  5  6  1  0
  6  7  2  0
  6  8  1  0
 10 11  1  0
 11 12  2  0
 13 11  1  0
 13 14  1  0
 14 15  1  0
 15 16  1  0
 16 17  1  0
 16 18  1  0
 18 19  1  0
  5  1  2  0
 19 13  1  0
  8  9  1  0
M  END
> <minimizedAffinity>
-5.13513

> <CNNscore>
0.4030137956

> <CNNaffinity>
5.5284366608

> <CNN_VS>
2.2280361652

> <CNNaffinity_variance>
0.0101454360

$$$$



 28 29  0  0  0  0  0  0  0  0999 V2000
    5.3729   31.2704   74.2727 C   0  0  0  0  0  0  0  0  0  0  0  0
    6.0215   30.1315   73.6719 C   0  0  0  0  0  0  0  0  0  0  0  0
    5.2030   29.0365   73.5232 C   0  0  0  0  0  0  0  0  0  0  0  0
    3.6553   29.3292   74.1439 S   0  0  0  0  0  0  0  0  0  0  0  0
    4.0948   30.8983   74.6961 C   0  0  0  0  0  0  0  0  0  0  0  0
    3.1306   31.5596   75.5454 C   0  0  0  0  0  0  0  0  0  0  0  0
    2.7417   32.7195   75.5068 O   0  0  0  0  0  0  0  0  0  0  0  0
    2.5329   30.6922   76.3991 O   0  0  0  0  0  0  0  0  0  0  0  0
    2.8204   29.8013   76.4392 H   0  0  0  0  0  0  0  0  0  0  0  0
    5.9690   32.5542   74.4497 N   0  0  0  0  0  0  0  0  0  0  0  0
    5.6849   33.6046   73.5445 C   0  0  0  0  0  0  0  0  0  0  0  0
    5.1680   33.4236   72.4360 O   0  0  0  0  0  0  0  0  0  0  0  0
    6.0929   35.0303   73.9733 C   0  0  0  0  0  0  0  0  0  0  0  0
    6.4139   35.0779   75.4767 C   0  0  0  0  0  0  0  0  0  0  0  0
    7.4960   36.0981   75.8097 C   0  0  0  0  0  0  0  0  0  0  0  0
    8.8265   35.7602   75.1233 C   0  0  0  0  0  0  0  0  0  0  0  0
    9.7401   36.9869   75.1118 C   0  0  0  0  0  0  0  0  0  0  0  0
    8.6339   35.1903   73.7079 C   0  0  0  0  0  0  0  0  0  0  0  0
    7.2706   35.5364   73.1115 C   0  0  0  0  0  0  0  0  0  0  0  0
    8.2450   32.2504   75.2646 C   0  0  0  0  0  0  0  0  0  0  0  0
    6.9141   32.7966   75.4820 N   0  0  0  0  0  0  0  0  0  0  0  0
    6.4063   32.6441   76.8368 C   0  0  0  0  0  0  0  0  0  0  0  0
    5.5907   27.8075   72.9146 C   0  0  0  0  0  0  0  0  0  0  0  0
    5.9226   26.7733   72.4023 C   0  0  0  0  0  0  0  0  0  0  0  0
    6.3432   25.5066   71.7625 C   0  0  0  0  0  0  0  0  0  0  0  0
    6.1084   25.5992   70.2484 C   0  0  0  0  0  0  0  0  0  0  0  0
    5.5224   24.3455   72.3403 C   0  0  0  0  0  0  0  0  0  0  0  0
    7.8347   25.2694   72.0374 C   0  0  0  0  0  0  0  0  0  0  0  0
 20 21  1  0
 21 22  1  0
 21 10  1  0
 10  1  1  0
  1  2  1  0
  2  3  2  0
  3 23  1  0
 23 24  3  0
 24 25  1  0
 25 26  1  0
 25 27  1  0
 25 28  1  0
  3  4  1  0
  4  5  1  0
  5  6  1  0
  6  7  2  0
  6  8  1  0
 10 11  1  0
 11 12  2  0
 13 11  1  0
 13 14  1  0
 14 15  1  0
 15 16  1  0
 16 17  1  0
 16 18  1  0
 18 19  1  0
  5  1  2  0
 19 13  1  0
  8  9  1  0
M  END
> <minimizedAffinity>
-4.92248

> <CNNscore>
0.3889359534

> <CNNaffinity>
4.6246771812

> <CNN_VS>
1.7987031937

> <CNNaffinity_variance>
0.3402731121

$$$$
