


 25 28  0  0  0  0  0  0  0  0999 V2000
   31.9791  -10.3637   -0.2450 N   0  0  0  0  0  0  0  0  0  0  0  0
   30.7213  -10.8435   -0.6248 C   0  0  0  0  0  0  0  0  0  0  0  0
   29.7212   -9.9594   -1.0132 C   0  0  0  0  0  0  0  0  0  0  0  0
   28.5124  -10.4466   -1.5088 C   0  0  0  0  0  0  0  0  0  0  0  0
   28.3041  -11.8370   -1.6762 C   0  0  0  0  0  0  0  0  0  0  0  0
   27.1363  -12.4402   -2.1678 C   0  0  0  0  0  0  0  0  0  0  0  0
   26.9667  -13.7719   -2.2223 N   0  0  0  0  0  0  0  0  0  0  0  0
   28.0052  -14.5338   -1.8444 C   0  0  0  0  0  0  0  0  0  0  0  0
   29.1815  -14.0537   -1.4058 N   0  0  0  0  0  0  0  0  0  0  0  0
   29.3177  -12.7267   -1.3121 C   0  0  0  0  0  0  0  0  0  0  0  0
   30.5160  -12.2126   -0.8256 C   0  0  0  0  0  0  0  0  0  0  0  0
   32.1164   -9.3989   -0.1054 H   0  0  0  0  0  0  0  0  0  0  0  0
   32.7272  -10.9909   -0.1171 H   0  0  0  0  0  0  0  0  0  0  0  0
   27.8472  -16.0022   -1.9224 C   0  0  0  0  0  0  0  0  0  0  0  0
   26.5859  -16.5981   -2.1258 C   0  0  0  0  0  0  0  0  0  0  0  0
   26.4332  -17.9878   -2.2004 C   0  0  0  0  0  0  0  0  0  0  0  0
   27.5464  -18.8116   -2.0721 C   0  0  0  0  0  0  0  0  0  0  0  0
   27.3453  -20.6878   -2.1722 Br  0  0  0  0  0  0  0  0  0  0  0  0
   28.8068  -18.2597   -1.8706 C   0  0  0  0  0  0  0  0  0  0  0  0
   28.9517  -16.8691   -1.7969 C   0  0  0  0  0  0  0  0  0  0  0  0
   26.0351  -11.6923   -2.6540 N   0  0  0  0  0  0  0  0  0  0  0  0
   26.1582  -10.8470   -3.1434 H   0  0  0  0  0  0  0  0  0  0  0  0
   24.6904  -12.2490   -2.3870 C   0  0  0  0  0  0  0  0  0  0  0  0
   23.4550  -11.4125   -2.5713 C   0  0  0  0  0  0  0  0  0  0  0  0
   23.7541  -12.5285   -3.5300 C   0  0  0  0  0  0  0  0  0  0  0  0
  1  2  1  0
  2  3  2  0
  3  4  1  0
  4  5  2  0
  5  6  1  0
  6 21  1  0
 21 23  1  0
 23 24  1  0
 24 25  1  0
  6  7  2  0
  7  8  1  0
  8 14  1  0
 14 15  2  0
 15 16  1  0
 16 17  2  0
 17 18  1  0
 17 19  1  0
 19 20  2  0
  8  9  2  0
  9 10  1  0
 10 11  2  0
 11  2  1  0
 10  5  1  0
 25 23  1  0
 20 14  1  0
  1 12  1  0
  1 13  1  0
 21 22  1  0
M  END
> <minimizedAffinity>
-3.65597

> <CNNscore>
0.5583238006

> <CNNaffinity>
4.7617535591

> <CNN_VS>
2.6586003304

> <CNNaffinity_variance>
0.0018145032

$$$$



 25 28  0  0  0  0  0  0  0  0999 V2000
   22.0793   -9.3085   -4.5429 N   0  0  0  0  0  0  0  0  0  0  0  0
   21.6198  -10.4541   -3.8848 C   0  0  0  0  0  0  0  0  0  0  0  0
   22.5229  -11.3739   -3.3643 C   0  0  0  0  0  0  0  0  0  0  0  0
   22.0646  -12.4481   -2.6025 C   0  0  0  0  0  0  0  0  0  0  0  0
   20.6884  -12.5894   -2.3011 C   0  0  0  0  0  0  0  0  0  0  0  0
   20.1145  -13.6218   -1.5434 C   0  0  0  0  0  0  0  0  0  0  0  0
   18.7891  -13.7493   -1.3642 N   0  0  0  0  0  0  0  0  0  0  0  0
   18.0088  -12.7922   -1.8907 C   0  0  0  0  0  0  0  0  0  0  0  0
   18.4638  -11.7383   -2.5897 N   0  0  0  0  0  0  0  0  0  0  0  0
   19.7816  -11.6514   -2.8002 C   0  0  0  0  0  0  0  0  0  0  0  0
   20.2673  -10.5862   -3.5529 C   0  0  0  0  0  0  0  0  0  0  0  0
   23.0325   -9.2222   -4.7734 H   0  0  0  0  0  0  0  0  0  0  0  0
   21.4495   -8.5885   -4.7756 H   0  0  0  0  0  0  0  0  0  0  0  0
   16.5488  -12.9007   -1.6814 C   0  0  0  0  0  0  0  0  0  0  0  0
   15.6828  -13.2989   -2.7201 C   0  0  0  0  0  0  0  0  0  0  0  0
   14.3003  -13.4028   -2.5249 C   0  0  0  0  0  0  0  0  0  0  0  0
   13.7557  -13.1085   -1.2795 C   0  0  0  0  0  0  0  0  0  0  0  0
   11.8905  -13.2474   -1.0112 Br  0  0  0  0  0  0  0  0  0  0  0  0
   14.5789  -12.7124   -0.2309 C   0  0  0  0  0  0  0  0  0  0  0  0
   15.9604  -12.6106   -0.4336 C   0  0  0  0  0  0  0  0  0  0  0  0
   20.8881  -14.6183   -0.8976 N   0  0  0  0  0  0  0  0  0  0  0  0
   21.8324  -14.7726   -1.1296 H   0  0  0  0  0  0  0  0  0  0  0  0
   20.2016  -15.4144    0.1436 C   0  0  0  0  0  0  0  0  0  0  0  0
   20.1030  -16.9105    0.0356 C   0  0  0  0  0  0  0  0  0  0  0  0
   21.0022  -16.2915    1.0663 C   0  0  0  0  0  0  0  0  0  0  0  0
  1  2  1  0
  2  3  2  0
  3  4  1  0
  4  5  2  0
  5  6  1  0
  6 21  1  0
 21 23  1  0
 23 24  1  0
 24 25  1  0
  6  7  2  0
  7  8  1  0
  8 14  1  0
 14 15  2  0
 15 16  1  0
 16 17  2  0
 17 18  1  0
 17 19  1  0
 19 20  2  0
  8  9  2  0
  9 10  1  0
 10 11  2  0
 11  2  1  0
 10  5  1  0
 25 23  1  0
 20 14  1  0
  1 12  1  0
  1 13  1  0
 21 22  1  0
M  END
> <minimizedAffinity>
-3.64535

> <CNNscore>
0.4387270808

> <CNNaffinity>
4.3973312378

> <CNN_VS>
1.9292283058

> <CNNaffinity_variance>
0.3199007213

$$$$



 25 28  0  0  0  0  0  0  0  0999 V2000
   11.9869   -7.3991   -3.9098 N   0  0  0  0  0  0  0  0  0  0  0  0
   12.4207   -8.7201   -3.7576 C   0  0  0  0  0  0  0  0  0  0  0  0
   11.5791   -9.7770   -4.0850 C   0  0  0  0  0  0  0  0  0  0  0  0
   12.0567  -11.0866   -4.0502 C   0  0  0  0  0  0  0  0  0  0  0  0
   13.4108  -11.3573   -3.7375 C   0  0  0  0  0  0  0  0  0  0  0  0
   14.0025  -12.6284   -3.6770 C   0  0  0  0  0  0  0  0  0  0  0  0
   15.2734  -12.8271   -3.2894 N   0  0  0  0  0  0  0  0  0  0  0  0
   16.0050  -11.7348   -3.0181 C   0  0  0  0  0  0  0  0  0  0  0  0
   15.5465  -10.4737   -3.0936 N   0  0  0  0  0  0  0  0  0  0  0  0
   14.2658  -10.2950   -3.4345 C   0  0  0  0  0  0  0  0  0  0  0  0
   13.7639   -8.9977   -3.4824 C   0  0  0  0  0  0  0  0  0  0  0  0
   11.0401   -7.2111   -4.1034 H   0  0  0  0  0  0  0  0  0  0  0  0
   12.6284   -6.6572   -3.8234 H   0  0  0  0  0  0  0  0  0  0  0  0
   17.4144  -11.9318   -2.6154 C   0  0  0  0  0  0  0  0  0  0  0  0
   18.4284  -11.0406   -3.0212 C   0  0  0  0  0  0  0  0  0  0  0  0
   19.7634  -11.2242   -2.6413 C   0  0  0  0  0  0  0  0  0  0  0  0
   20.1102  -12.3094   -1.8436 C   0  0  0  0  0  0  0  0  0  0  0  0
   21.9106  -12.5614   -1.3282 Br  0  0  0  0  0  0  0  0  0  0  0  0
   19.1369  -13.2096   -1.4238 C   0  0  0  0  0  0  0  0  0  0  0  0
   17.8041  -13.0195   -1.8079 C   0  0  0  0  0  0  0  0  0  0  0  0
   13.3074  -13.8133   -4.0250 N   0  0  0  0  0  0  0  0  0  0  0  0
   13.3920  -14.6385   -3.4947 H   0  0  0  0  0  0  0  0  0  0  0  0
   12.4480  -13.7448   -5.2275 C   0  0  0  0  0  0  0  0  0  0  0  0
   12.9057  -14.3162   -6.5405 C   0  0  0  0  0  0  0  0  0  0  0  0
   11.8130  -14.9964   -5.7676 C   0  0  0  0  0  0  0  0  0  0  0  0
  1  2  1  0
  2  3  2  0
  3  4  1  0
  4  5  2  0
  5  6  1  0
  6 21  1  0
 21 23  1  0
 23 24  1  0
 24 25  1  0
  6  7  2  0
  7  8  1  0
  8 14  1  0
 14 15  2  0
 15 16  1  0
 16 17  2  0
 17 18  1  0
 17 19  1  0
 19 20  2  0
  8  9  2  0
  9 10  1  0
 10 11  2  0
 11  2  1  0
 10  5  1  0
 25 23  1  0
 20 14  1  0
  1 12  1  0
  1 13  1  0
 21 22  1  0
M  END
> <minimizedAffinity>
-5.14218

> <CNNscore>
0.3826455772

> <CNNaffinity>
4.7411026955

> <CNN_VS>
1.8141620159

> <CNNaffinity_variance>
0.0189195964

$$$$



 25 28  0  0  0  0  0  0  0  0999 V2000
   32.3065  -13.7567   -0.8520 N   0  0  0  0  0  0  0  0  0  0  0  0
   30.9968  -14.2062   -1.0503 C   0  0  0  0  0  0  0  0  0  0  0  0
   29.9675  -13.2964   -1.2632 C   0  0  0  0  0  0  0  0  0  0  0  0
   28.6888  -13.7511   -1.5835 C   0  0  0  0  0  0  0  0  0  0  0  0
   28.4306  -15.1331   -1.7508 C   0  0  0  0  0  0  0  0  0  0  0  0
   27.1908  -15.7044   -2.0760 C   0  0  0  0  0  0  0  0  0  0  0  0
   26.9888  -17.0313   -2.1361 N   0  0  0  0  0  0  0  0  0  0  0  0
   28.0569  -17.8194   -1.9363 C   0  0  0  0  0  0  0  0  0  0  0  0
   29.2948  -17.3699   -1.6677 N   0  0  0  0  0  0  0  0  0  0  0  0
   29.4695  -16.0481   -1.5640 C   0  0  0  0  0  0  0  0  0  0  0  0
   30.7370  -15.5662   -1.2505 C   0  0  0  0  0  0  0  0  0  0  0  0
   32.4820  -12.7982   -0.7117 H   0  0  0  0  0  0  0  0  0  0  0  0
   33.0527  -14.3989   -0.8527 H   0  0  0  0  0  0  0  0  0  0  0  0
   27.8602  -19.2825   -2.0247 C   0  0  0  0  0  0  0  0  0  0  0  0
   28.5488  -20.0628   -2.9756 C   0  0  0  0  0  0  0  0  0  0  0  0
   28.3648  -21.4481   -3.0615 C   0  0  0  0  0  0  0  0  0  0  0  0
   27.4833  -22.0818   -2.1922 C   0  0  0  0  0  0  0  0  0  0  0  0
   27.2318  -23.9511   -2.3041 Br  0  0  0  0  0  0  0  0  0  0  0  0
   26.7864  -21.3446   -1.2409 C   0  0  0  0  0  0  0  0  0  0  0  0
   26.9754  -19.9597   -1.1611 C   0  0  0  0  0  0  0  0  0  0  0  0
   26.0442  -14.9265   -2.3736 N   0  0  0  0  0  0  0  0  0  0  0  0
   25.2795  -14.8730   -1.7559 H   0  0  0  0  0  0  0  0  0  0  0  0
   26.0571  -14.1990   -3.6620 C   0  0  0  0  0  0  0  0  0  0  0  0
   25.3194  -14.7302   -4.8592 C   0  0  0  0  0  0  0  0  0  0  0  0
   24.8112  -13.5103   -4.1468 C   0  0  0  0  0  0  0  0  0  0  0  0
  1  2  1  0
  2  3  2  0
  3  4  1  0
  4  5  2  0
  5  6  1  0
  6 21  1  0
 21 23  1  0
 23 24  1  0
 24 25  1  0
  6  7  2  0
  7  8  1  0
  8 14  1  0
 14 15  2  0
 15 16  1  0
 16 17  2  0
 17 18  1  0
 17 19  1  0
 19 20  2  0
  8  9  2  0
  9 10  1  0
 10 11  2  0
 11  2  1  0
 10  5  1  0
 25 23  1  0
 20 14  1  0
  1 12  1  0
  1 13  1  0
 21 22  1  0
M  END
> <minimizedAffinity>
-4.21118

> <CNNscore>
0.3531681895

> <CNNaffinity>
4.4873771667

> <CNN_VS>
1.5847988129

> <CNNaffinity_variance>
0.2266044766

$$$$



 25 28  0  0  0  0  0  0  0  0999 V2000
   22.1983  -21.0897  -11.0395 N   0  0  0  0  0  0  0  0  0  0  0  0
   23.0396  -19.9723  -11.0444 C   0  0  0  0  0  0  0  0  0  0  0  0
   23.5548  -19.4872  -12.2410 C   0  0  0  0  0  0  0  0  0  0  0  0
   24.2901  -18.3025  -12.2554 C   0  0  0  0  0  0  0  0  0  0  0  0
   24.4767  -17.5496  -11.0709 C   0  0  0  0  0  0  0  0  0  0  0  0
   25.1905  -16.3459  -10.9656 C   0  0  0  0  0  0  0  0  0  0  0  0
   25.4061  -15.7221   -9.7954 N   0  0  0  0  0  0  0  0  0  0  0  0
   24.8437  -16.2642   -8.7038 C   0  0  0  0  0  0  0  0  0  0  0  0
   24.1025  -17.3854   -8.7066 N   0  0  0  0  0  0  0  0  0  0  0  0
   23.9371  -18.0207   -9.8716 C   0  0  0  0  0  0  0  0  0  0  0  0
   23.2028  -19.2030   -9.8874 C   0  0  0  0  0  0  0  0  0  0  0  0
   22.0882  -21.6266  -11.8574 H   0  0  0  0  0  0  0  0  0  0  0  0
   21.7162  -21.3394  -10.2182 H   0  0  0  0  0  0  0  0  0  0  0  0
   25.0476  -15.5773   -7.4100 C   0  0  0  0  0  0  0  0  0  0  0  0
   25.5296  -14.2541   -7.3459 C   0  0  0  0  0  0  0  0  0  0  0  0
   25.7233  -13.6010   -6.1227 C   0  0  0  0  0  0  0  0  0  0  0  0
   25.4365  -14.2639   -4.9342 C   0  0  0  0  0  0  0  0  0  0  0  0
   25.6962  -13.3867   -3.2809 Br  0  0  0  0  0  0  0  0  0  0  0  0
   24.9592  -15.5699   -4.9581 C   0  0  0  0  0  0  0  0  0  0  0  0
   24.7682  -16.2165   -6.1851 C   0  0  0  0  0  0  0  0  0  0  0  0
   25.7425  -15.6827  -12.0898 N   0  0  0  0  0  0  0  0  0  0  0  0
   26.1160  -14.7742  -12.0238 H   0  0  0  0  0  0  0  0  0  0  0  0
   25.7276  -16.4278  -13.3680 C   0  0  0  0  0  0  0  0  0  0  0  0
   25.9740  -15.7282  -14.6756 C   0  0  0  0  0  0  0  0  0  0  0  0
   27.0114  -16.6584  -14.1165 C   0  0  0  0  0  0  0  0  0  0  0  0
  1  2  1  0
  2  3  2  0
  3  4  1  0
  4  5  2  0
  5  6  1  0
  6 21  1  0
 21 23  1  0
 23 24  1  0
 24 25  1  0
  6  7  2  0
  7  8  1  0
  8 14  1  0
 14 15  2  0
 15 16  1  0
 16 17  2  0
 17 18  1  0
 17 19  1  0
 19 20  2  0
  8  9  2  0
  9 10  1  0
 10 11  2  0
 11  2  1  0
 10  5  1  0
 25 23  1  0
 20 14  1  0
  1 12  1  0
  1 13  1  0
 21 22  1  0
M  END
> <minimizedAffinity>
-8.91971

> <CNNscore>
0.3518289328

> <CNNaffinity>
6.1949181557

> <CNN_VS>
2.1795513630

> <CNNaffinity_variance>
0.1225537881

$$$$



 25 28  0  0  0  0  0  0  0  0999 V2000
   20.0465  -16.6039    1.7354 N   0  0  0  0  0  0  0  0  0  0  0  0
   19.9790  -15.5180    0.8562 C   0  0  0  0  0  0  0  0  0  0  0  0
   21.1427  -14.8945    0.4208 C   0  0  0  0  0  0  0  0  0  0  0  0
   21.0783  -13.8952   -0.5496 C   0  0  0  0  0  0  0  0  0  0  0  0
   19.8437  -13.5394   -1.1443 C   0  0  0  0  0  0  0  0  0  0  0  0
   19.6583  -12.5572   -2.1293 C   0  0  0  0  0  0  0  0  0  0  0  0
   18.4478  -12.2042   -2.5932 N   0  0  0  0  0  0  0  0  0  0  0  0
   17.3924  -12.8868   -2.1220 C   0  0  0  0  0  0  0  0  0  0  0  0
   17.4692  -13.8763   -1.2156 N   0  0  0  0  0  0  0  0  0  0  0  0
   18.6760  -14.1834   -0.7282 C   0  0  0  0  0  0  0  0  0  0  0  0
   18.7702  -15.1809    0.2379 C   0  0  0  0  0  0  0  0  0  0  0  0
   20.9006  -16.8355    2.1669 H   0  0  0  0  0  0  0  0  0  0  0  0
   19.2400  -17.1365    1.9226 H   0  0  0  0  0  0  0  0  0  0  0  0
   16.0539  -12.5308   -2.6404 C   0  0  0  0  0  0  0  0  0  0  0  0
   15.8288  -11.3237   -3.3330 C   0  0  0  0  0  0  0  0  0  0  0  0
   14.5629  -10.9840   -3.8252 C   0  0  0  0  0  0  0  0  0  0  0  0
   13.4927  -11.8510   -3.6325 C   0  0  0  0  0  0  0  0  0  0  0  0
   11.7824  -11.3970   -4.2951 Br  0  0  0  0  0  0  0  0  0  0  0  0
   13.6768  -13.0509   -2.9539 C   0  0  0  0  0  0  0  0  0  0  0  0
   14.9455  -13.3837   -2.4644 C   0  0  0  0  0  0  0  0  0  0  0  0
   20.7370  -11.8553   -2.7228 N   0  0  0  0  0  0  0  0  0  0  0  0
   21.6744  -12.0812   -2.5238 H   0  0  0  0  0  0  0  0  0  0  0  0
   20.3800  -10.7651   -3.6572 C   0  0  0  0  0  0  0  0  0  0  0  0
   20.8376   -9.3542   -3.4127 C   0  0  0  0  0  0  0  0  0  0  0  0
   21.4373  -10.1526   -4.5338 C   0  0  0  0  0  0  0  0  0  0  0  0
  1  2  1  0
  2  3  2  0
  3  4  1  0
  4  5  2  0
  5  6  1  0
  6 21  1  0
 21 23  1  0
 23 24  1  0
 24 25  1  0
  6  7  2  0
  7  8  1  0
  8 14  1  0
 14 15  2  0
 15 16  1  0
 16 17  2  0
 17 18  1  0
 17 19  1  0
 19 20  2  0
  8  9  2  0
  9 10  1  0
 10 11  2  0
 11  2  1  0
 10  5  1  0
 25 23  1  0
 20 14  1  0
  1 12  1  0
  1 13  1  0
 21 22  1  0
M  END
> <minimizedAffinity>
-4.05382

> <CNNscore>
0.3052722812

> <CNNaffinity>
4.5191736221

> <CNN_VS>
1.3795784712

> <CNNaffinity_variance>
0.1213267967

$$$$



 25 28  0  0  0  0  0  0  0  0999 V2000
   15.1613   -9.9411   -3.7296 N   0  0  0  0  0  0  0  0  0  0  0  0
   15.9585  -10.6639   -2.8358 C   0  0  0  0  0  0  0  0  0  0  0  0
   15.4095  -11.1854   -1.6700 C   0  0  0  0  0  0  0  0  0  0  0  0
   16.1751  -12.0087   -0.8451 C   0  0  0  0  0  0  0  0  0  0  0  0
   17.4959  -12.3703   -1.2050 C   0  0  0  0  0  0  0  0  0  0  0  0
   18.3553  -13.1923   -0.4598 C   0  0  0  0  0  0  0  0  0  0  0  0
   19.6300  -13.4294   -0.8118 N   0  0  0  0  0  0  0  0  0  0  0  0
   20.0514  -12.8954   -1.9691 C   0  0  0  0  0  0  0  0  0  0  0  0
   19.2926  -12.1358   -2.7777 N   0  0  0  0  0  0  0  0  0  0  0  0
   18.0409  -11.8695   -2.3897 C   0  0  0  0  0  0  0  0  0  0  0  0
   17.2523  -11.0547   -3.1967 C   0  0  0  0  0  0  0  0  0  0  0  0
   14.2517   -9.6694   -3.4689 H   0  0  0  0  0  0  0  0  0  0  0  0
   15.5099   -9.7042   -4.6193 H   0  0  0  0  0  0  0  0  0  0  0  0
   21.4438  -13.1672   -2.3870 C   0  0  0  0  0  0  0  0  0  0  0  0
   22.2218  -12.1891   -3.0392 C   0  0  0  0  0  0  0  0  0  0  0  0
   23.5403  -12.4433   -3.4357 C   0  0  0  0  0  0  0  0  0  0  0  0
   24.1078  -13.6881   -3.1853 C   0  0  0  0  0  0  0  0  0  0  0  0
   25.8869  -14.0358   -3.7184 Br  0  0  0  0  0  0  0  0  0  0  0  0
   23.3707  -14.6778   -2.5440 C   0  0  0  0  0  0  0  0  0  0  0  0
   22.0528  -14.4163   -2.1506 C   0  0  0  0  0  0  0  0  0  0  0  0
   17.9477  -13.8473    0.7290 N   0  0  0  0  0  0  0  0  0  0  0  0
   17.9461  -13.3876    1.5995 H   0  0  0  0  0  0  0  0  0  0  0  0
   17.5246  -15.2586    0.5925 C   0  0  0  0  0  0  0  0  0  0  0  0
   17.4574  -16.1664    1.7889 C   0  0  0  0  0  0  0  0  0  0  0  0
   16.1913  -15.6972    1.1324 C   0  0  0  0  0  0  0  0  0  0  0  0
  1  2  1  0
  2  3  2  0
  3  4  1  0
  4  5  2  0
  5  6  1  0
  6 21  1  0
 21 23  1  0
 23 24  1  0
 24 25  1  0
  6  7  2  0
  7  8  1  0
  8 14  1  0
 14 15  2  0
 15 16  1  0
 16 17  2  0
 17 18  1  0
 17 19  1  0
 19 20  2  0
  8  9  2  0
  9 10  1  0
 10 11  2  0
 11  2  1  0
 10  5  1  0
 25 23  1  0
 20 14  1  0
  1 12  1  0
  1 13  1  0
 21 22  1  0
M  END
> <minimizedAffinity>
-3.76432

> <CNNscore>
0.3025626838

> <CNNaffinity>
4.9002652168

> <CNN_VS>
1.4826374054

> <CNNaffinity_variance>
0.1847657114

$$$$



 25 28  0  0  0  0  0  0  0  0999 V2000
   28.7248  -19.9342   -1.9658 N   0  0  0  0  0  0  0  0  0  0  0  0
   28.3855  -18.5798   -2.0496 C   0  0  0  0  0  0  0  0  0  0  0  0
   27.0604  -18.1981   -2.2256 C   0  0  0  0  0  0  0  0  0  0  0  0
   26.7110  -16.8488   -2.1840 C   0  0  0  0  0  0  0  0  0  0  0  0
   27.6819  -15.8557   -1.9088 C   0  0  0  0  0  0  0  0  0  0  0  0
   27.4474  -14.4740   -1.8373 C   0  0  0  0  0  0  0  0  0  0  0  0
   28.4276  -13.5729   -1.6578 N   0  0  0  0  0  0  0  0  0  0  0  0
   29.6684  -14.0513   -1.4752 C   0  0  0  0  0  0  0  0  0  0  0  0
   29.9887  -15.3566   -1.4770 N   0  0  0  0  0  0  0  0  0  0  0  0
   29.0097  -16.2387   -1.7046 C   0  0  0  0  0  0  0  0  0  0  0  0
   29.3293  -17.5927   -1.7462 C   0  0  0  0  0  0  0  0  0  0  0  0
   28.0556  -20.6235   -2.1809 H   0  0  0  0  0  0  0  0  0  0  0  0
   29.6328  -20.1982   -1.6919 H   0  0  0  0  0  0  0  0  0  0  0  0
   30.7569  -13.0759   -1.2495 C   0  0  0  0  0  0  0  0  0  0  0  0
   30.5343  -11.8712   -0.5521 C   0  0  0  0  0  0  0  0  0  0  0  0
   31.5628  -10.9460   -0.3366 C   0  0  0  0  0  0  0  0  0  0  0  0
   32.8405  -11.2109   -0.8178 C   0  0  0  0  0  0  0  0  0  0  0  0
   34.2318   -9.9654   -0.5293 Br  0  0  0  0  0  0  0  0  0  0  0  0
   33.0979  -12.3891   -1.5104 C   0  0  0  0  0  0  0  0  0  0  0  0
   32.0643  -13.3094   -1.7221 C   0  0  0  0  0  0  0  0  0  0  0  0
   26.1511  -13.9112   -1.9448 N   0  0  0  0  0  0  0  0  0  0  0  0
   25.5048  -13.9533   -1.2033 H   0  0  0  0  0  0  0  0  0  0  0  0
   25.8206  -13.2571   -3.2302 C   0  0  0  0  0  0  0  0  0  0  0  0
   25.4397  -14.0686   -4.4370 C   0  0  0  0  0  0  0  0  0  0  0  0
   24.4006  -13.2515   -3.7252 C   0  0  0  0  0  0  0  0  0  0  0  0
  1  2  1  0
  2  3  2  0
  3  4  1  0
  4  5  2  0
  5  6  1  0
  6 21  1  0
 21 23  1  0
 23 24  1  0
 24 25  1  0
  6  7  2  0
  7  8  1  0
  8 14  1  0
 14 15  2  0
 15 16  1  0
 16 17  2  0
 17 18  1  0
 17 19  1  0
 19 20  2  0
  8  9  2  0
  9 10  1  0
 10 11  2  0
 11  2  1  0
 10  5  1  0
 25 23  1  0
 20 14  1  0
  1 12  1  0
  1 13  1  0
 21 22  1  0
M  END
> <minimizedAffinity>
-3.62844

> <CNNscore>
0.2595460117

> <CNNaffinity>
4.4464831352

> <CNN_VS>
1.1540669203

> <CNNaffinity_variance>
0.0675855502

$$$$



 25 28  0  0  0  0  0  0  0  0999 V2000
   24.8829  -13.8491  -13.7455 N   0  0  0  0  0  0  0  0  0  0  0  0
   24.6030  -14.7548  -12.7170 C   0  0  0  0  0  0  0  0  0  0  0  0
   24.2330  -16.0615  -13.0144 C   0  0  0  0  0  0  0  0  0  0  0  0
   24.0762  -16.9933  -11.9890 C   0  0  0  0  0  0  0  0  0  0  0  0
   24.3427  -16.6434  -10.6432 C   0  0  0  0  0  0  0  0  0  0  0  0
   24.2247  -17.4944   -9.5336 C   0  0  0  0  0  0  0  0  0  0  0  0
   24.4087  -17.0792   -8.2691 N   0  0  0  0  0  0  0  0  0  0  0  0
   24.7869  -15.8029   -8.0964 C   0  0  0  0  0  0  0  0  0  0  0  0
   24.9745  -14.9229   -9.0948 N   0  0  0  0  0  0  0  0  0  0  0  0
   24.7410  -15.3383  -10.3443 C   0  0  0  0  0  0  0  0  0  0  0  0
   24.8950  -14.4304  -11.3879 C   0  0  0  0  0  0  0  0  0  0  0  0
   24.6748  -14.0841  -14.6786 H   0  0  0  0  0  0  0  0  0  0  0  0
   25.2881  -12.9765  -13.5363 H   0  0  0  0  0  0  0  0  0  0  0  0
   25.0202  -15.3343   -6.7132 C   0  0  0  0  0  0  0  0  0  0  0  0
   24.6940  -16.1342   -5.5991 C   0  0  0  0  0  0  0  0  0  0  0  0
   24.9139  -15.6935   -4.2885 C   0  0  0  0  0  0  0  0  0  0  0  0
   25.4675  -14.4369   -4.0673 C   0  0  0  0  0  0  0  0  0  0  0  0
   25.7663  -13.8378   -2.3004 Br  0  0  0  0  0  0  0  0  0  0  0  0
   25.8021  -13.6199   -5.1418 C   0  0  0  0  0  0  0  0  0  0  0  0
   25.5791  -14.0673   -6.4496 C   0  0  0  0  0  0  0  0  0  0  0  0
   23.9045  -18.8696   -9.6545 N   0  0  0  0  0  0  0  0  0  0  0  0
   24.3778  -19.5596   -9.1356 H   0  0  0  0  0  0  0  0  0  0  0  0
   22.8212  -19.2137  -10.6018 C   0  0  0  0  0  0  0  0  0  0  0  0
   22.9223  -20.4239  -11.4879 C   0  0  0  0  0  0  0  0  0  0  0  0
   21.9514  -20.4128  -10.3428 C   0  0  0  0  0  0  0  0  0  0  0  0
  1  2  1  0
  2  3  2  0
  3  4  1  0
  4  5  2  0
  5  6  1  0
  6 21  1  0
 21 23  1  0
 23 24  1  0
 24 25  1  0
  6  7  2  0
  7  8  1  0
  8 14  1  0
 14 15  2  0
 15 16  1  0
 16 17  2  0
 17 18  1  0
 17 19  1  0
 19 20  2  0
  8  9  2  0
  9 10  1  0
 10 11  2  0
 11  2  1  0
 10  5  1  0
 25 23  1  0
 20 14  1  0
  1 12  1  0
  1 13  1  0
 21 22  1  0
M  END
> <minimizedAffinity>
-7.99069

> <CNNscore>
0.2585147619

> <CNNaffinity>
6.2248854637

> <CNN_VS>
1.6092247963

> <CNNaffinity_variance>
0.0752494708

$$$$
