


 28 30  0  0  0  0  0  0  0  0999 V2000
    0.1655   10.2058    9.9420 C   0  0  0  0  0  0  0  0  0  0  0  0
   -0.3286   10.1159    8.4707 C   0  0  0  0  0  0  0  0  0  0  0  0
   -0.0826    8.7884    7.9870 O   0  0  0  0  0  0  0  0  0  0  0  0
   -1.8330   10.4282    8.3200 C   0  0  0  0  0  0  0  0  0  0  0  0
   -2.0361   11.8213    8.5710 O   0  0  0  0  0  0  0  0  0  0  0  0
   -2.7197    9.5821    9.2612 C   0  0  0  0  0  0  0  0  0  0  0  0
   -3.3103    8.4663    8.5899 O   0  0  0  0  0  0  0  0  0  0  0  0
   -1.9798    9.0949   10.4872 C   0  0  0  0  0  0  0  0  0  0  0  0
   -2.4302    8.2724   11.4452 N   0  0  0  0  0  0  0  0  0  0  0  0
   -1.4687    8.0599   12.4212 C   0  0  0  0  0  0  0  0  0  0  0  0
   -0.3797    8.7940   12.0132 C   0  0  0  0  0  0  0  0  0  0  0  0
   -0.7156    9.3930   10.8142 N   0  0  0  0  0  0  0  0  0  0  0  0
   -0.5830    8.1518    8.5211 H   0  0  0  0  0  0  0  0  0  0  0  0
   -1.7652   12.0290    9.4790 H   0  0  0  0  0  0  0  0  0  0  0  0
   -2.6128    7.8597    8.2959 H   0  0  0  0  0  0  0  0  0  0  0  0
   -3.3289    7.8705   11.4545 H   0  0  0  0  0  0  0  0  0  0  0  0
    0.7234   12.5120    9.4203 O   0  0  0  0  0  0  0  0  0  0  0  0
    0.2703   11.6498   10.4689 C   0  0  0  0  0  0  0  0  0  0  0  0
    0.7887   13.4204    9.7541 H   0  0  0  0  0  0  0  0  0  0  0  0
   -1.6852    7.1940   13.6010 C   0  0  0  0  0  0  0  0  0  0  0  0
   -0.4539    7.1584   14.5044 C   0  0  0  0  0  0  0  0  0  0  0  0
    0.2783    5.8458   14.3862 C   0  0  0  0  0  0  0  0  0  0  0  0
    0.0524    4.8212   15.3175 C   0  0  0  0  0  0  0  0  0  0  0  0
    0.7174    3.5986   15.1981 C   0  0  0  0  0  0  0  0  0  0  0  0
    1.6071    3.3935   14.1461 C   0  0  0  0  0  0  0  0  0  0  0  0
    2.4245    1.8879   13.9988 Cl  0  0  0  0  0  0  0  0  0  0  0  0
    1.8382    4.4012   13.2123 C   0  0  0  0  0  0  0  0  0  0  0  0
    1.1744    5.6244   13.3310 C   0  0  0  0  0  0  0  0  0  0  0  0
 17 18  1  0
  1 18  1  0
  1  2  1  0
  2  3  1  0
  2  4  1  0
  4  5  1  0
  4  6  1  0
  6  7  1  0
  6  8  1  0
  8  9  1  0
  9 10  1  0
 10 20  1  0
 20 21  1  0
 21 22  1  0
 22 23  2  0
 23 24  1  0
 24 25  2  0
 25 26  1  0
 25 27  1  0
 27 28  2  0
 10 11  2  0
 11 12  1  0
 12  1  1  0
 12  8  2  0
 28 22  1  0
 17 19  1  0
  3 13  1  0
  5 14  1  0
  7 15  1  0
  9 16  1  0
M  CHG 1  12   1
M  END
> <minimizedAffinity>
-8.48499

> <CNNscore>
0.4807238877

> <CNNaffinity>
6.8448767662

> <CNN_VS>
3.2904958725

> <CNNaffinity_variance>
0.4164365828

$$$$



 28 30  0  0  0  0  0  0  0  0999 V2000
   -1.1296    8.3109    9.4584 C   0  0  0  0  0  0  0  0  0  0  0  0
   -2.0234    9.3903   10.1313 C   0  0  0  0  0  0  0  0  0  0  0  0
   -3.1541    8.7399   10.7273 O   0  0  0  0  0  0  0  0  0  0  0  0
   -1.2813   10.1933   11.2213 C   0  0  0  0  0  0  0  0  0  0  0  0
   -0.3081   11.0283   10.5884 O   0  0  0  0  0  0  0  0  0  0  0  0
   -0.6034    9.2902   12.2764 C   0  0  0  0  0  0  0  0  0  0  0  0
   -1.3785    9.1808   13.4728 O   0  0  0  0  0  0  0  0  0  0  0  0
   -0.2911    7.9057   11.7532 C   0  0  0  0  0  0  0  0  0  0  0  0
    0.2087    6.8643   12.4335 N   0  0  0  0  0  0  0  0  0  0  0  0
    0.3723    5.7579   11.6144 C   0  0  0  0  0  0  0  0  0  0  0  0
   -0.0645    6.1650   10.3755 C   0  0  0  0  0  0  0  0  0  0  0  0
   -0.4883    7.4742   10.5007 N   0  0  0  0  0  0  0  0  0  0  0  0
   -2.8488    8.1214   11.4094 H   0  0  0  0  0  0  0  0  0  0  0  0
    0.3351   10.4756   10.1176 H   0  0  0  0  0  0  0  0  0  0  0  0
   -2.2195    8.7402   13.2741 H   0  0  0  0  0  0  0  0  0  0  0  0
    0.4311    6.8829   13.3924 H   0  0  0  0  0  0  0  0  0  0  0  0
   -0.6860    9.8523    7.6337 O   0  0  0  0  0  0  0  0  0  0  0  0
   -0.0716    8.8959    8.5033 C   0  0  0  0  0  0  0  0  0  0  0  0
   -0.0183   10.2193    7.0334 H   0  0  0  0  0  0  0  0  0  0  0  0
    0.9046    4.4633   12.0932 C   0  0  0  0  0  0  0  0  0  0  0  0
    1.7316    4.6329   13.3663 C   0  0  0  0  0  0  0  0  0  0  0  0
    1.0154    4.0697   14.5675 C   0  0  0  0  0  0  0  0  0  0  0  0
    1.0004    2.6863   14.8002 C   0  0  0  0  0  0  0  0  0  0  0  0
    0.3521    2.1656   15.9226 C   0  0  0  0  0  0  0  0  0  0  0  0
   -0.2800    3.0247   16.8186 C   0  0  0  0  0  0  0  0  0  0  0  0
   -1.0768    2.3833   18.2007 Cl  0  0  0  0  0  0  0  0  0  0  0  0
   -0.2699    4.4007   16.6014 C   0  0  0  0  0  0  0  0  0  0  0  0
    0.3775    4.9227   15.4792 C   0  0  0  0  0  0  0  0  0  0  0  0
 17 18  1  0
  1 18  1  0
  1  2  1  0
  2  3  1  0
  2  4  1  0
  4  5  1  0
  4  6  1  0
  6  7  1  0
  6  8  1  0
  8  9  1  0
  9 10  1  0
 10 20  1  0
 20 21  1  0
 21 22  1  0
 22 23  2  0
 23 24  1  0
 24 25  2  0
 25 26  1  0
 25 27  1  0
 27 28  2  0
 10 11  2  0
 11 12  1  0
 12  1  1  0
 12  8  2  0
 28 22  1  0
 17 19  1  0
  3 13  1  0
  5 14  1  0
  7 15  1  0
  9 16  1  0
M  CHG 1  12   1
M  END
> <minimizedAffinity>
-7.30080

> <CNNscore>
0.4775930345

> <CNNaffinity>
6.1658115387

> <CNN_VS>
2.9447486401

> <CNNaffinity_variance>
0.4031713307

$$$$



 28 30  0  0  0  0  0  0  0  0999 V2000
    0.1289   10.0648   10.0320 C   0  0  0  0  0  0  0  0  0  0  0  0
   -0.2651    9.8980    8.5374 C   0  0  0  0  0  0  0  0  0  0  0  0
   -0.0655    8.5281    8.1629 O   0  0  0  0  0  0  0  0  0  0  0  0
   -1.7339   10.2806    8.2550 C   0  0  0  0  0  0  0  0  0  0  0  0
   -1.8707   11.6970    8.3968 O   0  0  0  0  0  0  0  0  0  0  0  0
   -2.7335    9.5531    9.1823 C   0  0  0  0  0  0  0  0  0  0  0  0
   -3.3409    8.4266    8.5450 O   0  0  0  0  0  0  0  0  0  0  0  0
   -2.1119    9.1144   10.4896 C   0  0  0  0  0  0  0  0  0  0  0  0
   -2.6766    8.3877   11.4643 N   0  0  0  0  0  0  0  0  0  0  0  0
   -1.8005    8.1927   12.5209 C   0  0  0  0  0  0  0  0  0  0  0  0
   -0.6436    8.8353   12.1467 C   0  0  0  0  0  0  0  0  0  0  0  0
   -0.8582    9.3653   10.8888 N   0  0  0  0  0  0  0  0  0  0  0  0
   -0.6392    7.9592    8.6998 H   0  0  0  0  0  0  0  0  0  0  0  0
   -1.6523   11.9535    9.3064 H   0  0  0  0  0  0  0  0  0  0  0  0
   -2.6620    7.7634    8.3448 H   0  0  0  0  0  0  0  0  0  0  0  0
   -3.5961    8.0372   11.4337 H   0  0  0  0  0  0  0  0  0  0  0  0
    1.0318   12.2520    9.4817 O   0  0  0  0  0  0  0  0  0  0  0  0
    0.2824   11.5346   10.4677 C   0  0  0  0  0  0  0  0  0  0  0  0
    1.1273   13.1770    9.7580 H   0  0  0  0  0  0  0  0  0  0  0  0
   -2.1505    7.4257   13.7366 C   0  0  0  0  0  0  0  0  0  0  0  0
   -1.0096    7.4326   14.7524 C   0  0  0  0  0  0  0  0  0  0  0  0
   -1.0850    6.2417   15.6736 C   0  0  0  0  0  0  0  0  0  0  0  0
   -0.5147    5.0164   15.2971 C   0  0  0  0  0  0  0  0  0  0  0  0
   -0.5688    3.9177   16.1580 C   0  0  0  0  0  0  0  0  0  0  0  0
   -1.1890    4.0396   17.3992 C   0  0  0  0  0  0  0  0  0  0  0  0
   -1.2543    2.6872   18.4590 Cl  0  0  0  0  0  0  0  0  0  0  0  0
   -1.7564    5.2514   17.7872 C   0  0  0  0  0  0  0  0  0  0  0  0
   -1.7036    6.3507   16.9271 C   0  0  0  0  0  0  0  0  0  0  0  0
 17 18  1  0
  1 18  1  0
  1  2  1  0
  2  3  1  0
  2  4  1  0
  4  5  1  0
  4  6  1  0
  6  7  1  0
  6  8  1  0
  8  9  1  0
  9 10  1  0
 10 20  1  0
 20 21  1  0
 21 22  1  0
 22 23  2  0
 23 24  1  0
 24 25  2  0
 25 26  1  0
 25 27  1  0
 27 28  2  0
 10 11  2  0
 11 12  1  0
 12  1  1  0
 12  8  2  0
 28 22  1  0
 17 19  1  0
  3 13  1  0
  5 14  1  0
  7 15  1  0
  9 16  1  0
M  CHG 1  12   1
M  END
> <minimizedAffinity>
-8.53559

> <CNNscore>
0.4263404906

> <CNNaffinity>
6.7319359779

> <CNN_VS>
2.8700969219

> <CNNaffinity_variance>
0.1851220131

$$$$



 28 30  0  0  0  0  0  0  0  0999 V2000
   -0.6392    9.2910    8.9663 C   0  0  0  0  0  0  0  0  0  0  0  0
   -1.8930    9.7983    9.7327 C   0  0  0  0  0  0  0  0  0  0  0  0
   -2.9254    8.8087    9.6247 O   0  0  0  0  0  0  0  0  0  0  0  0
   -1.6175   10.0668   11.2279 C   0  0  0  0  0  0  0  0  0  0  0  0
   -0.7723   11.2152   11.3360 O   0  0  0  0  0  0  0  0  0  0  0  0
   -0.9721    8.8604   11.9463 C   0  0  0  0  0  0  0  0  0  0  0  0
   -1.9275    8.0981   12.6881 O   0  0  0  0  0  0  0  0  0  0  0  0
   -0.2239    7.9447   11.0031 C   0  0  0  0  0  0  0  0  0  0  0  0
    0.3656    6.7752   11.2893 N   0  0  0  0  0  0  0  0  0  0  0  0
    0.9659    6.2245   10.1675 C   0  0  0  0  0  0  0  0  0  0  0  0
    0.7099    7.1171    9.1530 C   0  0  0  0  0  0  0  0  0  0  0  0
   -0.0421    8.1439    9.6912 N   0  0  0  0  0  0  0  0  0  0  0  0
   -2.6253    7.9823   10.0345 H   0  0  0  0  0  0  0  0  0  0  0  0
    0.0716   11.0385   10.8915 H   0  0  0  0  0  0  0  0  0  0  0  0
   -2.5724    7.7065   12.0783 H   0  0  0  0  0  0  0  0  0  0  0  0
    0.3715    6.3603   12.1821 H   0  0  0  0  0  0  0  0  0  0  0  0
   -0.0443   11.2725    7.6929 O   0  0  0  0  0  0  0  0  0  0  0  0
    0.4156   10.3863    8.7183 C   0  0  0  0  0  0  0  0  0  0  0  0
    0.6211   11.9612    7.5384 H   0  0  0  0  0  0  0  0  0  0  0  0
    1.6910    4.9352   10.1835 C   0  0  0  0  0  0  0  0  0  0  0  0
    0.7279    3.7502   10.2273 C   0  0  0  0  0  0  0  0  0  0  0  0
    1.4498    2.4649   10.5429 C   0  0  0  0  0  0  0  0  0  0  0  0
    1.3018    1.3454    9.7105 C   0  0  0  0  0  0  0  0  0  0  0  0
    1.9845    0.1598    9.9927 C   0  0  0  0  0  0  0  0  0  0  0  0
    2.8203    0.0893   11.1048 C   0  0  0  0  0  0  0  0  0  0  0  0
    3.6613   -1.3699   11.4511 Cl  0  0  0  0  0  0  0  0  0  0  0  0
    2.9790    1.1945   11.9380 C   0  0  0  0  0  0  0  0  0  0  0  0
    2.2964    2.3804   11.6572 C   0  0  0  0  0  0  0  0  0  0  0  0
 17 18  1  0
  1 18  1  0
  1  2  1  0
  2  3  1  0
  2  4  1  0
  4  5  1  0
  4  6  1  0
  6  7  1  0
  6  8  1  0
  8  9  1  0
  9 10  1  0
 10 20  1  0
 20 21  1  0
 21 22  1  0
 22 23  2  0
 23 24  1  0
 24 25  2  0
 25 26  1  0
 25 27  1  0
 27 28  2  0
 10 11  2  0
 11 12  1  0
 12  1  1  0
 12  8  2  0
 28 22  1  0
 17 19  1  0
  3 13  1  0
  5 14  1  0
  7 15  1  0
  9 16  1  0
M  CHG 1  12   1
M  END
> <minimizedAffinity>
-7.66551

> <CNNscore>
0.3098267913

> <CNNaffinity>
5.9604287148

> <CNN_VS>
1.8467005491

> <CNNaffinity_variance>
0.1127143577

$$$$



 28 30  0  0  0  0  0  0  0  0999 V2000
   -1.8266    9.4627   10.1727 C   0  0  0  0  0  0  0  0  0  0  0  0
   -0.4060    9.7912    9.6334 C   0  0  0  0  0  0  0  0  0  0  0  0
    0.2613   10.6299   10.5862 O   0  0  0  0  0  0  0  0  0  0  0  0
    0.4536    8.5315    9.3933 C   0  0  0  0  0  0  0  0  0  0  0  0
   -0.0838    7.8198    8.2754 O   0  0  0  0  0  0  0  0  0  0  0  0
    0.5239    7.6071   10.6298 C   0  0  0  0  0  0  0  0  0  0  0  0
    1.7349    7.7838   11.3690 O   0  0  0  0  0  0  0  0  0  0  0  0
   -0.6586    7.7743   11.5579 C   0  0  0  0  0  0  0  0  0  0  0  0
   -0.8553    7.1937   12.7501 N   0  0  0  0  0  0  0  0  0  0  0  0
   -2.0651    7.5797   13.3063 C   0  0  0  0  0  0  0  0  0  0  0  0
   -2.6153    8.4481   12.3928 C   0  0  0  0  0  0  0  0  0  0  0  0
   -1.7185    8.5660   11.3483 N   0  0  0  0  0  0  0  0  0  0  0  0
    0.3515   10.1553   11.4274 H   0  0  0  0  0  0  0  0  0  0  0  0
   -0.9918    7.5429    8.4746 H   0  0  0  0  0  0  0  0  0  0  0  0
    1.7646    8.6832   11.7308 H   0  0  0  0  0  0  0  0  0  0  0  0
   -0.2215    6.5724   13.1763 H   0  0  0  0  0  0  0  0  0  0  0  0
   -2.6196    9.5712    7.8789 O   0  0  0  0  0  0  0  0  0  0  0  0
   -2.7633    8.8562    9.1103 C   0  0  0  0  0  0  0  0  0  0  0  0
   -3.2100    9.1878    7.2116 H   0  0  0  0  0  0  0  0  0  0  0  0
   -2.5470    7.0979   14.6194 C   0  0  0  0  0  0  0  0  0  0  0  0
   -3.5087    5.9208   14.4668 C   0  0  0  0  0  0  0  0  0  0  0  0
   -2.8823    4.6330   14.9379 C   0  0  0  0  0  0  0  0  0  0  0  0
   -3.0954    3.4402   14.2307 C   0  0  0  0  0  0  0  0  0  0  0  0
   -2.5007    2.2503   14.6568 C   0  0  0  0  0  0  0  0  0  0  0  0
   -1.6880    2.2479   15.7881 C   0  0  0  0  0  0  0  0  0  0  0  0
   -0.9553    0.7831   16.3115 Cl  0  0  0  0  0  0  0  0  0  0  0  0
   -1.4652    3.4259   16.4978 C   0  0  0  0  0  0  0  0  0  0  0  0
   -2.0598    4.6164   16.0732 C   0  0  0  0  0  0  0  0  0  0  0  0
 17 18  1  0
  1 18  1  0
  1  2  1  0
  2  3  1  0
  2  4  1  0
  4  5  1  0
  4  6  1  0
  6  7  1  0
  6  8  1  0
  8  9  1  0
  9 10  1  0
 10 20  1  0
 20 21  1  0
 21 22  1  0
 22 23  2  0
 23 24  1  0
 24 25  2  0
 25 26  1  0
 25 27  1  0
 27 28  2  0
 10 11  2  0
 11 12  1  0
 12  1  1  0
 12  8  2  0
 28 22  1  0
 17 19  1  0
  3 13  1  0
  5 14  1  0
  7 15  1  0
  9 16  1  0
M  CHG 1  12   1
M  END
> <minimizedAffinity>
-7.69170

> <CNNscore>
0.2621965408

> <CNNaffinity>
5.9842076302

> <CNN_VS>
1.5690385103

> <CNNaffinity_variance>
0.5574239492

$$$$



 28 30  0  0  0  0  0  0  0  0999 V2000
   -0.7266    7.5112    9.4828 C   0  0  0  0  0  0  0  0  0  0  0  0
   -1.5396    8.7400    8.9867 C   0  0  0  0  0  0  0  0  0  0  0  0
   -2.8222    8.7278    9.6281 O   0  0  0  0  0  0  0  0  0  0  0  0
   -0.8452   10.0848    9.2913 C   0  0  0  0  0  0  0  0  0  0  0  0
    0.3145   10.1964    8.4622 O   0  0  0  0  0  0  0  0  0  0  0  0
   -0.4537   10.2358   10.7786 C   0  0  0  0  0  0  0  0  0  0  0  0
   -1.3918   11.0319   11.5068 O   0  0  0  0  0  0  0  0  0  0  0  0
   -0.2748    8.9067   11.4783 C   0  0  0  0  0  0  0  0  0  0  0  0
   -0.0267    8.6897   12.7777 N   0  0  0  0  0  0  0  0  0  0  0  0
    0.0865    7.3351   13.0507 C   0  0  0  0  0  0  0  0  0  0  0  0
   -0.1149    6.7109   11.8419 C   0  0  0  0  0  0  0  0  0  0  0  0
   -0.3596    7.6983   10.9069 N   0  0  0  0  0  0  0  0  0  0  0  0
   -2.7044    8.8015   10.5881 H   0  0  0  0  0  0  0  0  0  0  0  0
    0.9299    9.4755    8.6682 H   0  0  0  0  0  0  0  0  0  0  0  0
   -2.2524   10.5846   11.5220 H   0  0  0  0  0  0  0  0  0  0  0  0
    0.0636    9.4013   13.4520 H   0  0  0  0  0  0  0  0  0  0  0  0
    0.3208    6.0182    7.8779 O   0  0  0  0  0  0  0  0  0  0  0  0
    0.5243    7.2169    8.6328 C   0  0  0  0  0  0  0  0  0  0  0  0
    1.1093    5.8347    7.3436 H   0  0  0  0  0  0  0  0  0  0  0  0
    0.3576    6.7979   14.4021 C   0  0  0  0  0  0  0  0  0  0  0  0
   -0.8877    6.8464   15.2855 C   0  0  0  0  0  0  0  0  0  0  0  0
   -0.9681    5.6437   16.1909 C   0  0  0  0  0  0  0  0  0  0  0  0
   -1.7435    5.6859   17.3593 C   0  0  0  0  0  0  0  0  0  0  0  0
   -1.8324    4.5658   18.1892 C   0  0  0  0  0  0  0  0  0  0  0  0
   -1.1505    3.3986   17.8534 C   0  0  0  0  0  0  0  0  0  0  0  0
   -1.2612    2.0197   18.8746 Cl  0  0  0  0  0  0  0  0  0  0  0  0
   -0.3796    3.3418   16.6944 C   0  0  0  0  0  0  0  0  0  0  0  0
   -0.2894    4.4613   15.8639 C   0  0  0  0  0  0  0  0  0  0  0  0
 17 18  1  0
  1 18  1  0
  1  2  1  0
  2  3  1  0
  2  4  1  0
  4  5  1  0
  4  6  1  0
  6  7  1  0
  6  8  1  0
  8  9  1  0
  9 10  1  0
 10 20  1  0
 20 21  1  0
 21 22  1  0
 22 23  2  0
 23 24  1  0
 24 25  2  0
 25 26  1  0
 25 27  1  0
 27 28  2  0
 10 11  2  0
 11 12  1  0
 12  1  1  0
 12  8  2  0
 28 22  1  0
 17 19  1  0
  3 13  1  0
  5 14  1  0
  7 15  1  0
  9 16  1  0
M  CHG 1  12   1
M  END
> <minimizedAffinity>
-8.12647

> <CNNscore>
0.2324558347

> <CNNaffinity>
6.1570358276

> <CNN_VS>
1.4312388897

> <CNNaffinity_variance>
0.0893035308

$$$$



 28 30  0  0  0  0  0  0  0  0999 V2000
   -1.0996    9.1309    8.8760 C   0  0  0  0  0  0  0  0  0  0  0  0
   -2.0342    9.8180    9.9109 C   0  0  0  0  0  0  0  0  0  0  0  0
   -3.0939    8.9102   10.2422 O   0  0  0  0  0  0  0  0  0  0  0  0
   -1.3025   10.2215   11.2091 C   0  0  0  0  0  0  0  0  0  0  0  0
   -0.4136   11.3020   10.9136 O   0  0  0  0  0  0  0  0  0  0  0  0
   -0.5236    9.0502   11.8490 C   0  0  0  0  0  0  0  0  0  0  0  0
   -1.2397    8.4522   12.9324 O   0  0  0  0  0  0  0  0  0  0  0  0
   -0.1423    7.9808   10.8495 C   0  0  0  0  0  0  0  0  0  0  0  0
    0.4528    6.8044   11.0925 N   0  0  0  0  0  0  0  0  0  0  0  0
    0.6554    6.0897    9.9219 C   0  0  0  0  0  0  0  0  0  0  0  0
    0.1419    6.8866    8.9255 C   0  0  0  0  0  0  0  0  0  0  0  0
   -0.3619    8.0230    9.5289 N   0  0  0  0  0  0  0  0  0  0  0  0
   -2.7206    8.1106   10.6450 H   0  0  0  0  0  0  0  0  0  0  0  0
    0.2449   11.0104   10.2637 H   0  0  0  0  0  0  0  0  0  0  0  0
   -2.0573    8.0517   12.5976 H   0  0  0  0  0  0  0  0  0  0  0  0
    0.7129    6.4883   11.9879 H   0  0  0  0  0  0  0  0  0  0  0  0
   -0.7164   10.6122    6.9890 O   0  0  0  0  0  0  0  0  0  0  0  0
   -0.1227   10.1035    8.1878 C   0  0  0  0  0  0  0  0  0  0  0  0
   -0.0999   11.2242    6.5574 H   0  0  0  0  0  0  0  0  0  0  0  0
    1.2913    4.7546    9.8840 C   0  0  0  0  0  0  0  0  0  0  0  0
    1.6999    4.2879   11.2801 C   0  0  0  0  0  0  0  0  0  0  0  0
    0.5455    3.6450   12.0059 C   0  0  0  0  0  0  0  0  0  0  0  0
   -0.2963    2.7415   11.3401 C   0  0  0  0  0  0  0  0  0  0  0  0
   -1.3553    2.1321   12.0171 C   0  0  0  0  0  0  0  0  0  0  0  0
   -1.5750    2.4197   13.3622 C   0  0  0  0  0  0  0  0  0  0  0  0
   -2.8779    1.6683   14.1955 Cl  0  0  0  0  0  0  0  0  0  0  0  0
   -0.7447    3.3123   14.0365 C   0  0  0  0  0  0  0  0  0  0  0  0
    0.3143    3.9229   13.3605 C   0  0  0  0  0  0  0  0  0  0  0  0
 17 18  1  0
  1 18  1  0
  1  2  1  0
  2  3  1  0
  2  4  1  0
  4  5  1  0
  4  6  1  0
  6  7  1  0
  6  8  1  0
  8  9  1  0
  9 10  1  0
 10 20  1  0
 20 21  1  0
 21 22  1  0
 22 23  2  0
 23 24  1  0
 24 25  2  0
 25 26  1  0
 25 27  1  0
 27 28  2  0
 10 11  2  0
 11 12  1  0
 12  1  1  0
 12  8  2  0
 28 22  1  0
 17 19  1  0
  3 13  1  0
  5 14  1  0
  7 15  1  0
  9 16  1  0
M  CHG 1  12   1
M  END
> <minimizedAffinity>
-7.07524

> <CNNscore>
0.2163062543

> <CNNaffinity>
6.1050972939

> <CNN_VS>
1.3205707073

> <CNNaffinity_variance>
0.1126028895

$$$$



 28 30  0  0  0  0  0  0  0  0999 V2000
   -3.1472    5.2055   15.8853 C   0  0  0  0  0  0  0  0  0  0  0  0
   -2.5981    5.5143   17.3066 C   0  0  0  0  0  0  0  0  0  0  0  0
   -2.1783    4.2834   17.9111 O   0  0  0  0  0  0  0  0  0  0  0  0
   -1.4038    6.4925   17.2918 C   0  0  0  0  0  0  0  0  0  0  0  0
   -1.8807    7.7876   16.9173 O   0  0  0  0  0  0  0  0  0  0  0  0
   -0.2722    6.0451   16.3392 C   0  0  0  0  0  0  0  0  0  0  0  0
    0.7990    5.4032   17.0356 O   0  0  0  0  0  0  0  0  0  0  0  0
   -0.7602    5.1418   15.2284 C   0  0  0  0  0  0  0  0  0  0  0  0
   -0.0266    4.5145   14.2981 N   0  0  0  0  0  0  0  0  0  0  0  0
   -0.8259    3.7805   13.4353 C   0  0  0  0  0  0  0  0  0  0  0  0
   -2.1101    3.9776   13.8861 C   0  0  0  0  0  0  0  0  0  0  0  0
   -2.0328    4.7926   14.9992 N   0  0  0  0  0  0  0  0  0  0  0  0
   -1.4663    3.8900   17.3827 H   0  0  0  0  0  0  0  0  0  0  0  0
   -2.2600    7.7470   16.0254 H   0  0  0  0  0  0  0  0  0  0  0  0
    0.4763    4.5822   17.4388 H   0  0  0  0  0  0  0  0  0  0  0  0
    0.9545    4.5681   14.2356 H   0  0  0  0  0  0  0  0  0  0  0  0
   -4.7424    6.9982   16.2644 O   0  0  0  0  0  0  0  0  0  0  0  0
   -3.9335    6.3747   15.2618 C   0  0  0  0  0  0  0  0  0  0  0  0
   -5.2365    7.7338   15.8698 H   0  0  0  0  0  0  0  0  0  0  0  0
   -0.2898    2.9837   12.3100 C   0  0  0  0  0  0  0  0  0  0  0  0
    1.2294    3.1070   12.2087 C   0  0  0  0  0  0  0  0  0  0  0  0
    1.8892    1.7529   12.1473 C   0  0  0  0  0  0  0  0  0  0  0  0
    1.6494    0.8009   13.1495 C   0  0  0  0  0  0  0  0  0  0  0  0
    2.2465   -0.4602   13.0836 C   0  0  0  0  0  0  0  0  0  0  0  0
    3.0821   -0.7764   12.0149 C   0  0  0  0  0  0  0  0  0  0  0  0
    3.8159   -2.3292   11.9336 Cl  0  0  0  0  0  0  0  0  0  0  0  0
    3.3262    0.1584   11.0111 C   0  0  0  0  0  0  0  0  0  0  0  0
    2.7302    1.4200   11.0761 C   0  0  0  0  0  0  0  0  0  0  0  0
 17 18  1  0
  1 18  1  0
  1  2  1  0
  2  3  1  0
  2  4  1  0
  4  5  1  0
  4  6  1  0
  6  7  1  0
  6  8  1  0
  8  9  1  0
  9 10  1  0
 10 20  1  0
 20 21  1  0
 21 22  1  0
 22 23  2  0
 23 24  1  0
 24 25  2  0
 25 26  1  0
 25 27  1  0
 27 28  2  0
 10 11  2  0
 11 12  1  0
 12  1  1  0
 12  8  2  0
 28 22  1  0
 17 19  1  0
  3 13  1  0
  5 14  1  0
  7 15  1  0
  9 16  1  0
M  CHG 1  12   1
M  END
> <minimizedAffinity>
-7.84040

> <CNNscore>
0.2050267011

> <CNNaffinity>
4.4414019585

> <CNN_VS>
0.9106059670

> <CNNaffinity_variance>
0.5795262456

$$$$



 28 30  0  0  0  0  0  0  0  0999 V2000
   -0.7949    9.2534    8.8969 C   0  0  0  0  0  0  0  0  0  0  0  0
   -1.9647    9.8602    9.7216 C   0  0  0  0  0  0  0  0  0  0  0  0
   -3.0787    8.9588    9.6650 O   0  0  0  0  0  0  0  0  0  0  0  0
   -1.5969   10.1022   11.2013 C   0  0  0  0  0  0  0  0  0  0  0  0
   -0.6561   11.1773   11.2666 O   0  0  0  0  0  0  0  0  0  0  0  0
   -1.0188    8.8455   11.8903 C   0  0  0  0  0  0  0  0  0  0  0  0
   -1.9969    8.1626   12.6784 O   0  0  0  0  0  0  0  0  0  0  0  0
   -0.3942    7.8735   10.9140 C   0  0  0  0  0  0  0  0  0  0  0  0
    0.1105    6.6590   11.1739 N   0  0  0  0  0  0  0  0  0  0  0  0
    0.6092    6.0633   10.0257 C   0  0  0  0  0  0  0  0  0  0  0  0
    0.3788    6.9759    9.0229 C   0  0  0  0  0  0  0  0  0  0  0  0
   -0.2598    8.0597    9.5945 N   0  0  0  0  0  0  0  0  0  0  0  0
   -2.8281    8.1098   10.0615 H   0  0  0  0  0  0  0  0  0  0  0  0
    0.1482   10.9329   10.7825 H   0  0  0  0  0  0  0  0  0  0  0  0
   -2.7001    7.8264   12.1010 H   0  0  0  0  0  0  0  0  0  0  0  0
    0.1251    6.2433   12.0662 H   0  0  0  0  0  0  0  0  0  0  0  0
   -0.0989   11.1780    7.5879 O   0  0  0  0  0  0  0  0  0  0  0  0
    0.3330   10.2591    8.5965 C   0  0  0  0  0  0  0  0  0  0  0  0
    0.6126   11.8101    7.4003 H   0  0  0  0  0  0  0  0  0  0  0  0
    1.2261    4.7188   10.0094 C   0  0  0  0  0  0  0  0  0  0  0  0
    2.4267    4.6409   10.9507 C   0  0  0  0  0  0  0  0  0  0  0  0
    2.1617    3.7089   12.1056 C   0  0  0  0  0  0  0  0  0  0  0  0
    1.7081    4.2126   13.3339 C   0  0  0  0  0  0  0  0  0  0  0  0
    1.4454    3.3475   14.3987 C   0  0  0  0  0  0  0  0  0  0  0  0
    1.6310    1.9761   14.2396 C   0  0  0  0  0  0  0  0  0  0  0  0
    1.3064    0.9115   15.5502 Cl  0  0  0  0  0  0  0  0  0  0  0  0
    2.0778    1.4622   13.0242 C   0  0  0  0  0  0  0  0  0  0  0  0
    2.3414    2.3262   11.9588 C   0  0  0  0  0  0  0  0  0  0  0  0
 17 18  1  0
  1 18  1  0
  1  2  1  0
  2  3  1  0
  2  4  1  0
  4  5  1  0
  4  6  1  0
  6  7  1  0
  6  8  1  0
  8  9  1  0
  9 10  1  0
 10 20  1  0
 20 21  1  0
 21 22  1  0
 22 23  2  0
 23 24  1  0
 24 25  2  0
 25 26  1  0
 25 27  1  0
 27 28  2  0
 10 11  2  0
 11 12  1  0
 12  1  1  0
 12  8  2  0
 28 22  1  0
 17 19  1  0
  3 13  1  0
  5 14  1  0
  7 15  1  0
  9 16  1  0
M  CHG 1  12   1
M  END
> <minimizedAffinity>
-7.96155

> <CNNscore>
0.2017485201

> <CNNaffinity>
5.8267402649

> <CNN_VS>
1.1755362749

> <CNNaffinity_variance>
0.0116096111

$$$$
