


 32 34  0  0  0  0  0  0  0  0999 V2000
   46.2772   15.1008    3.4252 C   0  0  0  0  0  0  0  0  0  0  0  0
   45.2791   16.0028    3.1000 C   0  0  0  0  0  0  0  0  0  0  0  0
   44.4969   15.5464    1.6386 S   0  0  0  0  0  0  0  0  0  0  0  0
   45.3735   14.0789    1.5237 C   0  0  0  0  0  0  0  0  0  0  0  0
   46.2749   13.9665    2.5600 C   0  0  0  0  0  0  0  0  0  0  0  0
   47.3752   12.4489    2.8607 Br  0  0  0  0  0  0  0  0  0  0  0  0
   45.0896   13.1699    0.4125 C   0  0  0  0  0  0  0  0  0  0  0  0
   44.6817   13.6760   -0.8244 C   0  0  0  0  0  0  0  0  0  0  0  0
   44.4431   12.8081   -1.8872 C   0  0  0  0  0  0  0  0  0  0  0  0
   44.5977   11.4289   -1.7169 C   0  0  0  0  0  0  0  0  0  0  0  0
   44.9641   10.8878   -0.4796 C   0  0  0  0  0  0  0  0  0  0  0  0
   45.2415   11.7823    0.5663 C   0  0  0  0  0  0  0  0  0  0  0  0
   45.2013    9.5256   -0.2702 N   0  0  0  0  0  0  0  0  0  0  0  0
   44.6179    9.0085    0.3310 H   0  0  0  0  0  0  0  0  0  0  0  0
   46.3154    8.8758   -0.9456 C   0  0  0  0  0  0  0  0  0  0  0  0
   47.3238    8.4220    0.0863 C   0  0  0  0  0  0  0  0  0  0  0  0
   47.3300    8.9746    1.3756 C   0  0  0  0  0  0  0  0  0  0  0  0
   48.2723    8.5572    2.3191 C   0  0  0  0  0  0  0  0  0  0  0  0
   49.2157    7.5904    1.9767 C   0  0  0  0  0  0  0  0  0  0  0  0
   50.3756    7.0788    3.1403 Cl  0  0  0  0  0  0  0  0  0  0  0  0
   49.2282    7.0385    0.6980 C   0  0  0  0  0  0  0  0  0  0  0  0
   48.2863    7.4549   -0.2451 C   0  0  0  0  0  0  0  0  0  0  0  0
   44.8328   17.2109    3.7552 C   0  0  0  0  0  0  0  0  0  0  0  0
   44.7170   17.4238    4.9551 O   0  0  0  0  0  0  0  0  0  0  0  0
   44.5702   18.2077    2.8806 O   0  0  0  0  0  0  0  0  0  0  0  0
   44.6551   18.0573    1.9596 H   0  0  0  0  0  0  0  0  0  0  0  0
   47.0681   15.2683    4.5161 O   0  0  0  0  0  0  0  0  0  0  0  0
   48.1829   16.1197    4.2712 C   0  0  0  0  0  0  0  0  0  0  0  0
   49.2017   18.1777    5.1908 O   0  0  0  0  0  0  0  0  0  0  0  0
   48.3073   17.3495    5.1631 C   0  0  0  0  0  0  0  0  0  0  0  0
   47.2617   17.4621    6.0132 O   0  0  0  0  0  0  0  0  0  0  0  0
   46.5725   16.8276    5.9948 H   0  0  0  0  0  0  0  0  0  0  0  0
 29 30  2  0
 30 31  1  0
 30 28  1  0
 28 27  1  0
 27  1  1  0
  1  2  2  0
  2 23  1  0
 23 24  2  0
 23 25  1  0
  2  3  1  0
  3  4  1  0
  4  7  1  0
  7  8  2  0
  8  9  1  0
  9 10  2  0
 10 11  1  0
 11 13  1  0
 13 15  1  0
 15 16  1  0
 16 17  2  0
 17 18  1  0
 18 19  2  0
 19 20  1  0
 19 21  1  0
 21 22  2  0
 11 12  2  0
  4  5  2  0
  5  6  1  0
  5  1  1  0
 12  7  1  0
 22 16  1  0
 31 32  1  0
 25 26  1  0
 13 14  1  0
M  END
> <minimizedAffinity>
-8.77931

> <CNNscore>
0.9529848695

> <CNNaffinity>
6.5489935875

> <CNN_VS>
6.2410917282

> <CNNaffinity_variance>
0.1064612344

$$$$



 32 34  0  0  0  0  0  0  0  0999 V2000
   46.0085   15.0323    2.8528 C   0  0  0  0  0  0  0  0  0  0  0  0
   45.0743   15.6631    2.0499 C   0  0  0  0  0  0  0  0  0  0  0  0
   44.6469   14.6684    0.7143 S   0  0  0  0  0  0  0  0  0  0  0  0
   45.5788   13.3490    1.2849 C   0  0  0  0  0  0  0  0  0  0  0  0
   46.2355   13.6828    2.4496 C   0  0  0  0  0  0  0  0  0  0  0  0
   47.2966   12.4777    3.4625 Br  0  0  0  0  0  0  0  0  0  0  0  0
   45.5770   12.0992    0.5235 C   0  0  0  0  0  0  0  0  0  0  0  0
   44.9355   12.0309   -0.7159 C   0  0  0  0  0  0  0  0  0  0  0  0
   44.9637   10.8479   -1.4501 C   0  0  0  0  0  0  0  0  0  0  0  0
   45.6214    9.7222   -0.9446 C   0  0  0  0  0  0  0  0  0  0  0  0
   46.2371    9.7457    0.3117 C   0  0  0  0  0  0  0  0  0  0  0  0
   46.2341   10.9602    1.0162 C   0  0  0  0  0  0  0  0  0  0  0  0
   46.9679    8.6747    0.8358 N   0  0  0  0  0  0  0  0  0  0  0  0
   46.8069    7.7596    0.5102 H   0  0  0  0  0  0  0  0  0  0  0  0
   47.9677    8.9195    1.8653 C   0  0  0  0  0  0  0  0  0  0  0  0
   48.3430    7.6057    2.5140 C   0  0  0  0  0  0  0  0  0  0  0  0
   48.6370    7.5396    3.8840 C   0  0  0  0  0  0  0  0  0  0  0  0
   48.9935    6.3235    4.4727 C   0  0  0  0  0  0  0  0  0  0  0  0
   49.0633    5.1699    3.6941 C   0  0  0  0  0  0  0  0  0  0  0  0
   49.5034    3.6738    4.4213 Cl  0  0  0  0  0  0  0  0  0  0  0  0
   48.7829    5.2208    2.3307 C   0  0  0  0  0  0  0  0  0  0  0  0
   48.4261    6.4358    1.7421 C   0  0  0  0  0  0  0  0  0  0  0  0
   44.4531   16.9641    2.1482 C   0  0  0  0  0  0  0  0  0  0  0  0
   44.8966   17.9781    2.6712 O   0  0  0  0  0  0  0  0  0  0  0  0
   43.2546   17.0141    1.5247 O   0  0  0  0  0  0  0  0  0  0  0  0
   42.9042   16.2448    1.1206 H   0  0  0  0  0  0  0  0  0  0  0  0
   46.5356   15.6347    3.9497 O   0  0  0  0  0  0  0  0  0  0  0  0
   47.7011   16.3997    3.6598 C   0  0  0  0  0  0  0  0  0  0  0  0
   49.4655   17.4803    5.0155 O   0  0  0  0  0  0  0  0  0  0  0  0
   48.2972   17.1942    4.8160 C   0  0  0  0  0  0  0  0  0  0  0  0
   47.3500   17.5868    5.6977 O   0  0  0  0  0  0  0  0  0  0  0  0
   46.4511   17.3688    5.5476 H   0  0  0  0  0  0  0  0  0  0  0  0
 29 30  2  0
 30 31  1  0
 30 28  1  0
 28 27  1  0
 27  1  1  0
  1  2  2  0
  2 23  1  0
 23 24  2  0
 23 25  1  0
  2  3  1  0
  3  4  1  0
  4  7  1  0
  7  8  2  0
  8  9  1  0
  9 10  2  0
 10 11  1  0
 11 13  1  0
 13 15  1  0
 15 16  1  0
 16 17  2  0
 17 18  1  0
 18 19  2  0
 19 20  1  0
 19 21  1  0
 21 22  2  0
 11 12  2  0
  4  5  2  0
  5  6  1  0
  5  1  1  0
 12  7  1  0
 22 16  1  0
 31 32  1  0
 25 26  1  0
 13 14  1  0
M  END
> <minimizedAffinity>
-8.06945

> <CNNscore>
0.9402822852

> <CNNaffinity>
6.3843188286

> <CNN_VS>
6.0030617714

> <CNNaffinity_variance>
0.1485306621

$$$$



 32 34  0  0  0  0  0  0  0  0999 V2000
   46.3178   15.0432    3.3829 C   0  0  0  0  0  0  0  0  0  0  0  0
   45.3262   15.9228    2.9851 C   0  0  0  0  0  0  0  0  0  0  0  0
   44.5536   15.3646    1.5542 S   0  0  0  0  0  0  0  0  0  0  0  0
   45.4248   13.8895    1.5531 C   0  0  0  0  0  0  0  0  0  0  0  0
   46.3175   13.8491    2.6022 C   0  0  0  0  0  0  0  0  0  0  0  0
   47.4090   12.3533    3.0210 Br  0  0  0  0  0  0  0  0  0  0  0  0
   45.1459   12.9034    0.5084 C   0  0  0  0  0  0  0  0  0  0  0  0
   45.0324   11.5487    0.8313 C   0  0  0  0  0  0  0  0  0  0  0  0
   44.7361   10.6187   -0.1621 C   0  0  0  0  0  0  0  0  0  0  0  0
   44.5644   11.0348   -1.4861 C   0  0  0  0  0  0  0  0  0  0  0  0
   44.7130   12.3780   -1.8487 C   0  0  0  0  0  0  0  0  0  0  0  0
   44.9692   13.3047   -0.8257 C   0  0  0  0  0  0  0  0  0  0  0  0
   44.4844   12.8606   -3.1413 N   0  0  0  0  0  0  0  0  0  0  0  0
   44.9169   12.4300   -3.9138 H   0  0  0  0  0  0  0  0  0  0  0  0
   43.6037   14.0029   -3.3388 C   0  0  0  0  0  0  0  0  0  0  0  0
   44.4288   15.2704   -3.3399 C   0  0  0  0  0  0  0  0  0  0  0  0
   45.6439   15.3355   -4.0378 C   0  0  0  0  0  0  0  0  0  0  0  0
   46.4052   16.5071   -4.0242 C   0  0  0  0  0  0  0  0  0  0  0  0
   45.9585   17.6164   -3.3088 C   0  0  0  0  0  0  0  0  0  0  0  0
   46.8983   19.0578   -3.2930 Cl  0  0  0  0  0  0  0  0  0  0  0  0
   44.7585   17.5648   -2.6036 C   0  0  0  0  0  0  0  0  0  0  0  0
   43.9972   16.3942   -2.6173 C   0  0  0  0  0  0  0  0  0  0  0  0
   44.8799   17.1769    3.5474 C   0  0  0  0  0  0  0  0  0  0  0  0
   44.6406   18.2264    2.9645 O   0  0  0  0  0  0  0  0  0  0  0  0
   44.6754   17.1026    4.8817 O   0  0  0  0  0  0  0  0  0  0  0  0
   44.8547   16.3050    5.3394 H   0  0  0  0  0  0  0  0  0  0  0  0
   47.1008   15.2863    4.4653 O   0  0  0  0  0  0  0  0  0  0  0  0
   48.1595   16.1991    4.1939 C   0  0  0  0  0  0  0  0  0  0  0  0
   49.1760   18.2213    5.1920 O   0  0  0  0  0  0  0  0  0  0  0  0
   48.2793   17.3976    5.1280 C   0  0  0  0  0  0  0  0  0  0  0  0
   47.2262   17.4849    5.9719 O   0  0  0  0  0  0  0  0  0  0  0  0
   46.5352   16.8536    5.9257 H   0  0  0  0  0  0  0  0  0  0  0  0
 29 30  2  0
 30 31  1  0
 30 28  1  0
 28 27  1  0
 27  1  1  0
  1  2  2  0
  2 23  1  0
 23 24  2  0
 23 25  1  0
  2  3  1  0
  3  4  1  0
  4  7  1  0
  7  8  2  0
  8  9  1  0
  9 10  2  0
 10 11  1  0
 11 13  1  0
 13 15  1  0
 15 16  1  0
 16 17  2  0
 17 18  1  0
 18 19  2  0
 19 20  1  0
 19 21  1  0
 21 22  2  0
 11 12  2  0
  4  5  2  0
  5  6  1  0
  5  1  1  0
 12  7  1  0
 22 16  1  0
 31 32  1  0
 25 26  1  0
 13 14  1  0
M  END
> <minimizedAffinity>
-8.71102

> <CNNscore>
0.9306399822

> <CNNaffinity>
6.6289887428

> <CNN_VS>
6.1692018509

> <CNNaffinity_variance>
0.0023926629

$$$$



 32 34  0  0  0  0  0  0  0  0999 V2000
   45.9859   15.0829    2.8984 C   0  0  0  0  0  0  0  0  0  0  0  0
   45.0856   15.6970    2.0453 C   0  0  0  0  0  0  0  0  0  0  0  0
   44.8273   14.7409    0.6400 S   0  0  0  0  0  0  0  0  0  0  0  0
   45.7841   13.4500    1.2342 C   0  0  0  0  0  0  0  0  0  0  0  0
   46.3228   13.7669    2.4624 C   0  0  0  0  0  0  0  0  0  0  0  0
   47.3654   12.5775    3.5124 Br  0  0  0  0  0  0  0  0  0  0  0  0
   45.9169   12.2370    0.4263 C   0  0  0  0  0  0  0  0  0  0  0  0
   44.7879   11.4807    0.1011 C   0  0  0  0  0  0  0  0  0  0  0  0
   44.9165   10.3446   -0.6940 C   0  0  0  0  0  0  0  0  0  0  0  0
   46.1752    9.9498   -1.1579 C   0  0  0  0  0  0  0  0  0  0  0  0
   47.3300   10.6617   -0.8151 C   0  0  0  0  0  0  0  0  0  0  0  0
   47.1734   11.8276   -0.0487 C   0  0  0  0  0  0  0  0  0  0  0  0
   48.6030   10.3548   -1.3062 N   0  0  0  0  0  0  0  0  0  0  0  0
   48.7331   10.1755   -2.2655 H   0  0  0  0  0  0  0  0  0  0  0  0
   49.7348   10.3017   -0.3920 C   0  0  0  0  0  0  0  0  0  0  0  0
   50.8256   11.2179   -0.9002 C   0  0  0  0  0  0  0  0  0  0  0  0
   52.1586   10.7847   -0.9568 C   0  0  0  0  0  0  0  0  0  0  0  0
   53.1615   11.6417   -1.4173 C   0  0  0  0  0  0  0  0  0  0  0  0
   52.8378   12.9366   -1.8176 C   0  0  0  0  0  0  0  0  0  0  0  0
   54.0749   13.9903   -2.3835 Cl  0  0  0  0  0  0  0  0  0  0  0  0
   51.5203   13.3846   -1.7591 C   0  0  0  0  0  0  0  0  0  0  0  0
   50.5175   12.5283   -1.2994 C   0  0  0  0  0  0  0  0  0  0  0  0
   44.3842   16.9566    2.1425 C   0  0  0  0  0  0  0  0  0  0  0  0
   44.7636   17.9971    2.6642 O   0  0  0  0  0  0  0  0  0  0  0  0
   43.1847   16.9309    1.5196 O   0  0  0  0  0  0  0  0  0  0  0  0
   42.8830   16.1407    1.1165 H   0  0  0  0  0  0  0  0  0  0  0  0
   46.3857   15.6637    4.0588 O   0  0  0  0  0  0  0  0  0  0  0  0
   47.6018   16.3928    3.9274 C   0  0  0  0  0  0  0  0  0  0  0  0
   49.0333   17.8579    5.3141 O   0  0  0  0  0  0  0  0  0  0  0  0
   47.9619   17.3261    5.0774 C   0  0  0  0  0  0  0  0  0  0  0  0
   46.9125   17.5331    5.9048 O   0  0  0  0  0  0  0  0  0  0  0  0
   46.0876   17.1261    5.7261 H   0  0  0  0  0  0  0  0  0  0  0  0
 29 30  2  0
 30 31  1  0
 30 28  1  0
 28 27  1  0
 27  1  1  0
  1  2  2  0
  2 23  1  0
 23 24  2  0
 23 25  1  0
  2  3  1  0
  3  4  1  0
  4  7  1  0
  7  8  2  0
  8  9  1  0
  9 10  2  0
 10 11  1  0
 11 13  1  0
 13 15  1  0
 15 16  1  0
 16 17  2  0
 17 18  1  0
 18 19  2  0
 19 20  1  0
 19 21  1  0
 21 22  2  0
 11 12  2  0
  4  5  2  0
  5  6  1  0
  5  1  1  0
 12  7  1  0
 22 16  1  0
 31 32  1  0
 25 26  1  0
 13 14  1  0
M  END
> <minimizedAffinity>
-7.38899

> <CNNscore>
0.9187596440

> <CNNaffinity>
6.4251303673

> <CNN_VS>
5.9031505585

> <CNNaffinity_variance>
0.1760590822

$$$$



 32 34  0  0  0  0  0  0  0  0999 V2000
   46.3720   14.9954    3.3573 C   0  0  0  0  0  0  0  0  0  0  0  0
   45.2993   15.8160    3.0553 C   0  0  0  0  0  0  0  0  0  0  0  0
   44.4617   15.2398    1.6688 S   0  0  0  0  0  0  0  0  0  0  0  0
   45.4238   13.8260    1.5656 C   0  0  0  0  0  0  0  0  0  0  0  0
   46.3916   13.8216    2.5466 C   0  0  0  0  0  0  0  0  0  0  0  0
   47.6050   12.3925    2.8458 Br  0  0  0  0  0  0  0  0  0  0  0  0
   45.1335   12.8471    0.5172 C   0  0  0  0  0  0  0  0  0  0  0  0
   44.9808   11.4959    0.8385 C   0  0  0  0  0  0  0  0  0  0  0  0
   44.6738   10.5736   -0.1588 C   0  0  0  0  0  0  0  0  0  0  0  0
   44.5306   10.9935   -1.4849 C   0  0  0  0  0  0  0  0  0  0  0  0
   44.7185   12.3323   -1.8455 C   0  0  0  0  0  0  0  0  0  0  0  0
   44.9849   13.2525   -0.8191 C   0  0  0  0  0  0  0  0  0  0  0  0
   44.5197   12.8203   -3.1410 N   0  0  0  0  0  0  0  0  0  0  0  0
   43.6948   13.3091   -3.3642 H   0  0  0  0  0  0  0  0  0  0  0  0
   45.5385   12.6019   -4.1577 C   0  0  0  0  0  0  0  0  0  0  0  0
   46.7017   13.5341   -3.9019 C   0  0  0  0  0  0  0  0  0  0  0  0
   46.5626   14.9194   -4.0730 C   0  0  0  0  0  0  0  0  0  0  0  0
   47.6457   15.7722   -3.8450 C   0  0  0  0  0  0  0  0  0  0  0  0
   48.8735   15.2441   -3.4508 C   0  0  0  0  0  0  0  0  0  0  0  0
   50.2060   16.2965   -3.1714 Cl  0  0  0  0  0  0  0  0  0  0  0  0
   49.0301   13.8701   -3.2850 C   0  0  0  0  0  0  0  0  0  0  0  0
   47.9478   13.0175   -3.5123 C   0  0  0  0  0  0  0  0  0  0  0  0
   44.8153   17.0248    3.6818 C   0  0  0  0  0  0  0  0  0  0  0  0
   44.6060   17.2312    4.8701 O   0  0  0  0  0  0  0  0  0  0  0  0
   44.6346   18.0304    2.7965 O   0  0  0  0  0  0  0  0  0  0  0  0
   44.7914   17.8852    1.8842 H   0  0  0  0  0  0  0  0  0  0  0  0
   47.2147   15.2657    4.3871 O   0  0  0  0  0  0  0  0  0  0  0  0
   48.1010   16.3462    4.1134 C   0  0  0  0  0  0  0  0  0  0  0  0
   49.1325   18.1984    5.3876 O   0  0  0  0  0  0  0  0  0  0  0  0
   48.2152   17.4202    5.1889 C   0  0  0  0  0  0  0  0  0  0  0  0
   47.1288   17.4436    5.9938 O   0  0  0  0  0  0  0  0  0  0  0  0
   46.4219   16.8471    5.8441 H   0  0  0  0  0  0  0  0  0  0  0  0
 29 30  2  0
 30 31  1  0
 30 28  1  0
 28 27  1  0
 27  1  1  0
  1  2  2  0
  2 23  1  0
 23 24  2  0
 23 25  1  0
  2  3  1  0
  3  4  1  0
  4  7  1  0
  7  8  2  0
  8  9  1  0
  9 10  2  0
 10 11  1  0
 11 13  1  0
 13 15  1  0
 15 16  1  0
 16 17  2  0
 17 18  1  0
 18 19  2  0
 19 20  1  0
 19 21  1  0
 21 22  2  0
 11 12  2  0
  4  5  2  0
  5  6  1  0
  5  1  1  0
 12  7  1  0
 22 16  1  0
 31 32  1  0
 25 26  1  0
 13 14  1  0
M  END
> <minimizedAffinity>
-8.36197

> <CNNscore>
0.9079157710

> <CNNaffinity>
6.2420558929

> <CNN_VS>
5.6672611237

> <CNNaffinity_variance>
0.0732557699

$$$$



 32 34  0  0  0  0  0  0  0  0999 V2000
   46.3676   14.9107    3.2912 C   0  0  0  0  0  0  0  0  0  0  0  0
   45.3656   15.7776    2.8916 C   0  0  0  0  0  0  0  0  0  0  0  0
   44.5871   15.1975    1.4726 S   0  0  0  0  0  0  0  0  0  0  0  0
   45.4708   13.7299    1.4807 C   0  0  0  0  0  0  0  0  0  0  0  0
   46.3717   13.7083    2.5233 C   0  0  0  0  0  0  0  0  0  0  0  0
   47.4791   12.2265    2.9498 Br  0  0  0  0  0  0  0  0  0  0  0  0
   45.1925   12.7303    0.4486 C   0  0  0  0  0  0  0  0  0  0  0  0
   44.9406   11.4027    0.8042 C   0  0  0  0  0  0  0  0  0  0  0  0
   44.6457   10.4625   -0.1799 C   0  0  0  0  0  0  0  0  0  0  0  0
   44.6138   10.8399   -1.5259 C   0  0  0  0  0  0  0  0  0  0  0  0
   44.9028   12.1516   -1.9179 C   0  0  0  0  0  0  0  0  0  0  0  0
   45.1552   13.0931   -0.9074 C   0  0  0  0  0  0  0  0  0  0  0  0
   44.8175   12.6012   -3.2395 N   0  0  0  0  0  0  0  0  0  0  0  0
   43.9915   13.0267   -3.5649 H   0  0  0  0  0  0  0  0  0  0  0  0
   45.9562   12.4370   -4.1316 C   0  0  0  0  0  0  0  0  0  0  0  0
   47.1740   12.0623   -3.3167 C   0  0  0  0  0  0  0  0  0  0  0  0
   47.5074   10.7169   -3.1010 C   0  0  0  0  0  0  0  0  0  0  0  0
   48.6281   10.3799   -2.3376 C   0  0  0  0  0  0  0  0  0  0  0  0
   49.4169   11.3853   -1.7818 C   0  0  0  0  0  0  0  0  0  0  0  0
   50.7961   10.9675   -0.8414 Cl  0  0  0  0  0  0  0  0  0  0  0  0
   49.0942   12.7257   -1.9795 C   0  0  0  0  0  0  0  0  0  0  0  0
   47.9745   13.0630   -2.7428 C   0  0  0  0  0  0  0  0  0  0  0  0
   44.9128   17.0338    3.4439 C   0  0  0  0  0  0  0  0  0  0  0  0
   44.7318   18.0959    2.8627 O   0  0  0  0  0  0  0  0  0  0  0  0
   44.6260   16.9466    4.7621 O   0  0  0  0  0  0  0  0  0  0  0  0
   44.7601   16.1393    5.2184 H   0  0  0  0  0  0  0  0  0  0  0  0
   47.1566   15.1721    4.3649 O   0  0  0  0  0  0  0  0  0  0  0  0
   48.0776   16.2335    4.1350 C   0  0  0  0  0  0  0  0  0  0  0  0
   47.2143   17.6798    5.9466 O   0  0  0  0  0  0  0  0  0  0  0  0
   48.0944   17.3540    5.1682 C   0  0  0  0  0  0  0  0  0  0  0  0
   49.2618   18.0365    5.1511 O   0  0  0  0  0  0  0  0  0  0  0  0
   49.9404   17.7890    4.5543 H   0  0  0  0  0  0  0  0  0  0  0  0
 29 30  2  0
 30 31  1  0
 30 28  1  0
 28 27  1  0
 27  1  1  0
  1  2  2  0
  2 23  1  0
 23 24  2  0
 23 25  1  0
  2  3  1  0
  3  4  1  0
  4  7  1  0
  7  8  2  0
  8  9  1  0
  9 10  2  0
 10 11  1  0
 11 13  1  0
 13 15  1  0
 15 16  1  0
 16 17  2  0
 17 18  1  0
 18 19  2  0
 19 20  1  0
 19 21  1  0
 21 22  2  0
 11 12  2  0
  4  5  2  0
  5  6  1  0
  5  1  1  0
 12  7  1  0
 22 16  1  0
 31 32  1  0
 25 26  1  0
 13 14  1  0
M  END
> <minimizedAffinity>
-8.02090

> <CNNscore>
0.8967520595

> <CNNaffinity>
6.3382315636

> <CNN_VS>
5.6838221550

> <CNNaffinity_variance>
0.1375479251

$$$$



 32 34  0  0  0  0  0  0  0  0999 V2000
   46.3427   14.9886    3.3316 C   0  0  0  0  0  0  0  0  0  0  0  0
   45.3375   15.8484    2.9245 C   0  0  0  0  0  0  0  0  0  0  0  0
   44.5389   15.2366    1.5302 S   0  0  0  0  0  0  0  0  0  0  0  0
   45.4191   13.7672    1.5618 C   0  0  0  0  0  0  0  0  0  0  0  0
   46.3337   13.7682    2.5927 C   0  0  0  0  0  0  0  0  0  0  0  0
   47.4430   12.2939    3.0399 Br  0  0  0  0  0  0  0  0  0  0  0  0
   45.1248   12.7440    0.5578 C   0  0  0  0  0  0  0  0  0  0  0  0
   45.0819   11.3949    0.9191 C   0  0  0  0  0  0  0  0  0  0  0  0
   44.7707   10.4285   -0.0341 C   0  0  0  0  0  0  0  0  0  0  0  0
   44.5135   10.8026   -1.3566 C   0  0  0  0  0  0  0  0  0  0  0  0
   44.5898   12.1405   -1.7593 C   0  0  0  0  0  0  0  0  0  0  0  0
   44.8626   13.1030   -0.7743 C   0  0  0  0  0  0  0  0  0  0  0  0
   44.2747   12.5798   -3.0492 N   0  0  0  0  0  0  0  0  0  0  0  0
   44.5275   13.4862   -3.3385 H   0  0  0  0  0  0  0  0  0  0  0  0
   43.5713   11.6900   -3.9619 C   0  0  0  0  0  0  0  0  0  0  0  0
   42.0868   11.7665   -3.6825 C   0  0  0  0  0  0  0  0  0  0  0  0
   41.3524   10.6098   -3.3817 C   0  0  0  0  0  0  0  0  0  0  0  0
   39.9791   10.6883   -3.1357 C   0  0  0  0  0  0  0  0  0  0  0  0
   39.3330   11.9216   -3.1951 C   0  0  0  0  0  0  0  0  0  0  0  0
   37.6417   12.0155   -2.8928 Cl  0  0  0  0  0  0  0  0  0  0  0  0
   40.0466   13.0780   -3.5012 C   0  0  0  0  0  0  0  0  0  0  0  0
   41.4192   13.0000   -3.7466 C   0  0  0  0  0  0  0  0  0  0  0  0
   44.8951   17.1187    3.4524 C   0  0  0  0  0  0  0  0  0  0  0  0
   44.6769   18.1579    2.8434 O   0  0  0  0  0  0  0  0  0  0  0  0
   44.6671   17.0749    4.7842 O   0  0  0  0  0  0  0  0  0  0  0  0
   44.8301   16.2854    5.2618 H   0  0  0  0  0  0  0  0  0  0  0  0
   47.1465   15.2734    4.3882 O   0  0  0  0  0  0  0  0  0  0  0  0
   48.1339   16.2548    4.0891 C   0  0  0  0  0  0  0  0  0  0  0  0
   49.2038   18.1873    5.2024 O   0  0  0  0  0  0  0  0  0  0  0  0
   48.2847   17.3940    5.0904 C   0  0  0  0  0  0  0  0  0  0  0  0
   47.2321   17.4625    5.9366 O   0  0  0  0  0  0  0  0  0  0  0  0
   46.5239   16.8546    5.8536 H   0  0  0  0  0  0  0  0  0  0  0  0
 29 30  2  0
 30 31  1  0
 30 28  1  0
 28 27  1  0
 27  1  1  0
  1  2  2  0
  2 23  1  0
 23 24  2  0
 23 25  1  0
  2  3  1  0
  3  4  1  0
  4  7  1  0
  7  8  2  0
  8  9  1  0
  9 10  2  0
 10 11  1  0
 11 13  1  0
 13 15  1  0
 15 16  1  0
 16 17  2  0
 17 18  1  0
 18 19  2  0
 19 20  1  0
 19 21  1  0
 21 22  2  0
 11 12  2  0
  4  5  2  0
  5  6  1  0
  5  1  1  0
 12  7  1  0
 22 16  1  0
 31 32  1  0
 25 26  1  0
 13 14  1  0
M  END
> <minimizedAffinity>
-8.71233

> <CNNscore>
0.8932349086

> <CNNaffinity>
6.3251490593

> <CNN_VS>
5.6498441696

> <CNNaffinity_variance>
0.1064355969

$$$$



 32 34  0  0  0  0  0  0  0  0999 V2000
   46.4243   14.9744    3.4205 C   0  0  0  0  0  0  0  0  0  0  0  0
   45.3692   15.8387    3.1863 C   0  0  0  0  0  0  0  0  0  0  0  0
   44.5098   15.3822    1.7689 S   0  0  0  0  0  0  0  0  0  0  0  0
   45.4380   13.9579    1.5575 C   0  0  0  0  0  0  0  0  0  0  0  0
   46.4115   13.8613    2.5281 C   0  0  0  0  0  0  0  0  0  0  0  0
   47.5931   12.3872    2.7150 Br  0  0  0  0  0  0  0  0  0  0  0  0
   45.1183   13.0632    0.4444 C   0  0  0  0  0  0  0  0  0  0  0  0
   44.8195   13.5868   -0.8161 C   0  0  0  0  0  0  0  0  0  0  0  0
   44.5465   12.7295   -1.8791 C   0  0  0  0  0  0  0  0  0  0  0  0
   44.5574   11.3446   -1.6862 C   0  0  0  0  0  0  0  0  0  0  0  0
   44.8115   10.7903   -0.4268 C   0  0  0  0  0  0  0  0  0  0  0  0
   45.1264   11.6701    0.6210 C   0  0  0  0  0  0  0  0  0  0  0  0
   44.9045    9.4149   -0.1909 N   0  0  0  0  0  0  0  0  0  0  0  0
   44.1570    8.8204   -0.4298 H   0  0  0  0  0  0  0  0  0  0  0  0
   46.1121    8.8666    0.4097 C   0  0  0  0  0  0  0  0  0  0  0  0
   47.2797    9.1014   -0.5226 C   0  0  0  0  0  0  0  0  0  0  0  0
   47.3097    8.5163   -1.7971 C   0  0  0  0  0  0  0  0  0  0  0  0
   48.3976    8.7298   -2.6476 C   0  0  0  0  0  0  0  0  0  0  0  0
   49.4624    9.5238   -2.2261 C   0  0  0  0  0  0  0  0  0  0  0  0
   50.8013    9.7844   -3.2750 Cl  0  0  0  0  0  0  0  0  0  0  0  0
   49.4516   10.1046   -0.9602 C   0  0  0  0  0  0  0  0  0  0  0  0
   48.3643    9.8920   -0.1101 C   0  0  0  0  0  0  0  0  0  0  0  0
   44.9174   17.0105    3.9011 C   0  0  0  0  0  0  0  0  0  0  0  0
   44.4910   17.0821    5.0463 O   0  0  0  0  0  0  0  0  0  0  0  0
   45.0516   18.1434    3.1757 O   0  0  0  0  0  0  0  0  0  0  0  0
   45.3769   18.1019    2.2979 H   0  0  0  0  0  0  0  0  0  0  0  0
   47.2796   15.1512    4.4602 O   0  0  0  0  0  0  0  0  0  0  0  0
   48.2961   16.1108    4.1890 C   0  0  0  0  0  0  0  0  0  0  0  0
   49.2136   18.1696    5.2079 O   0  0  0  0  0  0  0  0  0  0  0  0
   48.3285   17.3393    5.0907 C   0  0  0  0  0  0  0  0  0  0  0  0
   47.2037   17.4479    5.8334 O   0  0  0  0  0  0  0  0  0  0  0  0
   46.5213   16.8117    5.7460 H   0  0  0  0  0  0  0  0  0  0  0  0
 29 30  2  0
 30 31  1  0
 30 28  1  0
 28 27  1  0
 27  1  1  0
  1  2  2  0
  2 23  1  0
 23 24  2  0
 23 25  1  0
  2  3  1  0
  3  4  1  0
  4  7  1  0
  7  8  2  0
  8  9  1  0
  9 10  2  0
 10 11  1  0
 11 13  1  0
 13 15  1  0
 15 16  1  0
 16 17  2  0
 17 18  1  0
 18 19  2  0
 19 20  1  0
 19 21  1  0
 21 22  2  0
 11 12  2  0
  4  5  2  0
  5  6  1  0
  5  1  1  0
 12  7  1  0
 22 16  1  0
 31 32  1  0
 25 26  1  0
 13 14  1  0
M  END
> <minimizedAffinity>
-8.14929

> <CNNscore>
0.8911761642

> <CNNaffinity>
6.4268527031

> <CNN_VS>
5.7274580002

> <CNNaffinity_variance>
0.1209987327

$$$$



 32 34  0  0  0  0  0  0  0  0999 V2000
   46.3345   14.9616    3.3254 C   0  0  0  0  0  0  0  0  0  0  0  0
   45.3319   15.8430    2.9604 C   0  0  0  0  0  0  0  0  0  0  0  0
   44.5233   15.2952    1.5455 S   0  0  0  0  0  0  0  0  0  0  0  0
   45.3960   13.8214    1.5100 C   0  0  0  0  0  0  0  0  0  0  0  0
   46.3155   13.7739    2.5353 C   0  0  0  0  0  0  0  0  0  0  0  0
   47.4194   12.2764    2.9137 Br  0  0  0  0  0  0  0  0  0  0  0  0
   45.0914   12.8433    0.4648 C   0  0  0  0  0  0  0  0  0  0  0  0
   45.0924   11.4770    0.7575 C   0  0  0  0  0  0  0  0  0  0  0  0
   44.7713   10.5527   -0.2335 C   0  0  0  0  0  0  0  0  0  0  0  0
   44.4605   10.9868   -1.5259 C   0  0  0  0  0  0  0  0  0  0  0  0
   44.4917   12.3448   -1.8614 C   0  0  0  0  0  0  0  0  0  0  0  0
   44.7756   13.2627   -0.8376 C   0  0  0  0  0  0  0  0  0  0  0  0
   44.1227   12.8410   -3.1158 N   0  0  0  0  0  0  0  0  0  0  0  0
   43.8797   12.2210   -3.8410 H   0  0  0  0  0  0  0  0  0  0  0  0
   44.0996   14.2786   -3.3440 C   0  0  0  0  0  0  0  0  0  0  0  0
   42.6921   14.7910   -3.1345 C   0  0  0  0  0  0  0  0  0  0  0  0
   42.4609   16.0009   -2.4634 C   0  0  0  0  0  0  0  0  0  0  0  0
   41.1566   16.4611   -2.2647 C   0  0  0  0  0  0  0  0  0  0  0  0
   40.0780   15.7118   -2.7304 C   0  0  0  0  0  0  0  0  0  0  0  0
   38.4727   16.2804   -2.4836 Cl  0  0  0  0  0  0  0  0  0  0  0  0
   40.2906   14.5041   -3.3909 C   0  0  0  0  0  0  0  0  0  0  0  0
   41.5939   14.0440   -3.5902 C   0  0  0  0  0  0  0  0  0  0  0  0
   44.8986   17.0918    3.5442 C   0  0  0  0  0  0  0  0  0  0  0  0
   44.6975   18.1612    2.9833 O   0  0  0  0  0  0  0  0  0  0  0  0
   44.6580   16.9877    4.8704 O   0  0  0  0  0  0  0  0  0  0  0  0
   44.8080   16.1746    5.3113 H   0  0  0  0  0  0  0  0  0  0  0  0
   47.1449   15.1972    4.3891 O   0  0  0  0  0  0  0  0  0  0  0  0
   48.0813   16.2442    4.1556 C   0  0  0  0  0  0  0  0  0  0  0  0
   47.2385   17.6979    5.9708 O   0  0  0  0  0  0  0  0  0  0  0  0
   48.1072   17.3732    5.1793 C   0  0  0  0  0  0  0  0  0  0  0  0
   49.2682   18.0653    5.1356 O   0  0  0  0  0  0  0  0  0  0  0  0
   49.9381   17.8187    4.5287 H   0  0  0  0  0  0  0  0  0  0  0  0
 29 30  2  0
 30 31  1  0
 30 28  1  0
 28 27  1  0
 27  1  1  0
  1  2  2  0
  2 23  1  0
 23 24  2  0
 23 25  1  0
  2  3  1  0
  3  4  1  0
  4  7  1  0
  7  8  2  0
  8  9  1  0
  9 10  2  0
 10 11  1  0
 11 13  1  0
 13 15  1  0
 15 16  1  0
 16 17  2  0
 17 18  1  0
 18 19  2  0
 19 20  1  0
 19 21  1  0
 21 22  2  0
 11 12  2  0
  4  5  2  0
  5  6  1  0
  5  1  1  0
 12  7  1  0
 22 16  1  0
 31 32  1  0
 25 26  1  0
 13 14  1  0
M  END
> <minimizedAffinity>
-8.88148

> <CNNscore>
0.8823956847

> <CNNaffinity>
6.4587273598

> <CNN_VS>
5.6991529465

> <CNNaffinity_variance>
0.1187010705

$$$$
