


 26 27  0  0  0  0  0  0  0  0999 V2000
   25.5286   24.8091   27.7920 C   0  0  0  0  0  0  0  0  0  0  0  0
   26.9292   24.5200   27.7172 O   0  0  0  0  0  0  0  0  0  0  0  0
   27.2989   23.7588   26.5563 C   0  0  0  0  0  0  0  0  0  0  0  0
   26.9422   24.5396   25.2816 C   0  0  0  0  0  0  0  0  0  0  0  0
   27.2384   23.8079   24.0869 O   0  0  0  0  0  0  0  0  0  0  0  0
   25.4362   24.8203   25.2836 C   0  0  0  0  0  0  0  0  0  0  0  0
   25.0754   25.5983   24.1301 O   0  0  0  0  0  0  0  0  0  0  0  0
   25.0198   25.5744   26.5460 C   0  0  0  0  0  0  0  0  0  0  0  0
   23.5885   25.6981   26.5636 O   0  0  0  0  0  0  0  0  0  0  0  0
   26.7155   22.9911   24.0700 H   0  0  0  0  0  0  0  0  0  0  0  0
   25.5384   26.4502   24.1570 H   0  0  0  0  0  0  0  0  0  0  0  0
   23.1875   24.8149   26.5549 H   0  0  0  0  0  0  0  0  0  0  0  0
   24.8068   27.7088   32.4019 O   0  0  0  0  0  0  0  0  0  0  0  0
   24.9427   27.0416   31.3831 C   0  0  0  0  0  0  0  0  0  0  0  0
   25.8838   27.3350   30.4431 N   0  0  0  0  0  0  0  0  0  0  0  0
   26.1013   26.6578   29.2747 C   0  0  0  0  0  0  0  0  0  0  0  0
   26.9710   27.0731   28.5104 O   0  0  0  0  0  0  0  0  0  0  0  0
   25.2975   25.5410   29.0470 N   0  0  0  0  0  0  0  0  0  0  0  0
   24.2963   25.1739   29.9527 C   0  0  0  0  0  0  0  0  0  0  0  0
   23.1587   23.6963   29.6597 Br  0  0  0  0  0  0  0  0  0  0  0  0
   24.1074   25.8747   31.0794 C   0  0  0  0  0  0  0  0  0  0  0  0
   23.1610   25.5698   31.9910 F   0  0  0  0  0  0  0  0  0  0  0  0
   26.4640   28.1099   30.6220 H   0  0  0  0  0  0  0  0  0  0  0  0
   28.8040   23.4734   26.6485 C   0  0  0  0  0  0  0  0  0  0  0  0
   29.1095   22.2716   25.9402 O   0  0  0  0  0  0  0  0  0  0  0  0
   28.6184   21.5321   26.3312 H   0  0  0  0  0  0  0  0  0  0  0  0
 13 14  2  0
 14 15  1  0
 15 16  1  0
 16 17  2  0
 16 18  1  0
  1 18  1  0
  1  2  1  0
  2  3  1  0
  3 24  1  0
 24 25  1  0
  3  4  1  0
  4  5  1  0
  4  6  1  0
  6  7  1  0
  6  8  1  0
  8  9  1  0
 18 19  1  0
 19 20  1  0
 19 21  2  0
 21 22  1  0
 21 14  1  0
  8  1  1  0
 15 23  1  0
 25 26  1  0
  5 10  1  0
  7 11  1  0
  9 12  1  0
M  END
> <minimizedAffinity>
-9.69289

> <CNNscore>
0.4309662282

> <CNNaffinity>
4.7867393494

> <CNN_VS>
2.0629229546

> <CNNaffinity_variance>
0.0677507892

$$$$



 26 27  0  0  0  0  0  0  0  0999 V2000
   24.8562   24.0888   27.2774 C   0  0  0  0  0  0  0  0  0  0  0  0
   26.2724   23.9639   27.4493 O   0  0  0  0  0  0  0  0  0  0  0  0
   26.9737   23.6435   26.2371 C   0  0  0  0  0  0  0  0  0  0  0  0
   26.7530   24.7514   25.1950 C   0  0  0  0  0  0  0  0  0  0  0  0
   27.3849   24.4630   23.9429 O   0  0  0  0  0  0  0  0  0  0  0  0
   25.2500   24.8818   24.9286 C   0  0  0  0  0  0  0  0  0  0  0  0
   25.0024   25.9484   23.9975 O   0  0  0  0  0  0  0  0  0  0  0  0
   24.4851   25.1593   26.2223 C   0  0  0  0  0  0  0  0  0  0  0  0
   23.0759   25.1432   25.9425 O   0  0  0  0  0  0  0  0  0  0  0  0
   27.0089   23.6501   23.5706 H   0  0  0  0  0  0  0  0  0  0  0  0
   25.3130   26.7861   24.3753 H   0  0  0  0  0  0  0  0  0  0  0  0
   22.8267   24.2758   25.5870 H   0  0  0  0  0  0  0  0  0  0  0  0
   22.8180   25.3080   32.2312 O   0  0  0  0  0  0  0  0  0  0  0  0
   23.2492   25.0120   31.1230 C   0  0  0  0  0  0  0  0  0  0  0  0
   24.3143   25.6510   30.5638 N   0  0  0  0  0  0  0  0  0  0  0  0
   24.8565   25.3988   29.3336 C   0  0  0  0  0  0  0  0  0  0  0  0
   25.7999   26.0921   28.9561 O   0  0  0  0  0  0  0  0  0  0  0  0
   24.2756   24.3640   28.6007 N   0  0  0  0  0  0  0  0  0  0  0  0
   23.1693   23.6625   29.0920 C   0  0  0  0  0  0  0  0  0  0  0  0
   22.3271   22.2861   28.1125 Br  0  0  0  0  0  0  0  0  0  0  0  0
   22.6601   23.9522   30.2975 C   0  0  0  0  0  0  0  0  0  0  0  0
   21.5972   23.3112   30.8257 F   0  0  0  0  0  0  0  0  0  0  0  0
   24.7348   26.3638   31.0970 H   0  0  0  0  0  0  0  0  0  0  0  0
   28.4582   23.4788   26.5894 C   0  0  0  0  0  0  0  0  0  0  0  0
   29.0039   22.3745   25.8670 O   0  0  0  0  0  0  0  0  0  0  0  0
   28.5261   21.5645   26.1050 H   0  0  0  0  0  0  0  0  0  0  0  0
 13 14  2  0
 14 15  1  0
 15 16  1  0
 16 17  2  0
 16 18  1  0
  1 18  1  0
  1  2  1  0
  2  3  1  0
  3 24  1  0
 24 25  1  0
  3  4  1  0
  4  5  1  0
  4  6  1  0
  6  7  1  0
  6  8  1  0
  8  9  1  0
 18 19  1  0
 19 20  1  0
 19 21  2  0
 21 22  1  0
 21 14  1  0
  8  1  1  0
 15 23  1  0
 25 26  1  0
  5 10  1  0
  7 11  1  0
  9 12  1  0
M  END
> <minimizedAffinity>
-8.99602

> <CNNscore>
0.3552270830

> <CNNaffinity>
4.5020442009

> <CNN_VS>
1.5992480516

> <CNNaffinity_variance>
0.9194571972

$$$$



 26 27  0  0  0  0  0  0  0  0999 V2000
   37.1869   25.6472   31.7207 C   0  0  0  0  0  0  0  0  0  0  0  0
   35.8038   25.2936   31.6069 O   0  0  0  0  0  0  0  0  0  0  0  0
   35.4252   24.8662   30.2886 C   0  0  0  0  0  0  0  0  0  0  0  0
   36.2320   23.6206   29.8891 C   0  0  0  0  0  0  0  0  0  0  0  0
   35.9373   23.1769   28.5600 O   0  0  0  0  0  0  0  0  0  0  0  0
   37.7237   23.9671   29.9347 C   0  0  0  0  0  0  0  0  0  0  0  0
   38.5117   22.8072   29.6191 O   0  0  0  0  0  0  0  0  0  0  0  0
   38.1253   24.4844   31.3156 C   0  0  0  0  0  0  0  0  0  0  0  0
   39.4948   24.9164   31.2705 O   0  0  0  0  0  0  0  0  0  0  0  0
   36.1689   23.8748   27.9273 H   0  0  0  0  0  0  0  0  0  0  0  0
   38.3454   22.1144   30.2773 H   0  0  0  0  0  0  0  0  0  0  0  0
   39.5903   25.6202   30.6098 H   0  0  0  0  0  0  0  0  0  0  0  0
   38.1796   27.5204   36.7888 O   0  0  0  0  0  0  0  0  0  0  0  0
   37.9314   27.0859   35.6702 C   0  0  0  0  0  0  0  0  0  0  0  0
   38.6972   27.3916   34.5860 N   0  0  0  0  0  0  0  0  0  0  0  0
   38.4924   26.9652   33.3026 C   0  0  0  0  0  0  0  0  0  0  0  0
   39.2574   27.3617   32.4247 O   0  0  0  0  0  0  0  0  0  0  0  0
   37.4103   26.1091   33.0993 N   0  0  0  0  0  0  0  0  0  0  0  0
   36.5624   25.7526   34.1536 C   0  0  0  0  0  0  0  0  0  0  0  0
   35.0622   24.6328   33.9115 Br  0  0  0  0  0  0  0  0  0  0  0  0
   36.7913   26.2053   35.3941 C   0  0  0  0  0  0  0  0  0  0  0  0
   36.0117   25.8961   36.4506 F   0  0  0  0  0  0  0  0  0  0  0  0
   39.4738   27.9765   34.7413 H   0  0  0  0  0  0  0  0  0  0  0  0
   33.9163   24.5873   30.3067 C   0  0  0  0  0  0  0  0  0  0  0  0
   33.2872   25.2764   29.2256 O   0  0  0  0  0  0  0  0  0  0  0  0
   33.4380   26.2300   29.3186 H   0  0  0  0  0  0  0  0  0  0  0  0
 13 14  2  0
 14 15  1  0
 15 16  1  0
 16 17  2  0
 16 18  1  0
  1 18  1  0
  1  2  1  0
  2  3  1  0
  3 24  1  0
 24 25  1  0
  3  4  1  0
  4  5  1  0
  4  6  1  0
  6  7  1  0
  6  8  1  0
  8  9  1  0
 18 19  1  0
 19 20  1  0
 19 21  2  0
 21 22  1  0
 21 14  1  0
  8  1  1  0
 15 23  1  0
 25 26  1  0
  5 10  1  0
  7 11  1  0
  9 12  1  0
M  END
> <minimizedAffinity>
-8.91125

> <CNNscore>
0.2649940550

> <CNNaffinity>
4.2508664131

> <CNN_VS>
1.1264543533

> <CNNaffinity_variance>
1.3181463480

$$$$



 26 27  0  0  0  0  0  0  0  0999 V2000
   23.7260   22.3055   28.4494 C   0  0  0  0  0  0  0  0  0  0  0  0
   24.5135   21.1095   28.4283 O   0  0  0  0  0  0  0  0  0  0  0  0
   23.7321   19.9068   28.3462 C   0  0  0  0  0  0  0  0  0  0  0  0
   22.9005   19.9088   27.0537 C   0  0  0  0  0  0  0  0  0  0  0  0
   22.0573   18.7571   26.9399 O   0  0  0  0  0  0  0  0  0  0  0  0
   21.9913   21.1418   27.0573 C   0  0  0  0  0  0  0  0  0  0  0  0
   21.2372   21.2052   25.8353 O   0  0  0  0  0  0  0  0  0  0  0  0
   22.8072   22.4252   27.2090 C   0  0  0  0  0  0  0  0  0  0  0  0
   21.9063   23.5370   27.3378 O   0  0  0  0  0  0  0  0  0  0  0  0
   21.4276   18.7433   27.6776 H   0  0  0  0  0  0  0  0  0  0  0  0
   21.8454   21.2842   25.0838 H   0  0  0  0  0  0  0  0  0  0  0  0
   21.3413   23.4069   28.1155 H   0  0  0  0  0  0  0  0  0  0  0  0
   27.2784   26.4848   28.7562 O   0  0  0  0  0  0  0  0  0  0  0  0
   26.4697   25.5650   28.7145 C   0  0  0  0  0  0  0  0  0  0  0  0
   26.5367   24.5813   27.7748 N   0  0  0  0  0  0  0  0  0  0  0  0
   25.6765   23.5259   27.6432 C   0  0  0  0  0  0  0  0  0  0  0  0
   25.8531   22.7388   26.7146 O   0  0  0  0  0  0  0  0  0  0  0  0
   24.6529   23.4395   28.5865 N   0  0  0  0  0  0  0  0  0  0  0  0
   24.5005   24.4134   29.5794 C   0  0  0  0  0  0  0  0  0  0  0  0
   23.1028   24.3565   30.8468 Br  0  0  0  0  0  0  0  0  0  0  0  0
   25.3581   25.4399   29.6634 C   0  0  0  0  0  0  0  0  0  0  0  0
   25.2647   26.4080   30.5980 F   0  0  0  0  0  0  0  0  0  0  0  0
   27.2762   24.6351   27.1271 H   0  0  0  0  0  0  0  0  0  0  0  0
   24.7020   18.7187   28.3991 C   0  0  0  0  0  0  0  0  0  0  0  0
   25.9951   19.1715   28.8018 O   0  0  0  0  0  0  0  0  0  0  0  0
   26.3224   19.8244   28.1634 H   0  0  0  0  0  0  0  0  0  0  0  0
 13 14  2  0
 14 15  1  0
 15 16  1  0
 16 17  2  0
 16 18  1  0
  1 18  1  0
  1  2  1  0
  2  3  1  0
  3 24  1  0
 24 25  1  0
  3  4  1  0
  4  5  1  0
  4  6  1  0
  6  7  1  0
  6  8  1  0
  8  9  1  0
 18 19  1  0
 19 20  1  0
 19 21  2  0
 21 22  1  0
 21 14  1  0
  8  1  1  0
 15 23  1  0
 25 26  1  0
  5 10  1  0
  7 11  1  0
  9 12  1  0
M  END
> <minimizedAffinity>
-8.16258

> <CNNscore>
0.2464736551

> <CNNaffinity>
5.1260476112

> <CNN_VS>
1.2634357214

> <CNNaffinity_variance>
1.2272882462

$$$$



 26 27  0  0  0  0  0  0  0  0999 V2000
   26.0423   25.7947   27.4482 C   0  0  0  0  0  0  0  0  0  0  0  0
   25.2619   25.3189   26.3458 O   0  0  0  0  0  0  0  0  0  0  0  0
   25.8916   25.5110   25.0689 C   0  0  0  0  0  0  0  0  0  0  0  0
   27.2268   24.7514   25.0230 C   0  0  0  0  0  0  0  0  0  0  0  0
   27.9298   24.9480   23.7911 O   0  0  0  0  0  0  0  0  0  0  0  0
   28.1256   25.2708   26.1497 C   0  0  0  0  0  0  0  0  0  0  0  0
   29.3647   24.5427   26.1708 O   0  0  0  0  0  0  0  0  0  0  0  0
   27.4396   25.1307   27.5082 C   0  0  0  0  0  0  0  0  0  0  0  0
   28.2630   25.7474   28.5112 O   0  0  0  0  0  0  0  0  0  0  0  0
   28.1398   25.8891   23.6854 H   0  0  0  0  0  0  0  0  0  0  0  0
   29.1856   23.6045   26.3396 H   0  0  0  0  0  0  0  0  0  0  0  0
   28.3878   26.6849   28.2955 H   0  0  0  0  0  0  0  0  0  0  0  0
   23.1430   25.2060   32.0773 O   0  0  0  0  0  0  0  0  0  0  0  0
   23.7774   25.3080   31.0338 C   0  0  0  0  0  0  0  0  0  0  0  0
   24.5861   26.3735   30.7767 N   0  0  0  0  0  0  0  0  0  0  0  0
   25.3206   26.5784   29.6411 C   0  0  0  0  0  0  0  0  0  0  0  0
   25.9761   27.6150   29.5469 O   0  0  0  0  0  0  0  0  0  0  0  0
   25.2532   25.5788   28.6708 N   0  0  0  0  0  0  0  0  0  0  0  0
   24.4375   24.4556   28.8452 C   0  0  0  0  0  0  0  0  0  0  0  0
   24.2845   23.1030   27.5374 Br  0  0  0  0  0  0  0  0  0  0  0  0
   23.7225   24.3014   29.9682 C   0  0  0  0  0  0  0  0  0  0  0  0
   22.9201   23.2410   30.1952 F   0  0  0  0  0  0  0  0  0  0  0  0
   24.6480   27.0633   31.4764 H   0  0  0  0  0  0  0  0  0  0  0  0
   24.9166   25.0171   23.9916 C   0  0  0  0  0  0  0  0  0  0  0  0
   25.6490   24.5528   22.8570 O   0  0  0  0  0  0  0  0  0  0  0  0
   26.1830   25.2785   22.4978 H   0  0  0  0  0  0  0  0  0  0  0  0
 13 14  2  0
 14 15  1  0
 15 16  1  0
 16 17  2  0
 16 18  1  0
  1 18  1  0
  1  2  1  0
  2  3  1  0
  3 24  1  0
 24 25  1  0
  3  4  1  0
  4  5  1  0
  4  6  1  0
  6  7  1  0
  6  8  1  0
  8  9  1  0
 18 19  1  0
 19 20  1  0
 19 21  2  0
 21 22  1  0
 21 14  1  0
  8  1  1  0
 15 23  1  0
 25 26  1  0
  5 10  1  0
  7 11  1  0
  9 12  1  0
M  END
> <minimizedAffinity>
-7.78375

> <CNNscore>
0.2406653762

> <CNNaffinity>
4.3257985115

> <CNN_VS>
1.0410699844

> <CNNaffinity_variance>
0.4067395627

$$$$



 26 27  0  0  0  0  0  0  0  0999 V2000
   36.8711   26.2675   33.4460 C   0  0  0  0  0  0  0  0  0  0  0  0
   38.2867   26.0933   33.5749 O   0  0  0  0  0  0  0  0  0  0  0  0
   38.8756   26.9051   34.6036 C   0  0  0  0  0  0  0  0  0  0  0  0
   38.2626   26.5497   35.9674 C   0  0  0  0  0  0  0  0  0  0  0  0
   38.7719   27.3647   37.0289 O   0  0  0  0  0  0  0  0  0  0  0  0
   36.7496   26.7804   35.9002 C   0  0  0  0  0  0  0  0  0  0  0  0
   36.1353   26.4051   37.1443 O   0  0  0  0  0  0  0  0  0  0  0  0
   36.1204   25.9704   34.7671 C   0  0  0  0  0  0  0  0  0  0  0  0
   34.7305   26.3188   34.6620 O   0  0  0  0  0  0  0  0  0  0  0  0
   38.5521   28.2938   36.8571 H   0  0  0  0  0  0  0  0  0  0  0  0
   36.2869   25.4611   37.3080 H   0  0  0  0  0  0  0  0  0  0  0  0
   34.6480   27.2679   34.4796 H   0  0  0  0  0  0  0  0  0  0  0  0
   34.9910   23.0905   29.3776 O   0  0  0  0  0  0  0  0  0  0  0  0
   35.4384   23.8047   30.2672 C   0  0  0  0  0  0  0  0  0  0  0  0
   34.7525   24.0454   31.4192 N   0  0  0  0  0  0  0  0  0  0  0  0
   35.1643   24.8340   32.4582 C   0  0  0  0  0  0  0  0  0  0  0  0
   34.4089   24.9795   33.4181 O   0  0  0  0  0  0  0  0  0  0  0  0
   36.4238   25.4193   32.3305 N   0  0  0  0  0  0  0  0  0  0  0  0
   37.1921   25.2370   31.1755 C   0  0  0  0  0  0  0  0  0  0  0  0
   38.8813   26.0474   30.9453 Br  0  0  0  0  0  0  0  0  0  0  0  0
   36.7438   24.4673   30.1742 C   0  0  0  0  0  0  0  0  0  0  0  0
   37.4380   24.2522   29.0378 F   0  0  0  0  0  0  0  0  0  0  0  0
   33.8749   23.6092   31.5132 H   0  0  0  0  0  0  0  0  0  0  0  0
   40.3903   26.6607   34.5774 C   0  0  0  0  0  0  0  0  0  0  0  0
   40.6703   25.4540   33.8668 O   0  0  0  0  0  0  0  0  0  0  0  0
   40.2329   24.7095   34.3089 H   0  0  0  0  0  0  0  0  0  0  0  0
 13 14  2  0
 14 15  1  0
 15 16  1  0
 16 17  2  0
 16 18  1  0
  1 18  1  0
  1  2  1  0
  2  3  1  0
  3 24  1  0
 24 25  1  0
  3  4  1  0
  4  5  1  0
  4  6  1  0
  6  7  1  0
  6  8  1  0
  8  9  1  0
 18 19  1  0
 19 20  1  0
 19 21  2  0
 21 22  1  0
 21 14  1  0
  8  1  1  0
 15 23  1  0
 25 26  1  0
  5 10  1  0
  7 11  1  0
  9 12  1  0
M  END
> <minimizedAffinity>
-8.41603

> <CNNscore>
0.2356546670

> <CNNaffinity>
4.6245217323

> <CNN_VS>
1.0897901058

> <CNNaffinity_variance>
0.2404710054

$$$$



 26 27  0  0  0  0  0  0  0  0999 V2000
   26.6301   23.9803   26.7354 C   0  0  0  0  0  0  0  0  0  0  0  0
   27.8358   23.3193   27.1358 O   0  0  0  0  0  0  0  0  0  0  0  0
   28.6557   22.8992   26.0335 C   0  0  0  0  0  0  0  0  0  0  0  0
   29.0788   24.1190   25.1998 C   0  0  0  0  0  0  0  0  0  0  0  0
   29.8560   23.7587   24.0524 O   0  0  0  0  0  0  0  0  0  0  0  0
   27.8186   24.8280   24.6935 C   0  0  0  0  0  0  0  0  0  0  0  0
   28.1767   26.0073   23.9539 O   0  0  0  0  0  0  0  0  0  0  0  0
   26.9068   25.2231   25.8546 C   0  0  0  0  0  0  0  0  0  0  0  0
   25.6857   25.7636   25.3244 O   0  0  0  0  0  0  0  0  0  0  0  0
   29.3278   23.1912   23.4694 H   0  0  0  0  0  0  0  0  0  0  0  0
   28.6523   26.6214   24.5350 H   0  0  0  0  0  0  0  0  0  0  0  0
   25.2506   25.0968   24.7704 H   0  0  0  0  0  0  0  0  0  0  0  0
   23.9187   25.3902   31.3006 O   0  0  0  0  0  0  0  0  0  0  0  0
   24.5046   25.0479   30.2802 C   0  0  0  0  0  0  0  0  0  0  0  0
   25.5090   25.7898   29.7359 N   0  0  0  0  0  0  0  0  0  0  0  0
   26.2098   25.4952   28.5988 C   0  0  0  0  0  0  0  0  0  0  0  0
   27.0671   26.2904   28.2168 O   0  0  0  0  0  0  0  0  0  0  0  0
   25.8782   24.3015   27.9583 N   0  0  0  0  0  0  0  0  0  0  0  0
   24.8503   23.4837   28.4401 C   0  0  0  0  0  0  0  0  0  0  0  0
   24.3416   21.8835   27.5776 Br  0  0  0  0  0  0  0  0  0  0  0  0
   24.1786   23.8177   29.5507 C   0  0  0  0  0  0  0  0  0  0  0  0
   23.1800   23.0707   30.0648 F   0  0  0  0  0  0  0  0  0  0  0  0
   25.7544   26.6187   30.2069 H   0  0  0  0  0  0  0  0  0  0  0  0
   29.8669   22.1559   26.6128 C   0  0  0  0  0  0  0  0  0  0  0  0
   30.2721   21.1231   25.7136 O   0  0  0  0  0  0  0  0  0  0  0  0
   29.5413   20.4975   25.5893 H   0  0  0  0  0  0  0  0  0  0  0  0
 13 14  2  0
 14 15  1  0
 15 16  1  0
 16 17  2  0
 16 18  1  0
  1 18  1  0
  1  2  1  0
  2  3  1  0
  3 24  1  0
 24 25  1  0
  3  4  1  0
  4  5  1  0
  4  6  1  0
  6  7  1  0
  6  8  1  0
  8  9  1  0
 18 19  1  0
 19 20  1  0
 19 21  2  0
 21 22  1  0
 21 14  1  0
  8  1  1  0
 15 23  1  0
 25 26  1  0
  5 10  1  0
  7 11  1  0
  9 12  1  0
M  END
> <minimizedAffinity>
-6.64729

> <CNNscore>
0.2252912223

> <CNNaffinity>
4.4219474792

> <CNN_VS>
0.9962259531

> <CNNaffinity_variance>
0.4095290601

$$$$



 26 27  0  0  0  0  0  0  0  0999 V2000
   36.6258   25.3986   31.7429 C   0  0  0  0  0  0  0  0  0  0  0  0
   35.2722   25.0524   31.4283 O   0  0  0  0  0  0  0  0  0  0  0  0
   35.0739   24.6971   30.0506 C   0  0  0  0  0  0  0  0  0  0  0  0
   35.9346   23.4745   29.6950 C   0  0  0  0  0  0  0  0  0  0  0  0
   35.8210   23.1035   28.3167 O   0  0  0  0  0  0  0  0  0  0  0  0
   37.4048   23.8172   29.9560 C   0  0  0  0  0  0  0  0  0  0  0  0
   38.2353   22.6756   29.6856 O   0  0  0  0  0  0  0  0  0  0  0  0
   37.6172   24.2588   31.4036 C   0  0  0  0  0  0  0  0  0  0  0  0
   38.9778   24.6919   31.5633 O   0  0  0  0  0  0  0  0  0  0  0  0
   36.1295   23.8344   27.7586 H   0  0  0  0  0  0  0  0  0  0  0  0
   37.9881   21.9483   30.2779 H   0  0  0  0  0  0  0  0  0  0  0  0
   39.1550   25.4303   30.9597 H   0  0  0  0  0  0  0  0  0  0  0  0
   36.5829   26.6997   37.0801 O   0  0  0  0  0  0  0  0  0  0  0  0
   36.6219   26.4257   35.8863 C   0  0  0  0  0  0  0  0  0  0  0  0
   35.6399   25.7074   35.2737 N   0  0  0  0  0  0  0  0  0  0  0  0
   35.6029   25.3451   33.9552 C   0  0  0  0  0  0  0  0  0  0  0  0
   34.6589   24.6614   33.5622 O   0  0  0  0  0  0  0  0  0  0  0  0
   36.6621   25.7852   33.1617 N   0  0  0  0  0  0  0  0  0  0  0  0
   37.7208   26.5173   33.7100 C   0  0  0  0  0  0  0  0  0  0  0  0
   39.1939   27.0929   32.6796 Br  0  0  0  0  0  0  0  0  0  0  0  0
   37.7243   26.8385   35.0112 C   0  0  0  0  0  0  0  0  0  0  0  0
   38.7144   27.5428   35.5971 F   0  0  0  0  0  0  0  0  0  0  0  0
   34.8832   25.4211   35.8346 H   0  0  0  0  0  0  0  0  0  0  0  0
   33.5777   24.4185   29.8539 C   0  0  0  0  0  0  0  0  0  0  0  0
   32.9723   25.5109   29.1616 O   0  0  0  0  0  0  0  0  0  0  0  0
   33.0816   26.3231   29.6806 H   0  0  0  0  0  0  0  0  0  0  0  0
 13 14  2  0
 14 15  1  0
 15 16  1  0
 16 17  2  0
 16 18  1  0
  1 18  1  0
  1  2  1  0
  2  3  1  0
  3 24  1  0
 24 25  1  0
  3  4  1  0
  4  5  1  0
  4  6  1  0
  6  7  1  0
  6  8  1  0
  8  9  1  0
 18 19  1  0
 19 20  1  0
 19 21  2  0
 21 22  1  0
 21 14  1  0
  8  1  1  0
 15 23  1  0
 25 26  1  0
  5 10  1  0
  7 11  1  0
  9 12  1  0
M  END
> <minimizedAffinity>
-9.19303

> <CNNscore>
0.1794160008

> <CNNaffinity>
3.9330368042

> <CNN_VS>
0.7056497335

> <CNNaffinity_variance>
0.5808042884

$$$$



 26 27  0  0  0  0  0  0  0  0999 V2000
   37.7130   25.3421   33.2775 C   0  0  0  0  0  0  0  0  0  0  0  0
   36.8077   25.8838   34.2459 O   0  0  0  0  0  0  0  0  0  0  0  0
   37.4340   26.2225   35.4937 C   0  0  0  0  0  0  0  0  0  0  0  0
   38.5200   27.2854   35.2639 C   0  0  0  0  0  0  0  0  0  0  0  0
   39.2192   27.6266   36.4660 O   0  0  0  0  0  0  0  0  0  0  0  0
   39.5515   26.7275   34.2782 C   0  0  0  0  0  0  0  0  0  0  0  0
   40.5548   27.7178   33.9974 O   0  0  0  0  0  0  0  0  0  0  0  0
   38.8867   26.3035   32.9690 C   0  0  0  0  0  0  0  0  0  0  0  0
   39.8681   25.6701   32.1324 O   0  0  0  0  0  0  0  0  0  0  0  0
   39.6673   26.8397   36.8138 H   0  0  0  0  0  0  0  0  0  0  0  0
   40.1388   28.4926   33.5883 H   0  0  0  0  0  0  0  0  0  0  0  0
   40.2304   24.8948   32.5891 H   0  0  0  0  0  0  0  0  0  0  0  0
   34.5910   24.1710   28.9115 O   0  0  0  0  0  0  0  0  0  0  0  0
   35.3144   24.4212   29.8684 C   0  0  0  0  0  0  0  0  0  0  0  0
   34.8293   24.9471   31.0276 N   0  0  0  0  0  0  0  0  0  0  0  0
   35.5582   25.2684   32.1395 C   0  0  0  0  0  0  0  0  0  0  0  0
   34.9735   25.7716   33.0977 O   0  0  0  0  0  0  0  0  0  0  0  0
   36.9254   24.9989   32.0834 N   0  0  0  0  0  0  0  0  0  0  0  0
   37.5115   24.4712   30.9278 C   0  0  0  0  0  0  0  0  0  0  0  0
   39.3641   24.1337   30.7962 Br  0  0  0  0  0  0  0  0  0  0  0  0
   36.7619   24.1841   29.8545 C   0  0  0  0  0  0  0  0  0  0  0  0
   37.2679   23.6728   28.7134 F   0  0  0  0  0  0  0  0  0  0  0  0
   33.8596   25.1119   31.0691 H   0  0  0  0  0  0  0  0  0  0  0  0
   36.3369   26.7232   36.4427 C   0  0  0  0  0  0  0  0  0  0  0  0
   35.8092   25.6259   37.1889 O   0  0  0  0  0  0  0  0  0  0  0  0
   35.4322   24.9721   36.5796 H   0  0  0  0  0  0  0  0  0  0  0  0
 13 14  2  0
 14 15  1  0
 15 16  1  0
 16 17  2  0
 16 18  1  0
  1 18  1  0
  1  2  1  0
  2  3  1  0
  3 24  1  0
 24 25  1  0
  3  4  1  0
  4  5  1  0
  4  6  1  0
  6  7  1  0
  6  8  1  0
  8  9  1  0
 18 19  1  0
 19 20  1  0
 19 21  2  0
 21 22  1  0
 21 14  1  0
  8  1  1  0
 15 23  1  0
 25 26  1  0
  5 10  1  0
  7 11  1  0
  9 12  1  0
M  END
> <minimizedAffinity>
-8.13637

> <CNNscore>
0.1580883861

> <CNNaffinity>
3.9145596027

> <CNN_VS>
0.6188464165

> <CNNaffinity_variance>
0.5451971889

$$$$
