


 21 23  0  0  0  0  0  0  0  0999 V2000
    3.7231   41.1839   24.1711 N   0  0  0  0  0  0  0  0  0  0  0  0
    5.0491   41.4946   24.3386 C   0  0  0  0  0  0  0  0  0  0  0  0
    5.5320   42.2261   25.1904 O   0  0  0  0  0  0  0  0  0  0  0  0
    5.8512   40.8073   23.2709 C   0  0  0  0  0  0  0  0  0  0  0  0
    6.5997   41.7138   22.2760 C   0  0  0  0  0  0  0  0  0  0  0  0
    5.7212   42.8835   21.7932 C   0  0  0  0  0  0  0  0  0  0  0  0
    4.6736   42.1897   20.9113 C   0  0  0  0  0  0  0  0  0  0  0  0
    5.0762   40.7052   20.9951 C   0  0  0  0  0  0  0  0  0  0  0  0
    6.6052   40.8226   21.0275 C   0  0  0  0  0  0  0  0  0  0  0  0
    4.8044   40.1155   22.3919 C   0  0  0  0  0  0  0  0  0  0  0  0
    3.4882   40.4654   23.0265 C   0  0  0  0  0  0  0  0  0  0  0  0
    2.4043   40.1636   22.5500 O   0  0  0  0  0  0  0  0  0  0  0  0
    2.6667   41.7631   25.0207 C   0  0  0  0  0  0  0  0  0  0  0  0
    3.2913   42.7574   26.0004 C   0  0  0  0  0  0  0  0  0  0  0  0
    1.5375   42.3563   24.1491 C   0  0  0  0  0  0  0  0  0  0  0  0
    0.0652   42.3852   24.6732 C   0  0  0  0  0  0  0  0  0  0  0  0
   -0.9420   41.9821   23.5833 C   0  0  0  0  0  0  0  0  0  0  0  0
   -0.0124   41.2813   25.7657 C   0  0  0  0  0  0  0  0  0  0  0  0
   -0.3017   43.7323   25.3629 C   0  0  0  0  0  0  0  0  0  0  0  0
   -2.5568   43.8903   26.4798 C   0  0  0  0  0  0  0  0  0  0  0  0
   -1.7525   44.2094   25.2272 C   0  0  0  0  0  0  0  0  0  0  0  0
 20 21  1  0
 21 19  1  0
 19 16  1  0
 16 17  1  0
 16 18  1  0
 16 15  1  0
 15 13  1  0
 13 14  1  0
 13  1  1  0
  1  2  1  0
  2  3  2  0
  4  2  1  0
  4  5  1  0
  5  6  1  0
  6  7  1  0
  8  7  1  0
  8  9  1  0
  8 10  1  0
 10 11  1  0
 11 12  2  0
 11  1  1  0
 10  4  1  0
  9  5  1  0
M  END
> <minimizedAffinity>
-4.01376

> <CNNscore>
0.6214883924

> <CNNaffinity>
5.5268740654

> <CNN_VS>
3.4348881245

> <CNNaffinity_variance>
1.2312396765

$$$$



 21 23  0  0  0  0  0  0  0  0999 V2000
    1.9228   43.7136   28.6927 N   0  0  0  0  0  0  0  0  0  0  0  0
    3.1882   43.8043   28.1698 C   0  0  0  0  0  0  0  0  0  0  0  0
    3.7108   43.0419   27.3702 O   0  0  0  0  0  0  0  0  0  0  0  0
    3.8775   45.0002   28.7617 C   0  0  0  0  0  0  0  0  0  0  0  0
    5.1268   44.7249   29.6193 C   0  0  0  0  0  0  0  0  0  0  0  0
    4.9121   43.5417   30.5820 C   0  0  0  0  0  0  0  0  0  0  0  0
    3.9078   44.1002   31.5998 C   0  0  0  0  0  0  0  0  0  0  0  0
    3.6660   45.5364   31.0981 C   0  0  0  0  0  0  0  0  0  0  0  0
    5.0675   45.9062   30.5961 C   0  0  0  0  0  0  0  0  0  0  0  0
    2.8740   45.5564   29.7771 C   0  0  0  0  0  0  0  0  0  0  0  0
    1.6931   44.6319   29.6855 C   0  0  0  0  0  0  0  0  0  0  0  0
    0.7175   44.7037   30.4176 O   0  0  0  0  0  0  0  0  0  0  0  0
    1.0142   42.6004   28.3635 C   0  0  0  0  0  0  0  0  0  0  0  0
    1.0304   41.5784   29.5009 C   0  0  0  0  0  0  0  0  0  0  0  0
   -0.3918   43.1366   28.0130 C   0  0  0  0  0  0  0  0  0  0  0  0
   -0.9778   42.9419   26.5772 C   0  0  0  0  0  0  0  0  0  0  0  0
   -0.2656   41.8136   25.8126 C   0  0  0  0  0  0  0  0  0  0  0  0
   -2.4444   42.4678   26.7839 C   0  0  0  0  0  0  0  0  0  0  0  0
   -1.0407   44.2708   25.7676 C   0  0  0  0  0  0  0  0  0  0  0  0
   -1.5621   42.7719   23.8082 C   0  0  0  0  0  0  0  0  0  0  0  0
   -1.6195   44.1935   24.3499 C   0  0  0  0  0  0  0  0  0  0  0  0
 20 21  1  0
 21 19  1  0
 19 16  1  0
 16 17  1  0
 16 18  1  0
 16 15  1  0
 15 13  1  0
 13 14  1  0
 13  1  1  0
  1  2  1  0
  2  3  2  0
  4  2  1  0
  4  5  1  0
  5  6  1  0
  6  7  1  0
  8  7  1  0
  8  9  1  0
  8 10  1  0
 10 11  1  0
 11 12  2  0
 11  1  1  0
 10  4  1  0
  9  5  1  0
M  END
> <minimizedAffinity>
-5.16026

> <CNNscore>
0.5990896225

> <CNNaffinity>
5.1653208733

> <CNN_VS>
3.0944900513

> <CNNaffinity_variance>
0.0093847029

$$$$



 21 23  0  0  0  0  0  0  0  0999 V2000
   -2.5579   40.6706   26.6775 N   0  0  0  0  0  0  0  0  0  0  0  0
   -1.8612   40.3602   27.8181 C   0  0  0  0  0  0  0  0  0  0  0  0
   -1.3443   41.1433   28.6012 O   0  0  0  0  0  0  0  0  0  0  0  0
   -1.7951   38.8664   27.9596 C   0  0  0  0  0  0  0  0  0  0  0  0
   -0.3953   38.2268   27.9014 C   0  0  0  0  0  0  0  0  0  0  0  0
    0.4604   38.8221   26.7671 C   0  0  0  0  0  0  0  0  0  0  0  0
   -0.2204   38.2850   25.5004 C   0  0  0  0  0  0  0  0  0  0  0  0
   -1.3855   37.4470   26.0600 C   0  0  0  0  0  0  0  0  0  0  0  0
   -0.7351   36.8508   27.3148 C   0  0  0  0  0  0  0  0  0  0  0  0
   -2.4748   38.3320   26.6949 C   0  0  0  0  0  0  0  0  0  0  0  0
   -2.8721   39.5634   25.9311 C   0  0  0  0  0  0  0  0  0  0  0  0
   -3.3665   39.5383   24.8140 O   0  0  0  0  0  0  0  0  0  0  0  0
   -2.7358   42.0603   26.2188 C   0  0  0  0  0  0  0  0  0  0  0  0
   -3.7187   42.7785   27.1443 C   0  0  0  0  0  0  0  0  0  0  0  0
   -1.3666   42.7626   26.0804 C   0  0  0  0  0  0  0  0  0  0  0  0
   -0.7735   43.0689   24.6671 C   0  0  0  0  0  0  0  0  0  0  0  0
   -1.1180   41.9703   23.6476 C   0  0  0  0  0  0  0  0  0  0  0  0
   -1.4967   44.3562   24.1791 C   0  0  0  0  0  0  0  0  0  0  0  0
    0.7490   43.3931   24.7108 C   0  0  0  0  0  0  0  0  0  0  0  0
    2.6230   42.0095   23.7454 C   0  0  0  0  0  0  0  0  0  0  0  0
    1.7034   42.2155   24.9412 C   0  0  0  0  0  0  0  0  0  0  0  0
 20 21  1  0
 21 19  1  0
 19 16  1  0
 16 17  1  0
 16 18  1  0
 16 15  1  0
 15 13  1  0
 13 14  1  0
 13  1  1  0
  1  2  1  0
  2  3  2  0
  4  2  1  0
  4  5  1  0
  5  6  1  0
  6  7  1  0
  8  7  1  0
  8  9  1  0
  8 10  1  0
 10 11  1  0
 11 12  2  0
 11  1  1  0
 10  4  1  0
  9  5  1  0
M  END
> <minimizedAffinity>
-3.87788

> <CNNscore>
0.5787693858

> <CNNaffinity>
5.0294551849

> <CNN_VS>
2.9108946323

> <CNNaffinity_variance>
0.0192681234

$$$$



 21 23  0  0  0  0  0  0  0  0999 V2000
    1.3195   42.1673   28.8842 N   0  0  0  0  0  0  0  0  0  0  0  0
    1.2984   42.6378   30.1730 C   0  0  0  0  0  0  0  0  0  0  0  0
    0.3140   42.8227   30.8733 O   0  0  0  0  0  0  0  0  0  0  0  0
    2.7051   42.9323   30.6093 C   0  0  0  0  0  0  0  0  0  0  0  0
    3.0349   44.4003   30.9381 C   0  0  0  0  0  0  0  0  0  0  0  0
    2.4511   45.3675   29.8908 C   0  0  0  0  0  0  0  0  0  0  0  0
    3.3062   45.0892   28.6467 C   0  0  0  0  0  0  0  0  0  0  0  0
    4.2771   43.9949   29.1292 C   0  0  0  0  0  0  0  0  0  0  0  0
    4.5244   44.4458   30.5743 C   0  0  0  0  0  0  0  0  0  0  0  0
    3.5571   42.6540   29.3667 C   0  0  0  0  0  0  0  0  0  0  0  0
    2.5683   42.2256   28.3196 C   0  0  0  0  0  0  0  0  0  0  0  0
    2.8669   42.0030   27.1559 O   0  0  0  0  0  0  0  0  0  0  0  0
    0.0852   41.8540   28.1415 C   0  0  0  0  0  0  0  0  0  0  0  0
   -0.8256   40.9880   29.0128 C   0  0  0  0  0  0  0  0  0  0  0  0
   -0.5777   43.1504   27.6247 C   0  0  0  0  0  0  0  0  0  0  0  0
   -1.5904   43.1016   26.4352 C   0  0  0  0  0  0  0  0  0  0  0  0
   -3.0447   43.2575   26.9104 C   0  0  0  0  0  0  0  0  0  0  0  0
   -1.2801   44.3551   25.5688 C   0  0  0  0  0  0  0  0  0  0  0  0
   -1.3862   41.8571   25.5216 C   0  0  0  0  0  0  0  0  0  0  0  0
   -1.4586   41.4485   23.0346 C   0  0  0  0  0  0  0  0  0  0  0  0
   -0.6847   42.0894   24.1782 C   0  0  0  0  0  0  0  0  0  0  0  0
 20 21  1  0
 21 19  1  0
 19 16  1  0
 16 17  1  0
 16 18  1  0
 16 15  1  0
 15 13  1  0
 13 14  1  0
 13  1  1  0
  1  2  1  0
  2  3  2  0
  4  2  1  0
  4  5  1  0
  5  6  1  0
  6  7  1  0
  8  7  1  0
  8  9  1  0
  8 10  1  0
 10 11  1  0
 11 12  2  0
 11  1  1  0
 10  4  1  0
  9  5  1  0
M  END
> <minimizedAffinity>
-4.28120

> <CNNscore>
0.5331823230

> <CNNaffinity>
5.0890789032

> <CNN_VS>
2.7134068012

> <CNNaffinity_variance>
0.0052583758

$$$$



 21 23  0  0  0  0  0  0  0  0999 V2000
    2.6366   43.0410   27.1347 N   0  0  0  0  0  0  0  0  0  0  0  0
    2.3089   42.3512   28.2748 C   0  0  0  0  0  0  0  0  0  0  0  0
    1.4229   41.5192   28.4030 O   0  0  0  0  0  0  0  0  0  0  0  0
    3.2062   42.7996   29.3926 C   0  0  0  0  0  0  0  0  0  0  0  0
    2.5281   43.4933   30.5888 C   0  0  0  0  0  0  0  0  0  0  0  0
    1.4745   44.5210   30.1337 C   0  0  0  0  0  0  0  0  0  0  0  0
    2.3252   45.6410   29.5187 C   0  0  0  0  0  0  0  0  0  0  0  0
    3.7646   45.1209   29.6937 C   0  0  0  0  0  0  0  0  0  0  0  0
    3.6554   44.4231   31.0553 C   0  0  0  0  0  0  0  0  0  0  0  0
    4.0545   43.9173   28.7773 C   0  0  0  0  0  0  0  0  0  0  0  0
    3.5717   44.0194   27.3581 C   0  0  0  0  0  0  0  0  0  0  0  0
    3.9557   44.8714   26.5710 O   0  0  0  0  0  0  0  0  0  0  0  0
    1.8877   42.8787   25.8753 C   0  0  0  0  0  0  0  0  0  0  0  0
    2.6964   42.0086   24.9122 C   0  0  0  0  0  0  0  0  0  0  0  0
    0.4623   42.3544   26.1585 C   0  0  0  0  0  0  0  0  0  0  0  0
   -0.7855   43.1148   25.6035 C   0  0  0  0  0  0  0  0  0  0  0  0
   -1.5029   43.9209   26.6992 C   0  0  0  0  0  0  0  0  0  0  0  0
   -0.2263   44.1568   24.5937 C   0  0  0  0  0  0  0  0  0  0  0  0
   -1.7515   42.1868   24.8093 C   0  0  0  0  0  0  0  0  0  0  0  0
   -0.7499   40.5657   23.1582 C   0  0  0  0  0  0  0  0  0  0  0  0
   -1.4102   41.9257   23.3376 C   0  0  0  0  0  0  0  0  0  0  0  0
 20 21  1  0
 21 19  1  0
 19 16  1  0
 16 17  1  0
 16 18  1  0
 16 15  1  0
 15 13  1  0
 13 14  1  0
 13  1  1  0
  1  2  1  0
  2  3  2  0
  4  2  1  0
  4  5  1  0
  5  6  1  0
  6  7  1  0
  8  7  1  0
  8  9  1  0
  8 10  1  0
 10 11  1  0
 11 12  2  0
 11  1  1  0
 10  4  1  0
  9  5  1  0
M  END
> <minimizedAffinity>
-4.81523

> <CNNscore>
0.5295139551

> <CNNaffinity>
5.1316652298

> <CNN_VS>
2.7172882557

> <CNNaffinity_variance>
0.1139324829

$$$$



 21 23  0  0  0  0  0  0  0  0999 V2000
   -1.7621   40.8563   24.3599 N   0  0  0  0  0  0  0  0  0  0  0  0
   -2.4661   41.2966   25.4522 C   0  0  0  0  0  0  0  0  0  0  0  0
   -3.6638   41.1663   25.6577 O   0  0  0  0  0  0  0  0  0  0  0  0
   -1.5290   42.0134   26.3816 C   0  0  0  0  0  0  0  0  0  0  0  0
   -1.7993   43.5111   26.6176 C   0  0  0  0  0  0  0  0  0  0  0  0
   -2.1216   44.2494   25.3045 C   0  0  0  0  0  0  0  0  0  0  0  0
   -0.7749   44.2509   24.5677 C   0  0  0  0  0  0  0  0  0  0  0  0
    0.1580   43.5122   25.5459 C   0  0  0  0  0  0  0  0  0  0  0  0
   -0.3774   44.0172   26.8917 C   0  0  0  0  0  0  0  0  0  0  0  0
   -0.1858   42.0139   25.6449 C   0  0  0  0  0  0  0  0  0  0  0  0
   -0.4641   41.2998   24.3526 C   0  0  0  0  0  0  0  0  0  0  0  0
    0.3548   41.1813   23.4535 O   0  0  0  0  0  0  0  0  0  0  0  0
   -2.4144   40.1752   23.2267 C   0  0  0  0  0  0  0  0  0  0  0  0
   -1.6331   40.4624   21.9439 C   0  0  0  0  0  0  0  0  0  0  0  0
   -2.5987   38.6723   23.5336 C   0  0  0  0  0  0  0  0  0  0  0  0
   -1.7375   37.6011   22.7894 C   0  0  0  0  0  0  0  0  0  0  0  0
   -2.0938   36.1705   23.2269 C   0  0  0  0  0  0  0  0  0  0  0  0
   -2.1379   37.7091   21.2906 C   0  0  0  0  0  0  0  0  0  0  0  0
   -0.2101   37.8929   22.8728 C   0  0  0  0  0  0  0  0  0  0  0  0
    1.7010   38.4208   21.3149 C   0  0  0  0  0  0  0  0  0  0  0  0
    0.6580   37.3864   21.7149 C   0  0  0  0  0  0  0  0  0  0  0  0
 20 21  1  0
 21 19  1  0
 19 16  1  0
 16 17  1  0
 16 18  1  0
 16 15  1  0
 15 13  1  0
 13 14  1  0
 13  1  1  0
  1  2  1  0
  2  3  2  0
  4  2  1  0
  4  5  1  0
  5  6  1  0
  6  7  1  0
  8  7  1  0
  8  9  1  0
  8 10  1  0
 10 11  1  0
 11 12  2  0
 11  1  1  0
 10  4  1  0
  9  5  1  0
M  END
> <minimizedAffinity>
-4.14205

> <CNNscore>
0.5047971606

> <CNNaffinity>
4.9959197044

> <CNN_VS>
2.5219261646

> <CNNaffinity_variance>
0.0015448350

$$$$



 21 23  0  0  0  0  0  0  0  0999 V2000
   -1.4888   40.3578   25.2768 N   0  0  0  0  0  0  0  0  0  0  0  0
   -0.2434   40.8203   24.9338 C   0  0  0  0  0  0  0  0  0  0  0  0
    0.8310   40.2888   25.1724 O   0  0  0  0  0  0  0  0  0  0  0  0
   -0.3887   42.1351   24.2225 C   0  0  0  0  0  0  0  0  0  0  0  0
    0.2325   43.3659   24.9090 C   0  0  0  0  0  0  0  0  0  0  0  0
   -0.0703   43.3939   26.4191 C   0  0  0  0  0  0  0  0  0  0  0  0
   -1.5754   43.6925   26.4657 C   0  0  0  0  0  0  0  0  0  0  0  0
   -1.9555   43.7986   24.9767 C   0  0  0  0  0  0  0  0  0  0  0  0
   -0.7017   44.4739   24.4066 C   0  0  0  0  0  0  0  0  0  0  0  0
   -1.8911   42.4315   24.2698 C   0  0  0  0  0  0  0  0  0  0  0  0
   -2.4829   41.2635   25.0067 C   0  0  0  0  0  0  0  0  0  0  0  0
   -3.6612   41.1867   25.3209 O   0  0  0  0  0  0  0  0  0  0  0  0
   -1.6810   39.1192   26.0529 C   0  0  0  0  0  0  0  0  0  0  0  0
   -2.0911   39.4743   27.4826 C   0  0  0  0  0  0  0  0  0  0  0  0
   -2.6651   38.1747   25.3273 C   0  0  0  0  0  0  0  0  0  0  0  0
   -2.1729   37.2712   24.1506 C   0  0  0  0  0  0  0  0  0  0  0  0
   -2.2500   37.9964   22.7967 C   0  0  0  0  0  0  0  0  0  0  0  0
   -0.6629   37.0164   24.4212 C   0  0  0  0  0  0  0  0  0  0  0  0
   -2.8707   35.8792   24.1281 C   0  0  0  0  0  0  0  0  0  0  0  0
   -2.9042   34.2053   22.2428 C   0  0  0  0  0  0  0  0  0  0  0  0
   -3.5451   35.4616   22.8160 C   0  0  0  0  0  0  0  0  0  0  0  0
 20 21  1  0
 21 19  1  0
 19 16  1  0
 16 17  1  0
 16 18  1  0
 16 15  1  0
 15 13  1  0
 13 14  1  0
 13  1  1  0
  1  2  1  0
  2  3  2  0
  4  2  1  0
  4  5  1  0
  5  6  1  0
  6  7  1  0
  8  7  1  0
  8  9  1  0
  8 10  1  0
 10 11  1  0
 11 12  2  0
 11  1  1  0
 10  4  1  0
  9  5  1  0
M  END
> <minimizedAffinity>
-3.84469

> <CNNscore>
0.4692606628

> <CNNaffinity>
4.7530350685

> <CNN_VS>
2.2304124832

> <CNNaffinity_variance>
0.0882398114

$$$$



 21 23  0  0  0  0  0  0  0  0999 V2000
    0.2531   42.3727   27.7239 N   0  0  0  0  0  0  0  0  0  0  0  0
   -1.1068   42.3519   27.5426 C   0  0  0  0  0  0  0  0  0  0  0  0
   -1.9093   41.6000   28.0758 O   0  0  0  0  0  0  0  0  0  0  0  0
   -1.4823   43.4027   26.5373 C   0  0  0  0  0  0  0  0  0  0  0  0
   -2.1137   42.9086   25.2224 C   0  0  0  0  0  0  0  0  0  0  0  0
   -1.3703   41.6851   24.6537 C   0  0  0  0  0  0  0  0  0  0  0  0
   -0.0296   42.2758   24.1953 C   0  0  0  0  0  0  0  0  0  0  0  0
   -0.1644   43.7670   24.5572 C   0  0  0  0  0  0  0  0  0  0  0  0
   -1.6493   44.0041   24.2543 C   0  0  0  0  0  0  0  0  0  0  0  0
   -0.1434   43.9912   26.0810 C   0  0  0  0  0  0  0  0  0  0  0  0
    0.8895   43.2274   26.8602 C   0  0  0  0  0  0  0  0  0  0  0  0
    2.0936   43.3566   26.6980 O   0  0  0  0  0  0  0  0  0  0  0  0
    0.9442   41.4086   28.5994 C   0  0  0  0  0  0  0  0  0  0  0  0
    1.6689   40.3717   27.7403 C   0  0  0  0  0  0  0  0  0  0  0  0
    1.8556   42.1484   29.6038 C   0  0  0  0  0  0  0  0  0  0  0  0
    1.2759   42.6837   30.9530 C   0  0  0  0  0  0  0  0  0  0  0  0
    0.0059   41.9260   31.3750 C   0  0  0  0  0  0  0  0  0  0  0  0
    2.3515   42.3610   32.0287 C   0  0  0  0  0  0  0  0  0  0  0  0
    1.0828   44.2290   30.9542 C   0  0  0  0  0  0  0  0  0  0  0  0
    2.9768   45.6881   30.1531 C   0  0  0  0  0  0  0  0  0  0  0  0
    1.6723   45.0033   29.7694 C   0  0  0  0  0  0  0  0  0  0  0  0
 20 21  1  0
 21 19  1  0
 19 16  1  0
 16 17  1  0
 16 18  1  0
 16 15  1  0
 15 13  1  0
 13 14  1  0
 13  1  1  0
  1  2  1  0
  2  3  2  0
  4  2  1  0
  4  5  1  0
  5  6  1  0
  6  7  1  0
  8  7  1  0
  8  9  1  0
  8 10  1  0
 10 11  1  0
 11 12  2  0
 11  1  1  0
 10  4  1  0
  9  5  1  0
M  END
> <minimizedAffinity>
-4.78248

> <CNNscore>
0.4587436616

> <CNNaffinity>
5.1079406738

> <CNN_VS>
2.3432354927

> <CNNaffinity_variance>
0.0655889958

$$$$



 21 23  0  0  0  0  0  0  0  0999 V2000
    1.8250   42.2755   27.4481 N   0  0  0  0  0  0  0  0  0  0  0  0
    2.0609   41.1452   28.1893 C   0  0  0  0  0  0  0  0  0  0  0  0
    1.2797   40.5816   28.9415 O   0  0  0  0  0  0  0  0  0  0  0  0
    3.4760   40.6968   27.9606 C   0  0  0  0  0  0  0  0  0  0  0  0
    4.4135   40.7139   29.1824 C   0  0  0  0  0  0  0  0  0  0  0  0
    4.2539   42.0036   30.0096 C   0  0  0  0  0  0  0  0  0  0  0  0
    4.8554   43.0795   29.0946 C   0  0  0  0  0  0  0  0  0  0  0  0
    5.2868   42.2780   27.8518 C   0  0  0  0  0  0  0  0  0  0  0  0
    5.7635   40.9729   28.5017 C   0  0  0  0  0  0  0  0  0  0  0  0
    4.0747   41.7714   27.0474 C   0  0  0  0  0  0  0  0  0  0  0  0
    2.9544   42.7487   26.8299 C   0  0  0  0  0  0  0  0  0  0  0  0
    3.0801   43.7992   26.2188 O   0  0  0  0  0  0  0  0  0  0  0  0
    0.5446   43.0036   27.5110 C   0  0  0  0  0  0  0  0  0  0  0  0
    0.6626   44.1525   28.5133 C   0  0  0  0  0  0  0  0  0  0  0  0
    0.1013   43.4393   26.0966 C   0  0  0  0  0  0  0  0  0  0  0  0
   -1.3736   43.2212   25.6272 C   0  0  0  0  0  0  0  0  0  0  0  0
   -2.3808   43.4560   26.7653 C   0  0  0  0  0  0  0  0  0  0  0  0
   -1.6455   44.3299   24.5712 C   0  0  0  0  0  0  0  0  0  0  0  0
   -1.5816   41.8534   24.9124 C   0  0  0  0  0  0  0  0  0  0  0  0
   -1.5155   40.9032   22.5778 C   0  0  0  0  0  0  0  0  0  0  0  0
   -0.7100   41.5729   23.6825 C   0  0  0  0  0  0  0  0  0  0  0  0
 20 21  1  0
 21 19  1  0
 19 16  1  0
 16 17  1  0
 16 18  1  0
 16 15  1  0
 15 13  1  0
 13 14  1  0
 13  1  1  0
  1  2  1  0
  2  3  2  0
  4  2  1  0
  4  5  1  0
  5  6  1  0
  6  7  1  0
  8  7  1  0
  8  9  1  0
  8 10  1  0
 10 11  1  0
 11 12  2  0
 11  1  1  0
 10  4  1  0
  9  5  1  0
M  END
> <minimizedAffinity>
-3.93044

> <CNNscore>
0.4484894574

> <CNNaffinity>
4.7805471420

> <CNN_VS>
2.1440250874

> <CNNaffinity_variance>
0.1441750675

$$$$
