


 17 18  0  0  0  0  0  0  0  0999 V2000
   13.8450    9.8598   -3.9390 C   0  0  0  0  0  0  0  0  0  0  0  0
   15.1939   10.1493   -3.7046 C   0  0  0  0  0  0  0  0  0  0  0  0
   15.6222   10.1003   -2.3760 C   0  0  0  0  0  0  0  0  0  0  0  0
   16.8907   10.3514   -1.9541 O   0  0  0  0  0  0  0  0  0  0  0  0
   16.8999   10.1971   -0.6063 C   0  0  0  0  0  0  0  0  0  0  0  0
   15.6469    9.8544   -0.1364 C   0  0  0  0  0  0  0  0  0  0  0  0
   14.8088    9.7885   -1.2929 C   0  0  0  0  0  0  0  0  0  0  0  0
   13.4573    9.4992   -1.5403 C   0  0  0  0  0  0  0  0  0  0  0  0
   13.0028    9.5420   -2.8635 C   0  0  0  0  0  0  0  0  0  0  0  0
   11.7084    9.2664   -3.0904 F   0  0  0  0  0  0  0  0  0  0  0  0
   11.8342    9.6890   -5.2082 C   0  0  0  0  0  0  0  0  0  0  0  0
   13.2452    9.8601   -5.1727 O   0  0  0  0  0  0  0  0  0  0  0  0
   15.2593    9.6098    1.2830 C   0  0  0  0  0  0  0  0  0  0  0  0
   15.0485   10.8868    2.0608 C   0  0  0  0  0  0  0  0  0  0  0  0
   15.8885   11.6484    2.5083 O   0  0  0  0  0  0  0  0  0  0  0  0
   13.7358   11.1581    2.2307 O   0  0  0  0  0  0  0  0  0  0  0  0
   13.0884   10.5741    1.8875 H   0  0  0  0  0  0  0  0  0  0  0  0
 11 12  1  0
 12  1  1  0
  1  2  2  0
  2  3  1  0
  3  4  1  0
  4  5  1  0
  5  6  2  0
  6 13  1  0
 13 14  1  0
 14 15  2  0
 14 16  1  0
  6  7  1  0
  7  8  1  0
  8  9  2  0
  9 10  1  0
  9  1  1  0
  7  3  2  0
 16 17  1  0
M  END
> <minimizedAffinity>
-5.87117

> <CNNscore>
0.8908087015

> <CNNaffinity>
4.5331025124

> <CNN_VS>
4.0381269455

> <CNNaffinity_variance>
0.2110867500

$$$$



 17 18  0  0  0  0  0  0  0  0999 V2000
   13.8589   10.1496   -2.2865 C   0  0  0  0  0  0  0  0  0  0  0  0
   13.5205   10.4327   -0.9585 C   0  0  0  0  0  0  0  0  0  0  0  0
   14.5766   10.5155   -0.0481 C   0  0  0  0  0  0  0  0  0  0  0  0
   14.4448   10.7792    1.2798 O   0  0  0  0  0  0  0  0  0  0  0  0
   15.6929   10.7781    1.8116 C   0  0  0  0  0  0  0  0  0  0  0  0
   16.6443   10.5081    0.8472 C   0  0  0  0  0  0  0  0  0  0  0  0
   15.9166   10.3376   -0.3717 C   0  0  0  0  0  0  0  0  0  0  0  0
   16.2442   10.0546   -1.7074 C   0  0  0  0  0  0  0  0  0  0  0  0
   15.2037    9.9657   -2.6394 C   0  0  0  0  0  0  0  0  0  0  0  0
   15.5261    9.6924   -3.9140 F   0  0  0  0  0  0  0  0  0  0  0  0
   13.4627    9.5657   -4.5636 C   0  0  0  0  0  0  0  0  0  0  0  0
   12.9609   10.0282   -3.3163 O   0  0  0  0  0  0  0  0  0  0  0  0
   18.1194   10.4133    1.0468 C   0  0  0  0  0  0  0  0  0  0  0  0
   18.8722   11.5505    0.3985 C   0  0  0  0  0  0  0  0  0  0  0  0
   20.0494   11.5985    0.0858 O   0  0  0  0  0  0  0  0  0  0  0  0
   18.0677   12.6083    0.1545 O   0  0  0  0  0  0  0  0  0  0  0  0
   17.1625   12.5735    0.3940 H   0  0  0  0  0  0  0  0  0  0  0  0
 11 12  1  0
 12  1  1  0
  1  2  2  0
  2  3  1  0
  3  4  1  0
  4  5  1  0
  5  6  2  0
  6 13  1  0
 13 14  1  0
 14 15  2  0
 14 16  1  0
  6  7  1  0
  7  8  1  0
  8  9  2  0
  9 10  1  0
  9  1  1  0
  7  3  2  0
 16 17  1  0
M  END
> <minimizedAffinity>
-7.62768

> <CNNscore>
0.6478396654

> <CNNaffinity>
4.1783633232

> <CNN_VS>
2.7069094181

> <CNNaffinity_variance>
0.2492055446

$$$$



 17 18  0  0  0  0  0  0  0  0999 V2000
   22.7024    5.0116    4.5812 C   0  0  0  0  0  0  0  0  0  0  0  0
   22.0474    6.2483    4.5886 C   0  0  0  0  0  0  0  0  0  0  0  0
   22.7089    7.3024    5.2229 C   0  0  0  0  0  0  0  0  0  0  0  0
   22.2316    8.5714    5.3324 O   0  0  0  0  0  0  0  0  0  0  0  0
   23.1636    9.2904    6.0069 C   0  0  0  0  0  0  0  0  0  0  0  0
   24.2465    8.5039    6.3492 C   0  0  0  0  0  0  0  0  0  0  0  0
   23.9525    7.2024    5.8356 C   0  0  0  0  0  0  0  0  0  0  0  0
   24.6004    5.9568    5.8214 C   0  0  0  0  0  0  0  0  0  0  0  0
   23.9581    4.8839    5.1925 C   0  0  0  0  0  0  0  0  0  0  0  0
   24.5841    3.6960    5.1859 F   0  0  0  0  0  0  0  0  0  0  0  0
   20.7998    3.7781    3.8449 C   0  0  0  0  0  0  0  0  0  0  0  0
   22.2092    3.8658    4.0106 O   0  0  0  0  0  0  0  0  0  0  0  0
   25.4618    8.9322    7.1005 C   0  0  0  0  0  0  0  0  0  0  0  0
   26.4455    9.6889    6.2402 C   0  0  0  0  0  0  0  0  0  0  0  0
   26.3118   10.7835    5.7208 O   0  0  0  0  0  0  0  0  0  0  0  0
   27.6008    9.0061    6.0825 O   0  0  0  0  0  0  0  0  0  0  0  0
   27.7057    8.1645    6.4809 H   0  0  0  0  0  0  0  0  0  0  0  0
 11 12  1  0
 12  1  1  0
  1  2  2  0
  2  3  1  0
  3  4  1  0
  4  5  1  0
  5  6  2  0
  6 13  1  0
 13 14  1  0
 14 15  2  0
 14 16  1  0
  6  7  1  0
  7  8  1  0
  8  9  2  0
  9 10  1  0
  9  1  1  0
  7  3  2  0
 16 17  1  0
M  END
> <minimizedAffinity>
-5.82171

> <CNNscore>
0.4541158676

> <CNNaffinity>
3.6972210407

> <CNN_VS>
1.6789667606

> <CNNaffinity_variance>
0.5509616137

$$$$



 17 18  0  0  0  0  0  0  0  0999 V2000
   14.0800    9.8214   -3.3212 C   0  0  0  0  0  0  0  0  0  0  0  0
   15.2579    9.8990   -2.5697 C   0  0  0  0  0  0  0  0  0  0  0  0
   15.1100   10.0669   -1.1910 C   0  0  0  0  0  0  0  0  0  0  0  0
   16.1342   10.1642   -0.3013 O   0  0  0  0  0  0  0  0  0  0  0  0
   15.5807   10.3137    0.9282 C   0  0  0  0  0  0  0  0  0  0  0  0
   14.2013   10.3236    0.8548 C   0  0  0  0  0  0  0  0  0  0  0  0
   13.8902   10.1603   -0.5311 C   0  0  0  0  0  0  0  0  0  0  0  0
   12.7151   10.0804   -1.2954 C   0  0  0  0  0  0  0  0  0  0  0  0
   12.8362    9.9128   -2.6798 C   0  0  0  0  0  0  0  0  0  0  0  0
   11.7071    9.8400   -3.4030 F   0  0  0  0  0  0  0  0  0  0  0  0
   15.2619    9.6771   -5.3866 C   0  0  0  0  0  0  0  0  0  0  0  0
   14.0268    9.6600   -4.6825 O   0  0  0  0  0  0  0  0  0  0  0  0
   13.2457   10.4764    1.9898 C   0  0  0  0  0  0  0  0  0  0  0  0
   12.4959    9.2028    2.2995 C   0  0  0  0  0  0  0  0  0  0  0  0
   12.7261    8.0731    1.9035 O   0  0  0  0  0  0  0  0  0  0  0  0
   11.4595    9.4236    3.1377 O   0  0  0  0  0  0  0  0  0  0  0  0
   11.2807   10.2911    3.4433 H   0  0  0  0  0  0  0  0  0  0  0  0
 11 12  1  0
 12  1  1  0
  1  2  2  0
  2  3  1  0
  3  4  1  0
  4  5  1  0
  5  6  2  0
  6 13  1  0
 13 14  1  0
 14 15  2  0
 14 16  1  0
  6  7  1  0
  7  8  1  0
  8  9  2  0
  9 10  1  0
  9  1  1  0
  7  3  2  0
 16 17  1  0
M  END
> <minimizedAffinity>
-7.22246

> <CNNscore>
0.4227572978

> <CNNaffinity>
3.7153732777

> <CNN_VS>
1.5707011223

> <CNNaffinity_variance>
0.6942312121

$$$$



 17 18  0  0  0  0  0  0  0  0999 V2000
   14.5900   10.1109   -2.3508 C   0  0  0  0  0  0  0  0  0  0  0  0
   15.9382    9.9766   -2.0010 C   0  0  0  0  0  0  0  0  0  0  0  0
   16.2611   10.1956   -0.6598 C   0  0  0  0  0  0  0  0  0  0  0  0
   17.5126   10.1126   -0.1337 O   0  0  0  0  0  0  0  0  0  0  0  0
   17.4069   10.3880    1.1905 C   0  0  0  0  0  0  0  0  0  0  0  0
   16.0980   10.6594    1.5391 C   0  0  0  0  0  0  0  0  0  0  0  0
   15.3453   10.5323    0.3302 C   0  0  0  0  0  0  0  0  0  0  0  0
   13.9952   10.6636   -0.0325 C   0  0  0  0  0  0  0  0  0  0  0  0
   13.6457   10.4499   -1.3709 C   0  0  0  0  0  0  0  0  0  0  0  0
   12.3527   10.5800   -1.7090 F   0  0  0  0  0  0  0  0  0  0  0  0
   13.7286    8.6143   -3.9945 C   0  0  0  0  0  0  0  0  0  0  0  0
   14.0861    9.9369   -3.6148 O   0  0  0  0  0  0  0  0  0  0  0  0
   15.5879   11.0130    2.8954 C   0  0  0  0  0  0  0  0  0  0  0  0
   16.4455   12.0411    3.5937 C   0  0  0  0  0  0  0  0  0  0  0  0
   17.5319   11.8866    4.1245 O   0  0  0  0  0  0  0  0  0  0  0  0
   15.8737   13.2652    3.5755 O   0  0  0  0  0  0  0  0  0  0  0  0
   15.0386   13.3863    3.1681 H   0  0  0  0  0  0  0  0  0  0  0  0
 11 12  1  0
 12  1  1  0
  1  2  2  0
  2  3  1  0
  3  4  1  0
  4  5  1  0
  5  6  2  0
  6 13  1  0
 13 14  1  0
 14 15  2  0
 14 16  1  0
  6  7  1  0
  7  8  1  0
  8  9  2  0
  9 10  1  0
  9  1  1  0
  7  3  2  0
 16 17  1  0
M  END
> <minimizedAffinity>
-7.12359

> <CNNscore>
0.4101202786

> <CNNaffinity>
3.7954905033

> <CNN_VS>
1.5566076040

> <CNNaffinity_variance>
0.6297678351

$$$$



 17 18  0  0  0  0  0  0  0  0999 V2000
   24.1313   18.0627   -9.3918 C   0  0  0  0  0  0  0  0  0  0  0  0
   22.9472   17.3289   -9.2587 C   0  0  0  0  0  0  0  0  0  0  0  0
   22.2630   17.4602   -8.0481 C   0  0  0  0  0  0  0  0  0  0  0  0
   21.1005   16.8273   -7.7349 O   0  0  0  0  0  0  0  0  0  0  0  0
   20.7598   17.2180   -6.4811 C   0  0  0  0  0  0  0  0  0  0  0  0
   21.6919   18.0962   -5.9634 C   0  0  0  0  0  0  0  0  0  0  0  0
   22.6762   18.2582   -6.9876 C   0  0  0  0  0  0  0  0  0  0  0  0
   23.8654   18.9904   -7.1329 C   0  0  0  0  0  0  0  0  0  0  0  0
   24.5703   18.8756   -8.3367 C   0  0  0  0  0  0  0  0  0  0  0  0
   25.7078   19.5775   -8.4658 F   0  0  0  0  0  0  0  0  0  0  0  0
   24.5339   18.8710  -11.5982 C   0  0  0  0  0  0  0  0  0  0  0  0
   24.9362   18.0589  -10.5027 O   0  0  0  0  0  0  0  0  0  0  0  0
   21.6685   18.7340   -4.6152 C   0  0  0  0  0  0  0  0  0  0  0  0
   20.3239   18.6212   -3.9374 C   0  0  0  0  0  0  0  0  0  0  0  0
   19.9556   17.7974   -3.1180 O   0  0  0  0  0  0  0  0  0  0  0  0
   19.4809   19.6006   -4.3323 O   0  0  0  0  0  0  0  0  0  0  0  0
   19.7620   20.2349   -4.9621 H   0  0  0  0  0  0  0  0  0  0  0  0
 11 12  1  0
 12  1  1  0
  1  2  2  0
  2  3  1  0
  3  4  1  0
  4  5  1  0
  5  6  2  0
  6 13  1  0
 13 14  1  0
 14 15  2  0
 14 16  1  0
  6  7  1  0
  7  8  1  0
  8  9  2  0
  9 10  1  0
  9  1  1  0
  7  3  2  0
 16 17  1  0
M  END
> <minimizedAffinity>
-5.09314

> <CNNscore>
0.3976630569

> <CNNaffinity>
3.1089134216

> <CNN_VS>
1.2362999916

> <CNNaffinity_variance>
0.3993316889

$$$$



 17 18  0  0  0  0  0  0  0  0999 V2000
   23.1698    5.3034    4.3640 C   0  0  0  0  0  0  0  0  0  0  0  0
   22.9408    6.6790    4.2481 C   0  0  0  0  0  0  0  0  0  0  0  0
   23.5285    7.4947    5.2178 C   0  0  0  0  0  0  0  0  0  0  0  0
   23.4179    8.8493    5.2710 O   0  0  0  0  0  0  0  0  0  0  0  0
   24.1298    9.2648    6.3485 C   0  0  0  0  0  0  0  0  0  0  0  0
   24.7015    8.1950    7.0095 C   0  0  0  0  0  0  0  0  0  0  0  0
   24.3111    7.0350    6.2705 C   0  0  0  0  0  0  0  0  0  0  0  0
   24.5346    5.6528    6.3763 C   0  0  0  0  0  0  0  0  0  0  0  0
   23.9559    4.8136    5.4170 C   0  0  0  0  0  0  0  0  0  0  0  0
   24.1730    3.4931    5.5275 F   0  0  0  0  0  0  0  0  0  0  0  0
   21.3476    3.8974    3.7428 C   0  0  0  0  0  0  0  0  0  0  0  0
   22.6749    4.3508    3.5100 O   0  0  0  0  0  0  0  0  0  0  0  0
   25.5452    8.2494    8.2384 C   0  0  0  0  0  0  0  0  0  0  0  0
   26.2779    6.9559    8.5032 C   0  0  0  0  0  0  0  0  0  0  0  0
   27.3218    6.5625    8.0118 O   0  0  0  0  0  0  0  0  0  0  0  0
   25.6392    6.1982    9.4217 O   0  0  0  0  0  0  0  0  0  0  0  0
   24.8367    6.4986    9.8008 H   0  0  0  0  0  0  0  0  0  0  0  0
 11 12  1  0
 12  1  1  0
  1  2  2  0
  2  3  1  0
  3  4  1  0
  4  5  1  0
  5  6  2  0
  6 13  1  0
 13 14  1  0
 14 15  2  0
 14 16  1  0
  6  7  1  0
  7  8  1  0
  8  9  2  0
  9 10  1  0
  9  1  1  0
  7  3  2  0
 16 17  1  0
M  END
> <minimizedAffinity>
-6.42527

> <CNNscore>
0.3891319931

> <CNNaffinity>
3.2995064259

> <CNN_VS>
1.2839435339

> <CNNaffinity_variance>
0.7976070046

$$$$



 17 18  0  0  0  0  0  0  0  0999 V2000
   21.2701   18.6512   -5.5955 C   0  0  0  0  0  0  0  0  0  0  0  0
   21.0009   17.5748   -6.4482 C   0  0  0  0  0  0  0  0  0  0  0  0
   21.9174   17.3481   -7.4775 C   0  0  0  0  0  0  0  0  0  0  0  0
   21.8243   16.3549   -8.4022 O   0  0  0  0  0  0  0  0  0  0  0  0
   22.9014   16.4691   -9.2190 C   0  0  0  0  0  0  0  0  0  0  0  0
   23.6985   17.5336   -8.8451 C   0  0  0  0  0  0  0  0  0  0  0  0
   23.0579   18.1097   -7.7042 C   0  0  0  0  0  0  0  0  0  0  0  0
   23.3180   19.1868   -6.8417 C   0  0  0  0  0  0  0  0  0  0  0  0
   22.4141   19.4355   -5.8023 C   0  0  0  0  0  0  0  0  0  0  0  0
   22.6696   20.4691   -4.9840 F   0  0  0  0  0  0  0  0  0  0  0  0
   19.8551   17.9898   -3.7944 C   0  0  0  0  0  0  0  0  0  0  0  0
   20.4859   19.0270   -4.5346 O   0  0  0  0  0  0  0  0  0  0  0  0
   24.9600   17.9815   -9.5029 C   0  0  0  0  0  0  0  0  0  0  0  0
   24.7133   18.7690  -10.7674 C   0  0  0  0  0  0  0  0  0  0  0  0
   24.6666   18.3626  -11.9157 O   0  0  0  0  0  0  0  0  0  0  0  0
   24.5162   20.0807  -10.5095 O   0  0  0  0  0  0  0  0  0  0  0  0
   24.5516   20.3952   -9.6276 H   0  0  0  0  0  0  0  0  0  0  0  0
 11 12  1  0
 12  1  1  0
  1  2  2  0
  2  3  1  0
  3  4  1  0
  4  5  1  0
  5  6  2  0
  6 13  1  0
 13 14  1  0
 14 15  2  0
 14 16  1  0
  6  7  1  0
  7  8  1  0
  8  9  2  0
  9 10  1  0
  9  1  1  0
  7  3  2  0
 16 17  1  0
M  END
> <minimizedAffinity>
-4.69663

> <CNNscore>
0.3839820027

> <CNNaffinity>
3.2699935436

> <CNN_VS>
1.2556186914

> <CNNaffinity_variance>
0.3646093309

$$$$



 17 18  0  0  0  0  0  0  0  0999 V2000
   23.9570   18.1447   -8.2043 C   0  0  0  0  0  0  0  0  0  0  0  0
   24.1447   19.1937   -7.2974 C   0  0  0  0  0  0  0  0  0  0  0  0
   23.0698   19.4940   -6.4575 C   0  0  0  0  0  0  0  0  0  0  0  0
   23.0639   20.4764   -5.5168 O   0  0  0  0  0  0  0  0  0  0  0  0
   21.8483   20.4443   -4.9153 C   0  0  0  0  0  0  0  0  0  0  0  0
   21.0513   19.4547   -5.4572 C   0  0  0  0  0  0  0  0  0  0  0  0
   21.8489   18.8297   -6.4658 C   0  0  0  0  0  0  0  0  0  0  0  0
   21.6723   17.7784   -7.3796 C   0  0  0  0  0  0  0  0  0  0  0  0
   22.7345   17.4580   -8.2331 C   0  0  0  0  0  0  0  0  0  0  0  0
   22.5558   16.4529   -9.1054 F   0  0  0  0  0  0  0  0  0  0  0  0
   25.2047   18.5766  -10.1893 C   0  0  0  0  0  0  0  0  0  0  0  0
   24.8949   17.7095   -9.1060 O   0  0  0  0  0  0  0  0  0  0  0  0
   19.6515   19.1189   -5.0667 C   0  0  0  0  0  0  0  0  0  0  0  0
   19.5220   18.7562   -3.6066 C   0  0  0  0  0  0  0  0  0  0  0  0
   19.8437   17.7192   -3.0524 O   0  0  0  0  0  0  0  0  0  0  0  0
   18.9840   19.7649   -2.8863 O   0  0  0  0  0  0  0  0  0  0  0  0
   18.7360   20.5629   -3.3102 H   0  0  0  0  0  0  0  0  0  0  0  0
 11 12  1  0
 12  1  1  0
  1  2  2  0
  2  3  1  0
  3  4  1  0
  4  5  1  0
  5  6  2  0
  6 13  1  0
 13 14  1  0
 14 15  2  0
 14 16  1  0
  6  7  1  0
  7  8  1  0
  8  9  2  0
  9 10  1  0
  9  1  1  0
  7  3  2  0
 16 17  1  0
M  END
> <minimizedAffinity>
-4.63599

> <CNNscore>
0.3439927101

> <CNNaffinity>
2.9905526638

> <CNN_VS>
1.0287283659

> <CNNaffinity_variance>
0.4482168257

$$$$
