


 34 38  0  0  0  0  0  0  0  0999 V2000
   15.9148  -11.1936   19.8627 C   0  0  0  0  0  0  0  0  0  0  0  0
   17.2387  -11.4552   20.5794 C   0  0  0  0  0  0  0  0  0  0  0  0
   17.2604  -12.5657   21.6048 C   0  0  0  0  0  0  0  0  0  0  0  0
   16.5797  -12.6020   22.6215 O   0  0  0  0  0  0  0  0  0  0  0  0
   18.2203  -13.4704   21.2517 N   0  0  0  0  0  0  0  0  0  0  0  0
   18.8414  -13.1571   20.0799 C   0  0  0  0  0  0  0  0  0  0  0  0
   19.7659  -13.7599   19.5551 O   0  0  0  0  0  0  0  0  0  0  0  0
   18.1754  -11.9539   19.4813 C   0  0  0  0  0  0  0  0  0  0  0  0
   17.2776  -12.3679   18.3242 C   0  0  0  0  0  0  0  0  0  0  0  0
   17.3871  -11.4709   17.1003 C   0  0  0  0  0  0  0  0  0  0  0  0
   16.0324  -11.6507   16.4486 C   0  0  0  0  0  0  0  0  0  0  0  0
   15.0739  -11.7903   17.6238 C   0  0  0  0  0  0  0  0  0  0  0  0
   15.8812  -12.2059   18.7871 N   0  0  0  0  0  0  0  0  0  0  0  0
   12.5203  -11.1269   22.5657 C   0  0  0  0  0  0  0  0  0  0  0  0
   12.8376  -12.2985   21.8674 C   0  0  0  0  0  0  0  0  0  0  0  0
   13.9085  -12.3207   20.9722 C   0  0  0  0  0  0  0  0  0  0  0  0
   14.6924  -11.1766   20.7597 C   0  0  0  0  0  0  0  0  0  0  0  0
   14.3586  -10.0000   21.4473 C   0  0  0  0  0  0  0  0  0  0  0  0
   13.2814   -9.9728   22.3370 C   0  0  0  0  0  0  0  0  0  0  0  0
   10.6045  -12.1452   23.5814 N   0  0  0  0  0  0  0  0  0  0  0  0
   11.4283  -11.1207   23.5427 C   0  0  0  0  0  0  0  0  0  0  0  0
   11.2970  -10.0952   24.3553 N   0  0  0  0  0  0  0  0  0  0  0  0
    9.8651  -12.1581   24.2314 H   0  0  0  0  0  0  0  0  0  0  0  0
   10.7272  -12.8993   22.9605 H   0  0  0  0  0  0  0  0  0  0  0  0
   10.5669  -10.0807   25.0155 H   0  0  0  0  0  0  0  0  0  0  0  0
   11.9288   -9.3420   24.3034 H   0  0  0  0  0  0  0  0  0  0  0  0
   18.6024  -14.5981   22.0743 C   0  0  0  0  0  0  0  0  0  0  0  0
   19.6347  -14.2066   23.1076 C   0  0  0  0  0  0  0  0  0  0  0  0
   20.9925  -14.1210   22.7581 C   0  0  0  0  0  0  0  0  0  0  0  0
   21.9420  -13.7351   23.7052 C   0  0  0  0  0  0  0  0  0  0  0  0
   21.5356  -13.4295   24.9981 C   0  0  0  0  0  0  0  0  0  0  0  0
   22.4462  -13.0560   25.9060 F   0  0  0  0  0  0  0  0  0  0  0  0
   20.1963  -13.4993   25.3625 C   0  0  0  0  0  0  0  0  0  0  0  0
   19.2443  -13.8838   24.4176 C   0  0  0  0  0  0  0  0  0  0  0  0
 20 21  1  0
 21 22  2  0
 21 14  1  0
 14 15  2  0
 15 16  1  0
 16 17  2  0
  1 17  1  0
  1  2  1  0
  2  3  1  0
  3  4  2  0
  3  5  1  0
  5 27  1  0
 27 28  1  0
 28 29  2  0
 29 30  1  0
 30 31  2  0
 31 32  1  0
 31 33  1  0
 33 34  2  0
  5  6  1  0
  6  7  2  0
  8  6  1  0
  8  9  1  0
  9 10  1  0
 10 11  1  0
 11 12  1  0
 12 13  1  0
 17 18  1  0
 18 19  2  0
 19 14  1  0
 13  1  1  0
  8  2  1  0
 13  9  1  0
 34 28  1  0
 20 23  1  0
 20 24  1  0
 22 25  1  0
 22 26  1  0
M  CHG 1  22   1
M  END
> <minimizedAffinity>
-10.81468

> <CNNscore>
0.9716411233

> <CNNaffinity>
7.7875380516

> <CNN_VS>
7.5666923523

> <CNNaffinity_variance>
0.1174625382

$$$$



 34 38  0  0  0  0  0  0  0  0999 V2000
   16.7980  -12.6418   19.8293 C   0  0  0  0  0  0  0  0  0  0  0  0
   16.7286  -12.7868   18.3098 C   0  0  0  0  0  0  0  0  0  0  0  0
   16.0317  -11.6861   17.5429 C   0  0  0  0  0  0  0  0  0  0  0  0
   14.8567  -11.3687   17.6736 O   0  0  0  0  0  0  0  0  0  0  0  0
   16.9036  -11.1687   16.6282 N   0  0  0  0  0  0  0  0  0  0  0  0
   18.1406  -11.7370   16.6915 C   0  0  0  0  0  0  0  0  0  0  0  0
   19.0941  -11.5028   15.9639 O   0  0  0  0  0  0  0  0  0  0  0  0
   18.1815  -12.6886   17.8502 C   0  0  0  0  0  0  0  0  0  0  0  0
   18.9457  -12.0723   19.0132 C   0  0  0  0  0  0  0  0  0  0  0  0
   19.9140  -13.0264   19.6962 C   0  0  0  0  0  0  0  0  0  0  0  0
   19.9983  -12.4512   21.0942 C   0  0  0  0  0  0  0  0  0  0  0  0
   18.5912  -11.9359   21.3661 C   0  0  0  0  0  0  0  0  0  0  0  0
   17.9465  -11.7399   20.0532 N   0  0  0  0  0  0  0  0  0  0  0  0
   13.1870  -11.3671   21.8713 C   0  0  0  0  0  0  0  0  0  0  0  0
   13.3118  -12.6893   21.4274 C   0  0  0  0  0  0  0  0  0  0  0  0
   14.4563  -13.1006   20.7421 C   0  0  0  0  0  0  0  0  0  0  0  0
   15.5060  -12.2040   20.4914 C   0  0  0  0  0  0  0  0  0  0  0  0
   15.3678  -10.8755   20.9213 C   0  0  0  0  0  0  0  0  0  0  0  0
   14.2191  -10.4591   21.5994 C   0  0  0  0  0  0  0  0  0  0  0  0
   11.8786   -9.6847   22.9651 N   0  0  0  0  0  0  0  0  0  0  0  0
   12.0077  -10.9513   22.6351 C   0  0  0  0  0  0  0  0  0  0  0  0
   11.1089  -11.8499   22.9721 N   0  0  0  0  0  0  0  0  0  0  0  0
   11.0927   -9.3873   23.4782 H   0  0  0  0  0  0  0  0  0  0  0  0
   12.5678   -9.0339   22.6990 H   0  0  0  0  0  0  0  0  0  0  0  0
   10.3128  -11.5815   23.4853 H   0  0  0  0  0  0  0  0  0  0  0  0
   11.2322  -12.7912   22.7113 H   0  0  0  0  0  0  0  0  0  0  0  0
   16.5347  -10.1820   15.6359 C   0  0  0  0  0  0  0  0  0  0  0  0
   15.9454  -10.8289   14.4026 C   0  0  0  0  0  0  0  0  0  0  0  0
   14.7573  -10.3341   13.8398 C   0  0  0  0  0  0  0  0  0  0  0  0
   14.2271  -10.9149   12.6871 C   0  0  0  0  0  0  0  0  0  0  0  0
   14.8854  -11.9849   12.0937 C   0  0  0  0  0  0  0  0  0  0  0  0
   14.3783  -12.5402   10.9857 F   0  0  0  0  0  0  0  0  0  0  0  0
   16.0665  -12.4843   12.6291 C   0  0  0  0  0  0  0  0  0  0  0  0
   16.5998  -11.9050   13.7811 C   0  0  0  0  0  0  0  0  0  0  0  0
 20 21  1  0
 21 22  2  0
 21 14  1  0
 14 15  2  0
 15 16  1  0
 16 17  2  0
  1 17  1  0
  1  2  1  0
  2  3  1  0
  3  4  2  0
  3  5  1  0
  5 27  1  0
 27 28  1  0
 28 29  2  0
 29 30  1  0
 30 31  2  0
 31 32  1  0
 31 33  1  0
 33 34  2  0
  5  6  1  0
  6  7  2  0
  8  6  1  0
  8  9  1  0
  9 10  1  0
 10 11  1  0
 11 12  1  0
 12 13  1  0
 17 18  1  0
 18 19  2  0
 19 14  1  0
 13  1  1  0
  8  2  1  0
 13  9  1  0
 34 28  1  0
 20 23  1  0
 20 24  1  0
 22 25  1  0
 22 26  1  0
M  CHG 1  22   1
M  END
> <minimizedAffinity>
-8.92024

> <CNNscore>
0.6949473023

> <CNNaffinity>
6.7244639397

> <CNN_VS>
4.6731481552

> <CNNaffinity_variance>
0.0178307593

$$$$



 34 38  0  0  0  0  0  0  0  0999 V2000
   17.7030  -11.3059   18.0881 C   0  0  0  0  0  0  0  0  0  0  0  0
   16.6641  -10.8954   19.1306 C   0  0  0  0  0  0  0  0  0  0  0  0
   15.3218  -11.5887   19.0771 C   0  0  0  0  0  0  0  0  0  0  0  0
   14.5448  -11.5518   18.1319 O   0  0  0  0  0  0  0  0  0  0  0  0
   15.0880  -12.1860   20.2826 N   0  0  0  0  0  0  0  0  0  0  0  0
   16.1212  -12.0386   21.1587 C   0  0  0  0  0  0  0  0  0  0  0  0
   16.1625  -12.4262   22.3169 O   0  0  0  0  0  0  0  0  0  0  0  0
   17.2578  -11.3516   20.4615 C   0  0  0  0  0  0  0  0  0  0  0  0
   18.3462  -12.3555   20.1098 C   0  0  0  0  0  0  0  0  0  0  0  0
   19.7583  -11.8681   20.3978 C   0  0  0  0  0  0  0  0  0  0  0  0
   20.5810  -12.6665   19.4088 C   0  0  0  0  0  0  0  0  0  0  0  0
   19.6848  -12.7685   18.1817 C   0  0  0  0  0  0  0  0  0  0  0  0
   18.3018  -12.5378   18.6418 N   0  0  0  0  0  0  0  0  0  0  0  0
   16.3383  -11.7531   13.9927 C   0  0  0  0  0  0  0  0  0  0  0  0
   16.5974  -10.4779   14.5102 C   0  0  0  0  0  0  0  0  0  0  0  0
   17.0066  -10.3218   15.8356 C   0  0  0  0  0  0  0  0  0  0  0  0
   17.1747  -11.4352   16.6726 C   0  0  0  0  0  0  0  0  0  0  0  0
   16.8954  -12.7091   16.1551 C   0  0  0  0  0  0  0  0  0  0  0  0
   16.4768  -12.8672   14.8313 C   0  0  0  0  0  0  0  0  0  0  0  0
   15.8496  -13.1338   12.0970 N   0  0  0  0  0  0  0  0  0  0  0  0
   15.9589  -11.9181   12.5871 C   0  0  0  0  0  0  0  0  0  0  0  0
   15.7374  -10.8518   11.8504 N   0  0  0  0  0  0  0  0  0  0  0  0
   15.5956  -13.2637   11.1548 H   0  0  0  0  0  0  0  0  0  0  0  0
   16.0217  -13.9138   12.6725 H   0  0  0  0  0  0  0  0  0  0  0  0
   15.4819  -10.9512   10.9048 H   0  0  0  0  0  0  0  0  0  0  0  0
   15.8269   -9.9540   12.2443 H   0  0  0  0  0  0  0  0  0  0  0  0
   13.8413  -12.8342   20.6292 C   0  0  0  0  0  0  0  0  0  0  0  0
   12.9921  -11.9606   21.5248 C   0  0  0  0  0  0  0  0  0  0  0  0
   12.4262  -12.4848   22.6988 C   0  0  0  0  0  0  0  0  0  0  0  0
   11.6635  -11.6720   23.5385 C   0  0  0  0  0  0  0  0  0  0  0  0
   11.4707  -10.3360   23.2094 C   0  0  0  0  0  0  0  0  0  0  0  0
   10.7416   -9.5553   24.0168 F   0  0  0  0  0  0  0  0  0  0  0  0
   12.0288   -9.7952   22.0573 C   0  0  0  0  0  0  0  0  0  0  0  0
   12.7928  -10.6050   21.2161 C   0  0  0  0  0  0  0  0  0  0  0  0
 20 21  1  0
 21 22  2  0
 21 14  1  0
 14 15  2  0
 15 16  1  0
 16 17  2  0
  1 17  1  0
  1  2  1  0
  2  3  1  0
  3  4  2  0
  3  5  1  0
  5 27  1  0
 27 28  1  0
 28 29  2  0
 29 30  1  0
 30 31  2  0
 31 32  1  0
 31 33  1  0
 33 34  2  0
  5  6  1  0
  6  7  2  0
  8  6  1  0
  8  9  1  0
  9 10  1  0
 10 11  1  0
 11 12  1  0
 12 13  1  0
 17 18  1  0
 18 19  2  0
 19 14  1  0
 13  1  1  0
  8  2  1  0
 13  9  1  0
 34 28  1  0
 20 23  1  0
 20 24  1  0
 22 25  1  0
 22 26  1  0
M  CHG 1  22   1
M  END
> <minimizedAffinity>
-8.14675

> <CNNscore>
0.6934689283

> <CNNaffinity>
6.8976483345

> <CNN_VS>
4.7833046913

> <CNNaffinity_variance>
0.1570507437

$$$$



 34 38  0  0  0  0  0  0  0  0999 V2000
   15.0263  -13.2537   20.1425 C   0  0  0  0  0  0  0  0  0  0  0  0
   16.4742  -13.5791   20.5063 C   0  0  0  0  0  0  0  0  0  0  0  0
   16.7710  -13.8738   21.9590 C   0  0  0  0  0  0  0  0  0  0  0  0
   16.6004  -13.0942   22.8872 O   0  0  0  0  0  0  0  0  0  0  0  0
   17.3362  -15.1137   22.0487 N   0  0  0  0  0  0  0  0  0  0  0  0
   17.4281  -15.7449   20.8445 C   0  0  0  0  0  0  0  0  0  0  0  0
   17.9326  -16.8360   20.6242 O   0  0  0  0  0  0  0  0  0  0  0  0
   16.7570  -14.9032   19.8000 C   0  0  0  0  0  0  0  0  0  0  0  0
   15.3961  -15.4856   19.4462 C   0  0  0  0  0  0  0  0  0  0  0  0
   15.0982  -15.5082   17.9546 C   0  0  0  0  0  0  0  0  0  0  0  0
   13.5849  -15.4678   17.9292 C   0  0  0  0  0  0  0  0  0  0  0  0
   13.2205  -14.5737   19.1070 C   0  0  0  0  0  0  0  0  0  0  0  0
   14.3794  -14.5764   20.0205 N   0  0  0  0  0  0  0  0  0  0  0  0
   12.8899  -10.5124   22.7415 C   0  0  0  0  0  0  0  0  0  0  0  0
   13.9176  -10.0392   21.9164 C   0  0  0  0  0  0  0  0  0  0  0  0
   14.6313  -10.9184   21.1002 C   0  0  0  0  0  0  0  0  0  0  0  0
   14.3303  -12.2886   21.0824 C   0  0  0  0  0  0  0  0  0  0  0  0
   13.3126  -12.7607   21.9251 C   0  0  0  0  0  0  0  0  0  0  0  0
   12.6028  -11.8840   22.7498 C   0  0  0  0  0  0  0  0  0  0  0  0
   10.8793   -9.9065   23.8945 N   0  0  0  0  0  0  0  0  0  0  0  0
   12.1083   -9.5803   23.5584 C   0  0  0  0  0  0  0  0  0  0  0  0
   12.6509   -8.4434   23.9353 N   0  0  0  0  0  0  0  0  0  0  0  0
   10.3395   -9.2925   24.4430 H   0  0  0  0  0  0  0  0  0  0  0  0
   10.4992  -10.7648   23.5977 H   0  0  0  0  0  0  0  0  0  0  0  0
   12.1348   -7.8098   24.4843 H   0  0  0  0  0  0  0  0  0  0  0  0
   13.5732   -8.2258   23.6685 H   0  0  0  0  0  0  0  0  0  0  0  0
   17.8630  -15.6691   23.2768 C   0  0  0  0  0  0  0  0  0  0  0  0
   19.0897  -14.9183   23.7439 C   0  0  0  0  0  0  0  0  0  0  0  0
   19.1313  -14.3560   25.0305 C   0  0  0  0  0  0  0  0  0  0  0  0
   20.2729  -13.6851   25.4708 C   0  0  0  0  0  0  0  0  0  0  0  0
   21.3737  -13.5804   24.6297 C   0  0  0  0  0  0  0  0  0  0  0  0
   22.4704  -12.9394   25.0535 F   0  0  0  0  0  0  0  0  0  0  0  0
   21.3568  -14.1369   23.3565 C   0  0  0  0  0  0  0  0  0  0  0  0
   20.2172  -14.8093   22.9135 C   0  0  0  0  0  0  0  0  0  0  0  0
 20 21  1  0
 21 22  2  0
 21 14  1  0
 14 15  2  0
 15 16  1  0
 16 17  2  0
  1 17  1  0
  1  2  1  0
  2  3  1  0
  3  4  2  0
  3  5  1  0
  5 27  1  0
 27 28  1  0
 28 29  2  0
 29 30  1  0
 30 31  2  0
 31 32  1  0
 31 33  1  0
 33 34  2  0
  5  6  1  0
  6  7  2  0
  8  6  1  0
  8  9  1  0
  9 10  1  0
 10 11  1  0
 11 12  1  0
 12 13  1  0
 17 18  1  0
 18 19  2  0
 19 14  1  0
 13  1  1  0
  8  2  1  0
 13  9  1  0
 34 28  1  0
 20 23  1  0
 20 24  1  0
 22 25  1  0
 22 26  1  0
M  CHG 1  22   1
M  END
> <minimizedAffinity>
-9.23195

> <CNNscore>
0.6696374416

> <CNNaffinity>
7.0531802177

> <CNN_VS>
4.7230734825

> <CNNaffinity_variance>
0.2654294372

$$$$



 34 38  0  0  0  0  0  0  0  0999 V2000
   15.8808  -16.0627   21.2833 C   0  0  0  0  0  0  0  0  0  0  0  0
   14.6455  -15.2186   21.5934 C   0  0  0  0  0  0  0  0  0  0  0  0
   14.7664  -13.7236   21.4044 C   0  0  0  0  0  0  0  0  0  0  0  0
   15.5463  -12.9962   22.0053 O   0  0  0  0  0  0  0  0  0  0  0  0
   13.8089  -13.3141   20.5211 N   0  0  0  0  0  0  0  0  0  0  0  0
   13.0628  -14.3434   20.0301 C   0  0  0  0  0  0  0  0  0  0  0  0
   12.1126  -14.2620   19.2659 O   0  0  0  0  0  0  0  0  0  0  0  0
   13.6221  -15.6381   20.5405 C   0  0  0  0  0  0  0  0  0  0  0  0
   14.4138  -16.3396   19.4463 C   0  0  0  0  0  0  0  0  0  0  0  0
   14.1503  -17.8348   19.3492 C   0  0  0  0  0  0  0  0  0  0  0  0
   15.4385  -18.3487   18.7421 C   0  0  0  0  0  0  0  0  0  0  0  0
   16.5142  -17.4622   19.3556 C   0  0  0  0  0  0  0  0  0  0  0  0
   15.8428  -16.2314   19.8160 N   0  0  0  0  0  0  0  0  0  0  0  0
   19.5246  -14.3787   22.9325 C   0  0  0  0  0  0  0  0  0  0  0  0
   19.2432  -14.2400   21.5678 C   0  0  0  0  0  0  0  0  0  0  0  0
   18.0892  -14.8052   21.0223 C   0  0  0  0  0  0  0  0  0  0  0  0
   17.1855  -15.5144   21.8277 C   0  0  0  0  0  0  0  0  0  0  0  0
   17.4816  -15.6669   23.1907 C   0  0  0  0  0  0  0  0  0  0  0  0
   18.6408  -15.1099   23.7373 C   0  0  0  0  0  0  0  0  0  0  0  0
   21.8103  -13.6748   22.7951 N   0  0  0  0  0  0  0  0  0  0  0  0
   20.7097  -13.7410   23.5121 C   0  0  0  0  0  0  0  0  0  0  0  0
   20.6465  -13.2514   24.7308 N   0  0  0  0  0  0  0  0  0  0  0  0
   22.6162  -13.2499   23.1684 H   0  0  0  0  0  0  0  0  0  0  0  0
   21.8283  -14.0501   21.8852 H   0  0  0  0  0  0  0  0  0  0  0  0
   21.4367  -12.8208   25.1300 H   0  0  0  0  0  0  0  0  0  0  0  0
   19.8088  -13.3154   25.2442 H   0  0  0  0  0  0  0  0  0  0  0  0
   13.5517  -11.9262   20.2019 C   0  0  0  0  0  0  0  0  0  0  0  0
   12.9892  -11.1787   21.3899 C   0  0  0  0  0  0  0  0  0  0  0  0
   11.9310  -11.7238   22.1359 C   0  0  0  0  0  0  0  0  0  0  0  0
   11.4288  -11.0460   23.2476 C   0  0  0  0  0  0  0  0  0  0  0  0
   11.9861   -9.8282   23.6173 C   0  0  0  0  0  0  0  0  0  0  0  0
   11.5063   -9.1794   24.6859 F   0  0  0  0  0  0  0  0  0  0  0  0
   13.0390   -9.2754   22.8984 C   0  0  0  0  0  0  0  0  0  0  0  0
   13.5442   -9.9511   21.7870 C   0  0  0  0  0  0  0  0  0  0  0  0
 20 21  1  0
 21 22  2  0
 21 14  1  0
 14 15  2  0
 15 16  1  0
 16 17  2  0
  1 17  1  0
  1  2  1  0
  2  3  1  0
  3  4  2  0
  3  5  1  0
  5 27  1  0
 27 28  1  0
 28 29  2  0
 29 30  1  0
 30 31  2  0
 31 32  1  0
 31 33  1  0
 33 34  2  0
  5  6  1  0
  6  7  2  0
  8  6  1  0
  8  9  1  0
  9 10  1  0
 10 11  1  0
 11 12  1  0
 12 13  1  0
 17 18  1  0
 18 19  2  0
 19 14  1  0
 13  1  1  0
  8  2  1  0
 13  9  1  0
 34 28  1  0
 20 23  1  0
 20 24  1  0
 22 25  1  0
 22 26  1  0
M  CHG 1  22   1
M  END
> <minimizedAffinity>
-8.39992

> <CNNscore>
0.6134418845

> <CNNaffinity>
7.0973143578

> <CNN_VS>
4.3537898064

> <CNNaffinity_variance>
0.4657299519

$$$$



 34 38  0  0  0  0  0  0  0  0999 V2000
   14.5158  -12.3172   19.1199 C   0  0  0  0  0  0  0  0  0  0  0  0
   15.7789  -11.4891   18.8889 C   0  0  0  0  0  0  0  0  0  0  0  0
   16.6199  -11.1607   20.1014 C   0  0  0  0  0  0  0  0  0  0  0  0
   16.2424  -10.5121   21.0684 O   0  0  0  0  0  0  0  0  0  0  0  0
   17.8852  -11.6324   19.8986 N   0  0  0  0  0  0  0  0  0  0  0  0
   18.0233  -12.2935   18.7149 C   0  0  0  0  0  0  0  0  0  0  0  0
   19.0500  -12.7729   18.2574 O   0  0  0  0  0  0  0  0  0  0  0  0
   16.6812  -12.3940   18.0528 C   0  0  0  0  0  0  0  0  0  0  0  0
   16.1196  -13.8000   18.2077 C   0  0  0  0  0  0  0  0  0  0  0  0
   15.4908  -14.3614   16.9413 C   0  0  0  0  0  0  0  0  0  0  0  0
   14.4913  -15.3557   17.4932 C   0  0  0  0  0  0  0  0  0  0  0  0
   13.9854  -14.6990   18.7708 C   0  0  0  0  0  0  0  0  0  0  0  0
   15.0037  -13.7107   19.1757 N   0  0  0  0  0  0  0  0  0  0  0  0
   12.2290  -10.9681   22.5527 C   0  0  0  0  0  0  0  0  0  0  0  0
   12.8342  -12.2309   22.5657 C   0  0  0  0  0  0  0  0  0  0  0  0
   13.5454  -12.6862   21.4542 C   0  0  0  0  0  0  0  0  0  0  0  0
   13.6760  -11.8885   20.3075 C   0  0  0  0  0  0  0  0  0  0  0  0
   13.0517  -10.6321   20.2921 C   0  0  0  0  0  0  0  0  0  0  0  0
   12.3314  -10.1778   21.4001 C   0  0  0  0  0  0  0  0  0  0  0  0
   10.8402  -11.3206   24.4725 N   0  0  0  0  0  0  0  0  0  0  0  0
   11.5270  -10.4718   23.7392 C   0  0  0  0  0  0  0  0  0  0  0  0
   11.5991   -9.1945   24.0429 N   0  0  0  0  0  0  0  0  0  0  0  0
   10.3623  -11.0049   25.2733 H   0  0  0  0  0  0  0  0  0  0  0  0
   10.8040  -12.2717   24.2207 H   0  0  0  0  0  0  0  0  0  0  0  0
   11.1313   -8.8503   24.8378 H   0  0  0  0  0  0  0  0  0  0  0  0
   12.1208   -8.5823   23.4752 H   0  0  0  0  0  0  0  0  0  0  0  0
   18.9888  -11.3849   20.8015 C   0  0  0  0  0  0  0  0  0  0  0  0
   19.2994  -12.6012   21.6445 C   0  0  0  0  0  0  0  0  0  0  0  0
   18.3324  -13.1257   22.5180 C   0  0  0  0  0  0  0  0  0  0  0  0
   18.6101  -14.2632   23.2772 C   0  0  0  0  0  0  0  0  0  0  0  0
   19.8498  -14.8796   23.1603 C   0  0  0  0  0  0  0  0  0  0  0  0
   20.1150  -15.9729   23.8864 F   0  0  0  0  0  0  0  0  0  0  0  0
   20.8174  -14.3822   22.2958 C   0  0  0  0  0  0  0  0  0  0  0  0
   20.5425  -13.2456   21.5345 C   0  0  0  0  0  0  0  0  0  0  0  0
 20 21  1  0
 21 22  2  0
 21 14  1  0
 14 15  2  0
 15 16  1  0
 16 17  2  0
  1 17  1  0
  1  2  1  0
  2  3  1  0
  3  4  2  0
  3  5  1  0
  5 27  1  0
 27 28  1  0
 28 29  2  0
 29 30  1  0
 30 31  2  0
 31 32  1  0
 31 33  1  0
 33 34  2  0
  5  6  1  0
  6  7  2  0
  8  6  1  0
  8  9  1  0
  9 10  1  0
 10 11  1  0
 11 12  1  0
 12 13  1  0
 17 18  1  0
 18 19  2  0
 19 14  1  0
 13  1  1  0
  8  2  1  0
 13  9  1  0
 34 28  1  0
 20 23  1  0
 20 24  1  0
 22 25  1  0
 22 26  1  0
M  CHG 1  22   1
M  END
> <minimizedAffinity>
-9.01822

> <CNNscore>
0.5819563866

> <CNNaffinity>
6.8081645966

> <CNN_VS>
3.9620549679

> <CNNaffinity_variance>
0.1487733573

$$$$



 34 38  0  0  0  0  0  0  0  0999 V2000
   15.8872  -11.1431   19.7416 C   0  0  0  0  0  0  0  0  0  0  0  0
   17.2052  -11.3865   20.4752 C   0  0  0  0  0  0  0  0  0  0  0  0
   17.2228  -12.4816   21.5172 C   0  0  0  0  0  0  0  0  0  0  0  0
   16.5321  -12.5067   22.5275 O   0  0  0  0  0  0  0  0  0  0  0  0
   18.1913  -13.3859   21.1871 N   0  0  0  0  0  0  0  0  0  0  0  0
   18.8224  -13.0864   20.0170 C   0  0  0  0  0  0  0  0  0  0  0  0
   19.7554  -13.6915   19.5105 O   0  0  0  0  0  0  0  0  0  0  0  0
   18.1557  -11.8960   19.3940 C   0  0  0  0  0  0  0  0  0  0  0  0
   17.2718  -12.3322   18.2343 C   0  0  0  0  0  0  0  0  0  0  0  0
   17.3887  -11.4528   16.9984 C   0  0  0  0  0  0  0  0  0  0  0  0
   16.0416  -11.6501   16.3360 C   0  0  0  0  0  0  0  0  0  0  0  0
   15.0721  -11.7777   17.5036 C   0  0  0  0  0  0  0  0  0  0  0  0
   15.8700  -12.1715   18.6809 N   0  0  0  0  0  0  0  0  0  0  0  0
   12.4658  -11.0685   22.4103 C   0  0  0  0  0  0  0  0  0  0  0  0
   12.7474  -12.2191   21.6634 C   0  0  0  0  0  0  0  0  0  0  0  0
   13.8273  -12.2418   20.7791 C   0  0  0  0  0  0  0  0  0  0  0  0
   14.6557  -11.1199   20.6260 C   0  0  0  0  0  0  0  0  0  0  0  0
   14.3579   -9.9633   21.3623 C   0  0  0  0  0  0  0  0  0  0  0  0
   13.2720   -9.9349   22.2414 C   0  0  0  0  0  0  0  0  0  0  0  0
   11.1460   -9.9800   24.0873 N   0  0  0  0  0  0  0  0  0  0  0  0
   11.3633  -11.0645   23.3756 C   0  0  0  0  0  0  0  0  0  0  0  0
   10.6194  -12.1405   23.5080 N   0  0  0  0  0  0  0  0  0  0  0  0
   10.4097   -9.9593   24.7405 H   0  0  0  0  0  0  0  0  0  0  0  0
   11.7195   -9.1889   23.9667 H   0  0  0  0  0  0  0  0  0  0  0  0
    9.8761  -12.1487   24.1535 H   0  0  0  0  0  0  0  0  0  0  0  0
   10.8057  -12.9380   22.9616 H   0  0  0  0  0  0  0  0  0  0  0  0
   18.5714  -14.4991   22.0302 C   0  0  0  0  0  0  0  0  0  0  0  0
   18.1615  -15.8212   21.4215 C   0  0  0  0  0  0  0  0  0  0  0  0
   18.9728  -16.9572   21.5782 C   0  0  0  0  0  0  0  0  0  0  0  0
   18.5822  -18.1833   21.0382 C   0  0  0  0  0  0  0  0  0  0  0  0
   17.3803  -18.2763   20.3474 C   0  0  0  0  0  0  0  0  0  0  0  0
   17.0039  -19.4535   19.8321 F   0  0  0  0  0  0  0  0  0  0  0  0
   16.5587  -17.1669   20.1883 C   0  0  0  0  0  0  0  0  0  0  0  0
   16.9459  -15.9397   20.7280 C   0  0  0  0  0  0  0  0  0  0  0  0
 20 21  1  0
 21 22  2  0
 21 14  1  0
 14 15  2  0
 15 16  1  0
 16 17  2  0
  1 17  1  0
  1  2  1  0
  2  3  1  0
  3  4  2  0
  3  5  1  0
  5 27  1  0
 27 28  1  0
 28 29  2  0
 29 30  1  0
 30 31  2  0
 31 32  1  0
 31 33  1  0
 33 34  2  0
  5  6  1  0
  6  7  2  0
  8  6  1  0
  8  9  1  0
  9 10  1  0
 10 11  1  0
 11 12  1  0
 12 13  1  0
 17 18  1  0
 18 19  2  0
 19 14  1  0
 13  1  1  0
  8  2  1  0
 13  9  1  0
 34 28  1  0
 20 23  1  0
 20 24  1  0
 22 25  1  0
 22 26  1  0
M  CHG 1  22   1
M  END
> <minimizedAffinity>
-9.21621

> <CNNscore>
0.5674286485

> <CNNaffinity>
6.7164587975

> <CNN_VS>
3.8111112118

> <CNNaffinity_variance>
0.1678709388

$$$$



 34 38  0  0  0  0  0  0  0  0999 V2000
   17.4355  -13.8342   19.3084 C   0  0  0  0  0  0  0  0  0  0  0  0
   16.2046  -14.6850   19.6176 C   0  0  0  0  0  0  0  0  0  0  0  0
   15.5610  -14.5002   20.9730 C   0  0  0  0  0  0  0  0  0  0  0  0
   16.1072  -14.7078   22.0486 O   0  0  0  0  0  0  0  0  0  0  0  0
   14.2538  -14.1484   20.7938 N   0  0  0  0  0  0  0  0  0  0  0  0
   13.9135  -14.0163   19.4809 C   0  0  0  0  0  0  0  0  0  0  0  0
   12.8064  -13.7595   19.0318 O   0  0  0  0  0  0  0  0  0  0  0  0
   15.1424  -14.1899   18.6386 C   0  0  0  0  0  0  0  0  0  0  0  0
   15.6346  -12.8396   18.1377 C   0  0  0  0  0  0  0  0  0  0  0  0
   16.0470  -12.8323   16.6733 C   0  0  0  0  0  0  0  0  0  0  0  0
   17.0519  -11.7008   16.6289 C   0  0  0  0  0  0  0  0  0  0  0  0
   17.7685  -11.7915   17.9696 C   0  0  0  0  0  0  0  0  0  0  0  0
   16.8773  -12.5346   18.8813 N   0  0  0  0  0  0  0  0  0  0  0  0
   20.2837  -13.7384   22.5814 C   0  0  0  0  0  0  0  0  0  0  0  0
   19.3372  -12.7153   22.4454 C   0  0  0  0  0  0  0  0  0  0  0  0
   18.4374  -12.7211   21.3782 C   0  0  0  0  0  0  0  0  0  0  0  0
   18.4560  -13.7523   20.4270 C   0  0  0  0  0  0  0  0  0  0  0  0
   19.4186  -14.7647   20.5569 C   0  0  0  0  0  0  0  0  0  0  0  0
   20.3264  -14.7562   21.6193 C   0  0  0  0  0  0  0  0  0  0  0  0
   20.8219  -13.1634   24.8438 N   0  0  0  0  0  0  0  0  0  0  0  0
   21.1927  -13.7574   23.7305 C   0  0  0  0  0  0  0  0  0  0  0  0
   22.3537  -14.3652   23.6232 N   0  0  0  0  0  0  0  0  0  0  0  0
   21.4198  -13.1661   25.6259 H   0  0  0  0  0  0  0  0  0  0  0  0
   19.9465  -12.7160   24.8951 H   0  0  0  0  0  0  0  0  0  0  0  0
   22.9721  -14.3841   24.3890 H   0  0  0  0  0  0  0  0  0  0  0  0
   22.6046  -14.8015   22.7770 H   0  0  0  0  0  0  0  0  0  0  0  0
   13.3029  -14.0134   21.8764 C   0  0  0  0  0  0  0  0  0  0  0  0
   13.0741  -12.5626   22.2360 C   0  0  0  0  0  0  0  0  0  0  0  0
   13.9588  -11.5702   21.7822 C   0  0  0  0  0  0  0  0  0  0  0  0
   13.7336  -10.2285   22.0928 C   0  0  0  0  0  0  0  0  0  0  0  0
   12.6236   -9.8773   22.8509 C   0  0  0  0  0  0  0  0  0  0  0  0
   12.4058   -8.5895   23.1462 F   0  0  0  0  0  0  0  0  0  0  0  0
   11.7312  -10.8422   23.3025 C   0  0  0  0  0  0  0  0  0  0  0  0
   11.9529  -12.1845   22.9928 C   0  0  0  0  0  0  0  0  0  0  0  0
 20 21  1  0
 21 22  2  0
 21 14  1  0
 14 15  2  0
 15 16  1  0
 16 17  2  0
  1 17  1  0
  1  2  1  0
  2  3  1  0
  3  4  2  0
  3  5  1  0
  5 27  1  0
 27 28  1  0
 28 29  2  0
 29 30  1  0
 30 31  2  0
 31 32  1  0
 31 33  1  0
 33 34  2  0
  5  6  1  0
  6  7  2  0
  8  6  1  0
  8  9  1  0
  9 10  1  0
 10 11  1  0
 11 12  1  0
 12 13  1  0
 17 18  1  0
 18 19  2  0
 19 14  1  0
 13  1  1  0
  8  2  1  0
 13  9  1  0
 34 28  1  0
 20 23  1  0
 20 24  1  0
 22 25  1  0
 22 26  1  0
M  CHG 1  22   1
M  END
> <minimizedAffinity>
-8.17228

> <CNNscore>
0.5530172586

> <CNNaffinity>
7.2132072449

> <CNN_VS>
3.9890282154

> <CNNaffinity_variance>
0.5710451007

$$$$



 34 38  0  0  0  0  0  0  0  0999 V2000
   14.7470  -12.8553   19.6167 C   0  0  0  0  0  0  0  0  0  0  0  0
   14.5331  -14.3676   19.6621 C   0  0  0  0  0  0  0  0  0  0  0  0
   13.1109  -14.8592   19.8063 C   0  0  0  0  0  0  0  0  0  0  0  0
   12.3727  -14.6186   20.7527 O   0  0  0  0  0  0  0  0  0  0  0  0
   12.8212  -15.6794   18.7536 N   0  0  0  0  0  0  0  0  0  0  0  0
   13.8477  -15.7854   17.8636 C   0  0  0  0  0  0  0  0  0  0  0  0
   13.8817  -16.4852   16.8623 O   0  0  0  0  0  0  0  0  0  0  0  0
   14.9487  -14.8538   18.2755 C   0  0  0  0  0  0  0  0  0  0  0  0
   14.9563  -13.6189   17.3860 C   0  0  0  0  0  0  0  0  0  0  0  0
   16.3428  -13.1894   16.9303 C   0  0  0  0  0  0  0  0  0  0  0  0
   16.1558  -11.7065   16.6886 C   0  0  0  0  0  0  0  0  0  0  0  0
   15.1756  -11.2774   17.7723 C   0  0  0  0  0  0  0  0  0  0  0  0
   14.4651  -12.4936   18.2122 N   0  0  0  0  0  0  0  0  0  0  0  0
   12.6533  -10.5561   22.6439 C   0  0  0  0  0  0  0  0  0  0  0  0
   12.4919  -11.9458   22.5826 C   0  0  0  0  0  0  0  0  0  0  0  0
   13.1365  -12.6900   21.5931 C   0  0  0  0  0  0  0  0  0  0  0  0
   13.9636  -12.0656   20.6473 C   0  0  0  0  0  0  0  0  0  0  0  0
   14.1069  -10.6709   20.7012 C   0  0  0  0  0  0  0  0  0  0  0  0
   13.4553   -9.9226   21.6851 C   0  0  0  0  0  0  0  0  0  0  0  0
   10.8976  -10.2304   24.2408 N   0  0  0  0  0  0  0  0  0  0  0  0
   12.0170   -9.7838   23.7143 C   0  0  0  0  0  0  0  0  0  0  0  0
   12.5771   -8.6664   24.1226 N   0  0  0  0  0  0  0  0  0  0  0  0
   10.4561   -9.7246   24.9609 H   0  0  0  0  0  0  0  0  0  0  0  0
   10.5011  -11.0705   23.9149 H   0  0  0  0  0  0  0  0  0  0  0  0
   12.1581   -8.1397   24.8411 H   0  0  0  0  0  0  0  0  0  0  0  0
   13.4154   -8.3565   23.7098 H   0  0  0  0  0  0  0  0  0  0  0  0
   11.5885  -16.4281   18.6345 C   0  0  0  0  0  0  0  0  0  0  0  0
   11.7304  -17.8239   19.1985 C   0  0  0  0  0  0  0  0  0  0  0  0
   12.1169  -18.0138   20.5356 C   0  0  0  0  0  0  0  0  0  0  0  0
   12.2232  -19.3012   21.0634 C   0  0  0  0  0  0  0  0  0  0  0  0
   11.9386  -20.3976   20.2588 C   0  0  0  0  0  0  0  0  0  0  0  0
   12.0375  -21.6328   20.7662 F   0  0  0  0  0  0  0  0  0  0  0  0
   11.5462  -20.2317   18.9361 C   0  0  0  0  0  0  0  0  0  0  0  0
   11.4379  -18.9457   18.4056 C   0  0  0  0  0  0  0  0  0  0  0  0
 20 21  1  0
 21 22  2  0
 21 14  1  0
 14 15  2  0
 15 16  1  0
 16 17  2  0
  1 17  1  0
  1  2  1  0
  2  3  1  0
  3  4  2  0
  3  5  1  0
  5 27  1  0
 27 28  1  0
 28 29  2  0
 29 30  1  0
 30 31  2  0
 31 32  1  0
 31 33  1  0
 33 34  2  0
  5  6  1  0
  6  7  2  0
  8  6  1  0
  8  9  1  0
  9 10  1  0
 10 11  1  0
 11 12  1  0
 12 13  1  0
 17 18  1  0
 18 19  2  0
 19 14  1  0
 13  1  1  0
  8  2  1  0
 13  9  1  0
 34 28  1  0
 20 23  1  0
 20 24  1  0
 22 25  1  0
 22 26  1  0
M  CHG 1  22   1
M  END
> <minimizedAffinity>
-8.76352

> <CNNscore>
0.5430305600

> <CNNaffinity>
6.6770911217

> <CNN_VS>
3.6258645058

> <CNNaffinity_variance>
0.2098157555

$$$$
