


 43 46  0  0  0  0  0  0  0  0999 V2000
   47.2935   11.7796    1.2632 C   0  0  0  0  0  0  0  0  0  0  0  0
   48.1889   11.7320    0.1911 C   0  0  0  0  0  0  0  0  0  0  0  0
   48.9708   10.5992   -0.0116 C   0  0  0  0  0  0  0  0  0  0  0  0
   48.8740    9.5133    0.8645 C   0  0  0  0  0  0  0  0  0  0  0  0
   48.0190    9.5432    1.9709 C   0  0  0  0  0  0  0  0  0  0  0  0
   47.2124   10.6808    2.1351 C   0  0  0  0  0  0  0  0  0  0  0  0
   44.8105   14.6100    1.3345 C   0  0  0  0  0  0  0  0  0  0  0  0
   45.5357   15.0821    2.4143 C   0  0  0  0  0  0  0  0  0  0  0  0
   46.8400   14.0223    2.7722 S   0  0  0  0  0  0  0  0  0  0  0  0
   46.4567   12.9611    1.4800 C   0  0  0  0  0  0  0  0  0  0  0  0
   45.3590   13.4184    0.7846 C   0  0  0  0  0  0  0  0  0  0  0  0
   44.6045   12.5721   -0.7347 Br  0  0  0  0  0  0  0  0  0  0  0  0
   45.2861   16.2702    3.2019 C   0  0  0  0  0  0  0  0  0  0  0  0
   45.8976   17.3302    3.1806 O   0  0  0  0  0  0  0  0  0  0  0  0
   44.2317   16.1441    4.0413 O   0  0  0  0  0  0  0  0  0  0  0  0
   43.7509   15.3405    4.0721 H   0  0  0  0  0  0  0  0  0  0  0  0
   43.7461   15.2844    0.8321 O   0  0  0  0  0  0  0  0  0  0  0  0
   44.1388   16.1867   -0.2136 C   0  0  0  0  0  0  0  0  0  0  0  0
   43.1379   16.0283   -1.3604 C   0  0  0  0  0  0  0  0  0  0  0  0
   43.6657   16.3774   -2.7760 C   0  0  0  0  0  0  0  0  0  0  0  0
   42.5030   16.3489   -3.7971 C   0  0  0  0  0  0  0  0  0  0  0  0
   44.2677   17.7949   -2.8115 C   0  0  0  0  0  0  0  0  0  0  0  0
   44.7036   15.3135   -3.2526 C   0  0  0  0  0  0  0  0  0  0  0  0
   47.1469   14.7137   -3.8374 C   0  0  0  0  0  0  0  0  0  0  0  0
   46.0582   15.7713   -3.8114 C   0  0  0  0  0  0  0  0  0  0  0  0
   47.8525    8.4731    2.8458 N   0  0  0  0  0  0  0  0  0  0  0  0
   47.0052    8.3962    3.3413 H   0  0  0  0  0  0  0  0  0  0  0  0
   48.8854    7.4568    3.0597 C   0  0  0  0  0  0  0  0  0  0  0  0
   50.1617    8.1171    3.5878 C   0  0  0  0  0  0  0  0  0  0  0  0
   51.2115    7.0569    3.8958 C   0  0  0  0  0  0  0  0  0  0  0  0
   50.6673    6.0877    4.8907 N   0  0  0  0  0  0  0  0  0  0  0  0
   49.4391    5.4039    4.4021 C   0  0  0  0  0  0  0  0  0  0  0  0
   48.3673    6.4372    4.0737 C   0  0  0  0  0  0  0  0  0  0  0  0
   51.8373    5.0584    5.6059 S   0  0  0  0  0  0  0  0  0  0  0  0
   51.5164    4.9120    7.0103 O   0  0  0  0  0  0  0  0  0  0  0  0
   53.1470    5.5386    5.2072 O   0  0  0  0  0  0  0  0  0  0  0  0
   51.5912    3.4987    4.7420 C   0  0  0  0  0  0  0  0  0  0  0  0
   50.5995    2.6038    5.4340 C   0  0  0  0  0  0  0  0  0  0  0  0
   50.7459    2.2973    6.7955 C   0  0  0  0  0  0  0  0  0  0  0  0
   49.8211    1.4735    7.4401 C   0  0  0  0  0  0  0  0  0  0  0  0
   48.7374    0.9540    6.7344 C   0  0  0  0  0  0  0  0  0  0  0  0
   48.5769    1.2575    5.3844 C   0  0  0  0  0  0  0  0  0  0  0  0
   49.5014    2.0785    4.7371 C   0  0  0  0  0  0  0  0  0  0  0  0
 24 25  1  0
 25 23  1  0
 23 20  1  0
 20 21  1  0
 20 22  1  0
 20 19  1  0
 19 18  1  0
 18 17  1  0
 17  7  1  0
  7  8  2  0
  8 13  1  0
 13 14  2  0
 13 15  1  0
  8  9  1  0
  9 10  1  0
 10  1  1  0
  1  2  2  0
  2  3  1  0
  3  4  2  0
  4  5  1  0
  5 26  1  0
 26 28  1  0
 28 29  1  0
 29 30  1  0
 30 31  1  0
 31 34  1  0
 34 35  2  0
 34 36  2  0
 34 37  1  0
 37 38  1  0
 38 39  2  0
 39 40  1  0
 40 41  2  0
 41 42  1  0
 42 43  2  0
 31 32  1  0
 32 33  1  0
  5  6  2  0
 10 11  2  0
 11 12  1  0
 11  7  1  0
  6  1  1  0
 33 28  1  0
 43 38  1  0
 15 16  1  0
 26 27  1  0
M  END
> <minimizedAffinity>
-7.87164

> <CNNscore>
0.6635501981

> <CNNaffinity>
7.0828413963

> <CNN_VS>
4.6998209953

> <CNNaffinity_variance>
0.0274755303

$$$$



 43 46  0  0  0  0  0  0  0  0999 V2000
   46.2837   11.1206    1.1609 C   0  0  0  0  0  0  0  0  0  0  0  0
   45.5968   10.1767    0.3924 C   0  0  0  0  0  0  0  0  0  0  0  0
   46.0741    8.8729    0.3032 C   0  0  0  0  0  0  0  0  0  0  0  0
   47.2489    8.5082    0.9688 C   0  0  0  0  0  0  0  0  0  0  0  0
   47.9837    9.4371    1.7127 C   0  0  0  0  0  0  0  0  0  0  0  0
   47.4641   10.7372    1.8196 C   0  0  0  0  0  0  0  0  0  0  0  0
   44.7392   14.5445    0.8909 C   0  0  0  0  0  0  0  0  0  0  0  0
   45.3144   14.7882    2.1257 C   0  0  0  0  0  0  0  0  0  0  0  0
   46.1592   13.3985    2.6802 S   0  0  0  0  0  0  0  0  0  0  0  0
   45.7849   12.4925    1.2723 C   0  0  0  0  0  0  0  0  0  0  0  0
   45.0381   13.2458    0.3936 C   0  0  0  0  0  0  0  0  0  0  0  0
   44.4263   12.6523   -1.2997 Br  0  0  0  0  0  0  0  0  0  0  0  0
   45.2422   15.9976    2.9170 C   0  0  0  0  0  0  0  0  0  0  0  0
   45.6098   17.1233    2.6075 O   0  0  0  0  0  0  0  0  0  0  0  0
   44.6837   15.8076    4.1353 O   0  0  0  0  0  0  0  0  0  0  0  0
   44.3960   14.9532    4.3907 H   0  0  0  0  0  0  0  0  0  0  0  0
   44.0422   15.4962    0.2211 O   0  0  0  0  0  0  0  0  0  0  0  0
   43.9486   15.1940   -1.1795 C   0  0  0  0  0  0  0  0  0  0  0  0
   43.6104   16.4951   -1.9111 C   0  0  0  0  0  0  0  0  0  0  0  0
   42.5470   16.3862   -3.0344 C   0  0  0  0  0  0  0  0  0  0  0  0
   42.9331   15.2592   -4.0223 C   0  0  0  0  0  0  0  0  0  0  0  0
   41.1632   16.0317   -2.4580 C   0  0  0  0  0  0  0  0  0  0  0  0
   42.4888   17.7065   -3.8649 C   0  0  0  0  0  0  0  0  0  0  0  0
   44.0001   19.7440   -3.3792 C   0  0  0  0  0  0  0  0  0  0  0  0
   43.7860   18.4677   -4.1726 C   0  0  0  0  0  0  0  0  0  0  0  0
   49.1327    9.1147    2.4297 N   0  0  0  0  0  0  0  0  0  0  0  0
   49.7589    9.8365    2.6669 H   0  0  0  0  0  0  0  0  0  0  0  0
   49.4488    7.7464    2.8460 C   0  0  0  0  0  0  0  0  0  0  0  0
   50.9589    7.6024    3.0526 C   0  0  0  0  0  0  0  0  0  0  0  0
   51.2864    6.2075    3.5700 C   0  0  0  0  0  0  0  0  0  0  0  0
   50.5527    5.9614    4.8453 N   0  0  0  0  0  0  0  0  0  0  0  0
   49.0776    6.0658    4.6793 C   0  0  0  0  0  0  0  0  0  0  0  0
   48.7127    7.4491    4.1521 C   0  0  0  0  0  0  0  0  0  0  0  0
   51.0902    4.5958    5.7320 S   0  0  0  0  0  0  0  0  0  0  0  0
   50.0489    3.5903    5.6939 O   0  0  0  0  0  0  0  0  0  0  0  0
   51.5941    5.0705    7.0068 O   0  0  0  0  0  0  0  0  0  0  0  0
   52.5273    4.0437    4.7994 C   0  0  0  0  0  0  0  0  0  0  0  0
   52.8132    2.5791    4.9897 C   0  0  0  0  0  0  0  0  0  0  0  0
   53.1477    2.0776    6.2568 C   0  0  0  0  0  0  0  0  0  0  0  0
   53.4049    0.7169    6.4354 C   0  0  0  0  0  0  0  0  0  0  0  0
   53.3235   -0.1573    5.3532 C   0  0  0  0  0  0  0  0  0  0  0  0
   52.9846    0.3273    4.0919 C   0  0  0  0  0  0  0  0  0  0  0  0
   52.7296    1.6873    3.9103 C   0  0  0  0  0  0  0  0  0  0  0  0
 24 25  1  0
 25 23  1  0
 23 20  1  0
 20 21  1  0
 20 22  1  0
 20 19  1  0
 19 18  1  0
 18 17  1  0
 17  7  1  0
  7  8  2  0
  8 13  1  0
 13 14  2  0
 13 15  1  0
  8  9  1  0
  9 10  1  0
 10  1  1  0
  1  2  2  0
  2  3  1  0
  3  4  2  0
  4  5  1  0
  5 26  1  0
 26 28  1  0
 28 29  1  0
 29 30  1  0
 30 31  1  0
 31 34  1  0
 34 35  2  0
 34 36  2  0
 34 37  1  0
 37 38  1  0
 38 39  2  0
 39 40  1  0
 40 41  2  0
 41 42  1  0
 42 43  2  0
 31 32  1  0
 32 33  1  0
  5  6  2  0
 10 11  2  0
 11 12  1  0
 11  7  1  0
  6  1  1  0
 33 28  1  0
 43 38  1  0
 15 16  1  0
 26 27  1  0
M  END
> <minimizedAffinity>
-7.75366

> <CNNscore>
0.5286719203

> <CNNaffinity>
6.9599766731

> <CNN_VS>
3.6795442104

> <CNNaffinity_variance>
0.0280528571

$$$$



 43 46  0  0  0  0  0  0  0  0999 V2000
   47.3089   11.5326    0.8116 C   0  0  0  0  0  0  0  0  0  0  0  0
   48.3162   11.5030   -0.1568 C   0  0  0  0  0  0  0  0  0  0  0  0
   49.2431   10.4655   -0.1639 C   0  0  0  0  0  0  0  0  0  0  0  0
   49.1786    9.4595    0.8056 C   0  0  0  0  0  0  0  0  0  0  0  0
   48.2095    9.4800    1.8138 C   0  0  0  0  0  0  0  0  0  0  0  0
   47.2618   10.5155    1.7799 C   0  0  0  0  0  0  0  0  0  0  0  0
   44.6302   14.1214    0.2602 C   0  0  0  0  0  0  0  0  0  0  0  0
   44.9234   14.5484    1.5434 C   0  0  0  0  0  0  0  0  0  0  0  0
   46.1592   13.5743    2.2336 S   0  0  0  0  0  0  0  0  0  0  0  0
   46.3204   12.6124    0.8223 C   0  0  0  0  0  0  0  0  0  0  0  0
   45.4521   13.0387   -0.1585 C   0  0  0  0  0  0  0  0  0  0  0  0
   45.3105   12.2799   -1.8899 Br  0  0  0  0  0  0  0  0  0  0  0  0
   44.3093   15.6304    2.2824 C   0  0  0  0  0  0  0  0  0  0  0  0
   44.2976   15.8037    3.4940 O   0  0  0  0  0  0  0  0  0  0  0  0
   43.6941   16.5387    1.4894 O   0  0  0  0  0  0  0  0  0  0  0  0
   43.6921   16.4237    0.5595 H   0  0  0  0  0  0  0  0  0  0  0  0
   43.7087   14.7474   -0.5138 O   0  0  0  0  0  0  0  0  0  0  0  0
   44.3055   15.3151   -1.6900 C   0  0  0  0  0  0  0  0  0  0  0  0
   43.8577   16.7760   -1.7760 C   0  0  0  0  0  0  0  0  0  0  0  0
   44.1716   17.5056   -3.1078 C   0  0  0  0  0  0  0  0  0  0  0  0
   44.8920   18.8451   -2.8212 C   0  0  0  0  0  0  0  0  0  0  0  0
   45.1095   16.6653   -3.9949 C   0  0  0  0  0  0  0  0  0  0  0  0
   42.8527   17.8615   -3.8628 C   0  0  0  0  0  0  0  0  0  0  0  0
   42.8213   19.6426   -5.7331 C   0  0  0  0  0  0  0  0  0  0  0  0
   42.5799   19.3162   -4.2704 C   0  0  0  0  0  0  0  0  0  0  0  0
   48.0745    8.4806    2.7738 N   0  0  0  0  0  0  0  0  0  0  0  0
   47.2487    8.4490    3.3090 H   0  0  0  0  0  0  0  0  0  0  0  0
   49.1098    7.4743    3.0205 C   0  0  0  0  0  0  0  0  0  0  0  0
   50.2105    8.0679    3.9037 C   0  0  0  0  0  0  0  0  0  0  0  0
   51.2466    7.0020    4.2372 C   0  0  0  0  0  0  0  0  0  0  0  0
   50.5823    5.8543    4.9203 N   0  0  0  0  0  0  0  0  0  0  0  0
   49.5225    5.2320    4.0812 C   0  0  0  0  0  0  0  0  0  0  0  0
   48.4705    6.2744    3.7189 C   0  0  0  0  0  0  0  0  0  0  0  0
   51.6538    4.7496    5.6763 S   0  0  0  0  0  0  0  0  0  0  0  0
   51.6807    5.0405    7.0946 O   0  0  0  0  0  0  0  0  0  0  0  0
   52.8878    4.7429    4.9135 O   0  0  0  0  0  0  0  0  0  0  0  0
   50.8726    3.1555    5.3794 C   0  0  0  0  0  0  0  0  0  0  0  0
   51.8496    2.0129    5.4334 C   0  0  0  0  0  0  0  0  0  0  0  0
   52.4587    1.6534    6.6454 C   0  0  0  0  0  0  0  0  0  0  0  0
   53.3592    0.5877    6.6975 C   0  0  0  0  0  0  0  0  0  0  0  0
   53.6549   -0.1341    5.5426 C   0  0  0  0  0  0  0  0  0  0  0  0
   53.0506    0.2083    4.3350 C   0  0  0  0  0  0  0  0  0  0  0  0
   52.1522    1.2747    4.2798 C   0  0  0  0  0  0  0  0  0  0  0  0
 24 25  1  0
 25 23  1  0
 23 20  1  0
 20 21  1  0
 20 22  1  0
 20 19  1  0
 19 18  1  0
 18 17  1  0
 17  7  1  0
  7  8  2  0
  8 13  1  0
 13 14  2  0
 13 15  1  0
  8  9  1  0
  9 10  1  0
 10  1  1  0
  1  2  2  0
  2  3  1  0
  3  4  2  0
  4  5  1  0
  5 26  1  0
 26 28  1  0
 28 29  1  0
 29 30  1  0
 30 31  1  0
 31 34  1  0
 34 35  2  0
 34 36  2  0
 34 37  1  0
 37 38  1  0
 38 39  2  0
 39 40  1  0
 40 41  2  0
 41 42  1  0
 42 43  2  0
 31 32  1  0
 32 33  1  0
  5  6  2  0
 10 11  2  0
 11 12  1  0
 11  7  1  0
  6  1  1  0
 33 28  1  0
 43 38  1  0
 15 16  1  0
 26 27  1  0
M  END
> <minimizedAffinity>
-7.70753

> <CNNscore>
0.3871404231

> <CNNaffinity>
6.5241732597

> <CNN_VS>
2.5257711411

> <CNNaffinity_variance>
0.1112317219

$$$$



 43 46  0  0  0  0  0  0  0  0999 V2000
   45.5651   11.3778    0.4909 C   0  0  0  0  0  0  0  0  0  0  0  0
   44.8390   10.3666   -0.1445 C   0  0  0  0  0  0  0  0  0  0  0  0
   45.2807    9.0489   -0.0809 C   0  0  0  0  0  0  0  0  0  0  0  0
   46.4587    8.7355    0.6047 C   0  0  0  0  0  0  0  0  0  0  0  0
   47.2319    9.7274    1.2167 C   0  0  0  0  0  0  0  0  0  0  0  0
   46.7481   11.0448    1.1719 C   0  0  0  0  0  0  0  0  0  0  0  0
   44.2600   14.8342   -0.2378 C   0  0  0  0  0  0  0  0  0  0  0  0
   44.5203   15.1013    1.0948 C   0  0  0  0  0  0  0  0  0  0  0  0
   45.1510   13.7067    1.8755 S   0  0  0  0  0  0  0  0  0  0  0  0
   45.1041   12.7664    0.4414 C   0  0  0  0  0  0  0  0  0  0  0  0
   44.6254   13.5119   -0.6134 C   0  0  0  0  0  0  0  0  0  0  0  0
   44.4305   12.8813   -2.3905 Br  0  0  0  0  0  0  0  0  0  0  0  0
   44.2984   16.3376    1.8136 C   0  0  0  0  0  0  0  0  0  0  0  0
   43.8732   17.3980    1.3748 O   0  0  0  0  0  0  0  0  0  0  0  0
   44.6055   16.2542    3.1293 O   0  0  0  0  0  0  0  0  0  0  0  0
   44.9323   15.4510    3.4841 H   0  0  0  0  0  0  0  0  0  0  0  0
   43.7851   15.7833   -1.0827 O   0  0  0  0  0  0  0  0  0  0  0  0
   43.0857   15.1994   -2.1926 C   0  0  0  0  0  0  0  0  0  0  0  0
   41.7932   15.9940   -2.3937 C   0  0  0  0  0  0  0  0  0  0  0  0
   40.9396   15.6019   -3.6274 C   0  0  0  0  0  0  0  0  0  0  0  0
   41.2923   16.5135   -4.8273 C   0  0  0  0  0  0  0  0  0  0  0  0
   41.2212   14.1506   -4.0604 C   0  0  0  0  0  0  0  0  0  0  0  0
   39.4215   15.8170   -3.3352 C   0  0  0  0  0  0  0  0  0  0  0  0
   38.2554   16.6354   -1.1807 C   0  0  0  0  0  0  0  0  0  0  0  0
   38.8589   15.4734   -1.9488 C   0  0  0  0  0  0  0  0  0  0  0  0
   48.3863    9.4631    1.9487 N   0  0  0  0  0  0  0  0  0  0  0  0
   48.9294   10.2215    2.2634 H   0  0  0  0  0  0  0  0  0  0  0  0
   48.8264    8.1035    2.2700 C   0  0  0  0  0  0  0  0  0  0  0  0
   50.3555    8.0319    2.2389 C   0  0  0  0  0  0  0  0  0  0  0  0
   50.8238    6.6440    2.6576 C   0  0  0  0  0  0  0  0  0  0  0  0
   50.3078    6.3319    4.0220 N   0  0  0  0  0  0  0  0  0  0  0  0
   48.8214    6.3648    4.0866 C   0  0  0  0  0  0  0  0  0  0  0  0
   48.3152    7.7393    3.6636 C   0  0  0  0  0  0  0  0  0  0  0  0
   51.0388    4.9755    4.7742 S   0  0  0  0  0  0  0  0  0  0  0  0
   50.6024    3.7813    4.0814 O   0  0  0  0  0  0  0  0  0  0  0  0
   50.8308    5.1016    6.2044 O   0  0  0  0  0  0  0  0  0  0  0  0
   52.7955    5.2530    4.4970 C   0  0  0  0  0  0  0  0  0  0  0  0
   53.4811    4.0601    3.8888 C   0  0  0  0  0  0  0  0  0  0  0  0
   54.2028    4.1869    2.6921 C   0  0  0  0  0  0  0  0  0  0  0  0
   54.8462    3.0817    2.1317 C   0  0  0  0  0  0  0  0  0  0  0  0
   54.7819    1.8413    2.7638 C   0  0  0  0  0  0  0  0  0  0  0  0
   54.0751    1.7045    3.9563 C   0  0  0  0  0  0  0  0  0  0  0  0
   53.4289    2.8071    4.5171 C   0  0  0  0  0  0  0  0  0  0  0  0
 24 25  1  0
 25 23  1  0
 23 20  1  0
 20 21  1  0
 20 22  1  0
 20 19  1  0
 19 18  1  0
 18 17  1  0
 17  7  1  0
  7  8  2  0
  8 13  1  0
 13 14  2  0
 13 15  1  0
  8  9  1  0
  9 10  1  0
 10  1  1  0
  1  2  2  0
  2  3  1  0
  3  4  2  0
  4  5  1  0
  5 26  1  0
 26 28  1  0
 28 29  1  0
 29 30  1  0
 30 31  1  0
 31 34  1  0
 34 35  2  0
 34 36  2  0
 34 37  1  0
 37 38  1  0
 38 39  2  0
 39 40  1  0
 40 41  2  0
 41 42  1  0
 42 43  2  0
 31 32  1  0
 32 33  1  0
  5  6  2  0
 10 11  2  0
 11 12  1  0
 11  7  1  0
  6  1  1  0
 33 28  1  0
 43 38  1  0
 15 16  1  0
 26 27  1  0
M  END
> <minimizedAffinity>
-7.35494

> <CNNscore>
0.3356194496

> <CNNaffinity>
6.4062619209

> <CNN_VS>
2.1500661373

> <CNNaffinity_variance>
0.3329794705

$$$$



 43 46  0  0  0  0  0  0  0  0999 V2000
   45.1750   10.6982   -0.0819 C   0  0  0  0  0  0  0  0  0  0  0  0
   44.6772   11.5740    0.8868 C   0  0  0  0  0  0  0  0  0  0  0  0
   45.4829   11.9624    1.9525 C   0  0  0  0  0  0  0  0  0  0  0  0
   46.7857   11.4662    2.0650 C   0  0  0  0  0  0  0  0  0  0  0  0
   47.3019   10.5564    1.1366 C   0  0  0  0  0  0  0  0  0  0  0  0
   46.4848   10.2070    0.0495 C   0  0  0  0  0  0  0  0  0  0  0  0
   43.1209   10.2330   -3.2037 C   0  0  0  0  0  0  0  0  0  0  0  0
   42.9126    8.9423   -2.7501 C   0  0  0  0  0  0  0  0  0  0  0  0
   43.7374    8.6865   -1.2647 S   0  0  0  0  0  0  0  0  0  0  0  0
   44.3411   10.2916   -1.2143 C   0  0  0  0  0  0  0  0  0  0  0  0
   43.9085   11.0083   -2.3082 C   0  0  0  0  0  0  0  0  0  0  0  0
   44.3135   12.8295   -2.6443 Br  0  0  0  0  0  0  0  0  0  0  0  0
   42.1488    7.8895   -3.3844 C   0  0  0  0  0  0  0  0  0  0  0  0
   40.9817    7.9221   -3.7516 O   0  0  0  0  0  0  0  0  0  0  0  0
   42.8612    6.7555   -3.5810 O   0  0  0  0  0  0  0  0  0  0  0  0
   43.7561    6.7109   -3.3069 H   0  0  0  0  0  0  0  0  0  0  0  0
   42.5495   10.6965   -4.3433 O   0  0  0  0  0  0  0  0  0  0  0  0
   41.4570   11.5849   -4.0623 C   0  0  0  0  0  0  0  0  0  0  0  0
   40.3002   11.2019   -4.9882 C   0  0  0  0  0  0  0  0  0  0  0  0
   38.9074   11.0745   -4.3186 C   0  0  0  0  0  0  0  0  0  0  0  0
   37.9665   10.2282   -5.2095 C   0  0  0  0  0  0  0  0  0  0  0  0
   39.0079   10.3614   -2.9569 C   0  0  0  0  0  0  0  0  0  0  0  0
   38.2391   12.4773   -4.1709 C   0  0  0  0  0  0  0  0  0  0  0  0
   38.6237   14.4696   -2.5728 C   0  0  0  0  0  0  0  0  0  0  0  0
   38.0429   13.0816   -2.7735 C   0  0  0  0  0  0  0  0  0  0  0  0
   48.6052   10.0683    1.1782 N   0  0  0  0  0  0  0  0  0  0  0  0
   49.2660   10.4332    0.5461 H   0  0  0  0  0  0  0  0  0  0  0  0
   49.0341    9.0347    2.1232 C   0  0  0  0  0  0  0  0  0  0  0  0
   47.8365    8.1696    2.5250 C   0  0  0  0  0  0  0  0  0  0  0  0
   48.2903    7.0385    3.4391 C   0  0  0  0  0  0  0  0  0  0  0  0
   49.3253    6.2185    2.7451 N   0  0  0  0  0  0  0  0  0  0  0  0
   50.5194    7.0197    2.3618 C   0  0  0  0  0  0  0  0  0  0  0  0
   50.1010    8.1697    1.4525 C   0  0  0  0  0  0  0  0  0  0  0  0
   49.6681    4.7127    3.4900 S   0  0  0  0  0  0  0  0  0  0  0  0
   49.6302    4.8966    4.9258 O   0  0  0  0  0  0  0  0  0  0  0  0
   50.8569    4.1712    2.8591 O   0  0  0  0  0  0  0  0  0  0  0  0
   48.2996    3.6726    2.9562 C   0  0  0  0  0  0  0  0  0  0  0  0
   48.6336    2.2066    3.0044 C   0  0  0  0  0  0  0  0  0  0  0  0
   48.8309    1.4818    1.8192 C   0  0  0  0  0  0  0  0  0  0  0  0
   49.1491    0.1230    1.8638 C   0  0  0  0  0  0  0  0  0  0  0  0
   49.2809   -0.5236    3.0913 C   0  0  0  0  0  0  0  0  0  0  0  0
   49.0952    0.1870    4.2749 C   0  0  0  0  0  0  0  0  0  0  0  0
   48.7745    1.5446    4.2330 C   0  0  0  0  0  0  0  0  0  0  0  0
 24 25  1  0
 25 23  1  0
 23 20  1  0
 20 21  1  0
 20 22  1  0
 20 19  1  0
 19 18  1  0
 18 17  1  0
 17  7  1  0
  7  8  2  0
  8 13  1  0
 13 14  2  0
 13 15  1  0
  8  9  1  0
  9 10  1  0
 10  1  1  0
  1  2  2  0
  2  3  1  0
  3  4  2  0
  4  5  1  0
  5 26  1  0
 26 28  1  0
 28 29  1  0
 29 30  1  0
 30 31  1  0
 31 34  1  0
 34 35  2  0
 34 36  2  0
 34 37  1  0
 37 38  1  0
 38 39  2  0
 39 40  1  0
 40 41  2  0
 41 42  1  0
 42 43  2  0
 31 32  1  0
 32 33  1  0
  5  6  2  0
 10 11  2  0
 11 12  1  0
 11  7  1  0
  6  1  1  0
 33 28  1  0
 43 38  1  0
 15 16  1  0
 26 27  1  0
M  END
> <minimizedAffinity>
-5.79666

> <CNNscore>
0.2296555489

> <CNNaffinity>
5.4125351906

> <CNN_VS>
1.2430187464

> <CNNaffinity_variance>
0.6840491295

$$$$



 43 46  0  0  0  0  0  0  0  0999 V2000
   47.3513   11.5651    1.1565 C   0  0  0  0  0  0  0  0  0  0  0  0
   47.3325   10.5219    2.0864 C   0  0  0  0  0  0  0  0  0  0  0  0
   48.2031    9.4463    1.9419 C   0  0  0  0  0  0  0  0  0  0  0  0
   49.0871    9.3990    0.8591 C   0  0  0  0  0  0  0  0  0  0  0  0
   49.1042   10.4050   -0.1125 C   0  0  0  0  0  0  0  0  0  0  0  0
   48.2435   11.4988    0.0731 C   0  0  0  0  0  0  0  0  0  0  0  0
   44.7781   14.3101    1.0000 C   0  0  0  0  0  0  0  0  0  0  0  0
   45.3269   14.7514    2.1912 C   0  0  0  0  0  0  0  0  0  0  0  0
   46.6073   13.7165    2.6831 S   0  0  0  0  0  0  0  0  0  0  0  0
   46.4486   12.7081    1.3044 C   0  0  0  0  0  0  0  0  0  0  0  0
   45.4424   13.1643    0.4815 C   0  0  0  0  0  0  0  0  0  0  0  0
   44.9400   12.3700   -1.1648 Br  0  0  0  0  0  0  0  0  0  0  0  0
   44.9251   15.8914    2.9869 C   0  0  0  0  0  0  0  0  0  0  0  0
   44.6554   15.9194    4.1804 O   0  0  0  0  0  0  0  0  0  0  0  0
   44.8649   17.0436    2.2790 O   0  0  0  0  0  0  0  0  0  0  0  0
   45.0678   17.0426    1.3642 H   0  0  0  0  0  0  0  0  0  0  0  0
   43.7697   14.9748    0.3822 O   0  0  0  0  0  0  0  0  0  0  0  0
   44.0922   15.2697   -0.9855 C   0  0  0  0  0  0  0  0  0  0  0  0
   43.1557   16.3875   -1.4502 C   0  0  0  0  0  0  0  0  0  0  0  0
   42.5811   16.2407   -2.8830 C   0  0  0  0  0  0  0  0  0  0  0  0
   42.6132   14.7556   -3.3173 C   0  0  0  0  0  0  0  0  0  0  0  0
   41.1122   16.7007   -2.9431 C   0  0  0  0  0  0  0  0  0  0  0  0
   43.4584   17.0243   -3.9090 C   0  0  0  0  0  0  0  0  0  0  0  0
   44.0010   19.4997   -3.4098 C   0  0  0  0  0  0  0  0  0  0  0  0
   43.1605   18.5040   -4.1887 C   0  0  0  0  0  0  0  0  0  0  0  0
   49.9940   10.4279   -1.1830 N   0  0  0  0  0  0  0  0  0  0  0  0
   49.6383   10.5750   -2.0891 H   0  0  0  0  0  0  0  0  0  0  0  0
   51.4374   10.2421   -1.0172 C   0  0  0  0  0  0  0  0  0  0  0  0
   51.9527    9.2339   -2.0477 C   0  0  0  0  0  0  0  0  0  0  0  0
   53.4665    9.1012   -1.9395 C   0  0  0  0  0  0  0  0  0  0  0  0
   54.1019   10.4355   -2.1421 N   0  0  0  0  0  0  0  0  0  0  0  0
   53.6460   11.4379   -1.1411 C   0  0  0  0  0  0  0  0  0  0  0  0
   52.1308   11.5900   -1.2139 C   0  0  0  0  0  0  0  0  0  0  0  0
   55.7950   10.3924   -2.4095 S   0  0  0  0  0  0  0  0  0  0  0  0
   56.0365    9.7747   -3.6967 O   0  0  0  0  0  0  0  0  0  0  0  0
   56.4143    9.8481   -1.2159 O   0  0  0  0  0  0  0  0  0  0  0  0
   56.2448   12.1346   -2.4575 C   0  0  0  0  0  0  0  0  0  0  0  0
   57.2127   12.5127   -1.3697 C   0  0  0  0  0  0  0  0  0  0  0  0
   58.5846   12.2567   -1.5166 C   0  0  0  0  0  0  0  0  0  0  0  0
   59.4842   12.6151   -0.5108 C   0  0  0  0  0  0  0  0  0  0  0  0
   59.0248   13.2389    0.6476 C   0  0  0  0  0  0  0  0  0  0  0  0
   57.6662   13.5055    0.8016 C   0  0  0  0  0  0  0  0  0  0  0  0
   56.7646   13.1459   -0.2011 C   0  0  0  0  0  0  0  0  0  0  0  0
 24 25  1  0
 25 23  1  0
 23 20  1  0
 20 21  1  0
 20 22  1  0
 20 19  1  0
 19 18  1  0
 18 17  1  0
 17  7  1  0
  7  8  2  0
  8 13  1  0
 13 14  2  0
 13 15  1  0
  8  9  1  0
  9 10  1  0
 10  1  1  0
  1  2  2  0
  2  3  1  0
  3  4  2  0
  4  5  1  0
  5 26  1  0
 26 28  1  0
 28 29  1  0
 29 30  1  0
 30 31  1  0
 31 34  1  0
 34 35  2  0
 34 36  2  0
 34 37  1  0
 37 38  1  0
 38 39  2  0
 39 40  1  0
 40 41  2  0
 41 42  1  0
 42 43  2  0
 31 32  1  0
 32 33  1  0
  5  6  2  0
 10 11  2  0
 11 12  1  0
 11  7  1  0
  6  1  1  0
 33 28  1  0
 43 38  1  0
 15 16  1  0
 26 27  1  0
M  END
> <minimizedAffinity>
-6.56455

> <CNNscore>
0.2123808116

> <CNNaffinity>
6.0804266930

> <CNN_VS>
1.2913659811

> <CNNaffinity_variance>
0.1362214386

$$$$



 43 46  0  0  0  0  0  0  0  0999 V2000
   45.9756   10.1504    0.2703 C   0  0  0  0  0  0  0  0  0  0  0  0
   46.0711   11.2382    1.1427 C   0  0  0  0  0  0  0  0  0  0  0  0
   46.9907   11.2133    2.1865 C   0  0  0  0  0  0  0  0  0  0  0  0
   47.8097   10.0952    2.3743 C   0  0  0  0  0  0  0  0  0  0  0  0
   47.7120    8.9726    1.5457 C   0  0  0  0  0  0  0  0  0  0  0  0
   46.8037    9.0343    0.4766 C   0  0  0  0  0  0  0  0  0  0  0  0
   43.7895   10.7399   -2.7388 C   0  0  0  0  0  0  0  0  0  0  0  0
   43.1813    9.5433   -2.4026 C   0  0  0  0  0  0  0  0  0  0  0  0
   43.9203    8.8642   -1.0080 S   0  0  0  0  0  0  0  0  0  0  0  0
   45.0204   10.1697   -0.8389 C   0  0  0  0  0  0  0  0  0  0  0  0
   44.8152   11.1092   -1.8252 C   0  0  0  0  0  0  0  0  0  0  0  0
   45.7874   12.7267   -2.0051 Br  0  0  0  0  0  0  0  0  0  0  0  0
   42.0945    8.8756   -3.0861 C   0  0  0  0  0  0  0  0  0  0  0  0
   42.1420    8.2274   -4.1232 O   0  0  0  0  0  0  0  0  0  0  0  0
   40.9042    9.0072   -2.4551 O   0  0  0  0  0  0  0  0  0  0  0  0
   40.8474    9.4995   -1.6599 H   0  0  0  0  0  0  0  0  0  0  0  0
   43.3685   11.4920   -3.7864 O   0  0  0  0  0  0  0  0  0  0  0  0
   43.4056   12.8939   -3.4781 C   0  0  0  0  0  0  0  0  0  0  0  0
   41.9848   13.4398   -3.6380 C   0  0  0  0  0  0  0  0  0  0  0  0
   41.8688   14.9600   -3.9208 C   0  0  0  0  0  0  0  0  0  0  0  0
   41.2178   15.1932   -5.3054 C   0  0  0  0  0  0  0  0  0  0  0  0
   40.9753   15.6538   -2.8753 C   0  0  0  0  0  0  0  0  0  0  0  0
   43.2833   15.6173   -3.9769 C   0  0  0  0  0  0  0  0  0  0  0  0
   43.4514   15.8071   -1.4064 C   0  0  0  0  0  0  0  0  0  0  0  0
   43.8091   16.3925   -2.7606 C   0  0  0  0  0  0  0  0  0  0  0  0
   48.5336    7.8547    1.6620 N   0  0  0  0  0  0  0  0  0  0  0  0
   48.6038    7.2392    0.8969 H   0  0  0  0  0  0  0  0  0  0  0  0
   49.2977    7.5562    2.8755 C   0  0  0  0  0  0  0  0  0  0  0  0
   48.7839    6.2594    3.5066 C   0  0  0  0  0  0  0  0  0  0  0  0
   49.6306    5.8956    4.7197 C   0  0  0  0  0  0  0  0  0  0  0  0
   51.0580    5.7546    4.3100 N   0  0  0  0  0  0  0  0  0  0  0  0
   51.6029    7.0054    3.7156 C   0  0  0  0  0  0  0  0  0  0  0  0
   50.7722    7.4063    2.5017 C   0  0  0  0  0  0  0  0  0  0  0  0
   52.0686    5.0012    5.4724 S   0  0  0  0  0  0  0  0  0  0  0  0
   51.4349    5.1170    6.7692 O   0  0  0  0  0  0  0  0  0  0  0  0
   53.4151    5.5040    5.2753 O   0  0  0  0  0  0  0  0  0  0  0  0
   52.0926    3.2823    4.9390 C   0  0  0  0  0  0  0  0  0  0  0  0
   50.8604    2.5285    5.3591 C   0  0  0  0  0  0  0  0  0  0  0  0
   50.7049    2.1014    6.6866 C   0  0  0  0  0  0  0  0  0  0  0  0
   49.5576    1.4091    7.0788 C   0  0  0  0  0  0  0  0  0  0  0  0
   48.5513    1.1430    6.1521 C   0  0  0  0  0  0  0  0  0  0  0  0
   48.6906    1.5688    4.8331 C   0  0  0  0  0  0  0  0  0  0  0  0
   49.8376    2.2586    4.4380 C   0  0  0  0  0  0  0  0  0  0  0  0
 24 25  1  0
 25 23  1  0
 23 20  1  0
 20 21  1  0
 20 22  1  0
 20 19  1  0
 19 18  1  0
 18 17  1  0
 17  7  1  0
  7  8  2  0
  8 13  1  0
 13 14  2  0
 13 15  1  0
  8  9  1  0
  9 10  1  0
 10  1  1  0
  1  2  2  0
  2  3  1  0
  3  4  2  0
  4  5  1  0
  5 26  1  0
 26 28  1  0
 28 29  1  0
 29 30  1  0
 30 31  1  0
 31 34  1  0
 34 35  2  0
 34 36  2  0
 34 37  1  0
 37 38  1  0
 38 39  2  0
 39 40  1  0
 40 41  2  0
 41 42  1  0
 42 43  2  0
 31 32  1  0
 32 33  1  0
  5  6  2  0
 10 11  2  0
 11 12  1  0
 11  7  1  0
  6  1  1  0
 33 28  1  0
 43 38  1  0
 15 16  1  0
 26 27  1  0
M  END
> <minimizedAffinity>
-6.77244

> <CNNscore>
0.2044807673

> <CNNaffinity>
5.9999866486

> <CNN_VS>
1.2268818617

> <CNNaffinity_variance>
0.1965435892

$$$$



 43 46  0  0  0  0  0  0  0  0999 V2000
   50.4877    5.2317    3.9525 C   0  0  0  0  0  0  0  0  0  0  0  0
   50.9076    5.3750    5.2778 C   0  0  0  0  0  0  0  0  0  0  0  0
   51.0696    4.2506    6.0810 C   0  0  0  0  0  0  0  0  0  0  0  0
   50.7985    2.9774    5.5696 C   0  0  0  0  0  0  0  0  0  0  0  0
   50.3372    2.8005    4.2611 C   0  0  0  0  0  0  0  0  0  0  0  0
   50.2165    3.9452    3.4570 C   0  0  0  0  0  0  0  0  0  0  0  0
   49.5803    8.3866    2.1073 C   0  0  0  0  0  0  0  0  0  0  0  0
   50.6634    8.1001    1.2950 C   0  0  0  0  0  0  0  0  0  0  0  0
   51.4413    6.6594    1.8159 S   0  0  0  0  0  0  0  0  0  0  0  0
   50.3251    6.4062    3.0938 C   0  0  0  0  0  0  0  0  0  0  0  0
   49.3717    7.4004    3.1108 C   0  0  0  0  0  0  0  0  0  0  0  0
   47.9297    7.5031    4.3370 Br  0  0  0  0  0  0  0  0  0  0  0  0
   51.1553    8.8625    0.1676 C   0  0  0  0  0  0  0  0  0  0  0  0
   51.6223    8.4393   -0.8816 O   0  0  0  0  0  0  0  0  0  0  0  0
   51.0558   10.2011    0.3423 O   0  0  0  0  0  0  0  0  0  0  0  0
   50.7011   10.5445    1.1387 H   0  0  0  0  0  0  0  0  0  0  0  0
   48.7783    9.4581    1.8864 O   0  0  0  0  0  0  0  0  0  0  0  0
   47.7304    9.1497    0.9544 C   0  0  0  0  0  0  0  0  0  0  0  0
   46.4918    9.9458    1.3719 C   0  0  0  0  0  0  0  0  0  0  0  0
   46.2526   11.2773    0.6140 C   0  0  0  0  0  0  0  0  0  0  0  0
   46.7225   11.1429   -0.8545 C   0  0  0  0  0  0  0  0  0  0  0  0
   44.7554   11.6377    0.5814 C   0  0  0  0  0  0  0  0  0  0  0  0
   47.0947   12.4285    1.2479 C   0  0  0  0  0  0  0  0  0  0  0  0
   46.0926   14.3800    2.6112 C   0  0  0  0  0  0  0  0  0  0  0  0
   46.7011   12.9894    2.6216 C   0  0  0  0  0  0  0  0  0  0  0  0
   50.0964    1.5536    3.6905 N   0  0  0  0  0  0  0  0  0  0  0  0
   49.1681    1.2299    3.6385 H   0  0  0  0  0  0  0  0  0  0  0  0
   51.1667    0.7033    3.1643 C   0  0  0  0  0  0  0  0  0  0  0  0
   52.3299    1.5730    2.6802 C   0  0  0  0  0  0  0  0  0  0  0  0
   53.4827    0.6936    2.2126 C   0  0  0  0  0  0  0  0  0  0  0  0
   53.9171   -0.1971    3.3276 N   0  0  0  0  0  0  0  0  0  0  0  0
   52.8193   -1.0791    3.8086 C   0  0  0  0  0  0  0  0  0  0  0  0
   51.6416   -0.2314    4.2765 C   0  0  0  0  0  0  0  0  0  0  0  0
   55.4224   -0.9794    3.0780 S   0  0  0  0  0  0  0  0  0  0  0  0
   55.6507   -1.0818    1.6518 O   0  0  0  0  0  0  0  0  0  0  0  0
   55.4393   -2.1725    3.9031 O   0  0  0  0  0  0  0  0  0  0  0  0
   56.6020    0.1597    3.8202 C   0  0  0  0  0  0  0  0  0  0  0  0
   57.2492    1.0642    2.8073 C   0  0  0  0  0  0  0  0  0  0  0  0
   58.3898    0.6461    2.1051 C   0  0  0  0  0  0  0  0  0  0  0  0
   58.9858    1.4821    1.1589 C   0  0  0  0  0  0  0  0  0  0  0  0
   58.4451    2.7400    0.8989 C   0  0  0  0  0  0  0  0  0  0  0  0
   57.3084    3.1632    1.5840 C   0  0  0  0  0  0  0  0  0  0  0  0
   56.7123    2.3305    2.5321 C   0  0  0  0  0  0  0  0  0  0  0  0
 24 25  1  0
 25 23  1  0
 23 20  1  0
 20 21  1  0
 20 22  1  0
 20 19  1  0
 19 18  1  0
 18 17  1  0
 17  7  1  0
  7  8  2  0
  8 13  1  0
 13 14  2  0
 13 15  1  0
  8  9  1  0
  9 10  1  0
 10  1  1  0
  1  2  2  0
  2  3  1  0
  3  4  2  0
  4  5  1  0
  5 26  1  0
 26 28  1  0
 28 29  1  0
 29 30  1  0
 30 31  1  0
 31 34  1  0
 34 35  2  0
 34 36  2  0
 34 37  1  0
 37 38  1  0
 38 39  2  0
 39 40  1  0
 40 41  2  0
 41 42  1  0
 42 43  2  0
 31 32  1  0
 32 33  1  0
  5  6  2  0
 10 11  2  0
 11 12  1  0
 11  7  1  0
  6  1  1  0
 33 28  1  0
 43 38  1  0
 15 16  1  0
 26 27  1  0
M  END
> <minimizedAffinity>
-6.25038

> <CNNscore>
0.1811739355

> <CNNaffinity>
5.2372488976

> <CNN_VS>
0.9488530159

> <CNNaffinity_variance>
1.4413700104

$$$$



 43 46  0  0  0  0  0  0  0  0999 V2000
   48.1434    9.1428    1.7703 C   0  0  0  0  0  0  0  0  0  0  0  0
   47.6817   10.1524    2.6195 C   0  0  0  0  0  0  0  0  0  0  0  0
   46.7500   11.0768    2.1578 C   0  0  0  0  0  0  0  0  0  0  0  0
   46.2855   11.0075    0.8404 C   0  0  0  0  0  0  0  0  0  0  0  0
   46.7568   10.0359   -0.0486 C   0  0  0  0  0  0  0  0  0  0  0  0
   47.6684    9.0910    0.4491 C   0  0  0  0  0  0  0  0  0  0  0  0
   50.2336    6.5051    3.4600 C   0  0  0  0  0  0  0  0  0  0  0  0
   51.1455    6.7227    2.4422 C   0  0  0  0  0  0  0  0  0  0  0  0
   50.5576    7.9141    1.3527 S   0  0  0  0  0  0  0  0  0  0  0  0
   49.1146    8.1570    2.2481 C   0  0  0  0  0  0  0  0  0  0  0  0
   49.0925    7.3488    3.3633 C   0  0  0  0  0  0  0  0  0  0  0  0
   47.7005    7.3085    4.6495 Br  0  0  0  0  0  0  0  0  0  0  0  0
   52.4190    6.0675    2.2344 C   0  0  0  0  0  0  0  0  0  0  0  0
   53.1382    5.5368    3.0705 O   0  0  0  0  0  0  0  0  0  0  0  0
   52.8121    6.0603    0.9392 O   0  0  0  0  0  0  0  0  0  0  0  0
   52.2752    6.4615    0.2844 H   0  0  0  0  0  0  0  0  0  0  0  0
   50.4761    5.6319    4.4694 O   0  0  0  0  0  0  0  0  0  0  0  0
   49.8760    4.3523    4.2157 C   0  0  0  0  0  0  0  0  0  0  0  0
   50.9461    3.2846    4.4552 C   0  0  0  0  0  0  0  0  0  0  0  0
   50.7690    2.4191    5.7295 C   0  0  0  0  0  0  0  0  0  0  0  0
   51.2165    3.2166    6.9782 C   0  0  0  0  0  0  0  0  0  0  0  0
   49.2923    2.0347    5.9402 C   0  0  0  0  0  0  0  0  0  0  0  0
   51.6763    1.1508    5.6620 C   0  0  0  0  0  0  0  0  0  0  0  0
   54.0138    0.2096    6.2290 C   0  0  0  0  0  0  0  0  0  0  0  0
   52.7788    0.9491    6.7110 C   0  0  0  0  0  0  0  0  0  0  0  0
   46.2939    9.8961   -1.3542 N   0  0  0  0  0  0  0  0  0  0  0  0
   46.3272    9.0062   -1.7738 H   0  0  0  0  0  0  0  0  0  0  0  0
   45.7594   11.0181   -2.1294 C   0  0  0  0  0  0  0  0  0  0  0  0
   44.2634   11.1786   -1.8463 C   0  0  0  0  0  0  0  0  0  0  0  0
   43.7189   12.3971   -2.5809 C   0  0  0  0  0  0  0  0  0  0  0  0
   44.4704   13.6142   -2.1576 N   0  0  0  0  0  0  0  0  0  0  0  0
   45.9273   13.5076   -2.4416 C   0  0  0  0  0  0  0  0  0  0  0  0
   46.5058   12.2903   -1.7288 C   0  0  0  0  0  0  0  0  0  0  0  0
   43.7472   15.1005   -2.6135 S   0  0  0  0  0  0  0  0  0  0  0  0
   44.7523   15.9143   -3.2650 O   0  0  0  0  0  0  0  0  0  0  0  0
   43.0342   15.6142   -1.4592 O   0  0  0  0  0  0  0  0  0  0  0  0
   42.4880   14.5956   -3.7963 C   0  0  0  0  0  0  0  0  0  0  0  0
   41.0924   14.8854   -3.3152 C   0  0  0  0  0  0  0  0  0  0  0  0
   40.0956   13.9004   -3.3867 C   0  0  0  0  0  0  0  0  0  0  0  0
   38.8024   14.1664   -2.9325 C   0  0  0  0  0  0  0  0  0  0  0  0
   38.4934   15.4148   -2.3958 C   0  0  0  0  0  0  0  0  0  0  0  0
   39.4765   16.3982   -2.3123 C   0  0  0  0  0  0  0  0  0  0  0  0
   40.7691   16.1358   -2.7680 C   0  0  0  0  0  0  0  0  0  0  0  0
 24 25  1  0
 25 23  1  0
 23 20  1  0
 20 21  1  0
 20 22  1  0
 20 19  1  0
 19 18  1  0
 18 17  1  0
 17  7  1  0
  7  8  2  0
  8 13  1  0
 13 14  2  0
 13 15  1  0
  8  9  1  0
  9 10  1  0
 10  1  1  0
  1  2  2  0
  2  3  1  0
  3  4  2  0
  4  5  1  0
  5 26  1  0
 26 28  1  0
 28 29  1  0
 29 30  1  0
 30 31  1  0
 31 34  1  0
 34 35  2  0
 34 36  2  0
 34 37  1  0
 37 38  1  0
 38 39  2  0
 39 40  1  0
 40 41  2  0
 41 42  1  0
 42 43  2  0
 31 32  1  0
 32 33  1  0
  5  6  2  0
 10 11  2  0
 11 12  1  0
 11  7  1  0
  6  1  1  0
 33 28  1  0
 43 38  1  0
 15 16  1  0
 26 27  1  0
M  END
> <minimizedAffinity>
-6.23907

> <CNNscore>
0.1767978817

> <CNNaffinity>
5.3500804901

> <CNN_VS>
0.9458829165

> <CNNaffinity_variance>
0.6828916669

$$$$
