


 27 30  0  0  0  0  0  0  0  0999 V2000
   55.4986   11.2148   10.3649 C   0  0  0  0  0  0  0  0  0  0  0  0
   56.0652   10.8937    9.0332 C   0  0  0  0  0  0  0  0  0  0  0  0
   57.2468   11.3883    8.4486 C   0  0  0  0  0  0  0  0  0  0  0  0
   57.3818   10.6980    7.2627 C   0  0  0  0  0  0  0  0  0  0  0  0
   56.1696   10.0249    7.0790 N   0  0  0  0  0  0  0  0  0  0  0  0
   55.4567   10.0061    8.2433 N   0  0  0  0  0  0  0  0  0  0  0  0
   55.5334    9.5674    5.8881 C   0  0  0  0  0  0  0  0  0  0  0  0
   54.1760    9.8091    5.6485 C   0  0  0  0  0  0  0  0  0  0  0  0
   53.5876    9.3213    4.4852 C   0  0  0  0  0  0  0  0  0  0  0  0
   52.2875    9.5565    4.2623 F   0  0  0  0  0  0  0  0  0  0  0  0
   54.3134    8.5835    3.5594 C   0  0  0  0  0  0  0  0  0  0  0  0
   55.6557    8.3210    3.8107 C   0  0  0  0  0  0  0  0  0  0  0  0
   56.5659    7.3936    2.6818 Cl  0  0  0  0  0  0  0  0  0  0  0  0
   56.2687    8.7982    4.9701 C   0  0  0  0  0  0  0  0  0  0  0  0
   58.5120   10.6971    6.4564 N   0  0  0  0  0  0  0  0  0  0  0  0
   59.6748   11.3739    6.7911 C   0  0  0  0  0  0  0  0  0  0  0  0
   59.8781   11.9533    7.8519 O   0  0  0  0  0  0  0  0  0  0  0  0
   58.4867   10.1941    5.6105 H   0  0  0  0  0  0  0  0  0  0  0  0
   60.6758   11.3808    5.7392 C   0  0  0  0  0  0  0  0  0  0  0  0
   61.8951   12.0884    5.7274 C   0  0  0  0  0  0  0  0  0  0  0  0
   62.6082   11.8918    4.6174 N   0  0  0  0  0  0  0  0  0  0  0  0
   61.8523   11.0487    3.8783 N   0  0  0  0  0  0  0  0  0  0  0  0
   62.1414   10.5275    2.6218 C   0  0  0  0  0  0  0  0  0  0  0  0
   61.2781    9.7016    2.0158 C   0  0  0  0  0  0  0  0  0  0  0  0
   60.0344    9.4127    2.7819 C   0  0  0  0  0  0  0  0  0  0  0  0
   59.7260    9.8793    3.9573 N   0  0  0  0  0  0  0  0  0  0  0  0
   60.6569   10.7147    4.5274 C   0  0  0  0  0  0  0  0  0  0  0  0
  1  2  1  0
  2  3  1  0
  3  4  2  0
  4 15  1  0
 15 16  1  0
 16 17  2  0
 16 19  1  0
 19 20  1  0
 20 21  2  0
 21 22  1  0
 22 23  1  0
 23 24  2  0
 24 25  1  0
 25 26  2  0
 26 27  1  0
  4  5  1  0
  5  7  1  0
  7  8  2  0
  8  9  1  0
  9 10  1  0
  9 11  2  0
 11 12  1  0
 12 13  1  0
 12 14  2  0
  5  6  1  0
  6  2  2  0
 27 19  2  0
 14  7  1  0
 27 22  1  0
 15 18  1  0
M  END
> <minimizedAffinity>
-8.97678

> <CNNscore>
0.8085103631

> <CNNaffinity>
7.4280467033

> <CNN_VS>
6.0056529045

> <CNNaffinity_variance>
0.0451969057

$$$$



 27 30  0  0  0  0  0  0  0  0999 V2000
   56.7427   11.1350    9.3131 C   0  0  0  0  0  0  0  0  0  0  0  0
   57.0291   10.7630    7.9071 C   0  0  0  0  0  0  0  0  0  0  0  0
   56.2813    9.9226    7.0602 C   0  0  0  0  0  0  0  0  0  0  0  0
   56.9057    9.9952    5.8330 C   0  0  0  0  0  0  0  0  0  0  0  0
   58.1153   10.6581    6.0649 N   0  0  0  0  0  0  0  0  0  0  0  0
   58.0916   11.2757    7.2822 N   0  0  0  0  0  0  0  0  0  0  0  0
   59.3489   10.6145    5.3517 C   0  0  0  0  0  0  0  0  0  0  0  0
   60.5029   11.2257    5.8546 C   0  0  0  0  0  0  0  0  0  0  0  0
   61.6803   11.1826    5.1132 C   0  0  0  0  0  0  0  0  0  0  0  0
   62.7813   11.7700    5.6009 F   0  0  0  0  0  0  0  0  0  0  0  0
   61.7346   10.5591    3.8737 C   0  0  0  0  0  0  0  0  0  0  0  0
   60.5810    9.9749    3.3624 C   0  0  0  0  0  0  0  0  0  0  0  0
   60.6265    9.2124    1.8199 Cl  0  0  0  0  0  0  0  0  0  0  0  0
   59.3878   10.0052    4.0858 C   0  0  0  0  0  0  0  0  0  0  0  0
   56.3943    9.5032    4.6398 N   0  0  0  0  0  0  0  0  0  0  0  0
   56.7102    8.2460    4.1480 C   0  0  0  0  0  0  0  0  0  0  0  0
   57.3766    7.4014    4.7351 O   0  0  0  0  0  0  0  0  0  0  0  0
   55.7808   10.0716    4.1204 H   0  0  0  0  0  0  0  0  0  0  0  0
   56.2027    7.9918    2.8114 C   0  0  0  0  0  0  0  0  0  0  0  0
   56.9568    7.7580    1.6434 C   0  0  0  0  0  0  0  0  0  0  0  0
   56.2037    7.5533    0.5617 N   0  0  0  0  0  0  0  0  0  0  0  0
   54.9333    7.6584    1.0128 N   0  0  0  0  0  0  0  0  0  0  0  0
   53.7578    7.5291    0.2810 C   0  0  0  0  0  0  0  0  0  0  0  0
   52.5678    7.6676    0.8805 C   0  0  0  0  0  0  0  0  0  0  0  0
   52.6241    7.9638    2.3386 C   0  0  0  0  0  0  0  0  0  0  0  0
   53.7006    8.0929    3.0589 N   0  0  0  0  0  0  0  0  0  0  0  0
   54.8882    7.9319    2.3858 C   0  0  0  0  0  0  0  0  0  0  0  0
  1  2  1  0
  2  3  1  0
  3  4  2  0
  4 15  1  0
 15 16  1  0
 16 17  2  0
 16 19  1  0
 19 20  1  0
 20 21  2  0
 21 22  1  0
 22 23  1  0
 23 24  2  0
 24 25  1  0
 25 26  2  0
 26 27  1  0
  4  5  1  0
  5  7  1  0
  7  8  2  0
  8  9  1  0
  9 10  1  0
  9 11  2  0
 11 12  1  0
 12 13  1  0
 12 14  2  0
  5  6  1  0
  6  2  2  0
 27 19  2  0
 14  7  1  0
 27 22  1  0
 15 18  1  0
M  END
> <minimizedAffinity>
-9.47585

> <CNNscore>
0.2173489928

> <CNNaffinity>
5.9179368019

> <CNN_VS>
1.2862576246

> <CNNaffinity_variance>
0.5809903741

$$$$



 27 30  0  0  0  0  0  0  0  0999 V2000
   58.6508    8.5217    0.5380 C   0  0  0  0  0  0  0  0  0  0  0  0
   58.4597    8.9298    1.9502 C   0  0  0  0  0  0  0  0  0  0  0  0
   57.2520    9.0558    2.6632 C   0  0  0  0  0  0  0  0  0  0  0  0
   57.6239    9.3486    3.9584 C   0  0  0  0  0  0  0  0  0  0  0  0
   58.9930    9.6287    3.9025 N   0  0  0  0  0  0  0  0  0  0  0  0
   59.5181    9.1935    2.7198 N   0  0  0  0  0  0  0  0  0  0  0  0
   59.8130   10.4241    4.7554 C   0  0  0  0  0  0  0  0  0  0  0  0
   61.1058   10.8030    4.3766 C   0  0  0  0  0  0  0  0  0  0  0  0
   61.8831   11.5574    5.2509 C   0  0  0  0  0  0  0  0  0  0  0  0
   63.1199   11.9165    4.8816 F   0  0  0  0  0  0  0  0  0  0  0  0
   61.4115   11.9317    6.5022 C   0  0  0  0  0  0  0  0  0  0  0  0
   60.1368   11.5326    6.8887 C   0  0  0  0  0  0  0  0  0  0  0  0
   59.5430   11.9737    8.4429 Cl  0  0  0  0  0  0  0  0  0  0  0  0
   59.3380   10.7752    6.0307 C   0  0  0  0  0  0  0  0  0  0  0  0
   56.7774    9.3449    5.0587 N   0  0  0  0  0  0  0  0  0  0  0  0
   56.3675   10.5061    5.6958 C   0  0  0  0  0  0  0  0  0  0  0  0
   56.6108   11.6464    5.3180 O   0  0  0  0  0  0  0  0  0  0  0  0
   56.4542    8.4805    5.4015 H   0  0  0  0  0  0  0  0  0  0  0  0
   55.6206   10.2744    6.9194 C   0  0  0  0  0  0  0  0  0  0  0  0
   54.3944    9.5917    7.0533 C   0  0  0  0  0  0  0  0  0  0  0  0
   53.9547    9.5393    8.3115 N   0  0  0  0  0  0  0  0  0  0  0  0
   54.8954   10.2004    9.0232 N   0  0  0  0  0  0  0  0  0  0  0  0
   54.9159   10.4345   10.3939 C   0  0  0  0  0  0  0  0  0  0  0  0
   55.9261   11.1166   10.9497 C   0  0  0  0  0  0  0  0  0  0  0  0
   56.9742   11.5815    9.9999 C   0  0  0  0  0  0  0  0  0  0  0  0
   56.9923   11.3844    8.7134 N   0  0  0  0  0  0  0  0  0  0  0  0
   55.9315   10.6718    8.2070 C   0  0  0  0  0  0  0  0  0  0  0  0
  1  2  1  0
  2  3  1  0
  3  4  2  0
  4 15  1  0
 15 16  1  0
 16 17  2  0
 16 19  1  0
 19 20  1  0
 20 21  2  0
 21 22  1  0
 22 23  1  0
 23 24  2  0
 24 25  1  0
 25 26  2  0
 26 27  1  0
  4  5  1  0
  5  7  1  0
  7  8  2  0
  8  9  1  0
  9 10  1  0
  9 11  2  0
 11 12  1  0
 12 13  1  0
 12 14  2  0
  5  6  1  0
  6  2  2  0
 27 19  2  0
 14  7  1  0
 27 22  1  0
 15 18  1  0
M  END
> <minimizedAffinity>
-8.04676

> <CNNscore>
0.1983293295

> <CNNaffinity>
5.7321543694

> <CNN_VS>
1.1368542910

> <CNNaffinity_variance>
0.8304924965

$$$$



 27 30  0  0  0  0  0  0  0  0999 V2000
   62.2595   10.1514    2.3100 C   0  0  0  0  0  0  0  0  0  0  0  0
   60.8681    9.9261    2.7690 C   0  0  0  0  0  0  0  0  0  0  0  0
   59.7159    9.7231    1.9855 C   0  0  0  0  0  0  0  0  0  0  0  0
   58.7077    9.4508    2.8859 C   0  0  0  0  0  0  0  0  0  0  0  0
   59.2376    9.7490    4.1455 N   0  0  0  0  0  0  0  0  0  0  0  0
   60.5967    9.8583    4.0743 N   0  0  0  0  0  0  0  0  0  0  0  0
   58.5908   10.1252    5.3589 C   0  0  0  0  0  0  0  0  0  0  0  0
   57.2460    9.8171    5.5932 C   0  0  0  0  0  0  0  0  0  0  0  0
   56.6454   10.2268    6.7803 C   0  0  0  0  0  0  0  0  0  0  0  0
   55.3575    9.9284    6.9979 F   0  0  0  0  0  0  0  0  0  0  0  0
   57.3462   10.9509    7.7356 C   0  0  0  0  0  0  0  0  0  0  0  0
   58.6750   11.2797    7.4907 C   0  0  0  0  0  0  0  0  0  0  0  0
   59.5536   12.1913    8.6568 Cl  0  0  0  0  0  0  0  0  0  0  0  0
   59.2998   10.8814    6.3080 C   0  0  0  0  0  0  0  0  0  0  0  0
   57.4456    8.9730    2.5603 N   0  0  0  0  0  0  0  0  0  0  0  0
   57.1781    8.3015    1.3772 C   0  0  0  0  0  0  0  0  0  0  0  0
   58.0148    7.9679    0.5460 O   0  0  0  0  0  0  0  0  0  0  0  0
   56.7087    9.1171    3.1970 H   0  0  0  0  0  0  0  0  0  0  0  0
   55.7680    8.0330    1.1582 C   0  0  0  0  0  0  0  0  0  0  0  0
   54.6986    8.3301    2.0275 C   0  0  0  0  0  0  0  0  0  0  0  0
   53.5100    7.9627    1.5463 N   0  0  0  0  0  0  0  0  0  0  0  0
   53.7914    7.4085    0.3454 N   0  0  0  0  0  0  0  0  0  0  0  0
   52.8975    6.8619   -0.5690 C   0  0  0  0  0  0  0  0  0  0  0  0
   53.3401    6.3433   -1.7222 C   0  0  0  0  0  0  0  0  0  0  0  0
   54.8148    6.4032   -1.9184 C   0  0  0  0  0  0  0  0  0  0  0  0
   55.6841    6.9046   -1.0894 N   0  0  0  0  0  0  0  0  0  0  0  0
   55.1648    7.4268    0.0713 C   0  0  0  0  0  0  0  0  0  0  0  0
  1  2  1  0
  2  3  1  0
  3  4  2  0
  4 15  1  0
 15 16  1  0
 16 17  2  0
 16 19  1  0
 19 20  1  0
 20 21  2  0
 21 22  1  0
 22 23  1  0
 23 24  2  0
 24 25  1  0
 25 26  2  0
 26 27  1  0
  4  5  1  0
  5  7  1  0
  7  8  2  0
  8  9  1  0
  9 10  1  0
  9 11  2  0
 11 12  1  0
 12 13  1  0
 12 14  2  0
  5  6  1  0
  6  2  2  0
 27 19  2  0
 14  7  1  0
 27 22  1  0
 15 18  1  0
M  END
> <minimizedAffinity>
-8.31253

> <CNNscore>
0.1555021256

> <CNNaffinity>
6.6198463440

> <CNN_VS>
1.0294002295

> <CNNaffinity_variance>
0.0467274375

$$$$



 27 30  0  0  0  0  0  0  0  0999 V2000
   54.1353    7.9121    2.8293 C   0  0  0  0  0  0  0  0  0  0  0  0
   55.0229    8.4551    3.8851 C   0  0  0  0  0  0  0  0  0  0  0  0
   54.6599    8.9930    5.1348 C   0  0  0  0  0  0  0  0  0  0  0  0
   55.8514    9.2463    5.7810 C   0  0  0  0  0  0  0  0  0  0  0  0
   56.8464    9.0897    4.8106 N   0  0  0  0  0  0  0  0  0  0  0  0
   56.3477    8.4346    3.7216 N   0  0  0  0  0  0  0  0  0  0  0  0
   58.1531    9.6528    4.7223 C   0  0  0  0  0  0  0  0  0  0  0  0
   58.9990    9.3647    3.6454 C   0  0  0  0  0  0  0  0  0  0  0  0
   60.2775    9.9143    3.6116 C   0  0  0  0  0  0  0  0  0  0  0  0
   61.0821    9.6341    2.5775 F   0  0  0  0  0  0  0  0  0  0  0  0
   60.7426   10.7325    4.6325 C   0  0  0  0  0  0  0  0  0  0  0  0
   59.9112   10.9972    5.7153 C   0  0  0  0  0  0  0  0  0  0  0  0
   60.4780   11.9958    6.9976 Cl  0  0  0  0  0  0  0  0  0  0  0  0
   58.6254   10.4576    5.7732 C   0  0  0  0  0  0  0  0  0  0  0  0
   55.9843    9.5773    7.1227 N   0  0  0  0  0  0  0  0  0  0  0  0
   55.3876   10.6959    7.6839 C   0  0  0  0  0  0  0  0  0  0  0  0
   54.6116   11.4500    7.1082 O   0  0  0  0  0  0  0  0  0  0  0  0
   56.5258    8.9924    7.7007 H   0  0  0  0  0  0  0  0  0  0  0  0
   55.7852   10.9490    9.0573 C   0  0  0  0  0  0  0  0  0  0  0  0
   57.0440   11.3912    9.5127 C   0  0  0  0  0  0  0  0  0  0  0  0
   57.1048   11.5351   10.8374 N   0  0  0  0  0  0  0  0  0  0  0  0
   55.8745   11.1783   11.2702 N   0  0  0  0  0  0  0  0  0  0  0  0
   55.4093   11.1501   12.5805 C   0  0  0  0  0  0  0  0  0  0  0  0
   54.1541   10.7643   12.8457 C   0  0  0  0  0  0  0  0  0  0  0  0
   53.3444   10.3826   11.6559 C   0  0  0  0  0  0  0  0  0  0  0  0
   53.7411   10.3945   10.4162 N   0  0  0  0  0  0  0  0  0  0  0  0
   55.0362   10.8070   10.2113 C   0  0  0  0  0  0  0  0  0  0  0  0
  1  2  1  0
  2  3  1  0
  3  4  2  0
  4 15  1  0
 15 16  1  0
 16 17  2  0
 16 19  1  0
 19 20  1  0
 20 21  2  0
 21 22  1  0
 22 23  1  0
 23 24  2  0
 24 25  1  0
 25 26  2  0
 26 27  1  0
  4  5  1  0
  5  7  1  0
  7  8  2  0
  8  9  1  0
  9 10  1  0
  9 11  2  0
 11 12  1  0
 12 13  1  0
 12 14  2  0
  5  6  1  0
  6  2  2  0
 27 19  2  0
 14  7  1  0
 27 22  1  0
 15 18  1  0
M  END
> <minimizedAffinity>
-8.76209

> <CNNscore>
0.1276963502

> <CNNaffinity>
4.9335341454

> <CNN_VS>
0.6299943328

> <CNNaffinity_variance>
0.9953641891

$$$$



 27 30  0  0  0  0  0  0  0  0999 V2000
   59.5689   11.8713    8.5255 C   0  0  0  0  0  0  0  0  0  0  0  0
   59.0104   11.3655    7.2489 C   0  0  0  0  0  0  0  0  0  0  0  0
   57.7271   10.8379    7.0096 C   0  0  0  0  0  0  0  0  0  0  0  0
   57.6709   10.6227    5.6487 C   0  0  0  0  0  0  0  0  0  0  0  0
   58.9809   10.7883    5.1873 N   0  0  0  0  0  0  0  0  0  0  0  0
   59.7409   11.4150    6.1326 N   0  0  0  0  0  0  0  0  0  0  0  0
   59.6341   10.2552    4.0378 C   0  0  0  0  0  0  0  0  0  0  0  0
   61.0209   10.3521    3.8776 C   0  0  0  0  0  0  0  0  0  0  0  0
   61.6156    9.8420    2.7270 C   0  0  0  0  0  0  0  0  0  0  0  0
   62.9438    9.9383    2.5804 F   0  0  0  0  0  0  0  0  0  0  0  0
   60.8617    9.2507    1.7219 C   0  0  0  0  0  0  0  0  0  0  0  0
   59.4809    9.1783    1.8695 C   0  0  0  0  0  0  0  0  0  0  0  0
   58.5297    8.4637    0.6256 Cl  0  0  0  0  0  0  0  0  0  0  0  0
   58.8606    9.6831    3.0132 C   0  0  0  0  0  0  0  0  0  0  0  0
   56.5240   10.3152    4.9295 N   0  0  0  0  0  0  0  0  0  0  0  0
   55.3672    9.8383    5.5269 C   0  0  0  0  0  0  0  0  0  0  0  0
   55.1853    9.7292    6.7340 O   0  0  0  0  0  0  0  0  0  0  0  0
   56.5324   10.4411    3.9531 H   0  0  0  0  0  0  0  0  0  0  0  0
   54.3443    9.4249    4.5829 C   0  0  0  0  0  0  0  0  0  0  0  0
   52.9510    9.6030    4.7034 C   0  0  0  0  0  0  0  0  0  0  0  0
   52.2655    9.1161    3.6679 N   0  0  0  0  0  0  0  0  0  0  0  0
   53.2125    8.6018    2.8511 N   0  0  0  0  0  0  0  0  0  0  0  0
   53.0267    7.9702    1.6261 C   0  0  0  0  0  0  0  0  0  0  0  0
   54.0778    7.5079    0.9359 C   0  0  0  0  0  0  0  0  0  0  0  0
   55.4026    7.7232    1.5804 C   0  0  0  0  0  0  0  0  0  0  0  0
   55.6191    8.3077    2.7231 N   0  0  0  0  0  0  0  0  0  0  0  0
   54.5002    8.7656    3.3772 C   0  0  0  0  0  0  0  0  0  0  0  0
  1  2  1  0
  2  3  1  0
  3  4  2  0
  4 15  1  0
 15 16  1  0
 16 17  2  0
 16 19  1  0
 19 20  1  0
 20 21  2  0
 21 22  1  0
 22 23  1  0
 23 24  2  0
 24 25  1  0
 25 26  2  0
 26 27  1  0
  4  5  1  0
  5  7  1  0
  7  8  2  0
  8  9  1  0
  9 10  1  0
  9 11  2  0
 11 12  1  0
 12 13  1  0
 12 14  2  0
  5  6  1  0
  6  2  2  0
 27 19  2  0
 14  7  1  0
 27 22  1  0
 15 18  1  0
M  END
> <minimizedAffinity>
-9.00184

> <CNNscore>
0.1106878966

> <CNNaffinity>
6.3350968361

> <CNN_VS>
0.7012185454

> <CNNaffinity_variance>
0.0635237545

$$$$



 27 30  0  0  0  0  0  0  0  0999 V2000
   56.2718   10.9023    9.5557 C   0  0  0  0  0  0  0  0  0  0  0  0
   56.4353   10.6073    8.1122 C   0  0  0  0  0  0  0  0  0  0  0  0
   55.5675    9.8886    7.2678 C   0  0  0  0  0  0  0  0  0  0  0  0
   56.1154    9.9969    6.0070 C   0  0  0  0  0  0  0  0  0  0  0  0
   57.3881   10.5454    6.1958 N   0  0  0  0  0  0  0  0  0  0  0  0
   57.4941   11.0772    7.4488 N   0  0  0  0  0  0  0  0  0  0  0  0
   58.5654   10.4548    5.3969 C   0  0  0  0  0  0  0  0  0  0  0  0
   58.5872    9.7074    4.2140 C   0  0  0  0  0  0  0  0  0  0  0  0
   59.7655    9.6231    3.4778 C   0  0  0  0  0  0  0  0  0  0  0  0
   59.7790    8.9057    2.3463 F   0  0  0  0  0  0  0  0  0  0  0  0
   60.9300   10.2521    3.8979 C   0  0  0  0  0  0  0  0  0  0  0  0
   60.9149   10.9728    5.0870 C   0  0  0  0  0  0  0  0  0  0  0  0
   62.3539   11.7447    5.6311 Cl  0  0  0  0  0  0  0  0  0  0  0  0
   59.7464   11.0718    5.8438 C   0  0  0  0  0  0  0  0  0  0  0  0
   55.4892    9.6303    4.8235 N   0  0  0  0  0  0  0  0  0  0  0  0
   54.3518    8.8382    4.7887 C   0  0  0  0  0  0  0  0  0  0  0  0
   53.7202    8.4604    5.7688 O   0  0  0  0  0  0  0  0  0  0  0  0
   55.8692    9.9464    3.9721 H   0  0  0  0  0  0  0  0  0  0  0  0
   53.9540    8.4372    3.4510 C   0  0  0  0  0  0  0  0  0  0  0  0
   52.6559    8.4693    2.9021 C   0  0  0  0  0  0  0  0  0  0  0  0
   52.6057    8.0374    1.6411 N   0  0  0  0  0  0  0  0  0  0  0  0
   53.8840    7.7076    1.3486 N   0  0  0  0  0  0  0  0  0  0  0  0
   54.3786    7.2004    0.1519 C   0  0  0  0  0  0  0  0  0  0  0  0
   55.6818    6.9179    0.0228 C   0  0  0  0  0  0  0  0  0  0  0  0
   56.5099    7.1842    1.2312 C   0  0  0  0  0  0  0  0  0  0  0  0
   56.0871    7.6569    2.3679 N   0  0  0  0  0  0  0  0  0  0  0  0
   54.7420    7.9326    2.4326 C   0  0  0  0  0  0  0  0  0  0  0  0
  1  2  1  0
  2  3  1  0
  3  4  2  0
  4 15  1  0
 15 16  1  0
 16 17  2  0
 16 19  1  0
 19 20  1  0
 20 21  2  0
 21 22  1  0
 22 23  1  0
 23 24  2  0
 24 25  1  0
 25 26  2  0
 26 27  1  0
  4  5  1  0
  5  7  1  0
  7  8  2  0
  8  9  1  0
  9 10  1  0
  9 11  2  0
 11 12  1  0
 12 13  1  0
 12 14  2  0
  5  6  1  0
  6  2  2  0
 27 19  2  0
 14  7  1  0
 27 22  1  0
 15 18  1  0
M  END
> <minimizedAffinity>
-9.28151

> <CNNscore>
0.1029660106

> <CNNaffinity>
5.4980330467

> <CNN_VS>
0.5661105514

> <CNNaffinity_variance>
0.6876792908

$$$$



 27 30  0  0  0  0  0  0  0  0999 V2000
   53.6575    8.4886    5.1674 C   0  0  0  0  0  0  0  0  0  0  0  0
   54.8652    9.1818    5.6759 C   0  0  0  0  0  0  0  0  0  0  0  0
   54.9431   10.1787    6.6672 C   0  0  0  0  0  0  0  0  0  0  0  0
   56.2910   10.4054    6.8491 C   0  0  0  0  0  0  0  0  0  0  0  0
   56.9302    9.7334    5.8022 N   0  0  0  0  0  0  0  0  0  0  0  0
   56.0722    8.8508    5.2116 N   0  0  0  0  0  0  0  0  0  0  0  0
   58.1928    9.9676    5.1831 C   0  0  0  0  0  0  0  0  0  0  0  0
   58.5158    9.3946    3.9479 C   0  0  0  0  0  0  0  0  0  0  0  0
   59.7702    9.6272    3.3912 C   0  0  0  0  0  0  0  0  0  0  0  0
   60.0726    9.0753    2.2084 F   0  0  0  0  0  0  0  0  0  0  0  0
   60.7196   10.4044    4.0413 C   0  0  0  0  0  0  0  0  0  0  0  0
   60.4077   10.9519    5.2809 C   0  0  0  0  0  0  0  0  0  0  0  0
   61.5789   11.9040    6.1083 Cl  0  0  0  0  0  0  0  0  0  0  0  0
   59.1573   10.7329    5.8608 C   0  0  0  0  0  0  0  0  0  0  0  0
   56.8499   11.1487    7.8799 N   0  0  0  0  0  0  0  0  0  0  0  0
   56.6890   10.8195    9.2171 C   0  0  0  0  0  0  0  0  0  0  0  0
   56.1379    9.8087    9.6375 O   0  0  0  0  0  0  0  0  0  0  0  0
   57.3835   11.9439    7.6516 H   0  0  0  0  0  0  0  0  0  0  0  0
   57.2131   11.8143   10.1358 C   0  0  0  0  0  0  0  0  0  0  0  0
   58.4903   11.8347   10.7326 C   0  0  0  0  0  0  0  0  0  0  0  0
   58.6814   12.8840   11.5336 N   0  0  0  0  0  0  0  0  0  0  0  0
   57.5160   13.5672   11.4749 N   0  0  0  0  0  0  0  0  0  0  0  0
   57.1885   14.7476   12.1332 C   0  0  0  0  0  0  0  0  0  0  0  0
   55.9787   15.3002   11.9720 C   0  0  0  0  0  0  0  0  0  0  0  0
   55.0602   14.5590   11.0643 C   0  0  0  0  0  0  0  0  0  0  0  0
   55.3269   13.4535   10.4310 N   0  0  0  0  0  0  0  0  0  0  0  0
   56.5869   12.9427   10.6331 C   0  0  0  0  0  0  0  0  0  0  0  0
  1  2  1  0
  2  3  1  0
  3  4  2  0
  4 15  1  0
 15 16  1  0
 16 17  2  0
 16 19  1  0
 19 20  1  0
 20 21  2  0
 21 22  1  0
 22 23  1  0
 23 24  2  0
 24 25  1  0
 25 26  2  0
 26 27  1  0
  4  5  1  0
  5  7  1  0
  7  8  2  0
  8  9  1  0
  9 10  1  0
  9 11  2  0
 11 12  1  0
 12 13  1  0
 12 14  2  0
  5  6  1  0
  6  2  2  0
 27 19  2  0
 14  7  1  0
 27 22  1  0
 15 18  1  0
M  END
> <minimizedAffinity>
-8.75837

> <CNNscore>
0.1015125811

> <CNNaffinity>
4.8321709633

> <CNN_VS>
0.4905261397

> <CNNaffinity_variance>
1.1236987114

$$$$



 27 30  0  0  0  0  0  0  0  0999 V2000
   62.0189    9.8594    2.4038 C   0  0  0  0  0  0  0  0  0  0  0  0
   60.6863    9.8970    3.0520 C   0  0  0  0  0  0  0  0  0  0  0  0
   59.4194    9.8606    2.4385 C   0  0  0  0  0  0  0  0  0  0  0  0
   58.5143    9.8055    3.4773 C   0  0  0  0  0  0  0  0  0  0  0  0
   59.2547   10.0633    4.6356 N   0  0  0  0  0  0  0  0  0  0  0  0
   60.5902    9.9343    4.3830 N   0  0  0  0  0  0  0  0  0  0  0  0
   58.8523   10.5980    5.8943 C   0  0  0  0  0  0  0  0  0  0  0  0
   59.7264   11.3649    6.6729 C   0  0  0  0  0  0  0  0  0  0  0  0
   59.3021   11.8453    7.9085 C   0  0  0  0  0  0  0  0  0  0  0  0
   60.1443   12.5788    8.6487 F   0  0  0  0  0  0  0  0  0  0  0  0
   58.0324   11.5680    8.3975 C   0  0  0  0  0  0  0  0  0  0  0  0
   57.1734   10.7839    7.6353 C   0  0  0  0  0  0  0  0  0  0  0  0
   55.6019   10.4165    8.2339 Cl  0  0  0  0  0  0  0  0  0  0  0  0
   57.5753   10.2895    6.3936 C   0  0  0  0  0  0  0  0  0  0  0  0
   57.1581    9.5377    3.3493 N   0  0  0  0  0  0  0  0  0  0  0  0
   56.5817    8.3528    3.7808 C   0  0  0  0  0  0  0  0  0  0  0  0
   57.1597    7.4669    4.3999 O   0  0  0  0  0  0  0  0  0  0  0  0
   56.5807   10.2185    2.9343 H   0  0  0  0  0  0  0  0  0  0  0  0
   55.1866    8.2058    3.4058 C   0  0  0  0  0  0  0  0  0  0  0  0
   54.0592    8.3629    4.2375 C   0  0  0  0  0  0  0  0  0  0  0  0
   52.9033    8.1644    3.6021 N   0  0  0  0  0  0  0  0  0  0  0  0
   53.2650    7.8651    2.3340 N   0  0  0  0  0  0  0  0  0  0  0  0
   52.4326    7.5693    1.2599 C   0  0  0  0  0  0  0  0  0  0  0  0
   52.9521    7.2869    0.0578 C   0  0  0  0  0  0  0  0  0  0  0  0
   54.4392    7.3154   -0.0116 C   0  0  0  0  0  0  0  0  0  0  0  0
   55.2526    7.5862    0.9678 N   0  0  0  0  0  0  0  0  0  0  0  0
   54.6562    7.8745    2.1723 C   0  0  0  0  0  0  0  0  0  0  0  0
  1  2  1  0
  2  3  1  0
  3  4  2  0
  4 15  1  0
 15 16  1  0
 16 17  2  0
 16 19  1  0
 19 20  1  0
 20 21  2  0
 21 22  1  0
 22 23  1  0
 23 24  2  0
 24 25  1  0
 25 26  2  0
 26 27  1  0
  4  5  1  0
  5  7  1  0
  7  8  2  0
  8  9  1  0
  9 10  1  0
  9 11  2  0
 11 12  1  0
 12 13  1  0
 12 14  2  0
  5  6  1  0
  6  2  2  0
 27 19  2  0
 14  7  1  0
 27 22  1  0
 15 18  1  0
M  END
> <minimizedAffinity>
-8.35178

> <CNNscore>
0.0995911211

> <CNNaffinity>
5.8967251778

> <CNN_VS>
0.5872614980

> <CNNaffinity_variance>
0.2966024876

$$$$
