


 46 49  0  0  0  0  0  0  0  0999 V2000
   -0.7233   18.7539   18.8644 C   0  0  0  0  0  0  0  0  0  0  0  0
    0.1879   21.0114   15.8185 C   0  0  0  0  0  0  0  0  0  0  0  0
   -0.6860   22.0191   15.0585 C   0  0  0  0  0  0  0  0  0  0  0  0
   -1.0400   23.2334   15.9063 C   0  0  0  0  0  0  0  0  0  0  0  0
   -1.7614   22.7747   17.1620 C   0  0  0  0  0  0  0  0  0  0  0  0
   -1.0038   21.6816   17.9188 C   0  0  0  0  0  0  0  0  0  0  0  0
   -0.5132   20.5912   17.0650 N   0  0  0  0  0  0  0  0  0  0  0  0
   -0.2508   19.2911   17.5097 C   0  0  0  0  0  0  0  0  0  0  0  0
    0.3086   18.4797   16.7555 O   0  0  0  0  0  0  0  0  0  0  0  0
    1.6347   21.4840   16.1732 C   0  0  0  0  0  0  0  0  0  0  0  0
    2.6951   21.6964   15.0231 C   0  0  0  0  0  0  0  0  0  0  0  0
    2.0661   21.0532   13.7610 C   0  0  0  0  0  0  0  0  0  0  0  0
    2.8629   23.1911   14.7421 C   0  0  0  0  0  0  0  0  0  0  0  0
    4.0217   20.9411   15.3593 C   0  0  0  0  0  0  0  0  0  0  0  0
    6.3874   20.1324   14.6487 C   0  0  0  0  0  0  0  0  0  0  0  0
    5.4148   21.3175   14.7459 C   0  0  0  0  0  0  0  0  0  0  0  0
    5.2922   22.0012   13.3702 C   0  0  0  0  0  0  0  0  0  0  0  0
    6.0567   22.3603   15.6946 C   0  0  0  0  0  0  0  0  0  0  0  0
   -0.8614   19.6737   19.9959 N   0  0  0  0  0  0  0  0  0  0  0  0
   -1.8593   19.8589   20.0972 H   0  0  0  0  0  0  0  0  0  0  0  0
   -0.3020   19.2727   21.5077 S   0  0  0  0  0  0  0  0  0  0  0  0
   -1.0933   19.9809   22.4849 O   0  0  0  0  0  0  0  0  0  0  0  0
   -0.1741   17.8315   21.5158 O   0  0  0  0  0  0  0  0  0  0  0  0
    1.3364   19.9568   21.4681 C   0  0  0  0  0  0  0  0  0  0  0  0
    2.1060   19.8117   20.3138 C   0  0  0  0  0  0  0  0  0  0  0  0
    3.3723   20.3993   20.2584 C   0  0  0  0  0  0  0  0  0  0  0  0
    3.8779   21.1285   21.3500 C   0  0  0  0  0  0  0  0  0  0  0  0
    5.1425   21.7411   21.2989 C   0  0  0  0  0  0  0  0  0  0  0  0
    5.6290   22.4657   22.3864 C   0  0  0  0  0  0  0  0  0  0  0  0
    4.8612   22.5861   23.5396 C   0  0  0  0  0  0  0  0  0  0  0  0
    3.6045   21.9827   23.6088 C   0  0  0  0  0  0  0  0  0  0  0  0
    3.0976   21.2515   22.5236 C   0  0  0  0  0  0  0  0  0  0  0  0
    1.8295   20.6529   22.5771 C   0  0  0  0  0  0  0  0  0  0  0  0
   -1.9703   17.8559   18.7113 C   0  0  0  0  0  0  0  0  0  0  0  0
   -1.6897   16.4003   18.4183 C   0  0  0  0  0  0  0  0  0  0  0  0
   -1.2127   15.5536   19.4256 C   0  0  0  0  0  0  0  0  0  0  0  0
   -1.0139   14.2002   19.1673 C   0  0  0  0  0  0  0  0  0  0  0  0
   -1.2820   13.6830   17.8991 C   0  0  0  0  0  0  0  0  0  0  0  0
   -1.7315   14.5155   16.8627 C   0  0  0  0  0  0  0  0  0  0  0  0
   -1.9277   15.8770   17.1346 C   0  0  0  0  0  0  0  0  0  0  0  0
   -2.0155   13.9330   15.5109 C   0  0  0  0  0  0  0  0  0  0  0  0
   -1.2625   13.0571   14.9193 N   0  0  0  0  0  0  0  0  0  0  0  0
   -3.1238   14.3003   14.8001 N   0  0  0  0  0  0  0  0  0  0  0  0
   -0.4427   12.7354   15.3594 H   0  0  0  0  0  0  0  0  0  0  0  0
   -3.7515   14.9606   15.1734 H   0  0  0  0  0  0  0  0  0  0  0  0
   -3.2943   13.9047   13.9149 H   0  0  0  0  0  0  0  0  0  0  0  0
 15 16  1  0
 16 17  1  0
 16 18  1  0
 16 14  1  0
 14 11  1  0
 11 12  1  0
 11 13  1  0
 11 10  1  0
  2 10  1  0
  2  3  1  0
  3  4  1  0
  4  5  1  0
  5  6  1  0
  6  7  1  0
  7  8  1  0
  8  9  2  0
  8  1  1  0
  1 34  1  0
 34 35  1  0
 35 36  2  0
 36 37  1  0
 37 38  2  0
 38 39  1  0
 39 41  1  0
 41 42  2  0
 41 43  1  0
 39 40  2  0
  1 19  1  0
 19 21  1  0
 21 22  2  0
 21 23  2  0
 21 24  1  0
 24 25  2  0
 25 26  1  0
 26 27  2  0
 27 28  1  0
 28 29  2  0
 29 30  1  0
 30 31  2  0
 31 32  1  0
 32 33  2  0
  7  2  1  0
 40 35  1  0
 33 24  1  0
 32 27  1  0
 42 44  1  0
 43 45  1  0
 43 46  1  0
 19 20  1  0
M  END
> <minimizedAffinity>
-8.97261

> <CNNscore>
0.8872308135

> <CNNaffinity>
7.6467719078

> <CNN_VS>
6.7844514847

> <CNNaffinity_variance>
0.3584153652

$$$$



 46 49  0  0  0  0  0  0  0  0999 V2000
   -2.0831   18.7642   17.3453 C   0  0  0  0  0  0  0  0  0  0  0  0
   -4.6084   21.7316   17.1981 C   0  0  0  0  0  0  0  0  0  0  0  0
   -4.4089   23.1526   16.6524 C   0  0  0  0  0  0  0  0  0  0  0  0
   -4.2327   23.1724   15.1400 C   0  0  0  0  0  0  0  0  0  0  0  0
   -3.0424   22.3073   14.7629 C   0  0  0  0  0  0  0  0  0  0  0  0
   -3.1110   20.9031   15.3672 C   0  0  0  0  0  0  0  0  0  0  0  0
   -3.4518   20.8814   16.7962 N   0  0  0  0  0  0  0  0  0  0  0  0
   -3.1100   19.8511   17.6786 C   0  0  0  0  0  0  0  0  0  0  0  0
   -3.5736   19.8422   18.8297 O   0  0  0  0  0  0  0  0  0  0  0  0
   -5.9391   21.0189   16.7940 C   0  0  0  0  0  0  0  0  0  0  0  0
   -7.0078   20.6656   17.9011 C   0  0  0  0  0  0  0  0  0  0  0  0
   -6.7971   19.1614   18.2097 C   0  0  0  0  0  0  0  0  0  0  0  0
   -6.7038   21.4447   19.1825 C   0  0  0  0  0  0  0  0  0  0  0  0
   -8.4548   20.8625   17.3436 C   0  0  0  0  0  0  0  0  0  0  0  0
   -8.3141   20.2318   14.8262 C   0  0  0  0  0  0  0  0  0  0  0  0
   -9.0503   20.0260   16.1586 C   0  0  0  0  0  0  0  0  0  0  0  0
   -9.1330   18.5205   16.4777 C   0  0  0  0  0  0  0  0  0  0  0  0
  -10.5082   20.5087   15.9558 C   0  0  0  0  0  0  0  0  0  0  0  0
   -0.8270   19.1361   16.6901 N   0  0  0  0  0  0  0  0  0  0  0  0
   -1.0823   19.6571   15.8512 H   0  0  0  0  0  0  0  0  0  0  0  0
    0.3209   20.0439   17.4760 S   0  0  0  0  0  0  0  0  0  0  0  0
   -0.3313   21.1929   18.0564 O   0  0  0  0  0  0  0  0  0  0  0  0
    1.0917   19.1112   18.2693 O   0  0  0  0  0  0  0  0  0  0  0  0
    1.3418   20.5675   16.1206 C   0  0  0  0  0  0  0  0  0  0  0  0
    0.7492   21.2004   15.0279 C   0  0  0  0  0  0  0  0  0  0  0  0
    1.5567   21.6658   13.9871 C   0  0  0  0  0  0  0  0  0  0  0  0
    2.9531   21.5005   14.0277 C   0  0  0  0  0  0  0  0  0  0  0  0
    3.7780   21.9821   12.9959 C   0  0  0  0  0  0  0  0  0  0  0  0
    5.1614   21.8161   13.0518 C   0  0  0  0  0  0  0  0  0  0  0  0
    5.7390   21.1651   14.1365 C   0  0  0  0  0  0  0  0  0  0  0  0
    4.9353   20.6786   15.1687 C   0  0  0  0  0  0  0  0  0  0  0  0
    3.5416   20.8383   15.1307 C   0  0  0  0  0  0  0  0  0  0  0  0
    2.7255   20.3657   16.1698 C   0  0  0  0  0  0  0  0  0  0  0  0
   -1.8364   17.8321   18.5516 C   0  0  0  0  0  0  0  0  0  0  0  0
   -1.4148   16.4226   18.2069 C   0  0  0  0  0  0  0  0  0  0  0  0
   -0.5591   15.7110   19.0557 C   0  0  0  0  0  0  0  0  0  0  0  0
   -0.2225   14.3918   18.7655 C   0  0  0  0  0  0  0  0  0  0  0  0
   -0.7310   13.7751   17.6216 C   0  0  0  0  0  0  0  0  0  0  0  0
   -1.5661   14.4752   16.7375 C   0  0  0  0  0  0  0  0  0  0  0  0
   -1.8979   15.8036   17.0399 C   0  0  0  0  0  0  0  0  0  0  0  0
   -2.1015   13.7873   15.5179 C   0  0  0  0  0  0  0  0  0  0  0  0
   -1.6526   12.6599   15.0580 N   0  0  0  0  0  0  0  0  0  0  0  0
   -3.1312   14.3241   14.7967 N   0  0  0  0  0  0  0  0  0  0  0  0
   -0.9110   12.2019   15.5157 H   0  0  0  0  0  0  0  0  0  0  0  0
   -3.5334   15.1788   15.0741 H   0  0  0  0  0  0  0  0  0  0  0  0
   -3.4707   13.8560   13.9999 H   0  0  0  0  0  0  0  0  0  0  0  0
 15 16  1  0
 16 17  1  0
 16 18  1  0
 16 14  1  0
 14 11  1  0
 11 12  1  0
 11 13  1  0
 11 10  1  0
  2 10  1  0
  2  3  1  0
  3  4  1  0
  4  5  1  0
  5  6  1  0
  6  7  1  0
  7  8  1  0
  8  9  2  0
  8  1  1  0
  1 34  1  0
 34 35  1  0
 35 36  2  0
 36 37  1  0
 37 38  2  0
 38 39  1  0
 39 41  1  0
 41 42  2  0
 41 43  1  0
 39 40  2  0
  1 19  1  0
 19 21  1  0
 21 22  2  0
 21 23  2  0
 21 24  1  0
 24 25  2  0
 25 26  1  0
 26 27  2  0
 27 28  1  0
 28 29  2  0
 29 30  1  0
 30 31  2  0
 31 32  1  0
 32 33  2  0
  7  2  1  0
 40 35  1  0
 33 24  1  0
 32 27  1  0
 42 44  1  0
 43 45  1  0
 43 46  1  0
 19 20  1  0
M  END
> <minimizedAffinity>
-9.02639

> <CNNscore>
0.8768132329

> <CNNaffinity>
7.8048148155

> <CNN_VS>
6.8433647156

> <CNNaffinity_variance>
0.1415980458

$$$$



 46 49  0  0  0  0  0  0  0  0999 V2000
   -1.6391   18.7851   18.8683 C   0  0  0  0  0  0  0  0  0  0  0  0
    1.5836   19.7682   20.8308 C   0  0  0  0  0  0  0  0  0  0  0  0
    3.0504   19.7169   20.3807 C   0  0  0  0  0  0  0  0  0  0  0  0
    3.3562   20.7313   19.2870 C   0  0  0  0  0  0  0  0  0  0  0  0
    2.4464   20.4755   18.0978 C   0  0  0  0  0  0  0  0  0  0  0  0
    0.9679   20.3978   18.4845 C   0  0  0  0  0  0  0  0  0  0  0  0
    0.6975   19.5484   19.6524 N   0  0  0  0  0  0  0  0  0  0  0  0
   -0.5250   18.9196   19.9112 C   0  0  0  0  0  0  0  0  0  0  0  0
   -0.7112   18.3512   20.9985 O   0  0  0  0  0  0  0  0  0  0  0  0
    1.1374   21.0660   21.5784 C   0  0  0  0  0  0  0  0  0  0  0  0
    1.0640   21.0776   23.1554 C   0  0  0  0  0  0  0  0  0  0  0  0
    2.5312   21.2224   23.6335 C   0  0  0  0  0  0  0  0  0  0  0  0
    0.3016   22.3166   23.6298 C   0  0  0  0  0  0  0  0  0  0  0  0
    0.4988   19.7196   23.6842 C   0  0  0  0  0  0  0  0  0  0  0  0
    1.0487   19.7106   26.2245 C   0  0  0  0  0  0  0  0  0  0  0  0
   -0.0266   19.5079   25.1463 C   0  0  0  0  0  0  0  0  0  0  0  0
   -1.2542   20.3825   25.4681 C   0  0  0  0  0  0  0  0  0  0  0  0
   -0.5023   18.0370   25.2445 C   0  0  0  0  0  0  0  0  0  0  0  0
   -1.3382   19.0329   17.4563 N   0  0  0  0  0  0  0  0  0  0  0  0
   -1.3708   18.1259   16.9908 H   0  0  0  0  0  0  0  0  0  0  0  0
   -2.2678   20.0634   16.5434 S   0  0  0  0  0  0  0  0  0  0  0  0
   -1.5180   21.2775   16.3282 O   0  0  0  0  0  0  0  0  0  0  0  0
   -2.7835   19.2703   15.4486 O   0  0  0  0  0  0  0  0  0  0  0  0
   -3.6169   20.3920   17.6505 C   0  0  0  0  0  0  0  0  0  0  0  0
   -3.4988   21.4271   18.5779 C   0  0  0  0  0  0  0  0  0  0  0  0
   -4.5805   21.7259   19.4101 C   0  0  0  0  0  0  0  0  0  0  0  0
   -5.7795   20.9952   19.3255 C   0  0  0  0  0  0  0  0  0  0  0  0
   -6.8818   21.2991   20.1438 C   0  0  0  0  0  0  0  0  0  0  0  0
   -8.0664   20.5700   20.0454 C   0  0  0  0  0  0  0  0  0  0  0  0
   -8.1652   19.5266   19.1313 C   0  0  0  0  0  0  0  0  0  0  0  0
   -7.0803   19.2094   18.3126 C   0  0  0  0  0  0  0  0  0  0  0  0
   -5.8811   19.9335   18.3959 C   0  0  0  0  0  0  0  0  0  0  0  0
   -4.7891   19.6323   17.5677 C   0  0  0  0  0  0  0  0  0  0  0  0
   -2.4312   17.4726   19.0548 C   0  0  0  0  0  0  0  0  0  0  0  0
   -1.7644   16.2297   18.5128 C   0  0  0  0  0  0  0  0  0  0  0  0
   -0.7163   15.6238   19.2153 C   0  0  0  0  0  0  0  0  0  0  0  0
   -0.1461   14.4448   18.7435 C   0  0  0  0  0  0  0  0  0  0  0  0
   -0.6123   13.8657   17.5624 C   0  0  0  0  0  0  0  0  0  0  0  0
   -1.6408   14.4687   16.8223 C   0  0  0  0  0  0  0  0  0  0  0  0
   -2.2071   15.6562   17.3072 C   0  0  0  0  0  0  0  0  0  0  0  0
   -2.1251   13.8231   15.5590 C   0  0  0  0  0  0  0  0  0  0  0  0
   -1.6660   12.7048   15.0869 N   0  0  0  0  0  0  0  0  0  0  0  0
   -3.1146   14.3923   14.8071 N   0  0  0  0  0  0  0  0  0  0  0  0
   -0.9511   12.2254   15.5646 H   0  0  0  0  0  0  0  0  0  0  0  0
   -3.5210   15.2428   15.0910 H   0  0  0  0  0  0  0  0  0  0  0  0
   -3.4207   13.9517   13.9816 H   0  0  0  0  0  0  0  0  0  0  0  0
 15 16  1  0
 16 17  1  0
 16 18  1  0
 16 14  1  0
 14 11  1  0
 11 12  1  0
 11 13  1  0
 11 10  1  0
  2 10  1  0
  2  3  1  0
  3  4  1  0
  4  5  1  0
  5  6  1  0
  6  7  1  0
  7  8  1  0
  8  9  2  0
  8  1  1  0
  1 34  1  0
 34 35  1  0
 35 36  2  0
 36 37  1  0
 37 38  2  0
 38 39  1  0
 39 41  1  0
 41 42  2  0
 41 43  1  0
 39 40  2  0
  1 19  1  0
 19 21  1  0
 21 22  2  0
 21 23  2  0
 21 24  1  0
 24 25  2  0
 25 26  1  0
 26 27  2  0
 27 28  1  0
 28 29  2  0
 29 30  1  0
 30 31  2  0
 31 32  1  0
 32 33  2  0
  7  2  1  0
 40 35  1  0
 33 24  1  0
 32 27  1  0
 42 44  1  0
 43 45  1  0
 43 46  1  0
 19 20  1  0
M  END
> <minimizedAffinity>
-8.45282

> <CNNscore>
0.8651226163

> <CNNaffinity>
7.8071784973

> <CNN_VS>
6.7541666031

> <CNNaffinity_variance>
0.0994376168

$$$$



 46 49  0  0  0  0  0  0  0  0999 V2000
   -1.7677   18.8711   18.7384 C   0  0  0  0  0  0  0  0  0  0  0  0
    1.5555   19.6247   20.6338 C   0  0  0  0  0  0  0  0  0  0  0  0
    3.0051   19.4950   20.1452 C   0  0  0  0  0  0  0  0  0  0  0  0
    3.3437   20.5098   19.0615 C   0  0  0  0  0  0  0  0  0  0  0  0
    2.3911   20.3306   17.8920 C   0  0  0  0  0  0  0  0  0  0  0  0
    0.9206   20.3334   18.3152 C   0  0  0  0  0  0  0  0  0  0  0  0
    0.6290   19.4799   19.4750 N   0  0  0  0  0  0  0  0  0  0  0  0
   -0.6221   18.9199   19.7544 C   0  0  0  0  0  0  0  0  0  0  0  0
   -0.8150   18.3433   20.8363 O   0  0  0  0  0  0  0  0  0  0  0  0
    1.2062   20.9325   21.4148 C   0  0  0  0  0  0  0  0  0  0  0  0
    1.3809   22.3360   20.7134 C   0  0  0  0  0  0  0  0  0  0  0  0
    0.3766   22.3328   19.5329 C   0  0  0  0  0  0  0  0  0  0  0  0
    0.9590   23.4510   21.6726 C   0  0  0  0  0  0  0  0  0  0  0  0
    2.8269   22.4809   20.1377 C   0  0  0  0  0  0  0  0  0  0  0  0
    4.9108   24.0105   19.8676 C   0  0  0  0  0  0  0  0  0  0  0  0
    3.4116   23.8275   19.5869 C   0  0  0  0  0  0  0  0  0  0  0  0
    3.1388   24.0214   18.0825 C   0  0  0  0  0  0  0  0  0  0  0  0
    2.6658   24.9729   20.3159 C   0  0  0  0  0  0  0  0  0  0  0  0
   -1.5028   19.2050   17.3371 N   0  0  0  0  0  0  0  0  0  0  0  0
   -1.6303   18.3435   16.8061 H   0  0  0  0  0  0  0  0  0  0  0  0
   -2.3771   20.3769   16.5485 S   0  0  0  0  0  0  0  0  0  0  0  0
   -1.6133   21.6011   16.5692 O   0  0  0  0  0  0  0  0  0  0  0  0
   -2.8327   19.7720   15.3157 O   0  0  0  0  0  0  0  0  0  0  0  0
   -3.7853   20.5424   17.6178 C   0  0  0  0  0  0  0  0  0  0  0  0
   -3.7353   21.4549   18.6716 C   0  0  0  0  0  0  0  0  0  0  0  0
   -4.8624   21.6296   19.4784 C   0  0  0  0  0  0  0  0  0  0  0  0
   -6.0394   20.8962   19.2427 C   0  0  0  0  0  0  0  0  0  0  0  0
   -7.1865   21.0775   20.0353 C   0  0  0  0  0  0  0  0  0  0  0  0
   -8.3484   20.3476   19.7869 C   0  0  0  0  0  0  0  0  0  0  0  0
   -8.3796   19.4256   18.7463 C   0  0  0  0  0  0  0  0  0  0  0  0
   -7.2495   19.2309   17.9506 C   0  0  0  0  0  0  0  0  0  0  0  0
   -6.0721   19.9579   18.1843 C   0  0  0  0  0  0  0  0  0  0  0  0
   -4.9349   19.7805   17.3817 C   0  0  0  0  0  0  0  0  0  0  0  0
   -2.5776   17.5622   18.8636 C   0  0  0  0  0  0  0  0  0  0  0  0
   -1.8826   16.3185   18.3601 C   0  0  0  0  0  0  0  0  0  0  0  0
   -0.8816   15.7073   19.1240 C   0  0  0  0  0  0  0  0  0  0  0  0
   -0.2872   14.5277   18.6847 C   0  0  0  0  0  0  0  0  0  0  0  0
   -0.6816   13.9532   17.4757 C   0  0  0  0  0  0  0  0  0  0  0  0
   -1.6607   14.5615   16.6754 C   0  0  0  0  0  0  0  0  0  0  0  0
   -2.2521   15.7497   17.1279 C   0  0  0  0  0  0  0  0  0  0  0  0
   -2.0684   13.9209   15.3829 C   0  0  0  0  0  0  0  0  0  0  0  0
   -3.1067   14.2723   14.6882 N   0  0  0  0  0  0  0  0  0  0  0  0
   -1.3435   12.8967   14.8405 N   0  0  0  0  0  0  0  0  0  0  0  0
   -3.6865   15.0024   15.0045 H   0  0  0  0  0  0  0  0  0  0  0  0
   -0.5389   12.5654   15.3010 H   0  0  0  0  0  0  0  0  0  0  0  0
   -1.6261   12.4904   13.9894 H   0  0  0  0  0  0  0  0  0  0  0  0
 15 16  1  0
 16 17  1  0
 16 18  1  0
 16 14  1  0
 14 11  1  0
 11 12  1  0
 11 13  1  0
 11 10  1  0
  2 10  1  0
  2  3  1  0
  3  4  1  0
  4  5  1  0
  5  6  1  0
  6  7  1  0
  7  8  1  0
  8  9  2  0
  8  1  1  0
  1 34  1  0
 34 35  1  0
 35 36  2  0
 36 37  1  0
 37 38  2  0
 38 39  1  0
 39 41  1  0
 41 42  2  0
 41 43  1  0
 39 40  2  0
  1 19  1  0
 19 21  1  0
 21 22  2  0
 21 23  2  0
 21 24  1  0
 24 25  2  0
 25 26  1  0
 26 27  2  0
 27 28  1  0
 28 29  2  0
 29 30  1  0
 30 31  2  0
 31 32  1  0
 32 33  2  0
  7  2  1  0
 40 35  1  0
 33 24  1  0
 32 27  1  0
 42 44  1  0
 43 45  1  0
 43 46  1  0
 19 20  1  0
M  END
> <minimizedAffinity>
-7.83675

> <CNNscore>
0.8637942076

> <CNNaffinity>
7.8634986877

> <CNN_VS>
6.7924447060

> <CNNaffinity_variance>
0.0638125241

$$$$



 46 49  0  0  0  0  0  0  0  0999 V2000
    0.4337   18.0926   19.3122 C   0  0  0  0  0  0  0  0  0  0  0  0
    2.4009   21.2600   18.1713 C   0  0  0  0  0  0  0  0  0  0  0  0
    3.1043   22.3272   19.0218 C   0  0  0  0  0  0  0  0  0  0  0  0
    4.3258   21.7776   19.7460 C   0  0  0  0  0  0  0  0  0  0  0  0
    3.9043   20.6154   20.6286 C   0  0  0  0  0  0  0  0  0  0  0  0
    3.0946   19.5580   19.8751 C   0  0  0  0  0  0  0  0  0  0  0  0
    2.0196   20.1094   19.0390 N   0  0  0  0  0  0  0  0  0  0  0  0
    0.8687   19.4095   18.6615 C   0  0  0  0  0  0  0  0  0  0  0  0
    0.0917   19.8995   17.8271 O   0  0  0  0  0  0  0  0  0  0  0  0
    3.1948   20.7328   16.9327 C   0  0  0  0  0  0  0  0  0  0  0  0
    2.9987   21.4191   15.5246 C   0  0  0  0  0  0  0  0  0  0  0  0
    1.6515   20.8737   14.9862 C   0  0  0  0  0  0  0  0  0  0  0  0
    2.8444   22.9311   15.7018 C   0  0  0  0  0  0  0  0  0  0  0  0
    4.1383   20.9883   14.5453 C   0  0  0  0  0  0  0  0  0  0  0  0
    5.9339   22.1286   16.0389 C   0  0  0  0  0  0  0  0  0  0  0  0
    5.6328   21.4366   14.7009 C   0  0  0  0  0  0  0  0  0  0  0  0
    6.6256   20.2783   14.4818 C   0  0  0  0  0  0  0  0  0  0  0  0
    5.9120   22.4674   13.5789 C   0  0  0  0  0  0  0  0  0  0  0  0
    0.4281   17.9777   20.7724 N   0  0  0  0  0  0  0  0  0  0  0  0
    1.2161   18.5313   21.1085 H   0  0  0  0  0  0  0  0  0  0  0  0
   -0.8899   18.4430   21.6700 S   0  0  0  0  0  0  0  0  0  0  0  0
   -1.5520   19.5208   20.9754 O   0  0  0  0  0  0  0  0  0  0  0  0
   -1.5759   17.2219   22.0329 O   0  0  0  0  0  0  0  0  0  0  0  0
   -0.1105   19.0764   23.1346 C   0  0  0  0  0  0  0  0  0  0  0  0
    0.7944   20.1320   23.0211 C   0  0  0  0  0  0  0  0  0  0  0  0
    1.3643   20.6709   24.1771 C   0  0  0  0  0  0  0  0  0  0  0  0
    1.0400   20.1605   25.4472 C   0  0  0  0  0  0  0  0  0  0  0  0
    1.5917   20.7073   26.6191 C   0  0  0  0  0  0  0  0  0  0  0  0
    1.2571   20.1949   27.8721 C   0  0  0  0  0  0  0  0  0  0  0  0
    0.3697   19.1288   27.9715 C   0  0  0  0  0  0  0  0  0  0  0  0
   -0.1860   18.5720   26.8185 C   0  0  0  0  0  0  0  0  0  0  0  0
    0.1374   19.0758   25.5493 C   0  0  0  0  0  0  0  0  0  0  0  0
   -0.4265   18.5330   24.3847 C   0  0  0  0  0  0  0  0  0  0  0  0
   -0.8835   17.5686   18.6995 C   0  0  0  0  0  0  0  0  0  0  0  0
   -0.9048   16.0938   18.3713 C   0  0  0  0  0  0  0  0  0  0  0  0
   -0.4392   15.1544   19.2986 C   0  0  0  0  0  0  0  0  0  0  0  0
   -0.5174   13.7935   19.0166 C   0  0  0  0  0  0  0  0  0  0  0  0
   -1.0538   13.3598   17.8034 C   0  0  0  0  0  0  0  0  0  0  0  0
   -1.4994   14.2811   16.8433 C   0  0  0  0  0  0  0  0  0  0  0  0
   -1.4151   15.6493   17.1383 C   0  0  0  0  0  0  0  0  0  0  0  0
   -2.0747   13.7878   15.5499 C   0  0  0  0  0  0  0  0  0  0  0  0
   -1.7210   12.6841   14.9661 N   0  0  0  0  0  0  0  0  0  0  0  0
   -3.0408   14.4942   14.8894 N   0  0  0  0  0  0  0  0  0  0  0  0
   -1.0305   12.1118   15.3722 H   0  0  0  0  0  0  0  0  0  0  0  0
   -3.3694   15.3447   15.2609 H   0  0  0  0  0  0  0  0  0  0  0  0
   -3.4080   14.1525   14.0423 H   0  0  0  0  0  0  0  0  0  0  0  0
 15 16  1  0
 16 17  1  0
 16 18  1  0
 16 14  1  0
 14 11  1  0
 11 12  1  0
 11 13  1  0
 11 10  1  0
  2 10  1  0
  2  3  1  0
  3  4  1  0
  4  5  1  0
  5  6  1  0
  6  7  1  0
  7  8  1  0
  8  9  2  0
  8  1  1  0
  1 34  1  0
 34 35  1  0
 35 36  2  0
 36 37  1  0
 37 38  2  0
 38 39  1  0
 39 41  1  0
 41 42  2  0
 41 43  1  0
 39 40  2  0
  1 19  1  0
 19 21  1  0
 21 22  2  0
 21 23  2  0
 21 24  1  0
 24 25  2  0
 25 26  1  0
 26 27  2  0
 27 28  1  0
 28 29  2  0
 29 30  1  0
 30 31  2  0
 31 32  1  0
 32 33  2  0
  7  2  1  0
 40 35  1  0
 33 24  1  0
 32 27  1  0
 42 44  1  0
 43 45  1  0
 43 46  1  0
 19 20  1  0
M  END
> <minimizedAffinity>
-9.71667

> <CNNscore>
0.8417367339

> <CNNaffinity>
8.1058874130

> <CNN_VS>
6.8230233192

> <CNNaffinity_variance>
0.1224094629

$$$$



 46 49  0  0  0  0  0  0  0  0999 V2000
   -0.7829   19.3477   18.5689 C   0  0  0  0  0  0  0  0  0  0  0  0
    2.3626   21.5676   17.9508 C   0  0  0  0  0  0  0  0  0  0  0  0
    3.2718   22.2714   18.9681 C   0  0  0  0  0  0  0  0  0  0  0  0
    4.0792   21.2857   19.8019 C   0  0  0  0  0  0  0  0  0  0  0  0
    3.1298   20.3472   20.5268 C   0  0  0  0  0  0  0  0  0  0  0  0
    2.1119   19.6903   19.5920 C   0  0  0  0  0  0  0  0  0  0  0  0
    1.4567   20.6252   18.6672 N   0  0  0  0  0  0  0  0  0  0  0  0
    0.2006   20.4189   18.0870 C   0  0  0  0  0  0  0  0  0  0  0  0
   -0.2045   21.1847   17.1984 O   0  0  0  0  0  0  0  0  0  0  0  0
    3.0844   20.8096   16.7904 C   0  0  0  0  0  0  0  0  0  0  0  0
    2.9633   21.3431   15.3095 C   0  0  0  0  0  0  0  0  0  0  0  0
    1.7338   20.6142   14.7100 C   0  0  0  0  0  0  0  0  0  0  0  0
    2.6487   22.8405   15.3220 C   0  0  0  0  0  0  0  0  0  0  0  0
    4.2296   20.9476   14.4829 C   0  0  0  0  0  0  0  0  0  0  0  0
    5.7965   22.1526   16.1705 C   0  0  0  0  0  0  0  0  0  0  0  0
    5.6717   21.4772   14.7964 C   0  0  0  0  0  0  0  0  0  0  0  0
    6.7488   20.3837   14.6568 C   0  0  0  0  0  0  0  0  0  0  0  0
    5.9990   22.5495   13.7274 C   0  0  0  0  0  0  0  0  0  0  0  0
   -1.8283   19.7089   19.5292 N   0  0  0  0  0  0  0  0  0  0  0  0
   -1.4011   19.6571   20.4539 H   0  0  0  0  0  0  0  0  0  0  0  0
   -2.6030   21.1762   19.4509 S   0  0  0  0  0  0  0  0  0  0  0  0
   -2.5659   21.7773   20.7623 O   0  0  0  0  0  0  0  0  0  0  0  0
   -2.0750   21.8435   18.2806 O   0  0  0  0  0  0  0  0  0  0  0  0
   -4.2657   20.6752   19.0788 C   0  0  0  0  0  0  0  0  0  0  0  0
   -4.4752   19.6166   18.1950 C   0  0  0  0  0  0  0  0  0  0  0  0
   -5.7794   19.1822   17.9459 C   0  0  0  0  0  0  0  0  0  0  0  0
   -6.8777   19.8004   18.5706 C   0  0  0  0  0  0  0  0  0  0  0  0
   -8.1933   19.3595   18.3433 C   0  0  0  0  0  0  0  0  0  0  0  0
   -9.2725   19.9781   18.9736 C   0  0  0  0  0  0  0  0  0  0  0  0
   -9.0528   21.0462   19.8367 C   0  0  0  0  0  0  0  0  0  0  0  0
   -7.7536   21.4987   20.0725 C   0  0  0  0  0  0  0  0  0  0  0  0
   -6.6553   20.8871   19.4488 C   0  0  0  0  0  0  0  0  0  0  0  0
   -5.3440   21.3247   19.6897 C   0  0  0  0  0  0  0  0  0  0  0  0
   -1.3576   18.5368   17.3869 C   0  0  0  0  0  0  0  0  0  0  0  0
   -1.2538   17.0351   17.5190 C   0  0  0  0  0  0  0  0  0  0  0  0
   -0.7293   16.4603   18.6825 C   0  0  0  0  0  0  0  0  0  0  0  0
   -0.6922   15.0761   18.8247 C   0  0  0  0  0  0  0  0  0  0  0  0
   -1.1709   14.2545   17.8033 C   0  0  0  0  0  0  0  0  0  0  0  0
   -1.6734   14.8038   16.6137 C   0  0  0  0  0  0  0  0  0  0  0  0
   -1.7054   16.1994   16.4816 C   0  0  0  0  0  0  0  0  0  0  0  0
   -2.1849   13.8982   15.5341 C   0  0  0  0  0  0  0  0  0  0  0  0
   -1.6784   12.7369   15.2531 N   0  0  0  0  0  0  0  0  0  0  0  0
   -3.2531   14.2535   14.7588 N   0  0  0  0  0  0  0  0  0  0  0  0
   -0.9057   12.4006   15.7621 H   0  0  0  0  0  0  0  0  0  0  0  0
   -3.6998   15.1189   14.9029 H   0  0  0  0  0  0  0  0  0  0  0  0
   -3.5758   13.6439   14.0562 H   0  0  0  0  0  0  0  0  0  0  0  0
 15 16  1  0
 16 17  1  0
 16 18  1  0
 16 14  1  0
 14 11  1  0
 11 12  1  0
 11 13  1  0
 11 10  1  0
  2 10  1  0
  2  3  1  0
  3  4  1  0
  4  5  1  0
  5  6  1  0
  6  7  1  0
  7  8  1  0
  8  9  2  0
  8  1  1  0
  1 34  1  0
 34 35  1  0
 35 36  2  0
 36 37  1  0
 37 38  2  0
 38 39  1  0
 39 41  1  0
 41 42  2  0
 41 43  1  0
 39 40  2  0
  1 19  1  0
 19 21  1  0
 21 22  2  0
 21 23  2  0
 21 24  1  0
 24 25  2  0
 25 26  1  0
 26 27  2  0
 27 28  1  0
 28 29  2  0
 29 30  1  0
 30 31  2  0
 31 32  1  0
 32 33  2  0
  7  2  1  0
 40 35  1  0
 33 24  1  0
 32 27  1  0
 42 44  1  0
 43 45  1  0
 43 46  1  0
 19 20  1  0
M  END
> <minimizedAffinity>
-8.99366

> <CNNscore>
0.8406182528

> <CNNaffinity>
8.0205717087

> <CNN_VS>
6.7422389984

> <CNNaffinity_variance>
0.1776947826

$$$$



 46 49  0  0  0  0  0  0  0  0999 V2000
   -2.1322   18.7062   17.1326 C   0  0  0  0  0  0  0  0  0  0  0  0
   -5.4755   20.6088   17.7704 C   0  0  0  0  0  0  0  0  0  0  0  0
   -6.1164   21.0304   19.1002 C   0  0  0  0  0  0  0  0  0  0  0  0
   -5.3157   22.1130   19.8112 C   0  0  0  0  0  0  0  0  0  0  0  0
   -3.9040   21.6103   20.0598 C   0  0  0  0  0  0  0  0  0  0  0  0
   -3.2349   21.0639   18.7969 C   0  0  0  0  0  0  0  0  0  0  0  0
   -4.0800   20.1474   18.0193 N   0  0  0  0  0  0  0  0  0  0  0  0
   -3.5949   19.1611   17.1540 C   0  0  0  0  0  0  0  0  0  0  0  0
   -4.3802   18.5395   16.4211 O   0  0  0  0  0  0  0  0  0  0  0  0
   -5.4701   21.6842   16.6366 C   0  0  0  0  0  0  0  0  0  0  0  0
   -6.6309   21.7027   15.5668 C   0  0  0  0  0  0  0  0  0  0  0  0
   -5.9613   22.1496   14.2424 C   0  0  0  0  0  0  0  0  0  0  0  0
   -7.1645   20.2842   15.3562 C   0  0  0  0  0  0  0  0  0  0  0  0
   -7.7156   22.7580   15.9583 C   0  0  0  0  0  0  0  0  0  0  0  0
   -9.3568   21.3490   17.3991 C   0  0  0  0  0  0  0  0  0  0  0  0
   -9.2056   22.3929   16.2823 C   0  0  0  0  0  0  0  0  0  0  0  0
  -10.0619   23.6314   16.6113 C   0  0  0  0  0  0  0  0  0  0  0  0
   -9.8077   21.7770   14.9948 C   0  0  0  0  0  0  0  0  0  0  0  0
   -1.0838   19.6672   16.7822 N   0  0  0  0  0  0  0  0  0  0  0  0
   -1.5114   20.5918   16.8323 H   0  0  0  0  0  0  0  0  0  0  0  0
    0.3306   19.7559   17.6488 S   0  0  0  0  0  0  0  0  0  0  0  0
    0.1556   20.7279   18.7010 O   0  0  0  0  0  0  0  0  0  0  0  0
    0.7194   18.3885   17.9179 O   0  0  0  0  0  0  0  0  0  0  0  0
    1.4487   20.4019   16.4295 C   0  0  0  0  0  0  0  0  0  0  0  0
    2.7875   20.5955   16.7694 C   0  0  0  0  0  0  0  0  0  0  0  0
    3.6813   21.0479   15.7957 C   0  0  0  0  0  0  0  0  0  0  0  0
    3.2468   21.3122   14.4841 C   0  0  0  0  0  0  0  0  0  0  0  0
    4.1405   21.7488   13.4903 C   0  0  0  0  0  0  0  0  0  0  0  0
    3.6970   22.0018   12.1927 C   0  0  0  0  0  0  0  0  0  0  0  0
    2.3557   21.8249   11.8709 C   0  0  0  0  0  0  0  0  0  0  0  0
    1.4539   21.3942   12.8453 C   0  0  0  0  0  0  0  0  0  0  0  0
    1.8824   21.1327   14.1557 C   0  0  0  0  0  0  0  0  0  0  0  0
    0.9871   20.6856   15.1394 C   0  0  0  0  0  0  0  0  0  0  0  0
   -1.7689   17.9140   18.4075 C   0  0  0  0  0  0  0  0  0  0  0  0
   -1.5742   16.4281   18.2146 C   0  0  0  0  0  0  0  0  0  0  0  0
   -1.0955   15.6339   19.2631 C   0  0  0  0  0  0  0  0  0  0  0  0
   -0.9758   14.2566   19.1003 C   0  0  0  0  0  0  0  0  0  0  0  0
   -1.3254   13.6622   17.8871 C   0  0  0  0  0  0  0  0  0  0  0  0
   -1.7787   14.4385   16.8096 C   0  0  0  0  0  0  0  0  0  0  0  0
   -1.8947   15.8248   16.9851 C   0  0  0  0  0  0  0  0  0  0  0  0
   -2.1511   13.7738   15.5186 C   0  0  0  0  0  0  0  0  0  0  0  0
   -1.5953   12.6918   15.0664 N   0  0  0  0  0  0  0  0  0  0  0  0
   -3.1336   14.2841   14.7169 N   0  0  0  0  0  0  0  0  0  0  0  0
   -0.8774   12.2556   15.5798 H   0  0  0  0  0  0  0  0  0  0  0  0
   -3.6094   15.1040   14.9826 H   0  0  0  0  0  0  0  0  0  0  0  0
   -3.3655   13.8317   13.8738 H   0  0  0  0  0  0  0  0  0  0  0  0
 15 16  1  0
 16 17  1  0
 16 18  1  0
 16 14  1  0
 14 11  1  0
 11 12  1  0
 11 13  1  0
 11 10  1  0
  2 10  1  0
  2  3  1  0
  3  4  1  0
  4  5  1  0
  5  6  1  0
  6  7  1  0
  7  8  1  0
  8  9  2  0
  8  1  1  0
  1 34  1  0
 34 35  1  0
 35 36  2  0
 36 37  1  0
 37 38  2  0
 38 39  1  0
 39 41  1  0
 41 42  2  0
 41 43  1  0
 39 40  2  0
  1 19  1  0
 19 21  1  0
 21 22  2  0
 21 23  2  0
 21 24  1  0
 24 25  2  0
 25 26  1  0
 26 27  2  0
 27 28  1  0
 28 29  2  0
 29 30  1  0
 30 31  2  0
 31 32  1  0
 32 33  2  0
  7  2  1  0
 40 35  1  0
 33 24  1  0
 32 27  1  0
 42 44  1  0
 43 45  1  0
 43 46  1  0
 19 20  1  0
M  END
> <minimizedAffinity>
-8.10968

> <CNNscore>
0.8126014471

> <CNNaffinity>
7.6159071922

> <CNN_VS>
6.1886973381

> <CNNaffinity_variance>
0.1242935881

$$$$



 46 49  0  0  0  0  0  0  0  0999 V2000
   -2.4086   19.7416   17.9998 C   0  0  0  0  0  0  0  0  0  0  0  0
    0.2988   20.4262   20.7211 C   0  0  0  0  0  0  0  0  0  0  0  0
    1.4466   19.5259   21.1996 C   0  0  0  0  0  0  0  0  0  0  0  0
    2.5117   19.3281   20.1295 C   0  0  0  0  0  0  0  0  0  0  0  0
    1.8714   18.7263   18.8904 C   0  0  0  0  0  0  0  0  0  0  0  0
    0.6436   19.5064   18.4154 C   0  0  0  0  0  0  0  0  0  0  0  0
   -0.3027   19.8454   19.4870 N   0  0  0  0  0  0  0  0  0  0  0  0
   -1.6666   20.0894   19.2942 C   0  0  0  0  0  0  0  0  0  0  0  0
   -2.3569   20.5216   20.2306 O   0  0  0  0  0  0  0  0  0  0  0  0
    0.6597   21.9249   20.4645 C   0  0  0  0  0  0  0  0  0  0  0  0
    0.3426   23.0086   21.5679 C   0  0  0  0  0  0  0  0  0  0  0  0
   -0.9377   23.7313   21.0773 C   0  0  0  0  0  0  0  0  0  0  0  0
    0.0024   22.3179   22.8902 C   0  0  0  0  0  0  0  0  0  0  0  0
    1.5026   24.0528   21.6548 C   0  0  0  0  0  0  0  0  0  0  0  0
    3.6365   24.7899   22.9426 C   0  0  0  0  0  0  0  0  0  0  0  0
    2.9618   23.6947   22.1029 C   0  0  0  0  0  0  0  0  0  0  0  0
    3.0399   22.3482   22.8486 C   0  0  0  0  0  0  0  0  0  0  0  0
    3.8000   23.5261   20.8111 C   0  0  0  0  0  0  0  0  0  0  0  0
   -1.7013   19.8223   16.7197 N   0  0  0  0  0  0  0  0  0  0  0  0
   -1.9770   18.9985   16.1853 H   0  0  0  0  0  0  0  0  0  0  0  0
   -1.8941   21.1253   15.7075 S   0  0  0  0  0  0  0  0  0  0  0  0
   -2.8942   20.7888   14.7232 O   0  0  0  0  0  0  0  0  0  0  0  0
   -2.0156   22.2828   16.5670 O   0  0  0  0  0  0  0  0  0  0  0  0
   -0.3007   21.2013   14.9269 C   0  0  0  0  0  0  0  0  0  0  0  0
   -0.2198   21.5522   13.5793 C   0  0  0  0  0  0  0  0  0  0  0  0
    1.0356   21.6699   12.9780 C   0  0  0  0  0  0  0  0  0  0  0  0
    2.2124   21.4359   13.7123 C   0  0  0  0  0  0  0  0  0  0  0  0
    3.4822   21.5705   13.1236 C   0  0  0  0  0  0  0  0  0  0  0  0
    4.6407   21.3408   13.8649 C   0  0  0  0  0  0  0  0  0  0  0  0
    4.5469   20.9713   15.2023 C   0  0  0  0  0  0  0  0  0  0  0  0
    3.2947   20.8307   15.8026 C   0  0  0  0  0  0  0  0  0  0  0  0
    2.1181   21.0598   15.0729 C   0  0  0  0  0  0  0  0  0  0  0  0
    0.8545   20.9353   15.6702 C   0  0  0  0  0  0  0  0  0  0  0  0
   -3.1840   18.4127   18.1337 C   0  0  0  0  0  0  0  0  0  0  0  0
   -2.3459   17.1595   18.0323 C   0  0  0  0  0  0  0  0  0  0  0  0
   -1.4458   16.8244   19.0505 C   0  0  0  0  0  0  0  0  0  0  0  0
   -0.7208   15.6380   18.9821 C   0  0  0  0  0  0  0  0  0  0  0  0
   -0.8827   14.7806   17.8929 C   0  0  0  0  0  0  0  0  0  0  0  0
   -1.7553   15.1071   16.8436 C   0  0  0  0  0  0  0  0  0  0  0  0
   -2.4799   16.3049   16.9232 C   0  0  0  0  0  0  0  0  0  0  0  0
   -1.9130   14.1661   15.6873 C   0  0  0  0  0  0  0  0  0  0  0  0
   -1.1320   13.1562   15.4547 N   0  0  0  0  0  0  0  0  0  0  0  0
   -2.9254   14.3202   14.7818 N   0  0  0  0  0  0  0  0  0  0  0  0
   -0.3757   12.9699   16.0569 H   0  0  0  0  0  0  0  0  0  0  0  0
   -3.5661   15.0611   14.8811 H   0  0  0  0  0  0  0  0  0  0  0  0
   -3.0138   13.6904   14.0304 H   0  0  0  0  0  0  0  0  0  0  0  0
 15 16  1  0
 16 17  1  0
 16 18  1  0
 16 14  1  0
 14 11  1  0
 11 12  1  0
 11 13  1  0
 11 10  1  0
  2 10  1  0
  2  3  1  0
  3  4  1  0
  4  5  1  0
  5  6  1  0
  6  7  1  0
  7  8  1  0
  8  9  2  0
  8  1  1  0
  1 34  1  0
 34 35  1  0
 35 36  2  0
 36 37  1  0
 37 38  2  0
 38 39  1  0
 39 41  1  0
 41 42  2  0
 41 43  1  0
 39 40  2  0
  1 19  1  0
 19 21  1  0
 21 22  2  0
 21 23  2  0
 21 24  1  0
 24 25  2  0
 25 26  1  0
 26 27  2  0
 27 28  1  0
 28 29  2  0
 29 30  1  0
 30 31  2  0
 31 32  1  0
 32 33  2  0
  7  2  1  0
 40 35  1  0
 33 24  1  0
 32 27  1  0
 42 44  1  0
 43 45  1  0
 43 46  1  0
 19 20  1  0
M  END
> <minimizedAffinity>
-7.93531

> <CNNscore>
0.8079781532

> <CNNaffinity>
7.8005309105

> <CNN_VS>
6.3026585579

> <CNNaffinity_variance>
0.1324241161

$$$$



 46 49  0  0  0  0  0  0  0  0999 V2000
   -2.1986   18.8730   17.2719 C   0  0  0  0  0  0  0  0  0  0  0  0
   -4.5640   21.8731   16.4921 C   0  0  0  0  0  0  0  0  0  0  0  0
   -4.2127   23.3393   16.2027 C   0  0  0  0  0  0  0  0  0  0  0  0
   -3.4891   23.5097   14.8738 C   0  0  0  0  0  0  0  0  0  0  0  0
   -2.2223   22.6716   14.8819 C   0  0  0  0  0  0  0  0  0  0  0  0
   -2.4742   21.2146   15.2755 C   0  0  0  0  0  0  0  0  0  0  0  0
   -3.3196   21.0528   16.4662 N   0  0  0  0  0  0  0  0  0  0  0  0
   -3.3031   19.9341   17.3060 C   0  0  0  0  0  0  0  0  0  0  0  0
   -4.1599   19.8148   18.1957 O   0  0  0  0  0  0  0  0  0  0  0  0
   -5.6317   21.2225   15.5545 C   0  0  0  0  0  0  0  0  0  0  0  0
   -7.1033   20.9956   16.0794 C   0  0  0  0  0  0  0  0  0  0  0  0
   -7.9687   22.0498   15.3432 C   0  0  0  0  0  0  0  0  0  0  0  0
   -7.5993   19.6131   15.6505 C   0  0  0  0  0  0  0  0  0  0  0  0
   -7.1818   21.2710   17.6161 C   0  0  0  0  0  0  0  0  0  0  0  0
   -9.5552   20.5556   18.3977 C   0  0  0  0  0  0  0  0  0  0  0  0
   -8.0403   20.4135   18.6093 C   0  0  0  0  0  0  0  0  0  0  0  0
   -7.6526   18.9220   18.5934 C   0  0  0  0  0  0  0  0  0  0  0  0
   -7.7266   20.9297   20.0357 C   0  0  0  0  0  0  0  0  0  0  0  0
   -0.8041   19.2895   17.1064 N   0  0  0  0  0  0  0  0  0  0  0  0
   -0.7785   19.8916   16.2834 H   0  0  0  0  0  0  0  0  0  0  0  0
    0.0027   20.1030   18.3092 S   0  0  0  0  0  0  0  0  0  0  0  0
   -0.7342   21.3057   18.6141 O   0  0  0  0  0  0  0  0  0  0  0  0
    0.3172   19.1139   19.3173 O   0  0  0  0  0  0  0  0  0  0  0  0
    1.5172   20.5320   17.4871 C   0  0  0  0  0  0  0  0  0  0  0  0
    1.6840   20.1876   16.1458 C   0  0  0  0  0  0  0  0  0  0  0  0
    2.8497   20.5753   15.4805 C   0  0  0  0  0  0  0  0  0  0  0  0
    3.8531   21.3021   16.1465 C   0  0  0  0  0  0  0  0  0  0  0  0
    5.0217   21.7151   15.4825 C   0  0  0  0  0  0  0  0  0  0  0  0
    6.0058   22.4400   16.1537 C   0  0  0  0  0  0  0  0  0  0  0  0
    5.8377   22.7596   17.4967 C   0  0  0  0  0  0  0  0  0  0  0  0
    4.6850   22.3560   18.1724 C   0  0  0  0  0  0  0  0  0  0  0  0
    3.6831   21.6278   17.5128 C   0  0  0  0  0  0  0  0  0  0  0  0
    2.5139   21.2294   18.1786 C   0  0  0  0  0  0  0  0  0  0  0  0
   -2.3522   17.8613   18.4286 C   0  0  0  0  0  0  0  0  0  0  0  0
   -1.8452   16.4669   18.1425 C   0  0  0  0  0  0  0  0  0  0  0  0
   -1.0662   15.7882   19.0868 C   0  0  0  0  0  0  0  0  0  0  0  0
   -0.6529   14.4812   18.8449 C   0  0  0  0  0  0  0  0  0  0  0  0
   -1.0071   13.8441   17.6548 C   0  0  0  0  0  0  0  0  0  0  0  0
   -1.7611   14.5120   16.6778 C   0  0  0  0  0  0  0  0  0  0  0  0
   -2.1714   15.8284   16.9325 C   0  0  0  0  0  0  0  0  0  0  0  0
   -2.1310   13.8026   15.4100 C   0  0  0  0  0  0  0  0  0  0  0  0
   -2.9381   14.2808   14.5134 N   0  0  0  0  0  0  0  0  0  0  0  0
   -1.6195   12.5703   15.1129 N   0  0  0  0  0  0  0  0  0  0  0  0
   -3.3532   15.1637   14.6455 H   0  0  0  0  0  0  0  0  0  0  0  0
   -0.9980   12.1316   15.7378 H   0  0  0  0  0  0  0  0  0  0  0  0
   -1.8726   12.1214   14.2741 H   0  0  0  0  0  0  0  0  0  0  0  0
 15 16  1  0
 16 17  1  0
 16 18  1  0
 16 14  1  0
 14 11  1  0
 11 12  1  0
 11 13  1  0
 11 10  1  0
  2 10  1  0
  2  3  1  0
  3  4  1  0
  4  5  1  0
  5  6  1  0
  6  7  1  0
  7  8  1  0
  8  9  2  0
  8  1  1  0
  1 34  1  0
 34 35  1  0
 35 36  2  0
 36 37  1  0
 37 38  2  0
 38 39  1  0
 39 41  1  0
 41 42  2  0
 41 43  1  0
 39 40  2  0
  1 19  1  0
 19 21  1  0
 21 22  2  0
 21 23  2  0
 21 24  1  0
 24 25  2  0
 25 26  1  0
 26 27  2  0
 27 28  1  0
 28 29  2  0
 29 30  1  0
 30 31  2  0
 31 32  1  0
 32 33  2  0
  7  2  1  0
 40 35  1  0
 33 24  1  0
 32 27  1  0
 42 44  1  0
 43 45  1  0
 43 46  1  0
 19 20  1  0
M  END
> <minimizedAffinity>
-8.75953

> <CNNscore>
0.8011292815

> <CNNaffinity>
7.6724586487

> <CNN_VS>
6.1466312408

> <CNNaffinity_variance>
0.1584220380

$$$$
