


 54 59  0  0  0  0  0  0  0  0999 V2000
   13.7900   23.4397    5.4726 C   0  0  0  0  0  0  0  0  0  0  0  0
   13.4605   25.4957    4.2748 C   0  0  0  0  0  0  0  0  0  0  0  0
   14.3375   24.7181    5.0793 O   0  0  0  0  0  0  0  0  0  0  0  0
   14.8497   22.5300    6.1634 C   0  0  0  0  0  0  0  0  0  0  0  0
   14.7008   21.0964    5.5996 C   0  0  0  0  0  0  0  0  0  0  0  0
   13.6457   20.4702    5.5794 O   0  0  0  0  0  0  0  0  0  0  0  0
   15.8660   20.5672    5.0872 N   0  0  0  0  0  0  0  0  0  0  0  0
   16.6718   21.1310    5.0420 H   0  0  0  0  0  0  0  0  0  0  0  0
   15.9304   19.2015    4.6145 C   0  0  0  0  0  0  0  0  0  0  0  0
   15.8602   19.1299    3.1150 C   0  0  0  0  0  0  0  0  0  0  0  0
   14.9888   19.7979    2.2640 C   0  0  0  0  0  0  0  0  0  0  0  0
   15.0768   19.5440    0.8940 C   0  0  0  0  0  0  0  0  0  0  0  0
   16.0129   18.6246    0.3966 C   0  0  0  0  0  0  0  0  0  0  0  0
   16.8734   17.9436    1.2627 C   0  0  0  0  0  0  0  0  0  0  0  0
   16.7897   18.2105    2.6182 C   0  0  0  0  0  0  0  0  0  0  0  0
   17.5753   17.5770    3.7278 C   0  0  0  0  0  0  0  0  0  0  0  0
   17.3151   18.5421    4.9089 C   0  0  0  0  0  0  0  0  0  0  0  0
   18.3417   19.5681    4.9480 O   0  0  0  0  0  0  0  0  0  0  0  0
   18.7860   19.8432    6.2717 C   0  0  0  0  0  0  0  0  0  0  0  0
   14.7795   22.4913    7.5872 O   0  0  0  0  0  0  0  0  0  0  0  0
   15.9708   22.9123    8.2406 C   0  0  0  0  0  0  0  0  0  0  0  0
   16.5380   21.7408    9.0043 C   0  0  0  0  0  0  0  0  0  0  0  0
   17.9211   21.6149    9.2015 C   0  0  0  0  0  0  0  0  0  0  0  0
   18.4370   20.5336    9.9178 C   0  0  0  0  0  0  0  0  0  0  0  0
   17.5756   19.5668   10.4344 C   0  0  0  0  0  0  0  0  0  0  0  0
   16.2005   19.6710   10.2283 C   0  0  0  0  0  0  0  0  0  0  0  0
   15.6845   20.7528    9.5159 C   0  0  0  0  0  0  0  0  0  0  0  0
   12.5139   23.6643    6.3389 C   0  0  0  0  0  0  0  0  0  0  0  0
   12.8246   24.5010    7.4670 O   0  0  0  0  0  0  0  0  0  0  0  0
   12.6249   25.8854    7.2024 C   0  0  0  0  0  0  0  0  0  0  0  0
   11.4092   24.3536    5.5039 C   0  0  0  0  0  0  0  0  0  0  0  0
   10.1306   24.4829    6.3497 C   0  0  0  0  0  0  0  0  0  0  0  0
    9.6788   23.5732    7.0394 O   0  0  0  0  0  0  0  0  0  0  0  0
    9.5479   25.7262    6.2639 N   0  0  0  0  0  0  0  0  0  0  0  0
    9.9070   26.3605    5.6021 H   0  0  0  0  0  0  0  0  0  0  0  0
    8.4403   26.1576    7.0865 C   0  0  0  0  0  0  0  0  0  0  0  0
    8.8689   26.8755    8.3412 C   0  0  0  0  0  0  0  0  0  0  0  0
    9.8251   26.4913    9.2710 C   0  0  0  0  0  0  0  0  0  0  0  0
   10.0229   27.2895   10.3979 C   0  0  0  0  0  0  0  0  0  0  0  0
    9.2619   28.4513   10.5938 C   0  0  0  0  0  0  0  0  0  0  0  0
    8.2858   28.8231    9.6677 C   0  0  0  0  0  0  0  0  0  0  0  0
    8.0997   28.0258    8.5486 C   0  0  0  0  0  0  0  0  0  0  0  0
    7.0717   28.1935    7.4698 C   0  0  0  0  0  0  0  0  0  0  0  0
    7.6122   27.2664    6.3622 C   0  0  0  0  0  0  0  0  0  0  0  0
    8.4820   28.0030    5.4650 O   0  0  0  0  0  0  0  0  0  0  0  0
    8.2596   27.6880    4.0959 C   0  0  0  0  0  0  0  0  0  0  0  0
   11.0743   23.5380    4.3584 O   0  0  0  0  0  0  0  0  0  0  0  0
   11.0784   24.2751    3.1332 C   0  0  0  0  0  0  0  0  0  0  0  0
    9.6608   24.4266    2.6509 C   0  0  0  0  0  0  0  0  0  0  0  0
    9.3225   25.4606    1.7657 C   0  0  0  0  0  0  0  0  0  0  0  0
    8.0063   25.6091    1.3203 C   0  0  0  0  0  0  0  0  0  0  0  0
    7.0130   24.7321    1.7585 C   0  0  0  0  0  0  0  0  0  0  0  0
    7.3370   23.7108    2.6490 C   0  0  0  0  0  0  0  0  0  0  0  0
    8.6521   23.5609    3.0998 C   0  0  0  0  0  0  0  0  0  0  0  0
  2  3  1  0
  1  3  1  0
  1 28  1  0
 28 29  1  0
 29 30  1  0
 28 31  1  0
 31 47  1  0
 47 48  1  0
 48 49  1  0
 49 50  2  0
 50 51  1  0
 51 52  2  0
 52 53  1  0
 53 54  2  0
 31 32  1  0
 32 33  2  0
 32 34  1  0
 36 34  1  0
 36 37  1  0
 37 38  2  0
 38 39  1  0
 39 40  2  0
 40 41  1  0
 41 42  2  0
 42 43  1  0
 43 44  1  0
 44 45  1  0
 45 46  1  0
  1  4  1  0
  4 20  1  0
 20 21  1  0
 21 22  1  0
 22 23  2  0
 23 24  1  0
 24 25  2  0
 25 26  1  0
 26 27  2  0
  4  5  1  0
  5  6  2  0
  5  7  1  0
  9  7  1  0
  9 10  1  0
 10 11  2  0
 11 12  1  0
 12 13  2  0
 13 14  1  0
 14 15  2  0
 15 16  1  0
 16 17  1  0
 17 18  1  0
 18 19  1  0
 54 49  1  0
 44 36  1  0
 27 22  1  0
 17  9  1  0
 42 37  1  0
 15 10  1  0
 34 35  1  0
  7  8  1  0
M  END
> <minimizedAffinity>
-9.42771

> <CNNscore>
0.8727953434

> <CNNaffinity>
9.8182840347

> <CNN_VS>
8.5693521500

> <CNNaffinity_variance>
0.0476164930

$$$$



 54 59  0  0  0  0  0  0  0  0999 V2000
   11.9554   23.5090    5.0484 C   0  0  0  0  0  0  0  0  0  0  0  0
   11.7285   21.6212    6.5164 C   0  0  0  0  0  0  0  0  0  0  0  0
   11.8771   23.0310    6.4101 O   0  0  0  0  0  0  0  0  0  0  0  0
   10.7137   24.3611    4.6487 C   0  0  0  0  0  0  0  0  0  0  0  0
    9.8047   24.5083    5.8925 C   0  0  0  0  0  0  0  0  0  0  0  0
    9.6221   23.6218    6.7212 O   0  0  0  0  0  0  0  0  0  0  0  0
    9.2161   25.7485    6.0183 N   0  0  0  0  0  0  0  0  0  0  0  0
    9.4541   26.4612    5.3821 H   0  0  0  0  0  0  0  0  0  0  0  0
    8.2564   26.0254    7.0647 C   0  0  0  0  0  0  0  0  0  0  0  0
    8.8807   26.7816    8.2036 C   0  0  0  0  0  0  0  0  0  0  0  0
   10.0906   26.5316    8.8385 C   0  0  0  0  0  0  0  0  0  0  0  0
   10.4550   27.3452    9.9130 C   0  0  0  0  0  0  0  0  0  0  0  0
    9.6091   28.3775   10.3462 C   0  0  0  0  0  0  0  0  0  0  0  0
    8.3849   28.6099    9.7124 C   0  0  0  0  0  0  0  0  0  0  0  0
    8.0366   27.8081    8.6394 C   0  0  0  0  0  0  0  0  0  0  0  0
    6.7681   27.8463    7.8398 C   0  0  0  0  0  0  0  0  0  0  0  0
    7.1392   27.0091    6.5925 C   0  0  0  0  0  0  0  0  0  0  0  0
    7.6638   27.8743    5.5513 O   0  0  0  0  0  0  0  0  0  0  0  0
    8.9239   27.4319    5.0598 C   0  0  0  0  0  0  0  0  0  0  0  0
    9.9506   23.8463    3.5595 O   0  0  0  0  0  0  0  0  0  0  0  0
    9.5372   24.8318    2.6208 C   0  0  0  0  0  0  0  0  0  0  0  0
    8.0557   24.6738    2.3812 C   0  0  0  0  0  0  0  0  0  0  0  0
    7.4061   25.4204    1.3870 C   0  0  0  0  0  0  0  0  0  0  0  0
    6.0373   25.2609    1.1648 C   0  0  0  0  0  0  0  0  0  0  0  0
    5.3070   24.3610    1.9398 C   0  0  0  0  0  0  0  0  0  0  0  0
    5.9379   23.6276    2.9438 C   0  0  0  0  0  0  0  0  0  0  0  0
    7.3059   23.7839    3.1637 C   0  0  0  0  0  0  0  0  0  0  0  0
   13.3074   24.2547    4.8356 C   0  0  0  0  0  0  0  0  0  0  0  0
   13.3995   25.3748    5.7332 O   0  0  0  0  0  0  0  0  0  0  0  0
   12.9194   25.0792    7.0403 C   0  0  0  0  0  0  0  0  0  0  0  0
   14.4967   23.3045    5.1100 C   0  0  0  0  0  0  0  0  0  0  0  0
   14.2047   21.9245    4.4956 C   0  0  0  0  0  0  0  0  0  0  0  0
   13.4829   21.7570    3.5166 O   0  0  0  0  0  0  0  0  0  0  0  0
   14.8427   20.8952    5.1483 N   0  0  0  0  0  0  0  0  0  0  0  0
   15.3093   21.1003    5.9906 H   0  0  0  0  0  0  0  0  0  0  0  0
   14.8696   19.5305    4.6722 C   0  0  0  0  0  0  0  0  0  0  0  0
   15.3184   19.4041    3.2383 C   0  0  0  0  0  0  0  0  0  0  0  0
   14.8816   20.1188    2.1315 C   0  0  0  0  0  0  0  0  0  0  0  0
   15.4002   19.7952    0.8775 C   0  0  0  0  0  0  0  0  0  0  0  0
   16.3360   18.7600    0.7361 C   0  0  0  0  0  0  0  0  0  0  0  0
   16.7566   18.0288    1.8482 C   0  0  0  0  0  0  0  0  0  0  0  0
   16.2389   18.3607    3.0909 C   0  0  0  0  0  0  0  0  0  0  0  0
   16.4936   17.6724    4.3987 C   0  0  0  0  0  0  0  0  0  0  0  0
   15.9693   18.7069    5.4153 C   0  0  0  0  0  0  0  0  0  0  0  0
   17.0370   19.5982    5.8271 O   0  0  0  0  0  0  0  0  0  0  0  0
   18.2615   18.9178    6.0743 C   0  0  0  0  0  0  0  0  0  0  0  0
   14.6526   23.1061    6.5333 O   0  0  0  0  0  0  0  0  0  0  0  0
   16.0031   23.2742    6.9716 C   0  0  0  0  0  0  0  0  0  0  0  0
   16.2888   22.2780    8.0630 C   0  0  0  0  0  0  0  0  0  0  0  0
   17.5976   21.8221    8.2784 C   0  0  0  0  0  0  0  0  0  0  0  0
   17.8666   20.8923    9.2863 C   0  0  0  0  0  0  0  0  0  0  0  0
   16.8322   20.4028   10.0851 C   0  0  0  0  0  0  0  0  0  0  0  0
   15.5268   20.8393    9.8690 C   0  0  0  0  0  0  0  0  0  0  0  0
   15.2529   21.7669    8.8593 C   0  0  0  0  0  0  0  0  0  0  0  0
  2  3  1  0
  1  3  1  0
  1 28  1  0
 28 29  1  0
 29 30  1  0
 28 31  1  0
 31 47  1  0
 47 48  1  0
 48 49  1  0
 49 50  2  0
 50 51  1  0
 51 52  2  0
 52 53  1  0
 53 54  2  0
 31 32  1  0
 32 33  2  0
 32 34  1  0
 36 34  1  0
 36 37  1  0
 37 38  2  0
 38 39  1  0
 39 40  2  0
 40 41  1  0
 41 42  2  0
 42 43  1  0
 43 44  1  0
 44 45  1  0
 45 46  1  0
  1  4  1  0
  4 20  1  0
 20 21  1  0
 21 22  1  0
 22 23  2  0
 23 24  1  0
 24 25  2  0
 25 26  1  0
 26 27  2  0
  4  5  1  0
  5  6  2  0
  5  7  1  0
  9  7  1  0
  9 10  1  0
 10 11  2  0
 11 12  1  0
 12 13  2  0
 13 14  1  0
 14 15  2  0
 15 16  1  0
 16 17  1  0
 17 18  1  0
 18 19  1  0
 54 49  1  0
 44 36  1  0
 27 22  1  0
 17  9  1  0
 42 37  1  0
 15 10  1  0
 34 35  1  0
  7  8  1  0
M  END
> <minimizedAffinity>
-9.46346

> <CNNscore>
0.8223968744

> <CNNaffinity>
9.8802366257

> <CNN_VS>
8.1254758835

> <CNNaffinity_variance>
0.3044509888

$$$$



 54 59  0  0  0  0  0  0  0  0999 V2000
   14.0108   23.2143    6.1683 C   0  0  0  0  0  0  0  0  0  0  0  0
   12.8435   21.1501    5.7848 C   0  0  0  0  0  0  0  0  0  0  0  0
   13.1052   22.2154    6.6890 O   0  0  0  0  0  0  0  0  0  0  0  0
   15.5045   22.8077    6.3451 C   0  0  0  0  0  0  0  0  0  0  0  0
   15.5990   21.2644    6.2781 C   0  0  0  0  0  0  0  0  0  0  0  0
   14.9183   20.5023    6.9576 O   0  0  0  0  0  0  0  0  0  0  0  0
   16.5122   20.7940    5.3589 N   0  0  0  0  0  0  0  0  0  0  0  0
   16.9769   21.4329    4.7714 H   0  0  0  0  0  0  0  0  0  0  0  0
   16.8027   19.3819    5.2388 C   0  0  0  0  0  0  0  0  0  0  0  0
   16.7009   18.9142    3.8141 C   0  0  0  0  0  0  0  0  0  0  0  0
   15.6999   19.1877    2.8908 C   0  0  0  0  0  0  0  0  0  0  0  0
   15.7898   18.6057    1.6249 C   0  0  0  0  0  0  0  0  0  0  0  0
   16.8582   17.7543    1.3046 C   0  0  0  0  0  0  0  0  0  0  0  0
   17.8514   17.4705    2.2466 C   0  0  0  0  0  0  0  0  0  0  0  0
   17.7629   18.0618    3.4949 C   0  0  0  0  0  0  0  0  0  0  0  0
   18.6813   17.8740    4.6658 C   0  0  0  0  0  0  0  0  0  0  0  0
   18.2904   19.0562    5.5845 C   0  0  0  0  0  0  0  0  0  0  0  0
   19.1202   20.2104    5.2895 O   0  0  0  0  0  0  0  0  0  0  0  0
   19.5980   20.8523    6.4663 C   0  0  0  0  0  0  0  0  0  0  0  0
   16.1207   23.2708    7.5449 O   0  0  0  0  0  0  0  0  0  0  0  0
   15.4737   22.8392    8.7359 C   0  0  0  0  0  0  0  0  0  0  0  0
   16.2802   21.7155    9.3391 C   0  0  0  0  0  0  0  0  0  0  0  0
   17.6704   21.6546    9.1617 C   0  0  0  0  0  0  0  0  0  0  0  0
   18.4106   20.6173    9.7317 C   0  0  0  0  0  0  0  0  0  0  0  0
   17.7660   19.6296   10.4751 C   0  0  0  0  0  0  0  0  0  0  0  0
   16.3822   19.6689   10.6420 C   0  0  0  0  0  0  0  0  0  0  0  0
   15.6430   20.7068   10.0760 C   0  0  0  0  0  0  0  0  0  0  0  0
   13.6327   23.5404    4.6918 C   0  0  0  0  0  0  0  0  0  0  0  0
   13.0613   22.3807    4.0613 O   0  0  0  0  0  0  0  0  0  0  0  0
   13.8892   21.8420    3.0363 C   0  0  0  0  0  0  0  0  0  0  0  0
   12.5979   24.6889    4.6408 C   0  0  0  0  0  0  0  0  0  0  0  0
   11.3989   24.3410    5.5400 C   0  0  0  0  0  0  0  0  0  0  0  0
   10.8895   23.2251    5.5893 O   0  0  0  0  0  0  0  0  0  0  0  0
   10.9599   25.4054    6.2931 N   0  0  0  0  0  0  0  0  0  0  0  0
   11.3475   26.2919    6.1108 H   0  0  0  0  0  0  0  0  0  0  0  0
    9.9641   25.3010    7.3357 C   0  0  0  0  0  0  0  0  0  0  0  0
   10.1054   26.3518    8.4077 C   0  0  0  0  0  0  0  0  0  0  0  0
   11.2484   26.7332    9.0964 C   0  0  0  0  0  0  0  0  0  0  0  0
   11.1372   27.6995   10.0964 C   0  0  0  0  0  0  0  0  0  0  0  0
    9.8925   28.2661   10.4081 C   0  0  0  0  0  0  0  0  0  0  0  0
    8.7414   27.8643    9.7284 C   0  0  0  0  0  0  0  0  0  0  0  0
    8.8628   26.9066    8.7331 C   0  0  0  0  0  0  0  0  0  0  0  0
    7.7617   26.2819    7.9292 C   0  0  0  0  0  0  0  0  0  0  0  0
    8.5411   25.6186    6.7754 C   0  0  0  0  0  0  0  0  0  0  0  0
    8.6618   26.5320    5.6550 O   0  0  0  0  0  0  0  0  0  0  0  0
    7.4027   26.9817    5.1694 C   0  0  0  0  0  0  0  0  0  0  0  0
   12.0865   24.8340    3.2966 O   0  0  0  0  0  0  0  0  0  0  0  0
   11.2077   23.7709    2.9203 C   0  0  0  0  0  0  0  0  0  0  0  0
    9.8939   24.3577    2.4790 C   0  0  0  0  0  0  0  0  0  0  0  0
    8.7138   23.6071    2.5850 C   0  0  0  0  0  0  0  0  0  0  0  0
    7.4927   24.1454    2.1704 C   0  0  0  0  0  0  0  0  0  0  0  0
    7.4372   25.4350    1.6398 C   0  0  0  0  0  0  0  0  0  0  0  0
    8.6065   26.1826    1.5174 C   0  0  0  0  0  0  0  0  0  0  0  0
    9.8308   25.6464    1.9278 C   0  0  0  0  0  0  0  0  0  0  0  0
  2  3  1  0
  1  3  1  0
  1 28  1  0
 28 29  1  0
 29 30  1  0
 28 31  1  0
 31 47  1  0
 47 48  1  0
 48 49  1  0
 49 50  2  0
 50 51  1  0
 51 52  2  0
 52 53  1  0
 53 54  2  0
 31 32  1  0
 32 33  2  0
 32 34  1  0
 36 34  1  0
 36 37  1  0
 37 38  2  0
 38 39  1  0
 39 40  2  0
 40 41  1  0
 41 42  2  0
 42 43  1  0
 43 44  1  0
 44 45  1  0
 45 46  1  0
  1  4  1  0
  4 20  1  0
 20 21  1  0
 21 22  1  0
 22 23  2  0
 23 24  1  0
 24 25  2  0
 25 26  1  0
 26 27  2  0
  4  5  1  0
  5  6  2  0
  5  7  1  0
  9  7  1  0
  9 10  1  0
 10 11  2  0
 11 12  1  0
 12 13  2  0
 13 14  1  0
 14 15  2  0
 15 16  1  0
 16 17  1  0
 17 18  1  0
 18 19  1  0
 54 49  1  0
 44 36  1  0
 27 22  1  0
 17  9  1  0
 42 37  1  0
 15 10  1  0
 34 35  1  0
  7  8  1  0
M  END
> <minimizedAffinity>
-9.93718

> <CNNscore>
0.7947440147

> <CNNaffinity>
9.8892068863

> <CNN_VS>
7.8593878746

> <CNNaffinity_variance>
0.1252118200

$$$$



 54 59  0  0  0  0  0  0  0  0999 V2000
   13.5575   23.5267    4.7310 C   0  0  0  0  0  0  0  0  0  0  0  0
   13.8616   21.8326    3.0553 C   0  0  0  0  0  0  0  0  0  0  0  0
   13.0442   22.3280    4.1076 O   0  0  0  0  0  0  0  0  0  0  0  0
   12.5386   24.7042    4.6764 C   0  0  0  0  0  0  0  0  0  0  0  0
   11.3954   24.4041    5.6755 C   0  0  0  0  0  0  0  0  0  0  0  0
   10.8292   23.3194    5.7691 O   0  0  0  0  0  0  0  0  0  0  0  0
   11.0647   25.4654    6.4906 N   0  0  0  0  0  0  0  0  0  0  0  0
   11.5984   26.2915    6.4459 H   0  0  0  0  0  0  0  0  0  0  0  0
    9.9505   25.3917    7.4104 C   0  0  0  0  0  0  0  0  0  0  0  0
   10.0481   26.4384    8.4845 C   0  0  0  0  0  0  0  0  0  0  0  0
   11.1582   26.7895    9.2420 C   0  0  0  0  0  0  0  0  0  0  0  0
   11.0064   27.7703   10.2239 C   0  0  0  0  0  0  0  0  0  0  0  0
    9.7580   28.3712   10.4462 C   0  0  0  0  0  0  0  0  0  0  0  0
    8.6423   27.9983    9.6909 C   0  0  0  0  0  0  0  0  0  0  0  0
    8.8034   27.0351    8.7101 C   0  0  0  0  0  0  0  0  0  0  0  0
    7.7505   26.4542    7.8136 C   0  0  0  0  0  0  0  0  0  0  0  0
    8.5958   25.7538    6.7230 C   0  0  0  0  0  0  0  0  0  0  0  0
    8.8405   26.6669    5.6210 O   0  0  0  0  0  0  0  0  0  0  0  0
    7.6402   27.0690    4.9707 C   0  0  0  0  0  0  0  0  0  0  0  0
   11.9875   24.9694    3.3881 O   0  0  0  0  0  0  0  0  0  0  0  0
   11.2821   23.8729    2.8195 C   0  0  0  0  0  0  0  0  0  0  0  0
    9.8859   24.3289    2.4735 C   0  0  0  0  0  0  0  0  0  0  0  0
    9.6731   25.5416    1.8012 C   0  0  0  0  0  0  0  0  0  0  0  0
    8.3790   25.9513    1.4757 C   0  0  0  0  0  0  0  0  0  0  0  0
    7.2887   25.1566    1.8271 C   0  0  0  0  0  0  0  0  0  0  0  0
    7.4863   23.9586    2.5126 C   0  0  0  0  0  0  0  0  0  0  0  0
    8.7791   23.5472    2.8347 C   0  0  0  0  0  0  0  0  0  0  0  0
   14.0389   23.1964    6.1762 C   0  0  0  0  0  0  0  0  0  0  0  0
   13.2798   22.0973    6.7098 O   0  0  0  0  0  0  0  0  0  0  0  0
   12.8193   21.2012    5.7042 C   0  0  0  0  0  0  0  0  0  0  0  0
   15.5353   22.8048    6.1703 C   0  0  0  0  0  0  0  0  0  0  0  0
   15.6666   21.2748    6.2659 C   0  0  0  0  0  0  0  0  0  0  0  0
   15.0343   20.5884    7.0636 O   0  0  0  0  0  0  0  0  0  0  0  0
   16.5583   20.7501    5.3590 N   0  0  0  0  0  0  0  0  0  0  0  0
   17.1073   21.3769    4.8347 H   0  0  0  0  0  0  0  0  0  0  0  0
   16.7377   19.3343    5.1295 C   0  0  0  0  0  0  0  0  0  0  0  0
   16.6346   18.9442    3.6767 C   0  0  0  0  0  0  0  0  0  0  0  0
   15.6558   19.2942    2.7570 C   0  0  0  0  0  0  0  0  0  0  0  0
   15.7304   18.7695    1.4665 C   0  0  0  0  0  0  0  0  0  0  0  0
   16.7678   17.8959    1.1086 C   0  0  0  0  0  0  0  0  0  0  0  0
   17.7383   17.5288    2.0424 C   0  0  0  0  0  0  0  0  0  0  0  0
   17.6581   18.0589    3.3211 C   0  0  0  0  0  0  0  0  0  0  0  0
   18.5427   17.7526    4.4927 C   0  0  0  0  0  0  0  0  0  0  0  0
   18.2005   18.9006    5.4641 C   0  0  0  0  0  0  0  0  0  0  0  0
   19.0922   20.0250    5.2531 O   0  0  0  0  0  0  0  0  0  0  0  0
   19.4785   20.6602    6.4658 C   0  0  0  0  0  0  0  0  0  0  0  0
   16.1951   23.3563    7.3321 O   0  0  0  0  0  0  0  0  0  0  0  0
   15.5107   23.0586    8.5516 C   0  0  0  0  0  0  0  0  0  0  0  0
   16.2079   21.9129    9.2345 C   0  0  0  0  0  0  0  0  0  0  0  0
   15.4771   21.0066   10.0167 C   0  0  0  0  0  0  0  0  0  0  0  0
   16.1212   19.9450   10.6579 C   0  0  0  0  0  0  0  0  0  0  0  0
   17.5012   19.7806   10.5310 C   0  0  0  0  0  0  0  0  0  0  0  0
   18.2373   20.6843    9.7678 C   0  0  0  0  0  0  0  0  0  0  0  0
   17.5973   21.7499    9.1274 C   0  0  0  0  0  0  0  0  0  0  0  0
  2  3  1  0
  1  3  1  0
  1 28  1  0
 28 29  1  0
 29 30  1  0
 28 31  1  0
 31 47  1  0
 47 48  1  0
 48 49  1  0
 49 50  2  0
 50 51  1  0
 51 52  2  0
 52 53  1  0
 53 54  2  0
 31 32  1  0
 32 33  2  0
 32 34  1  0
 36 34  1  0
 36 37  1  0
 37 38  2  0
 38 39  1  0
 39 40  2  0
 40 41  1  0
 41 42  2  0
 42 43  1  0
 43 44  1  0
 44 45  1  0
 45 46  1  0
  1  4  1  0
  4 20  1  0
 20 21  1  0
 21 22  1  0
 22 23  2  0
 23 24  1  0
 24 25  2  0
 25 26  1  0
 26 27  2  0
  4  5  1  0
  5  6  2  0
  5  7  1  0
  9  7  1  0
  9 10  1  0
 10 11  2  0
 11 12  1  0
 12 13  2  0
 13 14  1  0
 14 15  2  0
 15 16  1  0
 16 17  1  0
 17 18  1  0
 18 19  1  0
 54 49  1  0
 44 36  1  0
 27 22  1  0
 17  9  1  0
 42 37  1  0
 15 10  1  0
 34 35  1  0
  7  8  1  0
M  END
> <minimizedAffinity>
-10.10955

> <CNNscore>
0.7850502133

> <CNNaffinity>
9.7219009399

> <CNN_VS>
7.6321802139

> <CNNaffinity_variance>
0.0161163080

$$$$



 54 59  0  0  0  0  0  0  0  0999 V2000
   13.2274   23.6743    4.6565 C   0  0  0  0  0  0  0  0  0  0  0  0
   15.5337   23.2507    4.1346 C   0  0  0  0  0  0  0  0  0  0  0  0
   14.6020   24.0995    4.7923 O   0  0  0  0  0  0  0  0  0  0  0  0
   13.0859   22.1227    4.6552 C   0  0  0  0  0  0  0  0  0  0  0  0
   13.2298   21.6206    6.1121 C   0  0  0  0  0  0  0  0  0  0  0  0
   12.2918   21.2387    6.8050 O   0  0  0  0  0  0  0  0  0  0  0  0
   14.5261   21.6118    6.5809 N   0  0  0  0  0  0  0  0  0  0  0  0
   15.2613   21.8429    5.9683 H   0  0  0  0  0  0  0  0  0  0  0  0
   14.8296   21.2706    7.9536 C   0  0  0  0  0  0  0  0  0  0  0  0
   16.1703   20.6025    8.0754 C   0  0  0  0  0  0  0  0  0  0  0  0
   16.6942   19.5811    7.2932 C   0  0  0  0  0  0  0  0  0  0  0  0
   17.9558   19.0791    7.6180 C   0  0  0  0  0  0  0  0  0  0  0  0
   18.6651   19.5865    8.7173 C   0  0  0  0  0  0  0  0  0  0  0  0
   18.1218   20.6021    9.5096 C   0  0  0  0  0  0  0  0  0  0  0  0
   16.8766   21.1042    9.1735 C   0  0  0  0  0  0  0  0  0  0  0  0
   16.0866   22.1557    9.8946 C   0  0  0  0  0  0  0  0  0  0  0  0
   15.0131   22.5377    8.8477 C   0  0  0  0  0  0  0  0  0  0  0  0
   15.4852   23.6421    8.0319 O   0  0  0  0  0  0  0  0  0  0  0  0
   16.8145   24.0309    8.3590 C   0  0  0  0  0  0  0  0  0  0  0  0
   14.0112   21.4304    3.8195 O   0  0  0  0  0  0  0  0  0  0  0  0
   14.2316   20.0755    4.1922 C   0  0  0  0  0  0  0  0  0  0  0  0
   15.2170   19.4667    3.2250 C   0  0  0  0  0  0  0  0  0  0  0  0
   15.0055   19.5456    1.8405 C   0  0  0  0  0  0  0  0  0  0  0  0
   15.9270   18.9886    0.9522 C   0  0  0  0  0  0  0  0  0  0  0  0
   17.0612   18.3419    1.4411 C   0  0  0  0  0  0  0  0  0  0  0  0
   17.2724   18.2402    2.8156 C   0  0  0  0  0  0  0  0  0  0  0  0
   16.3540   18.7996    3.7032 C   0  0  0  0  0  0  0  0  0  0  0  0
   12.3572   24.3704    5.7462 C   0  0  0  0  0  0  0  0  0  0  0  0
   13.0681   25.4892    6.3046 O   0  0  0  0  0  0  0  0  0  0  0  0
   12.7769   25.6999    7.6820 C   0  0  0  0  0  0  0  0  0  0  0  0
   11.0336   24.8844    5.1328 C   0  0  0  0  0  0  0  0  0  0  0  0
    9.9018   24.7510    6.1665 C   0  0  0  0  0  0  0  0  0  0  0  0
    9.5889   23.6885    6.6962 O   0  0  0  0  0  0  0  0  0  0  0  0
    9.2804   25.9461    6.4464 N   0  0  0  0  0  0  0  0  0  0  0  0
    9.5135   26.7285    5.8962 H   0  0  0  0  0  0  0  0  0  0  0  0
    8.3060   26.1225    7.4994 C   0  0  0  0  0  0  0  0  0  0  0  0
    8.7813   27.0221    8.6122 C   0  0  0  0  0  0  0  0  0  0  0  0
    9.9873   26.9823    9.2980 C   0  0  0  0  0  0  0  0  0  0  0  0
   10.1963   27.8869   10.3392 C   0  0  0  0  0  0  0  0  0  0  0  0
    9.2024   28.8108   10.6942 C   0  0  0  0  0  0  0  0  0  0  0  0
    7.9821   28.8335   10.0166 C   0  0  0  0  0  0  0  0  0  0  0  0
    7.7855   27.9335    8.9803 C   0  0  0  0  0  0  0  0  0  0  0  0
    6.5404   27.7349    8.1686 C   0  0  0  0  0  0  0  0  0  0  0  0
    7.0615   26.9077    6.9757 C   0  0  0  0  0  0  0  0  0  0  0  0
    7.4695   27.7824    5.8929 O   0  0  0  0  0  0  0  0  0  0  0  0
    7.0830   27.2963    4.6131 C   0  0  0  0  0  0  0  0  0  0  0  0
   10.6646   24.0679    3.9985 O   0  0  0  0  0  0  0  0  0  0  0  0
   10.3555   24.8411    2.8363 C   0  0  0  0  0  0  0  0  0  0  0  0
    8.8929   24.6811    2.5193 C   0  0  0  0  0  0  0  0  0  0  0  0
    8.2687   25.5464    1.6089 C   0  0  0  0  0  0  0  0  0  0  0  0
    6.9095   25.4057    1.3164 C   0  0  0  0  0  0  0  0  0  0  0  0
    6.1577   24.4050    1.9339 C   0  0  0  0  0  0  0  0  0  0  0  0
    6.7662   23.5500    2.8503 C   0  0  0  0  0  0  0  0  0  0  0  0
    8.1251   23.6896    3.1484 C   0  0  0  0  0  0  0  0  0  0  0  0
  2  3  1  0
  1  3  1  0
  1 28  1  0
 28 29  1  0
 29 30  1  0
 28 31  1  0
 31 47  1  0
 47 48  1  0
 48 49  1  0
 49 50  2  0
 50 51  1  0
 51 52  2  0
 52 53  1  0
 53 54  2  0
 31 32  1  0
 32 33  2  0
 32 34  1  0
 36 34  1  0
 36 37  1  0
 37 38  2  0
 38 39  1  0
 39 40  2  0
 40 41  1  0
 41 42  2  0
 42 43  1  0
 43 44  1  0
 44 45  1  0
 45 46  1  0
  1  4  1  0
  4 20  1  0
 20 21  1  0
 21 22  1  0
 22 23  2  0
 23 24  1  0
 24 25  2  0
 25 26  1  0
 26 27  2  0
  4  5  1  0
  5  6  2  0
  5  7  1  0
  9  7  1  0
  9 10  1  0
 10 11  2  0
 11 12  1  0
 12 13  2  0
 13 14  1  0
 14 15  2  0
 15 16  1  0
 16 17  1  0
 17 18  1  0
 18 19  1  0
 54 49  1  0
 44 36  1  0
 27 22  1  0
 17  9  1  0
 42 37  1  0
 15 10  1  0
 34 35  1  0
  7  8  1  0
M  END
> <minimizedAffinity>
-8.13101

> <CNNscore>
0.5981061459

> <CNNaffinity>
8.9503564835

> <CNN_VS>
5.3532633781

> <CNNaffinity_variance>
0.2381523848

$$$$



 54 59  0  0  0  0  0  0  0  0999 V2000
   12.8116   23.8616    5.4893 C   0  0  0  0  0  0  0  0  0  0  0  0
   12.7489   24.7620    3.2631 C   0  0  0  0  0  0  0  0  0  0  0  0
   13.2238   24.9186    4.5938 O   0  0  0  0  0  0  0  0  0  0  0  0
   14.0246   23.1070    6.1111 C   0  0  0  0  0  0  0  0  0  0  0  0
   13.8967   21.6060    5.7563 C   0  0  0  0  0  0  0  0  0  0  0  0
   12.8754   20.9448    5.9165 O   0  0  0  0  0  0  0  0  0  0  0  0
   15.0369   21.0553    5.2115 N   0  0  0  0  0  0  0  0  0  0  0  0
   15.8074   21.6368    5.0181 H   0  0  0  0  0  0  0  0  0  0  0  0
   15.1259   19.6416    4.9178 C   0  0  0  0  0  0  0  0  0  0  0  0
   15.3844   19.3937    3.4582 C   0  0  0  0  0  0  0  0  0  0  0  0
   14.7620   19.9821    2.3647 C   0  0  0  0  0  0  0  0  0  0  0  0
   15.1355   19.5639    1.0861 C   0  0  0  0  0  0  0  0  0  0  0  0
   16.1041   18.5629    0.9166 C   0  0  0  0  0  0  0  0  0  0  0  0
   16.7120   17.9637    2.0238 C   0  0  0  0  0  0  0  0  0  0  0  0
   16.3466   18.3930    3.2878 C   0  0  0  0  0  0  0  0  0  0  0  0
   16.8304   17.8723    4.6086 C   0  0  0  0  0  0  0  0  0  0  0  0
   16.3714   18.9792    5.5877 C   0  0  0  0  0  0  0  0  0  0  0  0
   17.4211   19.9699    5.7451 O   0  0  0  0  0  0  0  0  0  0  0  0
   18.7023   19.3800    5.9343 C   0  0  0  0  0  0  0  0  0  0  0  0
   14.1697   23.2519    7.5224 O   0  0  0  0  0  0  0  0  0  0  0  0
   15.5002   23.5225    7.9462 C   0  0  0  0  0  0  0  0  0  0  0  0
   16.0299   22.3073    8.6674 C   0  0  0  0  0  0  0  0  0  0  0  0
   15.1916   21.5376    9.4874 C   0  0  0  0  0  0  0  0  0  0  0  0
   15.6869   20.4090   10.1429 C   0  0  0  0  0  0  0  0  0  0  0  0
   17.0246   20.0471    9.9904 C   0  0  0  0  0  0  0  0  0  0  0  0
   17.8723   20.8155    9.1934 C   0  0  0  0  0  0  0  0  0  0  0  0
   17.3770   21.9407    8.5355 C   0  0  0  0  0  0  0  0  0  0  0  0
   11.8319   24.4363    6.5566 C   0  0  0  0  0  0  0  0  0  0  0  0
   11.7680   25.8691    6.4468 O   0  0  0  0  0  0  0  0  0  0  0  0
   10.5451   26.3282    5.8812 C   0  0  0  0  0  0  0  0  0  0  0  0
   10.4105   23.8626    6.3489 C   0  0  0  0  0  0  0  0  0  0  0  0
   10.1931   23.5552    4.8571 C   0  0  0  0  0  0  0  0  0  0  0  0
   10.5815   22.5252    4.3133 O   0  0  0  0  0  0  0  0  0  0  0  0
    9.5092   24.5476    4.1937 N   0  0  0  0  0  0  0  0  0  0  0  0
    9.3346   25.3892    4.6738 H   0  0  0  0  0  0  0  0  0  0  0  0
    9.0317   24.4296    2.8345 C   0  0  0  0  0  0  0  0  0  0  0  0
    7.5361   24.2654    2.7361 C   0  0  0  0  0  0  0  0  0  0  0  0
    6.7161   23.3931    3.4384 C   0  0  0  0  0  0  0  0  0  0  0  0
    5.3524   23.3725    3.1450 C   0  0  0  0  0  0  0  0  0  0  0  0
    4.8220   24.2084    2.1514 C   0  0  0  0  0  0  0  0  0  0  0  0
    5.6531   25.0687    1.4318 C   0  0  0  0  0  0  0  0  0  0  0  0
    7.0063   25.0852    1.7337 C   0  0  0  0  0  0  0  0  0  0  0  0
    8.0842   25.8712    1.0487 C   0  0  0  0  0  0  0  0  0  0  0  0
    9.2492   25.7649    2.0537 C   0  0  0  0  0  0  0  0  0  0  0  0
    9.2158   26.8748    2.9870 O   0  0  0  0  0  0  0  0  0  0  0  0
    7.9005   27.1854    3.4307 C   0  0  0  0  0  0  0  0  0  0  0  0
    9.4206   24.8471    6.7234 O   0  0  0  0  0  0  0  0  0  0  0  0
    8.9561   24.6831    8.0656 C   0  0  0  0  0  0  0  0  0  0  0  0
    8.9789   26.0202    8.7561 C   0  0  0  0  0  0  0  0  0  0  0  0
    7.9243   26.9269    8.5748 C   0  0  0  0  0  0  0  0  0  0  0  0
    7.9444   28.1722    9.2086 C   0  0  0  0  0  0  0  0  0  0  0  0
    9.0194   28.5283   10.0242 C   0  0  0  0  0  0  0  0  0  0  0  0
   10.0782   27.6397   10.1986 C   0  0  0  0  0  0  0  0  0  0  0  0
   10.0637   26.3942    9.5634 C   0  0  0  0  0  0  0  0  0  0  0  0
  2  3  1  0
  1  3  1  0
  1 28  1  0
 28 29  1  0
 29 30  1  0
 28 31  1  0
 31 47  1  0
 47 48  1  0
 48 49  1  0
 49 50  2  0
 50 51  1  0
 51 52  2  0
 52 53  1  0
 53 54  2  0
 31 32  1  0
 32 33  2  0
 32 34  1  0
 36 34  1  0
 36 37  1  0
 37 38  2  0
 38 39  1  0
 39 40  2  0
 40 41  1  0
 41 42  2  0
 42 43  1  0
 43 44  1  0
 44 45  1  0
 45 46  1  0
  1  4  1  0
  4 20  1  0
 20 21  1  0
 21 22  1  0
 22 23  2  0
 23 24  1  0
 24 25  2  0
 25 26  1  0
 26 27  2  0
  4  5  1  0
  5  6  2  0
  5  7  1  0
  9  7  1  0
  9 10  1  0
 10 11  2  0
 11 12  1  0
 12 13  2  0
 13 14  1  0
 14 15  2  0
 15 16  1  0
 16 17  1  0
 17 18  1  0
 18 19  1  0
 54 49  1  0
 44 36  1  0
 27 22  1  0
 17  9  1  0
 42 37  1  0
 15 10  1  0
 34 35  1  0
  7  8  1  0
M  END
> <minimizedAffinity>
-8.88846

> <CNNscore>
0.5903712511

> <CNNaffinity>
9.0207967758

> <CNN_VS>
5.3256192207

> <CNNaffinity_variance>
0.0675335899

$$$$



 54 59  0  0  0  0  0  0  0  0999 V2000
   12.2199   22.8513    6.0596 C   0  0  0  0  0  0  0  0  0  0  0  0
   12.0213   22.3993    3.7086 C   0  0  0  0  0  0  0  0  0  0  0  0
   11.4449   22.2478    4.9992 O   0  0  0  0  0  0  0  0  0  0  0  0
   13.7415   22.5429    5.9288 C   0  0  0  0  0  0  0  0  0  0  0  0
   13.9139   21.0154    5.7494 C   0  0  0  0  0  0  0  0  0  0  0  0
   13.1480   20.1764    6.2134 O   0  0  0  0  0  0  0  0  0  0  0  0
   15.0074   20.6557    4.9911 N   0  0  0  0  0  0  0  0  0  0  0  0
   15.5491   21.3580    4.5637 H   0  0  0  0  0  0  0  0  0  0  0  0
   15.3764   19.2687    4.8096 C   0  0  0  0  0  0  0  0  0  0  0  0
   15.7862   18.9849    3.3918 C   0  0  0  0  0  0  0  0  0  0  0  0
   15.1512   19.3774    2.2203 C   0  0  0  0  0  0  0  0  0  0  0  0
   15.6911   18.9594    1.0026 C   0  0  0  0  0  0  0  0  0  0  0  0
   16.8371   18.1503    0.9696 C   0  0  0  0  0  0  0  0  0  0  0  0
   17.4587   17.7453    2.1545 C   0  0  0  0  0  0  0  0  0  0  0  0
   16.9258   18.1747    3.3574 C   0  0  0  0  0  0  0  0  0  0  0  0
   17.3952   17.8365    4.7413 C   0  0  0  0  0  0  0  0  0  0  0  0
   16.6678   18.8951    5.6042 C   0  0  0  0  0  0  0  0  0  0  0  0
   17.5028   20.0735    5.7536 O   0  0  0  0  0  0  0  0  0  0  0  0
   18.8739   19.7475    5.9510 C   0  0  0  0  0  0  0  0  0  0  0  0
   14.5459   22.9880    7.0190 O   0  0  0  0  0  0  0  0  0  0  0  0
   14.4197   22.1991    8.1959 C   0  0  0  0  0  0  0  0  0  0  0  0
   15.7866   21.6866    8.5781 C   0  0  0  0  0  0  0  0  0  0  0  0
   15.9464   20.4003    9.1144 C   0  0  0  0  0  0  0  0  0  0  0  0
   17.2155   19.9299    9.4559 C   0  0  0  0  0  0  0  0  0  0  0  0
   18.3320   20.7443    9.2720 C   0  0  0  0  0  0  0  0  0  0  0  0
   18.1835   22.0318    8.7578 C   0  0  0  0  0  0  0  0  0  0  0  0
   16.9164   22.5007    8.4131 C   0  0  0  0  0  0  0  0  0  0  0  0
   11.9052   24.3761    6.1311 C   0  0  0  0  0  0  0  0  0  0  0  0
   12.2929   25.0178    4.9034 O   0  0  0  0  0  0  0  0  0  0  0  0
   13.6805   25.3317    4.8557 C   0  0  0  0  0  0  0  0  0  0  0  0
   10.3912   24.6051    6.3498 C   0  0  0  0  0  0  0  0  0  0  0  0
    9.7365   25.0191    5.0204 C   0  0  0  0  0  0  0  0  0  0  0  0
   10.3630   25.1787    3.9767 O   0  0  0  0  0  0  0  0  0  0  0  0
    8.3739   25.1832    5.1158 N   0  0  0  0  0  0  0  0  0  0  0  0
    7.9655   25.1484    6.0109 H   0  0  0  0  0  0  0  0  0  0  0  0
    7.5056   25.4036    3.9813 C   0  0  0  0  0  0  0  0  0  0  0  0
    8.1478   26.2119    2.8824 C   0  0  0  0  0  0  0  0  0  0  0  0
    8.8457   27.4071    2.9859 C   0  0  0  0  0  0  0  0  0  0  0  0
    9.3117   28.0143    1.8195 C   0  0  0  0  0  0  0  0  0  0  0  0
    9.0693   27.4344    0.5656 C   0  0  0  0  0  0  0  0  0  0  0  0
    8.3481   26.2436    0.4635 C   0  0  0  0  0  0  0  0  0  0  0  0
    7.8930   25.6455    1.6286 C   0  0  0  0  0  0  0  0  0  0  0  0
    7.0474   24.4130    1.7511 C   0  0  0  0  0  0  0  0  0  0  0  0
    7.2069   24.0595    3.2439 C   0  0  0  0  0  0  0  0  0  0  0  0
    8.3231   23.1526    3.4330 O   0  0  0  0  0  0  0  0  0  0  0  0
    8.7296   22.5163    2.2275 C   0  0  0  0  0  0  0  0  0  0  0  0
   10.1850   25.6949    7.2767 O   0  0  0  0  0  0  0  0  0  0  0  0
    8.8036   26.0189    7.4526 C   0  0  0  0  0  0  0  0  0  0  0  0
    8.6809   27.0606    8.5319 C   0  0  0  0  0  0  0  0  0  0  0  0
    9.7149   27.2386    9.4627 C   0  0  0  0  0  0  0  0  0  0  0  0
    9.6026   28.2000   10.4705 C   0  0  0  0  0  0  0  0  0  0  0  0
    8.4553   28.9890   10.5643 C   0  0  0  0  0  0  0  0  0  0  0  0
    7.4170   28.8094    9.6529 C   0  0  0  0  0  0  0  0  0  0  0  0
    7.5239   27.8460    8.6451 C   0  0  0  0  0  0  0  0  0  0  0  0
  2  3  1  0
  1  3  1  0
  1 28  1  0
 28 29  1  0
 29 30  1  0
 28 31  1  0
 31 47  1  0
 47 48  1  0
 48 49  1  0
 49 50  2  0
 50 51  1  0
 51 52  2  0
 52 53  1  0
 53 54  2  0
 31 32  1  0
 32 33  2  0
 32 34  1  0
 36 34  1  0
 36 37  1  0
 37 38  2  0
 38 39  1  0
 39 40  2  0
 40 41  1  0
 41 42  2  0
 42 43  1  0
 43 44  1  0
 44 45  1  0
 45 46  1  0
  1  4  1  0
  4 20  1  0
 20 21  1  0
 21 22  1  0
 22 23  2  0
 23 24  1  0
 24 25  2  0
 25 26  1  0
 26 27  2  0
  4  5  1  0
  5  6  2  0
  5  7  1  0
  9  7  1  0
  9 10  1  0
 10 11  2  0
 11 12  1  0
 12 13  2  0
 13 14  1  0
 14 15  2  0
 15 16  1  0
 16 17  1  0
 17 18  1  0
 18 19  1  0
 54 49  1  0
 44 36  1  0
 27 22  1  0
 17  9  1  0
 42 37  1  0
 15 10  1  0
 34 35  1  0
  7  8  1  0
M  END
> <minimizedAffinity>
-7.55333

> <CNNscore>
0.5804774761

> <CNNaffinity>
8.9677286148

> <CNN_VS>
5.2055644989

> <CNNaffinity_variance>
0.1529981345

$$$$



 54 59  0  0  0  0  0  0  0  0999 V2000
   12.4017   24.5953    6.2194 C   0  0  0  0  0  0  0  0  0  0  0  0
   12.1223   24.6905    3.8354 C   0  0  0  0  0  0  0  0  0  0  0  0
   12.9050   25.0829    4.9553 O   0  0  0  0  0  0  0  0  0  0  0  0
   10.9228   24.1149    6.1212 C   0  0  0  0  0  0  0  0  0  0  0  0
   10.5842   23.8870    4.6283 C   0  0  0  0  0  0  0  0  0  0  0  0
   11.2634   23.2091    3.8635 O   0  0  0  0  0  0  0  0  0  0  0  0
    9.4207   24.4988    4.2134 N   0  0  0  0  0  0  0  0  0  0  0  0
    8.8577   24.9618    4.8751 H   0  0  0  0  0  0  0  0  0  0  0  0
    9.0091   24.4754    2.8268 C   0  0  0  0  0  0  0  0  0  0  0  0
    7.5232   24.2944    2.6925 C   0  0  0  0  0  0  0  0  0  0  0  0
    6.7053   23.3907    3.3588 C   0  0  0  0  0  0  0  0  0  0  0  0
    5.3458   23.3695    3.0416 C   0  0  0  0  0  0  0  0  0  0  0  0
    4.8274   24.2305    2.0623 C   0  0  0  0  0  0  0  0  0  0  0  0
    5.6617   25.1241    1.3842 C   0  0  0  0  0  0  0  0  0  0  0  0
    7.0058   25.1489    1.7135 C   0  0  0  0  0  0  0  0  0  0  0  0
    8.0858   25.9871    1.0965 C   0  0  0  0  0  0  0  0  0  0  0  0
    9.2359   25.8508    2.1228 C   0  0  0  0  0  0  0  0  0  0  0  0
    9.1546   26.9170    3.1049 O   0  0  0  0  0  0  0  0  0  0  0  0
    7.8837   26.9738    3.7426 C   0  0  0  0  0  0  0  0  0  0  0  0
    9.9603   24.9944    6.6988 O   0  0  0  0  0  0  0  0  0  0  0  0
   10.3016   26.3722    6.6071 C   0  0  0  0  0  0  0  0  0  0  0  0
    9.6408   27.1065    7.7479 C   0  0  0  0  0  0  0  0  0  0  0  0
   10.2582   27.1833    9.0052 C   0  0  0  0  0  0  0  0  0  0  0  0
    9.6450   27.8732   10.0524 C   0  0  0  0  0  0  0  0  0  0  0  0
    8.4074   28.4834    9.8530 C   0  0  0  0  0  0  0  0  0  0  0  0
    7.7751   28.3975    8.6133 C   0  0  0  0  0  0  0  0  0  0  0  0
    8.3889   27.7116    7.5659 C   0  0  0  0  0  0  0  0  0  0  0  0
   13.3664   23.5061    6.7783 C   0  0  0  0  0  0  0  0  0  0  0  0
   12.6153   22.3614    7.2195 O   0  0  0  0  0  0  0  0  0  0  0  0
   11.3279   22.2772    6.6178 C   0  0  0  0  0  0  0  0  0  0  0  0
   14.3594   23.0512    5.6830 C   0  0  0  0  0  0  0  0  0  0  0  0
   14.0891   21.5800    5.3228 C   0  0  0  0  0  0  0  0  0  0  0  0
   12.9783   21.1465    5.0303 O   0  0  0  0  0  0  0  0  0  0  0  0
   15.2211   20.7987    5.3514 N   0  0  0  0  0  0  0  0  0  0  0  0
   16.0488   21.1967    5.7059 H   0  0  0  0  0  0  0  0  0  0  0  0
   15.2687   19.4288    4.8924 C   0  0  0  0  0  0  0  0  0  0  0  0
   15.5037   19.3011    3.4085 C   0  0  0  0  0  0  0  0  0  0  0  0
   14.8573   19.9614    2.3729 C   0  0  0  0  0  0  0  0  0  0  0  0
   15.2016   19.6455    1.0584 C   0  0  0  0  0  0  0  0  0  0  0  0
   16.1737   18.6710    0.7883 C   0  0  0  0  0  0  0  0  0  0  0  0
   16.8061   17.9933    1.8319 C   0  0  0  0  0  0  0  0  0  0  0  0
   16.4603   18.3173    3.1350 C   0  0  0  0  0  0  0  0  0  0  0  0
   16.9556   17.6756    4.3967 C   0  0  0  0  0  0  0  0  0  0  0  0
   16.5214   18.6954    5.4692 C   0  0  0  0  0  0  0  0  0  0  0  0
   17.5758   19.6634    5.7038 O   0  0  0  0  0  0  0  0  0  0  0  0
   18.7788   19.0683    6.1751 C   0  0  0  0  0  0  0  0  0  0  0  0
   15.7134   23.1189    6.1844 O   0  0  0  0  0  0  0  0  0  0  0  0
   15.7758   23.4939    7.5627 C   0  0  0  0  0  0  0  0  0  0  0  0
   16.2716   22.3210    8.3650 C   0  0  0  0  0  0  0  0  0  0  0  0
   15.3813   21.5778    9.1538 C   0  0  0  0  0  0  0  0  0  0  0  0
   15.8382   20.4920    9.9055 C   0  0  0  0  0  0  0  0  0  0  0  0
   17.1887   20.1406    9.8833 C   0  0  0  0  0  0  0  0  0  0  0  0
   18.0828   20.8820    9.1138 C   0  0  0  0  0  0  0  0  0  0  0  0
   17.6303   21.9713    8.3630 C   0  0  0  0  0  0  0  0  0  0  0  0
  2  3  1  0
  1  3  1  0
  1 28  1  0
 28 29  1  0
 29 30  1  0
 28 31  1  0
 31 47  1  0
 47 48  1  0
 48 49  1  0
 49 50  2  0
 50 51  1  0
 51 52  2  0
 52 53  1  0
 53 54  2  0
 31 32  1  0
 32 33  2  0
 32 34  1  0
 36 34  1  0
 36 37  1  0
 37 38  2  0
 38 39  1  0
 39 40  2  0
 40 41  1  0
 41 42  2  0
 42 43  1  0
 43 44  1  0
 44 45  1  0
 45 46  1  0
  1  4  1  0
  4 20  1  0
 20 21  1  0
 21 22  1  0
 22 23  2  0
 23 24  1  0
 24 25  2  0
 25 26  1  0
 26 27  2  0
  4  5  1  0
  5  6  2  0
  5  7  1  0
  9  7  1  0
  9 10  1  0
 10 11  2  0
 11 12  1  0
 12 13  2  0
 13 14  1  0
 14 15  2  0
 15 16  1  0
 16 17  1  0
 17 18  1  0
 18 19  1  0
 54 49  1  0
 44 36  1  0
 27 22  1  0
 17  9  1  0
 42 37  1  0
 15 10  1  0
 34 35  1  0
  7  8  1  0
M  END
> <minimizedAffinity>
-9.13937

> <CNNscore>
0.4992494881

> <CNNaffinity>
9.3507089615

> <CNN_VS>
4.6683368683

> <CNNaffinity_variance>
0.2475743145

$$$$



 54 59  0  0  0  0  0  0  0  0999 V2000
   13.3167   22.1996    5.1424 C   0  0  0  0  0  0  0  0  0  0  0  0
   13.8727   21.6366    2.8742 C   0  0  0  0  0  0  0  0  0  0  0  0
   13.9859   22.5903    3.9224 O   0  0  0  0  0  0  0  0  0  0  0  0
   13.9221   20.9034    5.7597 C   0  0  0  0  0  0  0  0  0  0  0  0
   14.5221   21.2578    7.1415 C   0  0  0  0  0  0  0  0  0  0  0  0
   13.8542   21.5590    8.1259 O   0  0  0  0  0  0  0  0  0  0  0  0
   15.8978   21.1873    7.1947 N   0  0  0  0  0  0  0  0  0  0  0  0
   16.3938   20.8587    6.4104 H   0  0  0  0  0  0  0  0  0  0  0  0
   16.6284   21.5857    8.3780 C   0  0  0  0  0  0  0  0  0  0  0  0
   16.9384   20.4094    9.2606 C   0  0  0  0  0  0  0  0  0  0  0  0
   16.0880   19.3834    9.6527 C   0  0  0  0  0  0  0  0  0  0  0  0
   16.5833   18.4081   10.5203 C   0  0  0  0  0  0  0  0  0  0  0  0
   17.9025   18.4766   10.9935 C   0  0  0  0  0  0  0  0  0  0  0  0
   18.7453   19.5231   10.6075 C   0  0  0  0  0  0  0  0  0  0  0  0
   18.2517   20.4788    9.7365 C   0  0  0  0  0  0  0  0  0  0  0  0
   18.9532   21.7008    9.2226 C   0  0  0  0  0  0  0  0  0  0  0  0
   18.0544   22.1224    8.0357 C   0  0  0  0  0  0  0  0  0  0  0  0
   18.5248   21.5009    6.8107 O   0  0  0  0  0  0  0  0  0  0  0  0
   19.1187   20.2280    7.0396 C   0  0  0  0  0  0  0  0  0  0  0  0
   14.9124   20.2576    4.9621 O   0  0  0  0  0  0  0  0  0  0  0  0
   14.7195   18.8559    4.8164 C   0  0  0  0  0  0  0  0  0  0  0  0
   15.8249   18.3078    3.9476 C   0  0  0  0  0  0  0  0  0  0  0  0
   16.9191   17.6387    4.5157 C   0  0  0  0  0  0  0  0  0  0  0  0
   17.9324   17.1257    3.7041 C   0  0  0  0  0  0  0  0  0  0  0  0
   17.8636   17.2852    2.3208 C   0  0  0  0  0  0  0  0  0  0  0  0
   16.7907   17.9654    1.7461 C   0  0  0  0  0  0  0  0  0  0  0  0
   15.7765   18.4748    2.5561 C   0  0  0  0  0  0  0  0  0  0  0  0
   13.2977   23.4022    6.1337 C   0  0  0  0  0  0  0  0  0  0  0  0
   14.5900   24.0330    6.1686 O   0  0  0  0  0  0  0  0  0  0  0  0
   15.2126   24.0932    4.8899 C   0  0  0  0  0  0  0  0  0  0  0  0
   12.2498   24.4502    5.6908 C   0  0  0  0  0  0  0  0  0  0  0  0
   11.3522   24.8165    6.8854 C   0  0  0  0  0  0  0  0  0  0  0  0
   11.7876   25.1306    7.9896 O   0  0  0  0  0  0  0  0  0  0  0  0
   10.0096   24.7668    6.5894 N   0  0  0  0  0  0  0  0  0  0  0  0
    9.7418   24.3961    5.7175 H   0  0  0  0  0  0  0  0  0  0  0  0
    8.9685   25.2257    7.4810 C   0  0  0  0  0  0  0  0  0  0  0  0
    9.4102   26.3396    8.3961 C   0  0  0  0  0  0  0  0  0  0  0  0
   10.5538   26.4101    9.1794 C   0  0  0  0  0  0  0  0  0  0  0  0
   10.7364   27.5234   10.0001 C   0  0  0  0  0  0  0  0  0  0  0  0
    9.7773   28.5460   10.0419 C   0  0  0  0  0  0  0  0  0  0  0  0
    8.6178   28.4614    9.2693 C   0  0  0  0  0  0  0  0  0  0  0  0
    8.4474   27.3532    8.4535 C   0  0  0  0  0  0  0  0  0  0  0  0
    7.2598   27.0233    7.5993 C   0  0  0  0  0  0  0  0  0  0  0  0
    7.8203   25.9188    6.6803 C   0  0  0  0  0  0  0  0  0  0  0  0
    8.3658   26.4979    5.4674 O   0  0  0  0  0  0  0  0  0  0  0  0
    7.4559   27.3753    4.8151 C   0  0  0  0  0  0  0  0  0  0  0  0
   11.3884   23.8888    4.6748 O   0  0  0  0  0  0  0  0  0  0  0  0
   11.2918   24.7149    3.5119 C   0  0  0  0  0  0  0  0  0  0  0  0
    9.8955   24.6166    2.9588 C   0  0  0  0  0  0  0  0  0  0  0  0
    9.3090   25.7196    2.3211 C   0  0  0  0  0  0  0  0  0  0  0  0
    8.0105   25.6351    1.8119 C   0  0  0  0  0  0  0  0  0  0  0  0
    7.2812   24.4520    1.9395 C   0  0  0  0  0  0  0  0  0  0  0  0
    7.8504   23.3559    2.5842 C   0  0  0  0  0  0  0  0  0  0  0  0
    9.1482   23.4374    3.0982 C   0  0  0  0  0  0  0  0  0  0  0  0
  2  3  1  0
  1  3  1  0
  1 28  1  0
 28 29  1  0
 29 30  1  0
 28 31  1  0
 31 47  1  0
 47 48  1  0
 48 49  1  0
 49 50  2  0
 50 51  1  0
 51 52  2  0
 52 53  1  0
 53 54  2  0
 31 32  1  0
 32 33  2  0
 32 34  1  0
 36 34  1  0
 36 37  1  0
 37 38  2  0
 38 39  1  0
 39 40  2  0
 40 41  1  0
 41 42  2  0
 42 43  1  0
 43 44  1  0
 44 45  1  0
 45 46  1  0
  1  4  1  0
  4 20  1  0
 20 21  1  0
 21 22  1  0
 22 23  2  0
 23 24  1  0
 24 25  2  0
 25 26  1  0
 26 27  2  0
  4  5  1  0
  5  6  2  0
  5  7  1  0
  9  7  1  0
  9 10  1  0
 10 11  2  0
 11 12  1  0
 12 13  2  0
 13 14  1  0
 14 15  2  0
 15 16  1  0
 16 17  1  0
 17 18  1  0
 18 19  1  0
 54 49  1  0
 44 36  1  0
 27 22  1  0
 17  9  1  0
 42 37  1  0
 15 10  1  0
 34 35  1  0
  7  8  1  0
M  END
> <minimizedAffinity>
-8.47255

> <CNNscore>
0.4216189682

> <CNNaffinity>
8.7844247818

> <CNN_VS>
3.7036800385

> <CNNaffinity_variance>
0.0711925626

$$$$
