


 34 37  0  0  0  0  0  0  0  0999 V2000
   39.9183   50.2195   12.0500 C   0  0  0  0  0  0  0  0  0  0  0  0
   39.7113   49.4761   10.9461 C   0  0  0  0  0  0  0  0  0  0  0  0
   38.4420   49.1598   10.5313 N   0  0  0  0  0  0  0  0  0  0  0  0
   37.3022   49.5476   11.1900 C   0  0  0  0  0  0  0  0  0  0  0  0
   36.1760   49.2556   10.7932 O   0  0  0  0  0  0  0  0  0  0  0  0
   37.4936   50.3649   12.4424 C   0  0  0  0  0  0  0  0  0  0  0  0
   38.7505   50.6572   12.8133 C   0  0  0  0  0  0  0  0  0  0  0  0
   38.3431   48.6225    9.7123 H   0  0  0  0  0  0  0  0  0  0  0  0
   42.6357   51.7710   13.8904 C   0  0  0  0  0  0  0  0  0  0  0  0
   43.7567   51.2754   13.3672 N   0  0  0  0  0  0  0  0  0  0  0  0
   43.5997   50.3897   12.3757 C   0  0  0  0  0  0  0  0  0  0  0  0
   45.0702   49.7873   11.7252 Cl  0  0  0  0  0  0  0  0  0  0  0  0
   42.3971   49.9691   11.8763 C   0  0  0  0  0  0  0  0  0  0  0  0
   41.3005   50.5326   12.4804 C   0  0  0  0  0  0  0  0  0  0  0  0
   41.4098   51.4367   13.4745 N   0  0  0  0  0  0  0  0  0  0  0  0
   41.6513   52.5232   15.9278 C   0  0  0  0  0  0  0  0  0  0  0  0
   42.6832   52.6888   14.9288 N   0  0  0  0  0  0  0  0  0  0  0  0
   43.3652   53.3969   14.9815 H   0  0  0  0  0  0  0  0  0  0  0  0
   36.3285   50.7347   13.0845 N   0  0  0  0  0  0  0  0  0  0  0  0
   35.4165   49.9317   13.7375 C   0  0  0  0  0  0  0  0  0  0  0  0
   35.4715   48.7101   13.8251 O   0  0  0  0  0  0  0  0  0  0  0  0
   36.1216   51.6972   13.0751 H   0  0  0  0  0  0  0  0  0  0  0  0
   34.2616   50.6452   14.3548 C   0  0  0  0  0  0  0  0  0  0  0  0
   32.9786   50.6076   13.8071 C   0  0  0  0  0  0  0  0  0  0  0  0
   31.9286   51.2984   14.4305 C   0  0  0  0  0  0  0  0  0  0  0  0
   32.1172   52.0511   15.6023 C   0  0  0  0  0  0  0  0  0  0  0  0
   33.4233   52.0855   16.1175 C   0  0  0  0  0  0  0  0  0  0  0  0
   34.4824   51.4000   15.5069 C   0  0  0  0  0  0  0  0  0  0  0  0
   31.0705   52.7296   16.2108 N   0  0  0  0  0  0  0  0  0  0  0  0
   29.6862   52.5330   15.7663 C   0  0  0  0  0  0  0  0  0  0  0  0
   28.7136   52.7890   16.9152 C   0  0  0  0  0  0  0  0  0  0  0  0
   28.8463   54.2002   17.4816 C   0  0  0  0  0  0  0  0  0  0  0  0
   30.2520   54.7711   17.3157 C   0  0  0  0  0  0  0  0  0  0  0  0
   31.3210   53.6809   17.2992 C   0  0  0  0  0  0  0  0  0  0  0  0
 16 17  1  0
 17  9  1  0
  9 10  2  0
 10 11  1  0
 11 12  1  0
 11 13  2  0
 13 14  1  0
 14  1  1  0
  1  2  2  0
  2  3  1  0
  3  4  1  0
  4  5  2  0
  4  6  1  0
  6 19  1  0
 19 20  1  0
 20 21  2  0
 20 23  1  0
 23 24  2  0
 24 25  1  0
 25 26  2  0
 26 29  1  0
 29 30  1  0
 30 31  1  0
 31 32  1  0
 32 33  1  0
 33 34  1  0
 26 27  1  0
 27 28  2  0
  6  7  2  0
 14 15  2  0
 15  9  1  0
  7  1  1  0
 28 23  1  0
 34 29  1  0
 17 18  1  0
  3  8  1  0
 19 22  1  0
M  END
> <minimizedAffinity>
-9.29779

> <CNNscore>
0.9619961977

> <CNNaffinity>
7.7617187500

> <CNN_VS>
7.4667439461

> <CNNaffinity_variance>
0.0800810456

$$$$



 34 37  0  0  0  0  0  0  0  0999 V2000
   39.3833   51.0318   13.1204 C   0  0  0  0  0  0  0  0  0  0  0  0
   39.4775   50.1508   12.1060 C   0  0  0  0  0  0  0  0  0  0  0  0
   38.3575   49.5803   11.5553 N   0  0  0  0  0  0  0  0  0  0  0  0
   37.0788   49.8357   11.9830 C   0  0  0  0  0  0  0  0  0  0  0  0
   36.0915   49.3153   11.4677 O   0  0  0  0  0  0  0  0  0  0  0  0
   36.9335   50.8021   13.1311 C   0  0  0  0  0  0  0  0  0  0  0  0
   38.0524   51.3424   13.6402 C   0  0  0  0  0  0  0  0  0  0  0  0
   38.4785   48.9501   10.8087 H   0  0  0  0  0  0  0  0  0  0  0  0
   42.9048   51.7864   13.5763 C   0  0  0  0  0  0  0  0  0  0  0  0
   42.9722   52.5591   14.6599 N   0  0  0  0  0  0  0  0  0  0  0  0
   41.8052   52.8438   15.2509 C   0  0  0  0  0  0  0  0  0  0  0  0
   41.9418   53.8319   16.6485 Cl  0  0  0  0  0  0  0  0  0  0  0  0
   40.5792   52.4068   14.8281 C   0  0  0  0  0  0  0  0  0  0  0  0
   40.6112   51.6200   13.7034 C   0  0  0  0  0  0  0  0  0  0  0  0
   41.7630   51.2979   13.0812 N   0  0  0  0  0  0  0  0  0  0  0  0
   43.9564   50.2014   12.1383 C   0  0  0  0  0  0  0  0  0  0  0  0
   44.0532   51.4377   12.8815 N   0  0  0  0  0  0  0  0  0  0  0  0
   44.8693   51.9881   12.8934 H   0  0  0  0  0  0  0  0  0  0  0  0
   35.6356   51.0339   13.5413 N   0  0  0  0  0  0  0  0  0  0  0  0
   35.0570   50.7478   14.7605 C   0  0  0  0  0  0  0  0  0  0  0  0
   35.6078   50.1855   15.7004 O   0  0  0  0  0  0  0  0  0  0  0  0
   35.0462   51.4587   12.8770 H   0  0  0  0  0  0  0  0  0  0  0  0
   33.6270   51.1474   14.9002 C   0  0  0  0  0  0  0  0  0  0  0  0
   33.1174   51.7089   16.0717 C   0  0  0  0  0  0  0  0  0  0  0  0
   31.7628   52.0660   16.1475 C   0  0  0  0  0  0  0  0  0  0  0  0
   30.8742   51.8704   15.0762 C   0  0  0  0  0  0  0  0  0  0  0  0
   31.4130   51.2853   13.9187 C   0  0  0  0  0  0  0  0  0  0  0  0
   32.7641   50.9239   13.8272 C   0  0  0  0  0  0  0  0  0  0  0  0
   29.5362   52.2288   15.1624 N   0  0  0  0  0  0  0  0  0  0  0  0
   29.0104   53.3654   14.3982 C   0  0  0  0  0  0  0  0  0  0  0  0
   27.5256   53.1695   14.1008 C   0  0  0  0  0  0  0  0  0  0  0  0
   26.6966   53.0142   15.3729 C   0  0  0  0  0  0  0  0  0  0  0  0
   27.4955   52.4133   16.5263 C   0  0  0  0  0  0  0  0  0  0  0  0
   28.6151   51.4966   16.0387 C   0  0  0  0  0  0  0  0  0  0  0  0
 16 17  1  0
 17  9  1  0
  9 10  2  0
 10 11  1  0
 11 12  1  0
 11 13  2  0
 13 14  1  0
 14  1  1  0
  1  2  2  0
  2  3  1  0
  3  4  1  0
  4  5  2  0
  4  6  1  0
  6 19  1  0
 19 20  1  0
 20 21  2  0
 20 23  1  0
 23 24  2  0
 24 25  1  0
 25 26  2  0
 26 29  1  0
 29 30  1  0
 30 31  1  0
 31 32  1  0
 32 33  1  0
 33 34  1  0
 26 27  1  0
 27 28  2  0
  6  7  2  0
 14 15  2  0
 15  9  1  0
  7  1  1  0
 28 23  1  0
 34 29  1  0
 17 18  1  0
  3  8  1  0
 19 22  1  0
M  END
> <minimizedAffinity>
-8.56620

> <CNNscore>
0.8936643600

> <CNNaffinity>
7.7173423767

> <CNN_VS>
6.8967137337

> <CNNaffinity_variance>
0.0495155565

$$$$



 34 37  0  0  0  0  0  0  0  0999 V2000
   38.7914   51.2639   13.9183 C   0  0  0  0  0  0  0  0  0  0  0  0
   39.1935   50.5980   12.8187 C   0  0  0  0  0  0  0  0  0  0  0  0
   38.2917   49.9515   12.0112 N   0  0  0  0  0  0  0  0  0  0  0  0
   36.9407   49.9129   12.2495 C   0  0  0  0  0  0  0  0  0  0  0  0
   36.1534   49.3311   11.5061 O   0  0  0  0  0  0  0  0  0  0  0  0
   36.4541   50.6303   13.4830 C   0  0  0  0  0  0  0  0  0  0  0  0
   37.3663   51.2544   14.2453 C   0  0  0  0  0  0  0  0  0  0  0  0
   38.6344   49.4877   11.2133 H   0  0  0  0  0  0  0  0  0  0  0  0
   42.0252   52.2783   15.2191 C   0  0  0  0  0  0  0  0  0  0  0  0
   41.7653   53.0495   16.2744 N   0  0  0  0  0  0  0  0  0  0  0  0
   40.4706   53.2435   16.5544 C   0  0  0  0  0  0  0  0  0  0  0  0
   40.1840   54.2334   17.9279 Cl  0  0  0  0  0  0  0  0  0  0  0  0
   39.4230   52.7177   15.8483 C   0  0  0  0  0  0  0  0  0  0  0  0
   39.7901   51.9401   14.7779 C   0  0  0  0  0  0  0  0  0  0  0  0
   41.0806   51.7077   14.4644 N   0  0  0  0  0  0  0  0  0  0  0  0
   43.4790   51.5454   13.4769 C   0  0  0  0  0  0  0  0  0  0  0  0
   43.3322   52.0195   14.8348 N   0  0  0  0  0  0  0  0  0  0  0  0
   44.0991   52.1482   15.4386 H   0  0  0  0  0  0  0  0  0  0  0  0
   35.0914   50.5685   13.6975 N   0  0  0  0  0  0  0  0  0  0  0  0
   34.3477   51.1938   14.6767 C   0  0  0  0  0  0  0  0  0  0  0  0
   34.7940   51.9011   15.5730 O   0  0  0  0  0  0  0  0  0  0  0  0
   34.5845   50.0045   13.0697 H   0  0  0  0  0  0  0  0  0  0  0  0
   32.8788   50.9413   14.6245 C   0  0  0  0  0  0  0  0  0  0  0  0
   32.3170   49.9541   13.8137 C   0  0  0  0  0  0  0  0  0  0  0  0
   30.9275   49.7604   13.8041 C   0  0  0  0  0  0  0  0  0  0  0  0
   30.0560   50.5396   14.5843 C   0  0  0  0  0  0  0  0  0  0  0  0
   30.6502   51.5375   15.3740 C   0  0  0  0  0  0  0  0  0  0  0  0
   32.0365   51.7427   15.3952 C   0  0  0  0  0  0  0  0  0  0  0  0
   28.6829   50.3380   14.5674 N   0  0  0  0  0  0  0  0  0  0  0  0
   28.0869   49.1602   15.2077 C   0  0  0  0  0  0  0  0  0  0  0  0
   26.6600   49.4615   15.6601 C   0  0  0  0  0  0  0  0  0  0  0  0
   25.7641   49.8899   14.5009 C   0  0  0  0  0  0  0  0  0  0  0  0
   26.5410   50.5709   13.3774 C   0  0  0  0  0  0  0  0  0  0  0  0
   27.7909   51.2840   13.8879 C   0  0  0  0  0  0  0  0  0  0  0  0
 16 17  1  0
 17  9  1  0
  9 10  2  0
 10 11  1  0
 11 12  1  0
 11 13  2  0
 13 14  1  0
 14  1  1  0
  1  2  2  0
  2  3  1  0
  3  4  1  0
  4  5  2  0
  4  6  1  0
  6 19  1  0
 19 20  1  0
 20 21  2  0
 20 23  1  0
 23 24  2  0
 24 25  1  0
 25 26  2  0
 26 29  1  0
 29 30  1  0
 30 31  1  0
 31 32  1  0
 32 33  1  0
 33 34  1  0
 26 27  1  0
 27 28  2  0
  6  7  2  0
 14 15  2  0
 15  9  1  0
  7  1  1  0
 28 23  1  0
 34 29  1  0
 17 18  1  0
  3  8  1  0
 19 22  1  0
M  END
> <minimizedAffinity>
-8.51170

> <CNNscore>
0.7424002290

> <CNNaffinity>
7.3514094353

> <CNN_VS>
5.4576878548

> <CNNaffinity_variance>
0.1576157808

$$$$



 34 37  0  0  0  0  0  0  0  0999 V2000
   38.9437   50.6689   13.7121 C   0  0  0  0  0  0  0  0  0  0  0  0
   38.6461   50.2348   12.4723 C   0  0  0  0  0  0  0  0  0  0  0  0
   37.3438   50.1109   12.0574 N   0  0  0  0  0  0  0  0  0  0  0  0
   36.2582   50.3954   12.8472 C   0  0  0  0  0  0  0  0  0  0  0  0
   35.1009   50.2816   12.4485 O   0  0  0  0  0  0  0  0  0  0  0  0
   36.5507   50.8653   14.2496 C   0  0  0  0  0  0  0  0  0  0  0  0
   37.8374   50.9776   14.6168 C   0  0  0  0  0  0  0  0  0  0  0  0
   37.1785   49.7993   11.1383 H   0  0  0  0  0  0  0  0  0  0  0  0
   41.8286   50.8731   15.9063 C   0  0  0  0  0  0  0  0  0  0  0  0
   42.8828   51.0237   15.1052 N   0  0  0  0  0  0  0  0  0  0  0  0
   42.6230   51.0489   13.7922 C   0  0  0  0  0  0  0  0  0  0  0  0
   44.0091   51.2559   12.8000 Cl  0  0  0  0  0  0  0  0  0  0  0  0
   41.3802   50.9328   13.2312 C   0  0  0  0  0  0  0  0  0  0  0  0
   40.3587   50.7787   14.1356 C   0  0  0  0  0  0  0  0  0  0  0  0
   40.5711   50.7586   15.4668 N   0  0  0  0  0  0  0  0  0  0  0  0
   41.0193   51.6002   18.0281 C   0  0  0  0  0  0  0  0  0  0  0  0
   41.9855   50.8245   17.2832 N   0  0  0  0  0  0  0  0  0  0  0  0
   42.6981   50.3032   17.7188 H   0  0  0  0  0  0  0  0  0  0  0  0
   35.4379   51.1381   15.0203 N   0  0  0  0  0  0  0  0  0  0  0  0
   35.1450   50.6925   16.2925 C   0  0  0  0  0  0  0  0  0  0  0  0
   35.8295   49.9225   16.9570 O   0  0  0  0  0  0  0  0  0  0  0  0
   34.7658   51.7276   14.6080 H   0  0  0  0  0  0  0  0  0  0  0  0
   33.8615   51.1903   16.8658 C   0  0  0  0  0  0  0  0  0  0  0  0
   33.0918   52.1712   16.2389 C   0  0  0  0  0  0  0  0  0  0  0  0
   31.8919   52.6024   16.8241 C   0  0  0  0  0  0  0  0  0  0  0  0
   31.4248   52.0864   18.0451 C   0  0  0  0  0  0  0  0  0  0  0  0
   32.2316   51.1156   18.6608 C   0  0  0  0  0  0  0  0  0  0  0  0
   33.4323   50.6738   18.0884 C   0  0  0  0  0  0  0  0  0  0  0  0
   30.2353   52.5200   18.6140 N   0  0  0  0  0  0  0  0  0  0  0  0
   29.3314   51.5760   19.2805 C   0  0  0  0  0  0  0  0  0  0  0  0
   28.5161   52.2860   20.3587 C   0  0  0  0  0  0  0  0  0  0  0  0
   27.6869   53.4360   19.7933 C   0  0  0  0  0  0  0  0  0  0  0  0
   28.3150   54.0583   18.5493 C   0  0  0  0  0  0  0  0  0  0  0  0
   29.8366   53.9300   18.5436 C   0  0  0  0  0  0  0  0  0  0  0  0
 16 17  1  0
 17  9  1  0
  9 10  2  0
 10 11  1  0
 11 12  1  0
 11 13  2  0
 13 14  1  0
 14  1  1  0
  1  2  2  0
  2  3  1  0
  3  4  1  0
  4  5  2  0
  4  6  1  0
  6 19  1  0
 19 20  1  0
 20 21  2  0
 20 23  1  0
 23 24  2  0
 24 25  1  0
 25 26  2  0
 26 29  1  0
 29 30  1  0
 30 31  1  0
 31 32  1  0
 32 33  1  0
 33 34  1  0
 26 27  1  0
 27 28  2  0
  6  7  2  0
 14 15  2  0
 15  9  1  0
  7  1  1  0
 28 23  1  0
 34 29  1  0
 17 18  1  0
  3  8  1  0
 19 22  1  0
M  END
> <minimizedAffinity>
-8.25248

> <CNNscore>
0.5061421990

> <CNNaffinity>
7.5518169403

> <CNN_VS>
3.8222932816

> <CNNaffinity_variance>
0.2323707789

$$$$



 34 37  0  0  0  0  0  0  0  0999 V2000
   38.8954   50.6528   13.8364 C   0  0  0  0  0  0  0  0  0  0  0  0
   38.5502   50.5885   12.5361 C   0  0  0  0  0  0  0  0  0  0  0  0
   37.2374   50.4651   12.1557 N   0  0  0  0  0  0  0  0  0  0  0  0
   36.1889   50.3843   13.0375 C   0  0  0  0  0  0  0  0  0  0  0  0
   35.0206   50.2803   12.6697 O   0  0  0  0  0  0  0  0  0  0  0  0
   36.5373   50.4325   14.5036 C   0  0  0  0  0  0  0  0  0  0  0  0
   37.8322   50.5578   14.8357 C   0  0  0  0  0  0  0  0  0  0  0  0
   37.0357   50.4327   11.1926 H   0  0  0  0  0  0  0  0  0  0  0  0
   41.8406   50.9286   15.9406 C   0  0  0  0  0  0  0  0  0  0  0  0
   42.8730   51.0411   15.1055 N   0  0  0  0  0  0  0  0  0  0  0  0
   42.5771   51.0153   13.8002 C   0  0  0  0  0  0  0  0  0  0  0  0
   43.9361   51.1748   12.7629 Cl  0  0  0  0  0  0  0  0  0  0  0  0
   41.3188   50.8838   13.2787 C   0  0  0  0  0  0  0  0  0  0  0  0
   40.3220   50.7716   14.2162 C   0  0  0  0  0  0  0  0  0  0  0  0
   40.5710   50.8035   15.5408 N   0  0  0  0  0  0  0  0  0  0  0  0
   40.8905   51.3665   18.0834 C   0  0  0  0  0  0  0  0  0  0  0  0
   42.0353   50.9341   17.3136 N   0  0  0  0  0  0  0  0  0  0  0  0
   42.8855   50.6651   17.7309 H   0  0  0  0  0  0  0  0  0  0  0  0
   35.4615   50.3436   15.3647 N   0  0  0  0  0  0  0  0  0  0  0  0
   34.7951   51.3625   16.0133 C   0  0  0  0  0  0  0  0  0  0  0  0
   35.0822   52.5532   15.9612 O   0  0  0  0  0  0  0  0  0  0  0  0
   35.1264   49.4344   15.5385 H   0  0  0  0  0  0  0  0  0  0  0  0
   33.6475   50.9366   16.8651 C   0  0  0  0  0  0  0  0  0  0  0  0
   33.8061   50.5503   18.1967 C   0  0  0  0  0  0  0  0  0  0  0  0
   32.6903   50.1585   18.9516 C   0  0  0  0  0  0  0  0  0  0  0  0
   31.3929   50.1276   18.4123 C   0  0  0  0  0  0  0  0  0  0  0  0
   31.2692   50.5029   17.0645 C   0  0  0  0  0  0  0  0  0  0  0  0
   32.3739   50.8976   16.2975 C   0  0  0  0  0  0  0  0  0  0  0  0
   30.2963   49.7393   19.1692 N   0  0  0  0  0  0  0  0  0  0  0  0
   29.9227   50.4716   20.3843 C   0  0  0  0  0  0  0  0  0  0  0  0
   28.4237   50.3452   20.6459 C   0  0  0  0  0  0  0  0  0  0  0  0
   27.9842   48.8916   20.8003 C   0  0  0  0  0  0  0  0  0  0  0  0
   28.8722   47.9228   20.0241 C   0  0  0  0  0  0  0  0  0  0  0  0
   29.4945   48.5709   18.7895 C   0  0  0  0  0  0  0  0  0  0  0  0
 16 17  1  0
 17  9  1  0
  9 10  2  0
 10 11  1  0
 11 12  1  0
 11 13  2  0
 13 14  1  0
 14  1  1  0
  1  2  2  0
  2  3  1  0
  3  4  1  0
  4  5  2  0
  4  6  1  0
  6 19  1  0
 19 20  1  0
 20 21  2  0
 20 23  1  0
 23 24  2  0
 24 25  1  0
 25 26  2  0
 26 29  1  0
 29 30  1  0
 30 31  1  0
 31 32  1  0
 32 33  1  0
 33 34  1  0
 26 27  1  0
 27 28  2  0
  6  7  2  0
 14 15  2  0
 15  9  1  0
  7  1  1  0
 28 23  1  0
 34 29  1  0
 17 18  1  0
  3  8  1  0
 19 22  1  0
M  END
> <minimizedAffinity>
-8.24861

> <CNNscore>
0.4262597561

> <CNNaffinity>
7.4905695915

> <CNN_VS>
3.1929283142

> <CNNaffinity_variance>
0.2801487148

$$$$



 34 37  0  0  0  0  0  0  0  0999 V2000
   39.1934   51.4047   13.9183 C   0  0  0  0  0  0  0  0  0  0  0  0
   39.1230   50.7188   12.7614 C   0  0  0  0  0  0  0  0  0  0  0  0
   37.9262   50.2366   12.2940 N   0  0  0  0  0  0  0  0  0  0  0  0
   36.7300   50.3917   12.9486 C   0  0  0  0  0  0  0  0  0  0  0  0
   35.6703   49.9547   12.5045 O   0  0  0  0  0  0  0  0  0  0  0  0
   36.7712   51.1373   14.2584 C   0  0  0  0  0  0  0  0  0  0  0  0
   37.9602   51.5970   14.6801 C   0  0  0  0  0  0  0  0  0  0  0  0
   37.9256   49.7505   11.4379 H   0  0  0  0  0  0  0  0  0  0  0  0
   42.7818   51.9308   14.0782 C   0  0  0  0  0  0  0  0  0  0  0  0
   42.9916   52.6664   15.1694 N   0  0  0  0  0  0  0  0  0  0  0  0
   41.9007   53.0043   15.8678 C   0  0  0  0  0  0  0  0  0  0  0  0
   42.2202   53.9416   17.2705 Cl  0  0  0  0  0  0  0  0  0  0  0  0
   40.6175   52.6549   15.5452 C   0  0  0  0  0  0  0  0  0  0  0  0
   40.5019   51.9003   14.4039 C   0  0  0  0  0  0  0  0  0  0  0  0
   41.5728   51.5270   13.6748 N   0  0  0  0  0  0  0  0  0  0  0  0
   43.5199   50.4940   12.3241 C   0  0  0  0  0  0  0  0  0  0  0  0
   43.8411   51.5331   13.2766 N   0  0  0  0  0  0  0  0  0  0  0  0
   44.7404   51.9271   13.3502 H   0  0  0  0  0  0  0  0  0  0  0  0
   35.5532   51.2718   14.8947 N   0  0  0  0  0  0  0  0  0  0  0  0
   35.1462   50.7241   16.0935 C   0  0  0  0  0  0  0  0  0  0  0  0
   35.8079   49.9695   16.7975 O   0  0  0  0  0  0  0  0  0  0  0  0
   34.8883   51.8317   14.4324 H   0  0  0  0  0  0  0  0  0  0  0  0
   33.7641   51.0817   16.5246 C   0  0  0  0  0  0  0  0  0  0  0  0
   32.9366   51.9152   15.7709 C   0  0  0  0  0  0  0  0  0  0  0  0
   31.6444   52.2185   16.2252 C   0  0  0  0  0  0  0  0  0  0  0  0
   31.1382   51.7174   17.4368 C   0  0  0  0  0  0  0  0  0  0  0  0
   32.0021   50.8979   18.1817 C   0  0  0  0  0  0  0  0  0  0  0  0
   33.2952   50.5850   17.7408 C   0  0  0  0  0  0  0  0  0  0  0  0
   29.8575   52.0234   17.8756 N   0  0  0  0  0  0  0  0  0  0  0  0
   29.0842   51.0628   18.6703 C   0  0  0  0  0  0  0  0  0  0  0  0
   28.0910   51.7913   19.5726 C   0  0  0  0  0  0  0  0  0  0  0  0
   27.1184   52.6598   18.7792 C   0  0  0  0  0  0  0  0  0  0  0  0
   27.7132   53.1601   17.4657 C   0  0  0  0  0  0  0  0  0  0  0  0
   29.2315   53.3061   17.5365 C   0  0  0  0  0  0  0  0  0  0  0  0
 16 17  1  0
 17  9  1  0
  9 10  2  0
 10 11  1  0
 11 12  1  0
 11 13  2  0
 13 14  1  0
 14  1  1  0
  1  2  2  0
  2  3  1  0
  3  4  1  0
  4  5  2  0
  4  6  1  0
  6 19  1  0
 19 20  1  0
 20 21  2  0
 20 23  1  0
 23 24  2  0
 24 25  1  0
 25 26  2  0
 26 29  1  0
 29 30  1  0
 30 31  1  0
 31 32  1  0
 32 33  1  0
 33 34  1  0
 26 27  1  0
 27 28  2  0
  6  7  2  0
 14 15  2  0
 15  9  1  0
  7  1  1  0
 28 23  1  0
 34 29  1  0
 17 18  1  0
  3  8  1  0
 19 22  1  0
M  END
> <minimizedAffinity>
-8.02800

> <CNNscore>
0.2985033691

> <CNNaffinity>
7.2513432503

> <CNN_VS>
2.1645503044

> <CNNaffinity_variance>
0.2148169130

$$$$



 34 37  0  0  0  0  0  0  0  0999 V2000
   37.9102   51.0038   13.5923 C   0  0  0  0  0  0  0  0  0  0  0  0
   37.4480   50.1624   12.6476 C   0  0  0  0  0  0  0  0  0  0  0  0
   36.1191   49.8257   12.5859 N   0  0  0  0  0  0  0  0  0  0  0  0
   35.1702   50.2894   13.4622 C   0  0  0  0  0  0  0  0  0  0  0  0
   33.9841   49.9766   13.3807 O   0  0  0  0  0  0  0  0  0  0  0  0
   35.6526   51.2185   14.5471 C   0  0  0  0  0  0  0  0  0  0  0  0
   36.9591   51.5274   14.5717 C   0  0  0  0  0  0  0  0  0  0  0  0
   35.8291   49.2150   11.8702 H   0  0  0  0  0  0  0  0  0  0  0  0
   41.4502   50.9072   12.7940 C   0  0  0  0  0  0  0  0  0  0  0  0
   42.0322   51.7726   13.6237 N   0  0  0  0  0  0  0  0  0  0  0  0
   41.2163   52.4140   14.4692 C   0  0  0  0  0  0  0  0  0  0  0  0
   42.0109   53.5096   15.5259 Cl  0  0  0  0  0  0  0  0  0  0  0  0
   39.8598   52.2462   14.5371 C   0  0  0  0  0  0  0  0  0  0  0  0
   39.3524   51.3372   13.6420 C   0  0  0  0  0  0  0  0  0  0  0  0
   40.1365   50.6595   12.7796 N   0  0  0  0  0  0  0  0  0  0  0  0
   43.6262   50.2086   12.1137 C   0  0  0  0  0  0  0  0  0  0  0  0
   42.2011   50.1955   11.8707 N   0  0  0  0  0  0  0  0  0  0  0  0
   41.7961   49.7192   11.1102 H   0  0  0  0  0  0  0  0  0  0  0  0
   34.6753   51.6631   15.4153 N   0  0  0  0  0  0  0  0  0  0  0  0
   34.3917   51.2167   16.6893 C   0  0  0  0  0  0  0  0  0  0  0  0
   34.9546   50.2931   17.2666 O   0  0  0  0  0  0  0  0  0  0  0  0
   34.1066   52.3941   15.0815 H   0  0  0  0  0  0  0  0  0  0  0  0
   33.2782   51.9257   17.3833 C   0  0  0  0  0  0  0  0  0  0  0  0
   32.2123   52.5034   16.6922 C   0  0  0  0  0  0  0  0  0  0  0  0
   31.1915   53.1588   17.3970 C   0  0  0  0  0  0  0  0  0  0  0  0
   31.1994   53.2705   18.7980 C   0  0  0  0  0  0  0  0  0  0  0  0
   32.2953   52.6964   19.4627 C   0  0  0  0  0  0  0  0  0  0  0  0
   33.3223   52.0376   18.7730 C   0  0  0  0  0  0  0  0  0  0  0  0
   30.1833   53.9204   19.4845 N   0  0  0  0  0  0  0  0  0  0  0  0
   29.4748   55.0559   18.8834 C   0  0  0  0  0  0  0  0  0  0  0  0
   28.0576   55.1591   19.4423 C   0  0  0  0  0  0  0  0  0  0  0  0
   28.0451   55.3267   20.9594 C   0  0  0  0  0  0  0  0  0  0  0  0
   29.2600   54.6928   21.6315 C   0  0  0  0  0  0  0  0  0  0  0  0
   29.8054   53.5062   20.8402 C   0  0  0  0  0  0  0  0  0  0  0  0
 16 17  1  0
 17  9  1  0
  9 10  2  0
 10 11  1  0
 11 12  1  0
 11 13  2  0
 13 14  1  0
 14  1  1  0
  1  2  2  0
  2  3  1  0
  3  4  1  0
  4  5  2  0
  4  6  1  0
  6 19  1  0
 19 20  1  0
 20 21  2  0
 20 23  1  0
 23 24  2  0
 24 25  1  0
 25 26  2  0
 26 29  1  0
 29 30  1  0
 30 31  1  0
 31 32  1  0
 32 33  1  0
 33 34  1  0
 26 27  1  0
 27 28  2  0
  6  7  2  0
 14 15  2  0
 15  9  1  0
  7  1  1  0
 28 23  1  0
 34 29  1  0
 17 18  1  0
  3  8  1  0
 19 22  1  0
M  END
> <minimizedAffinity>
-7.66823

> <CNNscore>
0.2728945017

> <CNNaffinity>
7.0909423828

> <CNN_VS>
1.9350792170

> <CNNaffinity_variance>
0.2498603314

$$$$



 34 37  0  0  0  0  0  0  0  0999 V2000
   37.3473   50.8333   13.7417 C   0  0  0  0  0  0  0  0  0  0  0  0
   36.8237   50.3309   12.6071 C   0  0  0  0  0  0  0  0  0  0  0  0
   35.4900   50.0199   12.5179 N   0  0  0  0  0  0  0  0  0  0  0  0
   34.5972   50.1739   13.5488 C   0  0  0  0  0  0  0  0  0  0  0  0
   33.4054   49.8930   13.4403 O   0  0  0  0  0  0  0  0  0  0  0  0
   35.1500   50.7152   14.8427 C   0  0  0  0  0  0  0  0  0  0  0  0
   36.4588   51.0114   14.8893 C   0  0  0  0  0  0  0  0  0  0  0  0
   35.1536   49.6651   11.6634 H   0  0  0  0  0  0  0  0  0  0  0  0
   40.4525   52.3106   14.9053 C   0  0  0  0  0  0  0  0  0  0  0  0
   41.3950   51.8790   14.0679 N   0  0  0  0  0  0  0  0  0  0  0  0
   40.9820   51.0628   13.0903 C   0  0  0  0  0  0  0  0  0  0  0  0
   42.2277   50.5415   12.0297 Cl  0  0  0  0  0  0  0  0  0  0  0  0
   39.6910   50.6518   12.8981 C   0  0  0  0  0  0  0  0  0  0  0  0
   38.7933   51.1460   13.8119 C   0  0  0  0  0  0  0  0  0  0  0  0
   39.1611   51.9792   14.8060 N   0  0  0  0  0  0  0  0  0  0  0  0
   42.1467   53.6011   15.9777 C   0  0  0  0  0  0  0  0  0  0  0  0
   40.7723   53.1530   15.9594 N   0  0  0  0  0  0  0  0  0  0  0  0
   40.1157   53.4243   16.6409 H   0  0  0  0  0  0  0  0  0  0  0  0
   34.2282   50.8534   15.8615 N   0  0  0  0  0  0  0  0  0  0  0  0
   34.4258   50.7253   17.2207 C   0  0  0  0  0  0  0  0  0  0  0  0
   35.4803   50.4185   17.7654 O   0  0  0  0  0  0  0  0  0  0  0  0
   33.3101   51.0719   15.5812 H   0  0  0  0  0  0  0  0  0  0  0  0
   33.2213   50.9610   18.0679 C   0  0  0  0  0  0  0  0  0  0  0  0
   32.3056   49.9508   18.3653 C   0  0  0  0  0  0  0  0  0  0  0  0
   31.1891   50.2295   19.1679 C   0  0  0  0  0  0  0  0  0  0  0  0
   30.9409   51.5108   19.6893 C   0  0  0  0  0  0  0  0  0  0  0  0
   31.8699   52.5100   19.3557 C   0  0  0  0  0  0  0  0  0  0  0  0
   32.9905   52.2472   18.5560 C   0  0  0  0  0  0  0  0  0  0  0  0
   29.8335   51.7744   20.4832 N   0  0  0  0  0  0  0  0  0  0  0  0
   29.3525   50.7873   21.4563 C   0  0  0  0  0  0  0  0  0  0  0  0
   28.6414   51.4812   22.6157 C   0  0  0  0  0  0  0  0  0  0  0  0
   27.4551   52.3200   22.1477 C   0  0  0  0  0  0  0  0  0  0  0  0
   27.6290   52.8424   20.7241 C   0  0  0  0  0  0  0  0  0  0  0  0
   29.0978   53.0371   20.3547 C   0  0  0  0  0  0  0  0  0  0  0  0
 16 17  1  0
 17  9  1  0
  9 10  2  0
 10 11  1  0
 11 12  1  0
 11 13  2  0
 13 14  1  0
 14  1  1  0
  1  2  2  0
  2  3  1  0
  3  4  1  0
  4  5  2  0
  4  6  1  0
  6 19  1  0
 19 20  1  0
 20 21  2  0
 20 23  1  0
 23 24  2  0
 24 25  1  0
 25 26  2  0
 26 29  1  0
 29 30  1  0
 30 31  1  0
 31 32  1  0
 32 33  1  0
 33 34  1  0
 26 27  1  0
 27 28  2  0
  6  7  2  0
 14 15  2  0
 15  9  1  0
  7  1  1  0
 28 23  1  0
 34 29  1  0
 17 18  1  0
  3  8  1  0
 19 22  1  0
M  END
> <minimizedAffinity>
-7.69916

> <CNNscore>
0.2593828738

> <CNNaffinity>
7.0027899742

> <CNN_VS>
1.8164037466

> <CNNaffinity_variance>
0.1901223212

$$$$



 34 37  0  0  0  0  0  0  0  0999 V2000
   37.9126   52.3690   15.6531 C   0  0  0  0  0  0  0  0  0  0  0  0
   36.7158   52.5172   16.2528 C   0  0  0  0  0  0  0  0  0  0  0  0
   36.5978   53.1844   17.4462 N   0  0  0  0  0  0  0  0  0  0  0  0
   37.6570   53.7330   18.1248 C   0  0  0  0  0  0  0  0  0  0  0  0
   37.5228   54.3314   19.1902 O   0  0  0  0  0  0  0  0  0  0  0  0
   39.0170   53.5700   17.4949 C   0  0  0  0  0  0  0  0  0  0  0  0
   39.0909   52.9148   16.3252 C   0  0  0  0  0  0  0  0  0  0  0  0
   35.6996   53.2750   17.8390 H   0  0  0  0  0  0  0  0  0  0  0  0
   36.9101   50.3391   12.8154 C   0  0  0  0  0  0  0  0  0  0  0  0
   38.0067   50.1868   12.0737 N   0  0  0  0  0  0  0  0  0  0  0  0
   39.1122   50.7878   12.5308 C   0  0  0  0  0  0  0  0  0  0  0  0
   40.5019   50.5550   11.5496 Cl  0  0  0  0  0  0  0  0  0  0  0  0
   39.1903   51.5293   13.6783 C   0  0  0  0  0  0  0  0  0  0  0  0
   38.0101   51.6315   14.3724 C   0  0  0  0  0  0  0  0  0  0  0  0
   36.8749   51.0346   13.9566 N   0  0  0  0  0  0  0  0  0  0  0  0
   34.6262   49.9403   13.3727 C   0  0  0  0  0  0  0  0  0  0  0  0
   35.7077   49.7663   12.4292 N   0  0  0  0  0  0  0  0  0  0  0  0
   35.5992   49.2798   11.5802 H   0  0  0  0  0  0  0  0  0  0  0  0
   40.0621   54.1280   18.2043 N   0  0  0  0  0  0  0  0  0  0  0  0
   40.4284   55.4550   18.2913 C   0  0  0  0  0  0  0  0  0  0  0  0
   39.8918   56.3863   17.7014 O   0  0  0  0  0  0  0  0  0  0  0  0
   40.6184   53.4961   18.7147 H   0  0  0  0  0  0  0  0  0  0  0  0
   41.6014   55.7396   19.1670 C   0  0  0  0  0  0  0  0  0  0  0  0
   42.4597   56.8168   18.9426 C   0  0  0  0  0  0  0  0  0  0  0  0
   43.5488   57.0369   19.7992 C   0  0  0  0  0  0  0  0  0  0  0  0
   43.8260   56.1970   20.8914 C   0  0  0  0  0  0  0  0  0  0  0  0
   42.9557   55.1106   21.0787 C   0  0  0  0  0  0  0  0  0  0  0  0
   41.8630   54.8779   20.2324 C   0  0  0  0  0  0  0  0  0  0  0  0
   44.9059   56.4253   21.7328 N   0  0  0  0  0  0  0  0  0  0  0  0
   44.9655   57.6271   22.5722 C   0  0  0  0  0  0  0  0  0  0  0  0
   45.7948   57.3631   23.8268 C   0  0  0  0  0  0  0  0  0  0  0  0
   47.2207   56.9297   23.4968 C   0  0  0  0  0  0  0  0  0  0  0  0
   47.3216   56.2115   22.1538 C   0  0  0  0  0  0  0  0  0  0  0  0
   46.0298   55.4840   21.7884 C   0  0  0  0  0  0  0  0  0  0  0  0
 16 17  1  0
 17  9  1  0
  9 10  2  0
 10 11  1  0
 11 12  1  0
 11 13  2  0
 13 14  1  0
 14  1  1  0
  1  2  2  0
  2  3  1  0
  3  4  1  0
  4  5  2  0
  4  6  1  0
  6 19  1  0
 19 20  1  0
 20 21  2  0
 20 23  1  0
 23 24  2  0
 24 25  1  0
 25 26  2  0
 26 29  1  0
 29 30  1  0
 30 31  1  0
 31 32  1  0
 32 33  1  0
 33 34  1  0
 26 27  1  0
 27 28  2  0
  6  7  2  0
 14 15  2  0
 15  9  1  0
  7  1  1  0
 28 23  1  0
 34 29  1  0
 17 18  1  0
  3  8  1  0
 19 22  1  0
M  END
> <minimizedAffinity>
-8.52630

> <CNNscore>
0.2473052740

> <CNNaffinity>
6.6502594948

> <CNN_VS>
1.6446442604

> <CNNaffinity_variance>
0.0364114009

$$$$
