


 33 35  0  0  0  0  0  0  0  0999 V2000
   30.8076   -4.7795   17.7654 C   0  0  0  0  0  0  0  0  0  0  0  0
   31.6366   -3.9540   18.1387 O   0  0  0  0  0  0  0  0  0  0  0  0
   29.5980   -4.9606   18.4085 N   0  0  0  0  0  0  0  0  0  0  0  0
   29.0092   -5.7233   18.2062 H   0  0  0  0  0  0  0  0  0  0  0  0
   31.6103   -7.1759   14.2103 C   0  0  0  0  0  0  0  0  0  0  0  0
   30.4911   -7.4219   15.0402 C   0  0  0  0  0  0  0  0  0  0  0  0
   30.2162   -6.6622   16.1895 C   0  0  0  0  0  0  0  0  0  0  0  0
   31.0513   -5.6071   16.5545 C   0  0  0  0  0  0  0  0  0  0  0  0
   32.1631   -5.3238   15.7684 C   0  0  0  0  0  0  0  0  0  0  0  0
   32.4198   -6.0864   14.6128 C   0  0  0  0  0  0  0  0  0  0  0  0
   31.7817   -7.2840   11.6229 C   0  0  0  0  0  0  0  0  0  0  0  0
   31.8386   -8.0619   12.9577 C   0  0  0  0  0  0  0  0  0  0  0  0
   33.2319   -8.7538   12.9591 C   0  0  0  0  0  0  0  0  0  0  0  0
   30.7826   -9.1850   12.9385 C   0  0  0  0  0  0  0  0  0  0  0  0
   33.5674   -5.6377   13.8507 N   0  0  0  0  0  0  0  0  0  0  0  0
   34.6620   -6.1408   14.1327 O   0  0  0  0  0  0  0  0  0  0  0  0
   33.3556   -4.8152   12.9493 O   0  0  0  0  0  0  0  0  0  0  0  0
   29.2548   -3.9835   19.3767 N   0  0  0  0  0  0  0  0  0  0  0  0
   28.5675   -4.4581   20.4892 C   0  0  0  0  0  0  0  0  0  0  0  0
   28.4420   -5.6612   20.6918 O   0  0  0  0  0  0  0  0  0  0  0  0
   28.1283   -3.4182   21.2789 N   0  0  0  0  0  0  0  0  0  0  0  0
   29.4873   -3.0330   19.2690 H   0  0  0  0  0  0  0  0  0  0  0  0
   28.4206   -2.5177   21.0088 H   0  0  0  0  0  0  0  0  0  0  0  0
   27.3066   -3.4854   22.4331 C   0  0  0  0  0  0  0  0  0  0  0  0
   25.9971   -2.9848   22.4096 C   0  0  0  0  0  0  0  0  0  0  0  0
   25.1928   -3.0276   23.5454 C   0  0  0  0  0  0  0  0  0  0  0  0
   25.6852   -3.5718   24.7243 C   0  0  0  0  0  0  0  0  0  0  0  0
   26.9894   -4.0770   24.7904 C   0  0  0  0  0  0  0  0  0  0  0  0
   27.4553   -4.6180   26.0008 C   0  0  0  0  0  0  0  0  0  0  0  0
   28.7447   -5.1354   26.1108 C   0  0  0  0  0  0  0  0  0  0  0  0
   29.5878   -5.1087   25.0111 C   0  0  0  0  0  0  0  0  0  0  0  0
   29.1396   -4.5737   23.7987 C   0  0  0  0  0  0  0  0  0  0  0  0
   27.8309   -4.0401   23.6452 C   0  0  0  0  0  0  0  0  0  0  0  0
 11 12  1  0
 12 13  1  0
 12 14  1  0
 12  5  1  0
  5  6  2  0
  6  7  1  0
  7  8  2  0
  8  1  1  0
  1  2  2  0
  1  3  1  0
  3 18  1  0
 18 19  1  0
 19 20  2  0
 19 21  1  0
 21 24  1  0
 24 25  2  0
 25 26  1  0
 26 27  2  0
 27 28  1  0
 28 29  2  0
 29 30  1  0
 30 31  2  0
 31 32  1  0
 32 33  2  0
  8  9  1  0
  9 10  2  0
 10 15  1  0
 15 16  2  0
 15 17  1  0
 10  5  1  0
 33 24  1  0
 33 28  1  0
  3  4  1  0
 18 22  1  0
 21 23  1  0
M  CHG 1  15   1
M  CHG 1  17  -1
M  END
> <minimizedAffinity>
-6.34086

> <CNNscore>
0.7163347006

> <CNNaffinity>
6.4486689568

> <CNN_VS>
4.6194052696

> <CNNaffinity_variance>
0.3571401536

$$$$



 33 35  0  0  0  0  0  0  0  0999 V2000
   31.0573   -7.3133   24.0666 C   0  0  0  0  0  0  0  0  0  0  0  0
   31.5306   -7.9637   23.1388 O   0  0  0  0  0  0  0  0  0  0  0  0
   31.5752   -7.3604   25.3469 N   0  0  0  0  0  0  0  0  0  0  0  0
   31.1026   -6.9658   26.1151 H   0  0  0  0  0  0  0  0  0  0  0  0
   27.6809   -4.6103   23.5015 C   0  0  0  0  0  0  0  0  0  0  0  0
   28.6440   -4.8250   22.4875 C   0  0  0  0  0  0  0  0  0  0  0  0
   29.7386   -5.6904   22.6506 C   0  0  0  0  0  0  0  0  0  0  0  0
   29.9115   -6.3927   23.8426 C   0  0  0  0  0  0  0  0  0  0  0  0
   28.9890   -6.2177   24.8686 C   0  0  0  0  0  0  0  0  0  0  0  0
   27.8904   -5.3558   24.6866 C   0  0  0  0  0  0  0  0  0  0  0  0
   26.5151   -3.0072   21.8262 C   0  0  0  0  0  0  0  0  0  0  0  0
   26.5010   -3.6386   23.2373 C   0  0  0  0  0  0  0  0  0  0  0  0
   25.1145   -4.3348   23.3509 C   0  0  0  0  0  0  0  0  0  0  0  0
   26.5264   -2.5190   24.2969 C   0  0  0  0  0  0  0  0  0  0  0  0
   26.9721   -5.3232   25.8068 N   0  0  0  0  0  0  0  0  0  0  0  0
   26.0794   -6.1797   25.8280 O   0  0  0  0  0  0  0  0  0  0  0  0
   27.1775   -4.4653   26.6760 O   0  0  0  0  0  0  0  0  0  0  0  0
   32.8270   -8.0105   25.4890 N   0  0  0  0  0  0  0  0  0  0  0  0
   33.8476   -7.2338   26.0278 C   0  0  0  0  0  0  0  0  0  0  0  0
   33.6171   -6.1312   26.5132 O   0  0  0  0  0  0  0  0  0  0  0  0
   35.0561   -7.8920   25.9623 N   0  0  0  0  0  0  0  0  0  0  0  0
   32.9648   -8.9486   25.2241 H   0  0  0  0  0  0  0  0  0  0  0  0
   35.0251   -8.8202   25.6356 H   0  0  0  0  0  0  0  0  0  0  0  0
   36.3396   -7.3967   26.3078 C   0  0  0  0  0  0  0  0  0  0  0  0
   37.2194   -6.9366   25.3177 C   0  0  0  0  0  0  0  0  0  0  0  0
   38.4890   -6.4698   25.6479 C   0  0  0  0  0  0  0  0  0  0  0  0
   38.9001   -6.4557   26.9742 C   0  0  0  0  0  0  0  0  0  0  0  0
   38.0533   -6.9119   27.9917 C   0  0  0  0  0  0  0  0  0  0  0  0
   38.5035   -6.8854   29.3227 C   0  0  0  0  0  0  0  0  0  0  0  0
   37.6930   -7.3260   30.3673 C   0  0  0  0  0  0  0  0  0  0  0  0
   36.4233   -7.8081   30.0904 C   0  0  0  0  0  0  0  0  0  0  0  0
   35.9598   -7.8411   28.7710 C   0  0  0  0  0  0  0  0  0  0  0  0
   36.7543   -7.3974   27.6788 C   0  0  0  0  0  0  0  0  0  0  0  0
 11 12  1  0
 12 13  1  0
 12 14  1  0
 12  5  1  0
  5  6  2  0
  6  7  1  0
  7  8  2  0
  8  1  1  0
  1  2  2  0
  1  3  1  0
  3 18  1  0
 18 19  1  0
 19 20  2  0
 19 21  1  0
 21 24  1  0
 24 25  2  0
 25 26  1  0
 26 27  2  0
 27 28  1  0
 28 29  2  0
 29 30  1  0
 30 31  2  0
 31 32  1  0
 32 33  2  0
  8  9  1  0
  9 10  2  0
 10 15  1  0
 15 16  2  0
 15 17  1  0
 10  5  1  0
 33 24  1  0
 33 28  1  0
  3  4  1  0
 18 22  1  0
 21 23  1  0
M  CHG 1  15   1
M  CHG 1  17  -1
M  END
> <minimizedAffinity>
-6.19678

> <CNNscore>
0.6522238851

> <CNNaffinity>
5.7441124916

> <CNN_VS>
3.7464473248

> <CNNaffinity_variance>
0.2803077698

$$$$



 33 35  0  0  0  0  0  0  0  0999 V2000
   31.1335   -7.3237   23.9628 C   0  0  0  0  0  0  0  0  0  0  0  0
   31.5299   -8.0399   23.0475 O   0  0  0  0  0  0  0  0  0  0  0  0
   31.7519   -7.2865   25.1980 N   0  0  0  0  0  0  0  0  0  0  0  0
   31.3430   -6.8364   25.9723 H   0  0  0  0  0  0  0  0  0  0  0  0
   27.7240   -4.6460   23.4824 C   0  0  0  0  0  0  0  0  0  0  0  0
   28.6537   -4.8665   22.4390 C   0  0  0  0  0  0  0  0  0  0  0  0
   29.7583   -5.7239   22.5745 C   0  0  0  0  0  0  0  0  0  0  0  0
   29.9753   -6.4121   23.7675 C   0  0  0  0  0  0  0  0  0  0  0  0
   29.0868   -6.2309   24.8220 C   0  0  0  0  0  0  0  0  0  0  0  0
   27.9776   -5.3772   24.6678 C   0  0  0  0  0  0  0  0  0  0  0  0
   26.5206   -3.0296   21.8469 C   0  0  0  0  0  0  0  0  0  0  0  0
   26.5300   -3.6839   23.2475 C   0  0  0  0  0  0  0  0  0  0  0  0
   25.1530   -4.3979   23.3655 C   0  0  0  0  0  0  0  0  0  0  0  0
   26.5548   -2.5815   24.3250 C   0  0  0  0  0  0  0  0  0  0  0  0
   27.0972   -5.3374   25.8179 N   0  0  0  0  0  0  0  0  0  0  0  0
   26.1584   -6.1431   25.8363 O   0  0  0  0  0  0  0  0  0  0  0  0
   27.3775   -4.5269   26.7113 O   0  0  0  0  0  0  0  0  0  0  0  0
   33.0097   -7.9347   25.2847 N   0  0  0  0  0  0  0  0  0  0  0  0
   34.0058   -7.2236   25.9462 C   0  0  0  0  0  0  0  0  0  0  0  0
   33.7476   -6.1974   26.5663 O   0  0  0  0  0  0  0  0  0  0  0  0
   35.2253   -7.8531   25.8249 N   0  0  0  0  0  0  0  0  0  0  0  0
   33.1677   -8.8281   24.9024 H   0  0  0  0  0  0  0  0  0  0  0  0
   35.2158   -8.7305   25.3785 H   0  0  0  0  0  0  0  0  0  0  0  0
   36.4928   -7.3924   26.2644 C   0  0  0  0  0  0  0  0  0  0  0  0
   36.9278   -7.6359   27.5749 C   0  0  0  0  0  0  0  0  0  0  0  0
   38.1615   -7.1675   28.0193 C   0  0  0  0  0  0  0  0  0  0  0  0
   38.9807   -6.4470   27.1601 C   0  0  0  0  0  0  0  0  0  0  0  0
   38.5802   -6.1780   25.8456 C   0  0  0  0  0  0  0  0  0  0  0  0
   39.4338   -5.4437   25.0048 C   0  0  0  0  0  0  0  0  0  0  0  0
   39.0775   -5.1562   23.6885 C   0  0  0  0  0  0  0  0  0  0  0  0
   37.8560   -5.5929   23.2003 C   0  0  0  0  0  0  0  0  0  0  0  0
   36.9946   -6.3251   24.0243 C   0  0  0  0  0  0  0  0  0  0  0  0
   37.3232   -6.6419   25.3706 C   0  0  0  0  0  0  0  0  0  0  0  0
 11 12  1  0
 12 13  1  0
 12 14  1  0
 12  5  1  0
  5  6  2  0
  6  7  1  0
  7  8  2  0
  8  1  1  0
  1  2  2  0
  1  3  1  0
  3 18  1  0
 18 19  1  0
 19 20  2  0
 19 21  1  0
 21 24  1  0
 24 25  2  0
 25 26  1  0
 26 27  2  0
 27 28  1  0
 28 29  2  0
 29 30  1  0
 30 31  2  0
 31 32  1  0
 32 33  2  0
  8  9  1  0
  9 10  2  0
 10 15  1  0
 15 16  2  0
 15 17  1  0
 10  5  1  0
 33 24  1  0
 33 28  1  0
  3  4  1  0
 18 22  1  0
 21 23  1  0
M  CHG 1  15   1
M  CHG 1  17  -1
M  END
> <minimizedAffinity>
-6.46546

> <CNNscore>
0.6252369285

> <CNNaffinity>
5.9112906456

> <CNN_VS>
3.6959571838

> <CNNaffinity_variance>
0.4237215519

$$$$



 33 35  0  0  0  0  0  0  0  0999 V2000
   33.6229   -6.4407   27.1605 C   0  0  0  0  0  0  0  0  0  0  0  0
   33.5573   -5.3934   27.7983 O   0  0  0  0  0  0  0  0  0  0  0  0
   32.5826   -6.8981   26.3744 N   0  0  0  0  0  0  0  0  0  0  0  0
   32.5768   -7.8062   25.9943 H   0  0  0  0  0  0  0  0  0  0  0  0
   37.2891   -8.8017   27.2644 C   0  0  0  0  0  0  0  0  0  0  0  0
   36.2136   -9.1290   26.4054 C   0  0  0  0  0  0  0  0  0  0  0  0
   35.0248   -8.3820   26.3580 C   0  0  0  0  0  0  0  0  0  0  0  0
   34.8645   -7.2586   27.1681 C   0  0  0  0  0  0  0  0  0  0  0  0
   35.8954   -6.8941   28.0277 C   0  0  0  0  0  0  0  0  0  0  0  0
   37.0859   -7.6457   28.0560 C   0  0  0  0  0  0  0  0  0  0  0  0
   39.0250  -10.1384   28.6556 C   0  0  0  0  0  0  0  0  0  0  0  0
   38.5680   -9.6795   27.2519 C   0  0  0  0  0  0  0  0  0  0  0  0
   38.3844  -10.9940   26.4405 C   0  0  0  0  0  0  0  0  0  0  0  0
   39.7092   -8.8936   26.5759 C   0  0  0  0  0  0  0  0  0  0  0  0
   38.1006   -7.1132   28.9425 N   0  0  0  0  0  0  0  0  0  0  0  0
   39.2813   -7.3047   28.6260 O   0  0  0  0  0  0  0  0  0  0  0  0
   37.7062   -6.4733   29.9268 O   0  0  0  0  0  0  0  0  0  0  0  0
   31.5242   -5.9826   26.1474 N   0  0  0  0  0  0  0  0  0  0  0  0
   30.8977   -6.0860   24.9096 C   0  0  0  0  0  0  0  0  0  0  0  0
   31.1300   -7.0266   24.1575 O   0  0  0  0  0  0  0  0  0  0  0  0
   30.0104   -5.0498   24.7172 N   0  0  0  0  0  0  0  0  0  0  0  0
   31.2508   -5.3183   26.8207 H   0  0  0  0  0  0  0  0  0  0  0  0
   29.8785   -4.4464   25.4838 H   0  0  0  0  0  0  0  0  0  0  0  0
   29.2635   -4.7455   23.5503 C   0  0  0  0  0  0  0  0  0  0  0  0
   29.7847   -5.0144   22.2767 C   0  0  0  0  0  0  0  0  0  0  0  0
   29.0661   -4.6980   21.1269 C   0  0  0  0  0  0  0  0  0  0  0  0
   27.8139   -4.1067   21.2316 C   0  0  0  0  0  0  0  0  0  0  0  0
   27.2610   -3.8171   22.4850 C   0  0  0  0  0  0  0  0  0  0  0  0
   25.9925   -3.2161   22.5531 C   0  0  0  0  0  0  0  0  0  0  0  0
   25.4024   -2.9138   23.7790 C   0  0  0  0  0  0  0  0  0  0  0  0
   26.0804   -3.2012   24.9532 C   0  0  0  0  0  0  0  0  0  0  0  0
   27.3439   -3.7995   24.9028 C   0  0  0  0  0  0  0  0  0  0  0  0
   27.9776   -4.1267   23.6731 C   0  0  0  0  0  0  0  0  0  0  0  0
 11 12  1  0
 12 13  1  0
 12 14  1  0
 12  5  1  0
  5  6  2  0
  6  7  1  0
  7  8  2  0
  8  1  1  0
  1  2  2  0
  1  3  1  0
  3 18  1  0
 18 19  1  0
 19 20  2  0
 19 21  1  0
 21 24  1  0
 24 25  2  0
 25 26  1  0
 26 27  2  0
 27 28  1  0
 28 29  2  0
 29 30  1  0
 30 31  2  0
 31 32  1  0
 32 33  2  0
  8  9  1  0
  9 10  2  0
 10 15  1  0
 15 16  2  0
 15 17  1  0
 10  5  1  0
 33 24  1  0
 33 28  1  0
  3  4  1  0
 18 22  1  0
 21 23  1  0
M  CHG 1  15   1
M  CHG 1  17  -1
M  END
> <minimizedAffinity>
-7.10458

> <CNNscore>
0.5294030905

> <CNNaffinity>
5.6383948326

> <CNN_VS>
2.9849836826

> <CNNaffinity_variance>
0.3327536285

$$$$



 33 35  0  0  0  0  0  0  0  0999 V2000
   24.2942   -8.8953   23.8155 C   0  0  0  0  0  0  0  0  0  0  0  0
   24.9992   -9.8911   23.9546 O   0  0  0  0  0  0  0  0  0  0  0  0
   22.9137   -8.9548   23.8295 N   0  0  0  0  0  0  0  0  0  0  0  0
   22.3563   -8.1886   23.5623 H   0  0  0  0  0  0  0  0  0  0  0  0
   26.1493   -4.9777   23.3291 C   0  0  0  0  0  0  0  0  0  0  0  0
   24.8184   -5.1226   23.7867 C   0  0  0  0  0  0  0  0  0  0  0  0
   24.2030   -6.3750   23.9488 C   0  0  0  0  0  0  0  0  0  0  0  0
   24.9037   -7.5473   23.6678 C   0  0  0  0  0  0  0  0  0  0  0  0
   26.2166   -7.4570   23.2180 C   0  0  0  0  0  0  0  0  0  0  0  0
   26.8242   -6.1952   23.0712 C   0  0  0  0  0  0  0  0  0  0  0  0
   26.3501   -2.5846   24.3133 C   0  0  0  0  0  0  0  0  0  0  0  0
   26.7528   -3.5565   23.1804 C   0  0  0  0  0  0  0  0  0  0  0  0
   28.3084   -3.5619   23.1913 C   0  0  0  0  0  0  0  0  0  0  0  0
   26.3181   -2.9663   21.8241 C   0  0  0  0  0  0  0  0  0  0  0  0
   28.2138   -6.2513   22.6648 N   0  0  0  0  0  0  0  0  0  0  0  0
   28.4530   -6.1208   21.4580 O   0  0  0  0  0  0  0  0  0  0  0  0
   29.0560   -6.3853   23.5628 O   0  0  0  0  0  0  0  0  0  0  0  0
   22.3474  -10.1840   24.2515 N   0  0  0  0  0  0  0  0  0  0  0  0
   21.3726  -10.0869   25.2392 C   0  0  0  0  0  0  0  0  0  0  0  0
   20.9146   -8.9994   25.5739 O   0  0  0  0  0  0  0  0  0  0  0  0
   21.0136  -11.3334   25.7030 N   0  0  0  0  0  0  0  0  0  0  0  0
   22.6254  -11.0485   23.8710 H   0  0  0  0  0  0  0  0  0  0  0  0
   21.4144  -12.1006   25.2338 H   0  0  0  0  0  0  0  0  0  0  0  0
   20.1375  -11.6475   26.7734 C   0  0  0  0  0  0  0  0  0  0  0  0
   18.7692  -11.8489   26.5427 C   0  0  0  0  0  0  0  0  0  0  0  0
   17.9000  -12.1358   27.5920 C   0  0  0  0  0  0  0  0  0  0  0  0
   18.3850  -12.2256   28.8901 C   0  0  0  0  0  0  0  0  0  0  0  0
   19.7438  -12.0257   29.1628 C   0  0  0  0  0  0  0  0  0  0  0  0
   20.1989  -12.1217   30.4889 C   0  0  0  0  0  0  0  0  0  0  0  0
   21.5431  -11.9340   30.8055 C   0  0  0  0  0  0  0  0  0  0  0  0
   22.4477  -11.6380   29.7979 C   0  0  0  0  0  0  0  0  0  0  0  0
   22.0109  -11.5389   28.4727 C   0  0  0  0  0  0  0  0  0  0  0  0
   20.6496  -11.7271   28.1086 C   0  0  0  0  0  0  0  0  0  0  0  0
 11 12  1  0
 12 13  1  0
 12 14  1  0
 12  5  1  0
  5  6  2  0
  6  7  1  0
  7  8  2  0
  8  1  1  0
  1  2  2  0
  1  3  1  0
  3 18  1  0
 18 19  1  0
 19 20  2  0
 19 21  1  0
 21 24  1  0
 24 25  2  0
 25 26  1  0
 26 27  2  0
 27 28  1  0
 28 29  2  0
 29 30  1  0
 30 31  2  0
 31 32  1  0
 32 33  2  0
  8  9  1  0
  9 10  2  0
 10 15  1  0
 15 16  2  0
 15 17  1  0
 10  5  1  0
 33 24  1  0
 33 28  1  0
  3  4  1  0
 18 22  1  0
 21 23  1  0
M  CHG 1  15   1
M  CHG 1  17  -1
M  END
> <minimizedAffinity>
-6.96204

> <CNNscore>
0.5152600408

> <CNNaffinity>
5.5898838043

> <CNN_VS>
2.8802437782

> <CNNaffinity_variance>
0.0427470505

$$$$



 33 35  0  0  0  0  0  0  0  0999 V2000
   31.7210   -7.6078   27.5597 C   0  0  0  0  0  0  0  0  0  0  0  0
   32.7784   -7.2709   27.0340 O   0  0  0  0  0  0  0  0  0  0  0  0
   30.5783   -6.8338   27.4926 N   0  0  0  0  0  0  0  0  0  0  0  0
   29.7849   -7.0270   28.0425 H   0  0  0  0  0  0  0  0  0  0  0  0
   31.3069  -11.3958   29.6824 C   0  0  0  0  0  0  0  0  0  0  0  0
   32.1085  -11.2727   28.5231 C   0  0  0  0  0  0  0  0  0  0  0  0
   32.2537  -10.0622   27.8251 C   0  0  0  0  0  0  0  0  0  0  0  0
   31.6056   -8.9099   28.2681 C   0  0  0  0  0  0  0  0  0  0  0  0
   30.8084   -8.9795   29.4056 C   0  0  0  0  0  0  0  0  0  0  0  0
   30.6814  -10.1969   30.1017 C   0  0  0  0  0  0  0  0  0  0  0  0
   29.7519  -13.2160   30.6846 C   0  0  0  0  0  0  0  0  0  0  0  0
   31.2034  -12.7702   30.3940 C   0  0  0  0  0  0  0  0  0  0  0  0
   31.8175  -13.9272   29.5547 C   0  0  0  0  0  0  0  0  0  0  0  0
   31.9929  -12.7109   31.7169 C   0  0  0  0  0  0  0  0  0  0  0  0
   29.8806  -10.1092   31.3059 N   0  0  0  0  0  0  0  0  0  0  0  0
   30.4810   -9.8988   32.3670 O   0  0  0  0  0  0  0  0  0  0  0  0
   28.6537  -10.2117   31.1726 O   0  0  0  0  0  0  0  0  0  0  0  0
   30.6158   -5.7450   26.5854 N   0  0  0  0  0  0  0  0  0  0  0  0
   29.6750   -5.7857   25.5614 C   0  0  0  0  0  0  0  0  0  0  0  0
   28.7667   -6.6100   25.5668 O   0  0  0  0  0  0  0  0  0  0  0  0
   29.9041   -4.7872   24.6404 N   0  0  0  0  0  0  0  0  0  0  0  0
   31.2642   -5.0095   26.6740 H   0  0  0  0  0  0  0  0  0  0  0  0
   30.6206   -4.1500   24.8636 H   0  0  0  0  0  0  0  0  0  0  0  0
   29.2344   -4.5642   23.4100 C   0  0  0  0  0  0  0  0  0  0  0  0
   29.8213   -4.9485   22.1959 C   0  0  0  0  0  0  0  0  0  0  0  0
   29.1793   -4.7126   20.9831 C   0  0  0  0  0  0  0  0  0  0  0  0
   27.9392   -4.0879   20.9643 C   0  0  0  0  0  0  0  0  0  0  0  0
   27.3223   -3.6840   22.1546 C   0  0  0  0  0  0  0  0  0  0  0  0
   26.0682   -3.0523   22.0975 C   0  0  0  0  0  0  0  0  0  0  0  0
   25.4162   -2.6372   23.2572 C   0  0  0  0  0  0  0  0  0  0  0  0
   26.0172   -2.8413   24.4894 C   0  0  0  0  0  0  0  0  0  0  0  0
   27.2652   -3.4687   24.5637 C   0  0  0  0  0  0  0  0  0  0  0  0
   27.9604   -3.9098   23.4047 C   0  0  0  0  0  0  0  0  0  0  0  0
 11 12  1  0
 12 13  1  0
 12 14  1  0
 12  5  1  0
  5  6  2  0
  6  7  1  0
  7  8  2  0
  8  1  1  0
  1  2  2  0
  1  3  1  0
  3 18  1  0
 18 19  1  0
 19 20  2  0
 19 21  1  0
 21 24  1  0
 24 25  2  0
 25 26  1  0
 26 27  2  0
 27 28  1  0
 28 29  2  0
 29 30  1  0
 30 31  2  0
 31 32  1  0
 32 33  2  0
  8  9  1  0
  9 10  2  0
 10 15  1  0
 15 16  2  0
 15 17  1  0
 10  5  1  0
 33 24  1  0
 33 28  1  0
  3  4  1  0
 18 22  1  0
 21 23  1  0
M  CHG 1  15   1
M  CHG 1  17  -1
M  END
> <minimizedAffinity>
-6.52898

> <CNNscore>
0.4902881682

> <CNNaffinity>
5.6760687828

> <CNN_VS>
2.7829093933

> <CNNaffinity_variance>
0.2511970401

$$$$



 33 35  0  0  0  0  0  0  0  0999 V2000
   31.6489   -7.7664   28.0794 C   0  0  0  0  0  0  0  0  0  0  0  0
   31.5039   -7.0767   29.0850 O   0  0  0  0  0  0  0  0  0  0  0  0
   31.1354   -7.4030   26.8491 N   0  0  0  0  0  0  0  0  0  0  0  0
   31.1162   -8.0265   26.0875 H   0  0  0  0  0  0  0  0  0  0  0  0
   33.8860  -11.5066   28.2580 C   0  0  0  0  0  0  0  0  0  0  0  0
   34.3381  -10.4010   27.4996 C   0  0  0  0  0  0  0  0  0  0  0  0
   33.6316   -9.1888   27.4286 C   0  0  0  0  0  0  0  0  0  0  0  0
   32.4371   -9.0261   28.1290 C   0  0  0  0  0  0  0  0  0  0  0  0
   31.9529  -10.0835   28.8918 C   0  0  0  0  0  0  0  0  0  0  0  0
   32.6777  -11.2887   28.9628 C   0  0  0  0  0  0  0  0  0  0  0  0
   33.8946  -14.0975   28.1070 C   0  0  0  0  0  0  0  0  0  0  0  0
   34.7293  -12.8083   28.2835 C   0  0  0  0  0  0  0  0  0  0  0  0
   35.7889  -12.8581   27.1455 C   0  0  0  0  0  0  0  0  0  0  0  0
   35.5018  -12.8795   29.6158 C   0  0  0  0  0  0  0  0  0  0  0  0
   32.0964  -12.2774   29.8481 N   0  0  0  0  0  0  0  0  0  0  0  0
   31.1858  -12.9780   29.3891 O   0  0  0  0  0  0  0  0  0  0  0  0
   32.5843  -12.3706   30.9825 O   0  0  0  0  0  0  0  0  0  0  0  0
   30.6379   -6.0793   26.7481 N   0  0  0  0  0  0  0  0  0  0  0  0
   29.4212   -5.9454   26.0869 C   0  0  0  0  0  0  0  0  0  0  0  0
   28.7508   -6.9277   25.7866 O   0  0  0  0  0  0  0  0  0  0  0  0
   29.1113   -4.6180   25.8870 N   0  0  0  0  0  0  0  0  0  0  0  0
   31.1209   -5.3067   27.1208 H   0  0  0  0  0  0  0  0  0  0  0  0
   29.7235   -3.9652   26.2972 H   0  0  0  0  0  0  0  0  0  0  0  0
   28.0187   -4.0763   25.1627 C   0  0  0  0  0  0  0  0  0  0  0  0
   26.8922   -3.5785   25.8329 C   0  0  0  0  0  0  0  0  0  0  0  0
   25.8069   -3.0656   25.1274 C   0  0  0  0  0  0  0  0  0  0  0  0
   25.8300   -3.0424   23.7391 C   0  0  0  0  0  0  0  0  0  0  0  0
   26.9339   -3.5352   23.0325 C   0  0  0  0  0  0  0  0  0  0  0  0
   26.9217   -3.4982   21.6278 C   0  0  0  0  0  0  0  0  0  0  0  0
   28.0001   -3.9742   20.8843 C   0  0  0  0  0  0  0  0  0  0  0  0
   29.1015   -4.5026   21.5391 C   0  0  0  0  0  0  0  0  0  0  0  0
   29.1295   -4.5467   22.9370 C   0  0  0  0  0  0  0  0  0  0  0  0
   28.0517   -4.0679   23.7308 C   0  0  0  0  0  0  0  0  0  0  0  0
 11 12  1  0
 12 13  1  0
 12 14  1  0
 12  5  1  0
  5  6  2  0
  6  7  1  0
  7  8  2  0
  8  1  1  0
  1  2  2  0
  1  3  1  0
  3 18  1  0
 18 19  1  0
 19 20  2  0
 19 21  1  0
 21 24  1  0
 24 25  2  0
 25 26  1  0
 26 27  2  0
 27 28  1  0
 28 29  2  0
 29 30  1  0
 30 31  2  0
 31 32  1  0
 32 33  2  0
  8  9  1  0
  9 10  2  0
 10 15  1  0
 15 16  2  0
 15 17  1  0
 10  5  1  0
 33 24  1  0
 33 28  1  0
  3  4  1  0
 18 22  1  0
 21 23  1  0
M  CHG 1  15   1
M  CHG 1  17  -1
M  END
> <minimizedAffinity>
-5.93589

> <CNNscore>
0.4899929166

> <CNNaffinity>
5.5890011787

> <CNN_VS>
2.7385709286

> <CNNaffinity_variance>
0.2581723630

$$$$



 33 35  0  0  0  0  0  0  0  0999 V2000
   29.6572   -5.1773   17.1381 C   0  0  0  0  0  0  0  0  0  0  0  0
   29.1612   -4.1366   16.7150 O   0  0  0  0  0  0  0  0  0  0  0  0
   30.0988   -5.3140   18.4403 N   0  0  0  0  0  0  0  0  0  0  0  0
   30.6349   -6.0870   18.7305 H   0  0  0  0  0  0  0  0  0  0  0  0
   29.9171   -8.6567   14.5205 C   0  0  0  0  0  0  0  0  0  0  0  0
   30.8891   -8.3955   15.5149 C   0  0  0  0  0  0  0  0  0  0  0  0
   30.8236   -7.2802   16.3666 C   0  0  0  0  0  0  0  0  0  0  0  0
   29.7668   -6.3764   16.2659 C   0  0  0  0  0  0  0  0  0  0  0  0
   28.7841   -6.5919   15.3055 C   0  0  0  0  0  0  0  0  0  0  0  0
   28.8567   -7.7203   14.4664 C   0  0  0  0  0  0  0  0  0  0  0  0
   28.8852  -10.9064   13.7394 C   0  0  0  0  0  0  0  0  0  0  0  0
   30.0646   -9.9135   13.6233 C   0  0  0  0  0  0  0  0  0  0  0  0
   30.1459   -9.5631   12.1099 C   0  0  0  0  0  0  0  0  0  0  0  0
   31.3772  -10.6368   13.9851 C   0  0  0  0  0  0  0  0  0  0  0  0
   27.7324   -7.8594   13.5632 N   0  0  0  0  0  0  0  0  0  0  0  0
   26.7475   -8.4802   13.9819 O   0  0  0  0  0  0  0  0  0  0  0  0
   27.8300   -7.3109   12.4572 O   0  0  0  0  0  0  0  0  0  0  0  0
   29.7344   -4.2754   19.3339 N   0  0  0  0  0  0  0  0  0  0  0  0
   28.8842   -4.6476   20.3703 C   0  0  0  0  0  0  0  0  0  0  0  0
   28.6302   -5.8273   20.5900 O   0  0  0  0  0  0  0  0  0  0  0  0
   28.4510   -3.5451   21.0736 N   0  0  0  0  0  0  0  0  0  0  0  0
   30.0610   -3.3527   19.2281 H   0  0  0  0  0  0  0  0  0  0  0  0
   28.8511   -2.6835   20.8151 H   0  0  0  0  0  0  0  0  0  0  0  0
   27.4993   -3.4987   22.1244 C   0  0  0  0  0  0  0  0  0  0  0  0
   26.2186   -2.9708   21.9072 C   0  0  0  0  0  0  0  0  0  0  0  0
   25.2871   -2.9021   22.9399 C   0  0  0  0  0  0  0  0  0  0  0  0
   25.6212   -3.3601   24.2076 C   0  0  0  0  0  0  0  0  0  0  0  0
   26.8915   -3.8891   24.4665 C   0  0  0  0  0  0  0  0  0  0  0  0
   27.1958   -4.3407   25.7620 C   0  0  0  0  0  0  0  0  0  0  0  0
   28.4459   -4.8779   26.0636 C   0  0  0  0  0  0  0  0  0  0  0  0
   29.4113   -4.9606   25.0726 C   0  0  0  0  0  0  0  0  0  0  0  0
   29.1245   -4.5156   23.7777 C   0  0  0  0  0  0  0  0  0  0  0  0
   27.8609   -3.9653   23.4294 C   0  0  0  0  0  0  0  0  0  0  0  0
 11 12  1  0
 12 13  1  0
 12 14  1  0
 12  5  1  0
  5  6  2  0
  6  7  1  0
  7  8  2  0
  8  1  1  0
  1  2  2  0
  1  3  1  0
  3 18  1  0
 18 19  1  0
 19 20  2  0
 19 21  1  0
 21 24  1  0
 24 25  2  0
 25 26  1  0
 26 27  2  0
 27 28  1  0
 28 29  2  0
 29 30  1  0
 30 31  2  0
 31 32  1  0
 32 33  2  0
  8  9  1  0
  9 10  2  0
 10 15  1  0
 15 16  2  0
 15 17  1  0
 10  5  1  0
 33 24  1  0
 33 28  1  0
  3  4  1  0
 18 22  1  0
 21 23  1  0
M  CHG 1  15   1
M  CHG 1  17  -1
M  END
> <minimizedAffinity>
-6.71711

> <CNNscore>
0.4870137870

> <CNNaffinity>
6.0632901192

> <CNN_VS>
2.9529058933

> <CNNaffinity_variance>
0.5397402644

$$$$



 33 35  0  0  0  0  0  0  0  0999 V2000
   23.4628   -9.6245   27.0877 C   0  0  0  0  0  0  0  0  0  0  0  0
   23.9766   -9.0468   28.0417 O   0  0  0  0  0  0  0  0  0  0  0  0
   23.7677   -9.3103   25.7771 N   0  0  0  0  0  0  0  0  0  0  0  0
   23.2433   -9.6613   25.0214 H   0  0  0  0  0  0  0  0  0  0  0  0
   20.5874  -12.8533   27.6649 C   0  0  0  0  0  0  0  0  0  0  0  0
   21.9692  -13.0303   27.9118 C   0  0  0  0  0  0  0  0  0  0  0  0
   22.9108  -12.0035   27.7310 C   0  0  0  0  0  0  0  0  0  0  0  0
   22.5043  -10.7408   27.3018 C   0  0  0  0  0  0  0  0  0  0  0  0
   21.1552  -10.5163   27.0488 C   0  0  0  0  0  0  0  0  0  0  0  0
   20.2213  -11.5516   27.2455 C   0  0  0  0  0  0  0  0  0  0  0  0
   18.5424  -13.7714   28.9729 C   0  0  0  0  0  0  0  0  0  0  0  0
   19.6151  -14.0403   27.8925 C   0  0  0  0  0  0  0  0  0  0  0  0
   18.8113  -14.4103   26.6131 C   0  0  0  0  0  0  0  0  0  0  0  0
   20.4307  -15.2888   28.2837 C   0  0  0  0  0  0  0  0  0  0  0  0
   18.8459  -11.1596   27.0137 N   0  0  0  0  0  0  0  0  0  0  0  0
   18.1870  -10.8079   28.0001 O   0  0  0  0  0  0  0  0  0  0  0  0
   18.4498  -11.1691   25.8404 O   0  0  0  0  0  0  0  0  0  0  0  0
   24.8802   -8.4529   25.5847 N   0  0  0  0  0  0  0  0  0  0  0  0
   24.6166   -7.2758   24.8917 C   0  0  0  0  0  0  0  0  0  0  0  0
   23.4666   -6.9325   24.6386 O   0  0  0  0  0  0  0  0  0  0  0  0
   25.7824   -6.6004   24.6042 N   0  0  0  0  0  0  0  0  0  0  0  0
   25.7790   -8.6756   25.9191 H   0  0  0  0  0  0  0  0  0  0  0  0
   26.6067   -6.9800   24.9860 H   0  0  0  0  0  0  0  0  0  0  0  0
   25.9412   -5.4254   23.8257 C   0  0  0  0  0  0  0  0  0  0  0  0
   25.1123   -4.3134   24.0312 C   0  0  0  0  0  0  0  0  0  0  0  0
   25.2483   -3.1650   23.2556 C   0  0  0  0  0  0  0  0  0  0  0  0
   26.2158   -3.1098   22.2610 C   0  0  0  0  0  0  0  0  0  0  0  0
   27.0595   -4.2011   22.0207 C   0  0  0  0  0  0  0  0  0  0  0  0
   28.0256   -4.1109   21.0042 C   0  0  0  0  0  0  0  0  0  0  0  0
   28.8887   -5.1711   20.7332 C   0  0  0  0  0  0  0  0  0  0  0  0
   28.7884   -6.3398   21.4715 C   0  0  0  0  0  0  0  0  0  0  0  0
   27.8321   -6.4458   22.4870 C   0  0  0  0  0  0  0  0  0  0  0  0
   26.9366   -5.3861   22.7965 C   0  0  0  0  0  0  0  0  0  0  0  0
 11 12  1  0
 12 13  1  0
 12 14  1  0
 12  5  1  0
  5  6  2  0
  6  7  1  0
  7  8  2  0
  8  1  1  0
  1  2  2  0
  1  3  1  0
  3 18  1  0
 18 19  1  0
 19 20  2  0
 19 21  1  0
 21 24  1  0
 24 25  2  0
 25 26  1  0
 26 27  2  0
 27 28  1  0
 28 29  2  0
 29 30  1  0
 30 31  2  0
 31 32  1  0
 32 33  2  0
  8  9  1  0
  9 10  2  0
 10 15  1  0
 15 16  2  0
 15 17  1  0
 10  5  1  0
 33 24  1  0
 33 28  1  0
  3  4  1  0
 18 22  1  0
 21 23  1  0
M  CHG 1  15   1
M  CHG 1  17  -1
M  END
> <minimizedAffinity>
-6.80857

> <CNNscore>
0.4793319702

> <CNNaffinity>
5.1383290291

> <CNN_VS>
2.4629654884

> <CNNaffinity_variance>
0.0605657436

$$$$
