


 28 31  0  0  0  0  0  0  0  0999 V2000
    9.1300   56.1542   -0.2428 C   0  0  0  0  0  0  0  0  0  0  0  0
    9.5830   57.2517   -0.8363 N   0  0  0  0  0  0  0  0  0  0  0  0
    8.5887   58.1803   -0.7178 C   0  0  0  0  0  0  0  0  0  0  0  0
    8.5115   59.5227   -1.1316 C   0  0  0  0  0  0  0  0  0  0  0  0
    7.4263   60.3155   -0.8746 N   0  0  0  0  0  0  0  0  0  0  0  0
    6.4487   59.7221   -0.1702 C   0  0  0  0  0  0  0  0  0  0  0  0
    5.2815   60.2891    0.2594 N   0  0  0  0  0  0  0  0  0  0  0  0
    4.5883   59.3585    0.9802 C   0  0  0  0  0  0  0  0  0  0  0  0
    3.1033   59.8242    1.6594 Cl  0  0  0  0  0  0  0  0  0  0  0  0
    5.2763   58.1675    1.0262 C   0  0  0  0  0  0  0  0  0  0  0  0
    6.4481   58.4124    0.2668 C   0  0  0  0  0  0  0  0  0  0  0  0
    7.5215   57.6262   -0.0378 C   0  0  0  0  0  0  0  0  0  0  0  0
    7.8140   56.3209    0.1878 N   0  0  0  0  0  0  0  0  0  0  0  0
    4.9899   61.2121    0.0797 H   0  0  0  0  0  0  0  0  0  0  0  0
    6.9236   55.2998    0.7305 C   0  0  0  0  0  0  0  0  0  0  0  0
    6.6302   54.1116   -0.2002 C   0  0  0  0  0  0  0  0  0  0  0  0
    5.5877   53.1737    0.4144 C   0  0  0  0  0  0  0  0  0  0  0  0
    6.0140   52.6854    1.8091 C   0  0  0  0  0  0  0  0  0  0  0  0
    6.3152   53.8818    2.7311 C   0  0  0  0  0  0  0  0  0  0  0  0
    7.3449   54.8378    2.1297 C   0  0  0  0  0  0  0  0  0  0  0  0
    4.9483   51.7829    2.4705 C   0  0  0  0  0  0  0  0  0  0  0  0
    3.6761   51.5485    1.6500 C   0  0  0  0  0  0  0  0  0  0  0  0
    3.2694   50.1375    1.6424 C   0  0  0  0  0  0  0  0  0  0  0  0
    2.9543   49.0212    1.6257 N   0  0  0  0  0  0  0  0  0  0  0  0
   10.3261   54.7243    1.4255 C   0  0  0  0  0  0  0  0  0  0  0  0
    9.9957   54.9455   -0.0433 C   0  0  0  0  0  0  0  0  0  0  0  0
    9.2305   53.8281   -0.5026 O   0  0  0  0  0  0  0  0  0  0  0  0
    8.4091   53.7661    0.0097 H   0  0  0  0  0  0  0  0  0  0  0  0
 26 25  1  0
 26 27  1  0
 26  1  1  0
  1  2  2  0
  2  3  1  0
  3  4  2  0
  4  5  1  0
  5  6  2  0
  6  7  1  0
  7  8  1  0
  8  9  1  0
  8 10  2  0
 10 11  1  0
 11 12  2  0
 12 13  1  0
 15 13  1  0
 15 16  1  0
 16 17  1  0
 17 18  1  0
 18 21  1  0
 21 22  1  0
 22 23  1  0
 23 24  3  0
 18 19  1  0
 19 20  1  0
 13  1  1  0
 20 15  1  0
 12  3  1  0
 11  6  1  0
 27 28  1  0
  7 14  1  0
M  END
> <minimizedAffinity>
-8.74199

> <CNNscore>
0.9676921368

> <CNNaffinity>
7.7133946419

> <CNN_VS>
7.4641914368

> <CNNaffinity_variance>
0.0025106838

$$$$



 28 31  0  0  0  0  0  0  0  0999 V2000
    5.4242   56.5333    1.4542 C   0  0  0  0  0  0  0  0  0  0  0  0
    4.7110   57.6490    1.5470 N   0  0  0  0  0  0  0  0  0  0  0  0
    5.4196   58.6044    0.8760 C   0  0  0  0  0  0  0  0  0  0  0  0
    5.1477   59.9611    0.6216 C   0  0  0  0  0  0  0  0  0  0  0  0
    5.9764   60.7553   -0.1232 N   0  0  0  0  0  0  0  0  0  0  0  0
    7.0584   60.1327   -0.6190 C   0  0  0  0  0  0  0  0  0  0  0  0
    8.0216   60.6709   -1.4258 N   0  0  0  0  0  0  0  0  0  0  0  0
    8.9188   59.6903   -1.7415 C   0  0  0  0  0  0  0  0  0  0  0  0
   10.2089   60.0942   -2.7689 Cl  0  0  0  0  0  0  0  0  0  0  0  0
    8.5710   58.5014   -1.1418 C   0  0  0  0  0  0  0  0  0  0  0  0
    7.3958   58.8101   -0.4114 C   0  0  0  0  0  0  0  0  0  0  0  0
    6.5780   58.0469    0.3706 C   0  0  0  0  0  0  0  0  0  0  0  0
    6.6373   56.7632    0.8056 N   0  0  0  0  0  0  0  0  0  0  0  0
    8.0620   61.6069   -1.7281 H   0  0  0  0  0  0  0  0  0  0  0  0
    7.7529   55.8339    0.6583 C   0  0  0  0  0  0  0  0  0  0  0  0
    8.8161   55.8913    1.7675 C   0  0  0  0  0  0  0  0  0  0  0  0
    9.9993   54.9745    1.4455 C   0  0  0  0  0  0  0  0  0  0  0  0
    9.5453   53.5265    1.1958 C   0  0  0  0  0  0  0  0  0  0  0  0
    8.4736   53.4799    0.0905 C   0  0  0  0  0  0  0  0  0  0  0  0
    7.2888   54.3988    0.3868 C   0  0  0  0  0  0  0  0  0  0  0  0
   10.7188   52.5970    0.8128 C   0  0  0  0  0  0  0  0  0  0  0  0
   12.0774   52.9594    1.4205 C   0  0  0  0  0  0  0  0  0  0  0  0
   13.0885   51.9209    1.1852 C   0  0  0  0  0  0  0  0  0  0  0  0
   13.8892   51.0995    1.0115 N   0  0  0  0  0  0  0  0  0  0  0  0
    5.6621   54.7435    3.1858 C   0  0  0  0  0  0  0  0  0  0  0  0
    4.9060   55.2170    1.9531 C   0  0  0  0  0  0  0  0  0  0  0  0
    3.5428   55.4407    2.3231 O   0  0  0  0  0  0  0  0  0  0  0  0
    3.5024   56.1230    3.0113 H   0  0  0  0  0  0  0  0  0  0  0  0
 26 25  1  0
 26 27  1  0
 26  1  1  0
  1  2  2  0
  2  3  1  0
  3  4  2  0
  4  5  1  0
  5  6  2  0
  6  7  1  0
  7  8  1  0
  8  9  1  0
  8 10  2  0
 10 11  1  0
 11 12  2  0
 12 13  1  0
 15 13  1  0
 15 16  1  0
 16 17  1  0
 17 18  1  0
 18 21  1  0
 21 22  1  0
 22 23  1  0
 23 24  3  0
 18 19  1  0
 19 20  1  0
 13  1  1  0
 20 15  1  0
 12  3  1  0
 11  6  1  0
 27 28  1  0
  7 14  1  0
M  END
> <minimizedAffinity>
-8.34563

> <CNNscore>
0.8648993373

> <CNNaffinity>
7.4987692833

> <CNN_VS>
6.4856805801

> <CNNaffinity_variance>
0.0227781851

$$$$



 28 31  0  0  0  0  0  0  0  0999 V2000
    5.1116   58.1903    0.7784 C   0  0  0  0  0  0  0  0  0  0  0  0
    5.3016   59.4305    0.3449 N   0  0  0  0  0  0  0  0  0  0  0  0
    6.5381   59.4403   -0.2349 C   0  0  0  0  0  0  0  0  0  0  0  0
    7.2571   60.4618   -0.8820 C   0  0  0  0  0  0  0  0  0  0  0  0
    8.4862   60.2580   -1.4476 N   0  0  0  0  0  0  0  0  0  0  0  0
    8.9437   58.9980   -1.3634 C   0  0  0  0  0  0  0  0  0  0  0  0
   10.1125   58.5094   -1.8767 N   0  0  0  0  0  0  0  0  0  0  0  0
   10.1755   57.1709   -1.6110 C   0  0  0  0  0  0  0  0  0  0  0  0
   11.5265   56.3112   -2.1755 Cl  0  0  0  0  0  0  0  0  0  0  0  0
    9.0631   56.7608   -0.9121 C   0  0  0  0  0  0  0  0  0  0  0  0
    8.3016   57.9447   -0.7433 C   0  0  0  0  0  0  0  0  0  0  0  0
    7.0963   58.1797   -0.1474 C   0  0  0  0  0  0  0  0  0  0  0  0
    6.2449   57.4046    0.5700 N   0  0  0  0  0  0  0  0  0  0  0  0
   10.7939   59.0335   -2.3566 H   0  0  0  0  0  0  0  0  0  0  0  0
    6.4836   56.0485    1.0537 C   0  0  0  0  0  0  0  0  0  0  0  0
    6.3441   55.8506    2.5720 C   0  0  0  0  0  0  0  0  0  0  0  0
    6.7434   54.4307    2.9823 C   0  0  0  0  0  0  0  0  0  0  0  0
    5.9375   53.3691    2.2149 C   0  0  0  0  0  0  0  0  0  0  0  0
    6.0752   53.5811    0.6955 C   0  0  0  0  0  0  0  0  0  0  0  0
    5.6934   54.9975    0.2666 C   0  0  0  0  0  0  0  0  0  0  0  0
    6.3662   51.9285    2.5733 C   0  0  0  0  0  0  0  0  0  0  0  0
    5.5578   50.8108    1.9071 C   0  0  0  0  0  0  0  0  0  0  0  0
    4.3951   50.4093    2.7090 C   0  0  0  0  0  0  0  0  0  0  0  0
    3.4699   50.0904    3.3321 N   0  0  0  0  0  0  0  0  0  0  0  0
    3.8575   56.3005    1.8341 C   0  0  0  0  0  0  0  0  0  0  0  0
    3.8011   57.7439    1.3556 C   0  0  0  0  0  0  0  0  0  0  0  0
    3.5599   58.5816    2.4893 O   0  0  0  0  0  0  0  0  0  0  0  0
    4.2833   58.4786    3.1273 H   0  0  0  0  0  0  0  0  0  0  0  0
 26 25  1  0
 26 27  1  0
 26  1  1  0
  1  2  2  0
  2  3  1  0
  3  4  2  0
  4  5  1  0
  5  6  2  0
  6  7  1  0
  7  8  1  0
  8  9  1  0
  8 10  2  0
 10 11  1  0
 11 12  2  0
 12 13  1  0
 15 13  1  0
 15 16  1  0
 16 17  1  0
 17 18  1  0
 18 21  1  0
 21 22  1  0
 22 23  1  0
 23 24  3  0
 18 19  1  0
 19 20  1  0
 13  1  1  0
 20 15  1  0
 12  3  1  0
 11  6  1  0
 27 28  1  0
  7 14  1  0
M  END
> <minimizedAffinity>
-8.50352

> <CNNscore>
0.7444108129

> <CNNaffinity>
7.6309819221

> <CNN_VS>
5.6805853844

> <CNNaffinity_variance>
0.1954807639

$$$$



 28 31  0  0  0  0  0  0  0  0999 V2000
    9.8902   54.8774    0.2979 C   0  0  0  0  0  0  0  0  0  0  0  0
   10.4305   55.9565   -0.2549 N   0  0  0  0  0  0  0  0  0  0  0  0
    9.4231   56.8736   -0.3507 C   0  0  0  0  0  0  0  0  0  0  0  0
    9.4080   58.1965   -0.8291 C   0  0  0  0  0  0  0  0  0  0  0  0
    8.2881   58.9822   -0.7986 N   0  0  0  0  0  0  0  0  0  0  0  0
    7.2078   58.4030   -0.2495 C   0  0  0  0  0  0  0  0  0  0  0  0
    5.9791   58.9688   -0.0537 N   0  0  0  0  0  0  0  0  0  0  0  0
    5.1787   58.0579    0.5754 C   0  0  0  0  0  0  0  0  0  0  0  0
    3.5945   58.5277    0.9661 Cl  0  0  0  0  0  0  0  0  0  0  0  0
    5.8581   56.8806    0.7914 C   0  0  0  0  0  0  0  0  0  0  0  0
    7.1421   57.1124    0.2369 C   0  0  0  0  0  0  0  0  0  0  0  0
    8.2585   56.3313    0.1571 C   0  0  0  0  0  0  0  0  0  0  0  0
    8.5180   55.0410    0.4861 N   0  0  0  0  0  0  0  0  0  0  0  0
    5.7156   59.8790   -0.3208 H   0  0  0  0  0  0  0  0  0  0  0  0
    7.5553   54.0292    0.9096 C   0  0  0  0  0  0  0  0  0  0  0  0
    7.0507   54.1568    2.3564 C   0  0  0  0  0  0  0  0  0  0  0  0
    6.1534   52.9751    2.7340 C   0  0  0  0  0  0  0  0  0  0  0  0
    4.9776   52.8184    1.7551 C   0  0  0  0  0  0  0  0  0  0  0  0
    5.4920   52.7012    0.3080 C   0  0  0  0  0  0  0  0  0  0  0  0
    6.4008   53.8655   -0.0848 C   0  0  0  0  0  0  0  0  0  0  0  0
    4.0922   51.5960    2.0860 C   0  0  0  0  0  0  0  0  0  0  0  0
    3.3826   50.9487    0.8927 C   0  0  0  0  0  0  0  0  0  0  0  0
    2.7628   49.6642    1.2421 C   0  0  0  0  0  0  0  0  0  0  0  0
    2.2685   48.6485    1.5065 N   0  0  0  0  0  0  0  0  0  0  0  0
   11.3147   52.9877   -0.5136 C   0  0  0  0  0  0  0  0  0  0  0  0
   10.7179   53.6916    0.6963 C   0  0  0  0  0  0  0  0  0  0  0  0
   11.7915   54.2045    1.4898 O   0  0  0  0  0  0  0  0  0  0  0  0
   12.3064   54.8382    0.9662 H   0  0  0  0  0  0  0  0  0  0  0  0
 26 25  1  0
 26 27  1  0
 26  1  1  0
  1  2  2  0
  2  3  1  0
  3  4  2  0
  4  5  1  0
  5  6  2  0
  6  7  1  0
  7  8  1  0
  8  9  1  0
  8 10  2  0
 10 11  1  0
 11 12  2  0
 12 13  1  0
 15 13  1  0
 15 16  1  0
 16 17  1  0
 17 18  1  0
 18 21  1  0
 21 22  1  0
 22 23  1  0
 23 24  3  0
 18 19  1  0
 19 20  1  0
 13  1  1  0
 20 15  1  0
 12  3  1  0
 11  6  1  0
 27 28  1  0
  7 14  1  0
M  END
> <minimizedAffinity>
-9.12354

> <CNNscore>
0.6513474584

> <CNNaffinity>
7.0492191315

> <CNN_VS>
4.5914907455

> <CNNaffinity_variance>
0.0198120717

$$$$



 28 31  0  0  0  0  0  0  0  0999 V2000
    9.9611   54.8094    0.2873 C   0  0  0  0  0  0  0  0  0  0  0  0
   10.4492   55.8532   -0.3715 N   0  0  0  0  0  0  0  0  0  0  0  0
    9.4304   56.7596   -0.4468 C   0  0  0  0  0  0  0  0  0  0  0  0
    9.3686   58.0498   -1.0042 C   0  0  0  0  0  0  0  0  0  0  0  0
    8.2483   58.8325   -0.9369 N   0  0  0  0  0  0  0  0  0  0  0  0
    7.2177   58.2858   -0.2715 C   0  0  0  0  0  0  0  0  0  0  0  0
    6.0032   58.8594   -0.0176 N   0  0  0  0  0  0  0  0  0  0  0  0
    5.2602   57.9874    0.7267 C   0  0  0  0  0  0  0  0  0  0  0  0
    3.7070   58.4762    1.2077 Cl  0  0  0  0  0  0  0  0  0  0  0  0
    5.9631   56.8280    0.9629 C   0  0  0  0  0  0  0  0  0  0  0  0
    7.1992   57.0282    0.2981 C   0  0  0  0  0  0  0  0  0  0  0  0
    8.3122   56.2469    0.1818 C   0  0  0  0  0  0  0  0  0  0  0  0
    8.6061   54.9805    0.5697 N   0  0  0  0  0  0  0  0  0  0  0  0
    5.7130   59.7502   -0.3199 H   0  0  0  0  0  0  0  0  0  0  0  0
    7.6864   53.9946    1.1282 C   0  0  0  0  0  0  0  0  0  0  0  0
    6.6351   53.4396    0.1531 C   0  0  0  0  0  0  0  0  0  0  0  0
    5.6461   52.5192    0.8734 C   0  0  0  0  0  0  0  0  0  0  0  0
    6.3655   51.3778    1.6116 C   0  0  0  0  0  0  0  0  0  0  0  0
    7.4231   51.9426    2.5785 C   0  0  0  0  0  0  0  0  0  0  0  0
    8.4132   52.8750    1.8811 C   0  0  0  0  0  0  0  0  0  0  0  0
    5.3883   50.4706    2.3924 C   0  0  0  0  0  0  0  0  0  0  0  0
    3.9609   50.4036    1.8405 C   0  0  0  0  0  0  0  0  0  0  0  0
    2.9855   50.0059    2.8635 C   0  0  0  0  0  0  0  0  0  0  0  0
    2.2206   49.6991    3.6800 N   0  0  0  0  0  0  0  0  0  0  0  0
   11.4532   52.9664   -0.5099 C   0  0  0  0  0  0  0  0  0  0  0  0
   10.8259   53.6533    0.6943 C   0  0  0  0  0  0  0  0  0  0  0  0
   11.8769   54.2045    1.4923 O   0  0  0  0  0  0  0  0  0  0  0  0
   12.3733   54.8536    0.9697 H   0  0  0  0  0  0  0  0  0  0  0  0
 26 25  1  0
 26 27  1  0
 26  1  1  0
  1  2  2  0
  2  3  1  0
  3  4  2  0
  4  5  1  0
  5  6  2  0
  6  7  1  0
  7  8  1  0
  8  9  1  0
  8 10  2  0
 10 11  1  0
 11 12  2  0
 12 13  1  0
 15 13  1  0
 15 16  1  0
 16 17  1  0
 17 18  1  0
 18 21  1  0
 21 22  1  0
 22 23  1  0
 23 24  3  0
 18 19  1  0
 19 20  1  0
 13  1  1  0
 20 15  1  0
 12  3  1  0
 11  6  1  0
 27 28  1  0
  7 14  1  0
M  END
> <minimizedAffinity>
-8.92896

> <CNNscore>
0.6197147369

> <CNNaffinity>
7.0758972168

> <CNN_VS>
4.3850378990

> <CNNaffinity_variance>
0.0075360858

$$$$



 28 31  0  0  0  0  0  0  0  0999 V2000
    4.9600   58.2862    0.7756 C   0  0  0  0  0  0  0  0  0  0  0  0
    5.2260   59.5321    0.4027 N   0  0  0  0  0  0  0  0  0  0  0  0
    6.4715   59.4988   -0.1565 C   0  0  0  0  0  0  0  0  0  0  0  0
    7.2576   60.5065   -0.7445 C   0  0  0  0  0  0  0  0  0  0  0  0
    8.4837   60.2599   -1.2995 N   0  0  0  0  0  0  0  0  0  0  0  0
    8.8693   58.9737   -1.2662 C   0  0  0  0  0  0  0  0  0  0  0  0
   10.0185   58.4441   -1.7829 N   0  0  0  0  0  0  0  0  0  0  0  0
   10.0026   57.0936   -1.5782 C   0  0  0  0  0  0  0  0  0  0  0  0
   11.3142   56.1859   -2.1604 Cl  0  0  0  0  0  0  0  0  0  0  0  0
    8.8566   56.7154   -0.9165 C   0  0  0  0  0  0  0  0  0  0  0  0
    8.1587   57.9312   -0.7054 C   0  0  0  0  0  0  0  0  0  0  0  0
    6.9576   58.2062   -0.1184 C   0  0  0  0  0  0  0  0  0  0  0  0
    6.0517   57.4484    0.5490 N   0  0  0  0  0  0  0  0  0  0  0  0
   10.7364   58.9504   -2.2275 H   0  0  0  0  0  0  0  0  0  0  0  0
    6.2063   56.0607    0.9735 C   0  0  0  0  0  0  0  0  0  0  0  0
    6.3447   55.0309   -0.1598 C   0  0  0  0  0  0  0  0  0  0  0  0
    6.3672   53.6029    0.3920 C   0  0  0  0  0  0  0  0  0  0  0  0
    7.4764   53.4161    1.4409 C   0  0  0  0  0  0  0  0  0  0  0  0
    7.3355   54.4577    2.5668 C   0  0  0  0  0  0  0  0  0  0  0  0
    7.2980   55.8903    2.0355 C   0  0  0  0  0  0  0  0  0  0  0  0
    7.4788   51.9968    2.0520 C   0  0  0  0  0  0  0  0  0  0  0  0
    8.7940   51.5571    2.7027 C   0  0  0  0  0  0  0  0  0  0  0  0
    9.9049   51.5169    1.7432 C   0  0  0  0  0  0  0  0  0  0  0  0
   10.7864   51.4963    0.9894 N   0  0  0  0  0  0  0  0  0  0  0  0
    3.6024   56.4414    1.7816 C   0  0  0  0  0  0  0  0  0  0  0  0
    3.6164   57.8883    1.3109 C   0  0  0  0  0  0  0  0  0  0  0  0
    3.3743   58.7289    2.4423 O   0  0  0  0  0  0  0  0  0  0  0  0
    4.0738   58.5943    3.1007 H   0  0  0  0  0  0  0  0  0  0  0  0
 26 25  1  0
 26 27  1  0
 26  1  1  0
  1  2  2  0
  2  3  1  0
  3  4  2  0
  4  5  1  0
  5  6  2  0
  6  7  1  0
  7  8  1  0
  8  9  1  0
  8 10  2  0
 10 11  1  0
 11 12  2  0
 12 13  1  0
 15 13  1  0
 15 16  1  0
 16 17  1  0
 17 18  1  0
 18 21  1  0
 21 22  1  0
 22 23  1  0
 23 24  3  0
 18 19  1  0
 19 20  1  0
 13  1  1  0
 20 15  1  0
 12  3  1  0
 11  6  1  0
 27 28  1  0
  7 14  1  0
M  END
> <minimizedAffinity>
-8.13199

> <CNNscore>
0.4556713104

> <CNNaffinity>
7.2018208504

> <CNN_VS>
3.2816631794

> <CNNaffinity_variance>
0.0702839494

$$$$



 28 31  0  0  0  0  0  0  0  0999 V2000
    5.2443   54.5479    1.7208 C   0  0  0  0  0  0  0  0  0  0  0  0
    4.2752   55.4292    1.9356 N   0  0  0  0  0  0  0  0  0  0  0  0
    4.7200   56.6107    1.4146 C   0  0  0  0  0  0  0  0  0  0  0  0
    4.1167   57.8787    1.3293 C   0  0  0  0  0  0  0  0  0  0  0  0
    4.7179   58.9450    0.7179 N   0  0  0  0  0  0  0  0  0  0  0  0
    5.9193   58.6818    0.1782 C   0  0  0  0  0  0  0  0  0  0  0  0
    6.7145   59.5440   -0.5236 N   0  0  0  0  0  0  0  0  0  0  0  0
    7.8271   58.8674   -0.9364 C   0  0  0  0  0  0  0  0  0  0  0  0
    8.9716   59.7112   -1.8646 Cl  0  0  0  0  0  0  0  0  0  0  0  0
    7.7898   57.5609   -0.5056 C   0  0  0  0  0  0  0  0  0  0  0  0
    6.5774   57.4689    0.2235 C   0  0  0  0  0  0  0  0  0  0  0  0
    5.9792   56.4300    0.8761 C   0  0  0  0  0  0  0  0  0  0  0  0
    6.3590   55.1554    1.1435 N   0  0  0  0  0  0  0  0  0  0  0  0
    6.5185   60.4923   -0.7015 H   0  0  0  0  0  0  0  0  0  0  0  0
    7.6710   54.5600    0.9107 C   0  0  0  0  0  0  0  0  0  0  0  0
    8.8205   55.1346    1.7549 C   0  0  0  0  0  0  0  0  0  0  0  0
   10.1654   54.5338    1.3373 C   0  0  0  0  0  0  0  0  0  0  0  0
   10.1484   52.9975    1.4077 C   0  0  0  0  0  0  0  0  0  0  0  0
    8.9882   52.4316    0.5673 C   0  0  0  0  0  0  0  0  0  0  0  0
    7.6372   53.0287    0.9601 C   0  0  0  0  0  0  0  0  0  0  0  0
   11.4788   52.3696    0.9350 C   0  0  0  0  0  0  0  0  0  0  0  0
   11.4328   50.8689    0.6312 C   0  0  0  0  0  0  0  0  0  0  0  0
   12.4502   50.1174    1.3771 C   0  0  0  0  0  0  0  0  0  0  0  0
   13.2566   49.5340    1.9730 N   0  0  0  0  0  0  0  0  0  0  0  0
    5.2901   52.2226    0.7991 C   0  0  0  0  0  0  0  0  0  0  0  0
    5.0735   53.0901    2.0304 C   0  0  0  0  0  0  0  0  0  0  0  0
    6.0840   52.7660    2.9890 O   0  0  0  0  0  0  0  0  0  0  0  0
    6.9585   52.9496    2.6117 H   0  0  0  0  0  0  0  0  0  0  0  0
 26 25  1  0
 26 27  1  0
 26  1  1  0
  1  2  2  0
  2  3  1  0
  3  4  2  0
  4  5  1  0
  5  6  2  0
  6  7  1  0
  7  8  1  0
  8  9  1  0
  8 10  2  0
 10 11  1  0
 11 12  2  0
 12 13  1  0
 15 13  1  0
 15 16  1  0
 16 17  1  0
 17 18  1  0
 18 21  1  0
 21 22  1  0
 22 23  1  0
 23 24  3  0
 18 19  1  0
 19 20  1  0
 13  1  1  0
 20 15  1  0
 12  3  1  0
 11  6  1  0
 27 28  1  0
  7 14  1  0
M  END
> <minimizedAffinity>
-8.05999

> <CNNscore>
0.4501225948

> <CNNaffinity>
6.7906188965

> <CNN_VS>
3.0566110611

> <CNNaffinity_variance>
0.1422304660

$$$$



 28 31  0  0  0  0  0  0  0  0999 V2000
    5.3210   57.2383    0.8631 C   0  0  0  0  0  0  0  0  0  0  0  0
    5.2210   58.5435    0.6430 N   0  0  0  0  0  0  0  0  0  0  0  0
    6.3725   58.9058    0.0044 C   0  0  0  0  0  0  0  0  0  0  0  0
    6.8126   60.1456   -0.4941 C   0  0  0  0  0  0  0  0  0  0  0  0
    8.0005   60.2981   -1.1557 N   0  0  0  0  0  0  0  0  0  0  0  0
    8.7041   59.1658   -1.3194 C   0  0  0  0  0  0  0  0  0  0  0  0
    9.8944   59.0226   -1.9759 N   0  0  0  0  0  0  0  0  0  0  0  0
   10.2452   57.7025   -1.9524 C   0  0  0  0  0  0  0  0  0  0  0  0
   11.6821   57.2480   -2.7346 Cl  0  0  0  0  0  0  0  0  0  0  0  0
    9.3050   56.9614   -1.2737 C   0  0  0  0  0  0  0  0  0  0  0  0
    8.3429   57.9159   -0.8574 C   0  0  0  0  0  0  0  0  0  0  0  0
    7.1749   57.7937   -0.1619 C   0  0  0  0  0  0  0  0  0  0  0  0
    6.5633   56.7524    0.4562 N   0  0  0  0  0  0  0  0  0  0  0  0
   10.4115   59.7481   -2.3949 H   0  0  0  0  0  0  0  0  0  0  0  0
    7.1092   55.4177    0.6810 C   0  0  0  0  0  0  0  0  0  0  0  0
    7.6762   55.1599    2.0867 C   0  0  0  0  0  0  0  0  0  0  0  0
    8.3382   53.7819    2.1704 C   0  0  0  0  0  0  0  0  0  0  0  0
    7.3713   52.6603    1.7552 C   0  0  0  0  0  0  0  0  0  0  0  0
    6.8010   52.9319    0.3504 C   0  0  0  0  0  0  0  0  0  0  0  0
    6.1466   54.3089    0.2421 C   0  0  0  0  0  0  0  0  0  0  0  0
    8.0383   51.2667    1.7780 C   0  0  0  0  0  0  0  0  0  0  0  0
    7.1757   50.1276    2.3303 C   0  0  0  0  0  0  0  0  0  0  0  0
    7.9801   48.9764    2.7591 C   0  0  0  0  0  0  0  0  0  0  0  0
    8.6247   48.0746    3.1014 N   0  0  0  0  0  0  0  0  0  0  0  0
    4.6228   55.5887    2.6096 C   0  0  0  0  0  0  0  0  0  0  0  0
    4.1834   56.4397    1.4271 C   0  0  0  0  0  0  0  0  0  0  0  0
    3.2225   57.3907    1.8933 O   0  0  0  0  0  0  0  0  0  0  0  0
    3.6289   57.9568    2.5681 H   0  0  0  0  0  0  0  0  0  0  0  0
 26 25  1  0
 26 27  1  0
 26  1  1  0
  1  2  2  0
  2  3  1  0
  3  4  2  0
  4  5  1  0
  5  6  2  0
  6  7  1  0
  7  8  1  0
  8  9  1  0
  8 10  2  0
 10 11  1  0
 11 12  2  0
 12 13  1  0
 15 13  1  0
 15 16  1  0
 16 17  1  0
 17 18  1  0
 18 21  1  0
 21 22  1  0
 22 23  1  0
 23 24  3  0
 18 19  1  0
 19 20  1  0
 13  1  1  0
 20 15  1  0
 12  3  1  0
 11  6  1  0
 27 28  1  0
  7 14  1  0
M  END
> <minimizedAffinity>
-7.39395

> <CNNscore>
0.4380642474

> <CNNaffinity>
7.0332374573

> <CNN_VS>
3.0810098648

> <CNNaffinity_variance>
0.0320896432

$$$$



 28 31  0  0  0  0  0  0  0  0999 V2000
   10.4608   55.6078   -0.7838 C   0  0  0  0  0  0  0  0  0  0  0  0
   11.1012   56.4917   -1.5392 N   0  0  0  0  0  0  0  0  0  0  0  0
   10.2968   57.5942   -1.5908 C   0  0  0  0  0  0  0  0  0  0  0  0
   10.4636   58.8423   -2.2181 C   0  0  0  0  0  0  0  0  0  0  0  0
    9.5465   59.8524   -2.1126 N   0  0  0  0  0  0  0  0  0  0  0  0
    8.4851   59.5717   -1.3390 C   0  0  0  0  0  0  0  0  0  0  0  0
    7.4480   60.4061   -1.0280 N   0  0  0  0  0  0  0  0  0  0  0  0
    6.6039   59.7489   -0.1785 C   0  0  0  0  0  0  0  0  0  0  0  0
    5.2390   60.5840    0.3894 Cl  0  0  0  0  0  0  0  0  0  0  0  0
    7.0609   58.4752    0.0724 C   0  0  0  0  0  0  0  0  0  0  0  0
    8.2483   58.3733   -0.6954 C   0  0  0  0  0  0  0  0  0  0  0  0
    9.1542   57.3641   -0.8492 C   0  0  0  0  0  0  0  0  0  0  0  0
    9.2036   56.0816   -0.4097 N   0  0  0  0  0  0  0  0  0  0  0  0
    7.3295   61.3252   -1.3602 H   0  0  0  0  0  0  0  0  0  0  0  0
    8.1469   55.3439    0.2752 C   0  0  0  0  0  0  0  0  0  0  0  0
    7.8275   55.8139    1.7039 C   0  0  0  0  0  0  0  0  0  0  0  0
    6.8037   54.8921    2.3720 C   0  0  0  0  0  0  0  0  0  0  0  0
    5.5190   54.7682    1.5356 C   0  0  0  0  0  0  0  0  0  0  0  0
    5.8496   54.3066    0.1038 C   0  0  0  0  0  0  0  0  0  0  0  0
    6.8804   55.2068   -0.5766 C   0  0  0  0  0  0  0  0  0  0  0  0
    4.4956   53.7966    2.1649 C   0  0  0  0  0  0  0  0  0  0  0  0
    4.8676   52.3118    2.1058 C   0  0  0  0  0  0  0  0  0  0  0  0
    3.8869   51.5206    1.3518 C   0  0  0  0  0  0  0  0  0  0  0  0
    3.1214   50.8885    0.7516 N   0  0  0  0  0  0  0  0  0  0  0  0
   10.0456   53.2557   -0.0397 C   0  0  0  0  0  0  0  0  0  0  0  0
   11.0910   54.3092   -0.3755 C   0  0  0  0  0  0  0  0  0  0  0  0
   11.8357   53.8549   -1.5087 O   0  0  0  0  0  0  0  0  0  0  0  0
   11.2374   53.7384   -2.2632 H   0  0  0  0  0  0  0  0  0  0  0  0
 26 25  1  0
 26 27  1  0
 26  1  1  0
  1  2  2  0
  2  3  1  0
  3  4  2  0
  4  5  1  0
  5  6  2  0
  6  7  1  0
  7  8  1  0
  8  9  1  0
  8 10  2  0
 10 11  1  0
 11 12  2  0
 12 13  1  0
 15 13  1  0
 15 16  1  0
 16 17  1  0
 17 18  1  0
 18 21  1  0
 21 22  1  0
 22 23  1  0
 23 24  3  0
 18 19  1  0
 19 20  1  0
 13  1  1  0
 20 15  1  0
 12  3  1  0
 11  6  1  0
 27 28  1  0
  7 14  1  0
M  END
> <minimizedAffinity>
-8.04177

> <CNNscore>
0.4300656915

> <CNNaffinity>
6.8828196526

> <CNN_VS>
2.9600646496

> <CNNaffinity_variance>
0.1483186036

$$$$
