


 26 27  0  0  0  0  0  0  0  0999 V2000
  -33.5040  -71.1016  -51.0766 C   0  0  0  0  0  0  0  0  0  0  0  0
  -33.4920  -69.7830  -51.8981 C   0  0  0  0  0  0  0  0  0  0  0  0
  -32.5554  -68.7471  -51.2556 C   0  0  0  0  0  0  0  0  0  0  0  0
  -31.0878  -69.2295  -51.3015 C   0  0  0  0  0  0  0  0  0  0  0  0
  -30.9819  -70.7490  -51.0040 C   0  0  0  0  0  0  0  0  0  0  0  0
  -32.1943  -71.3301  -50.2706 C   0  0  0  0  0  0  0  0  0  0  0  0
  -30.1853  -68.4819  -50.2880 C   0  0  0  0  0  0  0  0  0  0  0  0
  -29.3515  -68.9865  -49.5478 O   0  0  0  0  0  0  0  0  0  0  0  0
  -30.3792  -67.1508  -50.2265 O   0  0  0  0  0  0  0  0  0  0  0  0
  -31.0125  -66.7433  -50.7841 H   0  0  0  0  0  0  0  0  0  0  0  0
  -34.5641  -73.1924  -51.5352 C   0  0  0  0  0  0  0  0  0  0  0  0
  -33.6991  -72.1718  -52.0203 O   0  0  0  0  0  0  0  0  0  0  0  0
  -30.5435  -69.1140  -52.6378 O   0  0  0  0  0  0  0  0  0  0  0  0
  -29.1735  -69.4512  -52.8001 C   0  0  0  0  0  0  0  0  0  0  0  0
  -32.3543  -70.7341  -48.9767 O   0  0  0  0  0  0  0  0  0  0  0  0
  -31.5182  -71.3057  -47.9791 C   0  0  0  0  0  0  0  0  0  0  0  0
  -34.9049  -69.1762  -52.0574 C   0  0  0  0  0  0  0  0  0  0  0  0
  -35.6588  -69.6803  -53.2938 C   0  0  0  0  0  0  0  0  0  0  0  0
  -36.8787  -70.5230  -52.9199 C   0  0  0  0  0  0  0  0  0  0  0  0
  -38.0229  -69.6721  -52.8565 O   0  0  0  0  0  0  0  0  0  0  0  0
  -38.9925  -69.9981  -51.9489 C   0  0  0  0  0  0  0  0  0  0  0  0
  -39.9007  -70.9650  -52.3885 C   0  0  0  0  0  0  0  0  0  0  0  0
  -40.9421  -71.3916  -51.5625 C   0  0  0  0  0  0  0  0  0  0  0  0
  -41.0816  -70.8502  -50.2871 C   0  0  0  0  0  0  0  0  0  0  0  0
  -40.1807  -69.8839  -49.8420 C   0  0  0  0  0  0  0  0  0  0  0  0
  -39.1379  -69.4573  -50.6707 C   0  0  0  0  0  0  0  0  0  0  0  0
 11 12  1  0
  1 12  1  0
  1  2  1  0
  2 17  1  0
 17 18  1  0
 18 19  1  0
 19 20  1  0
 20 21  1  0
 21 22  2  0
 22 23  1  0
 23 24  2  0
 24 25  1  0
 25 26  2  0
  2  3  1  0
  3  4  1  0
  4 13  1  0
 13 14  1  0
  4  7  1  0
  7  8  2  0
  7  9  1  0
  4  5  1  0
  5  6  1  0
  6 15  1  0
 15 16  1  0
  6  1  1  0
 26 21  1  0
  9 10  1  0
M  END
> <minimizedAffinity>
-4.83785

> <CNNscore>
0.3625298142

> <CNNaffinity>
4.1469311714

> <CNN_VS>
1.5033861399

> <CNNaffinity_variance>
0.1756968647

$$$$



 26 27  0  0  0  0  0  0  0  0999 V2000
  -30.4916  -70.1646  -50.4973 C   0  0  0  0  0  0  0  0  0  0  0  0
  -30.9169  -68.7273  -50.9058 C   0  0  0  0  0  0  0  0  0  0  0  0
  -30.3700  -67.6916  -49.9101 C   0  0  0  0  0  0  0  0  0  0  0  0
  -28.8255  -67.6507  -49.9519 C   0  0  0  0  0  0  0  0  0  0  0  0
  -28.2251  -69.0751  -50.0894 C   0  0  0  0  0  0  0  0  0  0  0  0
  -29.1762  -70.1995  -49.6692 C   0  0  0  0  0  0  0  0  0  0  0  0
  -28.2146  -66.9965  -48.6873 C   0  0  0  0  0  0  0  0  0  0  0  0
  -27.4817  -67.5387  -47.8708 O   0  0  0  0  0  0  0  0  0  0  0  0
  -28.5625  -65.7112  -48.4862 O   0  0  0  0  0  0  0  0  0  0  0  0
  -29.1227  -65.2762  -49.0986 H   0  0  0  0  0  0  0  0  0  0  0  0
  -28.9752  -70.9730  -52.1565 C   0  0  0  0  0  0  0  0  0  0  0  0
  -30.3281  -70.9078  -51.7201 O   0  0  0  0  0  0  0  0  0  0  0  0
  -28.3548  -66.9755  -51.1427 O   0  0  0  0  0  0  0  0  0  0  0  0
  -27.2191  -67.5347  -51.7865 C   0  0  0  0  0  0  0  0  0  0  0  0
  -29.5178  -70.1001  -48.2805 O   0  0  0  0  0  0  0  0  0  0  0  0
  -28.8344  -71.0362  -47.4575 C   0  0  0  0  0  0  0  0  0  0  0  0
  -32.4513  -68.5776  -51.0193 C   0  0  0  0  0  0  0  0  0  0  0  0
  -33.0021  -68.8937  -52.4149 C   0  0  0  0  0  0  0  0  0  0  0  0
  -34.0387  -70.0174  -52.3833 C   0  0  0  0  0  0  0  0  0  0  0  0
  -35.2038  -69.5487  -51.7050 O   0  0  0  0  0  0  0  0  0  0  0  0
  -36.4141  -69.9755  -52.1773 C   0  0  0  0  0  0  0  0  0  0  0  0
  -36.3441  -70.7746  -53.3217 C   0  0  0  0  0  0  0  0  0  0  0  0
  -37.5051  -71.2792  -53.9100 C   0  0  0  0  0  0  0  0  0  0  0  0
  -38.7477  -70.9852  -53.3548 C   0  0  0  0  0  0  0  0  0  0  0  0
  -38.8261  -70.1874  -52.2144 C   0  0  0  0  0  0  0  0  0  0  0  0
  -37.6621  -69.6822  -51.6260 C   0  0  0  0  0  0  0  0  0  0  0  0
 11 12  1  0
  1 12  1  0
  1  2  1  0
  2 17  1  0
 17 18  1  0
 18 19  1  0
 19 20  1  0
 20 21  1  0
 21 22  2  0
 22 23  1  0
 23 24  2  0
 24 25  1  0
 25 26  2  0
  2  3  1  0
  3  4  1  0
  4 13  1  0
 13 14  1  0
  4  7  1  0
  7  8  2  0
  7  9  1  0
  4  5  1  0
  5  6  1  0
  6 15  1  0
 15 16  1  0
  6  1  1  0
 26 21  1  0
  9 10  1  0
M  END
> <minimizedAffinity>
-5.21604

> <CNNscore>
0.2992407978

> <CNNaffinity>
4.0439205170

> <CNN_VS>
1.2101060152

> <CNNaffinity_variance>
0.3465183675

$$$$



 26 27  0  0  0  0  0  0  0  0999 V2000
  -32.3294  -68.7877  -50.1300 C   0  0  0  0  0  0  0  0  0  0  0  0
  -32.9567  -69.4429  -51.3913 C   0  0  0  0  0  0  0  0  0  0  0  0
  -31.9370  -69.5041  -52.5400 C   0  0  0  0  0  0  0  0  0  0  0  0
  -30.7589  -70.4377  -52.1803 C   0  0  0  0  0  0  0  0  0  0  0  0
  -30.3363  -70.2698  -50.6965 C   0  0  0  0  0  0  0  0  0  0  0  0
  -30.7847  -68.9498  -50.0625 C   0  0  0  0  0  0  0  0  0  0  0  0
  -29.5105  -70.1849  -53.0624 C   0  0  0  0  0  0  0  0  0  0  0  0
  -28.7197  -71.0295  -53.4612 O   0  0  0  0  0  0  0  0  0  0  0  0
  -29.2926  -68.8958  -53.3851 O   0  0  0  0  0  0  0  0  0  0  0  0
  -29.8852  -68.2325  -53.0905 H   0  0  0  0  0  0  0  0  0  0  0  0
  -33.4528  -70.7157  -49.2778 C   0  0  0  0  0  0  0  0  0  0  0  0
  -32.9448  -69.4178  -48.9906 O   0  0  0  0  0  0  0  0  0  0  0  0
  -31.1543  -71.8281  -52.2578 O   0  0  0  0  0  0  0  0  0  0  0  0
  -30.8724  -72.6357  -51.1240 C   0  0  0  0  0  0  0  0  0  0  0  0
  -30.1866  -67.8263  -50.7223 O   0  0  0  0  0  0  0  0  0  0  0  0
  -28.9571  -67.4128  -50.1410 C   0  0  0  0  0  0  0  0  0  0  0  0
  -34.2293  -68.7049  -51.8664 C   0  0  0  0  0  0  0  0  0  0  0  0
  -34.8419  -69.2888  -53.1450 C   0  0  0  0  0  0  0  0  0  0  0  0
  -35.9176  -70.3328  -52.8427 C   0  0  0  0  0  0  0  0  0  0  0  0
  -37.1949  -69.6963  -52.8664 O   0  0  0  0  0  0  0  0  0  0  0  0
  -38.0576  -69.9919  -51.8473 C   0  0  0  0  0  0  0  0  0  0  0  0
  -37.4458  -70.2027  -50.6086 C   0  0  0  0  0  0  0  0  0  0  0  0
  -38.2085  -70.5124  -49.4813 C   0  0  0  0  0  0  0  0  0  0  0  0
  -39.5932  -70.6142  -49.5875 C   0  0  0  0  0  0  0  0  0  0  0  0
  -40.2109  -70.4071  -50.8200 C   0  0  0  0  0  0  0  0  0  0  0  0
  -39.4455  -70.0970  -51.9488 C   0  0  0  0  0  0  0  0  0  0  0  0
 11 12  1  0
  1 12  1  0
  1  2  1  0
  2 17  1  0
 17 18  1  0
 18 19  1  0
 19 20  1  0
 20 21  1  0
 21 22  2  0
 22 23  1  0
 23 24  2  0
 24 25  1  0
 25 26  2  0
  2  3  1  0
  3  4  1  0
  4 13  1  0
 13 14  1  0
  4  7  1  0
  7  8  2  0
  7  9  1  0
  4  5  1  0
  5  6  1  0
  6 15  1  0
 15 16  1  0
  6  1  1  0
 26 21  1  0
  9 10  1  0
M  END
> <minimizedAffinity>
-5.05235

> <CNNscore>
0.2832815349

> <CNNaffinity>
4.2565054893

> <CNN_VS>
1.2057894468

> <CNNaffinity_variance>
0.4180189669

$$$$



 26 27  0  0  0  0  0  0  0  0999 V2000
  -41.9536  -60.4484  -48.5542 C   0  0  0  0  0  0  0  0  0  0  0  0
  -40.8240  -60.1545  -47.5290 C   0  0  0  0  0  0  0  0  0  0  0  0
  -39.4684  -60.6590  -48.0495 C   0  0  0  0  0  0  0  0  0  0  0  0
  -39.0394  -59.8784  -49.3127 C   0  0  0  0  0  0  0  0  0  0  0  0
  -40.2469  -59.6110  -50.2501 C   0  0  0  0  0  0  0  0  0  0  0  0
  -41.4391  -60.5438  -50.0182 C   0  0  0  0  0  0  0  0  0  0  0  0
  -37.9565  -60.6243  -50.1321 C   0  0  0  0  0  0  0  0  0  0  0  0
  -36.7558  -60.6486  -49.8967 O   0  0  0  0  0  0  0  0  0  0  0  0
  -38.4136  -61.2819  -51.2147 O   0  0  0  0  0  0  0  0  0  0  0  0
  -39.3291  -61.2766  -51.4140 H   0  0  0  0  0  0  0  0  0  0  0  0
  -43.4460  -59.2555  -47.1206 C   0  0  0  0  0  0  0  0  0  0  0  0
  -42.9079  -59.3768  -48.4324 O   0  0  0  0  0  0  0  0  0  0  0  0
  -38.5823  -58.5478  -48.9720 O   0  0  0  0  0  0  0  0  0  0  0  0
  -38.6463  -58.1829  -47.6009 C   0  0  0  0  0  0  0  0  0  0  0  0
  -41.0907  -61.9089  -50.2830 O   0  0  0  0  0  0  0  0  0  0  0  0
  -41.4601  -62.3491  -51.5832 C   0  0  0  0  0  0  0  0  0  0  0  0
  -41.1110  -60.7761  -46.1429 C   0  0  0  0  0  0  0  0  0  0  0  0
  -39.9056  -60.7584  -45.1954 C   0  0  0  0  0  0  0  0  0  0  0  0
  -40.2580  -61.2914  -43.8062 C   0  0  0  0  0  0  0  0  0  0  0  0
  -39.1710  -61.0217  -42.9214 O   0  0  0  0  0  0  0  0  0  0  0  0
  -37.9076  -61.1970  -43.4146 C   0  0  0  0  0  0  0  0  0  0  0  0
  -37.0748  -61.9862  -42.6167 C   0  0  0  0  0  0  0  0  0  0  0  0
  -35.7584  -62.2467  -43.0011 C   0  0  0  0  0  0  0  0  0  0  0  0
  -35.2655  -61.7161  -44.1904 C   0  0  0  0  0  0  0  0  0  0  0  0
  -36.0894  -60.9265  -44.9911 C   0  0  0  0  0  0  0  0  0  0  0  0
  -37.4081  -60.6661  -44.6047 C   0  0  0  0  0  0  0  0  0  0  0  0
 11 12  1  0
  1 12  1  0
  1  2  1  0
  2 17  1  0
 17 18  1  0
 18 19  1  0
 19 20  1  0
 20 21  1  0
 21 22  2  0
 22 23  1  0
 23 24  2  0
 24 25  1  0
 25 26  2  0
  2  3  1  0
  3  4  1  0
  4 13  1  0
 13 14  1  0
  4  7  1  0
  7  8  2  0
  7  9  1  0
  4  5  1  0
  5  6  1  0
  6 15  1  0
 15 16  1  0
  6  1  1  0
 26 21  1  0
  9 10  1  0
M  END
> <minimizedAffinity>
-5.73996

> <CNNscore>
0.2425804883

> <CNNaffinity>
4.6211504936

> <CNN_VS>
1.1210008860

> <CNNaffinity_variance>
0.2370439619

$$$$



 26 27  0  0  0  0  0  0  0  0999 V2000
  -41.9036  -60.6511  -45.9802 C   0  0  0  0  0  0  0  0  0  0  0  0
  -41.7802  -59.5805  -47.0992 C   0  0  0  0  0  0  0  0  0  0  0  0
  -43.0454  -59.5536  -47.9719 C   0  0  0  0  0  0  0  0  0  0  0  0
  -44.2712  -59.0954  -47.1494 C   0  0  0  0  0  0  0  0  0  0  0  0
  -44.2542  -59.7035  -45.7217 C   0  0  0  0  0  0  0  0  0  0  0  0
  -43.3763  -60.9506  -45.5820 C   0  0  0  0  0  0  0  0  0  0  0  0
  -45.6136  -59.4856  -47.8173 C   0  0  0  0  0  0  0  0  0  0  0  0
  -46.2666  -58.7985  -48.5914 O   0  0  0  0  0  0  0  0  0  0  0  0
  -46.0901  -60.6972  -47.4731 O   0  0  0  0  0  0  0  0  0  0  0  0
  -45.6067  -61.2400  -46.8819 H   0  0  0  0  0  0  0  0  0  0  0  0
  -41.5182  -60.7963  -43.6273 C   0  0  0  0  0  0  0  0  0  0  0  0
  -41.1757  -60.1449  -44.8453 O   0  0  0  0  0  0  0  0  0  0  0  0
  -44.2294  -57.6694  -46.9036 O   0  0  0  0  0  0  0  0  0  0  0  0
  -44.9769  -57.1910  -45.7949 C   0  0  0  0  0  0  0  0  0  0  0  0
  -43.8557  -62.0195  -46.4081 O   0  0  0  0  0  0  0  0  0  0  0  0
  -43.5070  -63.3111  -45.9276 C   0  0  0  0  0  0  0  0  0  0  0  0
  -40.5386  -59.8037  -47.9927 C   0  0  0  0  0  0  0  0  0  0  0  0
  -39.2732  -59.1070  -47.4786 C   0  0  0  0  0  0  0  0  0  0  0  0
  -38.1826  -60.1067  -47.0921 C   0  0  0  0  0  0  0  0  0  0  0  0
  -37.4621  -59.5909  -45.9732 O   0  0  0  0  0  0  0  0  0  0  0  0
  -37.0896  -60.4835  -45.0064 C   0  0  0  0  0  0  0  0  0  0  0  0
  -35.7527  -60.8857  -45.0686 C   0  0  0  0  0  0  0  0  0  0  0  0
  -35.2385  -61.7942  -44.1419 C   0  0  0  0  0  0  0  0  0  0  0  0
  -36.0627  -62.3082  -43.1442 C   0  0  0  0  0  0  0  0  0  0  0  0
  -37.3979  -61.9134  -43.0765 C   0  0  0  0  0  0  0  0  0  0  0  0
  -37.9119  -61.0031  -44.0058 C   0  0  0  0  0  0  0  0  0  0  0  0
 11 12  1  0
  1 12  1  0
  1  2  1  0
  2 17  1  0
 17 18  1  0
 18 19  1  0
 19 20  1  0
 20 21  1  0
 21 22  2  0
 22 23  1  0
 23 24  2  0
 24 25  1  0
 25 26  2  0
  2  3  1  0
  3  4  1  0
  4 13  1  0
 13 14  1  0
  4  7  1  0
  7  8  2  0
  7  9  1  0
  4  5  1  0
  5  6  1  0
  6 15  1  0
 15 16  1  0
  6  1  1  0
 26 21  1  0
  9 10  1  0
M  END
> <minimizedAffinity>
-6.97047

> <CNNscore>
0.2338807881

> <CNNaffinity>
3.6343231201

> <CNN_VS>
0.8499983549

> <CNNaffinity_variance>
1.3529847860

$$$$



 26 27  0  0  0  0  0  0  0  0999 V2000
  -45.5264  -63.7264  -42.5384 C   0  0  0  0  0  0  0  0  0  0  0  0
  -45.7796  -63.1780  -43.9698 C   0  0  0  0  0  0  0  0  0  0  0  0
  -44.4512  -62.9098  -44.6954 C   0  0  0  0  0  0  0  0  0  0  0  0
  -43.6777  -64.2271  -44.9310 C   0  0  0  0  0  0  0  0  0  0  0  0
  -43.7835  -65.1726  -43.7050 C   0  0  0  0  0  0  0  0  0  0  0  0
  -44.1666  -64.4674  -42.4007 C   0  0  0  0  0  0  0  0  0  0  0  0
  -42.1743  -63.9889  -45.2203 C   0  0  0  0  0  0  0  0  0  0  0  0
  -41.5823  -62.9198  -45.1542 O   0  0  0  0  0  0  0  0  0  0  0  0
  -41.4869  -65.0829  -45.5998 O   0  0  0  0  0  0  0  0  0  0  0  0
  -41.9201  -65.9118  -45.6572 H   0  0  0  0  0  0  0  0  0  0  0  0
  -47.0208  -64.5795  -40.8818 C   0  0  0  0  0  0  0  0  0  0  0  0
  -46.6131  -64.6245  -42.2444 O   0  0  0  0  0  0  0  0  0  0  0  0
  -44.2774  -64.9990  -45.9986 O   0  0  0  0  0  0  0  0  0  0  0  0
  -45.3156  -65.8960  -45.6318 C   0  0  0  0  0  0  0  0  0  0  0  0
  -43.1714  -63.5103  -42.0151 O   0  0  0  0  0  0  0  0  0  0  0  0
  -43.5837  -62.6546  -40.9576 C   0  0  0  0  0  0  0  0  0  0  0  0
  -46.6361  -61.8911  -43.9638 C   0  0  0  0  0  0  0  0  0  0  0  0
  -47.3355  -61.6074  -45.2985 C   0  0  0  0  0  0  0  0  0  0  0  0
  -46.8687  -60.2927  -45.9246 C   0  0  0  0  0  0  0  0  0  0  0  0
  -46.4823  -60.5393  -47.2762 O   0  0  0  0  0  0  0  0  0  0  0  0
  -47.1331  -59.8326  -48.2495 C   0  0  0  0  0  0  0  0  0  0  0  0
  -48.5091  -59.6945  -48.0478 C   0  0  0  0  0  0  0  0  0  0  0  0
  -49.2966  -58.9959  -48.9645 C   0  0  0  0  0  0  0  0  0  0  0  0
  -48.7095  -58.4298  -50.0931 C   0  0  0  0  0  0  0  0  0  0  0  0
  -47.3378  -58.5646  -50.3024 C   0  0  0  0  0  0  0  0  0  0  0  0
  -46.5500  -59.2650  -49.3832 C   0  0  0  0  0  0  0  0  0  0  0  0
 11 12  1  0
  1 12  1  0
  1  2  1  0
  2 17  1  0
 17 18  1  0
 18 19  1  0
 19 20  1  0
 20 21  1  0
 21 22  2  0
 22 23  1  0
 23 24  2  0
 24 25  1  0
 25 26  2  0
  2  3  1  0
  3  4  1  0
  4 13  1  0
 13 14  1  0
  4  7  1  0
  7  8  2  0
  7  9  1  0
  4  5  1  0
  5  6  1  0
  6 15  1  0
 15 16  1  0
  6  1  1  0
 26 21  1  0
  9 10  1  0
M  END
> <minimizedAffinity>
-4.34867

> <CNNscore>
0.2316774130

> <CNNaffinity>
3.9958899021

> <CNN_VS>
0.9257574081

> <CNNaffinity_variance>
0.2087951303

$$$$



 26 27  0  0  0  0  0  0  0  0999 V2000
  -31.2477  -69.3717  -50.0795 C   0  0  0  0  0  0  0  0  0  0  0  0
  -32.0853  -69.8550  -51.2954 C   0  0  0  0  0  0  0  0  0  0  0  0
  -31.3741  -69.5212  -52.6166 C   0  0  0  0  0  0  0  0  0  0  0  0
  -30.0479  -70.3053  -52.7407 C   0  0  0  0  0  0  0  0  0  0  0  0
  -29.2997  -70.3703  -51.3826 C   0  0  0  0  0  0  0  0  0  0  0  0
  -29.7245  -69.2928  -50.3807 C   0  0  0  0  0  0  0  0  0  0  0  0
  -29.0865  -69.6841  -53.7848 C   0  0  0  0  0  0  0  0  0  0  0  0
  -28.8204  -70.1400  -54.8889 O   0  0  0  0  0  0  0  0  0  0  0  0
  -28.4858  -68.5427  -53.3979 O   0  0  0  0  0  0  0  0  0  0  0  0
  -28.6747  -68.1758  -52.5566 H   0  0  0  0  0  0  0  0  0  0  0  0
  -32.8346  -70.2662  -48.5344 C   0  0  0  0  0  0  0  0  0  0  0  0
  -31.4949  -70.3068  -49.0125 O   0  0  0  0  0  0  0  0  0  0  0  0
  -30.2937  -71.6976  -53.0515 O   0  0  0  0  0  0  0  0  0  0  0  0
  -29.7054  -72.6579  -52.1862 C   0  0  0  0  0  0  0  0  0  0  0  0
  -29.4325  -67.9791  -50.8746 O   0  0  0  0  0  0  0  0  0  0  0  0
  -29.0208  -67.0689  -49.8632 C   0  0  0  0  0  0  0  0  0  0  0  0
  -33.5088  -69.2522  -51.3061 C   0  0  0  0  0  0  0  0  0  0  0  0
  -34.5411  -70.1168  -52.0395 C   0  0  0  0  0  0  0  0  0  0  0  0
  -35.0494  -69.4469  -53.3167 C   0  0  0  0  0  0  0  0  0  0  0  0
  -36.4265  -69.7781  -53.4923 O   0  0  0  0  0  0  0  0  0  0  0  0
  -36.7101  -70.8940  -54.2303 C   0  0  0  0  0  0  0  0  0  0  0  0
  -37.9219  -71.5120  -53.9100 C   0  0  0  0  0  0  0  0  0  0  0  0
  -38.3357  -72.6611  -54.5858 C   0  0  0  0  0  0  0  0  0  0  0  0
  -37.5357  -73.2011  -55.5895 C   0  0  0  0  0  0  0  0  0  0  0  0
  -36.3246  -72.5915  -55.9138 C   0  0  0  0  0  0  0  0  0  0  0  0
  -35.9111  -71.4403  -55.2356 C   0  0  0  0  0  0  0  0  0  0  0  0
 11 12  1  0
  1 12  1  0
  1  2  1  0
  2 17  1  0
 17 18  1  0
 18 19  1  0
 19 20  1  0
 20 21  1  0
 21 22  2  0
 22 23  1  0
 23 24  2  0
 24 25  1  0
 25 26  2  0
  2  3  1  0
  3  4  1  0
  4 13  1  0
 13 14  1  0
  4  7  1  0
  7  8  2  0
  7  9  1  0
  4  5  1  0
  5  6  1  0
  6 15  1  0
 15 16  1  0
  6  1  1  0
 26 21  1  0
  9 10  1  0
M  END
> <minimizedAffinity>
-4.22022

> <CNNscore>
0.2042630613

> <CNNaffinity>
4.1248607635

> <CNN_VS>
0.8425567150

> <CNNaffinity_variance>
0.0892100558

$$$$



 26 27  0  0  0  0  0  0  0  0999 V2000
  -43.0154  -60.0793  -42.1241 C   0  0  0  0  0  0  0  0  0  0  0  0
  -41.6346  -60.3060  -42.7991 C   0  0  0  0  0  0  0  0  0  0  0  0
  -41.7629  -61.2565  -44.0005 C   0  0  0  0  0  0  0  0  0  0  0  0
  -42.6243  -60.6207  -45.1152 C   0  0  0  0  0  0  0  0  0  0  0  0
  -43.8366  -59.8525  -44.5250 C   0  0  0  0  0  0  0  0  0  0  0  0
  -44.2104  -60.2709  -43.1000 C   0  0  0  0  0  0  0  0  0  0  0  0
  -43.1676  -61.6704  -46.1169 C   0  0  0  0  0  0  0  0  0  0  0  0
  -44.1823  -61.5714  -46.7939 O   0  0  0  0  0  0  0  0  0  0  0  0
  -42.4390  -62.7990  -46.2106 O   0  0  0  0  0  0  0  0  0  0  0  0
  -41.6585  -62.8963  -45.7014 H   0  0  0  0  0  0  0  0  0  0  0  0
  -44.2687  -58.3222  -41.1006 C   0  0  0  0  0  0  0  0  0  0  0  0
  -43.0053  -58.7342  -41.6098 O   0  0  0  0  0  0  0  0  0  0  0  0
  -41.8886  -59.5910  -45.8179 O   0  0  0  0  0  0  0  0  0  0  0  0
  -40.9175  -60.0289  -46.7572 C   0  0  0  0  0  0  0  0  0  0  0  0
  -44.6139  -61.6455  -43.0504 O   0  0  0  0  0  0  0  0  0  0  0  0
  -43.5467  -62.5604  -43.2619 C   0  0  0  0  0  0  0  0  0  0  0  0
  -40.5805  -60.8573  -41.8119 C   0  0  0  0  0  0  0  0  0  0  0  0
  -39.4493  -59.8703  -41.5000 C   0  0  0  0  0  0  0  0  0  0  0  0
  -38.0787  -60.5484  -41.4968 C   0  0  0  0  0  0  0  0  0  0  0  0
  -38.0559  -61.5431  -42.5201 O   0  0  0  0  0  0  0  0  0  0  0  0
  -37.1665  -61.3644  -43.5434 C   0  0  0  0  0  0  0  0  0  0  0  0
  -37.6984  -60.7416  -44.6757 C   0  0  0  0  0  0  0  0  0  0  0  0
  -36.9006  -60.4970  -45.7948 C   0  0  0  0  0  0  0  0  0  0  0  0
  -35.5609  -60.8765  -45.7874 C   0  0  0  0  0  0  0  0  0  0  0  0
  -35.0232  -61.4999  -44.6624 C   0  0  0  0  0  0  0  0  0  0  0  0
  -35.8237  -61.7446  -43.5419 C   0  0  0  0  0  0  0  0  0  0  0  0
 11 12  1  0
  1 12  1  0
  1  2  1  0
  2 17  1  0
 17 18  1  0
 18 19  1  0
 19 20  1  0
 20 21  1  0
 21 22  2  0
 22 23  1  0
 23 24  2  0
 24 25  1  0
 25 26  2  0
  2  3  1  0
  3  4  1  0
  4 13  1  0
 13 14  1  0
  4  7  1  0
  7  8  2  0
  7  9  1  0
  4  5  1  0
  5  6  1  0
  6 15  1  0
 15 16  1  0
  6  1  1  0
 26 21  1  0
  9 10  1  0
M  END
> <minimizedAffinity>
-5.69894

> <CNNscore>
0.1999092251

> <CNNaffinity>
3.7590379715

> <CNN_VS>
0.7514663935

> <CNNaffinity_variance>
0.8404538035

$$$$



 26 27  0  0  0  0  0  0  0  0999 V2000
  -43.3807  -61.7737  -44.2216 C   0  0  0  0  0  0  0  0  0  0  0  0
  -42.5589  -60.4634  -44.0748 C   0  0  0  0  0  0  0  0  0  0  0  0
  -41.7039  -60.2110  -45.3272 C   0  0  0  0  0  0  0  0  0  0  0  0
  -42.5985  -59.9551  -46.5613 C   0  0  0  0  0  0  0  0  0  0  0  0
  -43.8343  -60.8938  -46.5691 C   0  0  0  0  0  0  0  0  0  0  0  0
  -43.6756  -62.1461  -45.7020 C   0  0  0  0  0  0  0  0  0  0  0  0
  -41.8392  -60.1564  -47.8968 C   0  0  0  0  0  0  0  0  0  0  0  0
  -41.8426  -61.1655  -48.5893 O   0  0  0  0  0  0  0  0  0  0  0  0
  -41.0957  -59.1061  -48.2933 O   0  0  0  0  0  0  0  0  0  0  0  0
  -41.0783  -58.3234  -47.7784 H   0  0  0  0  0  0  0  0  0  0  0  0
  -44.4157  -61.1099  -42.1738 C   0  0  0  0  0  0  0  0  0  0  0  0
  -44.6136  -61.5676  -43.5066 O   0  0  0  0  0  0  0  0  0  0  0  0
  -43.1860  -58.6329  -46.5131 O   0  0  0  0  0  0  0  0  0  0  0  0
  -44.5689  -58.5376  -46.8221 C   0  0  0  0  0  0  0  0  0  0  0  0
  -42.6074  -62.9758  -46.1770 O   0  0  0  0  0  0  0  0  0  0  0  0
  -42.2257  -63.9932  -45.2605 C   0  0  0  0  0  0  0  0  0  0  0  0
  -41.6531  -60.4742  -42.8221 C   0  0  0  0  0  0  0  0  0  0  0  0
  -40.5615  -61.5503  -42.8574 C   0  0  0  0  0  0  0  0  0  0  0  0
  -39.3063  -61.1216  -42.0965 C   0  0  0  0  0  0  0  0  0  0  0  0
  -38.2589  -62.0494  -42.3784 O   0  0  0  0  0  0  0  0  0  0  0  0
  -37.3444  -61.6872  -43.3284 C   0  0  0  0  0  0  0  0  0  0  0  0
  -37.8438  -60.8479  -44.3280 C   0  0  0  0  0  0  0  0  0  0  0  0
  -37.0180  -60.4011  -45.3610 C   0  0  0  0  0  0  0  0  0  0  0  0
  -35.6826  -60.7938  -45.4002 C   0  0  0  0  0  0  0  0  0  0  0  0
  -35.1773  -61.6322  -44.4078 C   0  0  0  0  0  0  0  0  0  0  0  0
  -36.0058  -62.0794  -43.3734 C   0  0  0  0  0  0  0  0  0  0  0  0
 11 12  1  0
  1 12  1  0
  1  2  1  0
  2 17  1  0
 17 18  1  0
 18 19  1  0
 19 20  1  0
 20 21  1  0
 21 22  2  0
 22 23  1  0
 23 24  2  0
 24 25  1  0
 25 26  2  0
  2  3  1  0
  3  4  1  0
  4 13  1  0
 13 14  1  0
  4  7  1  0
  7  8  2  0
  7  9  1  0
  4  5  1  0
  5  6  1  0
  6 15  1  0
 15 16  1  0
  6  1  1  0
 26 21  1  0
  9 10  1  0
M  END
> <minimizedAffinity>
-6.61267

> <CNNscore>
0.1856501102

> <CNNaffinity>
3.4877564907

> <CNN_VS>
0.6475023627

> <CNNaffinity_variance>
1.2278870344

$$$$
