


 38 44  0  0  0  0  0  0  0  0999 V2000
    3.8122   12.7108   24.2084 C   0  0  0  0  0  0  0  0  0  0  0  0
    4.9962   11.8138   23.8947 C   0  0  0  0  0  0  0  0  0  0  0  0
    4.9843   10.6296   23.1678 C   0  0  0  0  0  0  0  0  0  0  0  0
    6.1791    9.9229   23.0419 C   0  0  0  0  0  0  0  0  0  0  0  0
    7.3466   10.4011   23.6534 C   0  0  0  0  0  0  0  0  0  0  0  0
    8.9484    9.4045   23.4949 Br  0  0  0  0  0  0  0  0  0  0  0  0
    7.3538   11.5952   24.3833 C   0  0  0  0  0  0  0  0  0  0  0  0
    6.1774   12.3237   24.4813 C   0  0  0  0  0  0  0  0  0  0  0  0
    5.8654   13.5796   25.1560 C   0  0  0  0  0  0  0  0  0  0  0  0
    6.6524   14.5085   25.8376 C   0  0  0  0  0  0  0  0  0  0  0  0
    6.0099   15.6039   26.4462 C   0  0  0  0  0  0  0  0  0  0  0  0
    4.6251   15.8004   26.3340 C   0  0  0  0  0  0  0  0  0  0  0  0
    3.8448   14.9052   25.6094 C   0  0  0  0  0  0  0  0  0  0  0  0
    4.4689   13.8047   25.0357 C   0  0  0  0  0  0  0  0  0  0  0  0
    8.1042   14.4401   25.9146 C   0  0  0  0  0  0  0  0  0  0  0  0
    8.9170   13.8853   25.0364 N   0  0  0  0  0  0  0  0  0  0  0  0
   10.1832   14.0309   25.5505 C   0  0  0  0  0  0  0  0  0  0  0  0
   11.4125   13.6421   25.0212 C   0  0  0  0  0  0  0  0  0  0  0  0
   12.5200   13.9387   25.8003 C   0  0  0  0  0  0  0  0  0  0  0  0
   12.4801   14.5609   27.0040 N   0  0  0  0  0  0  0  0  0  0  0  0
   11.2844   14.9359   27.5162 C   0  0  0  0  0  0  0  0  0  0  0  0
   10.1425   14.6675   26.7825 C   0  0  0  0  0  0  0  0  0  0  0  0
    8.8122   14.9017   27.0020 N   0  0  0  0  0  0  0  0  0  0  0  0
    8.4267   15.3278   27.8014 H   0  0  0  0  0  0  0  0  0  0  0  0
    1.4607   11.5588   23.1863 O   0  0  0  0  0  0  0  0  0  0  0  0
    1.6885   11.4909   24.3889 C   0  0  0  0  0  0  0  0  0  0  0  0
    2.8248   11.9908   24.9748 N   0  0  0  0  0  0  0  0  0  0  0  0
    2.9690   11.8549   25.9392 H   0  0  0  0  0  0  0  0  0  0  0  0
    0.6808   10.9041   25.2981 C   0  0  0  0  0  0  0  0  0  0  0  0
   -0.6427   11.3506   25.2027 C   0  0  0  0  0  0  0  0  0  0  0  0
   -1.5902   10.8197   26.0614 C   0  0  0  0  0  0  0  0  0  0  0  0
   -1.3556    9.8832   27.0052 N   0  0  0  0  0  0  0  0  0  0  0  0
   -0.0771    9.4678   27.0377 C   0  0  0  0  0  0  0  0  0  0  0  0
    0.3913    8.5090   27.8930 N   0  0  0  0  0  0  0  0  0  0  0  0
    1.7231    8.2887   27.6581 C   0  0  0  0  0  0  0  0  0  0  0  0
    2.1139    9.1285   26.6363 C   0  0  0  0  0  0  0  0  0  0  0  0
    0.9809    9.9020   26.2430 C   0  0  0  0  0  0  0  0  0  0  0  0
   -0.1474    8.0466   28.5750 H   0  0  0  0  0  0  0  0  0  0  0  0
 25 26  2  0
 26 27  1  0
  1 27  1  0
  1  2  1  0
  2  3  2  0
  3  4  1  0
  4  5  2  0
  5  6  1  0
  5  7  1  0
  7  8  2  0
  8  9  1  0
  9 10  2  0
 10 15  1  0
 15 16  2  0
 16 17  1  0
 17 18  2  0
 18 19  1  0
 19 20  2  0
 20 21  1  0
 21 22  2  0
 22 23  1  0
 10 11  1  0
 11 12  2  0
 12 13  1  0
 13 14  2  0
 26 29  1  0
 29 30  2  0
 30 31  1  0
 31 32  2  0
 32 33  1  0
 33 34  1  0
 34 35  1  0
 35 36  2  0
 36 37  1  0
 14  1  1  0
 37 29  1  0
  8  2  1  0
 14  9  1  0
 37 33  2  0
 23 15  1  0
 22 17  1  0
 27 28  1  0
 23 24  1  0
 34 38  1  0
M  END
> <minimizedAffinity>
-13.98604

> <CNNscore>
0.9424680471

> <CNNaffinity>
8.6972398758

> <CNN_VS>
8.1968708038

> <CNNaffinity_variance>
0.0830553547

$$$$



 38 44  0  0  0  0  0  0  0  0999 V2000
    3.9028   12.7735   24.0091 C   0  0  0  0  0  0  0  0  0  0  0  0
    5.0995   11.8944   23.6934 C   0  0  0  0  0  0  0  0  0  0  0  0
    5.1208   10.7594   22.8920 C   0  0  0  0  0  0  0  0  0  0  0  0
    6.3197   10.0581   22.7762 C   0  0  0  0  0  0  0  0  0  0  0  0
    7.4579   10.4918   23.4707 C   0  0  0  0  0  0  0  0  0  0  0  0
    9.0647    9.5017   23.3225 Br  0  0  0  0  0  0  0  0  0  0  0  0
    7.4319   11.6364   24.2755 C   0  0  0  0  0  0  0  0  0  0  0  0
    6.2526   12.3612   24.3657 C   0  0  0  0  0  0  0  0  0  0  0  0
    5.9103   13.5723   25.1047 C   0  0  0  0  0  0  0  0  0  0  0  0
    6.6653   14.4526   25.8804 C   0  0  0  0  0  0  0  0  0  0  0  0
    5.9959   15.5089   26.5279 C   0  0  0  0  0  0  0  0  0  0  0  0
    4.6178   15.7171   26.3646 C   0  0  0  0  0  0  0  0  0  0  0  0
    3.8715   14.8731   25.5485 C   0  0  0  0  0  0  0  0  0  0  0  0
    4.5210   13.8096   24.9347 C   0  0  0  0  0  0  0  0  0  0  0  0
    8.1120   14.3743   26.0199 C   0  0  0  0  0  0  0  0  0  0  0  0
    8.9705   13.9388   25.1183 N   0  0  0  0  0  0  0  0  0  0  0  0
   10.2088   14.0155   25.7094 C   0  0  0  0  0  0  0  0  0  0  0  0
   11.4651   13.6989   25.1956 C   0  0  0  0  0  0  0  0  0  0  0  0
   12.5310   13.8907   26.0609 C   0  0  0  0  0  0  0  0  0  0  0  0
   12.4279   14.3501   27.3321 N   0  0  0  0  0  0  0  0  0  0  0  0
   11.2060   14.6553   27.8287 C   0  0  0  0  0  0  0  0  0  0  0  0
   10.1035   14.4856   27.0104 C   0  0  0  0  0  0  0  0  0  0  0  0
    8.7625   14.6895   27.1922 N   0  0  0  0  0  0  0  0  0  0  0  0
    8.3354   15.0075   28.0203 H   0  0  0  0  0  0  0  0  0  0  0  0
    4.2992   10.3547   25.3852 O   0  0  0  0  0  0  0  0  0  0  0  0
    3.1676   10.8182   25.3005 C   0  0  0  0  0  0  0  0  0  0  0  0
    2.8805   12.0092   24.6810 N   0  0  0  0  0  0  0  0  0  0  0  0
    1.9566   12.3491   24.6956 H   0  0  0  0  0  0  0  0  0  0  0  0
    2.0162   10.0527   25.8244 C   0  0  0  0  0  0  0  0  0  0  0  0
    2.2366    9.1531   26.8744 C   0  0  0  0  0  0  0  0  0  0  0  0
    1.1680    8.4190   27.3603 C   0  0  0  0  0  0  0  0  0  0  0  0
   -0.1027    8.4922   26.9100 N   0  0  0  0  0  0  0  0  0  0  0  0
   -0.2672    9.3892   25.9219 C   0  0  0  0  0  0  0  0  0  0  0  0
   -1.4690    9.6545   25.3256 N   0  0  0  0  0  0  0  0  0  0  0  0
   -1.3117   10.6346   24.3812 C   0  0  0  0  0  0  0  0  0  0  0  0
    0.0188   10.9977   24.3703 C   0  0  0  0  0  0  0  0  0  0  0  0
    0.7025   10.1976   25.3340 C   0  0  0  0  0  0  0  0  0  0  0  0
   -2.3194    9.2084   25.5424 H   0  0  0  0  0  0  0  0  0  0  0  0
 25 26  2  0
 26 27  1  0
  1 27  1  0
  1  2  1  0
  2  3  2  0
  3  4  1  0
  4  5  2  0
  5  6  1  0
  5  7  1  0
  7  8  2  0
  8  9  1  0
  9 10  2  0
 10 15  1  0
 15 16  2  0
 16 17  1  0
 17 18  2  0
 18 19  1  0
 19 20  2  0
 20 21  1  0
 21 22  2  0
 22 23  1  0
 10 11  1  0
 11 12  2  0
 12 13  1  0
 13 14  2  0
 26 29  1  0
 29 30  2  0
 30 31  1  0
 31 32  2  0
 32 33  1  0
 33 34  1  0
 34 35  1  0
 35 36  2  0
 36 37  1  0
 14  1  1  0
 37 29  1  0
  8  2  1  0
 14  9  1  0
 37 33  2  0
 23 15  1  0
 22 17  1  0
 27 28  1  0
 23 24  1  0
 34 38  1  0
M  END
> <minimizedAffinity>
-12.57376

> <CNNscore>
0.8481544852

> <CNNaffinity>
8.2660493851

> <CNN_VS>
7.0108866692

> <CNNaffinity_variance>
0.2448999882

$$$$



 38 44  0  0  0  0  0  0  0  0999 V2000
    3.5812   12.3846   23.7679 C   0  0  0  0  0  0  0  0  0  0  0  0
    4.8352   11.5647   23.5236 C   0  0  0  0  0  0  0  0  0  0  0  0
    4.9529   10.4205   22.7440 C   0  0  0  0  0  0  0  0  0  0  0  0
    6.1905    9.7811   22.6964 C   0  0  0  0  0  0  0  0  0  0  0  0
    7.2706   10.2841   23.4354 C   0  0  0  0  0  0  0  0  0  0  0  0
    8.9315    9.3773   23.3795 Br  0  0  0  0  0  0  0  0  0  0  0  0
    7.1476   11.4378   24.2180 C   0  0  0  0  0  0  0  0  0  0  0  0
    5.9296   12.1012   24.2405 C   0  0  0  0  0  0  0  0  0  0  0  0
    5.4907   13.3037   24.9416 C   0  0  0  0  0  0  0  0  0  0  0  0
    6.1618   14.2338   25.7360 C   0  0  0  0  0  0  0  0  0  0  0  0
    5.4089   15.2633   26.3332 C   0  0  0  0  0  0  0  0  0  0  0  0
    4.0313   15.3967   26.1023 C   0  0  0  0  0  0  0  0  0  0  0  0
    3.3689   14.5026   25.2673 C   0  0  0  0  0  0  0  0  0  0  0  0
    4.1007   13.4655   24.7030 C   0  0  0  0  0  0  0  0  0  0  0  0
    7.6023   14.2334   25.9441 C   0  0  0  0  0  0  0  0  0  0  0  0
    8.5352   14.1744   25.0135 N   0  0  0  0  0  0  0  0  0  0  0  0
    9.7351   14.1619   25.6834 C   0  0  0  0  0  0  0  0  0  0  0  0
   11.0362   14.1257   25.1849 C   0  0  0  0  0  0  0  0  0  0  0  0
   12.0423   14.1219   26.1386 C   0  0  0  0  0  0  0  0  0  0  0  0
   11.8433   14.1487   27.4792 N   0  0  0  0  0  0  0  0  0  0  0  0
   10.5783   14.1822   27.9602 C   0  0  0  0  0  0  0  0  0  0  0  0
    9.5317   14.1892   27.0554 C   0  0  0  0  0  0  0  0  0  0  0  0
    8.1709   14.2161   27.1983 N   0  0  0  0  0  0  0  0  0  0  0  0
    7.6816   14.2221   28.0526 H   0  0  0  0  0  0  0  0  0  0  0  0
    4.0540   10.1672   25.4294 O   0  0  0  0  0  0  0  0  0  0  0  0
    2.8994   10.4911   25.1752 C   0  0  0  0  0  0  0  0  0  0  0  0
    2.5690   11.5781   24.4048 N   0  0  0  0  0  0  0  0  0  0  0  0
    1.6204   11.8124   24.2843 H   0  0  0  0  0  0  0  0  0  0  0  0
    1.7771    9.6548   25.6522 C   0  0  0  0  0  0  0  0  0  0  0  0
    1.0373   10.0987   26.7548 C   0  0  0  0  0  0  0  0  0  0  0  0
   -0.0046    9.3142   27.2196 C   0  0  0  0  0  0  0  0  0  0  0  0
   -0.3900    8.1315   26.6946 N   0  0  0  0  0  0  0  0  0  0  0  0
    0.3329    7.7635   25.6223 C   0  0  0  0  0  0  0  0  0  0  0  0
    0.1110    6.6170   24.9104 N   0  0  0  0  0  0  0  0  0  0  0  0
    0.9909    6.5442   23.8627 C   0  0  0  0  0  0  0  0  0  0  0  0
    1.7948    7.6639   23.9106 C   0  0  0  0  0  0  0  0  0  0  0  0
    1.4006    8.4421   25.0400 C   0  0  0  0  0  0  0  0  0  0  0  0
   -0.5775    5.9451   25.1194 H   0  0  0  0  0  0  0  0  0  0  0  0
 25 26  2  0
 26 27  1  0
  1 27  1  0
  1  2  1  0
  2  3  2  0
  3  4  1  0
  4  5  2  0
  5  6  1  0
  5  7  1  0
  7  8  2  0
  8  9  1  0
  9 10  2  0
 10 15  1  0
 15 16  2  0
 16 17  1  0
 17 18  2  0
 18 19  1  0
 19 20  2  0
 20 21  1  0
 21 22  2  0
 22 23  1  0
 10 11  1  0
 11 12  2  0
 12 13  1  0
 13 14  2  0
 26 29  1  0
 29 30  2  0
 30 31  1  0
 31 32  2  0
 32 33  1  0
 33 34  1  0
 34 35  1  0
 35 36  2  0
 36 37  1  0
 14  1  1  0
 37 29  1  0
  8  2  1  0
 14  9  1  0
 37 33  2  0
 23 15  1  0
 22 17  1  0
 27 28  1  0
 23 24  1  0
 34 38  1  0
M  END
> <minimizedAffinity>
-11.29721

> <CNNscore>
0.6778981686

> <CNNaffinity>
7.8527030945

> <CNN_VS>
5.3233332634

> <CNNaffinity_variance>
0.4244004488

$$$$



 38 44  0  0  0  0  0  0  0  0999 V2000
    0.7867    7.3155   27.8360 C   0  0  0  0  0  0  0  0  0  0  0  0
    2.1617    7.3367   28.4791 C   0  0  0  0  0  0  0  0  0  0  0  0
    2.7690    8.4037   29.1299 C   0  0  0  0  0  0  0  0  0  0  0  0
    4.0685    8.2319   29.6038 C   0  0  0  0  0  0  0  0  0  0  0  0
    4.7342    7.0141   29.4047 C   0  0  0  0  0  0  0  0  0  0  0  0
    6.5108    6.8186   30.0289 Br  0  0  0  0  0  0  0  0  0  0  0  0
    4.1177    5.9418   28.7499 C   0  0  0  0  0  0  0  0  0  0  0  0
    2.8112    6.0923   28.3089 C   0  0  0  0  0  0  0  0  0  0  0  0
    1.9111    5.1820   27.6080 C   0  0  0  0  0  0  0  0  0  0  0  0
    2.0219    3.8417   27.2362 C   0  0  0  0  0  0  0  0  0  0  0  0
    0.9734    3.2708   26.4894 C   0  0  0  0  0  0  0  0  0  0  0  0
   -0.1819    3.9990   26.1665 C   0  0  0  0  0  0  0  0  0  0  0  0
   -0.3192    5.3195   26.5822 C   0  0  0  0  0  0  0  0  0  0  0  0
    0.7270    5.8975   27.2900 C   0  0  0  0  0  0  0  0  0  0  0  0
    3.1340    2.9836   27.6174 C   0  0  0  0  0  0  0  0  0  0  0  0
    4.2333    2.7598   26.9239 N   0  0  0  0  0  0  0  0  0  0  0  0
    4.9665    1.8602   27.6601 C   0  0  0  0  0  0  0  0  0  0  0  0
    6.2161    1.3006   27.3995 C   0  0  0  0  0  0  0  0  0  0  0  0
    6.6850    0.4128   28.3553 C   0  0  0  0  0  0  0  0  0  0  0  0
    6.0236    0.0675   29.4871 N   0  0  0  0  0  0  0  0  0  0  0  0
    4.8094    0.6115   29.7365 C   0  0  0  0  0  0  0  0  0  0  0  0
    4.2897    1.5066   28.8183 C   0  0  0  0  0  0  0  0  0  0  0  0
    3.1216    2.2174   28.7618 N   0  0  0  0  0  0  0  0  0  0  0  0
    2.3958    2.1863   29.4262 H   0  0  0  0  0  0  0  0  0  0  0  0
   -0.6803    9.7120   27.9141 O   0  0  0  0  0  0  0  0  0  0  0  0
   -0.0608    9.4206   26.8972 C   0  0  0  0  0  0  0  0  0  0  0  0
    0.7115    8.2921   26.7771 N   0  0  0  0  0  0  0  0  0  0  0  0
    1.2253    8.1461   25.9501 H   0  0  0  0  0  0  0  0  0  0  0  0
   -0.1778   10.2713   25.6935 C   0  0  0  0  0  0  0  0  0  0  0  0
   -1.4566   10.6472   25.2651 C   0  0  0  0  0  0  0  0  0  0  0  0
   -1.5773   11.4294   24.1291 C   0  0  0  0  0  0  0  0  0  0  0  0
   -0.5519   11.8814   23.3759 N   0  0  0  0  0  0  0  0  0  0  0  0
    0.6546   11.5170   23.8444 C   0  0  0  0  0  0  0  0  0  0  0  0
    1.8388   11.8769   23.2625 N   0  0  0  0  0  0  0  0  0  0  0  0
    2.8850   11.3764   23.9920 C   0  0  0  0  0  0  0  0  0  0  0  0
    2.3576   10.6775   25.0577 C   0  0  0  0  0  0  0  0  0  0  0  0
    0.9349   10.7409   24.9663 C   0  0  0  0  0  0  0  0  0  0  0  0
    1.9263   12.4149   22.4427 H   0  0  0  0  0  0  0  0  0  0  0  0
 25 26  2  0
 26 27  1  0
  1 27  1  0
  1  2  1  0
  2  3  2  0
  3  4  1  0
  4  5  2  0
  5  6  1  0
  5  7  1  0
  7  8  2  0
  8  9  1  0
  9 10  2  0
 10 15  1  0
 15 16  2  0
 16 17  1  0
 17 18  2  0
 18 19  1  0
 19 20  2  0
 20 21  1  0
 21 22  2  0
 22 23  1  0
 10 11  1  0
 11 12  2  0
 12 13  1  0
 13 14  2  0
 26 29  1  0
 29 30  2  0
 30 31  1  0
 31 32  2  0
 32 33  1  0
 33 34  1  0
 34 35  1  0
 35 36  2  0
 36 37  1  0
 14  1  1  0
 37 29  1  0
  8  2  1  0
 14  9  1  0
 37 33  2  0
 23 15  1  0
 22 17  1  0
 27 28  1  0
 23 24  1  0
 34 38  1  0
M  END
> <minimizedAffinity>
-8.55162

> <CNNscore>
0.3300666511

> <CNNaffinity>
6.9851880074

> <CNN_VS>
2.3055775166

> <CNNaffinity_variance>
0.1037164256

$$$$



 38 44  0  0  0  0  0  0  0  0999 V2000
    2.7002    3.4708   25.2371 C   0  0  0  0  0  0  0  0  0  0  0  0
    3.8555    2.8613   26.0107 C   0  0  0  0  0  0  0  0  0  0  0  0
    3.8705    2.4978   27.3518 C   0  0  0  0  0  0  0  0  0  0  0  0
    5.0593    2.0040   27.8864 C   0  0  0  0  0  0  0  0  0  0  0  0
    6.2025    1.9003   27.0815 C   0  0  0  0  0  0  0  0  0  0  0  0
    7.8132    1.2579   27.8413 Br  0  0  0  0  0  0  0  0  0  0  0  0
    6.1821    2.2662   25.7309 C   0  0  0  0  0  0  0  0  0  0  0  0
    4.9928    2.7228   25.1819 C   0  0  0  0  0  0  0  0  0  0  0  0
    4.6532    3.1716   23.8354 C   0  0  0  0  0  0  0  0  0  0  0  0
    5.3703    3.2016   22.6389 C   0  0  0  0  0  0  0  0  0  0  0  0
    4.7558    3.7779   21.5105 C   0  0  0  0  0  0  0  0  0  0  0  0
    3.4401    4.2636   21.5563 C   0  0  0  0  0  0  0  0  0  0  0  0
    2.7031    4.1861   22.7337 C   0  0  0  0  0  0  0  0  0  0  0  0
    3.3165    3.6494   23.8585 C   0  0  0  0  0  0  0  0  0  0  0  0
    6.6974    2.6270   22.4742 C   0  0  0  0  0  0  0  0  0  0  0  0
    6.9845    1.3830   22.1433 N   0  0  0  0  0  0  0  0  0  0  0  0
    8.3562    1.2989   22.1483 C   0  0  0  0  0  0  0  0  0  0  0  0
    9.1861    0.2187   21.8530 C   0  0  0  0  0  0  0  0  0  0  0  0
   10.5466    0.4646   21.9539 C   0  0  0  0  0  0  0  0  0  0  0  0
   11.0984    1.6501   22.3114 N   0  0  0  0  0  0  0  0  0  0  0  0
   10.2895    2.6968   22.5991 C   0  0  0  0  0  0  0  0  0  0  0  0
    8.9211    2.5120   22.5142 C   0  0  0  0  0  0  0  0  0  0  0  0
    7.8499    3.3349   22.7338 N   0  0  0  0  0  0  0  0  0  0  0  0
    7.8954    4.2735   23.0275 H   0  0  0  0  0  0  0  0  0  0  0  0
    0.0677    4.3789   25.6202 O   0  0  0  0  0  0  0  0  0  0  0  0
    1.0044    5.1065   25.9298 C   0  0  0  0  0  0  0  0  0  0  0  0
    2.3216    4.7376   25.8137 N   0  0  0  0  0  0  0  0  0  0  0  0
    3.0231    5.3512   26.1310 H   0  0  0  0  0  0  0  0  0  0  0  0
    0.7440    6.4851   26.3966 C   0  0  0  0  0  0  0  0  0  0  0  0
    0.2172    7.4085   25.4855 C   0  0  0  0  0  0  0  0  0  0  0  0
   -0.0140    8.7065   25.9083 C   0  0  0  0  0  0  0  0  0  0  0  0
    0.2217    9.1800   27.1506 N   0  0  0  0  0  0  0  0  0  0  0  0
    0.7002    8.2486   27.9941 C   0  0  0  0  0  0  0  0  0  0  0  0
    0.9908    8.4881   29.3088 N   0  0  0  0  0  0  0  0  0  0  0  0
    1.4286    7.3346   29.9046 C   0  0  0  0  0  0  0  0  0  0  0  0
    1.4232    6.3401   28.9490 C   0  0  0  0  0  0  0  0  0  0  0  0
    0.9800    6.9123   27.7191 C   0  0  0  0  0  0  0  0  0  0  0  0
    0.8992    9.3586   29.7594 H   0  0  0  0  0  0  0  0  0  0  0  0
 25 26  2  0
 26 27  1  0
  1 27  1  0
  1  2  1  0
  2  3  2  0
  3  4  1  0
  4  5  2  0
  5  6  1  0
  5  7  1  0
  7  8  2  0
  8  9  1  0
  9 10  2  0
 10 15  1  0
 15 16  2  0
 16 17  1  0
 17 18  2  0
 18 19  1  0
 19 20  2  0
 20 21  1  0
 21 22  2  0
 22 23  1  0
 10 11  1  0
 11 12  2  0
 12 13  1  0
 13 14  2  0
 26 29  1  0
 29 30  2  0
 30 31  1  0
 31 32  2  0
 32 33  1  0
 33 34  1  0
 34 35  1  0
 35 36  2  0
 36 37  1  0
 14  1  1  0
 37 29  1  0
  8  2  1  0
 14  9  1  0
 37 33  2  0
 23 15  1  0
 22 17  1  0
 27 28  1  0
 23 24  1  0
 34 38  1  0
M  END
> <minimizedAffinity>
-6.07855

> <CNNscore>
0.2191564441

> <CNNaffinity>
6.0424022675

> <CNN_VS>
1.3242313862

> <CNNaffinity_variance>
0.0591035150

$$$$



 38 44  0  0  0  0  0  0  0  0999 V2000
    5.5460    1.3934   27.1658 C   0  0  0  0  0  0  0  0  0  0  0  0
    6.5154    1.6179   26.0192 C   0  0  0  0  0  0  0  0  0  0  0  0
    7.8356    1.1920   25.9389 C   0  0  0  0  0  0  0  0  0  0  0  0
    8.5765    1.5539   24.8151 C   0  0  0  0  0  0  0  0  0  0  0  0
    7.9932    2.3408   23.8119 C   0  0  0  0  0  0  0  0  0  0  0  0
    9.0320    2.8463   22.3121 Br  0  0  0  0  0  0  0  0  0  0  0  0
    6.6626    2.7660   23.8966 C   0  0  0  0  0  0  0  0  0  0  0  0
    5.9074    2.3782   24.9937 C   0  0  0  0  0  0  0  0  0  0  0  0
    4.5229    2.6513   25.3659 C   0  0  0  0  0  0  0  0  0  0  0  0
    3.4774    3.3017   24.7098 C   0  0  0  0  0  0  0  0  0  0  0  0
    2.2576    3.4578   25.3961 C   0  0  0  0  0  0  0  0  0  0  0  0
    2.0642    2.9323   26.6827 C   0  0  0  0  0  0  0  0  0  0  0  0
    3.0872    2.2361   27.3184 C   0  0  0  0  0  0  0  0  0  0  0  0
    4.3034    2.1088   26.6593 C   0  0  0  0  0  0  0  0  0  0  0  0
    3.5556    3.7845   23.3390 C   0  0  0  0  0  0  0  0  0  0  0  0
    3.9289    4.9864   22.9446 N   0  0  0  0  0  0  0  0  0  0  0  0
    3.8069    4.9884   21.5757 C   0  0  0  0  0  0  0  0  0  0  0  0
    4.0875    5.9966   20.6552 C   0  0  0  0  0  0  0  0  0  0  0  0
    3.8526    5.6764   19.3270 C   0  0  0  0  0  0  0  0  0  0  0  0
    3.3818    4.4842   18.8860 N   0  0  0  0  0  0  0  0  0  0  0  0
    3.1088    3.5074   19.7827 C   0  0  0  0  0  0  0  0  0  0  0  0
    3.3250    3.7684   21.1241 C   0  0  0  0  0  0  0  0  0  0  0  0
    3.1555    3.0261   22.2613 N   0  0  0  0  0  0  0  0  0  0  0  0
    2.8069    2.1063   22.3020 H   0  0  0  0  0  0  0  0  0  0  0  0
    6.0793    4.1289   27.5316 O   0  0  0  0  0  0  0  0  0  0  0  0
    6.3084    3.3455   28.4461 C   0  0  0  0  0  0  0  0  0  0  0  0
    6.0478    1.9996   28.3747 N   0  0  0  0  0  0  0  0  0  0  0  0
    6.2069    1.4357   29.1659 H   0  0  0  0  0  0  0  0  0  0  0  0
    6.9591    3.8268   29.6836 C   0  0  0  0  0  0  0  0  0  0  0  0
    8.3520    3.7289   29.7852 C   0  0  0  0  0  0  0  0  0  0  0  0
    8.9688    4.1610   30.9470 C   0  0  0  0  0  0  0  0  0  0  0  0
    8.3397    4.6869   32.0197 N   0  0  0  0  0  0  0  0  0  0  0  0
    7.0081    4.7850   31.8614 C   0  0  0  0  0  0  0  0  0  0  0  0
    6.1651    5.3081   32.8027 N   0  0  0  0  0  0  0  0  0  0  0  0
    4.8788    5.2965   32.3310 C   0  0  0  0  0  0  0  0  0  0  0  0
    4.9005    4.7490   31.0653 C   0  0  0  0  0  0  0  0  0  0  0  0
    6.2496    4.3988   30.7591 C   0  0  0  0  0  0  0  0  0  0  0  0
    6.4410    5.6428   33.6865 H   0  0  0  0  0  0  0  0  0  0  0  0
 25 26  2  0
 26 27  1  0
  1 27  1  0
  1  2  1  0
  2  3  2  0
  3  4  1  0
  4  5  2  0
  5  6  1  0
  5  7  1  0
  7  8  2  0
  8  9  1  0
  9 10  2  0
 10 15  1  0
 15 16  2  0
 16 17  1  0
 17 18  2  0
 18 19  1  0
 19 20  2  0
 20 21  1  0
 21 22  2  0
 22 23  1  0
 10 11  1  0
 11 12  2  0
 12 13  1  0
 13 14  2  0
 26 29  1  0
 29 30  2  0
 30 31  1  0
 31 32  2  0
 32 33  1  0
 33 34  1  0
 34 35  1  0
 35 36  2  0
 36 37  1  0
 14  1  1  0
 37 29  1  0
  8  2  1  0
 14  9  1  0
 37 33  2  0
 23 15  1  0
 22 17  1  0
 27 28  1  0
 23 24  1  0
 34 38  1  0
M  END
> <minimizedAffinity>
-5.23284

> <CNNscore>
0.2078967988

> <CNNaffinity>
5.4960331917

> <CNN_VS>
1.1426076889

> <CNNaffinity_variance>
0.0518240035

$$$$



 38 44  0  0  0  0  0  0  0  0999 V2000
    3.0890    9.1770   25.9328 C   0  0  0  0  0  0  0  0  0  0  0  0
    3.8239    8.1608   25.0772 C   0  0  0  0  0  0  0  0  0  0  0  0
    4.2174    8.3050   23.7524 C   0  0  0  0  0  0  0  0  0  0  0  0
    4.8349    7.2227   23.1279 C   0  0  0  0  0  0  0  0  0  0  0  0
    5.0294    6.0240   23.8286 C   0  0  0  0  0  0  0  0  0  0  0  0
    5.8403    4.5583   22.9464 Br  0  0  0  0  0  0  0  0  0  0  0  0
    4.6327    5.8841   25.1634 C   0  0  0  0  0  0  0  0  0  0  0  0
    4.0519    6.9691   25.8033 C   0  0  0  0  0  0  0  0  0  0  0  0
    3.5421    7.1383   27.1604 C   0  0  0  0  0  0  0  0  0  0  0  0
    3.5539    6.3130   28.2853 C   0  0  0  0  0  0  0  0  0  0  0  0
    2.8958    6.7630   29.4462 C   0  0  0  0  0  0  0  0  0  0  0  0
    2.2874    8.0261   29.5046 C   0  0  0  0  0  0  0  0  0  0  0  0
    2.3206    8.8738   28.4020 C   0  0  0  0  0  0  0  0  0  0  0  0
    2.9391    8.4208   27.2436 C   0  0  0  0  0  0  0  0  0  0  0  0
    4.2491    5.0358   28.3469 C   0  0  0  0  0  0  0  0  0  0  0  0
    5.5412    4.8475   28.5328 N   0  0  0  0  0  0  0  0  0  0  0  0
    5.7355    3.4881   28.4774 C   0  0  0  0  0  0  0  0  0  0  0  0
    6.9055    2.7460   28.6292 C   0  0  0  0  0  0  0  0  0  0  0  0
    6.7616    1.3721   28.5143 C   0  0  0  0  0  0  0  0  0  0  0  0
    5.5928    0.7302   28.2704 N   0  0  0  0  0  0  0  0  0  0  0  0
    4.4584    1.4539   28.1218 C   0  0  0  0  0  0  0  0  0  0  0  0
    4.5395    2.8310   28.2276 C   0  0  0  0  0  0  0  0  0  0  0  0
    3.6130    3.8335   28.1305 N   0  0  0  0  0  0  0  0  0  0  0  0
    2.6547    3.7154   27.9385 H   0  0  0  0  0  0  0  0  0  0  0  0
    2.3544   11.6402   24.7953 O   0  0  0  0  0  0  0  0  0  0  0  0
    1.5298   10.7349   24.8499 C   0  0  0  0  0  0  0  0  0  0  0  0
    1.8051    9.4878   25.3534 N   0  0  0  0  0  0  0  0  0  0  0  0
    1.1111    8.7904   25.3183 H   0  0  0  0  0  0  0  0  0  0  0  0
    0.1365   10.9798   24.4196 C   0  0  0  0  0  0  0  0  0  0  0  0
   -0.9035   10.5099   25.2306 C   0  0  0  0  0  0  0  0  0  0  0  0
   -2.2115   10.7192   24.8275 C   0  0  0  0  0  0  0  0  0  0  0  0
   -2.5917   11.3547   23.6986 N   0  0  0  0  0  0  0  0  0  0  0  0
   -1.5579   11.8105   22.9696 C   0  0  0  0  0  0  0  0  0  0  0  0
   -1.6977   12.5053   21.7999 N   0  0  0  0  0  0  0  0  0  0  0  0
   -0.4637   12.8546   21.3178 C   0  0  0  0  0  0  0  0  0  0  0  0
    0.4831   12.3675   22.1944 C   0  0  0  0  0  0  0  0  0  0  0  0
   -0.1986   11.6811   23.2435 C   0  0  0  0  0  0  0  0  0  0  0  0
   -2.5560   12.7219   21.3691 H   0  0  0  0  0  0  0  0  0  0  0  0
 25 26  2  0
 26 27  1  0
  1 27  1  0
  1  2  1  0
  2  3  2  0
  3  4  1  0
  4  5  2  0
  5  6  1  0
  5  7  1  0
  7  8  2  0
  8  9  1  0
  9 10  2  0
 10 15  1  0
 15 16  2  0
 16 17  1  0
 17 18  2  0
 18 19  1  0
 19 20  2  0
 20 21  1  0
 21 22  2  0
 22 23  1  0
 10 11  1  0
 11 12  2  0
 12 13  1  0
 13 14  2  0
 26 29  1  0
 29 30  2  0
 30 31  1  0
 31 32  2  0
 32 33  1  0
 33 34  1  0
 34 35  1  0
 35 36  2  0
 36 37  1  0
 14  1  1  0
 37 29  1  0
  8  2  1  0
 14  9  1  0
 37 33  2  0
 23 15  1  0
 22 17  1  0
 27 28  1  0
 23 24  1  0
 34 38  1  0
M  END
> <minimizedAffinity>
-7.77975

> <CNNscore>
0.1965951622

> <CNNaffinity>
6.6666188240

> <CNN_VS>
1.3106249571

> <CNNaffinity_variance>
0.2195958942

$$$$



 38 44  0  0  0  0  0  0  0  0999 V2000
    6.4320    2.9810   29.0016 C   0  0  0  0  0  0  0  0  0  0  0  0
    6.0527    3.3466   27.5778 C   0  0  0  0  0  0  0  0  0  0  0  0
    6.4785    2.7273   26.4090 C   0  0  0  0  0  0  0  0  0  0  0  0
    6.0545    3.2573   25.1916 C   0  0  0  0  0  0  0  0  0  0  0  0
    5.2351    4.3946   25.1671 C   0  0  0  0  0  0  0  0  0  0  0  0
    4.7011    5.1139   23.4993 Br  0  0  0  0  0  0  0  0  0  0  0  0
    4.8076    5.0139   26.3471 C   0  0  0  0  0  0  0  0  0  0  0  0
    5.1942    4.4700   27.5632 C   0  0  0  0  0  0  0  0  0  0  0  0
    4.9202    4.8728   28.9389 C   0  0  0  0  0  0  0  0  0  0  0  0
    4.1106    5.8662   29.4906 C   0  0  0  0  0  0  0  0  0  0  0  0
    4.1288    6.0378   30.8883 C   0  0  0  0  0  0  0  0  0  0  0  0
    4.8920    5.2063   31.7221 C   0  0  0  0  0  0  0  0  0  0  0  0
    5.6585    4.1799   31.1796 C   0  0  0  0  0  0  0  0  0  0  0  0
    5.6703    4.0282   29.7988 C   0  0  0  0  0  0  0  0  0  0  0  0
    3.2095    6.7032   28.7122 C   0  0  0  0  0  0  0  0  0  0  0  0
    1.9260    6.4922   28.4936 N   0  0  0  0  0  0  0  0  0  0  0  0
    1.5089    7.5184   27.6801 C   0  0  0  0  0  0  0  0  0  0  0  0
    0.2436    7.7904   27.1627 C   0  0  0  0  0  0  0  0  0  0  0  0
    0.1542    8.9195   26.3635 C   0  0  0  0  0  0  0  0  0  0  0  0
    1.1873    9.7447   26.0646 N   0  0  0  0  0  0  0  0  0  0  0  0
    2.4154    9.4769   26.5675 C   0  0  0  0  0  0  0  0  0  0  0  0
    2.5661    8.3629   27.3740 C   0  0  0  0  0  0  0  0  0  0  0  0
    3.6389    7.8165   28.0247 N   0  0  0  0  0  0  0  0  0  0  0  0
    4.5610    8.1608   28.0047 H   0  0  0  0  0  0  0  0  0  0  0  0
    8.2079    0.8729   29.5524 O   0  0  0  0  0  0  0  0  0  0  0  0
    8.6383    2.0190   29.4892 C   0  0  0  0  0  0  0  0  0  0  0  0
    7.8564    3.1071   29.1908 N   0  0  0  0  0  0  0  0  0  0  0  0
    8.2771    3.9930   29.1041 H   0  0  0  0  0  0  0  0  0  0  0  0
   10.0560    2.2927   29.8078 C   0  0  0  0  0  0  0  0  0  0  0  0
   11.0382    1.4832   29.2244 C   0  0  0  0  0  0  0  0  0  0  0  0
   12.3675    1.7207   29.5300 C   0  0  0  0  0  0  0  0  0  0  0  0
   12.8214    2.6876   30.3559 N   0  0  0  0  0  0  0  0  0  0  0  0
   11.8424    3.4540   30.8679 C   0  0  0  0  0  0  0  0  0  0  0  0
   12.0619    4.5095   31.7095 N   0  0  0  0  0  0  0  0  0  0  0  0
   10.8694    5.1038   32.0288 C   0  0  0  0  0  0  0  0  0  0  0  0
    9.8679    4.4096   31.3827 C   0  0  0  0  0  0  0  0  0  0  0  0
   10.4709    3.3413   30.6537 C   0  0  0  0  0  0  0  0  0  0  0  0
   12.9442    4.7987   32.0367 H   0  0  0  0  0  0  0  0  0  0  0  0
 25 26  2  0
 26 27  1  0
  1 27  1  0
  1  2  1  0
  2  3  2  0
  3  4  1  0
  4  5  2  0
  5  6  1  0
  5  7  1  0
  7  8  2  0
  8  9  1  0
  9 10  2  0
 10 15  1  0
 15 16  2  0
 16 17  1  0
 17 18  2  0
 18 19  1  0
 19 20  2  0
 20 21  1  0
 21 22  2  0
 22 23  1  0
 10 11  1  0
 11 12  2  0
 12 13  1  0
 13 14  2  0
 26 29  1  0
 29 30  2  0
 30 31  1  0
 31 32  2  0
 32 33  1  0
 33 34  1  0
 34 35  1  0
 35 36  2  0
 36 37  1  0
 14  1  1  0
 37 29  1  0
  8  2  1  0
 14  9  1  0
 37 33  2  0
 23 15  1  0
 22 17  1  0
 27 28  1  0
 23 24  1  0
 34 38  1  0
M  END
> <minimizedAffinity>
-6.06479

> <CNNscore>
0.1964162588

> <CNNaffinity>
5.7774085999

> <CNN_VS>
1.1347769499

> <CNNaffinity_variance>
0.0562573522

$$$$



 38 44  0  0  0  0  0  0  0  0999 V2000
    4.3684   11.1560   23.5036 C   0  0  0  0  0  0  0  0  0  0  0  0
    2.8852   11.0788   23.8183 C   0  0  0  0  0  0  0  0  0  0  0  0
    1.9443   12.0930   23.6877 C   0  0  0  0  0  0  0  0  0  0  0  0
    0.6350   11.8313   24.0878 C   0  0  0  0  0  0  0  0  0  0  0  0
    0.2998   10.5785   24.6207 C   0  0  0  0  0  0  0  0  0  0  0  0
   -1.4783   10.2605   25.1874 Br  0  0  0  0  0  0  0  0  0  0  0  0
    1.2507    9.5597   24.7488 C   0  0  0  0  0  0  0  0  0  0  0  0
    2.5471    9.7999   24.3178 C   0  0  0  0  0  0  0  0  0  0  0  0
    3.7416    8.9613   24.3156 C   0  0  0  0  0  0  0  0  0  0  0  0
    3.9597    7.6243   24.6496 C   0  0  0  0  0  0  0  0  0  0  0  0
    5.2792    7.1346   24.6022 C   0  0  0  0  0  0  0  0  0  0  0  0
    6.3485    7.9395   24.1806 C   0  0  0  0  0  0  0  0  0  0  0  0
    6.1264    9.2577   23.7951 C   0  0  0  0  0  0  0  0  0  0  0  0
    4.8318    9.7554   23.8725 C   0  0  0  0  0  0  0  0  0  0  0  0
    2.8976    6.6913   24.9958 C   0  0  0  0  0  0  0  0  0  0  0  0
    2.0269    6.8144   25.9788 N   0  0  0  0  0  0  0  0  0  0  0  0
    1.2516    5.6803   25.9394 C   0  0  0  0  0  0  0  0  0  0  0  0
    0.1731    5.3072   26.7396 C   0  0  0  0  0  0  0  0  0  0  0  0
   -0.4005    4.0820   26.4371 C   0  0  0  0  0  0  0  0  0  0  0  0
    0.0112    3.2539   25.4458 N   0  0  0  0  0  0  0  0  0  0  0  0
    1.0599    3.6185   24.6714 C   0  0  0  0  0  0  0  0  0  0  0  0
    1.6727    4.8327   24.9251 C   0  0  0  0  0  0  0  0  0  0  0  0
    2.7296    5.4859   24.3512 N   0  0  0  0  0  0  0  0  0  0  0  0
    3.2767    5.1511   23.6043 H   0  0  0  0  0  0  0  0  0  0  0  0
    6.9876   12.1228   23.1776 O   0  0  0  0  0  0  0  0  0  0  0  0
    6.3049   12.5408   24.1060 C   0  0  0  0  0  0  0  0  0  0  0  0
    5.0056   12.1558   24.3251 N   0  0  0  0  0  0  0  0  0  0  0  0
    4.4975   12.5713   25.0589 H   0  0  0  0  0  0  0  0  0  0  0  0
    6.8973   13.4604   25.1010 C   0  0  0  0  0  0  0  0  0  0  0  0
    6.0391   14.2773   25.8468 C   0  0  0  0  0  0  0  0  0  0  0  0
    6.5854   15.1540   26.7687 C   0  0  0  0  0  0  0  0  0  0  0  0
    7.9025   15.2980   27.0287 N   0  0  0  0  0  0  0  0  0  0  0  0
    8.6814   14.4727   26.3076 C   0  0  0  0  0  0  0  0  0  0  0  0
   10.0437   14.4211   26.4167 N   0  0  0  0  0  0  0  0  0  0  0  0
   10.5404   13.4614   25.5745 C   0  0  0  0  0  0  0  0  0  0  0  0
    9.4739   12.8932   24.9097 C   0  0  0  0  0  0  0  0  0  0  0  0
    8.2821   13.5417   25.3518 C   0  0  0  0  0  0  0  0  0  0  0  0
   10.5859   14.9884   27.0112 H   0  0  0  0  0  0  0  0  0  0  0  0
 25 26  2  0
 26 27  1  0
  1 27  1  0
  1  2  1  0
  2  3  2  0
  3  4  1  0
  4  5  2  0
  5  6  1  0
  5  7  1  0
  7  8  2  0
  8  9  1  0
  9 10  2  0
 10 15  1  0
 15 16  2  0
 16 17  1  0
 17 18  2  0
 18 19  1  0
 19 20  2  0
 20 21  1  0
 21 22  2  0
 22 23  1  0
 10 11  1  0
 11 12  2  0
 12 13  1  0
 13 14  2  0
 26 29  1  0
 29 30  2  0
 30 31  1  0
 31 32  2  0
 32 33  1  0
 33 34  1  0
 34 35  1  0
 35 36  2  0
 36 37  1  0
 14  1  1  0
 37 29  1  0
  8  2  1  0
 14  9  1  0
 37 33  2  0
 23 15  1  0
 22 17  1  0
 27 28  1  0
 23 24  1  0
 34 38  1  0
M  END
> <minimizedAffinity>
-10.84381

> <CNNscore>
0.1784134805

> <CNNaffinity>
7.1303234100

> <CNN_VS>
1.2721458673

> <CNNaffinity_variance>
0.3850428164

$$$$
