


 23 23  0  0  0  0  0  0  0  0999 V2000
   -2.0218   -5.1952   -3.9856 N   0  0  0  0  0  0  0  0  0  0  0  0
   -1.6255   -6.1454   -5.3008 S   0  0  0  0  0  0  0  0  0  0  0  0
   -1.3111   -7.4708   -4.8113 O   0  0  0  0  0  0  0  0  0  0  0  0
   -0.6774   -5.3951   -6.1020 O   0  0  0  0  0  0  0  0  0  0  0  0
   -3.1446   -6.2724   -6.2204 C   0  0  0  0  0  0  0  0  0  0  0  0
   -3.1240   -6.1166   -7.6103 C   0  0  0  0  0  0  0  0  0  0  0  0
   -4.3169   -6.1727   -8.3400 C   0  0  0  0  0  0  0  0  0  0  0  0
   -5.5331   -6.3635   -7.6824 C   0  0  0  0  0  0  0  0  0  0  0  0
   -5.5470   -6.4827   -6.2895 C   0  0  0  0  0  0  0  0  0  0  0  0
   -4.3607   -6.4254   -5.5541 C   0  0  0  0  0  0  0  0  0  0  0  0
   -6.7642   -6.4356   -8.2727 O   0  0  0  0  0  0  0  0  0  0  0  0
   -6.8131   -6.9300   -9.6049 C   0  0  0  0  0  0  0  0  0  0  0  0
   -1.6232   -5.5735   -2.6175 C   0  0  0  0  0  0  0  0  0  0  0  0
   -0.1244   -5.3288   -2.4101 C   0  0  0  0  0  0  0  0  0  0  0  0
   -0.1850   -7.5097   -1.5141 C   0  0  0  0  0  0  0  0  0  0  0  0
    0.3696   -6.2059   -1.3910 O   0  0  0  0  0  0  0  0  0  0  0  0
   -2.8705   -4.0026   -4.1295 C   0  0  0  0  0  0  0  0  0  0  0  0
   -2.1136   -2.7354   -4.4642 C   0  0  0  0  0  0  0  0  0  0  0  0
   -1.0921   -2.3785   -3.8768 O   0  0  0  0  0  0  0  0  0  0  0  0
   -2.6725   -1.9856   -5.4809 N   0  0  0  0  0  0  0  0  0  0  0  0
   -2.0269   -0.7364   -5.6894 O   0  0  0  0  0  0  0  0  0  0  0  0
   -3.4450   -2.2879   -6.0112 H   0  0  0  0  0  0  0  0  0  0  0  0
   -1.2942   -0.6422   -5.0607 H   0  0  0  0  0  0  0  0  0  0  0  0
 15 16  1  0
 16 14  1  0
 14 13  1  0
 13  1  1  0
  1 17  1  0
 17 18  1  0
 18 19  2  0
 18 20  1  0
 20 21  1  0
  1  2  1  0
  2  3  2  0
  2  4  2  0
  2  5  1  0
  5  6  2  0
  6  7  1  0
  7  8  2  0
  8 11  1  0
 11 12  1  0
  8  9  1  0
  9 10  2  0
 10  5  1  0
 20 22  1  0
 21 23  1  0
M  END
> <minimizedAffinity>
-7.39569

> <CNNscore>
0.9096724987

> <CNNaffinity>
6.3917098045

> <CNN_VS>
5.8143625259

> <CNNaffinity_variance>
0.2932113111

$$$$



 23 23  0  0  0  0  0  0  0  0999 V2000
   -0.9800    0.5198   -2.7343 N   0  0  0  0  0  0  0  0  0  0  0  0
   -1.5496    1.8114   -3.6272 S   0  0  0  0  0  0  0  0  0  0  0  0
   -2.8420    2.1840   -3.0924 O   0  0  0  0  0  0  0  0  0  0  0  0
   -1.3849    1.4710   -5.0274 O   0  0  0  0  0  0  0  0  0  0  0  0
   -0.4225    3.1357   -3.2460 C   0  0  0  0  0  0  0  0  0  0  0  0
    0.9404    2.9813   -3.5206 C   0  0  0  0  0  0  0  0  0  0  0  0
    1.8424    3.9982   -3.1875 C   0  0  0  0  0  0  0  0  0  0  0  0
    1.3892    5.1606   -2.5619 C   0  0  0  0  0  0  0  0  0  0  0  0
    0.0305    5.2902   -2.2596 C   0  0  0  0  0  0  0  0  0  0  0  0
   -0.8757    4.2786   -2.5869 C   0  0  0  0  0  0  0  0  0  0  0  0
    2.1610    6.2239   -2.1837 O   0  0  0  0  0  0  0  0  0  0  0  0
    1.5207    7.2549   -1.4431 C   0  0  0  0  0  0  0  0  0  0  0  0
   -0.8903    0.5832   -1.2641 C   0  0  0  0  0  0  0  0  0  0  0  0
    0.2294   -0.3323   -0.7566 C   0  0  0  0  0  0  0  0  0  0  0  0
    1.3518   -0.8226    1.2589 C   0  0  0  0  0  0  0  0  0  0  0  0
    0.1008   -0.5101    0.6590 O   0  0  0  0  0  0  0  0  0  0  0  0
   -0.4499   -0.6878   -3.3854 C   0  0  0  0  0  0  0  0  0  0  0  0
   -1.5110   -1.6582   -3.8579 C   0  0  0  0  0  0  0  0  0  0  0  0
   -2.0718   -2.4659   -3.1170 O   0  0  0  0  0  0  0  0  0  0  0  0
   -1.7956   -1.5837   -5.2077 N   0  0  0  0  0  0  0  0  0  0  0  0
   -2.6928   -2.5903   -5.6577 O   0  0  0  0  0  0  0  0  0  0  0  0
   -1.4130   -0.8983   -5.8019 H   0  0  0  0  0  0  0  0  0  0  0  0
   -2.9441   -3.1566   -4.9113 H   0  0  0  0  0  0  0  0  0  0  0  0
 15 16  1  0
 16 14  1  0
 14 13  1  0
 13  1  1  0
  1 17  1  0
 17 18  1  0
 18 19  2  0
 18 20  1  0
 20 21  1  0
  1  2  1  0
  2  3  2  0
  2  4  2  0
  2  5  1  0
  5  6  2  0
  6  7  1  0
  7  8  2  0
  8 11  1  0
 11 12  1  0
  8  9  1  0
  9 10  2  0
 10  5  1  0
 20 22  1  0
 21 23  1  0
M  END
> <minimizedAffinity>
-4.57646

> <CNNscore>
0.8049674630

> <CNNaffinity>
5.6680431366

> <CNN_VS>
4.5625901222

> <CNNaffinity_variance>
0.0552205406

$$$$



 23 23  0  0  0  0  0  0  0  0999 V2000
  -10.1323   -8.2170   -9.3477 N   0  0  0  0  0  0  0  0  0  0  0  0
   -8.7414   -8.4112  -10.2518 S   0  0  0  0  0  0  0  0  0  0  0  0
   -8.9062   -7.6687  -11.4833 O   0  0  0  0  0  0  0  0  0  0  0  0
   -8.4317   -9.8280  -10.2635 O   0  0  0  0  0  0  0  0  0  0  0  0
   -7.4851   -7.5806   -9.3025 C   0  0  0  0  0  0  0  0  0  0  0  0
   -6.2618   -7.2663   -9.9038 C   0  0  0  0  0  0  0  0  0  0  0  0
   -5.2508   -6.6510   -9.1569 C   0  0  0  0  0  0  0  0  0  0  0  0
   -5.4512   -6.3673   -7.8051 C   0  0  0  0  0  0  0  0  0  0  0  0
   -6.6641   -6.7175   -7.2045 C   0  0  0  0  0  0  0  0  0  0  0  0
   -7.6771   -7.3340   -7.9429 C   0  0  0  0  0  0  0  0  0  0  0  0
   -4.5502   -5.7735   -6.9656 O   0  0  0  0  0  0  0  0  0  0  0  0
   -4.6605   -6.0779   -5.5811 C   0  0  0  0  0  0  0  0  0  0  0  0
  -11.4549   -8.1019   -9.9891 C   0  0  0  0  0  0  0  0  0  0  0  0
  -12.5471   -8.6521   -9.0651 C   0  0  0  0  0  0  0  0  0  0  0  0
  -13.9276  -10.5206   -8.6581 C   0  0  0  0  0  0  0  0  0  0  0  0
  -12.8568  -10.0006   -9.4363 O   0  0  0  0  0  0  0  0  0  0  0  0
  -10.0802   -8.0492   -7.8874 C   0  0  0  0  0  0  0  0  0  0  0  0
  -10.3303   -9.3201   -7.1045 C   0  0  0  0  0  0  0  0  0  0  0  0
  -10.0171  -10.4402   -7.5085 O   0  0  0  0  0  0  0  0  0  0  0  0
  -10.9637   -9.1308   -5.8915 N   0  0  0  0  0  0  0  0  0  0  0  0
  -11.3107  -10.3424   -5.2340 O   0  0  0  0  0  0  0  0  0  0  0  0
  -11.1566   -8.2407   -5.5176 H   0  0  0  0  0  0  0  0  0  0  0  0
  -11.0296  -11.0963   -5.7759 H   0  0  0  0  0  0  0  0  0  0  0  0
 15 16  1  0
 16 14  1  0
 14 13  1  0
 13  1  1  0
  1 17  1  0
 17 18  1  0
 18 19  2  0
 18 20  1  0
 20 21  1  0
  1  2  1  0
  2  3  2  0
  2  4  2  0
  2  5  1  0
  5  6  2  0
  6  7  1  0
  7  8  2  0
  8 11  1  0
 11 12  1  0
  8  9  1  0
  9 10  2  0
 10  5  1  0
 20 22  1  0
 21 23  1  0
M  END
> <minimizedAffinity>
-7.19916

> <CNNscore>
0.7104938626

> <CNNaffinity>
5.1481308937

> <CNN_VS>
3.6577153206

> <CNNaffinity_variance>
0.4510520995

$$$$



 23 23  0  0  0  0  0  0  0  0999 V2000
   -3.0803   -6.0399   -4.8893 N   0  0  0  0  0  0  0  0  0  0  0  0
   -2.8739   -5.5105   -6.4600 S   0  0  0  0  0  0  0  0  0  0  0  0
   -1.6784   -6.1355   -6.9847 O   0  0  0  0  0  0  0  0  0  0  0  0
   -3.0260   -4.0682   -6.4501 O   0  0  0  0  0  0  0  0  0  0  0  0
   -4.2578   -6.2043   -7.3391 C   0  0  0  0  0  0  0  0  0  0  0  0
   -4.1037   -6.5861   -8.6760 C   0  0  0  0  0  0  0  0  0  0  0  0
   -5.1947   -7.0940   -9.3904 C   0  0  0  0  0  0  0  0  0  0  0  0
   -6.4446   -7.2022   -8.7788 C   0  0  0  0  0  0  0  0  0  0  0  0
   -6.5967   -6.7848   -7.4533 C   0  0  0  0  0  0  0  0  0  0  0  0
   -5.5129   -6.2747   -6.7343 C   0  0  0  0  0  0  0  0  0  0  0  0
   -7.5867   -7.6775   -9.3611 O   0  0  0  0  0  0  0  0  0  0  0  0
   -7.7380   -9.0898   -9.4265 C   0  0  0  0  0  0  0  0  0  0  0  0
   -3.5195   -7.4161   -4.5947 C   0  0  0  0  0  0  0  0  0  0  0  0
   -2.6289   -8.0423   -3.5158 C   0  0  0  0  0  0  0  0  0  0  0  0
   -2.9400  -10.0162   -2.2631 C   0  0  0  0  0  0  0  0  0  0  0  0
   -2.7487   -9.4690   -3.5617 O   0  0  0  0  0  0  0  0  0  0  0  0
   -2.9329   -5.1256   -3.7467 C   0  0  0  0  0  0  0  0  0  0  0  0
   -2.4079   -3.7533   -4.1097 C   0  0  0  0  0  0  0  0  0  0  0  0
   -1.2100   -3.4706   -4.1428 O   0  0  0  0  0  0  0  0  0  0  0  0
   -3.3876   -2.8199   -4.3874 N   0  0  0  0  0  0  0  0  0  0  0  0
   -2.8827   -1.5071   -4.5934 O   0  0  0  0  0  0  0  0  0  0  0  0
   -4.3453   -3.0428   -4.4378 H   0  0  0  0  0  0  0  0  0  0  0  0
   -1.9174   -1.5133   -4.4976 H   0  0  0  0  0  0  0  0  0  0  0  0
 15 16  1  0
 16 14  1  0
 14 13  1  0
 13  1  1  0
  1 17  1  0
 17 18  1  0
 18 19  2  0
 18 20  1  0
 20 21  1  0
  1  2  1  0
  2  3  2  0
  2  4  2  0
  2  5  1  0
  5  6  2  0
  6  7  1  0
  7  8  2  0
  8 11  1  0
 11 12  1  0
  8  9  1  0
  9 10  2  0
 10  5  1  0
 20 22  1  0
 21 23  1  0
M  END
> <minimizedAffinity>
-7.11285

> <CNNscore>
0.6933789253

> <CNNaffinity>
5.8988461494

> <CNN_VS>
4.0901355743

> <CNNaffinity_variance>
0.1210405231

$$$$



 23 23  0  0  0  0  0  0  0  0999 V2000
   -2.0617   -5.4310   -3.6994 N   0  0  0  0  0  0  0  0  0  0  0  0
   -0.8038   -5.1118   -2.6479 S   0  0  0  0  0  0  0  0  0  0  0  0
    0.1877   -4.3385   -3.3649 O   0  0  0  0  0  0  0  0  0  0  0  0
   -0.4580   -6.3627   -2.0004 O   0  0  0  0  0  0  0  0  0  0  0  0
   -1.5216   -4.0377   -1.4230 C   0  0  0  0  0  0  0  0  0  0  0  0
   -1.1700   -2.6839   -1.4023 C   0  0  0  0  0  0  0  0  0  0  0  0
   -1.6951   -1.8379   -0.4189 C   0  0  0  0  0  0  0  0  0  0  0  0
   -2.5546   -2.3452    0.5567 C   0  0  0  0  0  0  0  0  0  0  0  0
   -2.8719   -3.7067    0.5487 C   0  0  0  0  0  0  0  0  0  0  0  0
   -2.3499   -4.5579   -0.4283 C   0  0  0  0  0  0  0  0  0  0  0  0
   -3.1330   -1.6314    1.5693 O   0  0  0  0  0  0  0  0  0  0  0  0
   -2.3036   -0.7083    2.2634 C   0  0  0  0  0  0  0  0  0  0  0  0
   -2.1135   -6.6828   -4.4766 C   0  0  0  0  0  0  0  0  0  0  0  0
   -3.5569   -7.1875   -4.5821 C   0  0  0  0  0  0  0  0  0  0  0  0
   -5.0847   -6.4761   -6.2321 C   0  0  0  0  0  0  0  0  0  0  0  0
   -3.9376   -7.2717   -5.9605 O   0  0  0  0  0  0  0  0  0  0  0  0
   -3.1086   -4.4333   -3.9675 C   0  0  0  0  0  0  0  0  0  0  0  0
   -2.7724   -3.4593   -5.0761 C   0  0  0  0  0  0  0  0  0  0  0  0
   -2.3215   -3.8028   -6.1692 O   0  0  0  0  0  0  0  0  0  0  0  0
   -2.9938   -2.1328   -4.7604 N   0  0  0  0  0  0  0  0  0  0  0  0
   -2.5470   -1.2263   -5.7601 O   0  0  0  0  0  0  0  0  0  0  0  0
   -3.4206   -1.8426   -3.9220 H   0  0  0  0  0  0  0  0  0  0  0  0
   -2.1595   -1.7234   -6.4974 H   0  0  0  0  0  0  0  0  0  0  0  0
 15 16  1  0
 16 14  1  0
 14 13  1  0
 13  1  1  0
  1 17  1  0
 17 18  1  0
 18 19  2  0
 18 20  1  0
 20 21  1  0
  1  2  1  0
  2  3  2  0
  2  4  2  0
  2  5  1  0
  5  6  2  0
  6  7  1  0
  7  8  2  0
  8 11  1  0
 11 12  1  0
  8  9  1  0
  9 10  2  0
 10  5  1  0
 20 22  1  0
 21 23  1  0
M  END
> <minimizedAffinity>
-5.19288

> <CNNscore>
0.6075983644

> <CNNaffinity>
5.7927231789

> <CNN_VS>
3.5196490288

> <CNNaffinity_variance>
0.6698191166

$$$$



 23 23  0  0  0  0  0  0  0  0999 V2000
   -0.7307   -4.1264   -2.1838 N   0  0  0  0  0  0  0  0  0  0  0  0
   -2.1532   -4.9348   -1.8482 S   0  0  0  0  0  0  0  0  0  0  0  0
   -3.1345   -3.9531   -1.4377 O   0  0  0  0  0  0  0  0  0  0  0  0
   -1.8164   -6.0618   -0.9996 O   0  0  0  0  0  0  0  0  0  0  0  0
   -2.6760   -5.5708   -3.4267 C   0  0  0  0  0  0  0  0  0  0  0  0
   -3.7978   -5.0196   -4.0546 C   0  0  0  0  0  0  0  0  0  0  0  0
   -4.2437   -5.5382   -5.2756 C   0  0  0  0  0  0  0  0  0  0  0  0
   -3.5838   -6.6198   -5.8610 C   0  0  0  0  0  0  0  0  0  0  0  0
   -2.4851   -7.1864   -5.2082 C   0  0  0  0  0  0  0  0  0  0  0  0
   -2.0356   -6.6758   -3.9881 C   0  0  0  0  0  0  0  0  0  0  0  0
   -3.9155   -7.2200   -7.0439 O   0  0  0  0  0  0  0  0  0  0  0  0
   -4.8050   -6.5133   -7.8989 C   0  0  0  0  0  0  0  0  0  0  0  0
    0.2647   -3.8548   -1.1306 C   0  0  0  0  0  0  0  0  0  0  0  0
    0.5331   -2.3496   -1.0238 C   0  0  0  0  0  0  0  0  0  0  0  0
    1.9139   -0.6241   -1.8477 C   0  0  0  0  0  0  0  0  0  0  0  0
    1.7547   -2.0296   -1.7000 O   0  0  0  0  0  0  0  0  0  0  0  0
   -0.4644   -3.5647   -3.5168 C   0  0  0  0  0  0  0  0  0  0  0  0
   -1.3939   -2.4389   -3.9161 C   0  0  0  0  0  0  0  0  0  0  0  0
   -1.8149   -1.5927   -3.1269 O   0  0  0  0  0  0  0  0  0  0  0  0
   -1.7572   -2.4410   -5.2489 N   0  0  0  0  0  0  0  0  0  0  0  0
   -2.7335   -1.4607   -5.5754 O   0  0  0  0  0  0  0  0  0  0  0  0
   -1.3759   -3.0628   -5.9102 H   0  0  0  0  0  0  0  0  0  0  0  0
   -2.9680   -0.9600   -4.7784 H   0  0  0  0  0  0  0  0  0  0  0  0
 15 16  1  0
 16 14  1  0
 14 13  1  0
 13  1  1  0
  1 17  1  0
 17 18  1  0
 18 19  2  0
 18 20  1  0
 20 21  1  0
  1  2  1  0
  2  3  2  0
  2  4  2  0
  2  5  1  0
  5  6  2  0
  6  7  1  0
  7  8  2  0
  8 11  1  0
 11 12  1  0
  8  9  1  0
  9 10  2  0
 10  5  1  0
 20 22  1  0
 21 23  1  0
M  END
> <minimizedAffinity>
-5.41759

> <CNNscore>
0.6026294231

> <CNNaffinity>
5.7620234489

> <CNN_VS>
3.4723649025

> <CNNaffinity_variance>
0.0544815548

$$$$



 23 23  0  0  0  0  0  0  0  0999 V2000
   -1.5420   -5.9207   -3.8957 N   0  0  0  0  0  0  0  0  0  0  0  0
   -0.5543   -5.6462   -2.5771 S   0  0  0  0  0  0  0  0  0  0  0  0
    0.2101   -4.4451   -2.8385 O   0  0  0  0  0  0  0  0  0  0  0  0
    0.1012   -6.9014   -2.2633 O   0  0  0  0  0  0  0  0  0  0  0  0
   -1.6862   -5.2704   -1.2553 C   0  0  0  0  0  0  0  0  0  0  0  0
   -2.0059   -6.2597   -0.3195 C   0  0  0  0  0  0  0  0  0  0  0  0
   -2.9261   -5.9897    0.6998 C   0  0  0  0  0  0  0  0  0  0  0  0
   -3.5435   -4.7402    0.7744 C   0  0  0  0  0  0  0  0  0  0  0  0
   -3.2440   -3.7700   -0.1866 C   0  0  0  0  0  0  0  0  0  0  0  0
   -2.3283   -4.0328   -1.2083 C   0  0  0  0  0  0  0  0  0  0  0  0
   -4.4570   -4.3490    1.7135 O   0  0  0  0  0  0  0  0  0  0  0  0
   -4.8344   -2.9782    1.7148 C   0  0  0  0  0  0  0  0  0  0  0  0
   -2.7056   -6.8220   -3.8087 C   0  0  0  0  0  0  0  0  0  0  0  0
   -2.5141   -8.0329   -4.7287 C   0  0  0  0  0  0  0  0  0  0  0  0
   -2.8758   -9.0893   -2.6512 C   0  0  0  0  0  0  0  0  0  0  0  0
   -2.9684   -9.2181   -4.0645 O   0  0  0  0  0  0  0  0  0  0  0  0
   -1.2296   -5.3574   -5.2179 C   0  0  0  0  0  0  0  0  0  0  0  0
   -2.1320   -4.2177   -5.6391 C   0  0  0  0  0  0  0  0  0  0  0  0
   -2.9111   -4.2834   -6.5902 O   0  0  0  0  0  0  0  0  0  0  0  0
   -2.0019   -3.0722   -4.8780 N   0  0  0  0  0  0  0  0  0  0  0  0
   -2.7557   -1.9719   -5.3699 O   0  0  0  0  0  0  0  0  0  0  0  0
   -1.4401   -3.0226   -4.0710 H   0  0  0  0  0  0  0  0  0  0  0  0
   -3.2336   -2.2395   -6.1705 H   0  0  0  0  0  0  0  0  0  0  0  0
 15 16  1  0
 16 14  1  0
 14 13  1  0
 13  1  1  0
  1 17  1  0
 17 18  1  0
 18 19  2  0
 18 20  1  0
 20 21  1  0
  1  2  1  0
  2  3  2  0
  2  4  2  0
  2  5  1  0
  5  6  2  0
  6  7  1  0
  7  8  2  0
  8 11  1  0
 11 12  1  0
  8  9  1  0
  9 10  2  0
 10  5  1  0
 20 22  1  0
 21 23  1  0
M  END
> <minimizedAffinity>
-4.96742

> <CNNscore>
0.5007088780

> <CNNaffinity>
5.5339241028

> <CNN_VS>
2.7708849907

> <CNNaffinity_variance>
0.2353629321

$$$$



 23 23  0  0  0  0  0  0  0  0999 V2000
   -2.4827   -4.6757   -4.8808 N   0  0  0  0  0  0  0  0  0  0  0  0
   -0.9375   -5.2943   -4.7414 S   0  0  0  0  0  0  0  0  0  0  0  0
   -0.1826   -4.4104   -3.8789 O   0  0  0  0  0  0  0  0  0  0  0  0
   -0.4794   -5.6103   -6.0807 O   0  0  0  0  0  0  0  0  0  0  0  0
   -1.1588   -6.8249   -3.8595 C   0  0  0  0  0  0  0  0  0  0  0  0
   -0.6897   -6.9379   -2.5465 C   0  0  0  0  0  0  0  0  0  0  0  0
   -0.8202   -8.1487   -1.8570 C   0  0  0  0  0  0  0  0  0  0  0  0
   -1.3995   -9.2535   -2.4830 C   0  0  0  0  0  0  0  0  0  0  0  0
   -1.8329   -9.1408   -3.8073 C   0  0  0  0  0  0  0  0  0  0  0  0
   -1.7041   -7.9362   -4.5029 C   0  0  0  0  0  0  0  0  0  0  0  0
   -1.5846  -10.4883   -1.9260 O   0  0  0  0  0  0  0  0  0  0  0  0
   -2.9134  -10.9939   -1.9047 C   0  0  0  0  0  0  0  0  0  0  0  0
   -3.3806   -5.0924   -5.9735 C   0  0  0  0  0  0  0  0  0  0  0  0
   -4.5869   -5.8542   -5.4134 C   0  0  0  0  0  0  0  0  0  0  0  0
   -4.9627   -6.6279   -7.6094 C   0  0  0  0  0  0  0  0  0  0  0  0
   -5.5543   -6.0530   -6.4509 O   0  0  0  0  0  0  0  0  0  0  0  0
   -2.9686   -3.6173   -3.9825 C   0  0  0  0  0  0  0  0  0  0  0  0
   -2.3495   -2.2582   -4.2280 C   0  0  0  0  0  0  0  0  0  0  0  0
   -1.8384   -1.5739   -3.3412 O   0  0  0  0  0  0  0  0  0  0  0  0
   -2.4177   -1.8255   -5.5381 N   0  0  0  0  0  0  0  0  0  0  0  0
   -1.9544   -0.4945   -5.7240 O   0  0  0  0  0  0  0  0  0  0  0  0
   -2.7554   -2.3860   -6.2737 H   0  0  0  0  0  0  0  0  0  0  0  0
   -1.6691   -0.1295   -4.8718 H   0  0  0  0  0  0  0  0  0  0  0  0
 15 16  1  0
 16 14  1  0
 14 13  1  0
 13  1  1  0
  1 17  1  0
 17 18  1  0
 18 19  2  0
 18 20  1  0
 20 21  1  0
  1  2  1  0
  2  3  2  0
  2  4  2  0
  2  5  1  0
  5  6  2  0
  6  7  1  0
  7  8  2  0
  8 11  1  0
 11 12  1  0
  8  9  1  0
  9 10  2  0
 10  5  1  0
 20 22  1  0
 21 23  1  0
M  END
> <minimizedAffinity>
-6.37274

> <CNNscore>
0.4815086126

> <CNNaffinity>
5.5523986816

> <CNN_VS>
2.6735277176

> <CNNaffinity_variance>
0.0673098341

$$$$



 23 23  0  0  0  0  0  0  0  0999 V2000
   -2.7063   -5.8325   -4.3465 N   0  0  0  0  0  0  0  0  0  0  0  0
   -1.1223   -6.2597   -4.0333 S   0  0  0  0  0  0  0  0  0  0  0  0
   -0.3371   -5.9411   -5.2068 O   0  0  0  0  0  0  0  0  0  0  0  0
   -1.1407   -7.6011   -3.4821 O   0  0  0  0  0  0  0  0  0  0  0  0
   -0.6161   -5.1413   -2.7439 C   0  0  0  0  0  0  0  0  0  0  0  0
    0.1503   -4.0170   -3.0684 C   0  0  0  0  0  0  0  0  0  0  0  0
    0.5898   -3.1528   -2.0591 C   0  0  0  0  0  0  0  0  0  0  0  0
    0.2828   -3.4201   -0.7241 C   0  0  0  0  0  0  0  0  0  0  0  0
   -0.4535   -4.5653   -0.4068 C   0  0  0  0  0  0  0  0  0  0  0  0
   -0.8937   -5.4339   -1.4085 C   0  0  0  0  0  0  0  0  0  0  0  0
    0.6499   -2.6622    0.3530 O   0  0  0  0  0  0  0  0  0  0  0  0
    1.8680   -3.0077    1.0001 C   0  0  0  0  0  0  0  0  0  0  0  0
   -3.6413   -6.7718   -4.9925 C   0  0  0  0  0  0  0  0  0  0  0  0
   -4.6330   -6.0130   -5.8813 C   0  0  0  0  0  0  0  0  0  0  0  0
   -6.3222   -6.7966   -7.3288 C   0  0  0  0  0  0  0  0  0  0  0  0
   -5.8517   -6.7583   -5.9872 O   0  0  0  0  0  0  0  0  0  0  0  0
   -3.1991   -4.4714   -4.0857 C   0  0  0  0  0  0  0  0  0  0  0  0
   -2.7414   -3.4388   -5.0931 C   0  0  0  0  0  0  0  0  0  0  0  0
   -2.2041   -3.7248   -6.1633 O   0  0  0  0  0  0  0  0  0  0  0  0
   -2.9563   -2.1292   -4.7094 N   0  0  0  0  0  0  0  0  0  0  0  0
   -2.3998   -1.1744   -5.6035 O   0  0  0  0  0  0  0  0  0  0  0  0
   -3.4484   -1.8807   -3.8938 H   0  0  0  0  0  0  0  0  0  0  0  0
   -1.9611   -1.6346   -6.3361 H   0  0  0  0  0  0  0  0  0  0  0  0
 15 16  1  0
 16 14  1  0
 14 13  1  0
 13  1  1  0
  1 17  1  0
 17 18  1  0
 18 19  2  0
 18 20  1  0
 20 21  1  0
  1  2  1  0
  2  3  2  0
  2  4  2  0
  2  5  1  0
  5  6  2  0
  6  7  1  0
  7  8  2  0
  8 11  1  0
 11 12  1  0
  8  9  1  0
  9 10  2  0
 10  5  1  0
 20 22  1  0
 21 23  1  0
M  END
> <minimizedAffinity>
-6.29536

> <CNNscore>
0.4801481664

> <CNNaffinity>
5.7627677917

> <CNN_VS>
2.7669823170

> <CNNaffinity_variance>
0.3492751122

$$$$
