


 23 23  0  0  0  0  0  0  0  0999 V2000
   -4.9052   -9.1234   11.2790 C   0  0  0  0  0  0  0  0  0  0  0  0
   -4.4230   -8.7169   12.5679 O   0  0  0  0  0  0  0  0  0  0  0  0
   -3.4123   -9.5531   13.1323 C   0  0  0  0  0  0  0  0  0  0  0  0
   -2.1696   -9.6058   12.2031 C   0  0  0  0  0  0  0  0  0  0  0  0
   -2.5567   -9.7663   10.7110 C   0  0  0  0  0  0  0  0  0  0  0  0
   -4.0368  -10.1611   10.5425 C   0  0  0  0  0  0  0  0  0  0  0  0
   -1.3206   -8.4062   12.3757 N   0  0  0  0  0  0  0  0  0  0  0  0
   -0.2749   -8.4130   13.2766 C   0  0  0  0  0  0  0  0  0  0  0  0
    0.0196   -9.4352   13.8960 O   0  0  0  0  0  0  0  0  0  0  0  0
    0.4082   -7.2108   13.4155 N   0  0  0  0  0  0  0  0  0  0  0  0
    1.5336   -7.1013   14.3248 C   0  0  0  0  0  0  0  0  0  0  0  0
   -1.5029   -7.5977   11.8443 H   0  0  0  0  0  0  0  0  0  0  0  0
    0.0648   -6.0422   12.5460 N   0  0  0  0  0  0  0  0  0  0  0  0
   -0.1998   -5.0201   13.1868 O   0  0  0  0  0  0  0  0  0  0  0  0
   -3.9237  -10.8526   13.4113 O   0  0  0  0  0  0  0  0  0  0  0  0
   -2.9333  -11.7413   13.9089 C   0  0  0  0  0  0  0  0  0  0  0  0
   -1.7235  -10.7638   10.0799 O   0  0  0  0  0  0  0  0  0  0  0  0
   -0.8770  -10.2354    9.0667 C   0  0  0  0  0  0  0  0  0  0  0  0
   -4.4137  -10.1135    9.1483 O   0  0  0  0  0  0  0  0  0  0  0  0
   -4.7664  -11.3920    8.6337 C   0  0  0  0  0  0  0  0  0  0  0  0
   -6.3842   -9.5432   11.3688 C   0  0  0  0  0  0  0  0  0  0  0  0
   -8.1466   -7.9978   11.6359 C   0  0  0  0  0  0  0  0  0  0  0  0
   -7.2395   -8.5979   10.7233 O   0  0  0  0  0  0  0  0  0  0  0  0
 22 23  1  0
 23 21  1  0
  1 21  1  0
  1  2  1  0
  2  3  1  0
  3 15  1  0
 15 16  1  0
  3  4  1  0
  4  7  1  0
  7  8  1  0
  8  9  2  0
  8 10  1  0
 10 11  1  0
 10 13  1  0
 13 14  2  0
  4  5  1  0
  5 17  1  0
 17 18  1  0
  5  6  1  0
  6 19  1  0
 19 20  1  0
  6  1  1  0
  7 12  1  0
M  END
> <minimizedAffinity>
-4.84983

> <CNNscore>
0.4279386699

> <CNNaffinity>
3.3444805145

> <CNN_VS>
1.4312325716

> <CNNaffinity_variance>
0.8513195515

$$$$



 23 23  0  0  0  0  0  0  0  0999 V2000
   -8.6894  -11.8670    9.8691 C   0  0  0  0  0  0  0  0  0  0  0  0
   -9.9281  -12.4494    9.4383 O   0  0  0  0  0  0  0  0  0  0  0  0
   -9.9451  -12.9173    8.0893 C   0  0  0  0  0  0  0  0  0  0  0  0
   -8.8591  -14.0066    7.8784 C   0  0  0  0  0  0  0  0  0  0  0  0
   -7.5117  -13.6315    8.5459 C   0  0  0  0  0  0  0  0  0  0  0  0
   -7.4737  -12.1492    8.9660 C   0  0  0  0  0  0  0  0  0  0  0  0
   -9.3171  -15.3228    8.3760 N   0  0  0  0  0  0  0  0  0  0  0  0
   -8.8753  -15.8033    9.5922 C   0  0  0  0  0  0  0  0  0  0  0  0
   -8.1559  -15.1183   10.3191 O   0  0  0  0  0  0  0  0  0  0  0  0
   -9.3057  -17.0814    9.9270 N   0  0  0  0  0  0  0  0  0  0  0  0
   -8.9148  -17.6862   11.1868 C   0  0  0  0  0  0  0  0  0  0  0  0
   -9.9412  -15.8595    7.8359 H   0  0  0  0  0  0  0  0  0  0  0  0
  -10.2707  -17.8089    9.0444 N   0  0  0  0  0  0  0  0  0  0  0  0
   -9.8667  -18.9227    8.6957 O   0  0  0  0  0  0  0  0  0  0  0  0
   -9.7997  -11.8364    7.1735 O   0  0  0  0  0  0  0  0  0  0  0  0
  -10.7450  -11.8787    6.1138 C   0  0  0  0  0  0  0  0  0  0  0  0
   -6.4132  -13.8993    7.6463 O   0  0  0  0  0  0  0  0  0  0  0  0
   -5.4762  -14.8370    8.1610 C   0  0  0  0  0  0  0  0  0  0  0  0
   -6.2919  -11.8804    9.7527 O   0  0  0  0  0  0  0  0  0  0  0  0
   -5.4452  -10.9077    9.1522 C   0  0  0  0  0  0  0  0  0  0  0  0
   -8.8765  -10.3665   10.1614 C   0  0  0  0  0  0  0  0  0  0  0  0
   -8.4615   -8.8219   11.8955 C   0  0  0  0  0  0  0  0  0  0  0  0
   -8.9584  -10.1100   11.5646 O   0  0  0  0  0  0  0  0  0  0  0  0
 22 23  1  0
 23 21  1  0
  1 21  1  0
  1  2  1  0
  2  3  1  0
  3 15  1  0
 15 16  1  0
  3  4  1  0
  4  7  1  0
  7  8  1  0
  8  9  2  0
  8 10  1  0
 10 11  1  0
 10 13  1  0
 13 14  2  0
  4  5  1  0
  5 17  1  0
 17 18  1  0
  5  6  1  0
  6 19  1  0
 19 20  1  0
  6  1  1  0
  7 12  1  0
M  END
> <minimizedAffinity>
-6.23669

> <CNNscore>
0.3711055517

> <CNNaffinity>
3.9966695309

> <CNN_VS>
1.4831862450

> <CNNaffinity_variance>
0.9413304329

$$$$



 23 23  0  0  0  0  0  0  0  0999 V2000
   -3.1310  -12.1366   14.6580 C   0  0  0  0  0  0  0  0  0  0  0  0
   -3.7254  -10.8378   14.7960 O   0  0  0  0  0  0  0  0  0  0  0  0
   -3.4548   -9.9272   13.7298 C   0  0  0  0  0  0  0  0  0  0  0  0
   -3.9733  -10.4987   12.3826 C   0  0  0  0  0  0  0  0  0  0  0  0
   -3.6394  -12.0026   12.2136 C   0  0  0  0  0  0  0  0  0  0  0  0
   -2.6047  -12.4797   13.2514 C   0  0  0  0  0  0  0  0  0  0  0  0
   -5.4308  -10.2882   12.2372 N   0  0  0  0  0  0  0  0  0  0  0  0
   -5.9167   -9.1304   11.6639 C   0  0  0  0  0  0  0  0  0  0  0  0
   -5.1517   -8.2877   11.1950 O   0  0  0  0  0  0  0  0  0  0  0  0
   -7.3002   -9.0012   11.6473 N   0  0  0  0  0  0  0  0  0  0  0  0
   -7.9261   -7.8316   11.0593 C   0  0  0  0  0  0  0  0  0  0  0  0
   -6.0583  -10.9787   12.5515 H   0  0  0  0  0  0  0  0  0  0  0  0
   -8.1689  -10.1183   12.1341 N   0  0  0  0  0  0  0  0  0  0  0  0
   -9.2604   -9.7335   12.5652 O   0  0  0  0  0  0  0  0  0  0  0  0
   -2.0684   -9.6065   13.6735 O   0  0  0  0  0  0  0  0  0  0  0  0
   -1.7209   -8.8570   12.5177 C   0  0  0  0  0  0  0  0  0  0  0  0
   -3.1334  -12.2591   10.8848 O   0  0  0  0  0  0  0  0  0  0  0  0
   -4.0037  -13.0569   10.0922 C   0  0  0  0  0  0  0  0  0  0  0  0
   -2.4609  -13.9163   13.1933 O   0  0  0  0  0  0  0  0  0  0  0  0
   -1.1590  -14.3191   12.7854 C   0  0  0  0  0  0  0  0  0  0  0  0
   -2.0770  -12.3625   15.7579 C   0  0  0  0  0  0  0  0  0  0  0  0
   -1.3784  -10.3762   16.8218 C   0  0  0  0  0  0  0  0  0  0  0  0
   -2.2722  -11.4785   16.8633 O   0  0  0  0  0  0  0  0  0  0  0  0
 22 23  1  0
 23 21  1  0
  1 21  1  0
  1  2  1  0
  2  3  1  0
  3 15  1  0
 15 16  1  0
  3  4  1  0
  4  7  1  0
  7  8  1  0
  8  9  2  0
  8 10  1  0
 10 11  1  0
 10 13  1  0
 13 14  2  0
  4  5  1  0
  5 17  1  0
 17 18  1  0
  5  6  1  0
  6 19  1  0
 19 20  1  0
  6  1  1  0
  7 12  1  0
M  END
> <minimizedAffinity>
-5.23722

> <CNNscore>
0.3645962179

> <CNNaffinity>
3.3486912251

> <CNN_VS>
1.2209202051

> <CNNaffinity_variance>
1.5368715525

$$$$



 23 23  0  0  0  0  0  0  0  0999 V2000
   -4.3728  -11.1702   11.8956 C   0  0  0  0  0  0  0  0  0  0  0  0
   -5.7475  -10.8004   11.7148 O   0  0  0  0  0  0  0  0  0  0  0  0
   -6.0025   -9.9171   10.6222 C   0  0  0  0  0  0  0  0  0  0  0  0
   -5.5494  -10.5626    9.2848 C   0  0  0  0  0  0  0  0  0  0  0  0
   -4.1706  -11.2598    9.4051 C   0  0  0  0  0  0  0  0  0  0  0  0
   -3.4423  -10.8682   10.7056 C   0  0  0  0  0  0  0  0  0  0  0  0
   -6.5571  -11.5246    8.7859 N   0  0  0  0  0  0  0  0  0  0  0  0
   -7.7614  -11.0774    8.2812 C   0  0  0  0  0  0  0  0  0  0  0  0
   -7.9906   -9.8736    8.1651 O   0  0  0  0  0  0  0  0  0  0  0  0
   -8.6647  -12.0671    7.9128 N   0  0  0  0  0  0  0  0  0  0  0  0
   -9.9590  -11.7168    7.3582 C   0  0  0  0  0  0  0  0  0  0  0  0
   -6.3672  -12.4902    8.8143 H   0  0  0  0  0  0  0  0  0  0  0  0
   -8.2722  -13.5098    7.9774 N   0  0  0  0  0  0  0  0  0  0  0  0
   -8.5624  -14.1392    6.9551 O   0  0  0  0  0  0  0  0  0  0  0  0
   -5.3879   -8.6506   10.8370 O   0  0  0  0  0  0  0  0  0  0  0  0
   -6.3247   -7.6252   11.1357 C   0  0  0  0  0  0  0  0  0  0  0  0
   -3.3371  -10.9243    8.2736 O   0  0  0  0  0  0  0  0  0  0  0  0
   -2.9956   -9.5453    8.2116 C   0  0  0  0  0  0  0  0  0  0  0  0
   -2.2574  -11.6766   10.8805 O   0  0  0  0  0  0  0  0  0  0  0  0
   -2.5401  -13.0707   10.8668 C   0  0  0  0  0  0  0  0  0  0  0  0
   -3.8376  -10.6079   13.2257 C   0  0  0  0  0  0  0  0  0  0  0  0
   -1.8202   -9.5100   13.7639 C   0  0  0  0  0  0  0  0  0  0  0  0
   -3.0273   -9.4493   13.0191 O   0  0  0  0  0  0  0  0  0  0  0  0
 22 23  1  0
 23 21  1  0
  1 21  1  0
  1  2  1  0
  2  3  1  0
  3 15  1  0
 15 16  1  0
  3  4  1  0
  4  7  1  0
  7  8  1  0
  8  9  2  0
  8 10  1  0
 10 11  1  0
 10 13  1  0
 13 14  2  0
  4  5  1  0
  5 17  1  0
 17 18  1  0
  5  6  1  0
  6 19  1  0
 19 20  1  0
  6  1  1  0
  7 12  1  0
M  END
> <minimizedAffinity>
-4.47974

> <CNNscore>
0.3430327177

> <CNNaffinity>
3.8634395599

> <CNN_VS>
1.3252861500

> <CNNaffinity_variance>
0.7435858846

$$$$



 23 23  0  0  0  0  0  0  0  0999 V2000
   -4.6411   -9.6036   11.4653 C   0  0  0  0  0  0  0  0  0  0  0  0
   -3.9809   -8.9227   12.5422 O   0  0  0  0  0  0  0  0  0  0  0  0
   -3.2695   -9.7642   13.4504 C   0  0  0  0  0  0  0  0  0  0  0  0
   -2.1666  -10.5609   12.7023 C   0  0  0  0  0  0  0  0  0  0  0  0
   -2.6679  -11.1350   11.3529 C   0  0  0  0  0  0  0  0  0  0  0  0
   -4.2028  -11.0623   11.2344 C   0  0  0  0  0  0  0  0  0  0  0  0
   -0.9636   -9.7288   12.4783 N   0  0  0  0  0  0  0  0  0  0  0  0
   -0.6781   -9.2358   11.2211 C   0  0  0  0  0  0  0  0  0  0  0  0
   -1.4534   -9.4126   10.2815 O   0  0  0  0  0  0  0  0  0  0  0  0
    0.5150   -8.5326   11.1066 N   0  0  0  0  0  0  0  0  0  0  0  0
    0.9145   -7.9574    9.8357 C   0  0  0  0  0  0  0  0  0  0  0  0
   -0.3627   -9.5254   13.2312 H   0  0  0  0  0  0  0  0  0  0  0  0
    1.3510   -8.2613   12.3178 N   0  0  0  0  0  0  0  0  0  0  0  0
    2.5643   -8.3164   12.0938 O   0  0  0  0  0  0  0  0  0  0  0  0
   -4.1613  -10.6228   14.1543 O   0  0  0  0  0  0  0  0  0  0  0  0
   -3.6002  -11.1400   15.3526 C   0  0  0  0  0  0  0  0  0  0  0  0
   -2.2437  -12.5079   11.2020 O   0  0  0  0  0  0  0  0  0  0  0  0
   -2.5360  -13.3180   12.3336 C   0  0  0  0  0  0  0  0  0  0  0  0
   -4.6209  -11.4224    9.8989 O   0  0  0  0  0  0  0  0  0  0  0  0
   -5.3898  -12.6189    9.8711 C   0  0  0  0  0  0  0  0  0  0  0  0
   -6.1686   -9.4559   11.5951 C   0  0  0  0  0  0  0  0  0  0  0  0
   -7.8847   -7.8481   11.7832 C   0  0  0  0  0  0  0  0  0  0  0  0
   -6.6010   -8.1384   11.2506 O   0  0  0  0  0  0  0  0  0  0  0  0
 22 23  1  0
 23 21  1  0
  1 21  1  0
  1  2  1  0
  2  3  1  0
  3 15  1  0
 15 16  1  0
  3  4  1  0
  4  7  1  0
  7  8  1  0
  8  9  2  0
  8 10  1  0
 10 11  1  0
 10 13  1  0
 13 14  2  0
  4  5  1  0
  5 17  1  0
 17 18  1  0
  5  6  1  0
  6 19  1  0
 19 20  1  0
  6  1  1  0
  7 12  1  0
M  END
> <minimizedAffinity>
-3.95682

> <CNNscore>
0.3134836257

> <CNNaffinity>
3.2282078266

> <CNN_VS>
1.0119903088

> <CNNaffinity_variance>
0.7395715714

$$$$



 23 23  0  0  0  0  0  0  0  0999 V2000
   -8.6140  -11.9220    9.7043 C   0  0  0  0  0  0  0  0  0  0  0  0
   -8.4178  -12.9944   10.6374 O   0  0  0  0  0  0  0  0  0  0  0  0
   -9.1499  -14.1879   10.3570 C   0  0  0  0  0  0  0  0  0  0  0  0
   -8.7587  -14.7505    8.9638 C   0  0  0  0  0  0  0  0  0  0  0  0
   -8.6565  -13.6397    7.8880 C   0  0  0  0  0  0  0  0  0  0  0  0
   -9.2787  -12.3152    8.3714 C   0  0  0  0  0  0  0  0  0  0  0  0
   -7.4877  -15.5055    9.0288 N   0  0  0  0  0  0  0  0  0  0  0  0
   -6.3171  -14.9466    8.5571 C   0  0  0  0  0  0  0  0  0  0  0  0
   -6.2912  -13.7869    8.1452 O   0  0  0  0  0  0  0  0  0  0  0  0
   -5.1985  -15.7702    8.5949 N   0  0  0  0  0  0  0  0  0  0  0  0
   -3.9094  -15.2870    8.1363 C   0  0  0  0  0  0  0  0  0  0  0  0
   -7.4769  -16.4126    9.4112 H   0  0  0  0  0  0  0  0  0  0  0  0
   -5.2824  -17.1300    9.2141 N   0  0  0  0  0  0  0  0  0  0  0  0
   -5.9521  -17.9268    8.5494 O   0  0  0  0  0  0  0  0  0  0  0  0
  -10.5519  -13.9627   10.4655 O   0  0  0  0  0  0  0  0  0  0  0  0
  -11.3082  -15.1651   10.4431 C   0  0  0  0  0  0  0  0  0  0  0  0
   -9.3128  -14.0571    6.6704 O   0  0  0  0  0  0  0  0  0  0  0  0
  -10.6747  -14.4208    6.8578 C   0  0  0  0  0  0  0  0  0  0  0  0
   -8.9972  -11.2552    7.4305 O   0  0  0  0  0  0  0  0  0  0  0  0
  -10.1747  -10.7348    6.8253 C   0  0  0  0  0  0  0  0  0  0  0  0
   -9.3168  -10.7364   10.3915 C   0  0  0  0  0  0  0  0  0  0  0  0
   -8.4450   -8.9491   11.6607 C   0  0  0  0  0  0  0  0  0  0  0  0
   -8.5007   -9.5636   10.3821 O   0  0  0  0  0  0  0  0  0  0  0  0
 22 23  1  0
 23 21  1  0
  1 21  1  0
  1  2  1  0
  2  3  1  0
  3 15  1  0
 15 16  1  0
  3  4  1  0
  4  7  1  0
  7  8  1  0
  8  9  2  0
  8 10  1  0
 10 11  1  0
 10 13  1  0
 13 14  2  0
  4  5  1  0
  5 17  1  0
 17 18  1  0
  5  6  1  0
  6 19  1  0
 19 20  1  0
  6  1  1  0
  7 12  1  0
M  END
> <minimizedAffinity>
-6.05927

> <CNNscore>
0.3099471629

> <CNNaffinity>
3.8506281376

> <CNN_VS>
1.1934912205

> <CNNaffinity_variance>
1.2856537104

$$$$



 23 23  0  0  0  0  0  0  0  0999 V2000
   -8.7946  -12.2670    9.9266 C   0  0  0  0  0  0  0  0  0  0  0  0
   -9.8178  -13.2178   10.2555 O   0  0  0  0  0  0  0  0  0  0  0  0
  -10.0806  -14.2013    9.2541 C   0  0  0  0  0  0  0  0  0  0  0  0
   -8.8011  -15.0291    8.9568 C   0  0  0  0  0  0  0  0  0  0  0  0
   -7.5365  -14.1397    8.8489 C   0  0  0  0  0  0  0  0  0  0  0  0
   -7.8954  -12.6453    8.7344 C   0  0  0  0  0  0  0  0  0  0  0  0
   -8.5920  -16.0778    9.9796 N   0  0  0  0  0  0  0  0  0  0  0  0
   -9.2829  -17.2707    9.9098 C   0  0  0  0  0  0  0  0  0  0  0  0
  -10.0256  -17.5166    8.9595 O   0  0  0  0  0  0  0  0  0  0  0  0
   -9.0695  -18.1527   10.9622 N   0  0  0  0  0  0  0  0  0  0  0  0
   -9.7325  -19.4431   10.9908 C   0  0  0  0  0  0  0  0  0  0  0  0
   -7.9558  -15.9236   10.7149 H   0  0  0  0  0  0  0  0  0  0  0  0
   -8.0656  -17.8319   12.0247 N   0  0  0  0  0  0  0  0  0  0  0  0
   -8.2435  -18.4661   13.0695 O   0  0  0  0  0  0  0  0  0  0  0  0
  -10.6113  -13.6005    8.0771 O   0  0  0  0  0  0  0  0  0  0  0  0
  -10.7973  -14.5292    7.0182 C   0  0  0  0  0  0  0  0  0  0  0  0
   -6.7450  -14.5279    7.7041 O   0  0  0  0  0  0  0  0  0  0  0  0
   -5.5540  -15.2238    8.0495 C   0  0  0  0  0  0  0  0  0  0  0  0
   -6.7036  -11.8339    8.8303 O   0  0  0  0  0  0  0  0  0  0  0  0
   -5.9747  -12.0730   10.0283 C   0  0  0  0  0  0  0  0  0  0  0  0
   -9.3981  -10.8565    9.7913 C   0  0  0  0  0  0  0  0  0  0  0  0
   -9.2191  -11.5463    7.5424 C   0  0  0  0  0  0  0  0  0  0  0  0
   -9.5934  -10.4969    8.4223 O   0  0  0  0  0  0  0  0  0  0  0  0
 22 23  1  0
 23 21  1  0
  1 21  1  0
  1  2  1  0
  2  3  1  0
  3 15  1  0
 15 16  1  0
  3  4  1  0
  4  7  1  0
  7  8  1  0
  8  9  2  0
  8 10  1  0
 10 11  1  0
 10 13  1  0
 13 14  2  0
  4  5  1  0
  5 17  1  0
 17 18  1  0
  5  6  1  0
  6 19  1  0
 19 20  1  0
  6  1  1  0
  7 12  1  0
M  END
> <minimizedAffinity>
-5.95374

> <CNNscore>
0.3081135750

> <CNNaffinity>
4.0796408653

> <CNN_VS>
1.2569926977

> <CNNaffinity_variance>
0.6858105063

$$$$



 23 23  0  0  0  0  0  0  0  0999 V2000
   -6.4184  -12.0481   10.2332 C   0  0  0  0  0  0  0  0  0  0  0  0
   -5.0213  -11.8528   10.4956 O   0  0  0  0  0  0  0  0  0  0  0  0
   -4.6149  -10.4929   10.6527 C   0  0  0  0  0  0  0  0  0  0  0  0
   -5.3730   -9.8327   11.8359 C   0  0  0  0  0  0  0  0  0  0  0  0
   -6.8808  -10.1909   11.8420 C   0  0  0  0  0  0  0  0  0  0  0  0
   -7.3225  -10.8324   10.5121 C   0  0  0  0  0  0  0  0  0  0  0  0
   -4.7641  -10.1997   13.1337 N   0  0  0  0  0  0  0  0  0  0  0  0
   -3.5147   -9.7257   13.4792 C   0  0  0  0  0  0  0  0  0  0  0  0
   -2.9168   -8.9313   12.7535 O   0  0  0  0  0  0  0  0  0  0  0  0
   -3.0050  -10.1940   14.6842 N   0  0  0  0  0  0  0  0  0  0  0  0
   -1.7050   -9.7553   15.1568 C   0  0  0  0  0  0  0  0  0  0  0  0
   -5.2536  -10.7860   13.7549 H   0  0  0  0  0  0  0  0  0  0  0  0
   -3.8375  -11.0698   15.5669 N   0  0  0  0  0  0  0  0  0  0  0  0
   -3.1700  -11.8810   16.2165 O   0  0  0  0  0  0  0  0  0  0  0  0
   -4.7857   -9.7668    9.4396 O   0  0  0  0  0  0  0  0  0  0  0  0
   -3.7518  -10.0140    8.4972 C   0  0  0  0  0  0  0  0  0  0  0  0
   -7.6770   -9.0107   12.0884 O   0  0  0  0  0  0  0  0  0  0  0  0
   -7.3938   -7.9406   11.1957 C   0  0  0  0  0  0  0  0  0  0  0  0
   -8.6756  -11.3282   10.6187 O   0  0  0  0  0  0  0  0  0  0  0  0
   -9.5633  -10.6945    9.7054 C   0  0  0  0  0  0  0  0  0  0  0  0
   -6.6219  -12.6280    8.8210 C   0  0  0  0  0  0  0  0  0  0  0  0
   -8.3715  -13.8604    7.8284 C   0  0  0  0  0  0  0  0  0  0  0  0
   -7.3887  -13.8333    8.8525 O   0  0  0  0  0  0  0  0  0  0  0  0
 22 23  1  0
 23 21  1  0
  1 21  1  0
  1  2  1  0
  2  3  1  0
  3 15  1  0
 15 16  1  0
  3  4  1  0
  4  7  1  0
  7  8  1  0
  8  9  2  0
  8 10  1  0
 10 11  1  0
 10 13  1  0
 13 14  2  0
  4  5  1  0
  5 17  1  0
 17 18  1  0
  5  6  1  0
  6 19  1  0
 19 20  1  0
  6  1  1  0
  7 12  1  0
M  END
> <minimizedAffinity>
-5.71135

> <CNNscore>
0.2844164968

> <CNNaffinity>
3.6434497833

> <CNN_VS>
1.0362572670

> <CNNaffinity_variance>
0.8329598308

$$$$



 23 23  0  0  0  0  0  0  0  0999 V2000
   -8.7229  -12.4314   10.0650 C   0  0  0  0  0  0  0  0  0  0  0  0
   -8.7875  -13.5377   10.9766 O   0  0  0  0  0  0  0  0  0  0  0  0
   -9.6441  -14.6080   10.5766 C   0  0  0  0  0  0  0  0  0  0  0  0
   -9.1802  -15.1956    9.2164 C   0  0  0  0  0  0  0  0  0  0  0  0
   -8.8005  -14.0916    8.1971 C   0  0  0  0  0  0  0  0  0  0  0  0
   -9.2805  -12.7003    8.6543 C   0  0  0  0  0  0  0  0  0  0  0  0
   -8.0442  -16.1269    9.3949 N   0  0  0  0  0  0  0  0  0  0  0  0
   -8.2656  -17.4825    9.5305 C   0  0  0  0  0  0  0  0  0  0  0  0
   -9.3993  -17.9513    9.4300 O   0  0  0  0  0  0  0  0  0  0  0  0
   -7.1363  -18.2561    9.7704 N   0  0  0  0  0  0  0  0  0  0  0  0
   -7.2447  -19.6955    9.9184 C   0  0  0  0  0  0  0  0  0  0  0  0
   -7.1242  -15.7771    9.4170 H   0  0  0  0  0  0  0  0  0  0  0  0
   -5.7772  -17.6298    9.7672 N   0  0  0  0  0  0  0  0  0  0  0  0
   -4.9773  -18.1992   10.5164 O   0  0  0  0  0  0  0  0  0  0  0  0
  -11.0034  -14.1851   10.5379 O   0  0  0  0  0  0  0  0  0  0  0  0
  -11.9199  -15.2706   10.5295 C   0  0  0  0  0  0  0  0  0  0  0  0
   -9.3664  -14.3878    6.9011 O   0  0  0  0  0  0  0  0  0  0  0  0
  -10.7817  -14.5254    6.9197 C   0  0  0  0  0  0  0  0  0  0  0  0
   -8.7471  -11.6750    7.7870 O   0  0  0  0  0  0  0  0  0  0  0  0
   -9.7635  -10.8638    7.2105 C   0  0  0  0  0  0  0  0  0  0  0  0
   -9.3250  -11.1696   10.7110 C   0  0  0  0  0  0  0  0  0  0  0  0
   -8.3798   -9.2342   11.6735 C   0  0  0  0  0  0  0  0  0  0  0  0
   -8.4973  -10.0243   10.4997 O   0  0  0  0  0  0  0  0  0  0  0  0
 22 23  1  0
 23 21  1  0
  1 21  1  0
  1  2  1  0
  2  3  1  0
  3 15  1  0
 15 16  1  0
  3  4  1  0
  4  7  1  0
  7  8  1  0
  8  9  2  0
  8 10  1  0
 10 11  1  0
 10 13  1  0
 13 14  2  0
  4  5  1  0
  5 17  1  0
 17 18  1  0
  5  6  1  0
  6 19  1  0
 19 20  1  0
  6  1  1  0
  7 12  1  0
M  END
> <minimizedAffinity>
-5.84909

> <CNNscore>
0.2674836516

> <CNNaffinity>
3.9677498341

> <CNN_VS>
1.0613082647

> <CNNaffinity_variance>
1.0910199881

$$$$
