


 44 45  0  0  0  0  0  0  0  0999 V2000
   36.0153   42.5045   -5.5626 P   0  0  0  0  0  0  0  0  0  0  0  0
   37.4513   42.7021   -5.9284 O   0  0  0  0  0  0  0  0  0  0  0  0
   35.2684   43.9318   -5.7148 O   0  0  0  0  0  0  0  0  0  0  0  0
   35.7005   44.5854   -5.1430 H   0  0  0  0  0  0  0  0  0  0  0  0
   35.7700   42.0062   -4.0274 N   0  0  0  0  0  0  0  0  0  0  0  0
   34.8808   42.4115   -3.7351 H   0  0  0  0  0  0  0  0  0  0  0  0
   36.7278   42.2941   -2.9469 C   0  0  0  0  0  0  0  0  0  0  0  0
   37.6114   40.0407   -3.3137 N   0  0  0  0  0  0  0  0  0  0  0  0
   37.9499   41.3645   -3.1262 C   0  0  0  0  0  0  0  0  0  0  0  0
   39.1050   41.7720   -3.0874 O   0  0  0  0  0  0  0  0  0  0  0  0
   36.6608   39.7911   -3.3718 H   0  0  0  0  0  0  0  0  0  0  0  0
   38.6316   38.9990   -3.4284 C   0  0  0  0  0  0  0  0  0  0  0  0
   39.8075   39.5447   -4.2337 C   0  0  0  0  0  0  0  0  0  0  0  0
   39.0209   38.5247   -2.0075 C   0  0  0  0  0  0  0  0  0  0  0  0
   39.3270   37.0129   -1.7767 C   0  0  0  0  0  0  0  0  0  0  0  0
   38.0692   36.1503   -2.0357 C   0  0  0  0  0  0  0  0  0  0  0  0
   40.4349   36.4936   -2.7109 C   0  0  0  0  0  0  0  0  0  0  0  0
   39.7190   36.7757   -0.2789 C   0  0  0  0  0  0  0  0  0  0  0  0
   39.3362   34.3128    0.3991 C   0  0  0  0  0  0  0  0  0  0  0  0
   40.3288   35.4327    0.1368 C   0  0  0  0  0  0  0  0  0  0  0  0
   36.0182   42.0437   -1.6039 C   0  0  0  0  0  0  0  0  0  0  0  0
   36.4706   42.9648   -0.4522 C   0  0  0  0  0  0  0  0  0  0  0  0
   37.1889   42.1311    0.6129 C   0  0  0  0  0  0  0  0  0  0  0  0
   37.3796   44.1120   -0.8901 C   0  0  0  0  0  0  0  0  0  0  0  0
   35.0621   41.4268   -6.7047 C   0  0  0  0  0  0  0  0  0  0  0  0
   35.0631   42.0105   -8.0413 N   0  0  0  0  0  0  0  0  0  0  0  0
   34.0511   42.8257   -8.4493 C   0  0  0  0  0  0  0  0  0  0  0  0
   33.1436   43.2186   -7.7293 O   0  0  0  0  0  0  0  0  0  0  0  0
   35.8054   41.8126   -8.6570 H   0  0  0  0  0  0  0  0  0  0  0  0
   34.1936   43.0727   -9.7721 O   0  0  0  0  0  0  0  0  0  0  0  0
   32.9757   43.0472  -10.5248 C   0  0  0  0  0  0  0  0  0  0  0  0
   32.5541   41.6232  -10.7992 C   0  0  0  0  0  0  0  0  0  0  0  0
   31.5813   41.0054   -9.9992 C   0  0  0  0  0  0  0  0  0  0  0  0
   31.1986   39.6849  -10.2442 C   0  0  0  0  0  0  0  0  0  0  0  0
   31.7885   38.9669  -11.2848 C   0  0  0  0  0  0  0  0  0  0  0  0
   32.7625   39.5696  -12.0805 C   0  0  0  0  0  0  0  0  0  0  0  0
   33.1442   40.8902  -11.8384 C   0  0  0  0  0  0  0  0  0  0  0  0
   35.5715   39.9779   -6.7107 C   0  0  0  0  0  0  0  0  0  0  0  0
   34.5921   38.9849   -7.2982 C   0  0  0  0  0  0  0  0  0  0  0  0
   34.8810   38.2991   -8.4855 C   0  0  0  0  0  0  0  0  0  0  0  0
   33.9824   37.3614   -8.9968 C   0  0  0  0  0  0  0  0  0  0  0  0
   32.7826   37.1080   -8.3377 C   0  0  0  0  0  0  0  0  0  0  0  0
   32.4755   37.7973   -7.1657 C   0  0  0  0  0  0  0  0  0  0  0  0
   33.3741   38.7336   -6.6511 C   0  0  0  0  0  0  0  0  0  0  0  0
 19 20  1  0
 20 18  1  0
 18 15  1  0
 15 16  1  0
 15 17  1  0
 15 14  1  0
 14 12  1  0
 12 13  1  0
 12  8  1  0
  8  9  1  0
  9 10  2  0
  9  7  1  0
  7 21  1  0
 21 22  1  0
 22 23  1  0
 22 24  1  0
  7  5  1  0
  5  1  1  0
  1  2  2  0
  1  3  1  0
  1 25  1  0
 25 38  1  0
 38 39  1  0
 39 40  2  0
 40 41  1  0
 41 42  2  0
 42 43  1  0
 43 44  2  0
 25 26  1  0
 26 27  1  0
 27 28  2  0
 27 30  1  0
 30 31  1  0
 31 32  1  0
 32 33  2  0
 33 34  1  0
 34 35  2  0
 35 36  1  0
 36 37  2  0
 44 39  1  0
 37 32  1  0
  8 11  1  0
  5  6  1  0
  3  4  1  0
 26 29  1  0
M  END
> <minimizedAffinity>
-8.22590

> <CNNscore>
0.9630653262

> <CNNaffinity>
8.3423147202

> <CNN_VS>
8.0341939926

> <CNNaffinity_variance>
0.0672159418

$$$$



 44 45  0  0  0  0  0  0  0  0999 V2000
   35.9223   42.5720   -5.7055 P   0  0  0  0  0  0  0  0  0  0  0  0
   37.3358   42.7043   -6.1743 O   0  0  0  0  0  0  0  0  0  0  0  0
   35.3062   44.0624   -5.5744 O   0  0  0  0  0  0  0  0  0  0  0  0
   35.8448   44.5817   -4.9570 H   0  0  0  0  0  0  0  0  0  0  0  0
   35.7573   41.8641   -4.2436 N   0  0  0  0  0  0  0  0  0  0  0  0
   34.8020   42.0545   -3.9413 H   0  0  0  0  0  0  0  0  0  0  0  0
   36.6248   42.2063   -3.1042 C   0  0  0  0  0  0  0  0  0  0  0  0
   37.6182   39.9911   -3.4192 N   0  0  0  0  0  0  0  0  0  0  0  0
   37.8905   41.3218   -3.1797 C   0  0  0  0  0  0  0  0  0  0  0  0
   39.0215   41.7671   -3.0241 O   0  0  0  0  0  0  0  0  0  0  0  0
   36.6869   39.7109   -3.5720 H   0  0  0  0  0  0  0  0  0  0  0  0
   38.6808   38.9866   -3.4515 C   0  0  0  0  0  0  0  0  0  0  0  0
   39.9372   39.6146   -4.0483 C   0  0  0  0  0  0  0  0  0  0  0  0
   38.8852   38.4318   -2.0212 C   0  0  0  0  0  0  0  0  0  0  0  0
   39.2337   36.9221   -1.8427 C   0  0  0  0  0  0  0  0  0  0  0  0
   38.0313   36.1445   -1.2573 C   0  0  0  0  0  0  0  0  0  0  0  0
   39.6053   36.2485   -3.1761 C   0  0  0  0  0  0  0  0  0  0  0  0
   40.3998   36.7676   -0.8085 C   0  0  0  0  0  0  0  0  0  0  0  0
   41.5465   35.3849    1.0477 C   0  0  0  0  0  0  0  0  0  0  0  0
   40.2550   35.7715    0.3471 C   0  0  0  0  0  0  0  0  0  0  0  0
   35.8317   41.9505   -1.8098 C   0  0  0  0  0  0  0  0  0  0  0  0
   36.1675   42.9062   -0.6465 C   0  0  0  0  0  0  0  0  0  0  0  0
   37.0258   42.1685    0.3854 C   0  0  0  0  0  0  0  0  0  0  0  0
   36.8853   44.1847   -1.0756 C   0  0  0  0  0  0  0  0  0  0  0  0
   34.7792   41.7665   -6.8966 C   0  0  0  0  0  0  0  0  0  0  0  0
   34.8599   42.4446   -8.1854 N   0  0  0  0  0  0  0  0  0  0  0  0
   33.8117   43.1744   -8.6585 C   0  0  0  0  0  0  0  0  0  0  0  0
   32.7915   43.4131   -8.0273 O   0  0  0  0  0  0  0  0  0  0  0  0
   35.6832   42.3738   -8.7206 H   0  0  0  0  0  0  0  0  0  0  0  0
   34.0693   43.5329   -9.9376 O   0  0  0  0  0  0  0  0  0  0  0  0
   33.3292   42.8095  -10.9272 C   0  0  0  0  0  0  0  0  0  0  0  0
   33.2662   43.5927  -12.2169 C   0  0  0  0  0  0  0  0  0  0  0  0
   33.5750   44.9610  -12.2309 C   0  0  0  0  0  0  0  0  0  0  0  0
   33.5060   45.6895  -13.4204 C   0  0  0  0  0  0  0  0  0  0  0  0
   33.1212   45.0606  -14.6048 C   0  0  0  0  0  0  0  0  0  0  0  0
   32.8042   43.7024  -14.5995 C   0  0  0  0  0  0  0  0  0  0  0  0
   32.8752   42.9725  -13.4119 C   0  0  0  0  0  0  0  0  0  0  0  0
   35.0303   40.2568   -7.0256 C   0  0  0  0  0  0  0  0  0  0  0  0
   33.8253   39.4717   -7.4969 C   0  0  0  0  0  0  0  0  0  0  0  0
   33.2786   39.6794   -8.7702 C   0  0  0  0  0  0  0  0  0  0  0  0
   32.1879   38.9236   -9.2031 C   0  0  0  0  0  0  0  0  0  0  0  0
   31.6238   37.9639   -8.3673 C   0  0  0  0  0  0  0  0  0  0  0  0
   32.1469   37.7609   -7.0913 C   0  0  0  0  0  0  0  0  0  0  0  0
   33.2395   38.5138   -6.6573 C   0  0  0  0  0  0  0  0  0  0  0  0
 19 20  1  0
 20 18  1  0
 18 15  1  0
 15 16  1  0
 15 17  1  0
 15 14  1  0
 14 12  1  0
 12 13  1  0
 12  8  1  0
  8  9  1  0
  9 10  2  0
  9  7  1  0
  7 21  1  0
 21 22  1  0
 22 23  1  0
 22 24  1  0
  7  5  1  0
  5  1  1  0
  1  2  2  0
  1  3  1  0
  1 25  1  0
 25 38  1  0
 38 39  1  0
 39 40  2  0
 40 41  1  0
 41 42  2  0
 42 43  1  0
 43 44  2  0
 25 26  1  0
 26 27  1  0
 27 28  2  0
 27 30  1  0
 30 31  1  0
 31 32  1  0
 32 33  2  0
 33 34  1  0
 34 35  2  0
 35 36  1  0
 36 37  2  0
 44 39  1  0
 37 32  1  0
  8 11  1  0
  5  6  1  0
  3  4  1  0
 26 29  1  0
M  END
> <minimizedAffinity>
-9.24346

> <CNNscore>
0.9448070526

> <CNNaffinity>
8.3259325027

> <CNN_VS>
7.8663997650

> <CNNaffinity_variance>
0.0786487237

$$$$



 44 45  0  0  0  0  0  0  0  0999 V2000
   35.9517   42.5712   -5.6235 P   0  0  0  0  0  0  0  0  0  0  0  0
   37.3705   42.6988   -6.0775 O   0  0  0  0  0  0  0  0  0  0  0  0
   35.3237   44.0605   -5.5488 O   0  0  0  0  0  0  0  0  0  0  0  0
   35.8502   44.6033   -4.9413 H   0  0  0  0  0  0  0  0  0  0  0  0
   35.7718   41.9094   -4.1420 N   0  0  0  0  0  0  0  0  0  0  0  0
   34.8226   42.1337   -3.8434 H   0  0  0  0  0  0  0  0  0  0  0  0
   36.6510   42.2603   -3.0143 C   0  0  0  0  0  0  0  0  0  0  0  0
   37.5955   40.0413   -2.5931 N   0  0  0  0  0  0  0  0  0  0  0  0
   37.8736   41.3146   -3.0444 C   0  0  0  0  0  0  0  0  0  0  0  0
   38.9829   41.6759   -3.4195 O   0  0  0  0  0  0  0  0  0  0  0  0
   36.6715   39.8110   -2.3430 H   0  0  0  0  0  0  0  0  0  0  0  0
   38.6412   39.0253   -2.4775 C   0  0  0  0  0  0  0  0  0  0  0  0
   38.3637   38.1676   -1.2460 C   0  0  0  0  0  0  0  0  0  0  0  0
   38.6976   38.2164   -3.7958 C   0  0  0  0  0  0  0  0  0  0  0  0
   40.0837   37.7342   -4.3237 C   0  0  0  0  0  0  0  0  0  0  0  0
   41.1421   38.8551   -4.1961 C   0  0  0  0  0  0  0  0  0  0  0  0
   40.6131   36.5177   -3.5431 C   0  0  0  0  0  0  0  0  0  0  0  0
   39.9810   37.4015   -5.8508 C   0  0  0  0  0  0  0  0  0  0  0  0
   42.4885   36.9889   -6.3138 C   0  0  0  0  0  0  0  0  0  0  0  0
   41.0544   36.5250   -6.5049 C   0  0  0  0  0  0  0  0  0  0  0  0
   35.8427   42.0996   -1.7140 C   0  0  0  0  0  0  0  0  0  0  0  0
   36.2708   43.0376   -0.5667 C   0  0  0  0  0  0  0  0  0  0  0  0
   37.0219   42.2304    0.4962 C   0  0  0  0  0  0  0  0  0  0  0  0
   37.1392   44.2130   -1.0119 C   0  0  0  0  0  0  0  0  0  0  0  0
   34.8305   41.7195   -6.8034 C   0  0  0  0  0  0  0  0  0  0  0  0
   34.9138   42.3651   -8.1085 N   0  0  0  0  0  0  0  0  0  0  0  0
   33.8706   43.0919   -8.5972 C   0  0  0  0  0  0  0  0  0  0  0  0
   32.8539   43.3544   -7.9699 O   0  0  0  0  0  0  0  0  0  0  0  0
   35.7352   42.2744   -8.6436 H   0  0  0  0  0  0  0  0  0  0  0  0
   34.1282   43.4167   -9.8853 O   0  0  0  0  0  0  0  0  0  0  0  0
   33.2756   42.7868  -10.8479 C   0  0  0  0  0  0  0  0  0  0  0  0
   33.2780   43.5628  -12.1435 C   0  0  0  0  0  0  0  0  0  0  0  0
   33.6292   44.9210  -12.1554 C   0  0  0  0  0  0  0  0  0  0  0  0
   33.6205   45.6432  -13.3507 C   0  0  0  0  0  0  0  0  0  0  0  0
   33.2545   45.0185  -14.5432 C   0  0  0  0  0  0  0  0  0  0  0  0
   32.8958   43.6708  -14.5403 C   0  0  0  0  0  0  0  0  0  0  0  0
   32.9063   42.9470  -13.3469 C   0  0  0  0  0  0  0  0  0  0  0  0
   35.1031   40.2106   -6.8909 C   0  0  0  0  0  0  0  0  0  0  0  0
   33.9514   39.4103   -7.4597 C   0  0  0  0  0  0  0  0  0  0  0  0
   33.6202   39.4842   -8.8192 C   0  0  0  0  0  0  0  0  0  0  0  0
   32.5767   38.7142   -9.3354 C   0  0  0  0  0  0  0  0  0  0  0  0
   31.8455   37.8741   -8.5002 C   0  0  0  0  0  0  0  0  0  0  0  0
   32.1533   37.8059   -7.1424 C   0  0  0  0  0  0  0  0  0  0  0  0
   33.1984   38.5730   -6.6246 C   0  0  0  0  0  0  0  0  0  0  0  0
 19 20  1  0
 20 18  1  0
 18 15  1  0
 15 16  1  0
 15 17  1  0
 15 14  1  0
 14 12  1  0
 12 13  1  0
 12  8  1  0
  8  9  1  0
  9 10  2  0
  9  7  1  0
  7 21  1  0
 21 22  1  0
 22 23  1  0
 22 24  1  0
  7  5  1  0
  5  1  1  0
  1  2  2  0
  1  3  1  0
  1 25  1  0
 25 38  1  0
 38 39  1  0
 39 40  2  0
 40 41  1  0
 41 42  2  0
 42 43  1  0
 43 44  2  0
 25 26  1  0
 26 27  1  0
 27 28  2  0
 27 30  1  0
 30 31  1  0
 31 32  1  0
 32 33  2  0
 33 34  1  0
 34 35  2  0
 35 36  1  0
 36 37  2  0
 44 39  1  0
 37 32  1  0
  8 11  1  0
  5  6  1  0
  3  4  1  0
 26 29  1  0
M  END
> <minimizedAffinity>
-9.37618

> <CNNscore>
0.9371437430

> <CNNaffinity>
8.3705158234

> <CNN_VS>
7.8443765640

> <CNNaffinity_variance>
0.1046131626

$$$$



 44 45  0  0  0  0  0  0  0  0999 V2000
   35.8920   42.6021   -5.7690 P   0  0  0  0  0  0  0  0  0  0  0  0
   37.2878   42.7427   -6.2858 O   0  0  0  0  0  0  0  0  0  0  0  0
   35.2496   44.0843   -5.6787 O   0  0  0  0  0  0  0  0  0  0  0  0
   35.7955   44.6386   -5.0994 H   0  0  0  0  0  0  0  0  0  0  0  0
   35.7853   41.9510   -4.2757 N   0  0  0  0  0  0  0  0  0  0  0  0
   34.9086   42.2896   -3.8795 H   0  0  0  0  0  0  0  0  0  0  0  0
   36.8147   42.1749   -3.2471 C   0  0  0  0  0  0  0  0  0  0  0  0
   37.6216   39.9072   -3.6945 N   0  0  0  0  0  0  0  0  0  0  0  0
   37.9992   41.2243   -3.5361 C   0  0  0  0  0  0  0  0  0  0  0  0
   39.1602   41.6112   -3.6002 O   0  0  0  0  0  0  0  0  0  0  0  0
   36.6653   39.6747   -3.6677 H   0  0  0  0  0  0  0  0  0  0  0  0
   38.6087   38.8480   -3.9012 C   0  0  0  0  0  0  0  0  0  0  0  0
   38.3951   38.2353   -5.2825 C   0  0  0  0  0  0  0  0  0  0  0  0
   40.0243   39.4400   -3.6984 C   0  0  0  0  0  0  0  0  0  0  0  0
   41.2216   38.4664   -3.4727 C   0  0  0  0  0  0  0  0  0  0  0  0
   40.8689   37.3957   -2.4134 C   0  0  0  0  0  0  0  0  0  0  0  0
   41.6159   37.7200   -4.7600 C   0  0  0  0  0  0  0  0  0  0  0  0
   42.4468   39.2585   -2.9029 C   0  0  0  0  0  0  0  0  0  0  0  0
   44.6425   38.1822   -2.0707 C   0  0  0  0  0  0  0  0  0  0  0  0
   43.8675   38.7860   -3.2296 C   0  0  0  0  0  0  0  0  0  0  0  0
   36.1826   41.8902   -1.8726 C   0  0  0  0  0  0  0  0  0  0  0  0
   36.4012   42.9957   -0.8193 C   0  0  0  0  0  0  0  0  0  0  0  0
   36.9339   42.3685    0.4724 C   0  0  0  0  0  0  0  0  0  0  0  0
   37.3496   44.1065   -1.2670 C   0  0  0  0  0  0  0  0  0  0  0  0
   34.7307   41.7270   -6.8916 C   0  0  0  0  0  0  0  0  0  0  0  0
   34.7890   42.3281   -8.2192 N   0  0  0  0  0  0  0  0  0  0  0  0
   33.7663   43.0985   -8.6836 C   0  0  0  0  0  0  0  0  0  0  0  0
   32.7960   43.4370   -8.0200 O   0  0  0  0  0  0  0  0  0  0  0  0
   35.5782   42.1748   -8.7873 H   0  0  0  0  0  0  0  0  0  0  0  0
   33.9812   43.3700   -9.9917 O   0  0  0  0  0  0  0  0  0  0  0  0
   33.1622   44.4120  -10.5336 C   0  0  0  0  0  0  0  0  0  0  0  0
   33.1529   44.3459  -12.0424 C   0  0  0  0  0  0  0  0  0  0  0  0
   32.7841   43.1615  -12.6975 C   0  0  0  0  0  0  0  0  0  0  0  0
   32.7861   43.0948  -14.0924 C   0  0  0  0  0  0  0  0  0  0  0  0
   33.1630   44.2069  -14.8456 C   0  0  0  0  0  0  0  0  0  0  0  0
   33.5393   45.3864  -14.2034 C   0  0  0  0  0  0  0  0  0  0  0  0
   33.5354   45.4553  -12.8093 C   0  0  0  0  0  0  0  0  0  0  0  0
   34.9821   40.2125   -6.9356 C   0  0  0  0  0  0  0  0  0  0  0  0
   33.8119   39.4106   -7.4628 C   0  0  0  0  0  0  0  0  0  0  0  0
   33.1759   38.4488   -6.6665 C   0  0  0  0  0  0  0  0  0  0  0  0
   32.0765   37.7413   -7.1553 C   0  0  0  0  0  0  0  0  0  0  0  0
   31.6091   37.9755   -8.4454 C   0  0  0  0  0  0  0  0  0  0  0  0
   32.2448   38.9164   -9.2539 C   0  0  0  0  0  0  0  0  0  0  0  0
   33.3428   39.6273   -8.7660 C   0  0  0  0  0  0  0  0  0  0  0  0
 19 20  1  0
 20 18  1  0
 18 15  1  0
 15 16  1  0
 15 17  1  0
 15 14  1  0
 14 12  1  0
 12 13  1  0
 12  8  1  0
  8  9  1  0
  9 10  2  0
  9  7  1  0
  7 21  1  0
 21 22  1  0
 22 23  1  0
 22 24  1  0
  7  5  1  0
  5  1  1  0
  1  2  2  0
  1  3  1  0
  1 25  1  0
 25 38  1  0
 38 39  1  0
 39 40  2  0
 40 41  1  0
 41 42  2  0
 42 43  1  0
 43 44  2  0
 25 26  1  0
 26 27  1  0
 27 28  2  0
 27 30  1  0
 30 31  1  0
 31 32  1  0
 32 33  2  0
 33 34  1  0
 34 35  2  0
 35 36  1  0
 36 37  2  0
 44 39  1  0
 37 32  1  0
  8 11  1  0
  5  6  1  0
  3  4  1  0
 26 29  1  0
M  END
> <minimizedAffinity>
-9.21795

> <CNNscore>
0.9213780165

> <CNNaffinity>
8.2753400803

> <CNN_VS>
7.6247162819

> <CNNaffinity_variance>
0.1325485557

$$$$



 44 45  0  0  0  0  0  0  0  0999 V2000
   36.1223   42.2303   -5.2219 P   0  0  0  0  0  0  0  0  0  0  0  0
   37.2816   42.4643   -6.1365 O   0  0  0  0  0  0  0  0  0  0  0  0
   35.2842   43.6111   -5.1273 O   0  0  0  0  0  0  0  0  0  0  0  0
   35.8630   44.3190   -4.8036 H   0  0  0  0  0  0  0  0  0  0  0  0
   36.5352   41.8246   -3.6954 N   0  0  0  0  0  0  0  0  0  0  0  0
   36.0178   42.4556   -3.0833 H   0  0  0  0  0  0  0  0  0  0  0  0
   37.9309   41.8507   -3.2273 C   0  0  0  0  0  0  0  0  0  0  0  0
   39.3095   39.8283   -3.2799 N   0  0  0  0  0  0  0  0  0  0  0  0
   38.2669   40.4620   -2.6368 C   0  0  0  0  0  0  0  0  0  0  0  0
   37.6494   39.9732   -1.6978 O   0  0  0  0  0  0  0  0  0  0  0  0
   39.7847   40.2977   -4.0031 H   0  0  0  0  0  0  0  0  0  0  0  0
   39.7254   38.4750   -2.9126 C   0  0  0  0  0  0  0  0  0  0  0  0
   38.4889   37.5853   -2.8200 C   0  0  0  0  0  0  0  0  0  0  0  0
   40.7700   37.9787   -3.9411 C   0  0  0  0  0  0  0  0  0  0  0  0
   40.2879   37.1101   -5.1435 C   0  0  0  0  0  0  0  0  0  0  0  0
   38.9711   37.6681   -5.7333 C   0  0  0  0  0  0  0  0  0  0  0  0
   41.3187   37.0738   -6.2862 C   0  0  0  0  0  0  0  0  0  0  0  0
   39.9659   35.6584   -4.6512 C   0  0  0  0  0  0  0  0  0  0  0  0
   37.8763   34.1450   -4.5284 C   0  0  0  0  0  0  0  0  0  0  0  0
   38.9204   34.8238   -5.3987 C   0  0  0  0  0  0  0  0  0  0  0  0
   38.0562   42.9615   -2.1688 C   0  0  0  0  0  0  0  0  0  0  0  0
   36.7295   43.3604   -1.4905 C   0  0  0  0  0  0  0  0  0  0  0  0
   36.6202   42.6565   -0.1348 C   0  0  0  0  0  0  0  0  0  0  0  0
   36.5577   44.8653   -1.2908 C   0  0  0  0  0  0  0  0  0  0  0  0
   34.8688   41.0396   -5.8429 C   0  0  0  0  0  0  0  0  0  0  0  0
   33.9199   41.7351   -6.7049 N   0  0  0  0  0  0  0  0  0  0  0  0
   34.2692   42.1168   -7.9648 C   0  0  0  0  0  0  0  0  0  0  0  0
   35.3254   41.8274   -8.5097 O   0  0  0  0  0  0  0  0  0  0  0  0
   33.0146   41.9314   -6.3715 H   0  0  0  0  0  0  0  0  0  0  0  0
   33.2891   42.8992   -8.4732 O   0  0  0  0  0  0  0  0  0  0  0  0
   32.5658   42.3249   -9.5674 C   0  0  0  0  0  0  0  0  0  0  0  0
   32.8468   43.0836  -10.8426 C   0  0  0  0  0  0  0  0  0  0  0  0
   32.7031   42.4541  -12.0881 C   0  0  0  0  0  0  0  0  0  0  0  0
   32.9738   43.1506  -13.2679 C   0  0  0  0  0  0  0  0  0  0  0  0
   33.3971   44.4788  -13.2151 C   0  0  0  0  0  0  0  0  0  0  0  0
   33.5509   45.1109  -11.9814 C   0  0  0  0  0  0  0  0  0  0  0  0
   33.2784   44.4168  -10.8014 C   0  0  0  0  0  0  0  0  0  0  0  0
   35.5023   39.8297   -6.5454 C   0  0  0  0  0  0  0  0  0  0  0  0
   34.5001   38.9119   -7.2115 C   0  0  0  0  0  0  0  0  0  0  0  0
   34.7532   38.3574   -8.4733 C   0  0  0  0  0  0  0  0  0  0  0  0
   33.8341   37.4859   -9.0597 C   0  0  0  0  0  0  0  0  0  0  0  0
   32.6492   37.1694   -8.4011 C   0  0  0  0  0  0  0  0  0  0  0  0
   32.3774   37.7292   -7.1538 C   0  0  0  0  0  0  0  0  0  0  0  0
   33.2966   38.5989   -6.5642 C   0  0  0  0  0  0  0  0  0  0  0  0
 19 20  1  0
 20 18  1  0
 18 15  1  0
 15 16  1  0
 15 17  1  0
 15 14  1  0
 14 12  1  0
 12 13  1  0
 12  8  1  0
  8  9  1  0
  9 10  2  0
  9  7  1  0
  7 21  1  0
 21 22  1  0
 22 23  1  0
 22 24  1  0
  7  5  1  0
  5  1  1  0
  1  2  2  0
  1  3  1  0
  1 25  1  0
 25 38  1  0
 38 39  1  0
 39 40  2  0
 40 41  1  0
 41 42  2  0
 42 43  1  0
 43 44  2  0
 25 26  1  0
 26 27  1  0
 27 28  2  0
 27 30  1  0
 30 31  1  0
 31 32  1  0
 32 33  2  0
 33 34  1  0
 34 35  2  0
 35 36  1  0
 36 37  2  0
 44 39  1  0
 37 32  1  0
  8 11  1  0
  5  6  1  0
  3  4  1  0
 26 29  1  0
M  END
> <minimizedAffinity>
-6.93402

> <CNNscore>
0.7255099416

> <CNNaffinity>
7.6121802330

> <CNN_VS>
5.5227122307

> <CNNaffinity_variance>
0.0013959412

$$$$



 44 45  0  0  0  0  0  0  0  0999 V2000
   36.2639   42.4093   -5.3366 P   0  0  0  0  0  0  0  0  0  0  0  0
   35.2309   43.4900   -5.3449 O   0  0  0  0  0  0  0  0  0  0  0  0
   37.7141   43.1144   -5.4708 O   0  0  0  0  0  0  0  0  0  0  0  0
   37.7449   43.6377   -6.2869 H   0  0  0  0  0  0  0  0  0  0  0  0
   36.1415   41.3461   -6.5694 N   0  0  0  0  0  0  0  0  0  0  0  0
   36.8492   41.6185   -7.2516 H   0  0  0  0  0  0  0  0  0  0  0  0
   34.8914   41.1623   -7.3253 C   0  0  0  0  0  0  0  0  0  0  0  0
   33.8922   39.1186   -8.2299 N   0  0  0  0  0  0  0  0  0  0  0  0
   35.0349   39.8899   -8.1915 C   0  0  0  0  0  0  0  0  0  0  0  0
   36.0738   39.5954   -8.7711 O   0  0  0  0  0  0  0  0  0  0  0  0
   33.0817   39.4368   -7.7705 H   0  0  0  0  0  0  0  0  0  0  0  0
   33.8564   37.8389   -8.9373 C   0  0  0  0  0  0  0  0  0  0  0  0
   34.4737   38.0211  -10.3211 C   0  0  0  0  0  0  0  0  0  0  0  0
   34.5736   36.7728   -8.0746 C   0  0  0  0  0  0  0  0  0  0  0  0
   33.9785   35.3326   -8.0102 C   0  0  0  0  0  0  0  0  0  0  0  0
   32.6457   35.2518   -8.7915 C   0  0  0  0  0  0  0  0  0  0  0  0
   34.9264   34.2830   -8.6182 C   0  0  0  0  0  0  0  0  0  0  0  0
   33.6380   34.9672   -6.5257 C   0  0  0  0  0  0  0  0  0  0  0  0
   34.0578   33.3383   -4.5655 C   0  0  0  0  0  0  0  0  0  0  0  0
   33.7955   33.5186   -6.0511 C   0  0  0  0  0  0  0  0  0  0  0  0
   34.6717   42.4155   -8.1919 C   0  0  0  0  0  0  0  0  0  0  0  0
   33.3255   42.4534   -8.9441 C   0  0  0  0  0  0  0  0  0  0  0  0
   32.7359   43.8643   -8.8597 C   0  0  0  0  0  0  0  0  0  0  0  0
   33.4170   42.0336  -10.4101 C   0  0  0  0  0  0  0  0  0  0  0  0
   36.4101   41.4842   -3.7563 C   0  0  0  0  0  0  0  0  0  0  0  0
   37.8186   41.2654   -3.4473 N   0  0  0  0  0  0  0  0  0  0  0  0
   38.4730   40.1640   -3.9094 C   0  0  0  0  0  0  0  0  0  0  0  0
   37.9953   39.3476   -4.6851 O   0  0  0  0  0  0  0  0  0  0  0  0
   38.3028   41.9228   -2.8972 H   0  0  0  0  0  0  0  0  0  0  0  0
   39.6945   40.1049   -3.3301 O   0  0  0  0  0  0  0  0  0  0  0  0
   40.4920   38.9807   -3.7182 C   0  0  0  0  0  0  0  0  0  0  0  0
   40.6183   38.0026   -2.5745 C   0  0  0  0  0  0  0  0  0  0  0  0
   41.8126   37.2937   -2.3769 C   0  0  0  0  0  0  0  0  0  0  0  0
   41.9272   36.3800   -1.3269 C   0  0  0  0  0  0  0  0  0  0  0  0
   40.8489   36.1605   -0.4694 C   0  0  0  0  0  0  0  0  0  0  0  0
   39.6546   36.8543   -0.6627 C   0  0  0  0  0  0  0  0  0  0  0  0
   39.5393   37.7696   -1.7102 C   0  0  0  0  0  0  0  0  0  0  0  0
   35.6688   42.1717   -2.6001 C   0  0  0  0  0  0  0  0  0  0  0  0
   36.5773   42.6635   -1.4941 C   0  0  0  0  0  0  0  0  0  0  0  0
   37.3176   43.8446   -1.6367 C   0  0  0  0  0  0  0  0  0  0  0  0
   38.1251   44.3029   -0.5945 C   0  0  0  0  0  0  0  0  0  0  0  0
   38.2128   43.5825    0.5935 C   0  0  0  0  0  0  0  0  0  0  0  0
   37.4956   42.3964    0.7405 C   0  0  0  0  0  0  0  0  0  0  0  0
   36.6852   41.9376   -0.2996 C   0  0  0  0  0  0  0  0  0  0  0  0
 19 20  1  0
 20 18  1  0
 18 15  1  0
 15 16  1  0
 15 17  1  0
 15 14  1  0
 14 12  1  0
 12 13  1  0
 12  8  1  0
  8  9  1  0
  9 10  2  0
  9  7  1  0
  7 21  1  0
 21 22  1  0
 22 23  1  0
 22 24  1  0
  7  5  1  0
  5  1  1  0
  1  2  2  0
  1  3  1  0
  1 25  1  0
 25 38  1  0
 38 39  1  0
 39 40  2  0
 40 41  1  0
 41 42  2  0
 42 43  1  0
 43 44  2  0
 25 26  1  0
 26 27  1  0
 27 28  2  0
 27 30  1  0
 30 31  1  0
 31 32  1  0
 32 33  2  0
 33 34  1  0
 34 35  2  0
 35 36  1  0
 36 37  2  0
 44 39  1  0
 37 32  1  0
  8 11  1  0
  5  6  1  0
  3  4  1  0
 26 29  1  0
M  END
> <minimizedAffinity>
-7.10078

> <CNNscore>
0.7243775725

> <CNNaffinity>
7.7846245766

> <CNN_VS>
5.6390075684

> <CNNaffinity_variance>
0.2037143558

$$$$



 44 45  0  0  0  0  0  0  0  0999 V2000
   35.9759   42.1741   -5.8556 P   0  0  0  0  0  0  0  0  0  0  0  0
   36.8487   43.3231   -6.2470 O   0  0  0  0  0  0  0  0  0  0  0  0
   34.8163   42.7466   -4.8832 O   0  0  0  0  0  0  0  0  0  0  0  0
   35.2221   43.1716   -4.1115 H   0  0  0  0  0  0  0  0  0  0  0  0
   36.7420   40.9924   -5.0297 N   0  0  0  0  0  0  0  0  0  0  0  0
   36.0107   40.4128   -4.6180 H   0  0  0  0  0  0  0  0  0  0  0  0
   37.6944   41.2842   -3.9455 C   0  0  0  0  0  0  0  0  0  0  0  0
   38.1621   38.8863   -4.1026 N   0  0  0  0  0  0  0  0  0  0  0  0
   38.7190   40.1284   -3.8804 C   0  0  0  0  0  0  0  0  0  0  0  0
   39.9068   40.3075   -3.6378 O   0  0  0  0  0  0  0  0  0  0  0  0
   37.2063   38.8216   -4.3295 H   0  0  0  0  0  0  0  0  0  0  0  0
   38.9585   37.6631   -4.0090 C   0  0  0  0  0  0  0  0  0  0  0  0
   39.8983   37.5915   -5.2092 C   0  0  0  0  0  0  0  0  0  0  0  0
   39.6920   37.6496   -2.6462 C   0  0  0  0  0  0  0  0  0  0  0  0
   40.1934   36.2875   -2.0753 C   0  0  0  0  0  0  0  0  0  0  0  0
   39.4811   35.1031   -2.7704 C   0  0  0  0  0  0  0  0  0  0  0  0
   41.7065   36.0917   -2.2802 C   0  0  0  0  0  0  0  0  0  0  0  0
   39.8296   36.1854   -0.5553 C   0  0  0  0  0  0  0  0  0  0  0  0
   38.4377   34.2941    0.5206 C   0  0  0  0  0  0  0  0  0  0  0  0
   39.8099   34.8120    0.1242 C   0  0  0  0  0  0  0  0  0  0  0  0
   36.8975   41.4090   -2.6342 C   0  0  0  0  0  0  0  0  0  0  0  0
   37.3971   42.5103   -1.6767 C   0  0  0  0  0  0  0  0  0  0  0  0
   37.3005   43.8710   -2.3728 C   0  0  0  0  0  0  0  0  0  0  0  0
   36.6455   42.5710   -0.3480 C   0  0  0  0  0  0  0  0  0  0  0  0
   35.0154   41.4227   -7.2295 C   0  0  0  0  0  0  0  0  0  0  0  0
   34.6042   40.0739   -6.8569 N   0  0  0  0  0  0  0  0  0  0  0  0
   34.9567   39.0002   -7.6172 C   0  0  0  0  0  0  0  0  0  0  0  0
   35.7112   39.0487   -8.5788 O   0  0  0  0  0  0  0  0  0  0  0  0
   34.0645   39.9377   -6.0449 H   0  0  0  0  0  0  0  0  0  0  0  0
   34.2978   37.9081   -7.1653 O   0  0  0  0  0  0  0  0  0  0  0  0
   33.0024   38.1705   -6.6145 C   0  0  0  0  0  0  0  0  0  0  0  0
   31.9275   37.8996   -7.6402 C   0  0  0  0  0  0  0  0  0  0  0  0
   31.7784   38.7441   -8.7504 C   0  0  0  0  0  0  0  0  0  0  0  0
   30.7774   38.5020   -9.6937 C   0  0  0  0  0  0  0  0  0  0  0  0
   29.9121   37.4195   -9.5337 C   0  0  0  0  0  0  0  0  0  0  0  0
   30.0471   36.5790   -8.4289 C   0  0  0  0  0  0  0  0  0  0  0  0
   31.0486   36.8183   -7.4865 C   0  0  0  0  0  0  0  0  0  0  0  0
   33.8216   42.2893   -7.6570 C   0  0  0  0  0  0  0  0  0  0  0  0
   33.6582   42.4132   -9.1565 C   0  0  0  0  0  0  0  0  0  0  0  0
   33.3897   41.2904   -9.9507 C   0  0  0  0  0  0  0  0  0  0  0  0
   33.2081   41.4259  -11.3280 C   0  0  0  0  0  0  0  0  0  0  0  0
   33.3054   42.6782  -11.9283 C   0  0  0  0  0  0  0  0  0  0  0  0
   33.5905   43.8000  -11.1515 C   0  0  0  0  0  0  0  0  0  0  0  0
   33.7697   43.6671   -9.7734 C   0  0  0  0  0  0  0  0  0  0  0  0
 19 20  1  0
 20 18  1  0
 18 15  1  0
 15 16  1  0
 15 17  1  0
 15 14  1  0
 14 12  1  0
 12 13  1  0
 12  8  1  0
  8  9  1  0
  9 10  2  0
  9  7  1  0
  7 21  1  0
 21 22  1  0
 22 23  1  0
 22 24  1  0
  7  5  1  0
  5  1  1  0
  1  2  2  0
  1  3  1  0
  1 25  1  0
 25 38  1  0
 38 39  1  0
 39 40  2  0
 40 41  1  0
 41 42  2  0
 42 43  1  0
 43 44  2  0
 25 26  1  0
 26 27  1  0
 27 28  2  0
 27 30  1  0
 30 31  1  0
 31 32  1  0
 32 33  2  0
 33 34  1  0
 34 35  2  0
 35 36  1  0
 36 37  2  0
 44 39  1  0
 37 32  1  0
  8 11  1  0
  5  6  1  0
  3  4  1  0
 26 29  1  0
M  END
> <minimizedAffinity>
-8.20258

> <CNNscore>
0.7095373273

> <CNNaffinity>
7.9118371010

> <CNN_VS>
5.6137437820

> <CNNaffinity_variance>
0.2000095397

$$$$



 44 45  0  0  0  0  0  0  0  0999 V2000
   35.4587   42.1140   -6.3677 P   0  0  0  0  0  0  0  0  0  0  0  0
   36.3777   43.1746   -6.8833 O   0  0  0  0  0  0  0  0  0  0  0  0
   34.0949   42.8379   -5.8840 O   0  0  0  0  0  0  0  0  0  0  0  0
   34.3027   43.4980   -5.2043 H   0  0  0  0  0  0  0  0  0  0  0  0
   36.0333   41.2861   -5.0833 N   0  0  0  0  0  0  0  0  0  0  0  0
   35.2167   40.9560   -4.5689 H   0  0  0  0  0  0  0  0  0  0  0  0
   36.9245   41.9036   -4.0871 C   0  0  0  0  0  0  0  0  0  0  0  0
   37.9344   39.6866   -4.3289 N   0  0  0  0  0  0  0  0  0  0  0  0
   38.1488   40.9789   -3.8974 C   0  0  0  0  0  0  0  0  0  0  0  0
   39.1990   41.3629   -3.3958 O   0  0  0  0  0  0  0  0  0  0  0  0
   37.0778   39.4586   -4.7572 H   0  0  0  0  0  0  0  0  0  0  0  0
   38.9500   38.6469   -4.1649 C   0  0  0  0  0  0  0  0  0  0  0  0
   38.9009   38.1293   -2.7301 C   0  0  0  0  0  0  0  0  0  0  0  0
   38.7135   37.5477   -5.2284 C   0  0  0  0  0  0  0  0  0  0  0  0
   39.9135   36.6513   -5.6634 C   0  0  0  0  0  0  0  0  0  0  0  0
   41.2422   37.4410   -5.6009 C   0  0  0  0  0  0  0  0  0  0  0  0
   40.0756   35.4161   -4.7590 C   0  0  0  0  0  0  0  0  0  0  0  0
   39.7335   36.2156   -7.1570 C   0  0  0  0  0  0  0  0  0  0  0  0
   41.2799   34.3497   -8.0511 C   0  0  0  0  0  0  0  0  0  0  0  0
   39.9046   34.7410   -7.5377 C   0  0  0  0  0  0  0  0  0  0  0  0
   36.1314   42.0687   -2.7780 C   0  0  0  0  0  0  0  0  0  0  0  0
   36.9345   42.6727   -1.6077 C   0  0  0  0  0  0  0  0  0  0  0  0
   37.0002   44.1944   -1.7684 C   0  0  0  0  0  0  0  0  0  0  0  0
   36.3744   42.3369   -0.2266 C   0  0  0  0  0  0  0  0  0  0  0  0
   34.8572   40.9236   -7.6309 C   0  0  0  0  0  0  0  0  0  0  0  0
   34.9482   39.5663   -7.1050 N   0  0  0  0  0  0  0  0  0  0  0  0
   35.2022   38.5124   -7.9295 C   0  0  0  0  0  0  0  0  0  0  0  0
   35.4771   38.6113   -9.1173 O   0  0  0  0  0  0  0  0  0  0  0  0
   34.8244   39.4098   -6.1409 H   0  0  0  0  0  0  0  0  0  0  0  0
   35.0465   37.3631   -7.2322 O   0  0  0  0  0  0  0  0  0  0  0  0
   33.7000   37.0733   -6.8406 C   0  0  0  0  0  0  0  0  0  0  0  0
   32.7832   37.1018   -8.0404 C   0  0  0  0  0  0  0  0  0  0  0  0
   31.7230   38.0185   -8.1006 C   0  0  0  0  0  0  0  0  0  0  0  0
   30.8671   38.0384   -9.2039 C   0  0  0  0  0  0  0  0  0  0  0  0
   31.0572   37.1392  -10.2534 C   0  0  0  0  0  0  0  0  0  0  0  0
   32.1034   36.2184  -10.1991 C   0  0  0  0  0  0  0  0  0  0  0  0
   32.9612   36.1990   -9.0981 C   0  0  0  0  0  0  0  0  0  0  0  0
   33.4410   41.2540   -8.1250 C   0  0  0  0  0  0  0  0  0  0  0  0
   33.4077   41.9884   -9.4479 C   0  0  0  0  0  0  0  0  0  0  0  0
   33.7421   43.3467   -9.5306 C   0  0  0  0  0  0  0  0  0  0  0  0
   33.7393   44.0016  -10.7632 C   0  0  0  0  0  0  0  0  0  0  0  0
   33.3908   43.3135  -11.9221 C   0  0  0  0  0  0  0  0  0  0  0  0
   33.0383   41.9668  -11.8503 C   0  0  0  0  0  0  0  0  0  0  0  0
   33.0432   41.3091  -10.6188 C   0  0  0  0  0  0  0  0  0  0  0  0
 19 20  1  0
 20 18  1  0
 18 15  1  0
 15 16  1  0
 15 17  1  0
 15 14  1  0
 14 12  1  0
 12 13  1  0
 12  8  1  0
  8  9  1  0
  9 10  2  0
  9  7  1  0
  7 21  1  0
 21 22  1  0
 22 23  1  0
 22 24  1  0
  7  5  1  0
  5  1  1  0
  1  2  2  0
  1  3  1  0
  1 25  1  0
 25 38  1  0
 38 39  1  0
 39 40  2  0
 40 41  1  0
 41 42  2  0
 42 43  1  0
 43 44  2  0
 25 26  1  0
 26 27  1  0
 27 28  2  0
 27 30  1  0
 30 31  1  0
 31 32  1  0
 32 33  2  0
 33 34  1  0
 34 35  2  0
 35 36  1  0
 36 37  2  0
 44 39  1  0
 37 32  1  0
  8 11  1  0
  5  6  1  0
  3  4  1  0
 26 29  1  0
M  END
> <minimizedAffinity>
-7.70340

> <CNNscore>
0.7073822021

> <CNNaffinity>
8.0605468750

> <CNN_VS>
5.7018876076

> <CNNaffinity_variance>
0.3876994848

$$$$



 44 45  0  0  0  0  0  0  0  0999 V2000
   35.6378   42.1375   -5.9640 P   0  0  0  0  0  0  0  0  0  0  0  0
   36.6244   43.1991   -6.3309 O   0  0  0  0  0  0  0  0  0  0  0  0
   34.1946   42.8474   -5.7872 O   0  0  0  0  0  0  0  0  0  0  0  0
   34.2543   43.5362   -5.1069 H   0  0  0  0  0  0  0  0  0  0  0  0
   35.9600   41.3698   -4.5596 N   0  0  0  0  0  0  0  0  0  0  0  0
   35.0561   41.1561   -4.1381 H   0  0  0  0  0  0  0  0  0  0  0  0
   36.7733   41.9856   -3.4979 C   0  0  0  0  0  0  0  0  0  0  0  0
   37.7416   39.7763   -3.0801 N   0  0  0  0  0  0  0  0  0  0  0  0
   38.0291   41.1097   -3.2839 C   0  0  0  0  0  0  0  0  0  0  0  0
   39.1655   41.5685   -3.2811 O   0  0  0  0  0  0  0  0  0  0  0  0
   36.8067   39.4724   -3.1336 H   0  0  0  0  0  0  0  0  0  0  0  0
   38.7933   38.8032   -2.7862 C   0  0  0  0  0  0  0  0  0  0  0  0
   38.5015   38.1516   -1.4374 C   0  0  0  0  0  0  0  0  0  0  0  0
   38.8787   37.7938   -3.9563 C   0  0  0  0  0  0  0  0  0  0  0  0
   40.2496   37.1188   -4.2688 C   0  0  0  0  0  0  0  0  0  0  0  0
   41.4160   37.9335   -3.6615 C   0  0  0  0  0  0  0  0  0  0  0  0
   40.3419   35.6940   -3.6933 C   0  0  0  0  0  0  0  0  0  0  0  0
   40.4887   37.0999   -5.8166 C   0  0  0  0  0  0  0  0  0  0  0  0
   42.5617   35.8187   -6.6729 C   0  0  0  0  0  0  0  0  0  0  0  0
   41.9209   37.1599   -6.3586 C   0  0  0  0  0  0  0  0  0  0  0  0
   35.9123   42.0619   -2.2240 C   0  0  0  0  0  0  0  0  0  0  0  0
   36.3516   43.1388   -1.2107 C   0  0  0  0  0  0  0  0  0  0  0  0
   37.0889   42.4704   -0.0466 C   0  0  0  0  0  0  0  0  0  0  0  0
   37.2376   44.2320   -1.8054 C   0  0  0  0  0  0  0  0  0  0  0  0
   35.3154   40.8888   -7.2722 C   0  0  0  0  0  0  0  0  0  0  0  0
   35.6899   39.5654   -6.7867 N   0  0  0  0  0  0  0  0  0  0  0  0
   36.0616   38.5821   -7.6528 C   0  0  0  0  0  0  0  0  0  0  0  0
   36.2182   38.7397   -8.8557 O   0  0  0  0  0  0  0  0  0  0  0  0
   35.6737   39.3804   -5.8199 H   0  0  0  0  0  0  0  0  0  0  0  0
   36.1706   37.4173   -6.9727 O   0  0  0  0  0  0  0  0  0  0  0  0
   36.0899   36.2378   -7.7804 C   0  0  0  0  0  0  0  0  0  0  0  0
   37.3641   35.4345   -7.6710 C   0  0  0  0  0  0  0  0  0  0  0  0
   38.3568   35.5427   -8.6564 C   0  0  0  0  0  0  0  0  0  0  0  0
   39.5306   34.7918   -8.5630 C   0  0  0  0  0  0  0  0  0  0  0  0
   39.7210   33.9212   -7.4897 C   0  0  0  0  0  0  0  0  0  0  0  0
   38.7363   33.8005   -6.5094 C   0  0  0  0  0  0  0  0  0  0  0  0
   37.5637   34.5522   -6.6000 C   0  0  0  0  0  0  0  0  0  0  0  0
   33.8656   40.9257   -7.7778 C   0  0  0  0  0  0  0  0  0  0  0  0
   33.6943   41.6405   -9.1007 C   0  0  0  0  0  0  0  0  0  0  0  0
   33.3484   40.9389  -10.2633 C   0  0  0  0  0  0  0  0  0  0  0  0
   33.1610   41.6170  -11.4688 C   0  0  0  0  0  0  0  0  0  0  0  0
   33.3294   42.9975  -11.5303 C   0  0  0  0  0  0  0  0  0  0  0  0
   33.6917   43.7043  -10.3848 C   0  0  0  0  0  0  0  0  0  0  0  0
   33.8769   43.0284   -9.1773 C   0  0  0  0  0  0  0  0  0  0  0  0
 19 20  1  0
 20 18  1  0
 18 15  1  0
 15 16  1  0
 15 17  1  0
 15 14  1  0
 14 12  1  0
 12 13  1  0
 12  8  1  0
  8  9  1  0
  9 10  2  0
  9  7  1  0
  7 21  1  0
 21 22  1  0
 22 23  1  0
 22 24  1  0
  7  5  1  0
  5  1  1  0
  1  2  2  0
  1  3  1  0
  1 25  1  0
 25 38  1  0
 38 39  1  0
 39 40  2  0
 40 41  1  0
 41 42  2  0
 42 43  1  0
 43 44  2  0
 25 26  1  0
 26 27  1  0
 27 28  2  0
 27 30  1  0
 30 31  1  0
 31 32  1  0
 32 33  2  0
 33 34  1  0
 34 35  2  0
 35 36  1  0
 36 37  2  0
 44 39  1  0
 37 32  1  0
  8 11  1  0
  5  6  1  0
  3  4  1  0
 26 29  1  0
M  END
> <minimizedAffinity>
-7.92020

> <CNNscore>
0.6936851144

> <CNNaffinity>
7.9060244560

> <CNN_VS>
5.4842915535

> <CNNaffinity_variance>
0.2913669944

$$$$
