


 48 50  0  0  0  0  0  0  0  0999 V2000
    8.0740   28.8384    5.5202 C   0  0  0  0  0  0  0  0  0  0  0  0
    7.4635   27.6302    4.9741 N   0  0  0  0  0  0  0  0  0  0  0  0
    8.2002   26.5024    4.6971 C   0  0  0  0  0  0  0  0  0  0  0  0
    9.3961   26.4181    4.9563 O   0  0  0  0  0  0  0  0  0  0  0  0
    6.4948   27.6225    4.7987 H   0  0  0  0  0  0  0  0  0  0  0  0
    7.3843   25.4211    4.0164 C   0  0  0  0  0  0  0  0  0  0  0  0
    7.4820   24.0625    4.7067 C   0  0  0  0  0  0  0  0  0  0  0  0
    6.1757   23.5978    5.3030 C   0  0  0  0  0  0  0  0  0  0  0  0
    6.1582   22.5867    6.2698 C   0  0  0  0  0  0  0  0  0  0  0  0
    4.9509   22.1744    6.8430 C   0  0  0  0  0  0  0  0  0  0  0  0
    3.7295   22.7620    6.4715 C   0  0  0  0  0  0  0  0  0  0  0  0
    3.7570   23.7631    5.4890 C   0  0  0  0  0  0  0  0  0  0  0  0
    4.9632   24.1711    4.9067 C   0  0  0  0  0  0  0  0  0  0  0  0
    2.4792   22.3416    7.1336 C   0  0  0  0  0  0  0  0  0  0  0  0
    1.2016   22.8458    6.9527 C   0  0  0  0  0  0  0  0  0  0  0  0
    0.2126   22.2055    7.7656 C   0  0  0  0  0  0  0  0  0  0  0  0
    0.7774   21.2241    8.5521 C   0  0  0  0  0  0  0  0  0  0  0  0
    2.4653   21.0939    8.3170 S   0  0  0  0  0  0  0  0  0  0  0  0
   -1.2093   22.5184    7.8187 C   0  0  0  0  0  0  0  0  0  0  0  0
   -1.6685   23.8186    7.5611 C   0  0  0  0  0  0  0  0  0  0  0  0
   -3.0335   24.1078    7.6352 C   0  0  0  0  0  0  0  0  0  0  0  0
   -3.9339   23.0989    7.9626 C   0  0  0  0  0  0  0  0  0  0  0  0
   -5.2413   23.3789    8.0346 F   0  0  0  0  0  0  0  0  0  0  0  0
   -3.4964   21.8047    8.2202 C   0  0  0  0  0  0  0  0  0  0  0  0
   -2.1325   21.5138    8.1503 C   0  0  0  0  0  0  0  0  0  0  0  0
    7.5464   28.9751    6.9653 C   0  0  0  0  0  0  0  0  0  0  0  0
    6.3512   28.8724    7.2337 O   0  0  0  0  0  0  0  0  0  0  0  0
    8.5120   29.1721    7.9254 N   0  0  0  0  0  0  0  0  0  0  0  0
    9.4575   29.1093    7.6582 H   0  0  0  0  0  0  0  0  0  0  0  0
    8.2019   29.4711    9.3283 C   0  0  0  0  0  0  0  0  0  0  0  0
    9.1629   30.5034    9.9673 C   0  0  0  0  0  0  0  0  0  0  0  0
    8.5837   31.6676   10.3976 N   0  0  0  0  0  0  0  0  0  0  0  0
   10.3373   30.2673   10.2386 O   0  0  0  0  0  0  0  0  0  0  0  0
    7.6425   31.8584   10.1810 H   0  0  0  0  0  0  0  0  0  0  0  0
    9.1086   32.3135   10.9234 H   0  0  0  0  0  0  0  0  0  0  0  0
    8.0598   28.2290   10.2220 C   0  0  0  0  0  0  0  0  0  0  0  0
    8.4576   28.4119   11.6864 C   0  0  0  0  0  0  0  0  0  0  0  0
    8.2379   27.1788   12.5240 C   0  0  0  0  0  0  0  0  0  0  0  0
    8.7093   26.0685   12.3244 O   0  0  0  0  0  0  0  0  0  0  0  0
    7.4512   27.4118   13.5914 O   0  0  0  0  0  0  0  0  0  0  0  0
    7.0958   28.2671   13.7337 H   0  0  0  0  0  0  0  0  0  0  0  0
    7.7187   30.0621    4.6563 C   0  0  0  0  0  0  0  0  0  0  0  0
    8.7251   30.3199    3.5313 C   0  0  0  0  0  0  0  0  0  0  0  0
    7.9849   28.7725    1.8148 N   0  0  0  0  0  0  0  0  0  0  0  0
    8.0824   30.0829    2.1891 C   0  0  0  0  0  0  0  0  0  0  0  0
    7.7691   30.9895    1.4266 O   0  0  0  0  0  0  0  0  0  0  0  0
    7.5766   28.5365    0.9506 H   0  0  0  0  0  0  0  0  0  0  0  0
    8.3230   28.0643    2.4093 H   0  0  0  0  0  0  0  0  0  0  0  0
 44 45  1  0
 45 46  2  0
 45 43  1  0
 43 42  1  0
  1 42  1  0
  1  2  1  0
  2  3  1  0
  3  4  2  0
  3  6  1  0
  6  7  1  0
  7  8  1  0
  8  9  2  0
  9 10  1  0
 10 11  2  0
 11 14  1  0
 14 15  2  0
 15 16  1  0
 16 19  1  0
 19 20  2  0
 20 21  1  0
 21 22  2  0
 22 23  1  0
 22 24  1  0
 24 25  2  0
 16 17  2  0
 17 18  1  0
 11 12  1  0
 12 13  2  0
  1 26  1  0
 26 27  2  0
 26 28  1  0
 28 30  1  0
 30 36  1  0
 36 37  1  0
 37 38  1  0
 38 39  2  0
 38 40  1  0
 30 31  1  0
 31 32  1  0
 31 33  2  0
 13  8  1  0
 18 14  1  0
 25 19  1  0
 44 47  1  0
 44 48  1  0
  2  5  1  0
 28 29  1  0
 40 41  1  0
 32 34  1  0
 32 35  1  0
M  END
> <minimizedAffinity>
-9.32976

> <CNNscore>
0.9173333645

> <CNNaffinity>
7.9148049355

> <CNN_VS>
7.2605147362

> <CNNaffinity_variance>
0.1514924169

$$$$



 48 50  0  0  0  0  0  0  0  0999 V2000
    8.5036   28.0319    5.4908 C   0  0  0  0  0  0  0  0  0  0  0  0
    7.4704   27.0285    5.2537 N   0  0  0  0  0  0  0  0  0  0  0  0
    7.7769   25.7102    5.0096 C   0  0  0  0  0  0  0  0  0  0  0  0
    8.9267   25.2849    5.0460 O   0  0  0  0  0  0  0  0  0  0  0  0
    6.5253   27.3038    5.2690 H   0  0  0  0  0  0  0  0  0  0  0  0
    6.5576   24.8789    4.6623 C   0  0  0  0  0  0  0  0  0  0  0  0
    6.5759   23.4853    5.2862 C   0  0  0  0  0  0  0  0  0  0  0  0
    5.2460   23.0711    5.8673 C   0  0  0  0  0  0  0  0  0  0  0  0
    4.0582   23.6383    5.3932 C   0  0  0  0  0  0  0  0  0  0  0  0
    2.8234   23.2351    5.9118 C   0  0  0  0  0  0  0  0  0  0  0  0
    2.7392   22.2527    6.9131 C   0  0  0  0  0  0  0  0  0  0  0  0
    3.9374   21.7029    7.3929 C   0  0  0  0  0  0  0  0  0  0  0  0
    5.1755   22.1115    6.8822 C   0  0  0  0  0  0  0  0  0  0  0  0
    1.4182   21.8112    7.4014 C   0  0  0  0  0  0  0  0  0  0  0  0
    0.2189   22.5043    7.3756 C   0  0  0  0  0  0  0  0  0  0  0  0
   -0.8759   21.7759    7.9412 C   0  0  0  0  0  0  0  0  0  0  0  0
   -0.4685   20.5371    8.3884 C   0  0  0  0  0  0  0  0  0  0  0  0
    1.2015   20.2726    8.1384 S   0  0  0  0  0  0  0  0  0  0  0  0
   -2.2519   22.2349    8.0772 C   0  0  0  0  0  0  0  0  0  0  0  0
   -2.5680   23.5976    7.9720 C   0  0  0  0  0  0  0  0  0  0  0  0
   -3.8896   24.0247    8.1243 C   0  0  0  0  0  0  0  0  0  0  0  0
   -4.8897   23.0911    8.3776 C   0  0  0  0  0  0  0  0  0  0  0  0
   -6.1552   23.5030    8.5249 F   0  0  0  0  0  0  0  0  0  0  0  0
   -4.5945   21.7368    8.4843 C   0  0  0  0  0  0  0  0  0  0  0  0
   -3.2740   21.3076    8.3359 C   0  0  0  0  0  0  0  0  0  0  0  0
    7.9083   29.0359    6.5023 C   0  0  0  0  0  0  0  0  0  0  0  0
    6.7786   29.5017    6.3682 O   0  0  0  0  0  0  0  0  0  0  0  0
    8.7131   29.3300    7.5787 N   0  0  0  0  0  0  0  0  0  0  0  0
    9.5473   28.8197    7.6928 H   0  0  0  0  0  0  0  0  0  0  0  0
    8.3893   30.3672    8.5653 C   0  0  0  0  0  0  0  0  0  0  0  0
    8.5656   31.8084    8.0275 C   0  0  0  0  0  0  0  0  0  0  0  0
    9.6361   32.0056    7.1962 N   0  0  0  0  0  0  0  0  0  0  0  0
    7.7346   32.7003    8.1774 O   0  0  0  0  0  0  0  0  0  0  0  0
   10.3032   31.2918    7.0748 H   0  0  0  0  0  0  0  0  0  0  0  0
    9.7385   32.8611    6.7199 H   0  0  0  0  0  0  0  0  0  0  0  0
    9.1000   30.1965    9.9171 C   0  0  0  0  0  0  0  0  0  0  0  0
    8.8289   31.2848   10.9554 C   0  0  0  0  0  0  0  0  0  0  0  0
    9.7229   31.1933   12.1648 C   0  0  0  0  0  0  0  0  0  0  0  0
   10.0307   32.1088   12.9146 O   0  0  0  0  0  0  0  0  0  0  0  0
   10.1677   29.9421   12.3860 O   0  0  0  0  0  0  0  0  0  0  0  0
    9.9249   29.2488   11.8042 H   0  0  0  0  0  0  0  0  0  0  0  0
    8.9100   28.7124    4.1711 C   0  0  0  0  0  0  0  0  0  0  0  0
    8.7897   30.2383    4.2162 C   0  0  0  0  0  0  0  0  0  0  0  0
    6.5281   30.2015    3.3375 N   0  0  0  0  0  0  0  0  0  0  0  0
    7.7865   30.7150    3.1979 C   0  0  0  0  0  0  0  0  0  0  0  0
    8.0857   31.4201    2.2415 O   0  0  0  0  0  0  0  0  0  0  0  0
    5.8165   30.4651    2.7102 H   0  0  0  0  0  0  0  0  0  0  0  0
    6.3329   29.5679    4.0653 H   0  0  0  0  0  0  0  0  0  0  0  0
 44 45  1  0
 45 46  2  0
 45 43  1  0
 43 42  1  0
  1 42  1  0
  1  2  1  0
  2  3  1  0
  3  4  2  0
  3  6  1  0
  6  7  1  0
  7  8  1  0
  8  9  2  0
  9 10  1  0
 10 11  2  0
 11 14  1  0
 14 15  2  0
 15 16  1  0
 16 19  1  0
 19 20  2  0
 20 21  1  0
 21 22  2  0
 22 23  1  0
 22 24  1  0
 24 25  2  0
 16 17  2  0
 17 18  1  0
 11 12  1  0
 12 13  2  0
  1 26  1  0
 26 27  2  0
 26 28  1  0
 28 30  1  0
 30 36  1  0
 36 37  1  0
 37 38  1  0
 38 39  2  0
 38 40  1  0
 30 31  1  0
 31 32  1  0
 31 33  2  0
 13  8  1  0
 18 14  1  0
 25 19  1  0
 44 47  1  0
 44 48  1  0
  2  5  1  0
 28 29  1  0
 40 41  1  0
 32 34  1  0
 32 35  1  0
M  END
> <minimizedAffinity>
-8.34958

> <CNNscore>
0.8228017688

> <CNNaffinity>
7.7307486534

> <CNN_VS>
6.3608736992

> <CNNaffinity_variance>
0.1062966213

$$$$



 48 50  0  0  0  0  0  0  0  0999 V2000
    8.4848   28.3692    5.3527 C   0  0  0  0  0  0  0  0  0  0  0  0
    8.2114   26.9484    5.5451 N   0  0  0  0  0  0  0  0  0  0  0  0
    8.9478   25.9725    4.9152 C   0  0  0  0  0  0  0  0  0  0  0  0
    9.9190   26.2321    4.2127 O   0  0  0  0  0  0  0  0  0  0  0  0
    7.4774   26.6806    6.1441 H   0  0  0  0  0  0  0  0  0  0  0  0
    8.4038   24.5784    5.1582 C   0  0  0  0  0  0  0  0  0  0  0  0
    7.2677   24.1972    4.2117 C   0  0  0  0  0  0  0  0  0  0  0  0
    6.0281   23.7164    4.9261 C   0  0  0  0  0  0  0  0  0  0  0  0
    6.1015   22.6577    5.8378 C   0  0  0  0  0  0  0  0  0  0  0  0
    4.9586   22.2296    6.5207 C   0  0  0  0  0  0  0  0  0  0  0  0
    3.7132   22.8481    6.3169 C   0  0  0  0  0  0  0  0  0  0  0  0
    3.6479   23.8974    5.3881 C   0  0  0  0  0  0  0  0  0  0  0  0
    4.7886   24.3219    4.6959 C   0  0  0  0  0  0  0  0  0  0  0  0
    2.5372   22.4076    7.0925 C   0  0  0  0  0  0  0  0  0  0  0  0
    1.2088   22.7539    6.9067 C   0  0  0  0  0  0  0  0  0  0  0  0
    0.3207   22.1440    7.8492 C   0  0  0  0  0  0  0  0  0  0  0  0
    1.0113   21.3456    8.7358 C   0  0  0  0  0  0  0  0  0  0  0  0
    2.6942   21.3477    8.4376 S   0  0  0  0  0  0  0  0  0  0  0  0
   -1.1233   22.3216    7.9288 C   0  0  0  0  0  0  0  0  0  0  0  0
   -1.9682   21.2300    8.1783 C   0  0  0  0  0  0  0  0  0  0  0  0
   -3.3524   21.4126    8.2322 C   0  0  0  0  0  0  0  0  0  0  0  0
   -3.8870   22.6828    8.0403 C   0  0  0  0  0  0  0  0  0  0  0  0
   -5.2139   22.8550    8.0907 F   0  0  0  0  0  0  0  0  0  0  0  0
   -3.0644   23.7758    7.7927 C   0  0  0  0  0  0  0  0  0  0  0  0
   -1.6809   23.5955    7.7349 C   0  0  0  0  0  0  0  0  0  0  0  0
    8.0617   29.0728    6.6608 C   0  0  0  0  0  0  0  0  0  0  0  0
    7.3633   28.5133    7.5036 O   0  0  0  0  0  0  0  0  0  0  0  0
    8.5600   30.3441    6.8301 N   0  0  0  0  0  0  0  0  0  0  0  0
    9.2205   30.6782    6.1809 H   0  0  0  0  0  0  0  0  0  0  0  0
    8.1553   31.2265    7.9307 C   0  0  0  0  0  0  0  0  0  0  0  0
    8.9057   30.9459    9.2557 C   0  0  0  0  0  0  0  0  0  0  0  0
    8.4303   29.8972    9.9973 N   0  0  0  0  0  0  0  0  0  0  0  0
    9.9576   31.4940    9.5747 O   0  0  0  0  0  0  0  0  0  0  0  0
    7.5874   29.4567    9.7430 H   0  0  0  0  0  0  0  0  0  0  0  0
    8.9315   29.5838   10.7846 H   0  0  0  0  0  0  0  0  0  0  0  0
    6.6376   31.2894    8.1639 C   0  0  0  0  0  0  0  0  0  0  0  0
    6.1247   32.5354    8.8852 C   0  0  0  0  0  0  0  0  0  0  0  0
    4.6450   32.7603    8.7115 C   0  0  0  0  0  0  0  0  0  0  0  0
    4.1116   33.5180    7.9138 O   0  0  0  0  0  0  0  0  0  0  0  0
    3.9051   31.9975    9.5382 O   0  0  0  0  0  0  0  0  0  0  0  0
    4.3256   31.4207   10.1451 H   0  0  0  0  0  0  0  0  0  0  0  0
    7.7171   28.9075    4.1316 C   0  0  0  0  0  0  0  0  0  0  0  0
    8.6334   29.3245    2.9778 C   0  0  0  0  0  0  0  0  0  0  0  0
    7.8205   27.2720    1.9704 N   0  0  0  0  0  0  0  0  0  0  0  0
    8.3152   28.5247    1.7410 C   0  0  0  0  0  0  0  0  0  0  0  0
    8.5809   28.9085    0.6080 O   0  0  0  0  0  0  0  0  0  0  0  0
    7.5885   26.6880    1.2125 H   0  0  0  0  0  0  0  0  0  0  0  0
    7.6961   26.9532    2.8935 H   0  0  0  0  0  0  0  0  0  0  0  0
 44 45  1  0
 45 46  2  0
 45 43  1  0
 43 42  1  0
  1 42  1  0
  1  2  1  0
  2  3  1  0
  3  4  2  0
  3  6  1  0
  6  7  1  0
  7  8  1  0
  8  9  2  0
  9 10  1  0
 10 11  2  0
 11 14  1  0
 14 15  2  0
 15 16  1  0
 16 19  1  0
 19 20  2  0
 20 21  1  0
 21 22  2  0
 22 23  1  0
 22 24  1  0
 24 25  2  0
 16 17  2  0
 17 18  1  0
 11 12  1  0
 12 13  2  0
  1 26  1  0
 26 27  2  0
 26 28  1  0
 28 30  1  0
 30 36  1  0
 36 37  1  0
 37 38  1  0
 38 39  2  0
 38 40  1  0
 30 31  1  0
 31 32  1  0
 31 33  2  0
 13  8  1  0
 18 14  1  0
 25 19  1  0
 44 47  1  0
 44 48  1  0
  2  5  1  0
 28 29  1  0
 40 41  1  0
 32 34  1  0
 32 35  1  0
M  END
> <minimizedAffinity>
-8.70951

> <CNNscore>
0.8009189963

> <CNNaffinity>
7.6921367645

> <CNN_VS>
6.1607785225

> <CNNaffinity_variance>
0.2344068140

$$$$



 48 50  0  0  0  0  0  0  0  0999 V2000
    8.6578   27.9139    3.6566 C   0  0  0  0  0  0  0  0  0  0  0  0
    7.9668   26.9041    4.4524 N   0  0  0  0  0  0  0  0  0  0  0  0
    8.5463   25.6949    4.7583 C   0  0  0  0  0  0  0  0  0  0  0  0
    9.6993   25.4200    4.4435 O   0  0  0  0  0  0  0  0  0  0  0  0
    7.0582   27.0944    4.7801 H   0  0  0  0  0  0  0  0  0  0  0  0
    7.5988   24.7558    5.4786 C   0  0  0  0  0  0  0  0  0  0  0  0
    6.5831   24.0909    4.5522 C   0  0  0  0  0  0  0  0  0  0  0  0
    5.3457   23.6070    5.2682 C   0  0  0  0  0  0  0  0  0  0  0  0
    4.0936   24.1541    4.9674 C   0  0  0  0  0  0  0  0  0  0  0  0
    2.9427   23.6872    5.6104 C   0  0  0  0  0  0  0  0  0  0  0  0
    3.0083   22.6596    6.5668 C   0  0  0  0  0  0  0  0  0  0  0  0
    4.2708   22.1300    6.8728 C   0  0  0  0  0  0  0  0  0  0  0  0
    5.4258   22.6021    6.2375 C   0  0  0  0  0  0  0  0  0  0  0  0
    1.7692   22.1528    7.1884 C   0  0  0  0  0  0  0  0  0  0  0  0
    0.4931   22.6872    7.1163 C   0  0  0  0  0  0  0  0  0  0  0  0
   -0.4835   21.9385    7.8477 C   0  0  0  0  0  0  0  0  0  0  0  0
    0.0891   20.8462    8.4639 C   0  0  0  0  0  0  0  0  0  0  0  0
    1.7697   20.7415    8.1709 S   0  0  0  0  0  0  0  0  0  0  0  0
   -1.9005   22.2495    7.9818 C   0  0  0  0  0  0  0  0  0  0  0  0
   -2.3441   23.5800    8.0096 C   0  0  0  0  0  0  0  0  0  0  0  0
   -3.7043   23.8627    8.1584 C   0  0  0  0  0  0  0  0  0  0  0  0
   -4.6156   22.8179    8.2757 C   0  0  0  0  0  0  0  0  0  0  0  0
   -5.9184   23.0914    8.4200 F   0  0  0  0  0  0  0  0  0  0  0  0
   -4.1936   21.4935    8.2494 C   0  0  0  0  0  0  0  0  0  0  0  0
   -2.8344   21.2082    8.1042 C   0  0  0  0  0  0  0  0  0  0  0  0
    8.7775   29.1652    4.5539 C   0  0  0  0  0  0  0  0  0  0  0  0
    8.2510   29.2228    5.6633 O   0  0  0  0  0  0  0  0  0  0  0  0
    9.5496   30.1822    4.0414 N   0  0  0  0  0  0  0  0  0  0  0  0
   10.0504   30.0163    3.2101 H   0  0  0  0  0  0  0  0  0  0  0  0
    9.6634   31.5020    4.6729 C   0  0  0  0  0  0  0  0  0  0  0  0
    8.7409   31.6798    5.9037 C   0  0  0  0  0  0  0  0  0  0  0  0
    7.4434   32.0221    5.6293 N   0  0  0  0  0  0  0  0  0  0  0  0
    9.0663   31.3830    7.0503 O   0  0  0  0  0  0  0  0  0  0  0  0
    7.1809   32.2603    4.7109 H   0  0  0  0  0  0  0  0  0  0  0  0
    6.7733   32.0299    6.3506 H   0  0  0  0  0  0  0  0  0  0  0  0
    9.5122   32.6823    3.7004 C   0  0  0  0  0  0  0  0  0  0  0  0
   10.8107   33.2292    3.1082 C   0  0  0  0  0  0  0  0  0  0  0  0
   11.1847   34.5883    3.6404 C   0  0  0  0  0  0  0  0  0  0  0  0
   10.5993   35.2167    4.5107 O   0  0  0  0  0  0  0  0  0  0  0  0
   12.2975   35.0811    3.0648 O   0  0  0  0  0  0  0  0  0  0  0  0
   12.7373   34.5901    2.3989 H   0  0  0  0  0  0  0  0  0  0  0  0
    7.8820   28.2044    2.3590 C   0  0  0  0  0  0  0  0  0  0  0  0
    8.5800   27.6694    1.1054 C   0  0  0  0  0  0  0  0  0  0  0  0
    9.8839   25.6235    1.1543 N   0  0  0  0  0  0  0  0  0  0  0  0
    8.6291   26.1637    1.1355 C   0  0  0  0  0  0  0  0  0  0  0  0
    7.6320   25.4584    1.0351 O   0  0  0  0  0  0  0  0  0  0  0  0
    9.9988   24.6459    1.1744 H   0  0  0  0  0  0  0  0  0  0  0  0
   10.6733   26.2118    1.1479 H   0  0  0  0  0  0  0  0  0  0  0  0
 44 45  1  0
 45 46  2  0
 45 43  1  0
 43 42  1  0
  1 42  1  0
  1  2  1  0
  2  3  1  0
  3  4  2  0
  3  6  1  0
  6  7  1  0
  7  8  1  0
  8  9  2  0
  9 10  1  0
 10 11  2  0
 11 14  1  0
 14 15  2  0
 15 16  1  0
 16 19  1  0
 19 20  2  0
 20 21  1  0
 21 22  2  0
 22 23  1  0
 22 24  1  0
 24 25  2  0
 16 17  2  0
 17 18  1  0
 11 12  1  0
 12 13  2  0
  1 26  1  0
 26 27  2  0
 26 28  1  0
 28 30  1  0
 30 36  1  0
 36 37  1  0
 37 38  1  0
 38 39  2  0
 38 40  1  0
 30 31  1  0
 31 32  1  0
 31 33  2  0
 13  8  1  0
 18 14  1  0
 25 19  1  0
 44 47  1  0
 44 48  1  0
  2  5  1  0
 28 29  1  0
 40 41  1  0
 32 34  1  0
 32 35  1  0
M  END
> <minimizedAffinity>
-8.65688

> <CNNscore>
0.7997338176

> <CNNaffinity>
7.9212164879

> <CNN_VS>
6.3348646164

> <CNNaffinity_variance>
0.0821576118

$$$$



 48 50  0  0  0  0  0  0  0  0999 V2000
    8.2077   27.6634    3.6682 C   0  0  0  0  0  0  0  0  0  0  0  0
    7.9824   26.3196    4.1916 N   0  0  0  0  0  0  0  0  0  0  0  0
    7.2352   26.0942    5.3241 C   0  0  0  0  0  0  0  0  0  0  0  0
    6.6566   26.9963    5.9205 O   0  0  0  0  0  0  0  0  0  0  0  0
    8.3773   25.5512    3.7196 H   0  0  0  0  0  0  0  0  0  0  0  0
    7.2458   24.6405    5.7542 C   0  0  0  0  0  0  0  0  0  0  0  0
    6.3793   23.7416    4.8752 C   0  0  0  0  0  0  0  0  0  0  0  0
    5.1097   23.2852    5.5520 C   0  0  0  0  0  0  0  0  0  0  0  0
    3.8839   23.8797    5.2334 C   0  0  0  0  0  0  0  0  0  0  0  0
    2.7032   23.4388    5.8398 C   0  0  0  0  0  0  0  0  0  0  0  0
    2.7120   22.3909    6.7761 C   0  0  0  0  0  0  0  0  0  0  0  0
    3.9487   21.8135    7.1005 C   0  0  0  0  0  0  0  0  0  0  0  0
    5.1336   22.2592    6.5021 C   0  0  0  0  0  0  0  0  0  0  0  0
    1.4424   21.9136    7.3581 C   0  0  0  0  0  0  0  0  0  0  0  0
    0.1984   22.5220    7.3180 C   0  0  0  0  0  0  0  0  0  0  0  0
   -0.8233   21.7817    7.9941 C   0  0  0  0  0  0  0  0  0  0  0  0
   -0.3166   20.6204    8.5374 C   0  0  0  0  0  0  0  0  0  0  0  0
    1.3577   20.4418    8.2436 S   0  0  0  0  0  0  0  0  0  0  0  0
   -2.2218   22.1617    8.1441 C   0  0  0  0  0  0  0  0  0  0  0  0
   -3.2091   21.1913    8.3709 C   0  0  0  0  0  0  0  0  0  0  0  0
   -4.5488   21.5691    8.4930 C   0  0  0  0  0  0  0  0  0  0  0  0
   -4.8970   22.9124    8.3916 C   0  0  0  0  0  0  0  0  0  0  0  0
   -6.1816   23.2718    8.5073 F   0  0  0  0  0  0  0  0  0  0  0  0
   -3.9315   23.8873    8.1677 C   0  0  0  0  0  0  0  0  0  0  0  0
   -2.5924   23.5121    8.0419 C   0  0  0  0  0  0  0  0  0  0  0  0
    8.6173   27.4891    2.1893 C   0  0  0  0  0  0  0  0  0  0  0  0
    8.5520   28.4148    1.3830 O   0  0  0  0  0  0  0  0  0  0  0  0
    9.1000   26.2441    1.8577 N   0  0  0  0  0  0  0  0  0  0  0  0
    9.2513   25.5931    2.5806 H   0  0  0  0  0  0  0  0  0  0  0  0
    9.4005   25.8390    0.4796 C   0  0  0  0  0  0  0  0  0  0  0  0
    8.8366   24.4455    0.1081 C   0  0  0  0  0  0  0  0  0  0  0  0
    7.5522   24.1969    0.5135 N   0  0  0  0  0  0  0  0  0  0  0  0
    9.4068   23.6544   -0.6386 O   0  0  0  0  0  0  0  0  0  0  0  0
    7.0937   24.8300    1.1121 H   0  0  0  0  0  0  0  0  0  0  0  0
    7.0875   23.3852    0.2064 H   0  0  0  0  0  0  0  0  0  0  0  0
   10.8854   25.9479    0.0991 C   0  0  0  0  0  0  0  0  0  0  0  0
   11.1761   26.3079   -1.3576 C   0  0  0  0  0  0  0  0  0  0  0  0
   12.5385   26.9181   -1.5622 C   0  0  0  0  0  0  0  0  0  0  0  0
   12.8358   27.7815   -2.3752 O   0  0  0  0  0  0  0  0  0  0  0  0
   13.4588   26.4260   -0.7118 O   0  0  0  0  0  0  0  0  0  0  0  0
   13.2188   25.7644   -0.0932 H   0  0  0  0  0  0  0  0  0  0  0  0
    9.2910   28.3885    4.4871 C   0  0  0  0  0  0  0  0  0  0  0  0
    9.2563   29.9103    4.3209 C   0  0  0  0  0  0  0  0  0  0  0  0
    7.6196   29.7878    6.1083 N   0  0  0  0  0  0  0  0  0  0  0  0
    8.5783   30.5512    5.5042 C   0  0  0  0  0  0  0  0  0  0  0  0
    8.7773   31.7118    5.8432 O   0  0  0  0  0  0  0  0  0  0  0  0
    7.1314   30.1373    6.8885 H   0  0  0  0  0  0  0  0  0  0  0  0
    7.4169   28.8883    5.7632 H   0  0  0  0  0  0  0  0  0  0  0  0
 44 45  1  0
 45 46  2  0
 45 43  1  0
 43 42  1  0
  1 42  1  0
  1  2  1  0
  2  3  1  0
  3  4  2  0
  3  6  1  0
  6  7  1  0
  7  8  1  0
  8  9  2  0
  9 10  1  0
 10 11  2  0
 11 14  1  0
 14 15  2  0
 15 16  1  0
 16 19  1  0
 19 20  2  0
 20 21  1  0
 21 22  2  0
 22 23  1  0
 22 24  1  0
 24 25  2  0
 16 17  2  0
 17 18  1  0
 11 12  1  0
 12 13  2  0
  1 26  1  0
 26 27  2  0
 26 28  1  0
 28 30  1  0
 30 36  1  0
 36 37  1  0
 37 38  1  0
 38 39  2  0
 38 40  1  0
 30 31  1  0
 31 32  1  0
 31 33  2  0
 13  8  1  0
 18 14  1  0
 25 19  1  0
 44 47  1  0
 44 48  1  0
  2  5  1  0
 28 29  1  0
 40 41  1  0
 32 34  1  0
 32 35  1  0
M  END
> <minimizedAffinity>
-9.80663

> <CNNscore>
0.7779808044

> <CNNaffinity>
7.7913727760

> <CNN_VS>
6.0615386963

> <CNNaffinity_variance>
0.1528199166

$$$$



 48 50  0  0  0  0  0  0  0  0999 V2000
    8.4735   27.6564    2.9682 C   0  0  0  0  0  0  0  0  0  0  0  0
    7.8466   26.7107    3.8864 N   0  0  0  0  0  0  0  0  0  0  0  0
    8.5809   25.7959    4.6042 C   0  0  0  0  0  0  0  0  0  0  0  0
    9.8065   25.7652    4.5712 O   0  0  0  0  0  0  0  0  0  0  0  0
    6.8683   26.7282    3.9951 H   0  0  0  0  0  0  0  0  0  0  0  0
    7.7123   24.8327    5.3894 C   0  0  0  0  0  0  0  0  0  0  0  0
    6.7626   24.0197    4.5125 C   0  0  0  0  0  0  0  0  0  0  0  0
    5.5239   23.5564    5.2398 C   0  0  0  0  0  0  0  0  0  0  0  0
    4.2738   24.1022    4.9286 C   0  0  0  0  0  0  0  0  0  0  0  0
    3.1217   23.6539    5.5826 C   0  0  0  0  0  0  0  0  0  0  0  0
    3.1839   22.6466    6.5605 C   0  0  0  0  0  0  0  0  0  0  0  0
    4.4446   22.1184    6.8766 C   0  0  0  0  0  0  0  0  0  0  0  0
    5.6009   22.5720    6.2302 C   0  0  0  0  0  0  0  0  0  0  0  0
    1.9434   22.1584    7.1940 C   0  0  0  0  0  0  0  0  0  0  0  0
    0.6653   22.6834    7.0936 C   0  0  0  0  0  0  0  0  0  0  0  0
   -0.3123   21.9591    7.8477 C   0  0  0  0  0  0  0  0  0  0  0  0
    0.2615   20.8943    8.5093 C   0  0  0  0  0  0  0  0  0  0  0  0
    1.9444   20.7863    8.2306 S   0  0  0  0  0  0  0  0  0  0  0  0
   -1.7315   22.2682    7.9612 C   0  0  0  0  0  0  0  0  0  0  0  0
   -2.1878   23.5915    7.8684 C   0  0  0  0  0  0  0  0  0  0  0  0
   -3.5499   23.8743    7.9988 C   0  0  0  0  0  0  0  0  0  0  0  0
   -4.4504   22.8365    8.2180 C   0  0  0  0  0  0  0  0  0  0  0  0
   -5.7549   23.1103    8.3444 F   0  0  0  0  0  0  0  0  0  0  0  0
   -4.0157   21.5194    8.3119 C   0  0  0  0  0  0  0  0  0  0  0  0
   -2.6547   21.2343    8.1853 C   0  0  0  0  0  0  0  0  0  0  0  0
    8.1751   29.0651    3.5267 C   0  0  0  0  0  0  0  0  0  0  0  0
    7.6501   29.2311    4.6258 O   0  0  0  0  0  0  0  0  0  0  0  0
    8.5803   30.1099    2.7285 N   0  0  0  0  0  0  0  0  0  0  0  0
    9.1139   29.9066    1.9265 H   0  0  0  0  0  0  0  0  0  0  0  0
    8.2561   31.5125    3.0138 C   0  0  0  0  0  0  0  0  0  0  0  0
    9.4369   32.3084    3.6219 C   0  0  0  0  0  0  0  0  0  0  0  0
   10.1284   31.6754    4.6204 N   0  0  0  0  0  0  0  0  0  0  0  0
    9.8597   33.3645    3.1589 O   0  0  0  0  0  0  0  0  0  0  0  0
    9.7909   30.8288    4.9927 H   0  0  0  0  0  0  0  0  0  0  0  0
   10.9631   32.0670    4.9658 H   0  0  0  0  0  0  0  0  0  0  0  0
    6.9782   31.7086    3.8445 C   0  0  0  0  0  0  0  0  0  0  0  0
    6.9204   32.9811    4.6891 C   0  0  0  0  0  0  0  0  0  0  0  0
    6.9685   32.7173    6.1718 C   0  0  0  0  0  0  0  0  0  0  0  0
    7.9310   32.3154    6.8098 O   0  0  0  0  0  0  0  0  0  0  0  0
    5.8033   32.9975    6.7853 O   0  0  0  0  0  0  0  0  0  0  0  0
    5.0727   33.3048    6.2854 H   0  0  0  0  0  0  0  0  0  0  0  0
    7.9241   27.4711    1.5420 C   0  0  0  0  0  0  0  0  0  0  0  0
    7.5309   26.0245    1.2294 C   0  0  0  0  0  0  0  0  0  0  0  0
    9.0179   24.1070    1.2054 N   0  0  0  0  0  0  0  0  0  0  0  0
    8.6895   25.2899    0.6058 C   0  0  0  0  0  0  0  0  0  0  0  0
    9.3705   25.7575   -0.2993 O   0  0  0  0  0  0  0  0  0  0  0  0
    9.7642   23.5685    0.8558 H   0  0  0  0  0  0  0  0  0  0  0  0
    8.5083   23.7932    1.9871 H   0  0  0  0  0  0  0  0  0  0  0  0
 44 45  1  0
 45 46  2  0
 45 43  1  0
 43 42  1  0
  1 42  1  0
  1  2  1  0
  2  3  1  0
  3  4  2  0
  3  6  1  0
  6  7  1  0
  7  8  1  0
  8  9  2  0
  9 10  1  0
 10 11  2  0
 11 14  1  0
 14 15  2  0
 15 16  1  0
 16 19  1  0
 19 20  2  0
 20 21  1  0
 21 22  2  0
 22 23  1  0
 22 24  1  0
 24 25  2  0
 16 17  2  0
 17 18  1  0
 11 12  1  0
 12 13  2  0
  1 26  1  0
 26 27  2  0
 26 28  1  0
 28 30  1  0
 30 36  1  0
 36 37  1  0
 37 38  1  0
 38 39  2  0
 38 40  1  0
 30 31  1  0
 31 32  1  0
 31 33  2  0
 13  8  1  0
 18 14  1  0
 25 19  1  0
 44 47  1  0
 44 48  1  0
  2  5  1  0
 28 29  1  0
 40 41  1  0
 32 34  1  0
 32 35  1  0
M  END
> <minimizedAffinity>
-8.85221

> <CNNscore>
0.7550225258

> <CNNaffinity>
7.8122272491

> <CNN_VS>
5.8984074593

> <CNNaffinity_variance>
0.2078396529

$$$$



 48 50  0  0  0  0  0  0  0  0999 V2000
    8.6577   27.8302    3.4974 C   0  0  0  0  0  0  0  0  0  0  0  0
    7.8695   26.9702    4.3747 N   0  0  0  0  0  0  0  0  0  0  0  0
    8.3909   25.8282    4.9363 C   0  0  0  0  0  0  0  0  0  0  0  0
    9.5642   25.5014    4.7927 O   0  0  0  0  0  0  0  0  0  0  0  0
    6.9363   27.2152    4.5704 H   0  0  0  0  0  0  0  0  0  0  0  0
    7.3568   25.0258    5.7014 C   0  0  0  0  0  0  0  0  0  0  0  0
    6.7402   23.8939    4.8825 C   0  0  0  0  0  0  0  0  0  0  0  0
    5.4339   23.3894    5.4457 C   0  0  0  0  0  0  0  0  0  0  0  0
    5.4150   22.3036    6.3278 C   0  0  0  0  0  0  0  0  0  0  0  0
    4.2080   21.8527    6.8717 C   0  0  0  0  0  0  0  0  0  0  0  0
    2.9883   22.4748    6.5548 C   0  0  0  0  0  0  0  0  0  0  0  0
    3.0170   23.5518    5.6562 C   0  0  0  0  0  0  0  0  0  0  0  0
    4.2229   23.9992    5.1028 C   0  0  0  0  0  0  0  0  0  0  0  0
    1.7386   22.0087    7.1868 C   0  0  0  0  0  0  0  0  0  0  0  0
    0.4760   22.5736    7.1092 C   0  0  0  0  0  0  0  0  0  0  0  0
   -0.5171   21.8610    7.8541 C   0  0  0  0  0  0  0  0  0  0  0  0
    0.0296   20.7644    8.4859 C   0  0  0  0  0  0  0  0  0  0  0  0
    1.7063   20.6131    8.1910 S   0  0  0  0  0  0  0  0  0  0  0  0
   -1.9256   22.2093    7.9864 C   0  0  0  0  0  0  0  0  0  0  0  0
   -2.8921   21.2182    8.2132 C   0  0  0  0  0  0  0  0  0  0  0  0
   -4.2414   21.5655    8.3182 C   0  0  0  0  0  0  0  0  0  0  0  0
   -4.6200   22.8991    8.1997 C   0  0  0  0  0  0  0  0  0  0  0  0
   -5.9138   23.2293    8.2990 F   0  0  0  0  0  0  0  0  0  0  0  0
   -3.6755   23.8943    7.9756 C   0  0  0  0  0  0  0  0  0  0  0  0
   -2.3267   23.5495    7.8668 C   0  0  0  0  0  0  0  0  0  0  0  0
    8.4207   29.2773    3.9823 C   0  0  0  0  0  0  0  0  0  0  0  0
    7.4246   29.5909    4.6310 O   0  0  0  0  0  0  0  0  0  0  0  0
    9.4223   30.1694    3.6760 N   0  0  0  0  0  0  0  0  0  0  0  0
   10.2512   29.8225    3.2737 H   0  0  0  0  0  0  0  0  0  0  0  0
    9.3158   31.6127    3.9194 C   0  0  0  0  0  0  0  0  0  0  0  0
    9.5236   32.0064    5.4024 C   0  0  0  0  0  0  0  0  0  0  0  0
    9.0120   31.1340    6.3260 N   0  0  0  0  0  0  0  0  0  0  0  0
   10.2342   32.9387    5.7690 O   0  0  0  0  0  0  0  0  0  0  0  0
    8.4422   30.3861    6.0340 H   0  0  0  0  0  0  0  0  0  0  0  0
    9.2140   31.2548    7.2820 H   0  0  0  0  0  0  0  0  0  0  0  0
    8.0385   32.2553    3.3562 C   0  0  0  0  0  0  0  0  0  0  0  0
    7.5661   31.7254    2.0027 C   0  0  0  0  0  0  0  0  0  0  0  0
    8.3261   32.3020    0.8365 C   0  0  0  0  0  0  0  0  0  0  0  0
    8.9234   31.6745   -0.0263 O   0  0  0  0  0  0  0  0  0  0  0  0
    8.2756   33.6469    0.8001 O   0  0  0  0  0  0  0  0  0  0  0  0
    7.8147   34.1166    1.4671 H   0  0  0  0  0  0  0  0  0  0  0  0
    8.2375   27.6359    2.0291 C   0  0  0  0  0  0  0  0  0  0  0  0
    8.9337   26.4512    1.3534 C   0  0  0  0  0  0  0  0  0  0  0  0
    6.6571   25.6111    1.3506 N   0  0  0  0  0  0  0  0  0  0  0  0
    7.9787   25.2943    1.2109 C   0  0  0  0  0  0  0  0  0  0  0  0
    8.3473   24.1317    1.0927 O   0  0  0  0  0  0  0  0  0  0  0  0
    5.9715   24.9091    1.2709 H   0  0  0  0  0  0  0  0  0  0  0  0
    6.3903   26.5415    1.5311 H   0  0  0  0  0  0  0  0  0  0  0  0
 44 45  1  0
 45 46  2  0
 45 43  1  0
 43 42  1  0
  1 42  1  0
  1  2  1  0
  2  3  1  0
  3  4  2  0
  3  6  1  0
  6  7  1  0
  7  8  1  0
  8  9  2  0
  9 10  1  0
 10 11  2  0
 11 14  1  0
 14 15  2  0
 15 16  1  0
 16 19  1  0
 19 20  2  0
 20 21  1  0
 21 22  2  0
 22 23  1  0
 22 24  1  0
 24 25  2  0
 16 17  2  0
 17 18  1  0
 11 12  1  0
 12 13  2  0
  1 26  1  0
 26 27  2  0
 26 28  1  0
 28 30  1  0
 30 36  1  0
 36 37  1  0
 37 38  1  0
 38 39  2  0
 38 40  1  0
 30 31  1  0
 31 32  1  0
 31 33  2  0
 13  8  1  0
 18 14  1  0
 25 19  1  0
 44 47  1  0
 44 48  1  0
  2  5  1  0
 28 29  1  0
 40 41  1  0
 32 34  1  0
 32 35  1  0
M  END
> <minimizedAffinity>
-9.33777

> <CNNscore>
0.7284764051

> <CNNaffinity>
7.9092006683

> <CNN_VS>
5.7616662979

> <CNNaffinity_variance>
0.0862316415

$$$$



 48 50  0  0  0  0  0  0  0  0999 V2000
    8.9065   29.2057    3.9749 C   0  0  0  0  0  0  0  0  0  0  0  0
    8.1926   27.9797    3.6320 N   0  0  0  0  0  0  0  0  0  0  0  0
    8.8013   26.7470    3.6694 C   0  0  0  0  0  0  0  0  0  0  0  0
    9.9542   26.5945    4.0591 O   0  0  0  0  0  0  0  0  0  0  0  0
    7.2465   28.0369    3.3657 H   0  0  0  0  0  0  0  0  0  0  0  0
    7.9102   25.6365    3.1486 C   0  0  0  0  0  0  0  0  0  0  0  0
    8.0738   24.3214    3.9071 C   0  0  0  0  0  0  0  0  0  0  0  0
    6.8433   23.9199    4.6833 C   0  0  0  0  0  0  0  0  0  0  0  0
    5.6244   24.5714    4.4655 C   0  0  0  0  0  0  0  0  0  0  0  0
    4.4773   24.1817    5.1644 C   0  0  0  0  0  0  0  0  0  0  0  0
    4.5132   23.1295    6.0953 C   0  0  0  0  0  0  0  0  0  0  0  0
    5.7442   22.4946    6.3181 C   0  0  0  0  0  0  0  0  0  0  0  0
    6.8963   22.8889    5.6268 C   0  0  0  0  0  0  0  0  0  0  0  0
    3.2739   22.7076    6.7770 C   0  0  0  0  0  0  0  0  0  0  0  0
    1.9808   23.1543    6.5592 C   0  0  0  0  0  0  0  0  0  0  0  0
    1.0094   22.5317    7.4064 C   0  0  0  0  0  0  0  0  0  0  0  0
    1.6028   21.6220    8.2554 C   0  0  0  0  0  0  0  0  0  0  0  0
    3.2958   21.5367    8.0362 S   0  0  0  0  0  0  0  0  0  0  0  0
   -0.4229   22.7972    7.4336 C   0  0  0  0  0  0  0  0  0  0  0  0
   -0.9166   24.0949    7.2336 C   0  0  0  0  0  0  0  0  0  0  0  0
   -2.2918   24.3373    7.2821 C   0  0  0  0  0  0  0  0  0  0  0  0
   -3.1679   23.2845    7.5266 C   0  0  0  0  0  0  0  0  0  0  0  0
   -4.4852   23.5196    7.5743 F   0  0  0  0  0  0  0  0  0  0  0  0
   -2.6961   21.9921    7.7264 C   0  0  0  0  0  0  0  0  0  0  0  0
   -1.3220   21.7477    7.6818 C   0  0  0  0  0  0  0  0  0  0  0  0
    8.3007   29.7017    5.3063 C   0  0  0  0  0  0  0  0  0  0  0  0
    7.3183   29.1646    5.8138 O   0  0  0  0  0  0  0  0  0  0  0  0
    8.9663   30.7503    5.8983 N   0  0  0  0  0  0  0  0  0  0  0  0
    9.8212   31.0426    5.5072 H   0  0  0  0  0  0  0  0  0  0  0  0
    8.4644   31.4545    7.0840 C   0  0  0  0  0  0  0  0  0  0  0  0
    6.9371   31.7078    7.0521 C   0  0  0  0  0  0  0  0  0  0  0  0
    6.1960   30.9847    7.9485 N   0  0  0  0  0  0  0  0  0  0  0  0
    6.4065   32.6041    6.4012 O   0  0  0  0  0  0  0  0  0  0  0  0
    6.6198   30.2659    8.4711 H   0  0  0  0  0  0  0  0  0  0  0  0
    5.2396   31.1836    8.0703 H   0  0  0  0  0  0  0  0  0  0  0  0
    9.2265   32.7457    7.4210 C   0  0  0  0  0  0  0  0  0  0  0  0
    9.8785   32.7942    8.8025 C   0  0  0  0  0  0  0  0  0  0  0  0
    9.1749   31.9411    9.8260 C   0  0  0  0  0  0  0  0  0  0  0  0
    8.0971   32.1755   10.3535 O   0  0  0  0  0  0  0  0  0  0  0  0
    9.8551   30.8165   10.1179 O   0  0  0  0  0  0  0  0  0  0  0  0
   10.6802   30.6481    9.7070 H   0  0  0  0  0  0  0  0  0  0  0  0
    8.7637   30.2476    2.8506 C   0  0  0  0  0  0  0  0  0  0  0  0
    8.0308   29.7098    1.6184 C   0  0  0  0  0  0  0  0  0  0  0  0
    5.9590   30.5417    2.5693 N   0  0  0  0  0  0  0  0  0  0  0  0
    6.7160   30.4235    1.4380 C   0  0  0  0  0  0  0  0  0  0  0  0
    6.2894   30.7764    0.3449 O   0  0  0  0  0  0  0  0  0  0  0  0
    5.0863   30.9957    2.5324 H   0  0  0  0  0  0  0  0  0  0  0  0
    6.2864   30.1728    3.4214 H   0  0  0  0  0  0  0  0  0  0  0  0
 44 45  1  0
 45 46  2  0
 45 43  1  0
 43 42  1  0
  1 42  1  0
  1  2  1  0
  2  3  1  0
  3  4  2  0
  3  6  1  0
  6  7  1  0
  7  8  1  0
  8  9  2  0
  9 10  1  0
 10 11  2  0
 11 14  1  0
 14 15  2  0
 15 16  1  0
 16 19  1  0
 19 20  2  0
 20 21  1  0
 21 22  2  0
 22 23  1  0
 22 24  1  0
 24 25  2  0
 16 17  2  0
 17 18  1  0
 11 12  1  0
 12 13  2  0
  1 26  1  0
 26 27  2  0
 26 28  1  0
 28 30  1  0
 30 36  1  0
 36 37  1  0
 37 38  1  0
 38 39  2  0
 38 40  1  0
 30 31  1  0
 31 32  1  0
 31 33  2  0
 13  8  1  0
 18 14  1  0
 25 19  1  0
 44 47  1  0
 44 48  1  0
  2  5  1  0
 28 29  1  0
 40 41  1  0
 32 34  1  0
 32 35  1  0
M  END
> <minimizedAffinity>
-8.35582

> <CNNscore>
0.7266091108

> <CNNaffinity>
7.7953944206

> <CNN_VS>
5.6642045975

> <CNNaffinity_variance>
0.0482822843

$$$$



 48 50  0  0  0  0  0  0  0  0999 V2000
    7.3792   29.2997    4.6998 C   0  0  0  0  0  0  0  0  0  0  0  0
    7.9329   27.9582    4.5440 N   0  0  0  0  0  0  0  0  0  0  0  0
    7.6611   26.9491    5.4380 C   0  0  0  0  0  0  0  0  0  0  0  0
    6.8848   27.0935    6.3765 O   0  0  0  0  0  0  0  0  0  0  0  0
    8.5187   27.7699    3.7754 H   0  0  0  0  0  0  0  0  0  0  0  0
    8.4458   25.6840    5.1512 C   0  0  0  0  0  0  0  0  0  0  0  0
    7.6962   24.6935    4.2631 C   0  0  0  0  0  0  0  0  0  0  0  0
    6.4568   24.1262    4.9111 C   0  0  0  0  0  0  0  0  0  0  0  0
    6.5622   23.1528    5.9105 C   0  0  0  0  0  0  0  0  0  0  0  0
    5.4155   22.6465    6.5309 C   0  0  0  0  0  0  0  0  0  0  0  0
    4.1338   23.1001    6.1754 C   0  0  0  0  0  0  0  0  0  0  0  0
    4.0390   24.0639    5.1604 C   0  0  0  0  0  0  0  0  0  0  0  0
    5.1847   24.5656    4.5309 C   0  0  0  0  0  0  0  0  0  0  0  0
    2.9474   22.5845    6.8861 C   0  0  0  0  0  0  0  0  0  0  0  0
    1.6262   22.9769    6.7459 C   0  0  0  0  0  0  0  0  0  0  0  0
    0.7239   22.2662    7.6003 C   0  0  0  0  0  0  0  0  0  0  0  0
    1.3969   21.3465    8.3760 C   0  0  0  0  0  0  0  0  0  0  0  0
    3.0805   21.3560    8.0820 S   0  0  0  0  0  0  0  0  0  0  0  0
   -0.7167   22.4589    7.7011 C   0  0  0  0  0  0  0  0  0  0  0  0
   -1.5553   21.4081    8.1016 C   0  0  0  0  0  0  0  0  0  0  0  0
   -2.9371   21.6025    8.1745 C   0  0  0  0  0  0  0  0  0  0  0  0
   -3.4754   22.8440    7.8510 C   0  0  0  0  0  0  0  0  0  0  0  0
   -4.8000   23.0274    7.9201 F   0  0  0  0  0  0  0  0  0  0  0  0
   -2.6591   23.8966    7.4529 C   0  0  0  0  0  0  0  0  0  0  0  0
   -1.2782   23.7040    7.3758 C   0  0  0  0  0  0  0  0  0  0  0  0
    7.4152   29.9485    3.2986 C   0  0  0  0  0  0  0  0  0  0  0  0
    6.4970   30.6534    2.8847 O   0  0  0  0  0  0  0  0  0  0  0  0
    8.5625   29.7176    2.5752 N   0  0  0  0  0  0  0  0  0  0  0  0
    9.3113   29.2581    3.0193 H   0  0  0  0  0  0  0  0  0  0  0  0
    8.7248   30.1227    1.1740 C   0  0  0  0  0  0  0  0  0  0  0  0
    8.2522   31.5697    0.8903 C   0  0  0  0  0  0  0  0  0  0  0  0
    7.0973   31.6858    0.1631 N   0  0  0  0  0  0  0  0  0  0  0  0
    8.7557   32.5660    1.4025 O   0  0  0  0  0  0  0  0  0  0  0  0
    6.6923   30.8883   -0.2482 H   0  0  0  0  0  0  0  0  0  0  0  0
    6.6722   32.5668    0.0518 H   0  0  0  0  0  0  0  0  0  0  0  0
    8.1200   29.1403    0.1588 C   0  0  0  0  0  0  0  0  0  0  0  0
    7.0966   28.1512    0.7158 C   0  0  0  0  0  0  0  0  0  0  0  0
    7.6638   26.7762    0.9570 C   0  0  0  0  0  0  0  0  0  0  0  0
    8.8396   26.4494    0.8820 O   0  0  0  0  0  0  0  0  0  0  0  0
    6.7206   25.8815    1.3067 O   0  0  0  0  0  0  0  0  0  0  0  0
    5.8228   26.1441    1.3607 H   0  0  0  0  0  0  0  0  0  0  0  0
    8.1916   30.1040    5.7309 C   0  0  0  0  0  0  0  0  0  0  0  0
    7.3627   30.5482    6.9393 C   0  0  0  0  0  0  0  0  0  0  0  0
    7.0789   28.9729    8.7632 N   0  0  0  0  0  0  0  0  0  0  0  0
    7.8928   29.9145    8.1995 C   0  0  0  0  0  0  0  0  0  0  0  0
    8.9206   30.2845    8.7546 O   0  0  0  0  0  0  0  0  0  0  0  0
    7.3557   28.5137    9.5889 H   0  0  0  0  0  0  0  0  0  0  0  0
    6.2156   28.7537    8.3437 H   0  0  0  0  0  0  0  0  0  0  0  0
 44 45  1  0
 45 46  2  0
 45 43  1  0
 43 42  1  0
  1 42  1  0
  1  2  1  0
  2  3  1  0
  3  4  2  0
  3  6  1  0
  6  7  1  0
  7  8  1  0
  8  9  2  0
  9 10  1  0
 10 11  2  0
 11 14  1  0
 14 15  2  0
 15 16  1  0
 16 19  1  0
 19 20  2  0
 20 21  1  0
 21 22  2  0
 22 23  1  0
 22 24  1  0
 24 25  2  0
 16 17  2  0
 17 18  1  0
 11 12  1  0
 12 13  2  0
  1 26  1  0
 26 27  2  0
 26 28  1  0
 28 30  1  0
 30 36  1  0
 36 37  1  0
 37 38  1  0
 38 39  2  0
 38 40  1  0
 30 31  1  0
 31 32  1  0
 31 33  2  0
 13  8  1  0
 18 14  1  0
 25 19  1  0
 44 47  1  0
 44 48  1  0
  2  5  1  0
 28 29  1  0
 40 41  1  0
 32 34  1  0
 32 35  1  0
M  END
> <minimizedAffinity>
-8.73943

> <CNNscore>
0.6640318632

> <CNNaffinity>
7.9120087624

> <CNN_VS>
5.2538261414

> <CNNaffinity_variance>
0.0313274302

$$$$
