


 36 37  0  0  0  0  0  0  0  0999 V2000
  -25.3648    7.2667  -15.2517 N   0  0  0  0  0  0  0  0  0  0  0  0
  -25.5686    7.0647  -16.6047 C   0  0  0  0  0  0  0  0  0  0  0  0
  -24.7877    7.3694  -17.4982 O   0  0  0  0  0  0  0  0  0  0  0  0
  -26.1320    7.0794  -14.6638 H   0  0  0  0  0  0  0  0  0  0  0  0
  -24.1175    9.0326  -14.1279 C   0  0  0  0  0  0  0  0  0  0  0  0
  -23.0085    9.4766  -13.3950 C   0  0  0  0  0  0  0  0  0  0  0  0
  -21.9357    8.6164  -13.1887 C   0  0  0  0  0  0  0  0  0  0  0  0
  -20.4271    9.2141  -12.2225 Br  0  0  0  0  0  0  0  0  0  0  0  0
  -21.9655    7.3209  -13.6969 C   0  0  0  0  0  0  0  0  0  0  0  0
  -23.0837    6.8707  -14.4061 C   0  0  0  0  0  0  0  0  0  0  0  0
  -24.1831    7.7108  -14.6139 C   0  0  0  0  0  0  0  0  0  0  0  0
  -27.1970    9.4846   -9.8049 C   0  0  0  0  0  0  0  0  0  0  0  0
  -27.2967   10.1016  -11.1976 C   0  0  0  0  0  0  0  0  0  0  0  0
  -28.6542    9.8080  -11.8382 C   0  0  0  0  0  0  0  0  0  0  0  0
  -28.7708   10.4192  -13.2470 C   0  0  0  0  0  0  0  0  0  0  0  0
  -29.4603    9.4381  -14.2006 C   0  0  0  0  0  0  0  0  0  0  0  0
  -27.4260   10.8931  -13.8202 C   0  0  0  0  0  0  0  0  0  0  0  0
  -26.3225    9.9916  -13.5078 N   0  0  0  0  0  0  0  0  0  0  0  0
  -25.2337    9.9769  -14.3845 C   0  0  0  0  0  0  0  0  0  0  0  0
  -25.1228   10.7382  -15.3443 O   0  0  0  0  0  0  0  0  0  0  0  0
  -26.1865    9.5646  -12.1096 C   0  0  0  0  0  0  0  0  0  0  0  0
  -26.9107    6.3927  -16.8716 C   0  0  0  0  0  0  0  0  0  0  0  0
  -26.8545    4.8640  -16.9035 C   0  0  0  0  0  0  0  0  0  0  0  0
  -25.8332    4.2360  -17.8683 C   0  0  0  0  0  0  0  0  0  0  0  0
  -26.3271    3.6878  -19.2466 C   0  0  0  0  0  0  0  0  0  0  0  0
  -26.8451    4.8036  -20.1635 C   0  0  0  0  0  0  0  0  0  0  0  0
  -27.5174    2.7246  -18.9982 C   0  0  0  0  0  0  0  0  0  0  0  0
  -25.1921    2.8177  -19.9149 C   0  0  0  0  0  0  0  0  0  0  0  0
  -23.9623    2.1772  -19.1445 C   0  0  0  0  0  0  0  0  0  0  0  0
  -24.3310    0.8785  -18.4293 C   0  0  0  0  0  0  0  0  0  0  0  0
  -23.4323    3.1867  -18.1041 C   0  0  0  0  0  0  0  0  0  0  0  0
  -22.8561    1.9474  -20.2510 C   0  0  0  0  0  0  0  0  0  0  0  0
  -21.6523    0.9544  -20.1160 C   0  0  0  0  0  0  0  0  0  0  0  0
  -20.8599    1.0359  -21.4471 C   0  0  0  0  0  0  0  0  0  0  0  0
  -20.6728    1.2910  -18.9879 C   0  0  0  0  0  0  0  0  0  0  0  0
  -22.1211   -0.5067  -19.9710 C   0  0  0  0  0  0  0  0  0  0  0  0
 13 12  1  0
 13 14  1  0
 14 15  1  0
 15 16  1  0
 15 17  1  0
 17 18  1  0
 18 19  1  0
 19 20  2  0
 19  5  1  0
  5  6  2  0
  6  7  1  0
  7  8  1  0
  7  9  2  0
  9 10  1  0
 10 11  2  0
 11  1  1  0
  1  2  1  0
  2  3  2  0
  2 22  1  0
 22 23  1  0
 23 24  1  0
 24 25  1  0
 25 26  1  0
 25 27  1  0
 25 28  1  0
 28 29  1  0
 29 30  1  0
 29 31  1  0
 29 32  1  0
 32 33  1  0
 33 34  1  0
 33 35  1  0
 33 36  1  0
 18 21  1  0
 21 13  1  0
 11  5  1  0
  1  4  1  0
M  END
> <minimizedAffinity>
-6.97939

> <CNNscore>
0.7687508464

> <CNNaffinity>
6.6748566628

> <CNN_VS>
5.1313018799

> <CNNaffinity_variance>
0.0489644893

$$$$



 36 37  0  0  0  0  0  0  0  0999 V2000
  -25.4355    6.9515  -14.6222 N   0  0  0  0  0  0  0  0  0  0  0  0
  -26.2465    6.1032  -13.8903 C   0  0  0  0  0  0  0  0  0  0  0  0
  -25.9647    5.6022  -12.8083 O   0  0  0  0  0  0  0  0  0  0  0  0
  -25.7483    7.1781  -15.5277 H   0  0  0  0  0  0  0  0  0  0  0  0
  -24.1401    8.9247  -14.0175 C   0  0  0  0  0  0  0  0  0  0  0  0
  -22.9759    9.5226  -13.5163 C   0  0  0  0  0  0  0  0  0  0  0  0
  -21.8565    8.7368  -13.2657 C   0  0  0  0  0  0  0  0  0  0  0  0
  -20.2759    9.5378  -12.6126 Br  0  0  0  0  0  0  0  0  0  0  0  0
  -21.8933    7.3653  -13.5007 C   0  0  0  0  0  0  0  0  0  0  0  0
  -23.0640    6.7659  -13.9765 C   0  0  0  0  0  0  0  0  0  0  0  0
  -24.2093    7.5315  -14.2218 C   0  0  0  0  0  0  0  0  0  0  0  0
  -27.1937    9.5372   -9.6960 C   0  0  0  0  0  0  0  0  0  0  0  0
  -27.3435   10.0378  -11.1302 C   0  0  0  0  0  0  0  0  0  0  0  0
  -28.6888    9.6198  -11.7258 C   0  0  0  0  0  0  0  0  0  0  0  0
  -28.8553   10.1123  -13.1754 C   0  0  0  0  0  0  0  0  0  0  0  0
  -29.4978    9.0231  -14.0404 C   0  0  0  0  0  0  0  0  0  0  0  0
  -27.5460   10.6150  -13.8037 C   0  0  0  0  0  0  0  0  0  0  0  0
  -26.3895    9.8037  -13.4396 N   0  0  0  0  0  0  0  0  0  0  0  0
  -25.3111    9.7822  -14.3290 C   0  0  0  0  0  0  0  0  0  0  0  0
  -25.2542   10.4718  -15.3460 O   0  0  0  0  0  0  0  0  0  0  0  0
  -26.2144    9.4948  -12.0150 C   0  0  0  0  0  0  0  0  0  0  0  0
  -27.5758    5.8577  -14.5953 C   0  0  0  0  0  0  0  0  0  0  0  0
  -28.4574    4.8006  -13.9272 C   0  0  0  0  0  0  0  0  0  0  0  0
  -29.8038    5.2881  -13.3635 C   0  0  0  0  0  0  0  0  0  0  0  0
  -30.0243    5.2887  -11.8157 C   0  0  0  0  0  0  0  0  0  0  0  0
  -31.3930    5.8609  -11.4244 C   0  0  0  0  0  0  0  0  0  0  0  0
  -28.9544    6.2034  -11.1639 C   0  0  0  0  0  0  0  0  0  0  0  0
  -29.7732    3.8412  -11.2383 C   0  0  0  0  0  0  0  0  0  0  0  0
  -30.4845    3.2356   -9.9563 C   0  0  0  0  0  0  0  0  0  0  0  0
  -30.6496    4.2630   -8.8377 C   0  0  0  0  0  0  0  0  0  0  0  0
  -29.6518    2.0493   -9.4255 C   0  0  0  0  0  0  0  0  0  0  0  0
  -31.8788    2.6974  -10.4731 C   0  0  0  0  0  0  0  0  0  0  0  0
  -32.8331    1.7630   -9.6547 C   0  0  0  0  0  0  0  0  0  0  0  0
  -32.7058    0.3472  -10.2756 C   0  0  0  0  0  0  0  0  0  0  0  0
  -32.4806    1.6364   -8.1697 C   0  0  0  0  0  0  0  0  0  0  0  0
  -34.3110    2.1763   -9.7990 C   0  0  0  0  0  0  0  0  0  0  0  0
 13 12  1  0
 13 14  1  0
 14 15  1  0
 15 16  1  0
 15 17  1  0
 17 18  1  0
 18 19  1  0
 19 20  2  0
 19  5  1  0
  5  6  2  0
  6  7  1  0
  7  8  1  0
  7  9  2  0
  9 10  1  0
 10 11  2  0
 11  1  1  0
  1  2  1  0
  2  3  2  0
  2 22  1  0
 22 23  1  0
 23 24  1  0
 24 25  1  0
 25 26  1  0
 25 27  1  0
 25 28  1  0
 28 29  1  0
 29 30  1  0
 29 31  1  0
 29 32  1  0
 32 33  1  0
 33 34  1  0
 33 35  1  0
 33 36  1  0
 18 21  1  0
 21 13  1  0
 11  5  1  0
  1  4  1  0
M  END
> <minimizedAffinity>
-5.97246

> <CNNscore>
0.7400925159

> <CNNaffinity>
7.0063171387

> <CNN_VS>
5.1853227615

> <CNNaffinity_variance>
0.0374483876

$$$$



 36 37  0  0  0  0  0  0  0  0999 V2000
  -25.0014    5.9446  -15.1336 N   0  0  0  0  0  0  0  0  0  0  0  0
  -25.6208    6.1171  -16.3582 C   0  0  0  0  0  0  0  0  0  0  0  0
  -25.4726    7.0771  -17.1049 O   0  0  0  0  0  0  0  0  0  0  0  0
  -25.3103    5.1813  -14.5940 H   0  0  0  0  0  0  0  0  0  0  0  0
  -24.1931    7.3522  -13.3164 C   0  0  0  0  0  0  0  0  0  0  0  0
  -23.1658    8.0534  -12.6706 C   0  0  0  0  0  0  0  0  0  0  0  0
  -21.9308    8.1870  -13.2953 C   0  0  0  0  0  0  0  0  0  0  0  0
  -20.5482    9.1505  -12.4428 Br  0  0  0  0  0  0  0  0  0  0  0  0
  -21.7115    7.6207  -14.5479 C   0  0  0  0  0  0  0  0  0  0  0  0
  -22.7294    6.8993  -15.1799 C   0  0  0  0  0  0  0  0  0  0  0  0
  -23.9762    6.7365  -14.5660 C   0  0  0  0  0  0  0  0  0  0  0  0
  -27.0293   11.7638  -14.2487 C   0  0  0  0  0  0  0  0  0  0  0  0
  -27.3300   10.5120  -13.4287 C   0  0  0  0  0  0  0  0  0  0  0  0
  -27.6998   10.8684  -11.9880 C   0  0  0  0  0  0  0  0  0  0  0  0
  -28.0018    9.6163  -11.1439 C   0  0  0  0  0  0  0  0  0  0  0  0
  -27.3886    9.7521   -9.7464 C   0  0  0  0  0  0  0  0  0  0  0  0
  -27.5605    8.3062  -11.8152 C   0  0  0  0  0  0  0  0  0  0  0  0
  -26.2839    8.4233  -12.5116 N   0  0  0  0  0  0  0  0  0  0  0  0
  -25.5221    7.2606  -12.6615 C   0  0  0  0  0  0  0  0  0  0  0  0
  -25.9089    6.1449  -12.3175 O   0  0  0  0  0  0  0  0  0  0  0  0
  -26.1209    9.5683  -13.4159 C   0  0  0  0  0  0  0  0  0  0  0  0
  -26.5313    4.9409  -16.6925 C   0  0  0  0  0  0  0  0  0  0  0  0
  -26.1114    4.1524  -17.9347 C   0  0  0  0  0  0  0  0  0  0  0  0
  -25.5126    2.7561  -17.6897 C   0  0  0  0  0  0  0  0  0  0  0  0
  -24.4839    2.1794  -18.7162 C   0  0  0  0  0  0  0  0  0  0  0  0
  -24.8862    2.4712  -20.1677 C   0  0  0  0  0  0  0  0  0  0  0  0
  -24.4455    0.6362  -18.5644 C   0  0  0  0  0  0  0  0  0  0  0  0
  -23.0323    2.6900  -18.3642 C   0  0  0  0  0  0  0  0  0  0  0  0
  -21.6850    2.0413  -18.8934 C   0  0  0  0  0  0  0  0  0  0  0  0
  -21.3869    0.6936  -18.2385 C   0  0  0  0  0  0  0  0  0  0  0  0
  -20.5119    3.0038  -18.6109 C   0  0  0  0  0  0  0  0  0  0  0  0
  -21.8776    1.9072  -20.4573 C   0  0  0  0  0  0  0  0  0  0  0  0
  -21.1663    0.8388  -21.3552 C   0  0  0  0  0  0  0  0  0  0  0  0
  -21.4975   -0.5467  -20.7410 C   0  0  0  0  0  0  0  0  0  0  0  0
  -21.6426    0.8113  -22.8104 C   0  0  0  0  0  0  0  0  0  0  0  0
  -19.6320    0.9815  -21.3188 C   0  0  0  0  0  0  0  0  0  0  0  0
 13 12  1  0
 13 14  1  0
 14 15  1  0
 15 16  1  0
 15 17  1  0
 17 18  1  0
 18 19  1  0
 19 20  2  0
 19  5  1  0
  5  6  2  0
  6  7  1  0
  7  8  1  0
  7  9  2  0
  9 10  1  0
 10 11  2  0
 11  1  1  0
  1  2  1  0
  2  3  2  0
  2 22  1  0
 22 23  1  0
 23 24  1  0
 24 25  1  0
 25 26  1  0
 25 27  1  0
 25 28  1  0
 28 29  1  0
 29 30  1  0
 29 31  1  0
 29 32  1  0
 32 33  1  0
 33 34  1  0
 33 35  1  0
 33 36  1  0
 18 21  1  0
 21 13  1  0
 11  5  1  0
  1  4  1  0
M  END
> <minimizedAffinity>
-7.21742

> <CNNscore>
0.7357187867

> <CNNaffinity>
7.1076941490

> <CNN_VS>
5.2292642593

> <CNNaffinity_variance>
0.0049540312

$$$$



 36 37  0  0  0  0  0  0  0  0999 V2000
  -25.7004    7.4539  -14.8949 N   0  0  0  0  0  0  0  0  0  0  0  0
  -26.7054    6.7953  -14.2099 C   0  0  0  0  0  0  0  0  0  0  0  0
  -26.6144    6.3320  -13.0793 O   0  0  0  0  0  0  0  0  0  0  0  0
  -25.8834    7.6638  -15.8392 H   0  0  0  0  0  0  0  0  0  0  0  0
  -24.2476    9.2082  -14.0296 C   0  0  0  0  0  0  0  0  0  0  0  0
  -23.0516    9.6277  -13.4317 C   0  0  0  0  0  0  0  0  0  0  0  0
  -22.0216    8.7123  -13.2458 C   0  0  0  0  0  0  0  0  0  0  0  0
  -20.3977    9.2743  -12.4625 Br  0  0  0  0  0  0  0  0  0  0  0  0
  -22.1792    7.3868  -13.6409 C   0  0  0  0  0  0  0  0  0  0  0  0
  -23.3828    6.9637  -14.2139 C   0  0  0  0  0  0  0  0  0  0  0  0
  -24.4406    7.8610  -14.3975 C   0  0  0  0  0  0  0  0  0  0  0  0
  -27.2710    9.7630   -9.6791 C   0  0  0  0  0  0  0  0  0  0  0  0
  -27.3515   10.3976  -11.0651 C   0  0  0  0  0  0  0  0  0  0  0  0
  -28.7260   10.1746  -11.6980 C   0  0  0  0  0  0  0  0  0  0  0  0
  -28.8238   10.8041  -13.1000 C   0  0  0  0  0  0  0  0  0  0  0  0
  -29.5657    9.8660  -14.0575 C   0  0  0  0  0  0  0  0  0  0  0  0
  -27.4623   11.2197  -13.6792 C   0  0  0  0  0  0  0  0  0  0  0  0
  -26.4003   10.2641  -13.3836 N   0  0  0  0  0  0  0  0  0  0  0  0
  -25.3198   10.2066  -14.2688 C   0  0  0  0  0  0  0  0  0  0  0  0
  -25.1801   10.9711  -15.2223 O   0  0  0  0  0  0  0  0  0  0  0  0
  -26.2746    9.8177  -11.9906 C   0  0  0  0  0  0  0  0  0  0  0  0
  -27.9826    6.7129  -15.0382 C   0  0  0  0  0  0  0  0  0  0  0  0
  -28.9584    5.6250  -14.5848 C   0  0  0  0  0  0  0  0  0  0  0  0
  -30.4115    5.7615  -15.0727 C   0  0  0  0  0  0  0  0  0  0  0  0
  -31.5154    6.2047  -14.0583 C   0  0  0  0  0  0  0  0  0  0  0  0
  -32.6321    5.1613  -13.9228 C   0  0  0  0  0  0  0  0  0  0  0  0
  -32.1790    7.5039  -14.5854 C   0  0  0  0  0  0  0  0  0  0  0  0
  -30.8527    6.5814  -12.6760 C   0  0  0  0  0  0  0  0  0  0  0  0
  -31.6080    6.6112  -11.2815 C   0  0  0  0  0  0  0  0  0  0  0  0
  -33.0749    7.0155  -11.4182 C   0  0  0  0  0  0  0  0  0  0  0  0
  -30.9005    7.6100  -10.3412 C   0  0  0  0  0  0  0  0  0  0  0  0
  -31.4511    5.1507  -10.6955 C   0  0  0  0  0  0  0  0  0  0  0  0
  -30.1604    4.2724  -10.8231 C   0  0  0  0  0  0  0  0  0  0  0  0
  -30.0793    3.4151   -9.5328 C   0  0  0  0  0  0  0  0  0  0  0  0
  -30.1649    3.3025  -12.0082 C   0  0  0  0  0  0  0  0  0  0  0  0
  -28.8796    5.1289  -10.8643 C   0  0  0  0  0  0  0  0  0  0  0  0
 13 12  1  0
 13 14  1  0
 14 15  1  0
 15 16  1  0
 15 17  1  0
 17 18  1  0
 18 19  1  0
 19 20  2  0
 19  5  1  0
  5  6  2  0
  6  7  1  0
  7  8  1  0
  7  9  2  0
  9 10  1  0
 10 11  2  0
 11  1  1  0
  1  2  1  0
  2  3  2  0
  2 22  1  0
 22 23  1  0
 23 24  1  0
 24 25  1  0
 25 26  1  0
 25 27  1  0
 25 28  1  0
 28 29  1  0
 29 30  1  0
 29 31  1  0
 29 32  1  0
 32 33  1  0
 33 34  1  0
 33 35  1  0
 33 36  1  0
 18 21  1  0
 21 13  1  0
 11  5  1  0
  1  4  1  0
M  END
> <minimizedAffinity>
-5.69276

> <CNNscore>
0.5918886662

> <CNNaffinity>
6.6412086487

> <CNN_VS>
3.9308562279

> <CNNaffinity_variance>
0.0088781239

$$$$



 36 37  0  0  0  0  0  0  0  0999 V2000
  -26.1535    6.6108  -13.9202 N   0  0  0  0  0  0  0  0  0  0  0  0
  -26.9171    5.9600  -12.9683 C   0  0  0  0  0  0  0  0  0  0  0  0
  -26.5507    5.6669  -11.8365 O   0  0  0  0  0  0  0  0  0  0  0  0
  -26.5423    6.6709  -14.8227 H   0  0  0  0  0  0  0  0  0  0  0  0
  -24.7520    8.6020  -13.8291 C   0  0  0  0  0  0  0  0  0  0  0  0
  -23.5297    9.2313  -13.5574 C   0  0  0  0  0  0  0  0  0  0  0  0
  -22.4144    8.4582  -13.2545 C   0  0  0  0  0  0  0  0  0  0  0  0
  -20.7576    9.2968  -12.9102 Br  0  0  0  0  0  0  0  0  0  0  0  0
  -22.5118    7.0703  -13.2111 C   0  0  0  0  0  0  0  0  0  0  0  0
  -23.7382    6.4447  -13.4572 C   0  0  0  0  0  0  0  0  0  0  0  0
  -24.8793    7.2002  -13.7487 C   0  0  0  0  0  0  0  0  0  0  0  0
  -27.4141   10.1143   -9.4700 C   0  0  0  0  0  0  0  0  0  0  0  0
  -27.6709   10.3517  -10.9558 C   0  0  0  0  0  0  0  0  0  0  0  0
  -29.0721    9.8882  -11.3574 C   0  0  0  0  0  0  0  0  0  0  0  0
  -29.3470   10.1156  -12.8555 C   0  0  0  0  0  0  0  0  0  0  0  0
  -30.0882    8.9148  -13.4521 C   0  0  0  0  0  0  0  0  0  0  0  0
  -28.0825   10.4416  -13.6658 C   0  0  0  0  0  0  0  0  0  0  0  0
  -26.9210    9.6631  -13.2497 N   0  0  0  0  0  0  0  0  0  0  0  0
  -25.9222    9.4361  -14.2011 C   0  0  0  0  0  0  0  0  0  0  0  0
  -25.9332    9.9266  -15.3291 O   0  0  0  0  0  0  0  0  0  0  0  0
  -26.6348    9.6111  -11.8106 C   0  0  0  0  0  0  0  0  0  0  0  0
  -28.3125    5.6437  -13.4946 C   0  0  0  0  0  0  0  0  0  0  0  0
  -28.7297    4.1804  -13.3341 C   0  0  0  0  0  0  0  0  0  0  0  0
  -30.1160    3.7990  -13.8827 C   0  0  0  0  0  0  0  0  0  0  0  0
  -31.2210    3.3169  -12.8874 C   0  0  0  0  0  0  0  0  0  0  0  0
  -31.1928    1.7969  -12.6803 C   0  0  0  0  0  0  0  0  0  0  0  0
  -32.6102    3.6608  -13.4859 C   0  0  0  0  0  0  0  0  0  0  0  0
  -31.1145    4.1254  -11.5359 C   0  0  0  0  0  0  0  0  0  0  0  0
  -31.0787    3.4789  -10.0878 C   0  0  0  0  0  0  0  0  0  0  0  0
  -29.8410    2.6118   -9.8637 C   0  0  0  0  0  0  0  0  0  0  0  0
  -32.3392    2.6110   -9.8871 C   0  0  0  0  0  0  0  0  0  0  0  0
  -31.1300    4.7029   -9.0877 C   0  0  0  0  0  0  0  0  0  0  0  0
  -31.8608    6.0585   -9.3738 C   0  0  0  0  0  0  0  0  0  0  0  0
  -32.0792    6.7423   -7.9987 C   0  0  0  0  0  0  0  0  0  0  0  0
  -31.0673    7.0385  -10.2428 C   0  0  0  0  0  0  0  0  0  0  0  0
  -33.2589    5.8439   -9.9862 C   0  0  0  0  0  0  0  0  0  0  0  0
 13 12  1  0
 13 14  1  0
 14 15  1  0
 15 16  1  0
 15 17  1  0
 17 18  1  0
 18 19  1  0
 19 20  2  0
 19  5  1  0
  5  6  2  0
  6  7  1  0
  7  8  1  0
  7  9  2  0
  9 10  1  0
 10 11  2  0
 11  1  1  0
  1  2  1  0
  2  3  2  0
  2 22  1  0
 22 23  1  0
 23 24  1  0
 24 25  1  0
 25 26  1  0
 25 27  1  0
 25 28  1  0
 28 29  1  0
 29 30  1  0
 29 31  1  0
 29 32  1  0
 32 33  1  0
 33 34  1  0
 33 35  1  0
 33 36  1  0
 18 21  1  0
 21 13  1  0
 11  5  1  0
  1  4  1  0
M  END
> <minimizedAffinity>
-5.74693

> <CNNscore>
0.5262131095

> <CNNaffinity>
6.5529823303

> <CNN_VS>
3.4482653141

> <CNNaffinity_variance>
0.1332123131

$$$$



 36 37  0  0  0  0  0  0  0  0999 V2000
  -26.5530    6.3697  -15.1566 N   0  0  0  0  0  0  0  0  0  0  0  0
  -27.4616    6.9294  -16.0364 C   0  0  0  0  0  0  0  0  0  0  0  0
  -27.3968    8.0581  -16.5084 O   0  0  0  0  0  0  0  0  0  0  0  0
  -26.8010    5.4983  -14.7714 H   0  0  0  0  0  0  0  0  0  0  0  0
  -25.1856    7.4434  -13.4494 C   0  0  0  0  0  0  0  0  0  0  0  0
  -23.9449    7.8809  -12.9664 C   0  0  0  0  0  0  0  0  0  0  0  0
  -22.8303    7.8282  -13.7961 C   0  0  0  0  0  0  0  0  0  0  0  0
  -21.1593    8.4378  -13.1613 Br  0  0  0  0  0  0  0  0  0  0  0  0
  -22.9421    7.3358  -15.0932 C   0  0  0  0  0  0  0  0  0  0  0  0
  -24.1755    6.8755  -15.5654 C   0  0  0  0  0  0  0  0  0  0  0  0
  -25.3091    6.9027  -14.7456 C   0  0  0  0  0  0  0  0  0  0  0  0
  -27.3939   12.2691  -13.9091 C   0  0  0  0  0  0  0  0  0  0  0  0
  -27.7445   11.0655  -13.0382 C   0  0  0  0  0  0  0  0  0  0  0  0
  -27.7955   11.4480  -11.5581 C   0  0  0  0  0  0  0  0  0  0  0  0
  -28.1431   10.2438  -10.6633 C   0  0  0  0  0  0  0  0  0  0  0  0
  -27.2821   10.2523   -9.3961 C   0  0  0  0  0  0  0  0  0  0  0  0
  -28.0420    8.8936  -11.3901 C   0  0  0  0  0  0  0  0  0  0  0  0
  -26.9043    8.8188  -12.3003 N   0  0  0  0  0  0  0  0  0  0  0  0
  -26.3773    7.5525  -12.5711 C   0  0  0  0  0  0  0  0  0  0  0  0
  -26.8725    6.5063  -12.1550 O   0  0  0  0  0  0  0  0  0  0  0  0
  -26.7194    9.9407  -13.2291 C   0  0  0  0  0  0  0  0  0  0  0  0
  -28.5847    5.9547  -16.3722 C   0  0  0  0  0  0  0  0  0  0  0  0
  -28.5076    5.3663  -17.7825 C   0  0  0  0  0  0  0  0  0  0  0  0
  -27.1005    5.0368  -18.3114 C   0  0  0  0  0  0  0  0  0  0  0  0
  -26.6141    3.5510  -18.3032 C   0  0  0  0  0  0  0  0  0  0  0  0
  -27.6572    2.5953  -18.8969 C   0  0  0  0  0  0  0  0  0  0  0  0
  -26.3909    3.1115  -16.8324 C   0  0  0  0  0  0  0  0  0  0  0  0
  -25.2068    3.4441  -19.0103 C   0  0  0  0  0  0  0  0  0  0  0  0
  -24.4657    2.0871  -19.3642 C   0  0  0  0  0  0  0  0  0  0  0  0
  -24.6249    1.6983  -20.8330 C   0  0  0  0  0  0  0  0  0  0  0  0
  -25.0328    0.9533  -18.4836 C   0  0  0  0  0  0  0  0  0  0  0  0
  -22.9513    2.3311  -18.9796 C   0  0  0  0  0  0  0  0  0  0  0  0
  -21.7662    1.3884  -19.3804 C   0  0  0  0  0  0  0  0  0  0  0  0
  -20.5198    1.8905  -18.6054 C   0  0  0  0  0  0  0  0  0  0  0  0
  -21.9676   -0.0824  -19.0043 C   0  0  0  0  0  0  0  0  0  0  0  0
  -21.4249    1.4937  -20.8797 C   0  0  0  0  0  0  0  0  0  0  0  0
 13 12  1  0
 13 14  1  0
 14 15  1  0
 15 16  1  0
 15 17  1  0
 17 18  1  0
 18 19  1  0
 19 20  2  0
 19  5  1  0
  5  6  2  0
  6  7  1  0
  7  8  1  0
  7  9  2  0
  9 10  1  0
 10 11  2  0
 11  1  1  0
  1  2  1  0
  2  3  2  0
  2 22  1  0
 22 23  1  0
 23 24  1  0
 24 25  1  0
 25 26  1  0
 25 27  1  0
 25 28  1  0
 28 29  1  0
 29 30  1  0
 29 31  1  0
 29 32  1  0
 32 33  1  0
 33 34  1  0
 33 35  1  0
 33 36  1  0
 18 21  1  0
 21 13  1  0
 11  5  1  0
  1  4  1  0
M  END
> <minimizedAffinity>
-6.02394

> <CNNscore>
0.4397851825

> <CNNaffinity>
6.3938751221

> <CNN_VS>
2.8119316101

> <CNNaffinity_variance>
0.1625475436

$$$$



 36 37  0  0  0  0  0  0  0  0999 V2000
  -26.2523    6.9672  -14.0061 N   0  0  0  0  0  0  0  0  0  0  0  0
  -27.0208    6.2519  -13.1057 C   0  0  0  0  0  0  0  0  0  0  0  0
  -26.6306    5.7951  -12.0379 O   0  0  0  0  0  0  0  0  0  0  0  0
  -26.6719    7.1658  -14.8742 H   0  0  0  0  0  0  0  0  0  0  0  0
  -24.6966    8.8360  -13.8498 C   0  0  0  0  0  0  0  0  0  0  0  0
  -23.4259    9.3551  -13.5668 C   0  0  0  0  0  0  0  0  0  0  0  0
  -22.3730    8.4844  -13.3089 C   0  0  0  0  0  0  0  0  0  0  0  0
  -20.6521    9.1745  -12.9499 Br  0  0  0  0  0  0  0  0  0  0  0  0
  -22.5798    7.1079  -13.3214 C   0  0  0  0  0  0  0  0  0  0  0  0
  -23.8540    6.5918  -13.5786 C   0  0  0  0  0  0  0  0  0  0  0  0
  -24.9340    7.4466  -13.8255 C   0  0  0  0  0  0  0  0  0  0  0  0
  -27.4253   10.0818   -9.4478 C   0  0  0  0  0  0  0  0  0  0  0  0
  -27.6114   10.4786  -10.9100 C   0  0  0  0  0  0  0  0  0  0  0  0
  -29.0218   10.1458  -11.3996 C   0  0  0  0  0  0  0  0  0  0  0  0
  -29.2262   10.5350  -12.8755 C   0  0  0  0  0  0  0  0  0  0  0  0
  -30.0150    9.4472  -13.6116 C   0  0  0  0  0  0  0  0  0  0  0  0
  -27.9149   10.8578  -13.6092 C   0  0  0  0  0  0  0  0  0  0  0  0
  -26.8185    9.9706  -13.2362 N   0  0  0  0  0  0  0  0  0  0  0  0
  -25.8001    9.7747  -14.1736 C   0  0  0  0  0  0  0  0  0  0  0  0
  -25.7393   10.3723  -15.2470 O   0  0  0  0  0  0  0  0  0  0  0  0
  -26.5901    9.7608  -11.8012 C   0  0  0  0  0  0  0  0  0  0  0  0
  -28.4550    6.0956  -13.5984 C   0  0  0  0  0  0  0  0  0  0  0  0
  -28.6111    6.1750  -15.1185 C   0  0  0  0  0  0  0  0  0  0  0  0
  -29.1071    4.9004  -15.8238 C   0  0  0  0  0  0  0  0  0  0  0  0
  -28.0628    3.9385  -16.4782 C   0  0  0  0  0  0  0  0  0  0  0  0
  -28.6098    3.2598  -17.7408 C   0  0  0  0  0  0  0  0  0  0  0  0
  -27.7323    2.8070  -15.4699 C   0  0  0  0  0  0  0  0  0  0  0  0
  -26.7086    4.7094  -16.7302 C   0  0  0  0  0  0  0  0  0  0  0  0
  -26.2395    5.2943  -18.1281 C   0  0  0  0  0  0  0  0  0  0  0  0
  -26.0604    4.2080  -19.1873 C   0  0  0  0  0  0  0  0  0  0  0  0
  -24.8995    6.0380  -17.9444 C   0  0  0  0  0  0  0  0  0  0  0  0
  -27.3568    6.3366  -18.5356 C   0  0  0  0  0  0  0  0  0  0  0  0
  -27.8582    6.5801  -19.9995 C   0  0  0  0  0  0  0  0  0  0  0  0
  -28.6496    7.9141  -19.9801 C   0  0  0  0  0  0  0  0  0  0  0  0
  -26.7426    6.7337  -21.0372 C   0  0  0  0  0  0  0  0  0  0  0  0
  -28.8442    5.4894  -20.4621 C   0  0  0  0  0  0  0  0  0  0  0  0
 13 12  1  0
 13 14  1  0
 14 15  1  0
 15 16  1  0
 15 17  1  0
 17 18  1  0
 18 19  1  0
 19 20  2  0
 19  5  1  0
  5  6  2  0
  6  7  1  0
  7  8  1  0
  7  9  2  0
  9 10  1  0
 10 11  2  0
 11  1  1  0
  1  2  1  0
  2  3  2  0
  2 22  1  0
 22 23  1  0
 23 24  1  0
 24 25  1  0
 25 26  1  0
 25 27  1  0
 25 28  1  0
 28 29  1  0
 29 30  1  0
 29 31  1  0
 29 32  1  0
 32 33  1  0
 33 34  1  0
 33 35  1  0
 33 36  1  0
 18 21  1  0
 21 13  1  0
 11  5  1  0
  1  4  1  0
M  END
> <minimizedAffinity>
-5.90820

> <CNNscore>
0.3888496757

> <CNNaffinity>
6.5628123283

> <CNN_VS>
2.5519473553

> <CNNaffinity_variance>
0.1289327443

$$$$



 36 37  0  0  0  0  0  0  0  0999 V2000
  -26.0041    7.4281  -14.4099 N   0  0  0  0  0  0  0  0  0  0  0  0
  -26.4355    6.7821  -15.5542 C   0  0  0  0  0  0  0  0  0  0  0  0
  -25.7539    6.5551  -16.5467 O   0  0  0  0  0  0  0  0  0  0  0  0
  -26.6973    7.6435  -13.7448 H   0  0  0  0  0  0  0  0  0  0  0  0
  -24.3852    9.1848  -13.9300 C   0  0  0  0  0  0  0  0  0  0  0  0
  -23.1181    9.6024  -13.5009 C   0  0  0  0  0  0  0  0  0  0  0  0
  -22.1262    8.6551  -13.2728 C   0  0  0  0  0  0  0  0  0  0  0  0
  -20.4089    9.2108  -12.7172 Br  0  0  0  0  0  0  0  0  0  0  0  0
  -22.3908    7.3013  -13.4592 C   0  0  0  0  0  0  0  0  0  0  0  0
  -23.6632    6.8839  -13.8627 C   0  0  0  0  0  0  0  0  0  0  0  0
  -24.6836    7.8155  -14.0835 C   0  0  0  0  0  0  0  0  0  0  0  0
  -27.3883   10.0577   -9.6179 C   0  0  0  0  0  0  0  0  0  0  0  0
  -27.4446   10.6279  -11.0327 C   0  0  0  0  0  0  0  0  0  0  0  0
  -28.8260   10.4259  -11.6575 C   0  0  0  0  0  0  0  0  0  0  0  0
  -28.8997   10.9911  -13.0881 C   0  0  0  0  0  0  0  0  0  0  0  0
  -29.6753   10.0364  -14.0015 C   0  0  0  0  0  0  0  0  0  0  0  0
  -27.5235   11.3280  -13.6832 C   0  0  0  0  0  0  0  0  0  0  0  0
  -26.4977   10.3490  -13.3400 N   0  0  0  0  0  0  0  0  0  0  0  0
  -25.4196   10.2096  -14.2190 C   0  0  0  0  0  0  0  0  0  0  0  0
  -25.2511   10.9220  -15.2074 O   0  0  0  0  0  0  0  0  0  0  0  0
  -26.3894    9.9652  -11.9271 C   0  0  0  0  0  0  0  0  0  0  0  0
  -27.8967    6.3625  -15.4397 C   0  0  0  0  0  0  0  0  0  0  0  0
  -28.5247    6.6341  -14.0712 C   0  0  0  0  0  0  0  0  0  0  0  0
  -28.4238    5.5017  -13.0341 C   0  0  0  0  0  0  0  0  0  0  0  0
  -28.2143    5.8664  -11.5283 C   0  0  0  0  0  0  0  0  0  0  0  0
  -26.7347    6.0795  -11.1829 C   0  0  0  0  0  0  0  0  0  0  0  0
  -28.7104    4.6816  -10.6586 C   0  0  0  0  0  0  0  0  0  0  0  0
  -29.1209    7.1004  -11.1449 C   0  0  0  0  0  0  0  0  0  0  0  0
  -30.6871    7.0396  -10.9014 C   0  0  0  0  0  0  0  0  0  0  0  0
  -31.1572    5.6567  -10.4535 C   0  0  0  0  0  0  0  0  0  0  0  0
  -31.4197    7.4174  -12.2064 C   0  0  0  0  0  0  0  0  0  0  0  0
  -30.9783    8.1441   -9.8077 C   0  0  0  0  0  0  0  0  0  0  0  0
  -32.4071    8.5619   -9.3202 C   0  0  0  0  0  0  0  0  0  0  0  0
  -32.6602    9.9918   -9.8656 C   0  0  0  0  0  0  0  0  0  0  0  0
  -33.5418    7.6745   -9.8401 C   0  0  0  0  0  0  0  0  0  0  0  0
  -32.4899    8.6551   -7.7839 C   0  0  0  0  0  0  0  0  0  0  0  0
 13 12  1  0
 13 14  1  0
 14 15  1  0
 15 16  1  0
 15 17  1  0
 17 18  1  0
 18 19  1  0
 19 20  2  0
 19  5  1  0
  5  6  2  0
  6  7  1  0
  7  8  1  0
  7  9  2  0
  9 10  1  0
 10 11  2  0
 11  1  1  0
  1  2  1  0
  2  3  2  0
  2 22  1  0
 22 23  1  0
 23 24  1  0
 24 25  1  0
 25 26  1  0
 25 27  1  0
 25 28  1  0
 28 29  1  0
 29 30  1  0
 29 31  1  0
 29 32  1  0
 32 33  1  0
 33 34  1  0
 33 35  1  0
 33 36  1  0
 18 21  1  0
 21 13  1  0
 11  5  1  0
  1  4  1  0
M  END
> <minimizedAffinity>
-6.32782

> <CNNscore>
0.2746742964

> <CNNaffinity>
6.4151701927

> <CNN_VS>
1.7620823383

> <CNNaffinity_variance>
0.1866554767

$$$$



 36 37  0  0  0  0  0  0  0  0999 V2000
  -27.1627    6.5097  -12.6420 N   0  0  0  0  0  0  0  0  0  0  0  0
  -27.6022    5.8666  -11.4991 C   0  0  0  0  0  0  0  0  0  0  0  0
  -26.8962    5.5108  -10.5631 O   0  0  0  0  0  0  0  0  0  0  0  0
  -27.8277    6.6256  -13.3586 H   0  0  0  0  0  0  0  0  0  0  0  0
  -25.6432    8.4081  -12.7985 C   0  0  0  0  0  0  0  0  0  0  0  0
  -24.3547    8.9406  -12.9404 C   0  0  0  0  0  0  0  0  0  0  0  0
  -23.2931    8.0933  -13.2380 C   0  0  0  0  0  0  0  0  0  0  0  0
  -21.5574    8.8054  -13.4544 Br  0  0  0  0  0  0  0  0  0  0  0  0
  -23.5050    6.7253  -13.3842 C   0  0  0  0  0  0  0  0  0  0  0  0
  -24.7870    6.1919  -13.2169 C   0  0  0  0  0  0  0  0  0  0  0  0
  -25.8696    7.0204  -12.9016 C   0  0  0  0  0  0  0  0  0  0  0  0
  -28.4411    9.2495  -17.2527 C   0  0  0  0  0  0  0  0  0  0  0  0
  -28.5836    9.8051  -15.8381 C   0  0  0  0  0  0  0  0  0  0  0  0
  -28.5776   11.3347  -15.8400 C   0  0  0  0  0  0  0  0  0  0  0  0
  -28.7155   11.9132  -14.4194 C   0  0  0  0  0  0  0  0  0  0  0  0
  -27.7761   13.1094  -14.2351 C   0  0  0  0  0  0  0  0  0  0  0  0
  -28.5036   10.8693  -13.3117 C   0  0  0  0  0  0  0  0  0  0  0  0
  -27.4309    9.9274  -13.6122 N   0  0  0  0  0  0  0  0  0  0  0  0
  -26.7758    9.3298  -12.5314 C   0  0  0  0  0  0  0  0  0  0  0  0
  -27.1120    9.4901  -11.3592 O   0  0  0  0  0  0  0  0  0  0  0  0
  -27.4466    9.3015  -14.9402 C   0  0  0  0  0  0  0  0  0  0  0  0
  -29.1108    5.6487  -11.5279 C   0  0  0  0  0  0  0  0  0  0  0  0
  -29.5497    4.2310  -11.1554 C   0  0  0  0  0  0  0  0  0  0  0  0
  -29.6264    3.9102   -9.6523 C   0  0  0  0  0  0  0  0  0  0  0  0
  -31.0254    3.8586   -8.9565 C   0  0  0  0  0  0  0  0  0  0  0  0
  -31.9000    5.0654   -9.3207 C   0  0  0  0  0  0  0  0  0  0  0  0
  -30.8160    3.9057   -7.4202 C   0  0  0  0  0  0  0  0  0  0  0  0
  -31.7244    2.4763   -9.2607 C   0  0  0  0  0  0  0  0  0  0  0  0
  -31.0908    1.0515   -8.9699 C   0  0  0  0  0  0  0  0  0  0  0  0
  -29.5655    1.0601   -9.0549 C   0  0  0  0  0  0  0  0  0  0  0  0
  -31.6418    0.0322   -9.9897 C   0  0  0  0  0  0  0  0  0  0  0  0
  -31.5986    0.6610   -7.5240 C   0  0  0  0  0  0  0  0  0  0  0  0
  -30.9873   -0.4800   -6.6419 C   0  0  0  0  0  0  0  0  0  0  0  0
  -31.8269   -0.5297   -5.3385 C   0  0  0  0  0  0  0  0  0  0  0  0
  -31.0507   -1.8746   -7.2715 C   0  0  0  0  0  0  0  0  0  0  0  0
  -29.5372   -0.1714   -6.2205 C   0  0  0  0  0  0  0  0  0  0  0  0
 13 12  1  0
 13 14  1  0
 14 15  1  0
 15 16  1  0
 15 17  1  0
 17 18  1  0
 18 19  1  0
 19 20  2  0
 19  5  1  0
  5  6  2  0
  6  7  1  0
  7  8  1  0
  7  9  2  0
  9 10  1  0
 10 11  2  0
 11  1  1  0
  1  2  1  0
  2  3  2  0
  2 22  1  0
 22 23  1  0
 23 24  1  0
 24 25  1  0
 25 26  1  0
 25 27  1  0
 25 28  1  0
 28 29  1  0
 29 30  1  0
 29 31  1  0
 29 32  1  0
 32 33  1  0
 33 34  1  0
 33 35  1  0
 33 36  1  0
 18 21  1  0
 21 13  1  0
 11  5  1  0
  1  4  1  0
M  END
> <minimizedAffinity>
-5.86686

> <CNNscore>
0.2642433345

> <CNNaffinity>
5.7663722038

> <CNN_VS>
1.5237253904

> <CNNaffinity_variance>
0.4255244732

$$$$
