


 54 59  0  0  0  0  0  0  0  0999 V2000
   12.9415   23.7051    4.6232 C   0  0  0  0  0  0  0  0  0  0  0  0
   11.7428   22.6168    6.3778 C   0  0  0  0  0  0  0  0  0  0  0  0
   12.2172   22.5171    5.0411 O   0  0  0  0  0  0  0  0  0  0  0  0
   11.9040   24.7595    4.1862 C   0  0  0  0  0  0  0  0  0  0  0  0
   10.6069   24.5977    4.9955 C   0  0  0  0  0  0  0  0  0  0  0  0
   10.0534   23.5043    5.0995 O   0  0  0  0  0  0  0  0  0  0  0  0
   10.1485   25.7564    5.5617 N   0  0  0  0  0  0  0  0  0  0  0  0
   10.6668   26.5812    5.4187 H   0  0  0  0  0  0  0  0  0  0  0  0
    8.9431   25.8353    6.3595 C   0  0  0  0  0  0  0  0  0  0  0  0
    9.2328   26.3995    7.7260 C   0  0  0  0  0  0  0  0  0  0  0  0
    9.7979   25.7541    8.8155 C   0  0  0  0  0  0  0  0  0  0  0  0
   10.0198   26.4849    9.9847 C   0  0  0  0  0  0  0  0  0  0  0  0
    9.6790   27.8439   10.0529 C   0  0  0  0  0  0  0  0  0  0  0  0
    9.1119   28.4905    8.9535 C   0  0  0  0  0  0  0  0  0  0  0  0
    8.8880   27.7545    7.8013 C   0  0  0  0  0  0  0  0  0  0  0  0
    8.3238   28.2352    6.5040 C   0  0  0  0  0  0  0  0  0  0  0  0
    7.9553   26.9088    5.8097 C   0  0  0  0  0  0  0  0  0  0  0  0
    8.0391   27.0306    4.3898 O   0  0  0  0  0  0  0  0  0  0  0  0
    8.9413   27.2842    4.1397 H   0  0  0  0  0  0  0  0  0  0  0  0
   11.7072   24.6502    2.7701 O   0  0  0  0  0  0  0  0  0  0  0  0
   10.8053   23.6007    2.4174 C   0  0  0  0  0  0  0  0  0  0  0  0
    9.4691   24.2055    2.0776 C   0  0  0  0  0  0  0  0  0  0  0  0
    9.3856   25.4987    1.5436 C   0  0  0  0  0  0  0  0  0  0  0  0
    8.1454   26.0456    1.2096 C   0  0  0  0  0  0  0  0  0  0  0  0
    6.9795   25.3064    1.4058 C   0  0  0  0  0  0  0  0  0  0  0  0
    7.0506   24.0191    1.9351 C   0  0  0  0  0  0  0  0  0  0  0  0
    8.2893   23.4714    2.2691 C   0  0  0  0  0  0  0  0  0  0  0  0
   13.8775   24.1270    5.7932 C   0  0  0  0  0  0  0  0  0  0  0  0
   13.0863   23.9784    7.0001 O   0  0  0  0  0  0  0  0  0  0  0  0
   12.8737   25.1860    7.7195 C   0  0  0  0  0  0  0  0  0  0  0  0
   15.2205   23.3428    5.8598 C   0  0  0  0  0  0  0  0  0  0  0  0
   14.9589   21.8205    5.8620 C   0  0  0  0  0  0  0  0  0  0  0  0
   14.1187   21.2672    6.5686 O   0  0  0  0  0  0  0  0  0  0  0  0
   15.7629   21.1129    4.9924 N   0  0  0  0  0  0  0  0  0  0  0  0
   16.4642   21.5927    4.4952 H   0  0  0  0  0  0  0  0  0  0  0  0
   15.6087   19.6835    4.7863 C   0  0  0  0  0  0  0  0  0  0  0  0
   15.6354   19.3890    3.3131 C   0  0  0  0  0  0  0  0  0  0  0  0
   14.6313   19.6273    2.3867 C   0  0  0  0  0  0  0  0  0  0  0  0
   14.8770   19.3209    1.0474 C   0  0  0  0  0  0  0  0  0  0  0  0
   16.1146   18.7897    0.6527 C   0  0  0  0  0  0  0  0  0  0  0  0
   17.1246   18.5611    1.5905 C   0  0  0  0  0  0  0  0  0  0  0  0
   16.8690   18.8627    2.9177 C   0  0  0  0  0  0  0  0  0  0  0  0
   17.8014   18.7478    4.0791 C   0  0  0  0  0  0  0  0  0  0  0  0
   16.8426   18.8642    5.2859 C   0  0  0  0  0  0  0  0  0  0  0  0
   17.5384   19.4834    6.3760 O   0  0  0  0  0  0  0  0  0  0  0  0
   18.8502   19.9032    6.0092 C   0  0  0  0  0  0  0  0  0  0  0  0
   15.9861   23.6985    7.0189 O   0  0  0  0  0  0  0  0  0  0  0  0
   15.4748   23.1311    8.2257 C   0  0  0  0  0  0  0  0  0  0  0  0
   16.4786   22.1595    8.7918 C   0  0  0  0  0  0  0  0  0  0  0  0
   16.0622   21.0111    9.4819 C   0  0  0  0  0  0  0  0  0  0  0  0
   16.9972   20.0941    9.9648 C   0  0  0  0  0  0  0  0  0  0  0  0
   18.3587   20.3133    9.7634 C   0  0  0  0  0  0  0  0  0  0  0  0
   18.7861   21.4475    9.0751 C   0  0  0  0  0  0  0  0  0  0  0  0
   17.8518   22.3615    8.5844 C   0  0  0  0  0  0  0  0  0  0  0  0
  2  3  1  0
  1  3  1  0
  1 28  1  0
 28 29  1  0
 29 30  1  0
 28 31  1  0
 31 47  1  0
 47 48  1  0
 48 49  1  0
 49 50  2  0
 50 51  1  0
 51 52  2  0
 52 53  1  0
 53 54  2  0
 31 32  1  0
 32 33  2  0
 32 34  1  0
 36 34  1  0
 36 37  1  0
 37 38  2  0
 38 39  1  0
 39 40  2  0
 40 41  1  0
 41 42  2  0
 42 43  1  0
 43 44  1  0
 44 45  1  0
 45 46  1  0
  1  4  1  0
  4 20  1  0
 20 21  1  0
 21 22  1  0
 22 23  2  0
 23 24  1  0
 24 25  2  0
 25 26  1  0
 26 27  2  0
  4  5  1  0
  5  6  2  0
  5  7  1  0
  9  7  1  0
  9 10  1  0
 10 11  2  0
 11 12  1  0
 12 13  2  0
 13 14  1  0
 14 15  2  0
 15 16  1  0
 16 17  1  0
 17 18  1  0
 54 49  1  0
 44 36  1  0
 27 22  1  0
 17  9  1  0
 42 37  1  0
 15 10  1  0
 34 35  1  0
  7  8  1  0
 18 19  1  0
M  END
> <minimizedAffinity>
-10.17310

> <CNNscore>
0.7117829919

> <CNNaffinity>
9.4693660736

> <CNN_VS>
6.7401337624

> <CNNaffinity_variance>
0.0187056568

$$$$



 54 59  0  0  0  0  0  0  0  0999 V2000
   12.7508   23.9841    7.1157 C   0  0  0  0  0  0  0  0  0  0  0  0
   12.8860   25.7154    5.4774 C   0  0  0  0  0  0  0  0  0  0  0  0
   13.1295   25.3576    6.8318 O   0  0  0  0  0  0  0  0  0  0  0  0
   11.2414   23.8434    6.8311 C   0  0  0  0  0  0  0  0  0  0  0  0
   11.0172   23.1658    5.4694 C   0  0  0  0  0  0  0  0  0  0  0  0
   11.3276   21.9902    5.2843 O   0  0  0  0  0  0  0  0  0  0  0  0
   10.4616   23.9804    4.5201 N   0  0  0  0  0  0  0  0  0  0  0  0
   10.2488   24.9086    4.7700 H   0  0  0  0  0  0  0  0  0  0  0  0
   10.1700   23.5515    3.1686 C   0  0  0  0  0  0  0  0  0  0  0  0
    8.7425   23.8586    2.7979 C   0  0  0  0  0  0  0  0  0  0  0  0
    7.5967   23.1681    3.1629 C   0  0  0  0  0  0  0  0  0  0  0  0
    6.3583   23.6563    2.7402 C   0  0  0  0  0  0  0  0  0  0  0  0
    6.2774   24.8220    1.9642 C   0  0  0  0  0  0  0  0  0  0  0  0
    7.4330   25.5153    1.6002 C   0  0  0  0  0  0  0  0  0  0  0  0
    8.6570   25.0179    2.0173 C   0  0  0  0  0  0  0  0  0  0  0  0
   10.0115   25.5999    1.7748 C   0  0  0  0  0  0  0  0  0  0  0  0
   10.9312   24.4096    2.1128 C   0  0  0  0  0  0  0  0  0  0  0  0
   12.1945   24.8584    2.6035 O   0  0  0  0  0  0  0  0  0  0  0  0
   12.0597   25.3961    3.3995 H   0  0  0  0  0  0  0  0  0  0  0  0
   10.6335   25.1385    6.9279 O   0  0  0  0  0  0  0  0  0  0  0  0
    9.3664   25.1059    7.5856 C   0  0  0  0  0  0  0  0  0  0  0  0
    9.2468   26.3221    8.4649 C   0  0  0  0  0  0  0  0  0  0  0  0
    8.0726   27.0874    8.4695 C   0  0  0  0  0  0  0  0  0  0  0  0
    7.9592   28.2011    9.3035 C   0  0  0  0  0  0  0  0  0  0  0  0
    9.0163   28.5593   10.1392 C   0  0  0  0  0  0  0  0  0  0  0  0
   10.1883   27.8051   10.1439 C   0  0  0  0  0  0  0  0  0  0  0  0
   10.3027   26.6919    9.3111 C   0  0  0  0  0  0  0  0  0  0  0  0
   13.6816   23.0532    6.2850 C   0  0  0  0  0  0  0  0  0  0  0  0
   14.8021   23.8810    5.8802 O   0  0  0  0  0  0  0  0  0  0  0  0
   15.2922   23.6136    4.5728 C   0  0  0  0  0  0  0  0  0  0  0  0
   14.1317   21.7615    7.0279 C   0  0  0  0  0  0  0  0  0  0  0  0
   15.5949   21.8933    7.5046 C   0  0  0  0  0  0  0  0  0  0  0  0
   16.0168   22.8282    8.1825 O   0  0  0  0  0  0  0  0  0  0  0  0
   16.4119   20.8587    7.0976 N   0  0  0  0  0  0  0  0  0  0  0  0
   16.0428   20.1665    6.5027 H   0  0  0  0  0  0  0  0  0  0  0  0
   17.7984   20.7571    7.5178 C   0  0  0  0  0  0  0  0  0  0  0  0
   17.8810   19.9075    8.7543 C   0  0  0  0  0  0  0  0  0  0  0  0
   17.5191   20.2597   10.0459 C   0  0  0  0  0  0  0  0  0  0  0  0
   17.6313   19.2993   11.0524 C   0  0  0  0  0  0  0  0  0  0  0  0
   18.0948   18.0078   10.7575 C   0  0  0  0  0  0  0  0  0  0  0  0
   18.4487   17.6577    9.4520 C   0  0  0  0  0  0  0  0  0  0  0  0
   18.3395   18.6194    8.4616 C   0  0  0  0  0  0  0  0  0  0  0  0
   18.6130   18.4652    7.0011 C   0  0  0  0  0  0  0  0  0  0  0  0
   18.6738   19.9326    6.5193 C   0  0  0  0  0  0  0  0  0  0  0  0
   18.2118   19.9975    5.1635 O   0  0  0  0  0  0  0  0  0  0  0  0
   18.5496   18.8278    4.4223 C   0  0  0  0  0  0  0  0  0  0  0  0
   14.0014   20.5992    6.1984 O   0  0  0  0  0  0  0  0  0  0  0  0
   13.9287   20.9082    4.8059 C   0  0  0  0  0  0  0  0  0  0  0  0
   14.5617   19.7968    4.0082 C   0  0  0  0  0  0  0  0  0  0  0  0
   14.9336   19.9902    2.6693 C   0  0  0  0  0  0  0  0  0  0  0  0
   15.5591   18.9698    1.9511 C   0  0  0  0  0  0  0  0  0  0  0  0
   15.8209   17.7449    2.5620 C   0  0  0  0  0  0  0  0  0  0  0  0
   15.4612   17.5409    3.8932 C   0  0  0  0  0  0  0  0  0  0  0  0
   14.8430   18.5632    4.6153 C   0  0  0  0  0  0  0  0  0  0  0  0
  2  3  1  0
  1  3  1  0
  1 28  1  0
 28 29  1  0
 29 30  1  0
 28 31  1  0
 31 47  1  0
 47 48  1  0
 48 49  1  0
 49 50  2  0
 50 51  1  0
 51 52  2  0
 52 53  1  0
 53 54  2  0
 31 32  1  0
 32 33  2  0
 32 34  1  0
 36 34  1  0
 36 37  1  0
 37 38  2  0
 38 39  1  0
 39 40  2  0
 40 41  1  0
 41 42  2  0
 42 43  1  0
 43 44  1  0
 44 45  1  0
 45 46  1  0
  1  4  1  0
  4 20  1  0
 20 21  1  0
 21 22  1  0
 22 23  2  0
 23 24  1  0
 24 25  2  0
 25 26  1  0
 26 27  2  0
  4  5  1  0
  5  6  2  0
  5  7  1  0
  9  7  1  0
  9 10  1  0
 10 11  2  0
 11 12  1  0
 12 13  2  0
 13 14  1  0
 14 15  2  0
 15 16  1  0
 16 17  1  0
 17 18  1  0
 54 49  1  0
 44 36  1  0
 27 22  1  0
 17  9  1  0
 42 37  1  0
 15 10  1  0
 34 35  1  0
  7  8  1  0
 18 19  1  0
M  END
> <minimizedAffinity>
-9.93813

> <CNNscore>
0.5938450098

> <CNNaffinity>
8.6020994186

> <CNN_VS>
5.1083140373

> <CNNaffinity_variance>
0.2281398028

$$$$



 54 59  0  0  0  0  0  0  0  0999 V2000
   12.7776   24.0558    6.9097 C   0  0  0  0  0  0  0  0  0  0  0  0
   13.0263   25.9066    8.3972 C   0  0  0  0  0  0  0  0  0  0  0  0
   12.9675   25.4903    7.0389 O   0  0  0  0  0  0  0  0  0  0  0  0
   11.2738   23.7985    6.6828 C   0  0  0  0  0  0  0  0  0  0  0  0
   11.0466   23.1459    5.3094 C   0  0  0  0  0  0  0  0  0  0  0  0
   11.4461   22.0073    5.0714 O   0  0  0  0  0  0  0  0  0  0  0  0
   10.3826   23.9385    4.4126 N   0  0  0  0  0  0  0  0  0  0  0  0
   10.1039   24.8371    4.7027 H   0  0  0  0  0  0  0  0  0  0  0  0
   10.0678   23.5275    3.0607 C   0  0  0  0  0  0  0  0  0  0  0  0
    8.6370   23.8482    2.7153 C   0  0  0  0  0  0  0  0  0  0  0  0
    7.4922   23.1606    3.0895 C   0  0  0  0  0  0  0  0  0  0  0  0
    6.2509   23.6617    2.6914 C   0  0  0  0  0  0  0  0  0  0  0  0
    6.1659   24.8370    1.9305 C   0  0  0  0  0  0  0  0  0  0  0  0
    7.3203   25.5272    1.5572 C   0  0  0  0  0  0  0  0  0  0  0  0
    8.5472   25.0172    1.9499 C   0  0  0  0  0  0  0  0  0  0  0  0
    9.9017   25.5934    1.6937 C   0  0  0  0  0  0  0  0  0  0  0  0
   10.8186   24.3933    2.0037 C   0  0  0  0  0  0  0  0  0  0  0  0
   12.0921   24.8282    2.4805 O   0  0  0  0  0  0  0  0  0  0  0  0
   11.9727   25.3573    3.2847 H   0  0  0  0  0  0  0  0  0  0  0  0
   10.5666   25.0349    6.8480 O   0  0  0  0  0  0  0  0  0  0  0  0
    9.3571   24.8840    7.5919 C   0  0  0  0  0  0  0  0  0  0  0  0
    9.0854   26.1634    8.3376 C   0  0  0  0  0  0  0  0  0  0  0  0
    7.9270   26.9087    8.0787 C   0  0  0  0  0  0  0  0  0  0  0  0
    7.6694   28.0824    8.7892 C   0  0  0  0  0  0  0  0  0  0  0  0
    8.5655   28.5210    9.7632 C   0  0  0  0  0  0  0  0  0  0  0  0
    9.7202   27.7874   10.0299 C   0  0  0  0  0  0  0  0  0  0  0  0
    9.9785   26.6143    9.3207 C   0  0  0  0  0  0  0  0  0  0  0  0
   13.7242   23.5508    5.7819 C   0  0  0  0  0  0  0  0  0  0  0  0
   14.1441   24.7387    5.0628 O   0  0  0  0  0  0  0  0  0  0  0  0
   13.0814   25.5951    4.6651 C   0  0  0  0  0  0  0  0  0  0  0  0
   14.9276   22.6997    6.2826 C   0  0  0  0  0  0  0  0  0  0  0  0
   14.6926   21.2024    5.9849 C   0  0  0  0  0  0  0  0  0  0  0  0
   13.6366   20.6135    6.2074 O   0  0  0  0  0  0  0  0  0  0  0  0
   15.7866   20.5611    5.4415 N   0  0  0  0  0  0  0  0  0  0  0  0
   16.6296   21.0597    5.3417 H   0  0  0  0  0  0  0  0  0  0  0  0
   15.7355   19.1747    5.0117 C   0  0  0  0  0  0  0  0  0  0  0  0
   15.6317   19.1232    3.5137 C   0  0  0  0  0  0  0  0  0  0  0  0
   14.5185   19.4019    2.7350 C   0  0  0  0  0  0  0  0  0  0  0  0
   14.6468   19.3399    1.3465 C   0  0  0  0  0  0  0  0  0  0  0  0
   15.8771   19.0081    0.7581 C   0  0  0  0  0  0  0  0  0  0  0  0
   16.9964   18.7378    1.5492 C   0  0  0  0  0  0  0  0  0  0  0  0
   16.8574   18.7961    2.9257 C   0  0  0  0  0  0  0  0  0  0  0  0
   17.9138   18.5937    3.9624 C   0  0  0  0  0  0  0  0  0  0  0  0
   17.0813   18.4172    5.2528 C   0  0  0  0  0  0  0  0  0  0  0  0
   17.8324   18.9226    6.3647 O   0  0  0  0  0  0  0  0  0  0  0  0
   18.8653   19.8159    5.9561 C   0  0  0  0  0  0  0  0  0  0  0  0
   15.1565   22.8784    7.6867 O   0  0  0  0  0  0  0  0  0  0  0  0
   16.5414   22.8689    8.0358 C   0  0  0  0  0  0  0  0  0  0  0  0
   16.8511   21.6321    8.8399 C   0  0  0  0  0  0  0  0  0  0  0  0
   18.1766   21.2383    9.0774 C   0  0  0  0  0  0  0  0  0  0  0  0
   18.4552   20.1164    9.8597 C   0  0  0  0  0  0  0  0  0  0  0  0
   17.4133   19.3755   10.4144 C   0  0  0  0  0  0  0  0  0  0  0  0
   16.0919   19.7584   10.1907 C   0  0  0  0  0  0  0  0  0  0  0  0
   15.8117   20.8850    9.4152 C   0  0  0  0  0  0  0  0  0  0  0  0
  2  3  1  0
  1  3  1  0
  1 28  1  0
 28 29  1  0
 29 30  1  0
 28 31  1  0
 31 47  1  0
 47 48  1  0
 48 49  1  0
 49 50  2  0
 50 51  1  0
 51 52  2  0
 52 53  1  0
 53 54  2  0
 31 32  1  0
 32 33  2  0
 32 34  1  0
 36 34  1  0
 36 37  1  0
 37 38  2  0
 38 39  1  0
 39 40  2  0
 40 41  1  0
 41 42  2  0
 42 43  1  0
 43 44  1  0
 44 45  1  0
 45 46  1  0
  1  4  1  0
  4 20  1  0
 20 21  1  0
 21 22  1  0
 22 23  2  0
 23 24  1  0
 24 25  2  0
 25 26  1  0
 26 27  2  0
  4  5  1  0
  5  6  2  0
  5  7  1  0
  9  7  1  0
  9 10  1  0
 10 11  2  0
 11 12  1  0
 12 13  2  0
 13 14  1  0
 14 15  2  0
 15 16  1  0
 16 17  1  0
 17 18  1  0
 54 49  1  0
 44 36  1  0
 27 22  1  0
 17  9  1  0
 42 37  1  0
 15 10  1  0
 34 35  1  0
  7  8  1  0
 18 19  1  0
M  END
> <minimizedAffinity>
-9.86318

> <CNNscore>
0.5789582133

> <CNNaffinity>
8.5730943680

> <CNN_VS>
4.9634633064

> <CNNaffinity_variance>
0.2234983891

$$$$



 54 59  0  0  0  0  0  0  0  0999 V2000
   13.5434   22.5536    5.4288 C   0  0  0  0  0  0  0  0  0  0  0  0
   15.2487   24.1132    4.8293 C   0  0  0  0  0  0  0  0  0  0  0  0
   14.1014   23.3988    4.3873 O   0  0  0  0  0  0  0  0  0  0  0  0
   14.7187   21.9200    6.2010 C   0  0  0  0  0  0  0  0  0  0  0  0
   15.4024   20.8442    5.3414 C   0  0  0  0  0  0  0  0  0  0  0  0
   16.2242   21.1465    4.4777 O   0  0  0  0  0  0  0  0  0  0  0  0
   15.0101   19.5639    5.6250 N   0  0  0  0  0  0  0  0  0  0  0  0
   14.3445   19.4281    6.3375 H   0  0  0  0  0  0  0  0  0  0  0  0
   15.5207   18.3987    4.9342 C   0  0  0  0  0  0  0  0  0  0  0  0
   15.4502   18.5793    3.4403 C   0  0  0  0  0  0  0  0  0  0  0  0
   14.3408   18.4639    2.6164 C   0  0  0  0  0  0  0  0  0  0  0  0
   14.4918   18.7187    1.2516 C   0  0  0  0  0  0  0  0  0  0  0  0
   15.7402   19.0852    0.7274 C   0  0  0  0  0  0  0  0  0  0  0  0
   16.8542   19.2020    1.5602 C   0  0  0  0  0  0  0  0  0  0  0  0
   16.6958   18.9387    2.9112 C   0  0  0  0  0  0  0  0  0  0  0  0
   17.7286   19.0254    3.9873 C   0  0  0  0  0  0  0  0  0  0  0  0
   17.0589   18.2378    5.1312 C   0  0  0  0  0  0  0  0  0  0  0  0
   17.4848   18.7194    6.4058 O   0  0  0  0  0  0  0  0  0  0  0  0
   17.2595   19.6593    6.4881 H   0  0  0  0  0  0  0  0  0  0  0  0
   14.2292   21.4203    7.4527 O   0  0  0  0  0  0  0  0  0  0  0  0
   14.8257   22.0678    8.5770 C   0  0  0  0  0  0  0  0  0  0  0  0
   16.0428   21.2865    8.9952 C   0  0  0  0  0  0  0  0  0  0  0  0
   15.9126   20.1072    9.7414 C   0  0  0  0  0  0  0  0  0  0  0  0
   17.0435   19.3750   10.1071 C   0  0  0  0  0  0  0  0  0  0  0  0
   18.3124   19.8138    9.7310 C   0  0  0  0  0  0  0  0  0  0  0  0
   18.4538   20.9845    8.9881 C   0  0  0  0  0  0  0  0  0  0  0  0
   17.3245   21.7169    8.6218 C   0  0  0  0  0  0  0  0  0  0  0  0
   12.5722   23.4245    6.2781 C   0  0  0  0  0  0  0  0  0  0  0  0
   13.4067   24.4114    6.9371 O   0  0  0  0  0  0  0  0  0  0  0  0
   12.7001   25.5296    7.4579 C   0  0  0  0  0  0  0  0  0  0  0  0
   11.4099   24.0706    5.4688 C   0  0  0  0  0  0  0  0  0  0  0  0
   10.1519   24.2186    6.3526 C   0  0  0  0  0  0  0  0  0  0  0  0
    9.7217   23.3353    7.0917 O   0  0  0  0  0  0  0  0  0  0  0  0
    9.5314   25.4459    6.2425 N   0  0  0  0  0  0  0  0  0  0  0  0
    9.8766   26.0970    5.5897 H   0  0  0  0  0  0  0  0  0  0  0  0
    8.3856   25.8089    7.0579 C   0  0  0  0  0  0  0  0  0  0  0  0
    8.8620   26.5082    8.2996 C   0  0  0  0  0  0  0  0  0  0  0  0
    9.4668   25.9380    9.4097 C   0  0  0  0  0  0  0  0  0  0  0  0
    9.8798   26.7774   10.4455 C   0  0  0  0  0  0  0  0  0  0  0  0
    9.6899   28.1652   10.3577 C   0  0  0  0  0  0  0  0  0  0  0  0
    9.0881   28.7330    9.2319 C   0  0  0  0  0  0  0  0  0  0  0  0
    8.6764   27.8913    8.2123 C   0  0  0  0  0  0  0  0  0  0  0  0
    8.0578   28.2692    6.9061 C   0  0  0  0  0  0  0  0  0  0  0  0
    7.5027   26.9183    6.4000 C   0  0  0  0  0  0  0  0  0  0  0  0
    7.5411   26.9063    4.9667 O   0  0  0  0  0  0  0  0  0  0  0  0
    6.2850   26.5468    4.3968 C   0  0  0  0  0  0  0  0  0  0  0  0
   11.0867   23.3049    4.3005 O   0  0  0  0  0  0  0  0  0  0  0  0
   11.1555   24.0654    3.0936 C   0  0  0  0  0  0  0  0  0  0  0  0
    9.7616   24.3468    2.5937 C   0  0  0  0  0  0  0  0  0  0  0  0
    9.4618   25.5435    1.9255 C   0  0  0  0  0  0  0  0  0  0  0  0
    8.1790   25.7770    1.4273 C   0  0  0  0  0  0  0  0  0  0  0  0
    7.1811   24.8179    1.5902 C   0  0  0  0  0  0  0  0  0  0  0  0
    7.4665   23.6223    2.2477 C   0  0  0  0  0  0  0  0  0  0  0  0
    8.7512   23.3837    2.7393 C   0  0  0  0  0  0  0  0  0  0  0  0
  2  3  1  0
  1  3  1  0
  1 28  1  0
 28 29  1  0
 29 30  1  0
 28 31  1  0
 31 47  1  0
 47 48  1  0
 48 49  1  0
 49 50  2  0
 50 51  1  0
 51 52  2  0
 52 53  1  0
 53 54  2  0
 31 32  1  0
 32 33  2  0
 32 34  1  0
 36 34  1  0
 36 37  1  0
 37 38  2  0
 38 39  1  0
 39 40  2  0
 40 41  1  0
 41 42  2  0
 42 43  1  0
 43 44  1  0
 44 45  1  0
 45 46  1  0
  1  4  1  0
  4 20  1  0
 20 21  1  0
 21 22  1  0
 22 23  2  0
 23 24  1  0
 24 25  2  0
 25 26  1  0
 26 27  2  0
  4  5  1  0
  5  6  2  0
  5  7  1  0
  9  7  1  0
  9 10  1  0
 10 11  2  0
 11 12  1  0
 12 13  2  0
 13 14  1  0
 14 15  2  0
 15 16  1  0
 16 17  1  0
 17 18  1  0
 54 49  1  0
 44 36  1  0
 27 22  1  0
 17  9  1  0
 42 37  1  0
 15 10  1  0
 34 35  1  0
  7  8  1  0
 18 19  1  0
M  END
> <minimizedAffinity>
-9.06470

> <CNNscore>
0.5742709637

> <CNNaffinity>
8.8350992203

> <CNN_VS>
5.0737409592

> <CNNaffinity_variance>
0.1285851896

$$$$



 54 59  0  0  0  0  0  0  0  0999 V2000
    9.4923   24.9320    3.2047 C   0  0  0  0  0  0  0  0  0  0  0  0
    8.1987   23.5121    1.7867 C   0  0  0  0  0  0  0  0  0  0  0  0
    8.8920   24.7489    1.8944 O   0  0  0  0  0  0  0  0  0  0  0  0
    8.3494   25.0536    4.2333 C   0  0  0  0  0  0  0  0  0  0  0  0
    7.1092   25.6843    3.5792 C   0  0  0  0  0  0  0  0  0  0  0  0
    7.2156   26.5880    2.7518 O   0  0  0  0  0  0  0  0  0  0  0  0
    5.9196   25.1569    4.0036 N   0  0  0  0  0  0  0  0  0  0  0  0
    5.9428   24.4335    4.6710 H   0  0  0  0  0  0  0  0  0  0  0  0
    4.6291   25.6049    3.5245 C   0  0  0  0  0  0  0  0  0  0  0  0
    4.1718   24.7828    2.3478 C   0  0  0  0  0  0  0  0  0  0  0  0
    4.5873   24.8739    1.0279 C   0  0  0  0  0  0  0  0  0  0  0  0
    4.0607   23.9755    0.0973 C   0  0  0  0  0  0  0  0  0  0  0  0
    3.1323   23.0009    0.4920 C   0  0  0  0  0  0  0  0  0  0  0  0
    2.7178   22.9112    1.8219 C   0  0  0  0  0  0  0  0  0  0  0  0
    3.2397   23.8126    2.7355 C   0  0  0  0  0  0  0  0  0  0  0  0
    2.9673   23.8894    4.2025 C   0  0  0  0  0  0  0  0  0  0  0  0
    3.4938   25.2968    4.5476 C   0  0  0  0  0  0  0  0  0  0  0  0
    3.9624   25.3549    5.8949 O   0  0  0  0  0  0  0  0  0  0  0  0
    4.6735   24.7068    6.0181 H   0  0  0  0  0  0  0  0  0  0  0  0
    8.8290   25.7885    5.3674 O   0  0  0  0  0  0  0  0  0  0  0  0
    8.6329   27.1968    5.2358 C   0  0  0  0  0  0  0  0  0  0  0  0
    7.9546   27.7085    6.4787 C   0  0  0  0  0  0  0  0  0  0  0  0
    8.6848   28.3907    7.4614 C   0  0  0  0  0  0  0  0  0  0  0  0
    8.0461   28.8825    8.6011 C   0  0  0  0  0  0  0  0  0  0  0  0
    6.6743   28.6974    8.7687 C   0  0  0  0  0  0  0  0  0  0  0  0
    5.9379   28.0215    7.7975 C   0  0  0  0  0  0  0  0  0  0  0  0
    6.5749   27.5298    6.6580 C   0  0  0  0  0  0  0  0  0  0  0  0
   10.4869   23.7580    3.4399 C   0  0  0  0  0  0  0  0  0  0  0  0
   11.0193   23.4284    2.1312 O   0  0  0  0  0  0  0  0  0  0  0  0
   11.9068   24.3998    1.5928 C   0  0  0  0  0  0  0  0  0  0  0  0
   11.6049   24.0582    4.4806 C   0  0  0  0  0  0  0  0  0  0  0  0
   11.9004   22.8052    5.3341 C   0  0  0  0  0  0  0  0  0  0  0  0
   11.0958   22.2966    6.1123 O   0  0  0  0  0  0  0  0  0  0  0  0
   13.1682   22.2917    5.1547 N   0  0  0  0  0  0  0  0  0  0  0  0
   13.7977   22.7714    4.5691 H   0  0  0  0  0  0  0  0  0  0  0  0
   13.6049   21.0667    5.8013 C   0  0  0  0  0  0  0  0  0  0  0  0
   14.6383   20.3938    4.9428 C   0  0  0  0  0  0  0  0  0  0  0  0
   14.4299   19.6932    3.7643 C   0  0  0  0  0  0  0  0  0  0  0  0
   15.5400   19.1815    3.0906 C   0  0  0  0  0  0  0  0  0  0  0  0
   16.8344   19.3790    3.5959 C   0  0  0  0  0  0  0  0  0  0  0  0
   17.0370   20.0939    4.7790 C   0  0  0  0  0  0  0  0  0  0  0  0
   15.9288   20.5925    5.4431 C   0  0  0  0  0  0  0  0  0  0  0  0
   15.9015   21.4184    6.6876 C   0  0  0  0  0  0  0  0  0  0  0  0
   14.4174   21.3306    7.1103 C   0  0  0  0  0  0  0  0  0  0  0  0
   14.0502   22.5454    7.7777 O   0  0  0  0  0  0  0  0  0  0  0  0
   15.1513   23.4404    7.9122 C   0  0  0  0  0  0  0  0  0  0  0  0
   11.2510   25.1501    5.3399 O   0  0  0  0  0  0  0  0  0  0  0  0
   12.1759   25.3451    6.4105 C   0  0  0  0  0  0  0  0  0  0  0  0
   11.4214   25.6251    7.6851 C   0  0  0  0  0  0  0  0  0  0  0  0
   11.9578   26.4657    8.6720 C   0  0  0  0  0  0  0  0  0  0  0  0
   11.2336   26.7546    9.8297 C   0  0  0  0  0  0  0  0  0  0  0  0
    9.9651   26.2077   10.0147 C   0  0  0  0  0  0  0  0  0  0  0  0
    9.4180   25.3750    9.0399 C   0  0  0  0  0  0  0  0  0  0  0  0
   10.1377   25.0916    7.8777 C   0  0  0  0  0  0  0  0  0  0  0  0
  2  3  1  0
  1  3  1  0
  1 28  1  0
 28 29  1  0
 29 30  1  0
 28 31  1  0
 31 47  1  0
 47 48  1  0
 48 49  1  0
 49 50  2  0
 50 51  1  0
 51 52  2  0
 52 53  1  0
 53 54  2  0
 31 32  1  0
 32 33  2  0
 32 34  1  0
 36 34  1  0
 36 37  1  0
 37 38  2  0
 38 39  1  0
 39 40  2  0
 40 41  1  0
 41 42  2  0
 42 43  1  0
 43 44  1  0
 44 45  1  0
 45 46  1  0
  1  4  1  0
  4 20  1  0
 20 21  1  0
 21 22  1  0
 22 23  2  0
 23 24  1  0
 24 25  2  0
 25 26  1  0
 26 27  2  0
  4  5  1  0
  5  6  2  0
  5  7  1  0
  9  7  1  0
  9 10  1  0
 10 11  2  0
 11 12  1  0
 12 13  2  0
 13 14  1  0
 14 15  2  0
 15 16  1  0
 16 17  1  0
 17 18  1  0
 54 49  1  0
 44 36  1  0
 27 22  1  0
 17  9  1  0
 42 37  1  0
 15 10  1  0
 34 35  1  0
  7  8  1  0
 18 19  1  0
M  END
> <minimizedAffinity>
-8.71086

> <CNNscore>
0.5410556197

> <CNNaffinity>
8.5535688400

> <CNN_VS>
4.6279563904

> <CNNaffinity_variance>
0.0813000873

$$$$



 54 59  0  0  0  0  0  0  0  0999 V2000
   19.2917   16.3698    6.2621 C   0  0  0  0  0  0  0  0  0  0  0  0
   20.7846   15.9253    4.4528 C   0  0  0  0  0  0  0  0  0  0  0  0
   19.7824   15.3903    5.3079 O   0  0  0  0  0  0  0  0  0  0  0  0
   18.4367   17.3939    5.4880 C   0  0  0  0  0  0  0  0  0  0  0  0
   18.6534   18.8060    6.0558 C   0  0  0  0  0  0  0  0  0  0  0  0
   19.2091   19.6805    5.3931 O   0  0  0  0  0  0  0  0  0  0  0  0
   18.1849   18.9783    7.3303 N   0  0  0  0  0  0  0  0  0  0  0  0
   17.7537   18.2131    7.7750 H   0  0  0  0  0  0  0  0  0  0  0  0
   18.2889   20.2243    8.0598 C   0  0  0  0  0  0  0  0  0  0  0  0
   16.9728   20.9572    8.0723 C   0  0  0  0  0  0  0  0  0  0  0  0
   16.4034   21.7098    7.0562 C   0  0  0  0  0  0  0  0  0  0  0  0
   15.1424   22.2721    7.2665 C   0  0  0  0  0  0  0  0  0  0  0  0
   14.4670   22.0772    8.4803 C   0  0  0  0  0  0  0  0  0  0  0  0
   15.0427   21.3176    9.5001 C   0  0  0  0  0  0  0  0  0  0  0  0
   16.2976   20.7712    9.2848 C   0  0  0  0  0  0  0  0  0  0  0  0
   17.0907   19.9082   10.2112 C   0  0  0  0  0  0  0  0  0  0  0  0
   18.4980   19.9847    9.5860 C   0  0  0  0  0  0  0  0  0  0  0  0
   19.2396   18.7916    9.8401 O   0  0  0  0  0  0  0  0  0  0  0  0
   18.7648   18.0309    9.4703 H   0  0  0  0  0  0  0  0  0  0  0  0
   17.0672   16.9704    5.5261 O   0  0  0  0  0  0  0  0  0  0  0  0
   16.5142   16.7723    4.2246 C   0  0  0  0  0  0  0  0  0  0  0  0
   15.8259   18.0401    3.7937 C   0  0  0  0  0  0  0  0  0  0  0  0
   15.2103   18.8744    4.7368 C   0  0  0  0  0  0  0  0  0  0  0  0
   14.5932   20.0600    4.3340 C   0  0  0  0  0  0  0  0  0  0  0  0
   14.5857   20.4219    2.9875 C   0  0  0  0  0  0  0  0  0  0  0  0
   15.1957   19.6006    2.0411 C   0  0  0  0  0  0  0  0  0  0  0  0
   15.8129   18.4157    2.4424 C   0  0  0  0  0  0  0  0  0  0  0  0
   18.5556   15.6000    7.3972 C   0  0  0  0  0  0  0  0  0  0  0  0
   18.9546   14.2128    7.2515 O   0  0  0  0  0  0  0  0  0  0  0  0
   20.3235   14.0239    6.9176 C   0  0  0  0  0  0  0  0  0  0  0  0
   18.8227   16.1506    8.8285 C   0  0  0  0  0  0  0  0  0  0  0  0
   20.1151   15.5378    9.4116 C   0  0  0  0  0  0  0  0  0  0  0  0
   21.2242   16.0619    9.3285 O   0  0  0  0  0  0  0  0  0  0  0  0
   19.9248   14.3265   10.0440 N   0  0  0  0  0  0  0  0  0  0  0  0
   19.0296   13.9170   10.0286 H   0  0  0  0  0  0  0  0  0  0  0  0
   21.0015   13.6356   10.7316 C   0  0  0  0  0  0  0  0  0  0  0  0
   20.7737   13.7139   12.2147 C   0  0  0  0  0  0  0  0  0  0  0  0
   20.9573   14.8135   13.0396 C   0  0  0  0  0  0  0  0  0  0  0  0
   20.6405   14.6885   14.3932 C   0  0  0  0  0  0  0  0  0  0  0  0
   20.1434   13.4780   14.9006 C   0  0  0  0  0  0  0  0  0  0  0  0
   19.9525   12.3775   14.0613 C   0  0  0  0  0  0  0  0  0  0  0  0
   20.2753   12.5097   12.7212 C   0  0  0  0  0  0  0  0  0  0  0  0
   20.1144   11.4958   11.6360 C   0  0  0  0  0  0  0  0  0  0  0  0
   20.9747   12.0904   10.4977 C   0  0  0  0  0  0  0  0  0  0  0  0
   20.4062   11.7113    9.2371 O   0  0  0  0  0  0  0  0  0  0  0  0
   19.5184   10.6027    9.3578 C   0  0  0  0  0  0  0  0  0  0  0  0
   17.7258   15.8849    9.7128 O   0  0  0  0  0  0  0  0  0  0  0  0
   17.9970   16.2444   11.0682 C   0  0  0  0  0  0  0  0  0  0  0  0
   16.8065   15.9056   11.9285 C   0  0  0  0  0  0  0  0  0  0  0  0
   15.4984   16.1021   11.4611 C   0  0  0  0  0  0  0  0  0  0  0  0
   14.4017   15.7448   12.2472 C   0  0  0  0  0  0  0  0  0  0  0  0
   14.5990   15.1866   13.5089 C   0  0  0  0  0  0  0  0  0  0  0  0
   15.8934   14.9811   13.9836 C   0  0  0  0  0  0  0  0  0  0  0  0
   16.9914   15.3304   13.1952 C   0  0  0  0  0  0  0  0  0  0  0  0
  2  3  1  0
  1  3  1  0
  1 28  1  0
 28 29  1  0
 29 30  1  0
 28 31  1  0
 31 47  1  0
 47 48  1  0
 48 49  1  0
 49 50  2  0
 50 51  1  0
 51 52  2  0
 52 53  1  0
 53 54  2  0
 31 32  1  0
 32 33  2  0
 32 34  1  0
 36 34  1  0
 36 37  1  0
 37 38  2  0
 38 39  1  0
 39 40  2  0
 40 41  1  0
 41 42  2  0
 42 43  1  0
 43 44  1  0
 44 45  1  0
 45 46  1  0
  1  4  1  0
  4 20  1  0
 20 21  1  0
 21 22  1  0
 22 23  2  0
 23 24  1  0
 24 25  2  0
 25 26  1  0
 26 27  2  0
  4  5  1  0
  5  6  2  0
  5  7  1  0
  9  7  1  0
  9 10  1  0
 10 11  2  0
 11 12  1  0
 12 13  2  0
 13 14  1  0
 14 15  2  0
 15 16  1  0
 16 17  1  0
 17 18  1  0
 54 49  1  0
 44 36  1  0
 27 22  1  0
 17  9  1  0
 42 37  1  0
 15 10  1  0
 34 35  1  0
  7  8  1  0
 18 19  1  0
M  END
> <minimizedAffinity>
-7.49623

> <CNNscore>
0.5189046860

> <CNNaffinity>
7.4206409454

> <CNN_VS>
3.8506052494

> <CNNaffinity_variance>
0.7825052142

$$$$



 54 59  0  0  0  0  0  0  0  0999 V2000
    9.4770   24.6297    3.1168 C   0  0  0  0  0  0  0  0  0  0  0  0
    8.4910   22.4806    2.7867 C   0  0  0  0  0  0  0  0  0  0  0  0
    8.7415   23.7587    2.2162 O   0  0  0  0  0  0  0  0  0  0  0  0
    8.4736   25.2106    4.1340 C   0  0  0  0  0  0  0  0  0  0  0  0
    7.1993   25.6823    3.4149 C   0  0  0  0  0  0  0  0  0  0  0  0
    7.2585   26.2939    2.3495 O   0  0  0  0  0  0  0  0  0  0  0  0
    6.0367   25.3660    4.0644 N   0  0  0  0  0  0  0  0  0  0  0  0
    6.0977   24.8723    4.9140 H   0  0  0  0  0  0  0  0  0  0  0  0
    4.7224   25.7179    3.5701 C   0  0  0  0  0  0  0  0  0  0  0  0
    4.2838   24.7777    2.4778 C   0  0  0  0  0  0  0  0  0  0  0  0
    4.6772   24.7688    1.1481 C   0  0  0  0  0  0  0  0  0  0  0  0
    4.1757   23.7715    0.3088 C   0  0  0  0  0  0  0  0  0  0  0  0
    3.2940   22.7990    0.8031 C   0  0  0  0  0  0  0  0  0  0  0  0
    2.9016   22.8102    2.1426 C   0  0  0  0  0  0  0  0  0  0  0  0
    3.3980   23.8088    2.9648 C   0  0  0  0  0  0  0  0  0  0  0  0
    3.1425   24.0035    4.4239 C   0  0  0  0  0  0  0  0  0  0  0  0
    3.6149   25.4558    4.6356 C   0  0  0  0  0  0  0  0  0  0  0  0
    4.0988   25.6511    5.9644 O   0  0  0  0  0  0  0  0  0  0  0  0
    4.8378   25.0455    6.1316 H   0  0  0  0  0  0  0  0  0  0  0  0
    9.1239   26.2499    4.8777 O   0  0  0  0  0  0  0  0  0  0  0  0
    8.4184   27.4903    4.8255 C   0  0  0  0  0  0  0  0  0  0  0  0
    7.9613   27.8453    6.2154 C   0  0  0  0  0  0  0  0  0  0  0  0
    8.8638   28.3664    7.1526 C   0  0  0  0  0  0  0  0  0  0  0  0
    8.4294   28.7146    8.4327 C   0  0  0  0  0  0  0  0  0  0  0  0
    7.0915   28.5456    8.7872 C   0  0  0  0  0  0  0  0  0  0  0  0
    6.1849   28.0293    7.8630 C   0  0  0  0  0  0  0  0  0  0  0  0
    6.6178   27.6812    6.5835 C   0  0  0  0  0  0  0  0  0  0  0  0
   10.6490   23.8046    3.7240 C   0  0  0  0  0  0  0  0  0  0  0  0
   11.6297   23.6785    2.6624 O   0  0  0  0  0  0  0  0  0  0  0  0
   11.5597   24.6940    1.6700 C   0  0  0  0  0  0  0  0  0  0  0  0
   11.2537   24.4050    5.0267 C   0  0  0  0  0  0  0  0  0  0  0  0
   12.7962   24.4237    4.9488 C   0  0  0  0  0  0  0  0  0  0  0  0
   13.4680   25.4478    4.8416 O   0  0  0  0  0  0  0  0  0  0  0  0
   13.3749   23.1727    5.0059 N   0  0  0  0  0  0  0  0  0  0  0  0
   12.7925   22.3792    5.0271 H   0  0  0  0  0  0  0  0  0  0  0  0
   14.8152   22.9877    5.0358 C   0  0  0  0  0  0  0  0  0  0  0  0
   15.2314   22.5554    6.4133 C   0  0  0  0  0  0  0  0  0  0  0  0
   15.3119   23.3384    7.5550 C   0  0  0  0  0  0  0  0  0  0  0  0
   15.6779   22.7271    8.7552 C   0  0  0  0  0  0  0  0  0  0  0  0
   15.9515   21.3513    8.8004 C   0  0  0  0  0  0  0  0  0  0  0  0
   15.8592   20.5673    7.6477 C   0  0  0  0  0  0  0  0  0  0  0  0
   15.5011   21.1842    6.4607 C   0  0  0  0  0  0  0  0  0  0  0  0
   15.2953   20.5494    5.1242 C   0  0  0  0  0  0  0  0  0  0  0  0
   15.2862   21.7701    4.1761 C   0  0  0  0  0  0  0  0  0  0  0  0
   14.4281   21.4888    3.0623 O   0  0  0  0  0  0  0  0  0  0  0  0
   14.7520   20.2525    2.4312 C   0  0  0  0  0  0  0  0  0  0  0  0
   10.8419   23.6738    6.1893 O   0  0  0  0  0  0  0  0  0  0  0  0
    9.6685   24.2087    6.8031 C   0  0  0  0  0  0  0  0  0  0  0  0
   10.0617   25.0987    7.9543 C   0  0  0  0  0  0  0  0  0  0  0  0
    9.2288   25.2409    9.0744 C   0  0  0  0  0  0  0  0  0  0  0  0
    9.6205   26.0326   10.1552 C   0  0  0  0  0  0  0  0  0  0  0  0
   10.8487   26.6907   10.1301 C   0  0  0  0  0  0  0  0  0  0  0  0
   11.6882   26.5541    9.0258 C   0  0  0  0  0  0  0  0  0  0  0  0
   11.3016   25.7561    7.9475 C   0  0  0  0  0  0  0  0  0  0  0  0
  2  3  1  0
  1  3  1  0
  1 28  1  0
 28 29  1  0
 29 30  1  0
 28 31  1  0
 31 47  1  0
 47 48  1  0
 48 49  1  0
 49 50  2  0
 50 51  1  0
 51 52  2  0
 52 53  1  0
 53 54  2  0
 31 32  1  0
 32 33  2  0
 32 34  1  0
 36 34  1  0
 36 37  1  0
 37 38  2  0
 38 39  1  0
 39 40  2  0
 40 41  1  0
 41 42  2  0
 42 43  1  0
 43 44  1  0
 44 45  1  0
 45 46  1  0
  1  4  1  0
  4 20  1  0
 20 21  1  0
 21 22  1  0
 22 23  2  0
 23 24  1  0
 24 25  2  0
 25 26  1  0
 26 27  2  0
  4  5  1  0
  5  6  2  0
  5  7  1  0
  9  7  1  0
  9 10  1  0
 10 11  2  0
 11 12  1  0
 12 13  2  0
 13 14  1  0
 14 15  2  0
 15 16  1  0
 16 17  1  0
 17 18  1  0
 54 49  1  0
 44 36  1  0
 27 22  1  0
 17  9  1  0
 42 37  1  0
 15 10  1  0
 34 35  1  0
  7  8  1  0
 18 19  1  0
M  END
> <minimizedAffinity>
-9.30572

> <CNNscore>
0.4534163177

> <CNNaffinity>
8.3310308456

> <CNN_VS>
3.7774252892

> <CNNaffinity_variance>
0.1421933323

$$$$



 54 59  0  0  0  0  0  0  0  0999 V2000
   13.2071   23.2026    4.7705 C   0  0  0  0  0  0  0  0  0  0  0  0
   13.5819   25.5557    4.9206 C   0  0  0  0  0  0  0  0  0  0  0  0
   14.1131   24.2623    5.1791 O   0  0  0  0  0  0  0  0  0  0  0  0
   12.9250   22.3223    6.0053 C   0  0  0  0  0  0  0  0  0  0  0  0
   13.7057   22.8456    7.2219 C   0  0  0  0  0  0  0  0  0  0  0  0
   13.4284   23.9261    7.7399 O   0  0  0  0  0  0  0  0  0  0  0  0
   14.7072   22.0154    7.6475 N   0  0  0  0  0  0  0  0  0  0  0  0
   14.8481   21.1698    7.1634 H   0  0  0  0  0  0  0  0  0  0  0  0
   15.5706   22.3129    8.7708 C   0  0  0  0  0  0  0  0  0  0  0  0
   16.2082   21.0599    9.3120 C   0  0  0  0  0  0  0  0  0  0  0  0
   15.6383   20.0943   10.1280 C   0  0  0  0  0  0  0  0  0  0  0  0
   16.4027   18.9795   10.4794 C   0  0  0  0  0  0  0  0  0  0  0  0
   17.7187   18.8407   10.0142 C   0  0  0  0  0  0  0  0  0  0  0  0
   18.2883   19.8140    9.1917 C   0  0  0  0  0  0  0  0  0  0  0  0
   17.5246   20.9201    8.8559 C   0  0  0  0  0  0  0  0  0  0  0  0
   17.9092   22.0640    7.9751 C   0  0  0  0  0  0  0  0  0  0  0  0
   16.8356   23.1115    8.3319 C   0  0  0  0  0  0  0  0  0  0  0  0
   16.5646   23.9690    7.2231 O   0  0  0  0  0  0  0  0  0  0  0  0
   16.2581   23.4383    6.4712 H   0  0  0  0  0  0  0  0  0  0  0  0
   13.2306   20.9603    5.6773 O   0  0  0  0  0  0  0  0  0  0  0  0
   14.6266   20.7421    5.4702 C   0  0  0  0  0  0  0  0  0  0  0  0
   14.8059   19.8949    4.2387 C   0  0  0  0  0  0  0  0  0  0  0  0
   14.7547   20.4710    2.9620 C   0  0  0  0  0  0  0  0  0  0  0  0
   14.9440   19.6841    1.8245 C   0  0  0  0  0  0  0  0  0  0  0  0
   15.1860   18.3169    1.9524 C   0  0  0  0  0  0  0  0  0  0  0  0
   15.2401   17.7334    3.2170 C   0  0  0  0  0  0  0  0  0  0  0  0
   15.0513   18.5187    4.3544 C   0  0  0  0  0  0  0  0  0  0  0  0
   11.9596   23.8685    4.1200 C   0  0  0  0  0  0  0  0  0  0  0  0
   11.9343   23.3955    2.7487 O   0  0  0  0  0  0  0  0  0  0  0  0
   11.7375   24.4135    1.7762 C   0  0  0  0  0  0  0  0  0  0  0  0
   10.6213   23.6006    4.8684 C   0  0  0  0  0  0  0  0  0  0  0  0
    9.4630   24.3728    4.1993 C   0  0  0  0  0  0  0  0  0  0  0  0
    8.3677   23.8798    3.9366 O   0  0  0  0  0  0  0  0  0  0  0  0
    9.7611   25.6880    3.9084 N   0  0  0  0  0  0  0  0  0  0  0  0
   10.6725   26.0186    4.0792 H   0  0  0  0  0  0  0  0  0  0  0  0
    8.7745   26.6011    3.3584 C   0  0  0  0  0  0  0  0  0  0  0  0
    7.6134   25.8125    2.8220 C   0  0  0  0  0  0  0  0  0  0  0  0
    7.5682   25.0659    1.6542 C   0  0  0  0  0  0  0  0  0  0  0  0
    6.3981   24.3644    1.3593 C   0  0  0  0  0  0  0  0  0  0  0  0
    5.2987   24.4130    2.2304 C   0  0  0  0  0  0  0  0  0  0  0  0
    5.3553   25.1600    3.4096 C   0  0  0  0  0  0  0  0  0  0  0  0
    6.5184   25.8572    3.6903 C   0  0  0  0  0  0  0  0  0  0  0  0
    6.8251   26.6777    4.9004 C   0  0  0  0  0  0  0  0  0  0  0  0
    8.0762   27.4687    4.4552 C   0  0  0  0  0  0  0  0  0  0  0  0
    8.9020   27.7180    5.6005 O   0  0  0  0  0  0  0  0  0  0  0  0
    8.1468   28.1715    6.7211 C   0  0  0  0  0  0  0  0  0  0  0  0
   10.7043   23.9670    6.2522 O   0  0  0  0  0  0  0  0  0  0  0  0
    9.5433   24.6530    6.7223 C   0  0  0  0  0  0  0  0  0  0  0  0
    9.8903   25.4460    7.9564 C   0  0  0  0  0  0  0  0  0  0  0  0
   11.1168   26.1190    8.0612 C   0  0  0  0  0  0  0  0  0  0  0  0
   11.4120   26.8869    9.1888 C   0  0  0  0  0  0  0  0  0  0  0  0
   10.4852   26.9919   10.2244 C   0  0  0  0  0  0  0  0  0  0  0  0
    9.2606   26.3326   10.1311 C   0  0  0  0  0  0  0  0  0  0  0  0
    8.9606   25.5709    9.0003 C   0  0  0  0  0  0  0  0  0  0  0  0
  2  3  1  0
  1  3  1  0
  1 28  1  0
 28 29  1  0
 29 30  1  0
 28 31  1  0
 31 47  1  0
 47 48  1  0
 48 49  1  0
 49 50  2  0
 50 51  1  0
 51 52  2  0
 52 53  1  0
 53 54  2  0
 31 32  1  0
 32 33  2  0
 32 34  1  0
 36 34  1  0
 36 37  1  0
 37 38  2  0
 38 39  1  0
 39 40  2  0
 40 41  1  0
 41 42  2  0
 42 43  1  0
 43 44  1  0
 44 45  1  0
 45 46  1  0
  1  4  1  0
  4 20  1  0
 20 21  1  0
 21 22  1  0
 22 23  2  0
 23 24  1  0
 24 25  2  0
 25 26  1  0
 26 27  2  0
  4  5  1  0
  5  6  2  0
  5  7  1  0
  9  7  1  0
  9 10  1  0
 10 11  2  0
 11 12  1  0
 12 13  2  0
 13 14  1  0
 14 15  2  0
 15 16  1  0
 16 17  1  0
 17 18  1  0
 54 49  1  0
 44 36  1  0
 27 22  1  0
 17  9  1  0
 42 37  1  0
 15 10  1  0
 34 35  1  0
  7  8  1  0
 18 19  1  0
M  END
> <minimizedAffinity>
-9.88997

> <CNNscore>
0.3615402281

> <CNNaffinity>
8.2245206833

> <CNN_VS>
2.9734950066

> <CNNaffinity_variance>
0.3777544498

$$$$



 54 59  0  0  0  0  0  0  0  0999 V2000
   13.3354   23.2706    4.7661 C   0  0  0  0  0  0  0  0  0  0  0  0
   12.8408   25.5076    5.4376 C   0  0  0  0  0  0  0  0  0  0  0  0
   13.8332   24.4911    5.3769 O   0  0  0  0  0  0  0  0  0  0  0  0
   13.7706   22.0878    5.6553 C   0  0  0  0  0  0  0  0  0  0  0  0
   14.3089   22.6025    7.0003 C   0  0  0  0  0  0  0  0  0  0  0  0
   13.9244   23.6708    7.4732 O   0  0  0  0  0  0  0  0  0  0  0  0
   15.2300   21.7796    7.5899 N   0  0  0  0  0  0  0  0  0  0  0  0
   15.4704   20.9438    7.1285 H   0  0  0  0  0  0  0  0  0  0  0  0
   15.8702   22.0714    8.8551 C   0  0  0  0  0  0  0  0  0  0  0  0
   16.4664   20.8277    9.4611 C   0  0  0  0  0  0  0  0  0  0  0  0
   15.8131   19.8071   10.1353 C   0  0  0  0  0  0  0  0  0  0  0  0
   16.5600   18.7143   10.5807 C   0  0  0  0  0  0  0  0  0  0  0  0
   17.9419   18.6516   10.3484 C   0  0  0  0  0  0  0  0  0  0  0  0
   18.5957   19.6800    9.6679 C   0  0  0  0  0  0  0  0  0  0  0  0
   17.8472   20.7636    9.2377 C   0  0  0  0  0  0  0  0  0  0  0  0
   18.3206   21.9565    8.4726 C   0  0  0  0  0  0  0  0  0  0  0  0
   17.1504   22.9411    8.6682 C   0  0  0  0  0  0  0  0  0  0  0  0
   17.0327   23.8280    7.5557 O   0  0  0  0  0  0  0  0  0  0  0  0
   16.8878   23.3137    6.7461 H   0  0  0  0  0  0  0  0  0  0  0  0
   14.7192   21.2936    4.9304 O   0  0  0  0  0  0  0  0  0  0  0  0
   14.3040   19.9353    4.7831 C   0  0  0  0  0  0  0  0  0  0  0  0
   15.0956   19.3061    3.6677 C   0  0  0  0  0  0  0  0  0  0  0  0
   15.9225   18.2015    3.9137 C   0  0  0  0  0  0  0  0  0  0  0  0
   16.6367   17.6085    2.8711 C   0  0  0  0  0  0  0  0  0  0  0  0
   16.5311   18.1130    1.5755 C   0  0  0  0  0  0  0  0  0  0  0  0
   15.7111   19.2104    1.3190 C   0  0  0  0  0  0  0  0  0  0  0  0
   14.9968   19.8037    2.3599 C   0  0  0  0  0  0  0  0  0  0  0  0
   11.8002   23.4318    4.5651 C   0  0  0  0  0  0  0  0  0  0  0  0
   11.1901   22.3738    5.3482 O   0  0  0  0  0  0  0  0  0  0  0  0
   12.1120   21.4529    5.9166 C   0  0  0  0  0  0  0  0  0  0  0  0
   11.2461   24.8399    4.9304 C   0  0  0  0  0  0  0  0  0  0  0  0
   10.1547   24.7268    6.0174 C   0  0  0  0  0  0  0  0  0  0  0  0
   10.0481   23.7764    6.7901 O   0  0  0  0  0  0  0  0  0  0  0  0
    9.2857   25.7978    6.0520 N   0  0  0  0  0  0  0  0  0  0  0  0
    9.3728   26.5037    5.3714 H   0  0  0  0  0  0  0  0  0  0  0  0
    8.2466   25.9181    7.0596 C   0  0  0  0  0  0  0  0  0  0  0  0
    8.8302   26.5250    8.3041 C   0  0  0  0  0  0  0  0  0  0  0  0
    9.6561   25.9121    9.2343 C   0  0  0  0  0  0  0  0  0  0  0  0
   10.1308   26.6727   10.3040 C   0  0  0  0  0  0  0  0  0  0  0  0
    9.7815   28.0264   10.4272 C   0  0  0  0  0  0  0  0  0  0  0  0
    8.9563   28.6392    9.4808 C   0  0  0  0  0  0  0  0  0  0  0  0
    8.4857   27.8746    8.4265 C   0  0  0  0  0  0  0  0  0  0  0  0
    7.6367   28.3187    7.2804 C   0  0  0  0  0  0  0  0  0  0  0  0
    7.1589   26.9756    6.6829 C   0  0  0  0  0  0  0  0  0  0  0  0
    6.9776   27.1327    5.2692 O   0  0  0  0  0  0  0  0  0  0  0  0
    5.6693   26.7548    4.8484 C   0  0  0  0  0  0  0  0  0  0  0  0
   10.7112   25.5138    3.7834 O   0  0  0  0  0  0  0  0  0  0  0  0
   10.3718   24.6257    2.7176 C   0  0  0  0  0  0  0  0  0  0  0  0
    8.8726   24.5516    2.5799 C   0  0  0  0  0  0  0  0  0  0  0  0
    8.1808   25.4303    1.7326 C   0  0  0  0  0  0  0  0  0  0  0  0
    6.7976   25.3263    1.5774 C   0  0  0  0  0  0  0  0  0  0  0  0
    6.0895   24.3431    2.2661 C   0  0  0  0  0  0  0  0  0  0  0  0
    6.7648   23.4603    3.1072 C   0  0  0  0  0  0  0  0  0  0  0  0
    8.1494   23.5577    3.2572 C   0  0  0  0  0  0  0  0  0  0  0  0
  2  3  1  0
  1  3  1  0
  1 28  1  0
 28 29  1  0
 29 30  1  0
 28 31  1  0
 31 47  1  0
 47 48  1  0
 48 49  1  0
 49 50  2  0
 50 51  1  0
 51 52  2  0
 52 53  1  0
 53 54  2  0
 31 32  1  0
 32 33  2  0
 32 34  1  0
 36 34  1  0
 36 37  1  0
 37 38  2  0
 38 39  1  0
 39 40  2  0
 40 41  1  0
 41 42  2  0
 42 43  1  0
 43 44  1  0
 44 45  1  0
 45 46  1  0
  1  4  1  0
  4 20  1  0
 20 21  1  0
 21 22  1  0
 22 23  2  0
 23 24  1  0
 24 25  2  0
 25 26  1  0
 26 27  2  0
  4  5  1  0
  5  6  2  0
  5  7  1  0
  9  7  1  0
  9 10  1  0
 10 11  2  0
 11 12  1  0
 12 13  2  0
 13 14  1  0
 14 15  2  0
 15 16  1  0
 16 17  1  0
 17 18  1  0
 54 49  1  0
 44 36  1  0
 27 22  1  0
 17  9  1  0
 42 37  1  0
 15 10  1  0
 34 35  1  0
  7  8  1  0
 18 19  1  0
M  END
> <minimizedAffinity>
-10.43499

> <CNNscore>
0.3535041809

> <CNNaffinity>
9.0811185837

> <CNN_VS>
3.2102134228

> <CNNaffinity_variance>
0.3577211201

$$$$
