


 23 25  0  0  0  0  0  0  0  0999 V2000
    8.1679    9.7527    1.8736 S   0  0  0  0  0  0  0  0  0  0  0  0
    7.8233    8.3782    1.5836 O   0  0  0  0  0  0  0  0  0  0  0  0
    7.9013   10.8235    0.9374 O   0  0  0  0  0  0  0  0  0  0  0  0
    4.9839    9.8446    1.2380 C   0  0  0  0  0  0  0  0  0  0  0  0
    4.8885    9.8325    2.7384 C   0  0  0  0  0  0  0  0  0  0  0  0
    3.6023    9.6089    3.2476 C   0  0  0  0  0  0  0  0  0  0  0  0
    3.2667    9.6755    4.5446 N   0  0  0  0  0  0  0  0  0  0  0  0
    4.2588   10.0112    5.3860 C   0  0  0  0  0  0  0  0  0  0  0  0
    5.5858   10.2335    5.0164 C   0  0  0  0  0  0  0  0  0  0  0  0
    6.4963   10.6188    6.0156 C   0  0  0  0  0  0  0  0  0  0  0  0
    7.8262   10.8675    5.7178 C   0  0  0  0  0  0  0  0  0  0  0  0
    8.2733   10.6666    4.4236 C   0  0  0  0  0  0  0  0  0  0  0  0
    7.3891   10.2280    3.4153 C   0  0  0  0  0  0  0  0  0  0  0  0
    5.9739   10.0781    3.6556 C   0  0  0  0  0  0  0  0  0  0  0  0
    9.8423    9.7449    2.2182 N   0  0  0  0  0  0  0  0  0  0  0  0
   10.2804    9.2025    3.5251 C   0  0  0  0  0  0  0  0  0  0  0  0
   10.3369    7.6817    3.5917 C   0  0  0  0  0  0  0  0  0  0  0  0
   10.7000    6.9633    2.2981 C   0  0  0  0  0  0  0  0  0  0  0  0
   11.9690    7.3701    1.7050 N   0  0  0  0  0  0  0  0  0  0  0  0
   12.0726    8.7949    1.3596 C   0  0  0  0  0  0  0  0  0  0  0  0
   10.7715    9.5868    1.0490 C   0  0  0  0  0  0  0  0  0  0  0  0
   11.1514   10.9920    0.5696 C   0  0  0  0  0  0  0  0  0  0  0  0
   12.1061    6.8282    0.8518 H   0  0  0  0  0  0  0  0  0  0  0  0
  4  5  1  0
  5  6  2  0
  6  7  1  0
  7  8  2  0
  8  9  1  0
  9 10  2  0
 10 11  1  0
 11 12  2  0
 12 13  1  0
 13  1  1  0
  1  2  2  0
  1  3  2  0
  1 15  1  0
 15 16  1  0
 16 17  1  0
 17 18  1  0
 18 19  1  0
 19 20  1  0
 20 21  1  0
 21 22  1  0
 13 14  2  0
 14  5  1  0
 14  9  1  0
 21 15  1  0
 19 23  1  0
M  END
> <minimizedAffinity>
-9.37946

> <CNNscore>
0.9916167855

> <CNNaffinity>
6.6505565643

> <CNN_VS>
6.5948033333

> <CNNaffinity_variance>
0.0967128947

$$$$



 23 25  0  0  0  0  0  0  0  0999 V2000
    8.5366    9.7297    1.9649 S   0  0  0  0  0  0  0  0  0  0  0  0
    7.8346    8.5890    1.4191 O   0  0  0  0  0  0  0  0  0  0  0  0
    8.7442   10.9400    1.1992 O   0  0  0  0  0  0  0  0  0  0  0  0
    5.3781    9.9333    1.2351 C   0  0  0  0  0  0  0  0  0  0  0  0
    5.2375    9.9219    2.7319 C   0  0  0  0  0  0  0  0  0  0  0  0
    3.9297    9.7422    3.2019 C   0  0  0  0  0  0  0  0  0  0  0  0
    3.5580    9.8182    4.4886 N   0  0  0  0  0  0  0  0  0  0  0  0
    4.5356   10.1178    5.3600 C   0  0  0  0  0  0  0  0  0  0  0  0
    5.8800   10.2946    5.0307 C   0  0  0  0  0  0  0  0  0  0  0  0
    6.7730   10.6462    6.0577 C   0  0  0  0  0  0  0  0  0  0  0  0
    8.1190   10.8491    5.8003 C   0  0  0  0  0  0  0  0  0  0  0  0
    8.5973   10.6351    4.5195 C   0  0  0  0  0  0  0  0  0  0  0  0
    7.7289   10.2292    3.4841 C   0  0  0  0  0  0  0  0  0  0  0  0
    6.3029   10.1281    3.6817 C   0  0  0  0  0  0  0  0  0  0  0  0
   10.0625    9.1383    2.4593 N   0  0  0  0  0  0  0  0  0  0  0  0
   11.2470    9.5106    1.6516 C   0  0  0  0  0  0  0  0  0  0  0  0
   11.7850   10.9092    1.9257 C   0  0  0  0  0  0  0  0  0  0  0  0
   11.6320   11.4227    3.3519 C   0  0  0  0  0  0  0  0  0  0  0  0
   12.2270   10.5735    4.3778 N   0  0  0  0  0  0  0  0  0  0  0  0
   11.7042    9.2013    4.4378 C   0  0  0  0  0  0  0  0  0  0  0  0
   10.2596    8.9274    3.9331 C   0  0  0  0  0  0  0  0  0  0  0  0
    9.8964    7.4710    4.2423 C   0  0  0  0  0  0  0  0  0  0  0  0
   12.0643   11.0127    5.2839 H   0  0  0  0  0  0  0  0  0  0  0  0
  4  5  1  0
  5  6  2  0
  6  7  1  0
  7  8  2  0
  8  9  1  0
  9 10  2  0
 10 11  1  0
 11 12  2  0
 12 13  1  0
 13  1  1  0
  1  2  2  0
  1  3  2  0
  1 15  1  0
 15 16  1  0
 16 17  1  0
 17 18  1  0
 18 19  1  0
 19 20  1  0
 20 21  1  0
 21 22  1  0
 13 14  2  0
 14  5  1  0
 14  9  1  0
 21 15  1  0
 19 23  1  0
M  END
> <minimizedAffinity>
-8.85882

> <CNNscore>
0.9702121615

> <CNNaffinity>
6.5433030128

> <CNN_VS>
6.3483920097

> <CNNaffinity_variance>
0.0395010039

$$$$



 23 25  0  0  0  0  0  0  0  0999 V2000
   10.2218   10.5271    3.6286 S   0  0  0  0  0  0  0  0  0  0  0  0
   11.0961   10.8544    2.5238 O   0  0  0  0  0  0  0  0  0  0  0  0
    9.9790   11.4530    4.7140 O   0  0  0  0  0  0  0  0  0  0  0  0
    8.3277   10.0946    6.2315 C   0  0  0  0  0  0  0  0  0  0  0  0
    7.2353   10.1973    5.2037 C   0  0  0  0  0  0  0  0  0  0  0  0
    5.9421   10.3324    5.7262 C   0  0  0  0  0  0  0  0  0  0  0  0
    4.8145   10.3208    4.9998 N   0  0  0  0  0  0  0  0  0  0  0  0
    4.9750   10.1363    3.6788 C   0  0  0  0  0  0  0  0  0  0  0  0
    6.2029   10.0155    3.0271 C   0  0  0  0  0  0  0  0  0  0  0  0
    6.1972    9.7847    1.6406 C   0  0  0  0  0  0  0  0  0  0  0  0
    7.3790    9.6427    0.9317 C   0  0  0  0  0  0  0  0  0  0  0  0
    8.5831    9.7984    1.5957 C   0  0  0  0  0  0  0  0  0  0  0  0
    8.6128   10.0841    2.9772 C   0  0  0  0  0  0  0  0  0  0  0  0
    7.4103   10.1161    3.7745 C   0  0  0  0  0  0  0  0  0  0  0  0
   10.8372    9.0752    4.2885 N   0  0  0  0  0  0  0  0  0  0  0  0
   10.0133    7.8506    4.1627 C   0  0  0  0  0  0  0  0  0  0  0  0
   10.0899    7.1744    2.7998 C   0  0  0  0  0  0  0  0  0  0  0  0
   11.4194    7.2881    2.0646 C   0  0  0  0  0  0  0  0  0  0  0  0
   12.5750    6.7938    2.8049 N   0  0  0  0  0  0  0  0  0  0  0  0
   12.8252    7.4556    4.0931 C   0  0  0  0  0  0  0  0  0  0  0  0
   12.3304    8.9155    4.2938 C   0  0  0  0  0  0  0  0  0  0  0  0
   12.8436    9.4296    5.6433 C   0  0  0  0  0  0  0  0  0  0  0  0
   13.4012    6.9196    2.2202 H   0  0  0  0  0  0  0  0  0  0  0  0
  4  5  1  0
  5  6  2  0
  6  7  1  0
  7  8  2  0
  8  9  1  0
  9 10  2  0
 10 11  1  0
 11 12  2  0
 12 13  1  0
 13  1  1  0
  1  2  2  0
  1  3  2  0
  1 15  1  0
 15 16  1  0
 16 17  1  0
 17 18  1  0
 18 19  1  0
 19 20  1  0
 20 21  1  0
 21 22  1  0
 13 14  2  0
 14  5  1  0
 14  9  1  0
 21 15  1  0
 19 23  1  0
M  END
> <minimizedAffinity>
-8.36319

> <CNNscore>
0.9577417970

> <CNNaffinity>
6.0838990211

> <CNN_VS>
5.8268041611

> <CNNaffinity_variance>
0.1627682894

$$$$



 23 25  0  0  0  0  0  0  0  0999 V2000
    8.1319   10.4269    1.9186 S   0  0  0  0  0  0  0  0  0  0  0  0
    8.1521   11.3340    0.7923 O   0  0  0  0  0  0  0  0  0  0  0  0
    8.6713   10.7961    3.2097 O   0  0  0  0  0  0  0  0  0  0  0  0
    7.8687   10.1184    5.1413 C   0  0  0  0  0  0  0  0  0  0  0  0
    6.3998   10.1326    4.8207 C   0  0  0  0  0  0  0  0  0  0  0  0
    5.5538   10.2725    5.9290 C   0  0  0  0  0  0  0  0  0  0  0  0
    4.2155   10.1910    5.8896 N   0  0  0  0  0  0  0  0  0  0  0  0
    3.6837    9.9273    4.6843 C   0  0  0  0  0  0  0  0  0  0  0  0
    4.4068    9.7921    3.4986 C   0  0  0  0  0  0  0  0  0  0  0  0
    3.7015    9.4744    2.3250 C   0  0  0  0  0  0  0  0  0  0  0  0
    4.3567    9.3136    1.1150 C   0  0  0  0  0  0  0  0  0  0  0  0
    5.7212    9.5366    1.0556 C   0  0  0  0  0  0  0  0  0  0  0  0
    6.4417    9.9092    2.2100 C   0  0  0  0  0  0  0  0  0  0  0  0
    5.8197    9.9654    3.5111 C   0  0  0  0  0  0  0  0  0  0  0  0
    8.9325    9.0134    1.3861 N   0  0  0  0  0  0  0  0  0  0  0  0
    9.2695    8.9056   -0.0523 C   0  0  0  0  0  0  0  0  0  0  0  0
   10.5152    9.6768   -0.4693 C   0  0  0  0  0  0  0  0  0  0  0  0
   11.6190    9.7900    0.5747 C   0  0  0  0  0  0  0  0  0  0  0  0
   12.1093    8.5168    1.0908 N   0  0  0  0  0  0  0  0  0  0  0  0
   11.0969    7.6695    1.7366 C   0  0  0  0  0  0  0  0  0  0  0  0
    9.8486    8.3449    2.3706 C   0  0  0  0  0  0  0  0  0  0  0  0
    9.0319    7.2788    3.1088 C   0  0  0  0  0  0  0  0  0  0  0  0
   12.8386    8.7144    1.7760 H   0  0  0  0  0  0  0  0  0  0  0  0
  4  5  1  0
  5  6  2  0
  6  7  1  0
  7  8  2  0
  8  9  1  0
  9 10  2  0
 10 11  1  0
 11 12  2  0
 12 13  1  0
 13  1  1  0
  1  2  2  0
  1  3  2  0
  1 15  1  0
 15 16  1  0
 16 17  1  0
 17 18  1  0
 18 19  1  0
 19 20  1  0
 20 21  1  0
 21 22  1  0
 13 14  2  0
 14  5  1  0
 14  9  1  0
 21 15  1  0
 19 23  1  0
M  END
> <minimizedAffinity>
-8.01269

> <CNNscore>
0.9374099374

> <CNNaffinity>
6.4946045876

> <CNN_VS>
6.0881071091

> <CNNaffinity_variance>
0.1371278167

$$$$



 23 25  0  0  0  0  0  0  0  0999 V2000
   10.7438   10.2912    2.4403 S   0  0  0  0  0  0  0  0  0  0  0  0
   11.2309   10.9329    1.2391 O   0  0  0  0  0  0  0  0  0  0  0  0
   10.9215   10.8806    3.7500 O   0  0  0  0  0  0  0  0  0  0  0  0
    9.5692   10.2006    5.4672 C   0  0  0  0  0  0  0  0  0  0  0  0
    8.2590   10.3659    4.7487 C   0  0  0  0  0  0  0  0  0  0  0  0
    7.1661   10.6659    5.5729 C   0  0  0  0  0  0  0  0  0  0  0  0
    5.8909   10.7374    5.1629 N   0  0  0  0  0  0  0  0  0  0  0  0
    5.6814   10.4682    3.8635 C   0  0  0  0  0  0  0  0  0  0  0  0
    6.6789   10.1826    2.9305 C   0  0  0  0  0  0  0  0  0  0  0  0
    6.2884    9.8817    1.6141 C   0  0  0  0  0  0  0  0  0  0  0  0
    7.2246    9.5771    0.6395 C   0  0  0  0  0  0  0  0  0  0  0  0
    8.5698    9.6373    0.9586 C   0  0  0  0  0  0  0  0  0  0  0  0
    8.9871    9.9898    2.2596 C   0  0  0  0  0  0  0  0  0  0  0  0
    8.0442   10.1920    3.3333 C   0  0  0  0  0  0  0  0  0  0  0  0
   11.4518    8.7353    2.4508 N   0  0  0  0  0  0  0  0  0  0  0  0
   12.5481    8.4640    1.4923 C   0  0  0  0  0  0  0  0  0  0  0  0
   13.9079    9.0025    1.9181 C   0  0  0  0  0  0  0  0  0  0  0  0
   14.1831    9.0300    3.4164 C   0  0  0  0  0  0  0  0  0  0  0  0
   14.0512    7.7424    4.0888 N   0  0  0  0  0  0  0  0  0  0  0  0
   12.7279    7.1117    3.9835 C   0  0  0  0  0  0  0  0  0  0  0  0
   11.4820    8.0162    3.7689 C   0  0  0  0  0  0  0  0  0  0  0  0
   10.2218    7.1477    3.8484 C   0  0  0  0  0  0  0  0  0  0  0  0
   14.2564    7.8811    5.0783 H   0  0  0  0  0  0  0  0  0  0  0  0
  4  5  1  0
  5  6  2  0
  6  7  1  0
  7  8  2  0
  8  9  1  0
  9 10  2  0
 10 11  1  0
 11 12  2  0
 12 13  1  0
 13  1  1  0
  1  2  2  0
  1  3  2  0
  1 15  1  0
 15 16  1  0
 16 17  1  0
 17 18  1  0
 18 19  1  0
 19 20  1  0
 20 21  1  0
 21 22  1  0
 13 14  2  0
 14  5  1  0
 14  9  1  0
 21 15  1  0
 19 23  1  0
M  END
> <minimizedAffinity>
-7.71008

> <CNNscore>
0.5748460889

> <CNNaffinity>
5.9997038841

> <CNN_VS>
3.4489064217

> <CNNaffinity_variance>
0.0346666910

$$$$



 23 25  0  0  0  0  0  0  0  0999 V2000
    9.9083    8.5812    3.0428 S   0  0  0  0  0  0  0  0  0  0  0  0
   10.7516    7.8594    3.9700 O   0  0  0  0  0  0  0  0  0  0  0  0
    9.2596    7.9261    1.9274 O   0  0  0  0  0  0  0  0  0  0  0  0
    7.7043    9.4674    0.8276 C   0  0  0  0  0  0  0  0  0  0  0  0
    6.8408    9.6338    2.0471 C   0  0  0  0  0  0  0  0  0  0  0  0
    5.4769    9.8199    1.7853 C   0  0  0  0  0  0  0  0  0  0  0  0
    4.5486   10.1061    2.7104 N   0  0  0  0  0  0  0  0  0  0  0  0
    5.0027   10.2440    3.9672 C   0  0  0  0  0  0  0  0  0  0  0  0
    6.3263   10.0598    4.3687 C   0  0  0  0  0  0  0  0  0  0  0  0
    6.6462   10.2832    5.7191 C   0  0  0  0  0  0  0  0  0  0  0  0
    7.9421   10.1308    6.1845 C   0  0  0  0  0  0  0  0  0  0  0  0
    8.9206    9.6861    5.3128 C   0  0  0  0  0  0  0  0  0  0  0  0
    8.6114    9.4036    3.9654 C   0  0  0  0  0  0  0  0  0  0  0  0
    7.3049    9.6679    3.4121 C   0  0  0  0  0  0  0  0  0  0  0  0
   10.8768    9.8502    2.4312 N   0  0  0  0  0  0  0  0  0  0  0  0
   11.4120   10.8415    3.3931 C   0  0  0  0  0  0  0  0  0  0  0  0
   12.6416   10.3759    4.1625 C   0  0  0  0  0  0  0  0  0  0  0  0
   13.5827    9.4334    3.4228 C   0  0  0  0  0  0  0  0  0  0  0  0
   14.0925    9.9443    2.1552 N   0  0  0  0  0  0  0  0  0  0  0  0
   13.0683   10.2782    1.1554 C   0  0  0  0  0  0  0  0  0  0  0  0
   11.6989    9.5447    1.2122 C   0  0  0  0  0  0  0  0  0  0  0  0
   10.8719    9.9476   -0.0136 C   0  0  0  0  0  0  0  0  0  0  0  0
   14.7058    9.2352    1.7534 H   0  0  0  0  0  0  0  0  0  0  0  0
  4  5  1  0
  5  6  2  0
  6  7  1  0
  7  8  2  0
  8  9  1  0
  9 10  2  0
 10 11  1  0
 11 12  2  0
 12 13  1  0
 13  1  1  0
  1  2  2  0
  1  3  2  0
  1 15  1  0
 15 16  1  0
 16 17  1  0
 17 18  1  0
 18 19  1  0
 19 20  1  0
 20 21  1  0
 21 22  1  0
 13 14  2  0
 14  5  1  0
 14  9  1  0
 21 15  1  0
 19 23  1  0
M  END
> <minimizedAffinity>
-8.44843

> <CNNscore>
0.3183436096

> <CNNaffinity>
5.8720340729

> <CNN_VS>
1.8693245649

> <CNNaffinity_variance>
0.1162062511

$$$$



 23 25  0  0  0  0  0  0  0  0999 V2000
   10.3512    9.3836    3.9288 S   0  0  0  0  0  0  0  0  0  0  0  0
   10.5444   10.3362    4.9999 O   0  0  0  0  0  0  0  0  0  0  0  0
   10.3660    7.9554    4.1615 O   0  0  0  0  0  0  0  0  0  0  0  0
    8.0480    8.6620    6.1024 C   0  0  0  0  0  0  0  0  0  0  0  0
    7.1941    9.4721    5.1671 C   0  0  0  0  0  0  0  0  0  0  0  0
    5.9291    9.8118    5.6652 C   0  0  0  0  0  0  0  0  0  0  0  0
    4.9647   10.4235    4.9616 N   0  0  0  0  0  0  0  0  0  0  0  0
    5.2606   10.6904    3.6786 C   0  0  0  0  0  0  0  0  0  0  0  0
    6.4869   10.4309    3.0654 C   0  0  0  0  0  0  0  0  0  0  0  0
    6.6219   10.7337    1.6994 C   0  0  0  0  0  0  0  0  0  0  0  0
    7.8069   10.4911    1.0241 C   0  0  0  0  0  0  0  0  0  0  0  0
    8.8936   10.0038    1.7288 C   0  0  0  0  0  0  0  0  0  0  0  0
    8.7977    9.7432    3.1123 C   0  0  0  0  0  0  0  0  0  0  0  0
    7.5488    9.8640    3.8253 C   0  0  0  0  0  0  0  0  0  0  0  0
   11.5481    9.7506    2.7646 N   0  0  0  0  0  0  0  0  0  0  0  0
   12.2828    8.6238    2.1442 C   0  0  0  0  0  0  0  0  0  0  0  0
   11.5255    7.9122    1.0303 C   0  0  0  0  0  0  0  0  0  0  0  0
   10.5883    8.7748    0.1945 C   0  0  0  0  0  0  0  0  0  0  0  0
   11.2175    9.9263   -0.4425 N   0  0  0  0  0  0  0  0  0  0  0  0
   11.8536   10.8817    0.4753 C   0  0  0  0  0  0  0  0  0  0  0  0
   11.3273   10.9825    1.9346 C   0  0  0  0  0  0  0  0  0  0  0  0
   12.0385   12.1443    2.6368 C   0  0  0  0  0  0  0  0  0  0  0  0
   10.5011   10.4252   -0.9701 H   0  0  0  0  0  0  0  0  0  0  0  0
  4  5  1  0
  5  6  2  0
  6  7  1  0
  7  8  2  0
  8  9  1  0
  9 10  2  0
 10 11  1  0
 11 12  2  0
 12 13  1  0
 13  1  1  0
  1  2  2  0
  1  3  2  0
  1 15  1  0
 15 16  1  0
 16 17  1  0
 17 18  1  0
 18 19  1  0
 19 20  1  0
 20 21  1  0
 21 22  1  0
 13 14  2  0
 14  5  1  0
 14  9  1  0
 21 15  1  0
 19 23  1  0
M  END
> <minimizedAffinity>
-7.16894

> <CNNscore>
0.3054354191

> <CNNaffinity>
5.9732470512

> <CNN_VS>
1.8244411945

> <CNNaffinity_variance>
0.0637685731

$$$$



 23 25  0  0  0  0  0  0  0  0999 V2000
   10.3816    9.9075    4.0549 S   0  0  0  0  0  0  0  0  0  0  0  0
   10.0897   11.2653    4.4589 O   0  0  0  0  0  0  0  0  0  0  0  0
   10.1904    8.7845    4.9474 O   0  0  0  0  0  0  0  0  0  0  0  0
    7.2652    9.9332    4.9700 C   0  0  0  0  0  0  0  0  0  0  0  0
    7.0389   10.0144    3.4859 C   0  0  0  0  0  0  0  0  0  0  0  0
    5.7255   10.3180    3.1035 C   0  0  0  0  0  0  0  0  0  0  0  0
    5.2743   10.3228    1.8403 N   0  0  0  0  0  0  0  0  0  0  0  0
    6.1709    9.9790    0.9007 C   0  0  0  0  0  0  0  0  0  0  0  0
    7.5127    9.6807    1.1407 C   0  0  0  0  0  0  0  0  0  0  0  0
    8.3117    9.2979    0.0494 C   0  0  0  0  0  0  0  0  0  0  0  0
    9.6488    8.9763    0.2166 C   0  0  0  0  0  0  0  0  0  0  0  0
   10.2173    9.1006    1.4721 C   0  0  0  0  0  0  0  0  0  0  0  0
    9.4478    9.5350    2.5721 C   0  0  0  0  0  0  0  0  0  0  0  0
    8.0261    9.7594    2.4660 C   0  0  0  0  0  0  0  0  0  0  0  0
   12.0142    9.9186    3.5478 N   0  0  0  0  0  0  0  0  0  0  0  0
   12.9692    9.0387    4.2603 C   0  0  0  0  0  0  0  0  0  0  0  0
   12.9249    7.5780    3.8302 C   0  0  0  0  0  0  0  0  0  0  0  0
   12.5761    7.3154    2.3705 C   0  0  0  0  0  0  0  0  0  0  0  0
   13.4454    7.9753    1.4028 N   0  0  0  0  0  0  0  0  0  0  0  0
   13.4913    9.4412    1.4975 C   0  0  0  0  0  0  0  0  0  0  0  0
   12.2673   10.1921    2.0930 C   0  0  0  0  0  0  0  0  0  0  0  0
   12.4914   11.7005    1.9403 C   0  0  0  0  0  0  0  0  0  0  0  0
   13.1198    7.7299    0.4679 H   0  0  0  0  0  0  0  0  0  0  0  0
  4  5  1  0
  5  6  2  0
  6  7  1  0
  7  8  2  0
  8  9  1  0
  9 10  2  0
 10 11  1  0
 11 12  2  0
 12 13  1  0
 13  1  1  0
  1  2  2  0
  1  3  2  0
  1 15  1  0
 15 16  1  0
 16 17  1  0
 17 18  1  0
 18 19  1  0
 19 20  1  0
 20 21  1  0
 21 22  1  0
 13 14  2  0
 14  5  1  0
 14  9  1  0
 21 15  1  0
 19 23  1  0
M  END
> <minimizedAffinity>
-7.72235

> <CNNscore>
0.2796511948

> <CNNaffinity>
6.0602016449

> <CNN_VS>
1.6947426796

> <CNNaffinity_variance>
0.1749762148

$$$$



 23 25  0  0  0  0  0  0  0  0999 V2000
   10.7671   10.5880    3.4750 S   0  0  0  0  0  0  0  0  0  0  0  0
   11.6806   11.0100    2.4361 O   0  0  0  0  0  0  0  0  0  0  0  0
   10.5344   11.3843    4.6607 O   0  0  0  0  0  0  0  0  0  0  0  0
   11.1700   11.0722    0.2885 C   0  0  0  0  0  0  0  0  0  0  0  0
    9.8534   10.3499    0.2165 C   0  0  0  0  0  0  0  0  0  0  0  0
    9.4667    9.9516   -1.0701 C   0  0  0  0  0  0  0  0  0  0  0  0
    8.2830    9.4029   -1.3817 N   0  0  0  0  0  0  0  0  0  0  0  0
    7.4187    9.2657   -0.3624 C   0  0  0  0  0  0  0  0  0  0  0  0
    7.6847    9.5953    0.9672 C   0  0  0  0  0  0  0  0  0  0  0  0
    6.6552    9.4290    1.9097 C   0  0  0  0  0  0  0  0  0  0  0  0
    6.8456    9.7474    3.2445 C   0  0  0  0  0  0  0  0  0  0  0  0
    8.0946   10.1732    3.6615 C   0  0  0  0  0  0  0  0  0  0  0  0
    9.1584   10.2960    2.7427 C   0  0  0  0  0  0  0  0  0  0  0  0
    8.9685   10.0946    1.3263 C   0  0  0  0  0  0  0  0  0  0  0  0
   11.3080    9.0417    3.9638 N   0  0  0  0  0  0  0  0  0  0  0  0
   10.5477    7.8596    3.4961 C   0  0  0  0  0  0  0  0  0  0  0  0
   10.8585    7.4328    2.0672 C   0  0  0  0  0  0  0  0  0  0  0  0
   12.2847    7.6715    1.5874 C   0  0  0  0  0  0  0  0  0  0  0  0
   13.3203    7.0531    2.4077 N   0  0  0  0  0  0  0  0  0  0  0  0
   13.3443    7.4782    3.8143 C   0  0  0  0  0  0  0  0  0  0  0  0
   12.7850    8.8812    4.1825 C   0  0  0  0  0  0  0  0  0  0  0  0
   13.0627    9.1497    5.6655 C   0  0  0  0  0  0  0  0  0  0  0  0
   14.2255    7.2782    1.9949 H   0  0  0  0  0  0  0  0  0  0  0  0
  4  5  1  0
  5  6  2  0
  6  7  1  0
  7  8  2  0
  8  9  1  0
  9 10  2  0
 10 11  1  0
 11 12  2  0
 12 13  1  0
 13  1  1  0
  1  2  2  0
  1  3  2  0
  1 15  1  0
 15 16  1  0
 16 17  1  0
 17 18  1  0
 18 19  1  0
 19 20  1  0
 20 21  1  0
 21 22  1  0
 13 14  2  0
 14  5  1  0
 14  9  1  0
 21 15  1  0
 19 23  1  0
M  END
> <minimizedAffinity>
-7.34138

> <CNNscore>
0.2475993782

> <CNNaffinity>
5.0145735741

> <CNN_VS>
1.2416052818

> <CNNaffinity_variance>
0.5109924078

$$$$
