


 33 36  0  0  0  0  0  0  0  0999 V2000
   18.6316   17.2785   16.9089 C   0  0  0  0  0  0  0  0  0  0  0  0
   17.4672   16.8183   17.2945 N   0  0  0  0  0  0  0  0  0  0  0  0
   17.4863   16.8503   18.6700 C   0  0  0  0  0  0  0  0  0  0  0  0
   16.4923   16.4584   19.5935 C   0  0  0  0  0  0  0  0  0  0  0  0
   16.7670   16.6406   20.9734 C   0  0  0  0  0  0  0  0  0  0  0  0
   15.7730   16.2872   21.9086 N   0  0  0  0  0  0  0  0  0  0  0  0
   16.0016   16.4580   23.1676 C   0  0  0  0  0  0  0  0  0  0  0  0
   15.0633   16.1317   24.0880 N   0  0  0  0  0  0  0  0  0  0  0  0
   17.1681   16.9724   23.6372 N   0  0  0  0  0  0  0  0  0  0  0  0
   18.2238   17.3223   22.8336 C   0  0  0  0  0  0  0  0  0  0  0  0
   19.2744   17.7298   23.3125 O   0  0  0  0  0  0  0  0  0  0  0  0
   18.0019   17.1675   21.3865 C   0  0  0  0  0  0  0  0  0  0  0  0
   18.9842   17.5345   20.4674 C   0  0  0  0  0  0  0  0  0  0  0  0
   20.1683   18.0425   20.8331 F   0  0  0  0  0  0  0  0  0  0  0  0
   18.6908   17.3658   19.1222 C   0  0  0  0  0  0  0  0  0  0  0  0
   19.4022   17.6339   17.9830 N   0  0  0  0  0  0  0  0  0  0  0  0
   14.2006   15.7553   23.7993 H   0  0  0  0  0  0  0  0  0  0  0  0
   15.2438   16.2710   25.0457 H   0  0  0  0  0  0  0  0  0  0  0  0
   17.2612   17.1013   24.6088 H   0  0  0  0  0  0  0  0  0  0  0  0
   20.3089   18.0155   17.9435 H   0  0  0  0  0  0  0  0  0  0  0  0
   18.1303   17.9406   14.6275 C   0  0  0  0  0  0  0  0  0  0  0  0
   19.0441   17.4426   15.6357 N   0  0  0  0  0  0  0  0  0  0  0  0
   19.9716   17.2228   15.3896 H   0  0  0  0  0  0  0  0  0  0  0  0
   15.1681   15.9005   19.1200 C   0  0  0  0  0  0  0  0  0  0  0  0
   15.2679   14.3929   18.8507 C   0  0  0  0  0  0  0  0  0  0  0  0
   14.0225   13.7600   18.3939 N   0  0  0  0  0  0  0  0  0  0  0  0
   13.6297   13.2335   19.1742 H   0  0  0  0  0  0  0  0  0  0  0  0
   12.9990   14.6913   17.9118 C   0  0  0  0  0  0  0  0  0  0  0  0
   11.5505   14.2852   18.2049 C   0  0  0  0  0  0  0  0  0  0  0  0
   10.7026   15.4565   18.6991 C   0  0  0  0  0  0  0  0  0  0  0  0
    9.2817   14.9302   18.5667 C   0  0  0  0  0  0  0  0  0  0  0  0
    9.2975   14.0467   17.3215 C   0  0  0  0  0  0  0  0  0  0  0  0
   10.7687   13.8045   16.9813 C   0  0  0  0  0  0  0  0  0  0  0  0
 21 22  1  0
 22  1  1  0
  1  2  2  0
  2  3  1  0
  3  4  2  0
  4 24  1  0
 24 25  1  0
 25 26  1  0
 26 28  1  0
 28 29  1  0
 29 30  1  0
 30 31  1  0
 31 32  1  0
 32 33  1  0
  4  5  1  0
  5  6  1  0
  6  7  2  0
  7  8  1  0
  7  9  1  0
  9 10  1  0
 10 11  2  0
 10 12  1  0
 12 13  1  0
 13 14  1  0
 13 15  2  0
 15 16  1  0
 16  1  1  0
 15  3  1  0
 33 29  1  0
 12  5  2  0
 22 23  1  0
 26 27  1  0
  8 17  1  0
  8 18  1  0
  9 19  1  0
 16 20  1  0
M  END
> <minimizedAffinity>
-10.61058

> <CNNscore>
0.9978559017

> <CNNaffinity>
8.2308702469

> <CNN_VS>
8.2132225037

> <CNNaffinity_variance>
0.4475199878

$$$$



 33 36  0  0  0  0  0  0  0  0999 V2000
   18.6191   17.2431   17.0661 C   0  0  0  0  0  0  0  0  0  0  0  0
   17.4284   16.8425   17.4380 N   0  0  0  0  0  0  0  0  0  0  0  0
   17.4386   16.8578   18.8138 C   0  0  0  0  0  0  0  0  0  0  0  0
   16.4177   16.5100   19.7256 C   0  0  0  0  0  0  0  0  0  0  0  0
   16.6912   16.6613   21.1095 C   0  0  0  0  0  0  0  0  0  0  0  0
   15.6723   16.3518   22.0333 N   0  0  0  0  0  0  0  0  0  0  0  0
   15.9001   16.4956   23.2959 C   0  0  0  0  0  0  0  0  0  0  0  0
   14.9383   16.2103   24.2056 N   0  0  0  0  0  0  0  0  0  0  0  0
   17.0891   16.9405   23.7798 N   0  0  0  0  0  0  0  0  0  0  0  0
   18.1684   17.2417   22.9879 C   0  0  0  0  0  0  0  0  0  0  0  0
   19.2358   17.5860   23.4790 O   0  0  0  0  0  0  0  0  0  0  0  0
   17.9496   17.1156   21.5376 C   0  0  0  0  0  0  0  0  0  0  0  0
   18.9574   17.4391   20.6298 C   0  0  0  0  0  0  0  0  0  0  0  0
   20.1645   17.8778   21.0099 F   0  0  0  0  0  0  0  0  0  0  0  0
   18.6658   17.3019   19.2807 C   0  0  0  0  0  0  0  0  0  0  0  0
   19.3994   17.5439   18.1498 N   0  0  0  0  0  0  0  0  0  0  0  0
   14.0588   15.8846   23.9064 H   0  0  0  0  0  0  0  0  0  0  0  0
   15.1187   16.3286   25.1662 H   0  0  0  0  0  0  0  0  0  0  0  0
   17.1815   17.0530   24.7535 H   0  0  0  0  0  0  0  0  0  0  0  0
   20.3258   17.8761   18.1213 H   0  0  0  0  0  0  0  0  0  0  0  0
   18.2120   18.0560   14.8149 C   0  0  0  0  0  0  0  0  0  0  0  0
   19.0496   17.3991   15.7979 N   0  0  0  0  0  0  0  0  0  0  0  0
   19.9384   17.0647   15.5383 H   0  0  0  0  0  0  0  0  0  0  0  0
   15.0689   16.0303   19.2361 C   0  0  0  0  0  0  0  0  0  0  0  0
   14.9697   16.1253   17.7076 C   0  0  0  0  0  0  0  0  0  0  0  0
   14.2726   15.0050   17.0599 N   0  0  0  0  0  0  0  0  0  0  0  0
   13.9597   14.3629   17.7879 H   0  0  0  0  0  0  0  0  0  0  0  0
   13.1074   15.3859   16.2569 C   0  0  0  0  0  0  0  0  0  0  0  0
   13.4216   15.9204   14.8553 C   0  0  0  0  0  0  0  0  0  0  0  0
   13.5007   17.4459   14.8146 C   0  0  0  0  0  0  0  0  0  0  0  0
   14.1667   17.7184   13.4745 C   0  0  0  0  0  0  0  0  0  0  0  0
   15.1555   16.5714   13.2795 C   0  0  0  0  0  0  0  0  0  0  0  0
   14.7893   15.5040   14.3117 C   0  0  0  0  0  0  0  0  0  0  0  0
 21 22  1  0
 22  1  1  0
  1  2  2  0
  2  3  1  0
  3  4  2  0
  4 24  1  0
 24 25  1  0
 25 26  1  0
 26 28  1  0
 28 29  1  0
 29 30  1  0
 30 31  1  0
 31 32  1  0
 32 33  1  0
  4  5  1  0
  5  6  1  0
  6  7  2  0
  7  8  1  0
  7  9  1  0
  9 10  1  0
 10 11  2  0
 10 12  1  0
 12 13  1  0
 13 14  1  0
 13 15  2  0
 15 16  1  0
 16  1  1  0
 15  3  1  0
 33 29  1  0
 12  5  2  0
 22 23  1  0
 26 27  1  0
  8 17  1  0
  8 18  1  0
  9 19  1  0
 16 20  1  0
M  END
> <minimizedAffinity>
-9.65827

> <CNNscore>
0.9860563278

> <CNNaffinity>
7.9892764091

> <CNN_VS>
7.8778767586

> <CNNaffinity_variance>
0.3274865150

$$$$



 33 36  0  0  0  0  0  0  0  0999 V2000
   15.3753   16.4980   23.5279 C   0  0  0  0  0  0  0  0  0  0  0  0
   15.0105   16.2201   22.3006 N   0  0  0  0  0  0  0  0  0  0  0  0
   16.0802   16.5587   21.5040 C   0  0  0  0  0  0  0  0  0  0  0  0
   16.2212   16.4724   20.1015 C   0  0  0  0  0  0  0  0  0  0  0  0
   17.4656   16.8580   19.5398 C   0  0  0  0  0  0  0  0  0  0  0  0
   17.6366   16.7460   18.1449 N   0  0  0  0  0  0  0  0  0  0  0  0
   18.7669   17.0808   17.6186 C   0  0  0  0  0  0  0  0  0  0  0  0
   18.9608   16.9792   16.2822 N   0  0  0  0  0  0  0  0  0  0  0  0
   19.8120   17.5375   18.3567 N   0  0  0  0  0  0  0  0  0  0  0  0
   19.7607   17.7237   19.7152 C   0  0  0  0  0  0  0  0  0  0  0  0
   20.7139   18.1908   20.3253 O   0  0  0  0  0  0  0  0  0  0  0  0
   18.4986   17.3332   20.3647 C   0  0  0  0  0  0  0  0  0  0  0  0
   18.3432   17.4319   21.7469 C   0  0  0  0  0  0  0  0  0  0  0  0
   19.3121   17.8777   22.5571 F   0  0  0  0  0  0  0  0  0  0  0  0
   17.1261   17.0336   22.2798 C   0  0  0  0  0  0  0  0  0  0  0  0
   16.6549   16.9827   23.5648 N   0  0  0  0  0  0  0  0  0  0  0  0
   18.2345   16.6535   15.7028 H   0  0  0  0  0  0  0  0  0  0  0  0
   19.8280   17.2311   15.8900 H   0  0  0  0  0  0  0  0  0  0  0  0
   20.6536   17.7467   17.8907 H   0  0  0  0  0  0  0  0  0  0  0  0
   17.1498   17.2481   24.3734 H   0  0  0  0  0  0  0  0  0  0  0  0
   13.4641   17.1128   24.8932 C   0  0  0  0  0  0  0  0  0  0  0  0
   14.6411   16.3058   24.6424 N   0  0  0  0  0  0  0  0  0  0  0  0
   14.9064   15.6130   25.2896 H   0  0  0  0  0  0  0  0  0  0  0  0
   15.0943   15.9498   19.2378 C   0  0  0  0  0  0  0  0  0  0  0  0
   15.3034   14.4692   18.8924 C   0  0  0  0  0  0  0  0  0  0  0  0
   14.0814   13.7379   18.5288 N   0  0  0  0  0  0  0  0  0  0  0  0
   13.6536   13.3892   19.3865 H   0  0  0  0  0  0  0  0  0  0  0  0
   13.0800   14.5303   17.8099 C   0  0  0  0  0  0  0  0  0  0  0  0
   11.6206   14.2156   18.1564 C   0  0  0  0  0  0  0  0  0  0  0  0
   10.8535   15.4477   18.6343 C   0  0  0  0  0  0  0  0  0  0  0  0
    9.4025   14.9980   18.5590 C   0  0  0  0  0  0  0  0  0  0  0  0
    9.3328   14.0758   17.3440 C   0  0  0  0  0  0  0  0  0  0  0  0
   10.7778   13.7408   16.9716 C   0  0  0  0  0  0  0  0  0  0  0  0
 21 22  1  0
 22  1  1  0
  1  2  2  0
  2  3  1  0
  3  4  2  0
  4 24  1  0
 24 25  1  0
 25 26  1  0
 26 28  1  0
 28 29  1  0
 29 30  1  0
 30 31  1  0
 31 32  1  0
 32 33  1  0
  4  5  1  0
  5  6  1  0
  6  7  2  0
  7  8  1  0
  7  9  1  0
  9 10  1  0
 10 11  2  0
 10 12  1  0
 12 13  1  0
 13 14  1  0
 13 15  2  0
 15 16  1  0
 16  1  1  0
 15  3  1  0
 33 29  1  0
 12  5  2  0
 22 23  1  0
 26 27  1  0
  8 17  1  0
  8 18  1  0
  9 19  1  0
 16 20  1  0
M  END
> <minimizedAffinity>
-6.69317

> <CNNscore>
0.9245579243

> <CNNaffinity>
7.7571296692

> <CNN_VS>
7.1719155312

> <CNNaffinity_variance>
0.3343086243

$$$$



 33 36  0  0  0  0  0  0  0  0999 V2000
   18.0127   18.3895   14.4291 C   0  0  0  0  0  0  0  0  0  0  0  0
   17.9757   18.0428   15.6920 N   0  0  0  0  0  0  0  0  0  0  0  0
   16.8152   17.3207   15.8504 C   0  0  0  0  0  0  0  0  0  0  0  0
   16.2806   16.7188   17.0108 C   0  0  0  0  0  0  0  0  0  0  0  0
   15.0706   15.9903   16.8770 C   0  0  0  0  0  0  0  0  0  0  0  0
   14.5402   15.3537   18.0175 N   0  0  0  0  0  0  0  0  0  0  0  0
   13.4464   14.6762   17.9108 C   0  0  0  0  0  0  0  0  0  0  0  0
   12.9165   14.0505   18.9886 N   0  0  0  0  0  0  0  0  0  0  0  0
   12.7781   14.5441   16.7353 N   0  0  0  0  0  0  0  0  0  0  0  0
   13.1718   15.1418   15.5646 C   0  0  0  0  0  0  0  0  0  0  0  0
   12.5025   15.0358   14.5450 O   0  0  0  0  0  0  0  0  0  0  0  0
   14.4280   15.9067   15.6307 C   0  0  0  0  0  0  0  0  0  0  0  0
   14.9544   16.5200   14.4943 C   0  0  0  0  0  0  0  0  0  0  0  0
   14.3649   16.4534   13.2935 F   0  0  0  0  0  0  0  0  0  0  0  0
   16.1471   17.2127   14.6408 C   0  0  0  0  0  0  0  0  0  0  0  0
   16.9301   17.8983   13.7504 N   0  0  0  0  0  0  0  0  0  0  0  0
   13.3625   14.1151   19.8639 H   0  0  0  0  0  0  0  0  0  0  0  0
   12.0853   13.5310   18.8969 H   0  0  0  0  0  0  0  0  0  0  0  0
   11.9656   13.9883   16.7228 H   0  0  0  0  0  0  0  0  0  0  0  0
   16.7466   18.0170   12.7905 H   0  0  0  0  0  0  0  0  0  0  0  0
   19.8321   18.4707   12.8236 C   0  0  0  0  0  0  0  0  0  0  0  0
   18.9885   19.0951   13.8226 N   0  0  0  0  0  0  0  0  0  0  0  0
   19.1287   20.0403   14.0599 H   0  0  0  0  0  0  0  0  0  0  0  0
   16.9982   16.8187   18.3390 C   0  0  0  0  0  0  0  0  0  0  0  0
   18.4974   17.0792   18.1392 C   0  0  0  0  0  0  0  0  0  0  0  0
   19.3480   16.7178   19.2821 N   0  0  0  0  0  0  0  0  0  0  0  0
   20.3195   16.8828   19.0189 H   0  0  0  0  0  0  0  0  0  0  0  0
   19.0764   17.4653   20.5129 C   0  0  0  0  0  0  0  0  0  0  0  0
   18.2636   16.7135   21.5726 C   0  0  0  0  0  0  0  0  0  0  0  0
   18.4272   17.3115   22.9692 C   0  0  0  0  0  0  0  0  0  0  0  0
   17.2890   16.6730   23.7504 C   0  0  0  0  0  0  0  0  0  0  0  0
   16.1429   16.5409   22.7501 C   0  0  0  0  0  0  0  0  0  0  0  0
   16.7492   16.7690   21.3647 C   0  0  0  0  0  0  0  0  0  0  0  0
 21 22  1  0
 22  1  1  0
  1  2  2  0
  2  3  1  0
  3  4  2  0
  4 24  1  0
 24 25  1  0
 25 26  1  0
 26 28  1  0
 28 29  1  0
 29 30  1  0
 30 31  1  0
 31 32  1  0
 32 33  1  0
  4  5  1  0
  5  6  1  0
  6  7  2  0
  7  8  1  0
  7  9  1  0
  9 10  1  0
 10 11  2  0
 10 12  1  0
 12 13  1  0
 13 14  1  0
 13 15  2  0
 15 16  1  0
 16  1  1  0
 15  3  1  0
 33 29  1  0
 12  5  2  0
 22 23  1  0
 26 27  1  0
  8 17  1  0
  8 18  1  0
  9 19  1  0
 16 20  1  0
M  END
> <minimizedAffinity>
-8.58521

> <CNNscore>
0.2068132311

> <CNNaffinity>
4.9964871407

> <CNN_VS>
1.0333396196

> <CNNaffinity_variance>
2.3002851009

$$$$



 33 36  0  0  0  0  0  0  0  0999 V2000
   18.1787   16.6661   20.9003 C   0  0  0  0  0  0  0  0  0  0  0  0
   16.9609   16.4006   20.4968 N   0  0  0  0  0  0  0  0  0  0  0  0
   16.9486   16.6543   19.1444 C   0  0  0  0  0  0  0  0  0  0  0  0
   15.8894   16.5424   18.2171 C   0  0  0  0  0  0  0  0  0  0  0  0
   16.1711   16.8335   16.8574 C   0  0  0  0  0  0  0  0  0  0  0  0
   15.1349   16.6939   15.9119 N   0  0  0  0  0  0  0  0  0  0  0  0
   15.3771   16.9428   14.6685 C   0  0  0  0  0  0  0  0  0  0  0  0
   14.4020   16.8126   13.7378 N   0  0  0  0  0  0  0  0  0  0  0  0
   16.6002   17.3335   14.2243 N   0  0  0  0  0  0  0  0  0  0  0  0
   17.6790   17.5383   15.0471 C   0  0  0  0  0  0  0  0  0  0  0  0
   18.7449   17.9444   14.6020 O   0  0  0  0  0  0  0  0  0  0  0  0
   17.4581   17.2445   16.4726 C   0  0  0  0  0  0  0  0  0  0  0  0
   18.4928   17.3696   17.3990 C   0  0  0  0  0  0  0  0  0  0  0  0
   19.7296   17.7557   17.0595 F   0  0  0  0  0  0  0  0  0  0  0  0
   18.2032   17.0636   18.7206 C   0  0  0  0  0  0  0  0  0  0  0  0
   18.9701   17.0604   19.8553 N   0  0  0  0  0  0  0  0  0  0  0  0
   13.4979   16.5319   14.0081 H   0  0  0  0  0  0  0  0  0  0  0  0
   14.5972   16.9987   12.7909 H   0  0  0  0  0  0  0  0  0  0  0  0
   16.7191   17.4779   13.2578 H   0  0  0  0  0  0  0  0  0  0  0  0
   19.9235   17.2997   19.9099 H   0  0  0  0  0  0  0  0  0  0  0  0
   17.9683   17.1796   23.2640 C   0  0  0  0  0  0  0  0  0  0  0  0
   18.6495   16.5385   22.1574 N   0  0  0  0  0  0  0  0  0  0  0  0
   19.4609   16.0066   22.3243 H   0  0  0  0  0  0  0  0  0  0  0  0
   14.5147   16.0902   18.6583 C   0  0  0  0  0  0  0  0  0  0  0  0
   14.3266   14.5850   18.4252 C   0  0  0  0  0  0  0  0  0  0  0  0
   13.4114   14.2361   17.3293 N   0  0  0  0  0  0  0  0  0  0  0  0
   12.7924   13.4947   17.6571 H   0  0  0  0  0  0  0  0  0  0  0  0
   12.5807   15.3418   16.8446 C   0  0  0  0  0  0  0  0  0  0  0  0
   11.0832   15.2203   17.1472 C   0  0  0  0  0  0  0  0  0  0  0  0
   10.5890   13.7756   17.0875 C   0  0  0  0  0  0  0  0  0  0  0  0
    9.2281   13.8512   17.7626 C   0  0  0  0  0  0  0  0  0  0  0  0
    9.3834   14.9043   18.8573 C   0  0  0  0  0  0  0  0  0  0  0  0
   10.6874   15.6466   18.5619 C   0  0  0  0  0  0  0  0  0  0  0  0
 21 22  1  0
 22  1  1  0
  1  2  2  0
  2  3  1  0
  3  4  2  0
  4 24  1  0
 24 25  1  0
 25 26  1  0
 26 28  1  0
 28 29  1  0
 29 30  1  0
 30 31  1  0
 31 32  1  0
 32 33  1  0
  4  5  1  0
  5  6  1  0
  6  7  2  0
  7  8  1  0
  7  9  1  0
  9 10  1  0
 10 11  2  0
 10 12  1  0
 12 13  1  0
 13 14  1  0
 13 15  2  0
 15 16  1  0
 16  1  1  0
 15  3  1  0
 33 29  1  0
 12  5  2  0
 22 23  1  0
 26 27  1  0
  8 17  1  0
  8 18  1  0
  9 19  1  0
 16 20  1  0
M  END
> <minimizedAffinity>
-8.48786

> <CNNscore>
0.1716227382

> <CNNaffinity>
5.5680737495

> <CNN_VS>
0.9556080699

> <CNNaffinity_variance>
1.2076463699

$$$$



 33 36  0  0  0  0  0  0  0  0999 V2000
   10.8087   18.2042   13.6128 C   0  0  0  0  0  0  0  0  0  0  0  0
   12.0602   18.1554   13.9972 N   0  0  0  0  0  0  0  0  0  0  0  0
   12.1027   17.2432   15.0265 C   0  0  0  0  0  0  0  0  0  0  0  0
   13.2000   16.8160   15.8061 C   0  0  0  0  0  0  0  0  0  0  0  0
   12.9621   15.8198   16.7880 C   0  0  0  0  0  0  0  0  0  0  0  0
   14.0522   15.3561   17.5523 N   0  0  0  0  0  0  0  0  0  0  0  0
   13.8557   14.4410   18.4415 C   0  0  0  0  0  0  0  0  0  0  0  0
   14.8851   13.9735   19.1870 N   0  0  0  0  0  0  0  0  0  0  0  0
   12.6332   13.8957   18.6739 N   0  0  0  0  0  0  0  0  0  0  0  0
   11.4900   14.2845   18.0222 C   0  0  0  0  0  0  0  0  0  0  0  0
   10.4032   13.7991   18.3090 O   0  0  0  0  0  0  0  0  0  0  0  0
   11.6675   15.3101   16.9811 C   0  0  0  0  0  0  0  0  0  0  0  0
   10.5868   15.7518   16.2184 C   0  0  0  0  0  0  0  0  0  0  0  0
    9.3434   15.2808   16.3788 F   0  0  0  0  0  0  0  0  0  0  0  0
   10.8419   16.7130   15.2515 C   0  0  0  0  0  0  0  0  0  0  0  0
   10.0356   17.3377   14.3375 N   0  0  0  0  0  0  0  0  0  0  0  0
   15.7913   14.3358   19.0572 H   0  0  0  0  0  0  0  0  0  0  0  0
   14.7273   13.2712   19.8587 H   0  0  0  0  0  0  0  0  0  0  0  0
   12.5637   13.1814   19.3478 H   0  0  0  0  0  0  0  0  0  0  0  0
    9.0692   17.1894   14.2219 H   0  0  0  0  0  0  0  0  0  0  0  0
    9.8037   18.3309   11.4064 C   0  0  0  0  0  0  0  0  0  0  0  0
   10.3093   18.9566   12.6115 N   0  0  0  0  0  0  0  0  0  0  0  0
   10.2881   19.9369   12.6998 H   0  0  0  0  0  0  0  0  0  0  0  0
   14.5854   17.3769   15.5714 C   0  0  0  0  0  0  0  0  0  0  0  0
   15.3785   16.4997   14.5932 C   0  0  0  0  0  0  0  0  0  0  0  0
   16.8274   16.7462   14.5728 N   0  0  0  0  0  0  0  0  0  0  0  0
   17.0677   17.1490   13.6671 H   0  0  0  0  0  0  0  0  0  0  0  0
   17.3130   17.6520   15.6174 C   0  0  0  0  0  0  0  0  0  0  0  0
   17.8634   16.9700   16.8748 C   0  0  0  0  0  0  0  0  0  0  0  0
   18.9453   17.7996   17.5649 C   0  0  0  0  0  0  0  0  0  0  0  0
   19.0662   17.1376   18.9289 C   0  0  0  0  0  0  0  0  0  0  0  0
   17.6506   16.6860   19.2805 C   0  0  0  0  0  0  0  0  0  0  0  0
   16.8349   16.7751   17.9899 C   0  0  0  0  0  0  0  0  0  0  0  0
 21 22  1  0
 22  1  1  0
  1  2  2  0
  2  3  1  0
  3  4  2  0
  4 24  1  0
 24 25  1  0
 25 26  1  0
 26 28  1  0
 28 29  1  0
 29 30  1  0
 30 31  1  0
 31 32  1  0
 32 33  1  0
  4  5  1  0
  5  6  1  0
  6  7  2  0
  7  8  1  0
  7  9  1  0
  9 10  1  0
 10 11  2  0
 10 12  1  0
 12 13  1  0
 13 14  1  0
 13 15  2  0
 15 16  1  0
 16  1  1  0
 15  3  1  0
 33 29  1  0
 12  5  2  0
 22 23  1  0
 26 27  1  0
  8 17  1  0
  8 18  1  0
  9 19  1  0
 16 20  1  0
M  END
> <minimizedAffinity>
-7.85544

> <CNNscore>
0.1647110879

> <CNNaffinity>
5.1914596558

> <CNN_VS>
0.8550909758

> <CNNaffinity_variance>
1.1875604391

$$$$



 33 36  0  0  0  0  0  0  0  0999 V2000
   11.7446   18.5525   13.9524 C   0  0  0  0  0  0  0  0  0  0  0  0
   12.9433   18.2536   14.3887 N   0  0  0  0  0  0  0  0  0  0  0  0
   12.7624   17.2972   15.3613 C   0  0  0  0  0  0  0  0  0  0  0  0
   13.7191   16.6351   16.1617 C   0  0  0  0  0  0  0  0  0  0  0  0
   13.2504   15.6505   17.0694 C   0  0  0  0  0  0  0  0  0  0  0  0
   14.1941   14.9546   17.8519 N   0  0  0  0  0  0  0  0  0  0  0  0
   13.7859   14.0468   18.6740 C   0  0  0  0  0  0  0  0  0  0  0  0
   14.6705   13.3593   19.4349 N   0  0  0  0  0  0  0  0  0  0  0  0
   12.4737   13.7253   18.8179 N   0  0  0  0  0  0  0  0  0  0  0  0
   11.4580   14.3517   18.1407 C   0  0  0  0  0  0  0  0  0  0  0  0
   10.2869   14.0611   18.3486 O   0  0  0  0  0  0  0  0  0  0  0  0
   11.8760   15.3794   17.1730 C   0  0  0  0  0  0  0  0  0  0  0  0
   10.9373   16.0518   16.3912 C   0  0  0  0  0  0  0  0  0  0  0  0
    9.6220   15.8108   16.4668 F   0  0  0  0  0  0  0  0  0  0  0  0
   11.4158   16.9981   15.4970 C   0  0  0  0  0  0  0  0  0  0  0  0
   10.7881   17.8073   14.5877 N   0  0  0  0  0  0  0  0  0  0  0  0
   15.6331   13.5543   19.3680 H   0  0  0  0  0  0  0  0  0  0  0  0
   14.3509   12.6645   20.0548 H   0  0  0  0  0  0  0  0  0  0  0  0
   12.2385   13.0022   19.4432 H   0  0  0  0  0  0  0  0  0  0  0  0
    9.8187   17.8462   14.4202 H   0  0  0  0  0  0  0  0  0  0  0  0
   10.1000   19.5144   12.4476 C   0  0  0  0  0  0  0  0  0  0  0  0
   11.4462   19.4349   12.9776 N   0  0  0  0  0  0  0  0  0  0  0  0
   12.1472   20.0287   12.6237 H   0  0  0  0  0  0  0  0  0  0  0  0
   15.1942   16.9419   16.0236 C   0  0  0  0  0  0  0  0  0  0  0  0
   16.0194   16.1669   17.0598 C   0  0  0  0  0  0  0  0  0  0  0  0
   16.3573   16.9218   18.2749 N   0  0  0  0  0  0  0  0  0  0  0  0
   15.6377   16.7364   18.9736 H   0  0  0  0  0  0  0  0  0  0  0  0
   17.6586   16.5927   18.8628 C   0  0  0  0  0  0  0  0  0  0  0  0
   17.6471   16.3129   20.3696 C   0  0  0  0  0  0  0  0  0  0  0  0
   18.4717   17.3280   21.1599 C   0  0  0  0  0  0  0  0  0  0  0  0
   18.0252   17.0893   22.5942 C   0  0  0  0  0  0  0  0  0  0  0  0
   16.5445   16.7292   22.4967 C   0  0  0  0  0  0  0  0  0  0  0  0
   16.2689   16.4264   21.0232 C   0  0  0  0  0  0  0  0  0  0  0  0
 21 22  1  0
 22  1  1  0
  1  2  2  0
  2  3  1  0
  3  4  2  0
  4 24  1  0
 24 25  1  0
 25 26  1  0
 26 28  1  0
 28 29  1  0
 29 30  1  0
 30 31  1  0
 31 32  1  0
 32 33  1  0
  4  5  1  0
  5  6  1  0
  6  7  2  0
  7  8  1  0
  7  9  1  0
  9 10  1  0
 10 11  2  0
 10 12  1  0
 12 13  1  0
 13 14  1  0
 13 15  2  0
 15 16  1  0
 16  1  1  0
 15  3  1  0
 33 29  1  0
 12  5  2  0
 22 23  1  0
 26 27  1  0
  8 17  1  0
  8 18  1  0
  9 19  1  0
 16 20  1  0
M  END
> <minimizedAffinity>
-8.53219

> <CNNscore>
0.1607830524

> <CNNaffinity>
4.8705759048

> <CNN_VS>
0.7831060886

> <CNNaffinity_variance>
2.2839910984

$$$$



 33 36  0  0  0  0  0  0  0  0999 V2000
   15.9299   16.2972   20.0193 C   0  0  0  0  0  0  0  0  0  0  0  0
   15.0058   16.1657   19.1000 N   0  0  0  0  0  0  0  0  0  0  0  0
   15.6035   16.5187   17.9119 C   0  0  0  0  0  0  0  0  0  0  0  0
   15.0597   16.5652   16.6094 C   0  0  0  0  0  0  0  0  0  0  0  0
   15.9258   16.9312   15.5469 C   0  0  0  0  0  0  0  0  0  0  0  0
   15.4093   16.9496   14.2353 N   0  0  0  0  0  0  0  0  0  0  0  0
   16.1868   17.2683   13.2553 C   0  0  0  0  0  0  0  0  0  0  0  0
   15.7190   17.2898   11.9845 N   0  0  0  0  0  0  0  0  0  0  0  0
   17.4958   17.5864   13.4321 N   0  0  0  0  0  0  0  0  0  0  0  0
   18.1074   17.6383   14.6592 C   0  0  0  0  0  0  0  0  0  0  0  0
   19.2766   17.9849   14.7682 O   0  0  0  0  0  0  0  0  0  0  0  0
   17.2666   17.2596   15.8068 C   0  0  0  0  0  0  0  0  0  0  0  0
   17.7895   17.2284   17.0991 C   0  0  0  0  0  0  0  0  0  0  0  0
   19.0643   17.5330   17.3749 F   0  0  0  0  0  0  0  0  0  0  0  0
   16.9326   16.8511   18.1226 C   0  0  0  0  0  0  0  0  0  0  0  0
   17.1179   16.6995   19.4711 N   0  0  0  0  0  0  0  0  0  0  0  0
   14.7774   17.0671   11.8028 H   0  0  0  0  0  0  0  0  0  0  0  0
   16.3205   17.5282   11.2425 H   0  0  0  0  0  0  0  0  0  0  0  0
   18.0359   17.7912   12.6348 H   0  0  0  0  0  0  0  0  0  0  0  0
   17.9583   16.8530   19.9604 H   0  0  0  0  0  0  0  0  0  0  0  0
   16.6016   16.7381   22.3104 C   0  0  0  0  0  0  0  0  0  0  0  0
   15.7904   16.0379   21.3351 N   0  0  0  0  0  0  0  0  0  0  0  0
   15.1335   15.3687   21.6350 H   0  0  0  0  0  0  0  0  0  0  0  0
   13.6136   16.1990   16.3575 C   0  0  0  0  0  0  0  0  0  0  0  0
   12.6827   17.3799   16.6647 C   0  0  0  0  0  0  0  0  0  0  0  0
   11.6494   17.6359   15.6512 N   0  0  0  0  0  0  0  0  0  0  0  0
   10.7927   17.9075   16.1335 H   0  0  0  0  0  0  0  0  0  0  0  0
   11.9810   18.6866   14.6850 C   0  0  0  0  0  0  0  0  0  0  0  0
   12.8496   19.8272   15.2268 C   0  0  0  0  0  0  0  0  0  0  0  0
   13.8711   20.3220   14.2038 C   0  0  0  0  0  0  0  0  0  0  0  0
   14.3381   21.6422   14.7974 C   0  0  0  0  0  0  0  0  0  0  0  0
   13.1051   22.2325   15.4777 C   0  0  0  0  0  0  0  0  0  0  0  0
   12.0776   21.1032   15.5665 C   0  0  0  0  0  0  0  0  0  0  0  0
 21 22  1  0
 22  1  1  0
  1  2  2  0
  2  3  1  0
  3  4  2  0
  4 24  1  0
 24 25  1  0
 25 26  1  0
 26 28  1  0
 28 29  1  0
 29 30  1  0
 30 31  1  0
 31 32  1  0
 32 33  1  0
  4  5  1  0
  5  6  1  0
  6  7  2  0
  7  8  1  0
  7  9  1  0
  9 10  1  0
 10 11  2  0
 10 12  1  0
 12 13  1  0
 13 14  1  0
 13 15  2  0
 15 16  1  0
 16  1  1  0
 15  3  1  0
 33 29  1  0
 12  5  2  0
 22 23  1  0
 26 27  1  0
  8 17  1  0
  8 18  1  0
  9 19  1  0
 16 20  1  0
M  END
> <minimizedAffinity>
-6.40980

> <CNNscore>
0.1070874557

> <CNNaffinity>
4.7404046059

> <CNN_VS>
0.5076378584

> <CNNaffinity_variance>
1.3100250959

$$$$



 33 36  0  0  0  0  0  0  0  0999 V2000
   17.9422   18.7690   13.4506 C   0  0  0  0  0  0  0  0  0  0  0  0
   16.8010   18.1277   13.5049 N   0  0  0  0  0  0  0  0  0  0  0  0
   16.7344   17.5838   14.7671 C   0  0  0  0  0  0  0  0  0  0  0  0
   15.7245   16.7892   15.3528 C   0  0  0  0  0  0  0  0  0  0  0  0
   15.8987   16.3934   16.7041 C   0  0  0  0  0  0  0  0  0  0  0  0
   14.8847   15.6289   17.3162 N   0  0  0  0  0  0  0  0  0  0  0  0
   15.0213   15.2709   18.5490 C   0  0  0  0  0  0  0  0  0  0  0  0
   14.0611   14.5401   19.1639 N   0  0  0  0  0  0  0  0  0  0  0  0
   16.1082   15.6045   19.2926 N   0  0  0  0  0  0  0  0  0  0  0  0
   17.1760   16.3144   18.8040 C   0  0  0  0  0  0  0  0  0  0  0  0
   18.1564   16.5409   19.5015 O   0  0  0  0  0  0  0  0  0  0  0  0
   17.0559   16.7658   17.4079 C   0  0  0  0  0  0  0  0  0  0  0  0
   18.0561   17.5354   16.8148 C   0  0  0  0  0  0  0  0  0  0  0  0
   19.1674   17.9076   17.4633 F   0  0  0  0  0  0  0  0  0  0  0  0
   17.8601   17.9278   15.4989 C   0  0  0  0  0  0  0  0  0  0  0  0
   18.6128   18.6849   14.6410 N   0  0  0  0  0  0  0  0  0  0  0  0
   13.2534   14.2724   18.6687 H   0  0  0  0  0  0  0  0  0  0  0  0
   14.1708   14.2765   20.1060 H   0  0  0  0  0  0  0  0  0  0  0  0
   16.1310   15.3210   20.2352 H   0  0  0  0  0  0  0  0  0  0  0  0
   19.4836   19.0965   14.8447 H   0  0  0  0  0  0  0  0  0  0  0  0
   19.6998   19.1431   11.8180 C   0  0  0  0  0  0  0  0  0  0  0  0
   18.4147   19.4715   12.4012 N   0  0  0  0  0  0  0  0  0  0  0  0
   17.8833   20.2120   12.0290 H   0  0  0  0  0  0  0  0  0  0  0  0
   14.4847   16.4091   14.5733 C   0  0  0  0  0  0  0  0  0  0  0  0
   13.4209   17.5123   14.6544 C   0  0  0  0  0  0  0  0  0  0  0  0
   12.0806   17.0545   15.0475 N   0  0  0  0  0  0  0  0  0  0  0  0
   11.9398   16.1198   14.6644 H   0  0  0  0  0  0  0  0  0  0  0  0
   11.8498   16.9936   16.4933 C   0  0  0  0  0  0  0  0  0  0  0  0
   11.3276   15.6522   17.0195 C   0  0  0  0  0  0  0  0  0  0  0  0
   10.7527   15.7606   18.4311 C   0  0  0  0  0  0  0  0  0  0  0  0
    9.9862   14.4565   18.5897 C   0  0  0  0  0  0  0  0  0  0  0  0
    9.4204   14.1549   17.2039 C   0  0  0  0  0  0  0  0  0  0  0  0
   10.1525   15.0766   16.2275 C   0  0  0  0  0  0  0  0  0  0  0  0
 21 22  1  0
 22  1  1  0
  1  2  2  0
  2  3  1  0
  3  4  2  0
  4 24  1  0
 24 25  1  0
 25 26  1  0
 26 28  1  0
 28 29  1  0
 29 30  1  0
 30 31  1  0
 31 32  1  0
 32 33  1  0
  4  5  1  0
  5  6  1  0
  6  7  2  0
  7  8  1  0
  7  9  1  0
  9 10  1  0
 10 11  2  0
 10 12  1  0
 12 13  1  0
 13 14  1  0
 13 15  2  0
 15 16  1  0
 16  1  1  0
 15  3  1  0
 33 29  1  0
 12  5  2  0
 22 23  1  0
 26 27  1  0
  8 17  1  0
  8 18  1  0
  9 19  1  0
 16 20  1  0
M  END
> <minimizedAffinity>
-7.61441

> <CNNscore>
0.0926057324

> <CNNaffinity>
5.5875334740

> <CNN_VS>
0.5174376369

> <CNNaffinity_variance>
0.4804368019

$$$$
