


 19 21  0  0  0  0  0  0  0  0999 V2000
   63.9720   47.8497    6.9458 N   0  0  0  0  0  0  0  0  0  0  0  0
   63.8003   47.2825    8.2060 C   0  0  0  0  0  0  0  0  0  0  0  0
   63.5666   45.9245    8.3381 C   0  0  0  0  0  0  0  0  0  0  0  0
   63.4214   45.3944    9.6153 C   0  0  0  0  0  0  0  0  0  0  0  0
   63.5214   46.2365   10.7273 C   0  0  0  0  0  0  0  0  0  0  0  0
   63.3839   45.7504   12.0416 C   0  0  0  0  0  0  0  0  0  0  0  0
   63.4907   46.6149   13.1370 C   0  0  0  0  0  0  0  0  0  0  0  0
   63.7302   47.9703   12.9011 C   0  0  0  0  0  0  0  0  0  0  0  0
   63.8677   48.4461   11.5914 C   0  0  0  0  0  0  0  0  0  0  0  0
   63.7681   47.6042   10.4931 C   0  0  0  0  0  0  0  0  0  0  0  0
   63.9060   48.1132    9.2559 N   0  0  0  0  0  0  0  0  0  0  0  0
   63.9054   47.2881    6.1399 H   0  0  0  0  0  0  0  0  0  0  0  0
   64.1601   48.8124    6.8607 H   0  0  0  0  0  0  0  0  0  0  0  0
   63.3427   46.1238   14.5024 C   0  0  0  0  0  0  0  0  0  0  0  0
   62.6364   46.8279   15.4625 C   0  0  0  0  0  0  0  0  0  0  0  0
   62.6077   46.0241   16.9770 S   0  0  0  0  0  0  0  0  0  0  0  0
   63.5185   44.7383   16.3597 C   0  0  0  0  0  0  0  0  0  0  0  0
   64.0316   43.2233   17.4051 Br  0  0  0  0  0  0  0  0  0  0  0  0
   63.8495   44.8924   15.0372 C   0  0  0  0  0  0  0  0  0  0  0  0
  1  2  1  0
  2  3  2  0
  3  4  1  0
  4  5  2  0
  5  6  1  0
  6  7  2  0
  7 14  1  0
 14 15  2  0
 15 16  1  0
 16 17  1  0
 17 18  1  0
 17 19  2  0
  7  8  1  0
  8  9  2  0
  9 10  1  0
 10 11  2  0
 11  2  1  0
 10  5  1  0
 19 14  1  0
  1 12  1  0
  1 13  1  0
M  END
> <minimizedAffinity>
-5.40352

> <CNNscore>
0.5803541541

> <CNNaffinity>
4.0607070923

> <CNN_VS>
2.3566482067

> <CNNaffinity_variance>
0.5848655701

$$$$



 19 21  0  0  0  0  0  0  0  0999 V2000
   67.3240   51.4606   12.9117 N   0  0  0  0  0  0  0  0  0  0  0  0
   68.4508   51.0596   12.1985 C   0  0  0  0  0  0  0  0  0  0  0  0
   69.7145   51.4532   12.6039 C   0  0  0  0  0  0  0  0  0  0  0  0
   70.8148   51.0139   11.8762 C   0  0  0  0  0  0  0  0  0  0  0  0
   70.6218   50.1860   10.7658 C   0  0  0  0  0  0  0  0  0  0  0  0
   71.7015   49.7123    9.9961 C   0  0  0  0  0  0  0  0  0  0  0  0
   71.4803   48.8830    8.8907 C   0  0  0  0  0  0  0  0  0  0  0  0
   70.1673   48.5391    8.5621 C   0  0  0  0  0  0  0  0  0  0  0  0
   69.0987   49.0124    9.3334 C   0  0  0  0  0  0  0  0  0  0  0  0
   69.2983   49.8329   10.4343 C   0  0  0  0  0  0  0  0  0  0  0  0
   68.2366   50.2615   11.1399 N   0  0  0  0  0  0  0  0  0  0  0  0
   67.4212   52.0462   13.6972 H   0  0  0  0  0  0  0  0  0  0  0  0
   66.4301   51.1586   12.6306 H   0  0  0  0  0  0  0  0  0  0  0  0
   72.5905   48.3925    8.0818 C   0  0  0  0  0  0  0  0  0  0  0  0
   73.5068   47.4778    8.5716 C   0  0  0  0  0  0  0  0  0  0  0  0
   74.7016   47.0617    7.4141 S   0  0  0  0  0  0  0  0  0  0  0  0
   73.9997   48.0816    6.2604 C   0  0  0  0  0  0  0  0  0  0  0  0
   74.6960   48.2984    4.4942 Br  0  0  0  0  0  0  0  0  0  0  0  0
   72.8836   48.7343    6.7193 C   0  0  0  0  0  0  0  0  0  0  0  0
  1  2  1  0
  2  3  2  0
  3  4  1  0
  4  5  2  0
  5  6  1  0
  6  7  2  0
  7 14  1  0
 14 15  2  0
 15 16  1  0
 16 17  1  0
 17 18  1  0
 17 19  2  0
  7  8  1  0
  8  9  2  0
  9 10  1  0
 10 11  2  0
 11  2  1  0
 10  5  1  0
 19 14  1  0
  1 12  1  0
  1 13  1  0
M  END
> <minimizedAffinity>
-6.23188

> <CNNscore>
0.5141696930

> <CNNaffinity>
4.6014580727

> <CNN_VS>
2.3659303188

> <CNNaffinity_variance>
0.2857737243

$$$$



 19 21  0  0  0  0  0  0  0  0999 V2000
   70.5658   52.0564   14.4972 N   0  0  0  0  0  0  0  0  0  0  0  0
   71.1451   51.2946   13.4855 C   0  0  0  0  0  0  0  0  0  0  0  0
   72.2606   50.5168   13.7442 C   0  0  0  0  0  0  0  0  0  0  0  0
   72.7959   49.7550   12.7116 C   0  0  0  0  0  0  0  0  0  0  0  0
   72.1960   49.7859   11.4487 C   0  0  0  0  0  0  0  0  0  0  0  0
   72.6971   49.0325   10.3699 C   0  0  0  0  0  0  0  0  0  0  0  0
   72.0759   49.0801    9.1168 C   0  0  0  0  0  0  0  0  0  0  0  0
   70.9528   49.8942    8.9552 C   0  0  0  0  0  0  0  0  0  0  0  0
   70.4591   50.6391   10.0331 C   0  0  0  0  0  0  0  0  0  0  0  0
   71.0593   50.6026   11.2835 C   0  0  0  0  0  0  0  0  0  0  0  0
   70.5458   51.3395   12.2845 N   0  0  0  0  0  0  0  0  0  0  0  0
   70.9627   52.0616   15.3982 H   0  0  0  0  0  0  0  0  0  0  0  0
   69.7594   52.5897   14.3115 H   0  0  0  0  0  0  0  0  0  0  0  0
   72.5907   48.3097    7.9902 C   0  0  0  0  0  0  0  0  0  0  0  0
   72.3956   46.9432    7.8860 C   0  0  0  0  0  0  0  0  0  0  0  0
   73.0924   46.2875    6.4630 S   0  0  0  0  0  0  0  0  0  0  0  0
   73.6412   47.8130    5.9779 C   0  0  0  0  0  0  0  0  0  0  0  0
   74.6160   48.1085    4.3611 Br  0  0  0  0  0  0  0  0  0  0  0  0
   73.3161   48.8131    6.8591 C   0  0  0  0  0  0  0  0  0  0  0  0
  1  2  1  0
  2  3  2  0
  3  4  1  0
  4  5  2  0
  5  6  1  0
  6  7  2  0
  7 14  1  0
 14 15  2  0
 15 16  1  0
 16 17  1  0
 17 18  1  0
 17 19  2  0
  7  8  1  0
  8  9  2  0
  9 10  1  0
 10 11  2  0
 11  2  1  0
 10  5  1  0
 19 14  1  0
  1 12  1  0
  1 13  1  0
M  END
> <minimizedAffinity>
-7.00540

> <CNNscore>
0.4966541529

> <CNNaffinity>
4.7892522812

> <CNN_VS>
2.3786020279

> <CNNaffinity_variance>
0.2149062157

$$$$



 19 21  0  0  0  0  0  0  0  0999 V2000
   74.5462   47.6040    4.5806 N   0  0  0  0  0  0  0  0  0  0  0  0
   73.9843   48.2825    5.6591 C   0  0  0  0  0  0  0  0  0  0  0  0
   74.7763   48.6999    6.7150 C   0  0  0  0  0  0  0  0  0  0  0  0
   74.1795   49.3925    7.7625 C   0  0  0  0  0  0  0  0  0  0  0  0
   72.8066   49.6557    7.7223 C   0  0  0  0  0  0  0  0  0  0  0  0
   72.1538   50.3542    8.7559 C   0  0  0  0  0  0  0  0  0  0  0  0
   70.7788   50.6061    8.6893 C   0  0  0  0  0  0  0  0  0  0  0  0
   70.0653   50.1459    7.5805 C   0  0  0  0  0  0  0  0  0  0  0  0
   70.7217   49.4535    6.5556 C   0  0  0  0  0  0  0  0  0  0  0  0
   72.0844   49.1970    6.6023 C   0  0  0  0  0  0  0  0  0  0  0  0
   72.6653   48.5257    5.5919 N   0  0  0  0  0  0  0  0  0  0  0  0
   75.5090   47.3985    4.5758 H   0  0  0  0  0  0  0  0  0  0  0  0
   73.9806   47.3298    3.8228 H   0  0  0  0  0  0  0  0  0  0  0  0
   70.0907   51.3221    9.7577 C   0  0  0  0  0  0  0  0  0  0  0  0
   70.3807   51.1020   11.0932 C   0  0  0  0  0  0  0  0  0  0  0  0
   69.4374   52.0798   12.1394 S   0  0  0  0  0  0  0  0  0  0  0  0
   68.6542   52.8040   10.8256 C   0  0  0  0  0  0  0  0  0  0  0  0
   67.3099   54.1480   11.0204 Br  0  0  0  0  0  0  0  0  0  0  0  0
   69.0810   52.3310    9.6105 C   0  0  0  0  0  0  0  0  0  0  0  0
  1  2  1  0
  2  3  2  0
  3  4  1  0
  4  5  2  0
  5  6  1  0
  6  7  2  0
  7 14  1  0
 14 15  2  0
 15 16  1  0
 16 17  1  0
 17 18  1  0
 17 19  2  0
  7  8  1  0
  8  9  2  0
  9 10  1  0
 10 11  2  0
 11  2  1  0
 10  5  1  0
 19 14  1  0
  1 12  1  0
  1 13  1  0
M  END
> <minimizedAffinity>
-6.80744

> <CNNscore>
0.4844022989

> <CNNaffinity>
4.3021140099

> <CNN_VS>
2.0839538574

> <CNNaffinity_variance>
0.9178355336

$$$$



 19 21  0  0  0  0  0  0  0  0999 V2000
   65.8821   50.7523   11.8932 N   0  0  0  0  0  0  0  0  0  0  0  0
   66.8923   50.3707   11.0139 C   0  0  0  0  0  0  0  0  0  0  0  0
   66.5809   49.8869    9.7549 C   0  0  0  0  0  0  0  0  0  0  0  0
   67.6198   49.5366    8.8998 C   0  0  0  0  0  0  0  0  0  0  0  0
   68.9437   49.6867    9.3247 C   0  0  0  0  0  0  0  0  0  0  0  0
   70.0319   49.3485    8.4977 C   0  0  0  0  0  0  0  0  0  0  0  0
   71.3472   49.5108    8.9472 C   0  0  0  0  0  0  0  0  0  0  0  0
   71.5597   50.0091   10.2344 C   0  0  0  0  0  0  0  0  0  0  0  0
   70.4725   50.3450   11.0504 C   0  0  0  0  0  0  0  0  0  0  0  0
   69.1617   50.1940   10.6213 C   0  0  0  0  0  0  0  0  0  0  0  0
   68.1539   50.5300   11.4461 N   0  0  0  0  0  0  0  0  0  0  0  0
   64.9383   50.6579   11.6294 H   0  0  0  0  0  0  0  0  0  0  0  0
   66.1117   51.1164   12.7786 H   0  0  0  0  0  0  0  0  0  0  0  0
   72.4820   49.1568    8.1020 C   0  0  0  0  0  0  0  0  0  0  0  0
   73.7767   49.1191    8.5905 C   0  0  0  0  0  0  0  0  0  0  0  0
   74.9169   48.6642    7.3931 S   0  0  0  0  0  0  0  0  0  0  0  0
   73.6968   48.5046    6.2315 C   0  0  0  0  0  0  0  0  0  0  0  0
   74.0348   47.9836    4.4243 Br  0  0  0  0  0  0  0  0  0  0  0  0
   72.4444   48.7851    6.7165 C   0  0  0  0  0  0  0  0  0  0  0  0
  1  2  1  0
  2  3  2  0
  3  4  1  0
  4  5  2  0
  5  6  1  0
  6  7  2  0
  7 14  1  0
 14 15  2  0
 15 16  1  0
 16 17  1  0
 17 18  1  0
 17 19  2  0
  7  8  1  0
  8  9  2  0
  9 10  1  0
 10 11  2  0
 11  2  1  0
 10  5  1  0
 19 14  1  0
  1 12  1  0
  1 13  1  0
M  END
> <minimizedAffinity>
-5.58435

> <CNNscore>
0.4785951078

> <CNNaffinity>
4.2673621178

> <CNN_VS>
2.0423386097

> <CNNaffinity_variance>
0.5725870132

$$$$



 19 21  0  0  0  0  0  0  0  0999 V2000
   74.7368   46.1038    4.5763 N   0  0  0  0  0  0  0  0  0  0  0  0
   74.2353   46.9455    5.5658 C   0  0  0  0  0  0  0  0  0  0  0  0
   74.7100   48.2397    5.6929 C   0  0  0  0  0  0  0  0  0  0  0  0
   74.1680   49.0544    6.6806 C   0  0  0  0  0  0  0  0  0  0  0  0
   73.1595   48.5547    7.5107 C   0  0  0  0  0  0  0  0  0  0  0  0
   72.5761   49.3382    8.5247 C   0  0  0  0  0  0  0  0  0  0  0  0
   71.5668   48.8139    9.3401 C   0  0  0  0  0  0  0  0  0  0  0  0
   71.1534   47.4962    9.1325 C   0  0  0  0  0  0  0  0  0  0  0  0
   71.7370   46.7237    8.1209 C   0  0  0  0  0  0  0  0  0  0  0  0
   72.7365   47.2268    7.3007 C   0  0  0  0  0  0  0  0  0  0  0  0
   73.2648   46.4414    6.3453 N   0  0  0  0  0  0  0  0  0  0  0  0
   75.4495   46.4204    3.9754 H   0  0  0  0  0  0  0  0  0  0  0  0
   74.3787   45.1921    4.4775 H   0  0  0  0  0  0  0  0  0  0  0  0
   70.9605   49.6139   10.3983 C   0  0  0  0  0  0  0  0  0  0  0  0
   69.6166   49.9459   10.3883 C   0  0  0  0  0  0  0  0  0  0  0  0
   69.1615   50.8813   11.7515 S   0  0  0  0  0  0  0  0  0  0  0  0
   70.7392   50.8365   12.3620 C   0  0  0  0  0  0  0  0  0  0  0  0
   71.2523   51.6810   13.9976 Br  0  0  0  0  0  0  0  0  0  0  0  0
   71.6098   50.1344   11.5674 C   0  0  0  0  0  0  0  0  0  0  0  0
  1  2  1  0
  2  3  2  0
  3  4  1  0
  4  5  2  0
  5  6  1  0
  6  7  2  0
  7 14  1  0
 14 15  2  0
 15 16  1  0
 16 17  1  0
 17 18  1  0
 17 19  2  0
  7  8  1  0
  8  9  2  0
  9 10  1  0
 10 11  2  0
 11  2  1  0
 10  5  1  0
 19 14  1  0
  1 12  1  0
  1 13  1  0
M  END
> <minimizedAffinity>
-6.17502

> <CNNscore>
0.4509252608

> <CNNaffinity>
4.5566511154

> <CNN_VS>
2.0547091961

> <CNNaffinity_variance>
0.4728701413

$$$$



 19 21  0  0  0  0  0  0  0  0999 V2000
   67.6222   52.3737   10.3189 N   0  0  0  0  0  0  0  0  0  0  0  0
   68.6768   51.5120   10.0278 C   0  0  0  0  0  0  0  0  0  0  0  0
   69.4200   50.9432   11.0478 C   0  0  0  0  0  0  0  0  0  0  0  0
   70.4512   50.0719   10.7150 C   0  0  0  0  0  0  0  0  0  0  0  0
   70.7067   49.7869    9.3699 C   0  0  0  0  0  0  0  0  0  0  0  0
   71.7374   48.9107    8.9793 C   0  0  0  0  0  0  0  0  0  0  0  0
   71.9701   48.6412    7.6259 C   0  0  0  0  0  0  0  0  0  0  0  0
   71.1642   49.2628    6.6697 C   0  0  0  0  0  0  0  0  0  0  0  0
   70.1399   50.1315    7.0659 C   0  0  0  0  0  0  0  0  0  0  0  0
   69.8920   50.4086    8.4026 C   0  0  0  0  0  0  0  0  0  0  0  0
   68.8967   51.2524    8.7286 N   0  0  0  0  0  0  0  0  0  0  0  0
   67.4151   52.5997   11.2544 H   0  0  0  0  0  0  0  0  0  0  0  0
   67.0839   52.7569    9.5891 H   0  0  0  0  0  0  0  0  0  0  0  0
   73.0397   47.7411    7.2094 C   0  0  0  0  0  0  0  0  0  0  0  0
   73.2746   47.4485    5.8769 C   0  0  0  0  0  0  0  0  0  0  0  0
   74.5947   46.3749    5.6637 S   0  0  0  0  0  0  0  0  0  0  0  0
   74.8640   46.3070    7.3330 C   0  0  0  0  0  0  0  0  0  0  0  0
   76.2566   45.2666    8.1265 Br  0  0  0  0  0  0  0  0  0  0  0  0
   73.9851   47.0725    8.0569 C   0  0  0  0  0  0  0  0  0  0  0  0
  1  2  1  0
  2  3  2  0
  3  4  1  0
  4  5  2  0
  5  6  1  0
  6  7  2  0
  7 14  1  0
 14 15  2  0
 15 16  1  0
 16 17  1  0
 17 18  1  0
 17 19  2  0
  7  8  1  0
  8  9  2  0
  9 10  1  0
 10 11  2  0
 11  2  1  0
 10  5  1  0
 19 14  1  0
  1 12  1  0
  1 13  1  0
M  END
> <minimizedAffinity>
-5.52926

> <CNNscore>
0.3730337322

> <CNNaffinity>
4.8838171959

> <CNN_VS>
1.8218286037

> <CNNaffinity_variance>
0.5827415586

$$$$



 19 21  0  0  0  0  0  0  0  0999 V2000
   70.3669   52.0874   14.4586 N   0  0  0  0  0  0  0  0  0  0  0  0
   70.5857   51.4826   13.2235 C   0  0  0  0  0  0  0  0  0  0  0  0
   69.7684   51.7740   12.1449 C   0  0  0  0  0  0  0  0  0  0  0  0
   70.0337   51.1645   10.9238 C   0  0  0  0  0  0  0  0  0  0  0  0
   71.1149   50.2846   10.8122 C   0  0  0  0  0  0  0  0  0  0  0  0
   71.4277   49.6427    9.5987 C   0  0  0  0  0  0  0  0  0  0  0  0
   72.5172   48.7682    9.5142 C   0  0  0  0  0  0  0  0  0  0  0  0
   73.2846   48.5399   10.6584 C   0  0  0  0  0  0  0  0  0  0  0  0
   72.9685   49.1834   11.8612 C   0  0  0  0  0  0  0  0  0  0  0  0
   71.8945   50.0558   11.9637 C   0  0  0  0  0  0  0  0  0  0  0  0
   71.6333   50.6460   13.1437 N   0  0  0  0  0  0  0  0  0  0  0  0
   69.6133   52.7100   14.5752 H   0  0  0  0  0  0  0  0  0  0  0  0
   70.9658   51.8923   15.2153 H   0  0  0  0  0  0  0  0  0  0  0  0
   72.8460   48.0920    8.2644 C   0  0  0  0  0  0  0  0  0  0  0  0
   72.4630   46.7853    8.0147 C   0  0  0  0  0  0  0  0  0  0  0  0
   72.9670   46.2375    6.4699 S   0  0  0  0  0  0  0  0  0  0  0  0
   73.6809   47.7328    6.1257 C   0  0  0  0  0  0  0  0  0  0  0  0
   74.5739   48.1112    4.4793 Br  0  0  0  0  0  0  0  0  0  0  0  0
   73.5535   48.6432    7.1442 C   0  0  0  0  0  0  0  0  0  0  0  0
  1  2  1  0
  2  3  2  0
  3  4  1  0
  4  5  2  0
  5  6  1  0
  6  7  2  0
  7 14  1  0
 14 15  2  0
 15 16  1  0
 16 17  1  0
 17 18  1  0
 17 19  2  0
  7  8  1  0
  8  9  2  0
  9 10  1  0
 10 11  2  0
 11  2  1  0
 10  5  1  0
 19 14  1  0
  1 12  1  0
  1 13  1  0
M  END
> <minimizedAffinity>
-6.66613

> <CNNscore>
0.3580590785

> <CNNaffinity>
4.7880973816

> <CNN_VS>
1.7144217491

> <CNNaffinity_variance>
0.2054301649

$$$$



 19 21  0  0  0  0  0  0  0  0999 V2000
   68.7361   50.4541   10.7396 N   0  0  0  0  0  0  0  0  0  0  0  0
   69.6358   49.4693   10.3395 C   0  0  0  0  0  0  0  0  0  0  0  0
   69.2098   48.4011    9.5688 C   0  0  0  0  0  0  0  0  0  0  0  0
   70.1440   47.4504    9.1730 C   0  0  0  0  0  0  0  0  0  0  0  0
   71.4818   47.5978    9.5528 C   0  0  0  0  0  0  0  0  0  0  0  0
   72.4674   46.6650    9.1772 C   0  0  0  0  0  0  0  0  0  0  0  0
   73.7997   46.8377    9.5691 C   0  0  0  0  0  0  0  0  0  0  0  0
   74.1319   47.9503   10.3451 C   0  0  0  0  0  0  0  0  0  0  0  0
   73.1466   48.8747   10.7131 C   0  0  0  0  0  0  0  0  0  0  0  0
   71.8214   48.7221   10.3317 C   0  0  0  0  0  0  0  0  0  0  0  0
   70.9143   49.6384   10.7141 N   0  0  0  0  0  0  0  0  0  0  0  0
   67.7856   50.3819   10.4933 H   0  0  0  0  0  0  0  0  0  0  0  0
   69.0506   51.2225   11.2687 H   0  0  0  0  0  0  0  0  0  0  0  0
   74.8276   45.8740    9.1922 C   0  0  0  0  0  0  0  0  0  0  0  0
   74.5202   44.5650    8.8631 C   0  0  0  0  0  0  0  0  0  0  0  0
   75.9095   43.6489    8.4491 S   0  0  0  0  0  0  0  0  0  0  0  0
   76.9165   44.9869    8.6927 C   0  0  0  0  0  0  0  0  0  0  0  0
   78.8110   44.9283    8.4496 Br  0  0  0  0  0  0  0  0  0  0  0  0
   76.2378   46.1146    9.0801 C   0  0  0  0  0  0  0  0  0  0  0  0
  1  2  1  0
  2  3  2  0
  3  4  1  0
  4  5  2  0
  5  6  1  0
  6  7  2  0
  7 14  1  0
 14 15  2  0
 15 16  1  0
 16 17  1  0
 17 18  1  0
 17 19  2  0
  7  8  1  0
  8  9  2  0
  9 10  1  0
 10 11  2  0
 11  2  1  0
 10  5  1  0
 19 14  1  0
  1 12  1  0
  1 13  1  0
M  END
> <minimizedAffinity>
-4.78186

> <CNNscore>
0.3499892354

> <CNNaffinity>
3.9963014126

> <CNN_VS>
1.3986624479

> <CNNaffinity_variance>
0.3019172251

$$$$
