


 23 24  0  0  0  0  0  0  0  0999 V2000
    1.2287   44.5034    3.3912 C   0  0  0  0  0  0  0  0  0  0  0  0
    2.7479   44.3875    3.5265 C   0  0  0  0  0  0  0  0  0  0  0  0
    2.9608   44.0686    4.9876 C   0  0  0  0  0  0  0  0  0  0  0  0
    4.2397   44.5382    5.3971 O   0  0  0  0  0  0  0  0  0  0  0  0
    4.2823   44.8531    6.7865 C   0  0  0  0  0  0  0  0  0  0  0  0
    3.3924   46.0586    7.0902 C   0  0  0  0  0  0  0  0  0  0  0  0
    2.1727   46.1427    6.1739 C   0  0  0  0  0  0  0  0  0  0  0  0
    1.7818   44.7641    5.6586 C   0  0  0  0  0  0  0  0  0  0  0  0
    0.7262   44.8662    4.6914 O   0  0  0  0  0  0  0  0  0  0  0  0
    0.8889   45.5760    2.3373 C   0  0  0  0  0  0  0  0  0  0  0  0
   -0.2123   46.0625    2.1305 O   0  0  0  0  0  0  0  0  0  0  0  0
    1.9307   45.8956    1.5448 O   0  0  0  0  0  0  0  0  0  0  0  0
    2.7742   45.5208    1.7060 H   0  0  0  0  0  0  0  0  0  0  0  0
    0.5624   43.1675    2.9804 C   0  0  0  0  0  0  0  0  0  0  0  0
    1.4623   42.1590    2.2133 C   0  0  0  0  0  0  0  0  0  0  0  0
    0.6290   40.9961    1.8490 N   0  0  0  0  0  0  0  0  0  0  0  0
    0.2775   40.5509    2.6967 H   0  0  0  0  0  0  0  0  0  0  0  0
    1.1903   40.3276    1.3215 H   0  0  0  0  0  0  0  0  0  0  0  0
    2.7622   41.7593    2.9813 C   0  0  0  0  0  0  0  0  0  0  0  0
    1.3554   41.0551    4.8958 C   0  0  0  0  0  0  0  0  0  0  0  0
    2.5985   40.6782    4.0861 N   0  0  0  0  0  0  0  0  0  0  0  0
    3.7975   40.6662    5.0191 C   0  0  0  0  0  0  0  0  0  0  0  0
    2.3876   39.2860    3.5092 C   0  0  0  0  0  0  0  0  0  0  0  0
 20 21  1  0
 21 22  1  0
 21 23  1  0
 21 19  1  0
 19 15  1  0
 15 16  1  0
 15 14  1  0
  1 14  1  0
  1 10  1  0
 10 11  2  0
 10 12  1  0
  1  2  1  0
  3  2  1  0
  3  4  1  0
  4  5  1  0
  5  6  1  0
  6  7  1  0
  8  7  1  0
  8  9  1  0
  9  1  1  0
  8  3  1  0
 16 17  1  0
 16 18  1  0
 12 13  1  0
M  CHG 1  21   1
M  END
> <minimizedAffinity>
-5.71667

> <CNNscore>
0.6183554530

> <CNNaffinity>
6.8105278015

> <CNN_VS>
4.2113270760

> <CNNaffinity_variance>
0.5784949660

$$$$



 23 24  0  0  0  0  0  0  0  0999 V2000
    2.3313   44.2106    4.0140 C   0  0  0  0  0  0  0  0  0  0  0  0
    2.6596   45.2444    2.9355 C   0  0  0  0  0  0  0  0  0  0  0  0
    3.5977   44.5140    2.0036 C   0  0  0  0  0  0  0  0  0  0  0  0
    4.4535   45.4495    1.3583 O   0  0  0  0  0  0  0  0  0  0  0  0
    5.7037   44.8744    0.9873 C   0  0  0  0  0  0  0  0  0  0  0  0
    6.5160   44.5101    2.2302 C   0  0  0  0  0  0  0  0  0  0  0  0
    5.6403   44.1009    3.4135 C   0  0  0  0  0  0  0  0  0  0  0  0
    4.3074   43.5397    2.9369 C   0  0  0  0  0  0  0  0  0  0  0  0
    3.4372   43.2884    4.0503 O   0  0  0  0  0  0  0  0  0  0  0  0
    2.1490   44.9241    5.3684 C   0  0  0  0  0  0  0  0  0  0  0  0
    2.9421   44.9245    6.2974 O   0  0  0  0  0  0  0  0  0  0  0  0
    0.9420   45.5066    5.5075 O   0  0  0  0  0  0  0  0  0  0  0  0
    0.3358   45.5046    4.7930 H   0  0  0  0  0  0  0  0  0  0  0  0
    1.0495   43.4026    3.6959 C   0  0  0  0  0  0  0  0  0  0  0  0
    1.1137   42.4760    2.4499 C   0  0  0  0  0  0  0  0  0  0  0  0
    0.1703   43.0044    1.4448 N   0  0  0  0  0  0  0  0  0  0  0  0
   -0.7762   42.9867    1.8245 H   0  0  0  0  0  0  0  0  0  0  0  0
    0.2104   42.4275    0.6045 H   0  0  0  0  0  0  0  0  0  0  0  0
    0.8778   40.9660    2.7711 C   0  0  0  0  0  0  0  0  0  0  0  0
    1.6010   38.8319    3.8021 C   0  0  0  0  0  0  0  0  0  0  0  0
    1.7910   40.3493    3.8674 N   0  0  0  0  0  0  0  0  0  0  0  0
    1.3826   40.8283    5.2502 C   0  0  0  0  0  0  0  0  0  0  0  0
    3.2635   40.6557    3.6361 C   0  0  0  0  0  0  0  0  0  0  0  0
 20 21  1  0
 21 22  1  0
 21 23  1  0
 21 19  1  0
 19 15  1  0
 15 16  1  0
 15 14  1  0
  1 14  1  0
  1 10  1  0
 10 11  2  0
 10 12  1  0
  1  2  1  0
  3  2  1  0
  3  4  1  0
  4  5  1  0
  5  6  1  0
  6  7  1  0
  8  7  1  0
  8  9  1  0
  9  1  1  0
  8  3  1  0
 16 17  1  0
 16 18  1  0
 12 13  1  0
M  CHG 1  21   1
M  END
> <minimizedAffinity>
1.49493

> <CNNscore>
0.4918195605

> <CNNaffinity>
6.1501617432

> <CNN_VS>
3.0247697830

> <CNNaffinity_variance>
0.6770200729

$$$$



 23 24  0  0  0  0  0  0  0  0999 V2000
    1.0086   43.9518    2.5200 C   0  0  0  0  0  0  0  0  0  0  0  0
    1.7651   45.2714    2.6810 C   0  0  0  0  0  0  0  0  0  0  0  0
    2.3179   45.2060    4.0853 C   0  0  0  0  0  0  0  0  0  0  0  0
    2.4800   46.5239    4.5962 O   0  0  0  0  0  0  0  0  0  0  0  0
    2.3822   46.5703    6.0173 C   0  0  0  0  0  0  0  0  0  0  0  0
    0.9613   46.2307    6.4680 C   0  0  0  0  0  0  0  0  0  0  0  0
    0.2644   45.2381    5.5388 C   0  0  0  0  0  0  0  0  0  0  0  0
    1.2794   44.3627    4.8163 C   0  0  0  0  0  0  0  0  0  0  0  0
    0.6289   43.5309    3.8442 O   0  0  0  0  0  0  0  0  0  0  0  0
   -0.2265   44.1756    1.6249 C   0  0  0  0  0  0  0  0  0  0  0  0
   -0.6335   45.2502    1.2108 O   0  0  0  0  0  0  0  0  0  0  0  0
   -0.9277   43.0493    1.3903 O   0  0  0  0  0  0  0  0  0  0  0  0
   -0.6129   42.2264    1.7093 H   0  0  0  0  0  0  0  0  0  0  0  0
    1.8825   42.8347    1.8990 C   0  0  0  0  0  0  0  0  0  0  0  0
    1.7617   41.4279    2.5484 C   0  0  0  0  0  0  0  0  0  0  0  0
    0.5939   40.7523    1.9492 N   0  0  0  0  0  0  0  0  0  0  0  0
   -0.2502   41.2870    2.1539 H   0  0  0  0  0  0  0  0  0  0  0  0
    0.5057   39.8146    2.3409 H   0  0  0  0  0  0  0  0  0  0  0  0
    1.7154   41.4531    4.1093 C   0  0  0  0  0  0  0  0  0  0  0  0
    2.8332   41.7193    6.3047 C   0  0  0  0  0  0  0  0  0  0  0  0
    3.0874   41.3731    4.8355 N   0  0  0  0  0  0  0  0  0  0  0  0
    4.0668   42.3840    4.2634 C   0  0  0  0  0  0  0  0  0  0  0  0
    3.6973   39.9804    4.7725 C   0  0  0  0  0  0  0  0  0  0  0  0
 20 21  1  0
 21 22  1  0
 21 23  1  0
 21 19  1  0
 19 15  1  0
 15 16  1  0
 15 14  1  0
  1 14  1  0
  1 10  1  0
 10 11  2  0
 10 12  1  0
  1  2  1  0
  3  2  1  0
  3  4  1  0
  4  5  1  0
  5  6  1  0
  6  7  1  0
  8  7  1  0
  8  9  1  0
  9  1  1  0
  8  3  1  0
 16 17  1  0
 16 18  1  0
 12 13  1  0
M  CHG 1  21   1
M  END
> <minimizedAffinity>
-2.35276

> <CNNscore>
0.4856658876

> <CNNaffinity>
6.5275282860

> <CNN_VS>
3.1701977253

> <CNNaffinity_variance>
0.5027599335

$$$$



 23 24  0  0  0  0  0  0  0  0999 V2000
   12.7960   53.4445   -5.3835 C   0  0  0  0  0  0  0  0  0  0  0  0
   13.5380   53.7534   -6.6849 C   0  0  0  0  0  0  0  0  0  0  0  0
   12.9895   55.0960   -7.1076 C   0  0  0  0  0  0  0  0  0  0  0  0
   13.0760   55.2229   -8.5220 O   0  0  0  0  0  0  0  0  0  0  0  0
   12.0785   56.0930   -9.0503 C   0  0  0  0  0  0  0  0  0  0  0  0
   10.6875   55.4834   -8.8734 C   0  0  0  0  0  0  0  0  0  0  0  0
   10.5719   54.6211   -7.6175 C   0  0  0  0  0  0  0  0  0  0  0  0
   11.5686   55.0673   -6.5562 C   0  0  0  0  0  0  0  0  0  0  0  0
   11.5520   54.1687   -5.4371 O   0  0  0  0  0  0  0  0  0  0  0  0
   12.5583   51.9249   -5.2780 C   0  0  0  0  0  0  0  0  0  0  0  0
   11.5554   51.3242   -5.6321 O   0  0  0  0  0  0  0  0  0  0  0  0
   13.5515   51.2713   -4.6443 O   0  0  0  0  0  0  0  0  0  0  0  0
   14.3196   51.7349   -4.3739 H   0  0  0  0  0  0  0  0  0  0  0  0
   13.5684   53.9198   -4.1286 C   0  0  0  0  0  0  0  0  0  0  0  0
   12.7119   54.5384   -2.9888 C   0  0  0  0  0  0  0  0  0  0  0  0
   13.5279   54.5368   -1.7586 N   0  0  0  0  0  0  0  0  0  0  0  0
   13.7681   53.5768   -1.5112 H   0  0  0  0  0  0  0  0  0  0  0  0
   12.9971   54.9612   -0.9980 H   0  0  0  0  0  0  0  0  0  0  0  0
   11.3220   53.8522   -2.7978 C   0  0  0  0  0  0  0  0  0  0  0  0
   10.8762   55.9347   -1.5310 C   0  0  0  0  0  0  0  0  0  0  0  0
   10.1933   54.7455   -2.2111 N   0  0  0  0  0  0  0  0  0  0  0  0
    9.3867   53.9904   -1.1684 C   0  0  0  0  0  0  0  0  0  0  0  0
    9.2602   55.2829   -3.2865 C   0  0  0  0  0  0  0  0  0  0  0  0
 20 21  1  0
 21 22  1  0
 21 23  1  0
 21 19  1  0
 19 15  1  0
 15 16  1  0
 15 14  1  0
  1 14  1  0
  1 10  1  0
 10 11  2  0
 10 12  1  0
  1  2  1  0
  3  2  1  0
  3  4  1  0
  4  5  1  0
  5  6  1  0
  6  7  1  0
  8  7  1  0
  8  9  1  0
  9  1  1  0
  8  3  1  0
 16 17  1  0
 16 18  1  0
 12 13  1  0
M  CHG 1  21   1
M  END
> <minimizedAffinity>
-0.00465

> <CNNscore>
0.4819278419

> <CNNaffinity>
3.7485506535

> <CNN_VS>
1.8065309525

> <CNNaffinity_variance>
0.1531267315

$$$$



 23 24  0  0  0  0  0  0  0  0999 V2000
    1.1280   44.3458    2.8277 C   0  0  0  0  0  0  0  0  0  0  0  0
    1.5650   45.8063    2.9529 C   0  0  0  0  0  0  0  0  0  0  0  0
    2.2054   45.8796    4.3190 C   0  0  0  0  0  0  0  0  0  0  0  0
    2.0882   47.2019    4.8307 O   0  0  0  0  0  0  0  0  0  0  0  0
    2.0723   47.2324    6.2555 C   0  0  0  0  0  0  0  0  0  0  0  0
    0.8010   46.5736    6.7916 C   0  0  0  0  0  0  0  0  0  0  0  0
    0.2971   45.4407    5.8989 C   0  0  0  0  0  0  0  0  0  0  0  0
    1.4404   44.8217    5.1061 C   0  0  0  0  0  0  0  0  0  0  0  0
    0.9413   43.8556    4.1692 O   0  0  0  0  0  0  0  0  0  0  0  0
   -0.1793   44.2705    2.0141 C   0  0  0  0  0  0  0  0  0  0  0  0
   -0.3758   43.5824    1.0242 O   0  0  0  0  0  0  0  0  0  0  0  0
   -1.1213   45.1372    2.4349 O   0  0  0  0  0  0  0  0  0  0  0  0
   -0.9677   45.6637    3.1946 H   0  0  0  0  0  0  0  0  0  0  0  0
    2.1969   43.4595    2.1428 C   0  0  0  0  0  0  0  0  0  0  0  0
    3.2419   42.7951    3.0819 C   0  0  0  0  0  0  0  0  0  0  0  0
    4.5398   43.4616    2.8572 N   0  0  0  0  0  0  0  0  0  0  0  0
    4.8287   43.3255    1.8885 H   0  0  0  0  0  0  0  0  0  0  0  0
    5.2405   43.0603    3.4805 H   0  0  0  0  0  0  0  0  0  0  0  0
    3.3230   41.2418    2.9402 C   0  0  0  0  0  0  0  0  0  0  0  0
    0.9701   40.6655    2.4187 C   0  0  0  0  0  0  0  0  0  0  0  0
    2.0869   40.4440    3.4419 N   0  0  0  0  0  0  0  0  0  0  0  0
    1.6156   40.9601    4.7909 C   0  0  0  0  0  0  0  0  0  0  0  0
    2.3590   38.9497    3.5345 C   0  0  0  0  0  0  0  0  0  0  0  0
 20 21  1  0
 21 22  1  0
 21 23  1  0
 21 19  1  0
 19 15  1  0
 15 16  1  0
 15 14  1  0
  1 14  1  0
  1 10  1  0
 10 11  2  0
 10 12  1  0
  1  2  1  0
  3  2  1  0
  3  4  1  0
  4  5  1  0
  5  6  1  0
  6  7  1  0
  8  7  1  0
  8  9  1  0
  9  1  1  0
  8  3  1  0
 16 17  1  0
 16 18  1  0
 12 13  1  0
M  CHG 1  21   1
M  END
> <minimizedAffinity>
-1.11216

> <CNNscore>
0.4799261093

> <CNNaffinity>
6.4942831993

> <CNN_VS>
3.1167759895

> <CNNaffinity_variance>
0.9490041137

$$$$



 23 24  0  0  0  0  0  0  0  0999 V2000
    1.6385   43.5089    4.1832 C   0  0  0  0  0  0  0  0  0  0  0  0
    3.1658   43.5934    4.1896 C   0  0  0  0  0  0  0  0  0  0  0  0
    3.6089   42.1695    4.4308 C   0  0  0  0  0  0  0  0  0  0  0  0
    4.8792   42.1671    5.0713 O   0  0  0  0  0  0  0  0  0  0  0  0
    5.0817   41.0038    5.8694 C   0  0  0  0  0  0  0  0  0  0  0  0
    4.1271   41.0004    7.0636 C   0  0  0  0  0  0  0  0  0  0  0  0
    2.7903   41.6739    6.7577 C   0  0  0  0  0  0  0  0  0  0  0  0
    2.4708   41.6010    5.2707 C   0  0  0  0  0  0  0  0  0  0  0  0
    1.2869   42.3548    4.9701 O   0  0  0  0  0  0  0  0  0  0  0  0
    1.0517   44.8008    4.7858 C   0  0  0  0  0  0  0  0  0  0  0  0
    1.5590   45.9113    4.7476 O   0  0  0  0  0  0  0  0  0  0  0  0
   -0.0831   44.5978    5.4833 O   0  0  0  0  0  0  0  0  0  0  0  0
   -0.4699   43.7448    5.5108 H   0  0  0  0  0  0  0  0  0  0  0  0
    1.0577   43.3093    2.7619 C   0  0  0  0  0  0  0  0  0  0  0  0
    0.2925   44.5191    2.1569 C   0  0  0  0  0  0  0  0  0  0  0  0
   -1.0668   44.0638    1.8046 N   0  0  0  0  0  0  0  0  0  0  0  0
   -1.0069   43.3241    1.1049 H   0  0  0  0  0  0  0  0  0  0  0  0
   -1.6004   44.8467    1.4269 H   0  0  0  0  0  0  0  0  0  0  0  0
    1.0328   45.2041    0.9644 C   0  0  0  0  0  0  0  0  0  0  0  0
    3.3028   45.3587    1.9460 C   0  0  0  0  0  0  0  0  0  0  0  0
    2.1702   46.1936    1.3433 N   0  0  0  0  0  0  0  0  0  0  0  0
    1.6987   47.1927    2.3863 C   0  0  0  0  0  0  0  0  0  0  0  0
    2.7180   46.9386    0.1348 C   0  0  0  0  0  0  0  0  0  0  0  0
 20 21  1  0
 21 22  1  0
 21 23  1  0
 21 19  1  0
 19 15  1  0
 15 16  1  0
 15 14  1  0
  1 14  1  0
  1 10  1  0
 10 11  2  0
 10 12  1  0
  1  2  1  0
  3  2  1  0
  3  4  1  0
  4  5  1  0
  5  6  1  0
  6  7  1  0
  8  7  1  0
  8  9  1  0
  9  1  1  0
  8  3  1  0
 16 17  1  0
 16 18  1  0
 12 13  1  0
M  CHG 1  21   1
M  END
> <minimizedAffinity>
0.91912

> <CNNscore>
0.4752451479

> <CNNaffinity>
5.5957579613

> <CNN_VS>
2.6593568325

> <CNNaffinity_variance>
0.2452189475

$$$$



 23 24  0  0  0  0  0  0  0  0999 V2000
   10.9353   52.7351   -5.7475 C   0  0  0  0  0  0  0  0  0  0  0  0
   11.1868   54.1943   -5.3637 C   0  0  0  0  0  0  0  0  0  0  0  0
   11.6620   54.1181   -3.9318 C   0  0  0  0  0  0  0  0  0  0  0  0
   11.3397   55.3285   -3.2570 O   0  0  0  0  0  0  0  0  0  0  0  0
   11.1653   55.1379   -1.8554 C   0  0  0  0  0  0  0  0  0  0  0  0
    9.9265   54.2850   -1.5806 C   0  0  0  0  0  0  0  0  0  0  0  0
    9.6553   53.2595   -2.6802 C   0  0  0  0  0  0  0  0  0  0  0  0
   10.9412   52.8830   -3.4037 C   0  0  0  0  0  0  0  0  0  0  0  0
   10.6605   52.0289   -4.5226 O   0  0  0  0  0  0  0  0  0  0  0  0
    9.7416   52.6601   -6.7202 C   0  0  0  0  0  0  0  0  0  0  0  0
    9.6573   51.9449   -7.7068 O   0  0  0  0  0  0  0  0  0  0  0  0
    8.7744   53.5582   -6.4496 O   0  0  0  0  0  0  0  0  0  0  0  0
    8.8418   54.1055   -5.6920 H   0  0  0  0  0  0  0  0  0  0  0  0
   12.1665   52.0720   -6.4120 C   0  0  0  0  0  0  0  0  0  0  0  0
   12.5182   52.5587   -7.8455 C   0  0  0  0  0  0  0  0  0  0  0  0
   13.3532   51.5215   -8.4827 N   0  0  0  0  0  0  0  0  0  0  0  0
   14.2151   51.4042   -7.9501 H   0  0  0  0  0  0  0  0  0  0  0  0
   13.5787   51.8049   -9.4363 H   0  0  0  0  0  0  0  0  0  0  0  0
   13.1704   53.9771   -7.8901 C   0  0  0  0  0  0  0  0  0  0  0  0
   11.4595   55.7642   -7.7511 C   0  0  0  0  0  0  0  0  0  0  0  0
   12.4113   55.0530   -8.7162 N   0  0  0  0  0  0  0  0  0  0  0  0
   11.5890   54.4121   -9.8213 C   0  0  0  0  0  0  0  0  0  0  0  0
   13.3476   56.0925   -9.3149 C   0  0  0  0  0  0  0  0  0  0  0  0
 20 21  1  0
 21 22  1  0
 21 23  1  0
 21 19  1  0
 19 15  1  0
 15 16  1  0
 15 14  1  0
  1 14  1  0
  1 10  1  0
 10 11  2  0
 10 12  1  0
  1  2  1  0
  3  2  1  0
  3  4  1  0
  4  5  1  0
  5  6  1  0
  6  7  1  0
  8  7  1  0
  8  9  1  0
  9  1  1  0
  8  3  1  0
 16 17  1  0
 16 18  1  0
 12 13  1  0
M  CHG 1  21   1
M  END
> <minimizedAffinity>
-1.14469

> <CNNscore>
0.4515494108

> <CNNaffinity>
3.8298685551

> <CNN_VS>
1.7293748856

> <CNNaffinity_variance>
0.3099717796

$$$$



 23 24  0  0  0  0  0  0  0  0999 V2000
   12.0886   53.7901   -5.0315 C   0  0  0  0  0  0  0  0  0  0  0  0
   12.9561   54.5457   -6.0396 C   0  0  0  0  0  0  0  0  0  0  0  0
   11.9807   55.4525   -6.7528 C   0  0  0  0  0  0  0  0  0  0  0  0
   12.4571   55.7281   -8.0647 O   0  0  0  0  0  0  0  0  0  0  0  0
   11.3995   56.0107   -8.9773 C   0  0  0  0  0  0  0  0  0  0  0  0
   10.5439   54.7650   -9.2084 C   0  0  0  0  0  0  0  0  0  0  0  0
   10.4699   53.8587   -7.9806 C   0  0  0  0  0  0  0  0  0  0  0  0
   10.6819   54.6561   -6.7009 C   0  0  0  0  0  0  0  0  0  0  0  0
   10.7507   53.7811   -5.5652 O   0  0  0  0  0  0  0  0  0  0  0  0
   12.6346   52.3589   -4.8576 C   0  0  0  0  0  0  0  0  0  0  0  0
   12.2424   51.3601   -5.4411 O   0  0  0  0  0  0  0  0  0  0  0  0
   13.5678   52.2567   -3.8911 O   0  0  0  0  0  0  0  0  0  0  0  0
   13.8666   53.0248   -3.4453 H   0  0  0  0  0  0  0  0  0  0  0  0
   12.0428   54.4815   -3.6470 C   0  0  0  0  0  0  0  0  0  0  0  0
   10.6332   54.6711   -3.0206 C   0  0  0  0  0  0  0  0  0  0  0  0
   10.8129   55.2079   -1.6572 N   0  0  0  0  0  0  0  0  0  0  0  0
   11.3398   54.5393   -1.0953 H   0  0  0  0  0  0  0  0  0  0  0  0
    9.8999   55.3655   -1.2307 H   0  0  0  0  0  0  0  0  0  0  0  0
    9.7465   53.3858   -3.0564 C   0  0  0  0  0  0  0  0  0  0  0  0
   11.4193   52.6873   -1.3670 C   0  0  0  0  0  0  0  0  0  0  0  0
   10.0855   52.2918   -2.0056 N   0  0  0  0  0  0  0  0  0  0  0  0
   10.2500   50.9336   -2.6661 C   0  0  0  0  0  0  0  0  0  0  0  0
    9.0388   52.1999   -0.9049 C   0  0  0  0  0  0  0  0  0  0  0  0
 20 21  1  0
 21 22  1  0
 21 23  1  0
 21 19  1  0
 19 15  1  0
 15 16  1  0
 15 14  1  0
  1 14  1  0
  1 10  1  0
 10 11  2  0
 10 12  1  0
  1  2  1  0
  3  2  1  0
  3  4  1  0
  4  5  1  0
  5  6  1  0
  6  7  1  0
  8  7  1  0
  8  9  1  0
  9  1  1  0
  8  3  1  0
 16 17  1  0
 16 18  1  0
 12 13  1  0
M  CHG 1  21   1
M  END
> <minimizedAffinity>
-1.39309

> <CNNscore>
0.3943870068

> <CNNaffinity>
3.8491175175

> <CNN_VS>
1.5180419683

> <CNNaffinity_variance>
0.0043233158

$$$$



 23 24  0  0  0  0  0  0  0  0999 V2000
   10.7325   50.6986   -3.7017 C   0  0  0  0  0  0  0  0  0  0  0  0
   12.1091   50.0381   -3.6093 C   0  0  0  0  0  0  0  0  0  0  0  0
   11.8411   48.5886   -3.9398 C   0  0  0  0  0  0  0  0  0  0  0  0
   12.8169   47.7672   -3.3097 O   0  0  0  0  0  0  0  0  0  0  0  0
   12.3270   46.4575   -3.0342 C   0  0  0  0  0  0  0  0  0  0  0  0
   11.2268   46.5090   -1.9738 C   0  0  0  0  0  0  0  0  0  0  0  0
   10.4048   47.7956   -2.0323 C   0  0  0  0  0  0  0  0  0  0  0  0
   10.4167   48.3867   -3.4356 C   0  0  0  0  0  0  0  0  0  0  0  0
    9.7620   49.6639   -3.4519 O   0  0  0  0  0  0  0  0  0  0  0  0
   10.6345   51.8264   -2.6552 C   0  0  0  0  0  0  0  0  0  0  0  0
   11.5552   52.5216   -2.2538 O   0  0  0  0  0  0  0  0  0  0  0  0
    9.4091   51.9420   -2.1072 O   0  0  0  0  0  0  0  0  0  0  0  0
    8.7049   51.4073   -2.4172 H   0  0  0  0  0  0  0  0  0  0  0  0
   10.4467   51.2891   -5.1041 C   0  0  0  0  0  0  0  0  0  0  0  0
   11.6892   51.5983   -5.9850 C   0  0  0  0  0  0  0  0  0  0  0  0
   12.0232   53.0256   -5.8102 N   0  0  0  0  0  0  0  0  0  0  0  0
   11.2406   53.5990   -6.1253 H   0  0  0  0  0  0  0  0  0  0  0  0
   12.8524   53.2505   -6.3599 H   0  0  0  0  0  0  0  0  0  0  0  0
   11.5196   51.1922   -7.4835 C   0  0  0  0  0  0  0  0  0  0  0  0
    9.3762   52.3723   -7.8754 C   0  0  0  0  0  0  0  0  0  0  0  0
   10.8083   52.2296   -8.3968 N   0  0  0  0  0  0  0  0  0  0  0  0
   10.7526   51.7425   -9.8348 C   0  0  0  0  0  0  0  0  0  0  0  0
   11.4721   53.5980   -8.3475 C   0  0  0  0  0  0  0  0  0  0  0  0
 20 21  1  0
 21 22  1  0
 21 23  1  0
 21 19  1  0
 19 15  1  0
 15 16  1  0
 15 14  1  0
  1 14  1  0
  1 10  1  0
 10 11  2  0
 10 12  1  0
  1  2  1  0
  3  2  1  0
  3  4  1  0
  4  5  1  0
  5  6  1  0
  6  7  1  0
  8  7  1  0
  8  9  1  0
  9  1  1  0
  8  3  1  0
 16 17  1  0
 16 18  1  0
 12 13  1  0
M  CHG 1  21   1
M  END
> <minimizedAffinity>
-3.24246

> <CNNscore>
0.3305292130

> <CNNaffinity>
3.4641640186

> <CNN_VS>
1.1450073719

> <CNNaffinity_variance>
0.4365370274

$$$$
