


 32 36  0  0  0  0  0  0  0  0999 V2000
   -4.7910   11.6887   20.9413 N   0  0  0  0  0  0  0  0  0  0  0  0
   -4.2164   12.5191   20.0271 C   0  0  0  0  0  0  0  0  0  0  0  0
   -4.8152   13.2656   19.2670 O   0  0  0  0  0  0  0  0  0  0  0  0
   -2.7228   12.3221   20.0516 C   0  0  0  0  0  0  0  0  0  0  0  0
   -2.5018   11.2345   21.1076 C   0  0  0  0  0  0  0  0  0  0  0  0
   -3.8964   10.8044   21.4655 C   0  0  0  0  0  0  0  0  0  0  0  0
   -4.1880    9.7864   22.0829 O   0  0  0  0  0  0  0  0  0  0  0  0
   -1.7253   11.9069   22.2428 C   0  0  0  0  0  0  0  0  0  0  0  0
   -1.9251   13.3574   22.0262 N   0  0  0  0  0  0  0  0  0  0  0  0
   -0.7931   14.1753   22.4833 C   0  0  0  0  0  0  0  0  0  0  0  0
    0.0967   14.4266   21.2687 C   0  0  0  0  0  0  0  0  0  0  0  0
   -0.5781   13.7044   20.1142 C   0  0  0  0  0  0  0  0  0  0  0  0
   -2.0244   13.5619   20.5723 C   0  0  0  0  0  0  0  0  0  0  0  0
   -2.1592   11.5123   23.6197 C   0  0  0  0  0  0  0  0  0  0  0  0
   -1.6606   10.3804   24.2462 N   0  0  0  0  0  0  0  0  0  0  0  0
   -2.2434   10.3678   25.4327 C   0  0  0  0  0  0  0  0  0  0  0  0
   -3.0674   11.4460   25.6435 O   0  0  0  0  0  0  0  0  0  0  0  0
   -3.0100   12.1636   24.4872 C   0  0  0  0  0  0  0  0  0  0  0  0
   -3.9381   13.7929   24.1877 Br  0  0  0  0  0  0  0  0  0  0  0  0
   -2.0180    9.3285   26.3980 C   0  0  0  0  0  0  0  0  0  0  0  0
   -2.7357    9.1088   27.5616 C   0  0  0  0  0  0  0  0  0  0  0  0
   -2.2436    7.9902   28.3010 C   0  0  0  0  0  0  0  0  0  0  0  0
   -1.1842    7.4047   27.6581 C   0  0  0  0  0  0  0  0  0  0  0  0
   -0.3050    6.0253   28.1790 Cl  0  0  0  0  0  0  0  0  0  0  0  0
   -0.7644    8.1714   26.2104 S   0  0  0  0  0  0  0  0  0  0  0  0
   -6.2177   11.5852   21.1660 C   0  0  0  0  0  0  0  0  0  0  0  0
   -6.9277   10.9260   19.9883 C   0  0  0  0  0  0  0  0  0  0  0  0
   -6.7923    9.4055   19.9070 C   0  0  0  0  0  0  0  0  0  0  0  0
   -7.1943    8.1454   17.7963 C   0  0  0  0  0  0  0  0  0  0  0  0
   -6.1078    8.8302   18.6445 N   0  0  0  0  0  0  0  0  0  0  0  0
   -5.0771    7.7590   18.9941 C   0  0  0  0  0  0  0  0  0  0  0  0
   -5.4501    9.8986   17.7722 C   0  0  0  0  0  0  0  0  0  0  0  0
 29 30  1  0
 30 31  1  0
 30 32  1  0
 30 28  1  0
 28 27  1  0
 27 26  1  0
 26  1  1  0
  1  2  1  0
  2  3  2  0
  4  2  1  0
  4  5  1  0
  5  6  1  0
  6  7  2  0
  5  8  1  0
  8 14  1  0
 14 15  1  0
 15 16  2  0
 16 20  1  0
 20 21  2  0
 21 22  1  0
 22 23  2  0
 23 24  1  0
 23 25  1  0
 16 17  1  0
 17 18  1  0
 18 19  1  0
  8  9  1  0
  9 10  1  0
 10 11  1  0
 11 12  1  0
 13 12  1  0
  6  1  1  0
 18 14  2  0
 13  9  1  0
 13  4  1  0
 25 20  1  0
M  CHG 1  30   1
M  END
> <minimizedAffinity>
-7.68424

> <CNNscore>
0.9012232423

> <CNNaffinity>
7.8891086578

> <CNN_VS>
7.1098480225

> <CNNaffinity_variance>
0.1870839447

$$$$



 32 36  0  0  0  0  0  0  0  0999 V2000
   -4.7925   10.9421   20.7272 N   0  0  0  0  0  0  0  0  0  0  0  0
   -5.7443   11.9045   20.5740 C   0  0  0  0  0  0  0  0  0  0  0  0
   -6.9307   11.7056   20.3587 O   0  0  0  0  0  0  0  0  0  0  0  0
   -5.0907   13.2604   20.6430 C   0  0  0  0  0  0  0  0  0  0  0  0
   -3.6030   12.9537   20.8424 C   0  0  0  0  0  0  0  0  0  0  0  0
   -3.5317   11.4589   20.7066 C   0  0  0  0  0  0  0  0  0  0  0  0
   -2.5046   10.8098   20.5444 O   0  0  0  0  0  0  0  0  0  0  0  0
   -3.2491   13.4905   22.2317 C   0  0  0  0  0  0  0  0  0  0  0  0
   -4.5519   13.6489   22.9159 N   0  0  0  0  0  0  0  0  0  0  0  0
   -4.5638   14.7411   23.8990 C   0  0  0  0  0  0  0  0  0  0  0  0
   -5.1295   15.9713   23.1943 C   0  0  0  0  0  0  0  0  0  0  0  0
   -5.4224   15.5257   21.7711 C   0  0  0  0  0  0  0  0  0  0  0  0
   -5.5353   14.0102   21.8824 C   0  0  0  0  0  0  0  0  0  0  0  0
   -2.3352   12.6137   23.0292 C   0  0  0  0  0  0  0  0  0  0  0  0
   -2.8146   11.7624   24.0131 N   0  0  0  0  0  0  0  0  0  0  0  0
   -1.7414   11.1446   24.4760 C   0  0  0  0  0  0  0  0  0  0  0  0
   -0.5856   11.5076   23.8293 O   0  0  0  0  0  0  0  0  0  0  0  0
   -0.9720   12.4418   22.9165 C   0  0  0  0  0  0  0  0  0  0  0  0
    0.2032   13.3038   21.6993 Br  0  0  0  0  0  0  0  0  0  0  0  0
   -1.7973   10.1841   25.5423 C   0  0  0  0  0  0  0  0  0  0  0  0
   -2.7182   10.1460   26.5757 C   0  0  0  0  0  0  0  0  0  0  0  0
   -2.4841    9.0597   27.4729 C   0  0  0  0  0  0  0  0  0  0  0  0
   -1.4051    8.3158   27.0720 C   0  0  0  0  0  0  0  0  0  0  0  0
   -0.7846    6.9127   27.8423 Cl  0  0  0  0  0  0  0  0  0  0  0  0
   -0.6676    8.8979   25.6658 S   0  0  0  0  0  0  0  0  0  0  0  0
   -5.0564    9.5192   20.6803 C   0  0  0  0  0  0  0  0  0  0  0  0
   -5.1083    9.0021   19.2466 C   0  0  0  0  0  0  0  0  0  0  0  0
   -5.2157    7.4844   19.0991 C   0  0  0  0  0  0  0  0  0  0  0  0
   -6.1585    7.2040   16.8106 C   0  0  0  0  0  0  0  0  0  0  0  0
   -6.4267    6.9423   18.3034 N   0  0  0  0  0  0  0  0  0  0  0  0
   -7.7165    7.6789   18.6581 C   0  0  0  0  0  0  0  0  0  0  0  0
   -6.6399    5.4390   18.4748 C   0  0  0  0  0  0  0  0  0  0  0  0
 29 30  1  0
 30 31  1  0
 30 32  1  0
 30 28  1  0
 28 27  1  0
 27 26  1  0
 26  1  1  0
  1  2  1  0
  2  3  2  0
  4  2  1  0
  4  5  1  0
  5  6  1  0
  6  7  2  0
  5  8  1  0
  8 14  1  0
 14 15  1  0
 15 16  2  0
 16 20  1  0
 20 21  2  0
 21 22  1  0
 22 23  2  0
 23 24  1  0
 23 25  1  0
 16 17  1  0
 17 18  1  0
 18 19  1  0
  8  9  1  0
  9 10  1  0
 10 11  1  0
 11 12  1  0
 13 12  1  0
  6  1  1  0
 18 14  2  0
 13  9  1  0
 13  4  1  0
 25 20  1  0
M  CHG 1  30   1
M  END
> <minimizedAffinity>
-8.64229

> <CNNscore>
0.8818452954

> <CNNaffinity>
7.9128055573

> <CNN_VS>
6.9778704643

> <CNNaffinity_variance>
0.1535954028

$$$$



 32 36  0  0  0  0  0  0  0  0999 V2000
   -5.2310   11.0132   20.0385 N   0  0  0  0  0  0  0  0  0  0  0  0
   -4.4590    9.8935   20.1148 C   0  0  0  0  0  0  0  0  0  0  0  0
   -3.6302    9.6569   20.9812 O   0  0  0  0  0  0  0  0  0  0  0  0
   -4.7386    9.0190   18.9200 C   0  0  0  0  0  0  0  0  0  0  0  0
   -5.7813    9.8008   18.1145 C   0  0  0  0  0  0  0  0  0  0  0  0
   -5.8750   11.1125   18.8416 C   0  0  0  0  0  0  0  0  0  0  0  0
   -6.3984   12.1305   18.4031 O   0  0  0  0  0  0  0  0  0  0  0  0
   -7.0562    8.9540   18.1497 C   0  0  0  0  0  0  0  0  0  0  0  0
   -6.8550    8.0197   19.2798 N   0  0  0  0  0  0  0  0  0  0  0  0
   -7.5298    6.7275   19.0937 C   0  0  0  0  0  0  0  0  0  0  0  0
   -6.4988    5.7641   18.5116 C   0  0  0  0  0  0  0  0  0  0  0  0
   -5.2211    6.5743   18.3677 C   0  0  0  0  0  0  0  0  0  0  0  0
   -5.4136    7.7298   19.3423 C   0  0  0  0  0  0  0  0  0  0  0  0
   -8.3222    9.7326   18.3251 C   0  0  0  0  0  0  0  0  0  0  0  0
   -9.0768   10.1537   17.2409 N   0  0  0  0  0  0  0  0  0  0  0  0
  -10.1127   10.7785   17.7738 C   0  0  0  0  0  0  0  0  0  0  0  0
  -10.1088   10.7609   19.1470 O   0  0  0  0  0  0  0  0  0  0  0  0
   -8.9680   10.0989   19.4868 C   0  0  0  0  0  0  0  0  0  0  0  0
   -8.4256    9.7406   21.2709 Br  0  0  0  0  0  0  0  0  0  0  0  0
  -11.1374   11.3992   16.9816 C   0  0  0  0  0  0  0  0  0  0  0  0
  -11.2718   11.3371   15.6048 C   0  0  0  0  0  0  0  0  0  0  0  0
  -12.4009   12.0748   15.1349 C   0  0  0  0  0  0  0  0  0  0  0  0
  -13.0788   12.6513   16.1772 C   0  0  0  0  0  0  0  0  0  0  0  0
  -14.5020   13.6054   16.0711 Cl  0  0  0  0  0  0  0  0  0  0  0  0
  -12.3860   12.3410   17.6884 S   0  0  0  0  0  0  0  0  0  0  0  0
   -5.1985   12.0935   21.0021 C   0  0  0  0  0  0  0  0  0  0  0  0
   -3.9485   12.9527   20.8443 C   0  0  0  0  0  0  0  0  0  0  0  0
   -3.0909   13.1017   22.1010 C   0  0  0  0  0  0  0  0  0  0  0  0
   -1.3037   12.3254   20.5491 C   0  0  0  0  0  0  0  0  0  0  0  0
   -1.5596   12.9696   21.9232 N   0  0  0  0  0  0  0  0  0  0  0  0
   -0.9431   12.0434   22.9692 C   0  0  0  0  0  0  0  0  0  0  0  0
   -0.8297   14.3119   21.9440 C   0  0  0  0  0  0  0  0  0  0  0  0
 29 30  1  0
 30 31  1  0
 30 32  1  0
 30 28  1  0
 28 27  1  0
 27 26  1  0
 26  1  1  0
  1  2  1  0
  2  3  2  0
  4  2  1  0
  4  5  1  0
  5  6  1  0
  6  7  2  0
  5  8  1  0
  8 14  1  0
 14 15  1  0
 15 16  2  0
 16 20  1  0
 20 21  2  0
 21 22  1  0
 22 23  2  0
 23 24  1  0
 23 25  1  0
 16 17  1  0
 17 18  1  0
 18 19  1  0
  8  9  1  0
  9 10  1  0
 10 11  1  0
 11 12  1  0
 13 12  1  0
  6  1  1  0
 18 14  2  0
 13  9  1  0
 13  4  1  0
 25 20  1  0
M  CHG 1  30   1
M  END
> <minimizedAffinity>
-6.03954

> <CNNscore>
0.7853597999

> <CNNaffinity>
7.4555907249

> <CNN_VS>
5.8553214073

> <CNNaffinity_variance>
0.7098826766

$$$$



 32 36  0  0  0  0  0  0  0  0999 V2000
   -5.8231   10.0071   19.6959 N   0  0  0  0  0  0  0  0  0  0  0  0
   -5.9614    8.7885   20.2888 C   0  0  0  0  0  0  0  0  0  0  0  0
   -6.3303    8.5925   21.4373 O   0  0  0  0  0  0  0  0  0  0  0  0
   -5.5203    7.7178   19.3248 C   0  0  0  0  0  0  0  0  0  0  0  0
   -5.0821    8.4898   18.0762 C   0  0  0  0  0  0  0  0  0  0  0  0
   -5.1634    9.9274   18.5061 C   0  0  0  0  0  0  0  0  0  0  0  0
   -4.6646   10.8751   17.9098 O   0  0  0  0  0  0  0  0  0  0  0  0
   -6.0664    8.0922   16.9731 C   0  0  0  0  0  0  0  0  0  0  0  0
   -7.2247    7.5173   17.6931 N   0  0  0  0  0  0  0  0  0  0  0  0
   -7.9269    6.4770   16.9289 C   0  0  0  0  0  0  0  0  0  0  0  0
   -7.3654    5.1322   17.3831 C   0  0  0  0  0  0  0  0  0  0  0  0
   -6.3100    5.4635   18.4252 C   0  0  0  0  0  0  0  0  0  0  0  0
   -6.6944    6.8601   18.8983 C   0  0  0  0  0  0  0  0  0  0  0  0
   -6.4998    9.2153   16.0839 C   0  0  0  0  0  0  0  0  0  0  0  0
   -5.8359    9.5096   14.9028 N   0  0  0  0  0  0  0  0  0  0  0  0
   -6.5029   10.5272   14.3861 C   0  0  0  0  0  0  0  0  0  0  0  0
   -7.5925   10.8978   15.1353 O   0  0  0  0  0  0  0  0  0  0  0  0
   -7.5798   10.0626   16.2112 C   0  0  0  0  0  0  0  0  0  0  0  0
   -8.8724   10.0840   17.6021 Br  0  0  0  0  0  0  0  0  0  0  0  0
   -6.1195   11.1636   13.1569 C   0  0  0  0  0  0  0  0  0  0  0  0
   -5.7826   10.5365   11.9692 C   0  0  0  0  0  0  0  0  0  0  0  0
   -5.4437   11.4671   10.9401 C   0  0  0  0  0  0  0  0  0  0  0  0
   -5.5519   12.7572   11.3898 C   0  0  0  0  0  0  0  0  0  0  0  0
   -5.2604   14.1860   10.4840 Cl  0  0  0  0  0  0  0  0  0  0  0  0
   -6.0312   12.8712   13.0076 S   0  0  0  0  0  0  0  0  0  0  0  0
   -6.1207   11.2676   20.3432 C   0  0  0  0  0  0  0  0  0  0  0  0
   -6.2945   12.3945   19.3306 C   0  0  0  0  0  0  0  0  0  0  0  0
   -7.6730   13.0550   19.3129 C   0  0  0  0  0  0  0  0  0  0  0  0
   -6.6421   15.2256   18.6565 C   0  0  0  0  0  0  0  0  0  0  0  0
   -7.8429   14.2963   18.4052 N   0  0  0  0  0  0  0  0  0  0  0  0
   -9.0994   15.0902   18.7560 C   0  0  0  0  0  0  0  0  0  0  0  0
   -7.8582   13.9589   16.9149 C   0  0  0  0  0  0  0  0  0  0  0  0
 29 30  1  0
 30 31  1  0
 30 32  1  0
 30 28  1  0
 28 27  1  0
 27 26  1  0
 26  1  1  0
  1  2  1  0
  2  3  2  0
  4  2  1  0
  4  5  1  0
  5  6  1  0
  6  7  2  0
  5  8  1  0
  8 14  1  0
 14 15  1  0
 15 16  2  0
 16 20  1  0
 20 21  2  0
 21 22  1  0
 22 23  2  0
 23 24  1  0
 23 25  1  0
 16 17  1  0
 17 18  1  0
 18 19  1  0
  8  9  1  0
  9 10  1  0
 10 11  1  0
 11 12  1  0
 13 12  1  0
  6  1  1  0
 18 14  2  0
 13  9  1  0
 13  4  1  0
 25 20  1  0
M  CHG 1  30   1
M  END
> <minimizedAffinity>
-5.79785

> <CNNscore>
0.6517280936

> <CNNaffinity>
6.6838035583

> <CNN_VS>
4.3560223579

> <CNNaffinity_variance>
0.1913669258

$$$$



 32 36  0  0  0  0  0  0  0  0999 V2000
   -5.7913   10.5043   19.4721 N   0  0  0  0  0  0  0  0  0  0  0  0
   -5.2287    9.3767   19.9894 C   0  0  0  0  0  0  0  0  0  0  0  0
   -4.9160    9.2082   21.1587 O   0  0  0  0  0  0  0  0  0  0  0  0
   -4.9877    8.3901   18.8762 C   0  0  0  0  0  0  0  0  0  0  0  0
   -5.4768    9.1132   17.6173 C   0  0  0  0  0  0  0  0  0  0  0  0
   -5.7982   10.4962   18.1094 C   0  0  0  0  0  0  0  0  0  0  0  0
   -5.9811   11.4773   17.3977 O   0  0  0  0  0  0  0  0  0  0  0  0
   -6.6824    8.3123   17.1182 C   0  0  0  0  0  0  0  0  0  0  0  0
   -7.0982    7.4964   18.2809 N   0  0  0  0  0  0  0  0  0  0  0  0
   -7.7046    6.2121   17.9034 C   0  0  0  0  0  0  0  0  0  0  0  0
   -6.5966    5.1631   17.9503 C   0  0  0  0  0  0  0  0  0  0  0  0
   -5.3410    5.9161   18.3578 C   0  0  0  0  0  0  0  0  0  0  0  0
   -5.8759    7.1727   19.0338 C   0  0  0  0  0  0  0  0  0  0  0  0
   -7.8234    9.1417   16.6180 C   0  0  0  0  0  0  0  0  0  0  0  0
   -8.8484    9.5543   17.4555 N   0  0  0  0  0  0  0  0  0  0  0  0
   -9.6467   10.2709   16.6829 C   0  0  0  0  0  0  0  0  0  0  0  0
   -9.1896   10.3901   15.3934 O   0  0  0  0  0  0  0  0  0  0  0  0
   -8.0352    9.6678   15.3615 C   0  0  0  0  0  0  0  0  0  0  0  0
   -6.9290    9.4790   13.8297 Br  0  0  0  0  0  0  0  0  0  0  0  0
  -10.8618   10.8677   17.1626 C   0  0  0  0  0  0  0  0  0  0  0  0
  -11.1489   11.2274   18.4686 C   0  0  0  0  0  0  0  0  0  0  0  0
  -12.4542   11.7912   18.6029 C   0  0  0  0  0  0  0  0  0  0  0  0
  -13.0923   11.8458   17.3912 C   0  0  0  0  0  0  0  0  0  0  0  0
  -14.6640   12.4663   17.0879 Cl  0  0  0  0  0  0  0  0  0  0  0  0
  -12.1725   11.2269   16.1142 S   0  0  0  0  0  0  0  0  0  0  0  0
   -6.1281   11.6784   20.2498 C   0  0  0  0  0  0  0  0  0  0  0  0
   -4.9209   12.5888   20.4482 C   0  0  0  0  0  0  0  0  0  0  0  0
   -4.3878   12.6704   21.8786 C   0  0  0  0  0  0  0  0  0  0  0  0
   -2.3876   11.6806   20.7722 C   0  0  0  0  0  0  0  0  0  0  0  0
   -2.9187   12.2406   22.1037 N   0  0  0  0  0  0  0  0  0  0  0  0
   -2.8054   11.1188   23.1336 C   0  0  0  0  0  0  0  0  0  0  0  0
   -2.0058   13.3958   22.5126 C   0  0  0  0  0  0  0  0  0  0  0  0
 29 30  1  0
 30 31  1  0
 30 32  1  0
 30 28  1  0
 28 27  1  0
 27 26  1  0
 26  1  1  0
  1  2  1  0
  2  3  2  0
  4  2  1  0
  4  5  1  0
  5  6  1  0
  6  7  2  0
  5  8  1  0
  8 14  1  0
 14 15  1  0
 15 16  2  0
 16 20  1  0
 20 21  2  0
 21 22  1  0
 22 23  2  0
 23 24  1  0
 23 25  1  0
 16 17  1  0
 17 18  1  0
 18 19  1  0
  8  9  1  0
  9 10  1  0
 10 11  1  0
 11 12  1  0
 13 12  1  0
  6  1  1  0
 18 14  2  0
 13  9  1  0
 13  4  1  0
 25 20  1  0
M  CHG 1  30   1
M  END
> <minimizedAffinity>
-6.16149

> <CNNscore>
0.5701708794

> <CNNaffinity>
7.2642703056

> <CNN_VS>
4.1418752670

> <CNNaffinity_variance>
0.4511747658

$$$$



 32 36  0  0  0  0  0  0  0  0999 V2000
   -5.7698    9.9603   19.6683 N   0  0  0  0  0  0  0  0  0  0  0  0
   -5.9147    8.7425   20.2613 C   0  0  0  0  0  0  0  0  0  0  0  0
   -6.2635    8.5493   21.4165 O   0  0  0  0  0  0  0  0  0  0  0  0
   -5.5094    7.6675   19.2863 C   0  0  0  0  0  0  0  0  0  0  0  0
   -5.0847    8.4359   18.0308 C   0  0  0  0  0  0  0  0  0  0  0  0
   -5.1355    9.8735   18.4653 C   0  0  0  0  0  0  0  0  0  0  0  0
   -4.6344   10.8150   17.8611 O   0  0  0  0  0  0  0  0  0  0  0  0
   -6.0968    8.0558   16.9469 C   0  0  0  0  0  0  0  0  0  0  0  0
   -7.2491    7.4968   17.6889 N   0  0  0  0  0  0  0  0  0  0  0  0
   -7.9822    6.4691   16.9367 C   0  0  0  0  0  0  0  0  0  0  0  0
   -7.4321    5.1148   17.3767 C   0  0  0  0  0  0  0  0  0  0  0  0
   -6.3511    5.4277   18.3981 C   0  0  0  0  0  0  0  0  0  0  0  0
   -6.7047    6.8288   18.8817 C   0  0  0  0  0  0  0  0  0  0  0  0
   -6.5309    9.1875   16.0690 C   0  0  0  0  0  0  0  0  0  0  0  0
   -5.8578    9.5036   14.8987 N   0  0  0  0  0  0  0  0  0  0  0  0
   -6.5283   10.5228   14.3894 C   0  0  0  0  0  0  0  0  0  0  0  0
   -7.6283   10.8739   15.1327 O   0  0  0  0  0  0  0  0  0  0  0  0
   -7.6192   10.0240   16.1971 C   0  0  0  0  0  0  0  0  0  0  0  0
   -8.9256   10.0153   17.5752 Br  0  0  0  0  0  0  0  0  0  0  0  0
   -6.1381   11.1794   13.1731 C   0  0  0  0  0  0  0  0  0  0  0  0
   -5.8138   10.5726   11.9713 C   0  0  0  0  0  0  0  0  0  0  0  0
   -5.4632   11.5196   10.9613 C   0  0  0  0  0  0  0  0  0  0  0  0
   -5.5504   12.8014   11.4388 C   0  0  0  0  0  0  0  0  0  0  0  0
   -5.2392   14.2445   10.5627 Cl  0  0  0  0  0  0  0  0  0  0  0  0
   -6.0240   12.8881   13.0599 S   0  0  0  0  0  0  0  0  0  0  0  0
   -6.0352   11.2236   20.3242 C   0  0  0  0  0  0  0  0  0  0  0  0
   -7.5315   11.4895   20.4517 C   0  0  0  0  0  0  0  0  0  0  0  0
   -8.0973   11.3932   21.8685 C   0  0  0  0  0  0  0  0  0  0  0  0
  -10.3178   10.3139   22.1997 C   0  0  0  0  0  0  0  0  0  0  0  0
   -9.6098   11.6709   22.0386 N   0  0  0  0  0  0  0  0  0  0  0  0
  -10.2081   12.3396   20.8029 C   0  0  0  0  0  0  0  0  0  0  0  0
   -9.9363   12.5086   23.2742 C   0  0  0  0  0  0  0  0  0  0  0  0
 29 30  1  0
 30 31  1  0
 30 32  1  0
 30 28  1  0
 28 27  1  0
 27 26  1  0
 26  1  1  0
  1  2  1  0
  2  3  2  0
  4  2  1  0
  4  5  1  0
  5  6  1  0
  6  7  2  0
  5  8  1  0
  8 14  1  0
 14 15  1  0
 15 16  2  0
 16 20  1  0
 20 21  2  0
 21 22  1  0
 22 23  2  0
 23 24  1  0
 23 25  1  0
 16 17  1  0
 17 18  1  0
 18 19  1  0
  8  9  1  0
  9 10  1  0
 10 11  1  0
 11 12  1  0
 13 12  1  0
  6  1  1  0
 18 14  2  0
 13  9  1  0
 13  4  1  0
 25 20  1  0
M  CHG 1  30   1
M  END
> <minimizedAffinity>
-6.52792

> <CNNscore>
0.5653982162

> <CNNaffinity>
6.8896026611

> <CNN_VS>
3.8953690529

> <CNNaffinity_variance>
0.0895045325

$$$$



 32 36  0  0  0  0  0  0  0  0999 V2000
   -5.2929   10.9202   19.8422 N   0  0  0  0  0  0  0  0  0  0  0  0
   -4.8768    9.7127   20.3160 C   0  0  0  0  0  0  0  0  0  0  0  0
   -4.5873    9.4641   21.4770 O   0  0  0  0  0  0  0  0  0  0  0  0
   -4.7625    8.7445   19.1671 C   0  0  0  0  0  0  0  0  0  0  0  0
   -5.1570    9.5684   17.9373 C   0  0  0  0  0  0  0  0  0  0  0  0
   -5.3012   10.9622   18.4801 C   0  0  0  0  0  0  0  0  0  0  0  0
   -5.3591   11.9836   17.8049 O   0  0  0  0  0  0  0  0  0  0  0  0
   -6.4540    8.9444   17.4158 C   0  0  0  0  0  0  0  0  0  0  0  0
   -6.9690    8.1459   18.5506 N   0  0  0  0  0  0  0  0  0  0  0  0
   -7.7327    6.9627   18.1303 C   0  0  0  0  0  0  0  0  0  0  0  0
   -6.7658    5.7815   18.1342 C   0  0  0  0  0  0  0  0  0  0  0  0
   -5.4251    6.3551   18.5623 C   0  0  0  0  0  0  0  0  0  0  0  0
   -5.7971    7.6438   19.2854 C   0  0  0  0  0  0  0  0  0  0  0  0
   -7.4815    9.9285   16.9512 C   0  0  0  0  0  0  0  0  0  0  0  0
   -7.5671   10.3238   15.6250 N   0  0  0  0  0  0  0  0  0  0  0  0
   -8.5856   11.1658   15.5896 C   0  0  0  0  0  0  0  0  0  0  0  0
   -9.2040   11.3202   16.8060 O   0  0  0  0  0  0  0  0  0  0  0  0
   -8.4945   10.5346   17.6632 C   0  0  0  0  0  0  0  0  0  0  0  0
   -8.8964   10.3221   19.5069 Br  0  0  0  0  0  0  0  0  0  0  0  0
   -8.9983   11.8357   14.3881 C   0  0  0  0  0  0  0  0  0  0  0  0
   -9.6112   11.2606   13.2876 C   0  0  0  0  0  0  0  0  0  0  0  0
   -9.8830   12.2120   12.2576 C   0  0  0  0  0  0  0  0  0  0  0  0
   -9.4764   13.4670   12.6290 C   0  0  0  0  0  0  0  0  0  0  0  0
   -9.6280   14.9077   11.7079 Cl  0  0  0  0  0  0  0  0  0  0  0  0
   -8.7695   13.5219   14.1643 S   0  0  0  0  0  0  0  0  0  0  0  0
   -5.4786   12.0984   20.6630 C   0  0  0  0  0  0  0  0  0  0  0  0
   -4.1824   12.5193   21.3473 C   0  0  0  0  0  0  0  0  0  0  0  0
   -3.1567   13.2062   20.4457 C   0  0  0  0  0  0  0  0  0  0  0  0
   -1.3826   11.5086   20.8646 C   0  0  0  0  0  0  0  0  0  0  0  0
   -1.6655   13.0206   20.8137 N   0  0  0  0  0  0  0  0  0  0  0  0
   -1.3476   13.5783   22.1994 C   0  0  0  0  0  0  0  0  0  0  0  0
   -0.7088   13.6324   19.7913 C   0  0  0  0  0  0  0  0  0  0  0  0
 29 30  1  0
 30 31  1  0
 30 32  1  0
 30 28  1  0
 28 27  1  0
 27 26  1  0
 26  1  1  0
  1  2  1  0
  2  3  2  0
  4  2  1  0
  4  5  1  0
  5  6  1  0
  6  7  2  0
  5  8  1  0
  8 14  1  0
 14 15  1  0
 15 16  2  0
 16 20  1  0
 20 21  2  0
 21 22  1  0
 22 23  2  0
 23 24  1  0
 23 25  1  0
 16 17  1  0
 17 18  1  0
 18 19  1  0
  8  9  1  0
  9 10  1  0
 10 11  1  0
 11 12  1  0
 13 12  1  0
  6  1  1  0
 18 14  2  0
 13  9  1  0
 13  4  1  0
 25 20  1  0
M  CHG 1  30   1
M  END
> <minimizedAffinity>
-5.86466

> <CNNscore>
0.5186073184

> <CNNaffinity>
7.0392069817

> <CNN_VS>
3.6505842209

> <CNNaffinity_variance>
0.2854075730

$$$$



 32 36  0  0  0  0  0  0  0  0999 V2000
   -5.1264   10.9839   20.2469 N   0  0  0  0  0  0  0  0  0  0  0  0
   -4.3442    9.8720   20.1617 C   0  0  0  0  0  0  0  0  0  0  0  0
   -3.4338    9.5811   20.9233 O   0  0  0  0  0  0  0  0  0  0  0  0
   -4.7337    9.0874   18.9357 C   0  0  0  0  0  0  0  0  0  0  0  0
   -5.8542    9.9144   18.2973 C   0  0  0  0  0  0  0  0  0  0  0  0
   -5.8844   11.1656   19.1290 C   0  0  0  0  0  0  0  0  0  0  0  0
   -6.4539   12.2069   18.8229 O   0  0  0  0  0  0  0  0  0  0  0  0
   -7.1147    9.0505   18.3899 C   0  0  0  0  0  0  0  0  0  0  0  0
   -6.7992    8.0356   19.4200 N   0  0  0  0  0  0  0  0  0  0  0  0
   -7.4813    6.7526   19.2008 C   0  0  0  0  0  0  0  0  0  0  0  0
   -6.5063    5.8500   18.4493 C   0  0  0  0  0  0  0  0  0  0  0  0
   -5.2533    6.6857   18.2457 C   0  0  0  0  0  0  0  0  0  0  0  0
   -5.3569    7.7610   19.3204 C   0  0  0  0  0  0  0  0  0  0  0  0
   -8.3622    9.7967   18.7463 C   0  0  0  0  0  0  0  0  0  0  0  0
   -8.7822    9.9316   20.0607 N   0  0  0  0  0  0  0  0  0  0  0  0
   -9.8857   10.6559   19.9891 C   0  0  0  0  0  0  0  0  0  0  0  0
  -10.1987   11.0420   18.7088 O   0  0  0  0  0  0  0  0  0  0  0  0
   -9.2290   10.4893   17.9281 C   0  0  0  0  0  0  0  0  0  0  0  0
   -9.1198   10.6971   16.0438 Br  0  0  0  0  0  0  0  0  0  0  0  0
  -10.6624   11.0050   21.1456 C   0  0  0  0  0  0  0  0  0  0  0  0
  -10.8059   10.2589   22.3033 C   0  0  0  0  0  0  0  0  0  0  0  0
  -11.6568   10.8948   23.2581 C   0  0  0  0  0  0  0  0  0  0  0  0
  -12.1089   12.0997   22.7868 C   0  0  0  0  0  0  0  0  0  0  0  0
  -13.1354   13.2021   23.6103 Cl  0  0  0  0  0  0  0  0  0  0  0  0
  -11.5513   12.4705   21.2339 S   0  0  0  0  0  0  0  0  0  0  0  0
   -5.0067   11.9880   21.2833 C   0  0  0  0  0  0  0  0  0  0  0  0
   -3.8056   12.8984   21.0506 C   0  0  0  0  0  0  0  0  0  0  0  0
   -2.7755   12.9284   22.1797 C   0  0  0  0  0  0  0  0  0  0  0  0
   -1.2589   12.4012   20.2753 C   0  0  0  0  0  0  0  0  0  0  0  0
   -1.3105   12.6076   21.7995 N   0  0  0  0  0  0  0  0  0  0  0  0
   -0.8280   11.3079   22.4399 C   0  0  0  0  0  0  0  0  0  0  0  0
   -0.3355   13.7327   22.1437 C   0  0  0  0  0  0  0  0  0  0  0  0
 29 30  1  0
 30 31  1  0
 30 32  1  0
 30 28  1  0
 28 27  1  0
 27 26  1  0
 26  1  1  0
  1  2  1  0
  2  3  2  0
  4  2  1  0
  4  5  1  0
  5  6  1  0
  6  7  2  0
  5  8  1  0
  8 14  1  0
 14 15  1  0
 15 16  2  0
 16 20  1  0
 20 21  2  0
 21 22  1  0
 22 23  2  0
 23 24  1  0
 23 25  1  0
 16 17  1  0
 17 18  1  0
 18 19  1  0
  8  9  1  0
  9 10  1  0
 10 11  1  0
 11 12  1  0
 13 12  1  0
  6  1  1  0
 18 14  2  0
 13  9  1  0
 13  4  1  0
 25 20  1  0
M  CHG 1  30   1
M  END
> <minimizedAffinity>
-6.73160

> <CNNscore>
0.4695011079

> <CNNaffinity>
6.9948401451

> <CNN_VS>
3.2840852737

> <CNNaffinity_variance>
0.2477143556

$$$$



 32 36  0  0  0  0  0  0  0  0999 V2000
   -5.7813    9.8538   19.6421 N   0  0  0  0  0  0  0  0  0  0  0  0
   -5.9504    8.6334   20.2231 C   0  0  0  0  0  0  0  0  0  0  0  0
   -6.3067    8.4359   21.3753 O   0  0  0  0  0  0  0  0  0  0  0  0
   -5.5614    7.5604   19.2395 C   0  0  0  0  0  0  0  0  0  0  0  0
   -5.1183    8.3325   17.9927 C   0  0  0  0  0  0  0  0  0  0  0  0
   -5.1444    9.7667   18.4405 C   0  0  0  0  0  0  0  0  0  0  0  0
   -4.6241   10.7045   17.8468 O   0  0  0  0  0  0  0  0  0  0  0  0
   -6.1334    7.9812   16.9019 C   0  0  0  0  0  0  0  0  0  0  0  0
   -7.2982    7.4364   17.6347 N   0  0  0  0  0  0  0  0  0  0  0  0
   -8.0473    6.4293   16.8704 C   0  0  0  0  0  0  0  0  0  0  0  0
   -7.5236    5.0612   17.2995 C   0  0  0  0  0  0  0  0  0  0  0  0
   -6.4406    5.3447   18.3274 C   0  0  0  0  0  0  0  0  0  0  0  0
   -6.7703    6.7474   18.8230 C   0  0  0  0  0  0  0  0  0  0  0  0
   -6.5436    9.1288   16.0332 C   0  0  0  0  0  0  0  0  0  0  0  0
   -5.8771    9.4274   14.8546 N   0  0  0  0  0  0  0  0  0  0  0  0
   -6.5221   10.4687   14.3575 C   0  0  0  0  0  0  0  0  0  0  0  0
   -7.6003   10.8518   15.1169 O   0  0  0  0  0  0  0  0  0  0  0  0
   -7.6033    9.9986   16.1786 C   0  0  0  0  0  0  0  0  0  0  0  0
   -8.8903   10.0265   17.5746 Br  0  0  0  0  0  0  0  0  0  0  0  0
   -6.1282   11.1166   13.1377 C   0  0  0  0  0  0  0  0  0  0  0  0
   -5.8563   10.5053   11.9253 C   0  0  0  0  0  0  0  0  0  0  0  0
   -5.4846   11.4435   10.9146 C   0  0  0  0  0  0  0  0  0  0  0  0
   -5.5045   12.7241   11.4025 C   0  0  0  0  0  0  0  0  0  0  0  0
   -5.1472   14.1587   10.5299 Cl  0  0  0  0  0  0  0  0  0  0  0  0
   -5.9401   12.8194   13.0338 S   0  0  0  0  0  0  0  0  0  0  0  0
   -6.0259   11.1156   20.3089 C   0  0  0  0  0  0  0  0  0  0  0  0
   -5.0230   11.3647   21.4304 C   0  0  0  0  0  0  0  0  0  0  0  0
   -3.5889   10.9225   21.1393 C   0  0  0  0  0  0  0  0  0  0  0  0
   -2.9496   10.8284   23.5450 C   0  0  0  0  0  0  0  0  0  0  0  0
   -2.5063   11.3398   22.1628 N   0  0  0  0  0  0  0  0  0  0  0  0
   -2.3803   12.8579   22.2708 C   0  0  0  0  0  0  0  0  0  0  0  0
   -1.1324   10.7385   21.8698 C   0  0  0  0  0  0  0  0  0  0  0  0
 29 30  1  0
 30 31  1  0
 30 32  1  0
 30 28  1  0
 28 27  1  0
 27 26  1  0
 26  1  1  0
  1  2  1  0
  2  3  2  0
  4  2  1  0
  4  5  1  0
  5  6  1  0
  6  7  2  0
  5  8  1  0
  8 14  1  0
 14 15  1  0
 15 16  2  0
 16 20  1  0
 20 21  2  0
 21 22  1  0
 22 23  2  0
 23 24  1  0
 23 25  1  0
 16 17  1  0
 17 18  1  0
 18 19  1  0
  8  9  1  0
  9 10  1  0
 10 11  1  0
 11 12  1  0
 13 12  1  0
  6  1  1  0
 18 14  2  0
 13  9  1  0
 13  4  1  0
 25 20  1  0
M  CHG 1  30   1
M  END
> <minimizedAffinity>
-7.01455

> <CNNscore>
0.4640055895

> <CNNaffinity>
7.1724739075

> <CNN_VS>
3.3280680180

> <CNNaffinity_variance>
0.1667006463

$$$$
