


 42 46  0  0  0  0  0  0  0  0999 V2000
    6.5236   30.6614   56.8608 N   0  0  0  0  0  0  0  0  0  0  0  0
    6.2931   29.3315   57.1792 C   0  0  0  0  0  0  0  0  0  0  0  0
    6.6139   28.7953   58.2301 O   0  0  0  0  0  0  0  0  0  0  0  0
    6.3108   30.9336   55.9389 H   0  0  0  0  0  0  0  0  0  0  0  0
    8.1226   33.5495   59.5334 C   0  0  0  0  0  0  0  0  0  0  0  0
    8.4423   32.1854   59.6331 C   0  0  0  0  0  0  0  0  0  0  0  0
    7.9010   31.2586   58.7299 C   0  0  0  0  0  0  0  0  0  0  0  0
    7.0303   31.6698   57.7123 C   0  0  0  0  0  0  0  0  0  0  0  0
    6.7676   33.0386   57.5878 C   0  0  0  0  0  0  0  0  0  0  0  0
    6.0817   33.5325   56.5491 F   0  0  0  0  0  0  0  0  0  0  0  0
    7.3015   33.9670   58.4861 C   0  0  0  0  0  0  0  0  0  0  0  0
    8.3540   34.6838   61.8218 C   0  0  0  0  0  0  0  0  0  0  0  0
    9.1004   35.6507   62.3407 N   0  0  0  0  0  0  0  0  0  0  0  0
    9.9115   36.0768   61.3365 C   0  0  0  0  0  0  0  0  0  0  0  0
   11.1766   37.4564   61.5417 Br  0  0  0  0  0  0  0  0  0  0  0  0
    9.6854   35.3692   60.1848 C   0  0  0  0  0  0  0  0  0  0  0  0
    8.6652   34.4778   60.4726 N   0  0  0  0  0  0  0  0  0  0  0  0
    7.4164   33.8504   62.6559 C   0  0  0  0  0  0  0  0  0  0  0  0
    6.2939   35.6090   63.8599 C   0  0  0  0  0  0  0  0  0  0  0  0
    6.1145   34.5069   62.9089 N   0  0  0  0  0  0  0  0  0  0  0  0
    5.5236   35.0243   61.6690 C   0  0  0  0  0  0  0  0  0  0  0  0
    5.6200   28.6357   56.1039 C   0  0  0  0  0  0  0  0  0  0  0  0
    4.2480   28.4485   56.0149 C   0  0  0  0  0  0  0  0  0  0  0  0
    4.0032   27.8536   54.7633 C   0  0  0  0  0  0  0  0  0  0  0  0
    5.1530   27.7099   54.0878 N   0  0  0  0  0  0  0  0  0  0  0  0
    6.1554   28.0678   54.9480 N   0  0  0  0  0  0  0  0  0  0  0  0
    7.5050   27.8680   54.5040 C   0  0  0  0  0  0  0  0  0  0  0  0
    8.3921   27.1623   55.3498 C   0  0  0  0  0  0  0  0  0  0  0  0
    9.7336   26.9307   55.0069 C   0  0  0  0  0  0  0  0  0  0  0  0
   10.1504   27.4533   53.7882 C   0  0  0  0  0  0  0  0  0  0  0  0
   11.3972   27.3637   53.2537 O   0  0  0  0  0  0  0  0  0  0  0  0
   11.4299   28.0395   52.0400 N   0  0  0  0  0  0  0  0  0  0  0  0
   10.1954   28.5123   51.8529 C   0  0  0  0  0  0  0  0  0  0  0  0
    9.8065   29.2217   50.7761 N   0  0  0  0  0  0  0  0  0  0  0  0
    9.3351   28.1691   52.9318 C   0  0  0  0  0  0  0  0  0  0  0  0
    7.9881   28.3906   53.2933 C   0  0  0  0  0  0  0  0  0  0  0  0
   10.4526   29.4264   50.0619 H   0  0  0  0  0  0  0  0  0  0  0  0
    8.8762   29.5355   50.7031 H   0  0  0  0  0  0  0  0  0  0  0  0
    2.6629   27.4644   54.1946 C   0  0  0  0  0  0  0  0  0  0  0  0
    1.6606   27.5108   55.1141 F   0  0  0  0  0  0  0  0  0  0  0  0
    2.6790   26.2058   53.6746 F   0  0  0  0  0  0  0  0  0  0  0  0
    2.2957   28.2966   53.1757 F   0  0  0  0  0  0  0  0  0  0  0  0
 19 20  1  0
 20 21  1  0
 20 18  1  0
 18 12  1  0
 12 13  2  0
 13 14  1  0
 14 15  1  0
 14 16  2  0
 16 17  1  0
 17  5  1  0
  5  6  2  0
  6  7  1  0
  7  8  2  0
  8  1  1  0
  1  2  1  0
  2  3  2  0
  2 22  1  0
 22 23  2  0
 23 24  1  0
 24 39  1  0
 39 40  1  0
 39 41  1  0
 39 42  1  0
 24 25  2  0
 25 26  1  0
 26 27  1  0
 27 28  2  0
 28 29  1  0
 29 30  2  0
 30 31  1  0
 31 32  1  0
 32 33  2  0
 33 34  1  0
 33 35  1  0
 35 36  2  0
  8  9  1  0
  9 10  1  0
  9 11  2  0
 17 12  1  0
 11  5  1  0
 26 22  1  0
 36 27  1  0
 35 30  1  0
  1  4  1  0
 34 37  1  0
 34 38  1  0
M  END
> <minimizedAffinity>
-11.13013

> <CNNscore>
0.9814701676

> <CNNaffinity>
8.7818784714

> <CNN_VS>
8.6191520691

> <CNNaffinity_variance>
0.0181664750

$$$$



 42 46  0  0  0  0  0  0  0  0999 V2000
    5.6077   30.2522   57.3314 N   0  0  0  0  0  0  0  0  0  0  0  0
    6.1369   29.0069   57.0274 C   0  0  0  0  0  0  0  0  0  0  0  0
    7.0178   28.4444   57.6617 O   0  0  0  0  0  0  0  0  0  0  0  0
    4.9808   30.6332   56.6748 H   0  0  0  0  0  0  0  0  0  0  0  0
    6.2004   32.5845   60.8314 C   0  0  0  0  0  0  0  0  0  0  0  0
    5.0054   31.8845   60.5968 C   0  0  0  0  0  0  0  0  0  0  0  0
    4.8449   31.1185   59.4326 C   0  0  0  0  0  0  0  0  0  0  0  0
    5.8680   31.0356   58.4791 C   0  0  0  0  0  0  0  0  0  0  0  0
    7.0745   31.6892   58.7537 C   0  0  0  0  0  0  0  0  0  0  0  0
    8.1548   31.5282   57.9791 F   0  0  0  0  0  0  0  0  0  0  0  0
    7.2399   32.4564   59.9104 C   0  0  0  0  0  0  0  0  0  0  0  0
    7.1353   34.5035   62.2528 C   0  0  0  0  0  0  0  0  0  0  0  0
    6.9679   34.9473   63.4923 N   0  0  0  0  0  0  0  0  0  0  0  0
    6.0555   34.1189   64.0660 C   0  0  0  0  0  0  0  0  0  0  0  0
    5.4607   34.3052   65.8430 Br  0  0  0  0  0  0  0  0  0  0  0  0
    5.6368   33.1578   63.1833 C   0  0  0  0  0  0  0  0  0  0  0  0
    6.3410   33.3765   62.0109 N   0  0  0  0  0  0  0  0  0  0  0  0
    7.9685   35.2395   61.2363 C   0  0  0  0  0  0  0  0  0  0  0  0
   10.2326   34.9911   60.4521 C   0  0  0  0  0  0  0  0  0  0  0  0
    9.3977   35.3362   61.6076 N   0  0  0  0  0  0  0  0  0  0  0  0
    9.7422   36.6853   62.0722 C   0  0  0  0  0  0  0  0  0  0  0  0
    5.5188   28.4393   55.8486 C   0  0  0  0  0  0  0  0  0  0  0  0
    4.1521   28.2897   55.6622 C   0  0  0  0  0  0  0  0  0  0  0  0
    3.9733   27.8321   54.3434 C   0  0  0  0  0  0  0  0  0  0  0  0
    5.1589   27.7360   53.7237 N   0  0  0  0  0  0  0  0  0  0  0  0
    6.1136   27.9832   54.6725 N   0  0  0  0  0  0  0  0  0  0  0  0
    7.4842   27.8034   54.2881 C   0  0  0  0  0  0  0  0  0  0  0  0
    8.3157   27.0151   55.1172 C   0  0  0  0  0  0  0  0  0  0  0  0
    9.6721   26.7950   54.8302 C   0  0  0  0  0  0  0  0  0  0  0  0
   10.1617   27.4147   53.6863 C   0  0  0  0  0  0  0  0  0  0  0  0
   11.4357   27.3539   53.2158 O   0  0  0  0  0  0  0  0  0  0  0  0
   11.5430   28.1312   52.0690 N   0  0  0  0  0  0  0  0  0  0  0  0
   10.3254   28.6357   51.8557 C   0  0  0  0  0  0  0  0  0  0  0  0
   10.0043   29.4405   50.8246 N   0  0  0  0  0  0  0  0  0  0  0  0
    9.4026   28.2130   52.8515 C   0  0  0  0  0  0  0  0  0  0  0  0
    8.0395   28.4214   53.1558 C   0  0  0  0  0  0  0  0  0  0  0  0
   10.6914   29.6968   50.1677 H   0  0  0  0  0  0  0  0  0  0  0  0
    9.0825   29.7724   50.7277 H   0  0  0  0  0  0  0  0  0  0  0  0
    2.6637   27.5304   53.6615 C   0  0  0  0  0  0  0  0  0  0  0  0
    2.0907   28.6293   53.0990 F   0  0  0  0  0  0  0  0  0  0  0  0
    1.7552   26.9947   54.5230 F   0  0  0  0  0  0  0  0  0  0  0  0
    2.8256   26.6186   52.6576 F   0  0  0  0  0  0  0  0  0  0  0  0
 19 20  1  0
 20 21  1  0
 20 18  1  0
 18 12  1  0
 12 13  2  0
 13 14  1  0
 14 15  1  0
 14 16  2  0
 16 17  1  0
 17  5  1  0
  5  6  2  0
  6  7  1  0
  7  8  2  0
  8  1  1  0
  1  2  1  0
  2  3  2  0
  2 22  1  0
 22 23  2  0
 23 24  1  0
 24 39  1  0
 39 40  1  0
 39 41  1  0
 39 42  1  0
 24 25  2  0
 25 26  1  0
 26 27  1  0
 27 28  2  0
 28 29  1  0
 29 30  2  0
 30 31  1  0
 31 32  1  0
 32 33  2  0
 33 34  1  0
 33 35  1  0
 35 36  2  0
  8  9  1  0
  9 10  1  0
  9 11  2  0
 17 12  1  0
 11  5  1  0
 26 22  1  0
 36 27  1  0
 35 30  1  0
  1  4  1  0
 34 37  1  0
 34 38  1  0
M  END
> <minimizedAffinity>
-10.12918

> <CNNscore>
0.9566018581

> <CNNaffinity>
8.4258165359

> <CNN_VS>
8.0601520538

> <CNNaffinity_variance>
0.0346655734

$$$$



 42 46  0  0  0  0  0  0  0  0999 V2000
    5.3736   29.8419   57.0331 N   0  0  0  0  0  0  0  0  0  0  0  0
    6.4235   29.2506   56.3465 C   0  0  0  0  0  0  0  0  0  0  0  0
    7.6087   29.4653   56.5557 O   0  0  0  0  0  0  0  0  0  0  0  0
    4.4690   29.6606   56.6896 H   0  0  0  0  0  0  0  0  0  0  0  0
    5.5302   32.4881   60.3519 C   0  0  0  0  0  0  0  0  0  0  0  0
    4.7742   32.7775   59.2040 C   0  0  0  0  0  0  0  0  0  0  0  0
    4.7397   31.8784   58.1278 C   0  0  0  0  0  0  0  0  0  0  0  0
    5.4576   30.6761   58.1715 C   0  0  0  0  0  0  0  0  0  0  0  0
    6.1581   30.3731   59.3444 C   0  0  0  0  0  0  0  0  0  0  0  0
    6.7330   29.1785   59.5326 F   0  0  0  0  0  0  0  0  0  0  0  0
    6.1988   31.2659   60.4192 C   0  0  0  0  0  0  0  0  0  0  0  0
    4.8410   33.4577   62.6239 C   0  0  0  0  0  0  0  0  0  0  0  0
    5.1894   34.5017   63.3654 N   0  0  0  0  0  0  0  0  0  0  0  0
    6.1576   35.1507   62.6659 C   0  0  0  0  0  0  0  0  0  0  0  0
    6.9998   36.7207   63.2757 Br  0  0  0  0  0  0  0  0  0  0  0  0
    6.4297   34.5084   61.4863 C   0  0  0  0  0  0  0  0  0  0  0  0
    5.5718   33.4225   61.4305 N   0  0  0  0  0  0  0  0  0  0  0  0
    3.8871   32.3999   63.1145 C   0  0  0  0  0  0  0  0  0  0  0  0
    5.8442   31.3577   64.0559 C   0  0  0  0  0  0  0  0  0  0  0  0
    4.4143   31.6169   64.2542 N   0  0  0  0  0  0  0  0  0  0  0  0
    4.2185   32.3217   65.5267 C   0  0  0  0  0  0  0  0  0  0  0  0
    5.9475   28.3356   55.3317 C   0  0  0  0  0  0  0  0  0  0  0  0
    4.6282   27.9334   55.1805 C   0  0  0  0  0  0  0  0  0  0  0  0
    4.5749   27.1608   54.0055 C   0  0  0  0  0  0  0  0  0  0  0  0
    5.7856   27.1120   53.4301 N   0  0  0  0  0  0  0  0  0  0  0  0
    6.6521   27.7193   54.2979 N   0  0  0  0  0  0  0  0  0  0  0  0
    8.0485   27.6738   53.9717 C   0  0  0  0  0  0  0  0  0  0  0  0
    8.9175   26.9705   54.8382 C   0  0  0  0  0  0  0  0  0  0  0  0
   10.2997   26.8836   54.6089 C   0  0  0  0  0  0  0  0  0  0  0  0
   10.7741   27.5476   53.4835 C   0  0  0  0  0  0  0  0  0  0  0  0
   12.0665   27.6111   53.0667 O   0  0  0  0  0  0  0  0  0  0  0  0
   12.1455   28.3947   51.9220 N   0  0  0  0  0  0  0  0  0  0  0  0
   10.8946   28.7781   51.6559 C   0  0  0  0  0  0  0  0  0  0  0  0
   10.5401   29.5474   50.6088 N   0  0  0  0  0  0  0  0  0  0  0  0
    9.9764   28.2678   52.6143 C   0  0  0  0  0  0  0  0  0  0  0  0
    8.5880   28.3426   52.8608 C   0  0  0  0  0  0  0  0  0  0  0  0
   11.2258   29.8692   49.9800 H   0  0  0  0  0  0  0  0  0  0  0  0
    9.5952   29.7879   50.4722 H   0  0  0  0  0  0  0  0  0  0  0  0
    3.3554   26.5070   53.4086 C   0  0  0  0  0  0  0  0  0  0  0  0
    2.8510   25.5106   54.1863 F   0  0  0  0  0  0  0  0  0  0  0  0
    3.6149   25.9736   52.1827 F   0  0  0  0  0  0  0  0  0  0  0  0
    2.3462   27.4098   53.2291 F   0  0  0  0  0  0  0  0  0  0  0  0
 19 20  1  0
 20 21  1  0
 20 18  1  0
 18 12  1  0
 12 13  2  0
 13 14  1  0
 14 15  1  0
 14 16  2  0
 16 17  1  0
 17  5  1  0
  5  6  2  0
  6  7  1  0
  7  8  2  0
  8  1  1  0
  1  2  1  0
  2  3  2  0
  2 22  1  0
 22 23  2  0
 23 24  1  0
 24 39  1  0
 39 40  1  0
 39 41  1  0
 39 42  1  0
 24 25  2  0
 25 26  1  0
 26 27  1  0
 27 28  2  0
 28 29  1  0
 29 30  2  0
 30 31  1  0
 31 32  1  0
 32 33  2  0
 33 34  1  0
 33 35  1  0
 35 36  2  0
  8  9  1  0
  9 10  1  0
  9 11  2  0
 17 12  1  0
 11  5  1  0
 26 22  1  0
 36 27  1  0
 35 30  1  0
  1  4  1  0
 34 37  1  0
 34 38  1  0
M  END
> <minimizedAffinity>
-9.03990

> <CNNscore>
0.7551551461

> <CNNaffinity>
7.8105354309

> <CNN_VS>
5.8981661797

> <CNNaffinity_variance>
0.0224151928

$$$$



 42 46  0  0  0  0  0  0  0  0999 V2000
    7.4737   30.6081   57.5097 N   0  0  0  0  0  0  0  0  0  0  0  0
    6.7442   29.4526   57.2732 C   0  0  0  0  0  0  0  0  0  0  0  0
    5.7642   29.0977   57.9122 O   0  0  0  0  0  0  0  0  0  0  0  0
    8.3027   30.7160   56.9898 H   0  0  0  0  0  0  0  0  0  0  0  0
    6.5279   33.5999   60.3725 C   0  0  0  0  0  0  0  0  0  0  0  0
    6.8639   32.2890   60.7489 C   0  0  0  0  0  0  0  0  0  0  0  0
    7.1769   31.3265   59.7775 C   0  0  0  0  0  0  0  0  0  0  0  0
    7.1595   31.6483   58.4141 C   0  0  0  0  0  0  0  0  0  0  0  0
    6.8813   32.9723   58.0565 C   0  0  0  0  0  0  0  0  0  0  0  0
    7.0042   33.4014   56.7941 F   0  0  0  0  0  0  0  0  0  0  0  0
    6.5660   33.9354   59.0192 C   0  0  0  0  0  0  0  0  0  0  0  0
    6.9985   35.1934   62.3259 C   0  0  0  0  0  0  0  0  0  0  0  0
    6.2894   36.0341   63.0687 N   0  0  0  0  0  0  0  0  0  0  0  0
    5.0159   35.9659   62.5981 C   0  0  0  0  0  0  0  0  0  0  0  0
    3.5919   36.9682   63.3150 Br  0  0  0  0  0  0  0  0  0  0  0  0
    4.9232   35.0898   61.5484 C   0  0  0  0  0  0  0  0  0  0  0  0
    6.1917   34.5628   61.3715 N   0  0  0  0  0  0  0  0  0  0  0  0
    8.4965   35.0810   62.4388 C   0  0  0  0  0  0  0  0  0  0  0  0
    9.9988   36.9240   62.0529 C   0  0  0  0  0  0  0  0  0  0  0  0
    9.2229   35.8582   61.4101 N   0  0  0  0  0  0  0  0  0  0  0  0
   10.1238   35.0036   60.6276 C   0  0  0  0  0  0  0  0  0  0  0  0
    7.2876   28.6976   56.1648 C   0  0  0  0  0  0  0  0  0  0  0  0
    8.6129   28.3045   56.0453 C   0  0  0  0  0  0  0  0  0  0  0  0
    8.6880   27.4834   54.9048 C   0  0  0  0  0  0  0  0  0  0  0  0
    7.4710   27.3379   54.3601 N   0  0  0  0  0  0  0  0  0  0  0  0
    6.6356   28.1755   55.0480 N   0  0  0  0  0  0  0  0  0  0  0  0
    5.2918   28.3075   54.5627 C   0  0  0  0  0  0  0  0  0  0  0  0
    4.7029   27.2005   53.9085 C   0  0  0  0  0  0  0  0  0  0  0  0
    3.3997   27.2406   53.3881 C   0  0  0  0  0  0  0  0  0  0  0  0
    2.7207   28.4445   53.5365 C   0  0  0  0  0  0  0  0  0  0  0  0
    1.4606   28.7205   53.1075 O   0  0  0  0  0  0  0  0  0  0  0  0
    1.1472   30.0398   53.4109 N   0  0  0  0  0  0  0  0  0  0  0  0
    2.2189   30.5346   54.0346 C   0  0  0  0  0  0  0  0  0  0  0  0
    2.3124   31.7927   54.5062 N   0  0  0  0  0  0  0  0  0  0  0  0
    3.2528   29.5649   54.1464 C   0  0  0  0  0  0  0  0  0  0  0  0
    4.5648   29.5047   54.6651 C   0  0  0  0  0  0  0  0  0  0  0  0
    1.5590   32.4169   54.3964 H   0  0  0  0  0  0  0  0  0  0  0  0
    3.1342   32.0883   54.9607 H   0  0  0  0  0  0  0  0  0  0  0  0
    9.9172   26.8007   54.3624 C   0  0  0  0  0  0  0  0  0  0  0  0
   10.0882   26.9949   53.0263 F   0  0  0  0  0  0  0  0  0  0  0  0
    9.8866   25.4563   54.5768 F   0  0  0  0  0  0  0  0  0  0  0  0
   11.0498   27.2614   54.9710 F   0  0  0  0  0  0  0  0  0  0  0  0
 19 20  1  0
 20 21  1  0
 20 18  1  0
 18 12  1  0
 12 13  2  0
 13 14  1  0
 14 15  1  0
 14 16  2  0
 16 17  1  0
 17  5  1  0
  5  6  2  0
  6  7  1  0
  7  8  2  0
  8  1  1  0
  1  2  1  0
  2  3  2  0
  2 22  1  0
 22 23  2  0
 23 24  1  0
 24 39  1  0
 39 40  1  0
 39 41  1  0
 39 42  1  0
 24 25  2  0
 25 26  1  0
 26 27  1  0
 27 28  2  0
 28 29  1  0
 29 30  2  0
 30 31  1  0
 31 32  1  0
 32 33  2  0
 33 34  1  0
 33 35  1  0
 35 36  2  0
  8  9  1  0
  9 10  1  0
  9 11  2  0
 17 12  1  0
 11  5  1  0
 26 22  1  0
 36 27  1  0
 35 30  1  0
  1  4  1  0
 34 37  1  0
 34 38  1  0
M  END
> <minimizedAffinity>
-9.68770

> <CNNscore>
0.4991647303

> <CNNaffinity>
7.8051772118

> <CNN_VS>
3.8960692883

> <CNNaffinity_variance>
0.2123362273

$$$$



 42 46  0  0  0  0  0  0  0  0999 V2000
    4.6468   32.8431   56.9684 N   0  0  0  0  0  0  0  0  0  0  0  0
    6.0168   33.0342   57.0669 C   0  0  0  0  0  0  0  0  0  0  0  0
    6.6329   33.9674   56.5726 O   0  0  0  0  0  0  0  0  0  0  0  0
    4.2973   31.9931   57.3214 H   0  0  0  0  0  0  0  0  0  0  0  0
    1.8243   35.6385   55.4649 C   0  0  0  0  0  0  0  0  0  0  0  0
    2.6704   35.9420   56.5442 C   0  0  0  0  0  0  0  0  0  0  0  0
    3.5958   34.9973   57.0122 C   0  0  0  0  0  0  0  0  0  0  0  0
    3.6960   33.7327   56.4177 C   0  0  0  0  0  0  0  0  0  0  0  0
    2.8892   33.4651   55.3061 C   0  0  0  0  0  0  0  0  0  0  0  0
    3.0369   32.3491   54.5810 F   0  0  0  0  0  0  0  0  0  0  0  0
    1.9631   34.4010   54.8365 C   0  0  0  0  0  0  0  0  0  0  0  0
    1.0323   37.6910   54.1471 C   0  0  0  0  0  0  0  0  0  0  0  0
   -0.1134   38.3404   53.9827 N   0  0  0  0  0  0  0  0  0  0  0  0
   -1.0313   37.6750   54.7327 C   0  0  0  0  0  0  0  0  0  0  0  0
   -2.8376   38.1923   54.8581 Br  0  0  0  0  0  0  0  0  0  0  0  0
   -0.4669   36.5963   55.3621 C   0  0  0  0  0  0  0  0  0  0  0  0
    0.8734   36.6029   55.0132 N   0  0  0  0  0  0  0  0  0  0  0  0
    2.2745   38.0327   53.3662 C   0  0  0  0  0  0  0  0  0  0  0  0
    3.0170   40.0413   52.2633 C   0  0  0  0  0  0  0  0  0  0  0  0
    2.0243   38.9618   52.2419 N   0  0  0  0  0  0  0  0  0  0  0  0
    2.0848   38.2695   50.9491 C   0  0  0  0  0  0  0  0  0  0  0  0
    6.6475   31.9810   57.8328 C   0  0  0  0  0  0  0  0  0  0  0  0
    6.6895   30.6448   57.4615 C   0  0  0  0  0  0  0  0  0  0  0  0
    7.5061   29.9908   58.4028 C   0  0  0  0  0  0  0  0  0  0  0  0
    7.9813   30.8737   59.2938 N   0  0  0  0  0  0  0  0  0  0  0  0
    7.3621   32.0647   59.0275 N   0  0  0  0  0  0  0  0  0  0  0  0
    7.5999   33.1470   59.9389 C   0  0  0  0  0  0  0  0  0  0  0  0
    6.5422   33.5580   60.7831 C   0  0  0  0  0  0  0  0  0  0  0  0
    6.6764   34.6160   61.6959 C   0  0  0  0  0  0  0  0  0  0  0  0
    7.9109   35.2548   61.7118 C   0  0  0  0  0  0  0  0  0  0  0  0
    8.2689   36.3034   62.4995 O   0  0  0  0  0  0  0  0  0  0  0  0
    9.5714   36.6835   62.1999 N   0  0  0  0  0  0  0  0  0  0  0  0
    9.9853   35.8456   61.2465 C   0  0  0  0  0  0  0  0  0  0  0  0
   11.2102   35.8734   60.6872 N   0  0  0  0  0  0  0  0  0  0  0  0
    8.9722   34.9115   60.8956 C   0  0  0  0  0  0  0  0  0  0  0  0
    8.8186   33.8434   59.9848 C   0  0  0  0  0  0  0  0  0  0  0  0
   11.8677   36.5472   60.9753 H   0  0  0  0  0  0  0  0  0  0  0  0
   11.4481   35.2199   59.9904 H   0  0  0  0  0  0  0  0  0  0  0  0
    7.8686   28.5282   58.4229 C   0  0  0  0  0  0  0  0  0  0  0  0
    7.6516   27.9094   57.2303 F   0  0  0  0  0  0  0  0  0  0  0  0
    7.1665   27.8449   59.3687 F   0  0  0  0  0  0  0  0  0  0  0  0
    9.1896   28.3485   58.7202 F   0  0  0  0  0  0  0  0  0  0  0  0
 19 20  1  0
 20 21  1  0
 20 18  1  0
 18 12  1  0
 12 13  2  0
 13 14  1  0
 14 15  1  0
 14 16  2  0
 16 17  1  0
 17  5  1  0
  5  6  2  0
  6  7  1  0
  7  8  2  0
  8  1  1  0
  1  2  1  0
  2  3  2  0
  2 22  1  0
 22 23  2  0
 23 24  1  0
 24 39  1  0
 39 40  1  0
 39 41  1  0
 39 42  1  0
 24 25  2  0
 25 26  1  0
 26 27  1  0
 27 28  2  0
 28 29  1  0
 29 30  2  0
 30 31  1  0
 31 32  1  0
 32 33  2  0
 33 34  1  0
 33 35  1  0
 35 36  2  0
  8  9  1  0
  9 10  1  0
  9 11  2  0
 17 12  1  0
 11  5  1  0
 26 22  1  0
 36 27  1  0
 35 30  1  0
  1  4  1  0
 34 37  1  0
 34 38  1  0
M  END
> <minimizedAffinity>
-7.81471

> <CNNscore>
0.2311863452

> <CNNaffinity>
6.4165682793

> <CNN_VS>
1.4834229946

> <CNNaffinity_variance>
0.1186255813

$$$$



 42 46  0  0  0  0  0  0  0  0999 V2000
    4.7718   32.4870   57.0721 N   0  0  0  0  0  0  0  0  0  0  0  0
    6.1469   32.6413   57.1628 C   0  0  0  0  0  0  0  0  0  0  0  0
    6.7772   33.5930   56.7249 O   0  0  0  0  0  0  0  0  0  0  0  0
    4.4080   31.6223   57.3708 H   0  0  0  0  0  0  0  0  0  0  0  0
    1.9317   35.2189   55.4871 C   0  0  0  0  0  0  0  0  0  0  0  0
    2.1816   33.9734   54.8877 C   0  0  0  0  0  0  0  0  0  0  0  0
    3.1224   33.0921   55.4408 C   0  0  0  0  0  0  0  0  0  0  0  0
    3.8339   33.4330   56.5986 C   0  0  0  0  0  0  0  0  0  0  0  0
    3.5322   34.6507   57.2186 C   0  0  0  0  0  0  0  0  0  0  0  0
    4.0437   34.9791   58.4118 F   0  0  0  0  0  0  0  0  0  0  0  0
    2.5979   35.5346   56.6711 C   0  0  0  0  0  0  0  0  0  0  0  0
   -0.4029   36.1887   55.0561 C   0  0  0  0  0  0  0  0  0  0  0  0
   -0.9107   37.1775   54.3310 N   0  0  0  0  0  0  0  0  0  0  0  0
    0.1447   37.7617   53.7043 C   0  0  0  0  0  0  0  0  0  0  0  0
   -0.0272   39.2282   52.5356 Br  0  0  0  0  0  0  0  0  0  0  0  0
    1.3223   37.1485   54.0439 C   0  0  0  0  0  0  0  0  0  0  0  0
    0.9862   36.1136   54.9008 N   0  0  0  0  0  0  0  0  0  0  0  0
   -1.2359   35.3798   56.0159 C   0  0  0  0  0  0  0  0  0  0  0  0
   -3.3917   34.8132   55.1028 C   0  0  0  0  0  0  0  0  0  0  0  0
   -2.0328   34.3224   55.3550 N   0  0  0  0  0  0  0  0  0  0  0  0
   -1.4229   33.9031   54.0874 C   0  0  0  0  0  0  0  0  0  0  0  0
    6.7641   31.5241   57.8445 C   0  0  0  0  0  0  0  0  0  0  0  0
    6.8076   30.2243   57.3611 C   0  0  0  0  0  0  0  0  0  0  0  0
    7.6093   29.4892   58.2541 C   0  0  0  0  0  0  0  0  0  0  0  0
    8.0745   30.2910   59.2235 N   0  0  0  0  0  0  0  0  0  0  0  0
    7.4624   31.5028   59.0516 N   0  0  0  0  0  0  0  0  0  0  0  0
    7.6905   32.5025   60.0551 C   0  0  0  0  0  0  0  0  0  0  0  0
    6.7680   32.6049   61.1222 C   0  0  0  0  0  0  0  0  0  0  0  0
    6.9005   33.5608   62.1417 C   0  0  0  0  0  0  0  0  0  0  0  0
    7.9876   34.4203   62.0341 C   0  0  0  0  0  0  0  0  0  0  0  0
    8.3130   35.4241   62.8912 O   0  0  0  0  0  0  0  0  0  0  0  0
    9.4467   36.0797   62.4269 N   0  0  0  0  0  0  0  0  0  0  0  0
    9.7981   35.4488   61.3039 C   0  0  0  0  0  0  0  0  0  0  0  0
   10.8647   35.7748   60.5489 N   0  0  0  0  0  0  0  0  0  0  0  0
    8.9079   34.3815   61.0035 C   0  0  0  0  0  0  0  0  0  0  0  0
    8.7587   33.4118   59.9878 C   0  0  0  0  0  0  0  0  0  0  0  0
   11.4430   36.5267   60.8125 H   0  0  0  0  0  0  0  0  0  0  0  0
   11.0661   35.2612   59.7335 H   0  0  0  0  0  0  0  0  0  0  0  0
    7.9674   28.0288   58.1542 C   0  0  0  0  0  0  0  0  0  0  0  0
    9.2138   27.7528   58.6259 F   0  0  0  0  0  0  0  0  0  0  0  0
    7.9105   27.5796   56.8699 F   0  0  0  0  0  0  0  0  0  0  0  0
    7.0996   27.2550   58.8709 F   0  0  0  0  0  0  0  0  0  0  0  0
 19 20  1  0
 20 21  1  0
 20 18  1  0
 18 12  1  0
 12 13  2  0
 13 14  1  0
 14 15  1  0
 14 16  2  0
 16 17  1  0
 17  5  1  0
  5  6  2  0
  6  7  1  0
  7  8  2  0
  8  1  1  0
  1  2  1  0
  2  3  2  0
  2 22  1  0
 22 23  2  0
 23 24  1  0
 24 39  1  0
 39 40  1  0
 39 41  1  0
 39 42  1  0
 24 25  2  0
 25 26  1  0
 26 27  1  0
 27 28  2  0
 28 29  1  0
 29 30  2  0
 30 31  1  0
 31 32  1  0
 32 33  2  0
 33 34  1  0
 33 35  1  0
 35 36  2  0
  8  9  1  0
  9 10  1  0
  9 11  2  0
 17 12  1  0
 11  5  1  0
 26 22  1  0
 36 27  1  0
 35 30  1  0
  1  4  1  0
 34 37  1  0
 34 38  1  0
M  END
> <minimizedAffinity>
-7.26818

> <CNNscore>
0.2217788845

> <CNNaffinity>
6.1980462074

> <CNN_VS>
1.3745957613

> <CNNaffinity_variance>
0.1995229572

$$$$



 42 46  0  0  0  0  0  0  0  0999 V2000
    4.7471   33.4437   57.3679 N   0  0  0  0  0  0  0  0  0  0  0  0
    6.1278   33.4473   57.2381 C   0  0  0  0  0  0  0  0  0  0  0  0
    6.7707   34.2650   56.5956 O   0  0  0  0  0  0  0  0  0  0  0  0
    4.3527   32.6656   57.8241 H   0  0  0  0  0  0  0  0  0  0  0  0
    2.0734   36.3640   55.8304 C   0  0  0  0  0  0  0  0  0  0  0  0
    2.6831   35.4049   55.0050 C   0  0  0  0  0  0  0  0  0  0  0  0
    3.5570   34.4505   55.5465 C   0  0  0  0  0  0  0  0  0  0  0  0
    3.8428   34.4329   56.9179 C   0  0  0  0  0  0  0  0  0  0  0  0
    3.1828   35.3558   57.7370 C   0  0  0  0  0  0  0  0  0  0  0  0
    3.2717   35.3023   59.0720 F   0  0  0  0  0  0  0  0  0  0  0  0
    2.3131   36.3112   57.2034 C   0  0  0  0  0  0  0  0  0  0  0  0
   -0.1255   37.2286   54.8332 C   0  0  0  0  0  0  0  0  0  0  0  0
   -0.5758   38.3863   54.3661 N   0  0  0  0  0  0  0  0  0  0  0  0
    0.4519   39.2667   54.4950 C   0  0  0  0  0  0  0  0  0  0  0  0
    0.3416   41.0715   53.9690 Br  0  0  0  0  0  0  0  0  0  0  0  0
    1.5490   38.6668   55.0559 C   0  0  0  0  0  0  0  0  0  0  0  0
    1.2024   37.3418   55.2614 N   0  0  0  0  0  0  0  0  0  0  0  0
   -1.0131   36.0223   54.9959 C   0  0  0  0  0  0  0  0  0  0  0  0
   -1.3852   36.8942   57.2103 C   0  0  0  0  0  0  0  0  0  0  0  0
   -1.9928   36.1583   56.0966 N   0  0  0  0  0  0  0  0  0  0  0  0
   -3.2049   36.8577   55.6537 C   0  0  0  0  0  0  0  0  0  0  0  0
    6.7332   32.3494   57.9607 C   0  0  0  0  0  0  0  0  0  0  0  0
    6.5993   31.0093   57.6273 C   0  0  0  0  0  0  0  0  0  0  0  0
    7.4481   30.2927   58.4914 C   0  0  0  0  0  0  0  0  0  0  0  0
    8.1070   31.1387   59.2971 N   0  0  0  0  0  0  0  0  0  0  0  0
    7.5836   32.3817   59.0656 N   0  0  0  0  0  0  0  0  0  0  0  0
    8.0300   33.4508   59.9119 C   0  0  0  0  0  0  0  0  0  0  0  0
    9.4050   33.7816   59.9064 C   0  0  0  0  0  0  0  0  0  0  0  0
    9.9362   34.8020   60.7109 C   0  0  0  0  0  0  0  0  0  0  0  0
    9.0316   35.4630   61.5338 C   0  0  0  0  0  0  0  0  0  0  0  0
    9.3140   36.4719   62.4001 O   0  0  0  0  0  0  0  0  0  0  0  0
    8.1542   36.8473   63.0670 N   0  0  0  0  0  0  0  0  0  0  0  0
    7.1853   36.0690   62.5791 C   0  0  0  0  0  0  0  0  0  0  0  0
    5.8952   36.1288   62.9613 N   0  0  0  0  0  0  0  0  0  0  0  0
    7.6826   35.1685   61.5975 C   0  0  0  0  0  0  0  0  0  0  0  0
    7.1666   34.1396   60.7794 C   0  0  0  0  0  0  0  0  0  0  0  0
    5.6147   36.7763   63.6478 H   0  0  0  0  0  0  0  0  0  0  0  0
    5.2327   35.5250   62.5542 H   0  0  0  0  0  0  0  0  0  0  0  0
    7.6628   28.8013   58.5151 C   0  0  0  0  0  0  0  0  0  0  0  0
    8.9620   28.4536   58.7237 F   0  0  0  0  0  0  0  0  0  0  0  0
    7.2668   28.2135   57.3522 F   0  0  0  0  0  0  0  0  0  0  0  0
    6.9371   28.2113   59.5105 F   0  0  0  0  0  0  0  0  0  0  0  0
 19 20  1  0
 20 21  1  0
 20 18  1  0
 18 12  1  0
 12 13  2  0
 13 14  1  0
 14 15  1  0
 14 16  2  0
 16 17  1  0
 17  5  1  0
  5  6  2  0
  6  7  1  0
  7  8  2  0
  8  1  1  0
  1  2  1  0
  2  3  2  0
  2 22  1  0
 22 23  2  0
 23 24  1  0
 24 39  1  0
 39 40  1  0
 39 41  1  0
 39 42  1  0
 24 25  2  0
 25 26  1  0
 26 27  1  0
 27 28  2  0
 28 29  1  0
 29 30  2  0
 30 31  1  0
 31 32  1  0
 32 33  2  0
 33 34  1  0
 33 35  1  0
 35 36  2  0
  8  9  1  0
  9 10  1  0
  9 11  2  0
 17 12  1  0
 11  5  1  0
 26 22  1  0
 36 27  1  0
 35 30  1  0
  1  4  1  0
 34 37  1  0
 34 38  1  0
M  END
> <minimizedAffinity>
-6.98482

> <CNNscore>
0.2150379866

> <CNNaffinity>
6.3641033173

> <CNN_VS>
1.3685239553

> <CNNaffinity_variance>
0.0514044575

$$$$



 42 46  0  0  0  0  0  0  0  0999 V2000
    7.6462   29.6998   57.9457 N   0  0  0  0  0  0  0  0  0  0  0  0
    7.7066   28.3317   57.7266 C   0  0  0  0  0  0  0  0  0  0  0  0
    7.4154   27.4754   58.5492 O   0  0  0  0  0  0  0  0  0  0  0  0
    8.0124   30.2732   57.2341 H   0  0  0  0  0  0  0  0  0  0  0  0
    5.9010   31.5722   61.3352 C   0  0  0  0  0  0  0  0  0  0  0  0
    5.3658   30.4013   60.7736 C   0  0  0  0  0  0  0  0  0  0  0  0
    5.9708   29.8052   59.6571 C   0  0  0  0  0  0  0  0  0  0  0  0
    7.1176   30.3628   59.0768 C   0  0  0  0  0  0  0  0  0  0  0  0
    7.6742   31.4950   59.6823 C   0  0  0  0  0  0  0  0  0  0  0  0
    8.8550   31.9927   59.2935 F   0  0  0  0  0  0  0  0  0  0  0  0
    7.0748   32.0955   60.7931 C   0  0  0  0  0  0  0  0  0  0  0  0
    5.2468   33.5146   62.8767 C   0  0  0  0  0  0  0  0  0  0  0  0
    4.5233   33.6605   63.9797 N   0  0  0  0  0  0  0  0  0  0  0  0
    4.0526   32.4222   64.2846 C   0  0  0  0  0  0  0  0  0  0  0  0
    2.9632   32.0674   65.7790 Br  0  0  0  0  0  0  0  0  0  0  0  0
    4.4696   31.4949   63.3657 C   0  0  0  0  0  0  0  0  0  0  0  0
    5.2621   32.1787   62.4587 N   0  0  0  0  0  0  0  0  0  0  0  0
    5.8299   34.6868   62.1314 C   0  0  0  0  0  0  0  0  0  0  0  0
    8.0582   35.5920   61.9996 C   0  0  0  0  0  0  0  0  0  0  0  0
    6.9020   35.3825   62.8773 N   0  0  0  0  0  0  0  0  0  0  0  0
    6.4430   36.6765   63.3962 C   0  0  0  0  0  0  0  0  0  0  0  0
    8.1661   28.0266   56.3889 C   0  0  0  0  0  0  0  0  0  0  0  0
    9.4782   27.7314   56.0478 C   0  0  0  0  0  0  0  0  0  0  0  0
    9.4682   27.3648   54.6891 C   0  0  0  0  0  0  0  0  0  0  0  0
    8.2145   27.3915   54.2132 N   0  0  0  0  0  0  0  0  0  0  0  0
    7.4333   27.9146   55.2076 N   0  0  0  0  0  0  0  0  0  0  0  0
    6.0582   28.1773   54.8936 C   0  0  0  0  0  0  0  0  0  0  0  0
    5.4434   29.3133   55.4696 C   0  0  0  0  0  0  0  0  0  0  0  0
    4.0996   29.6426   55.2322 C   0  0  0  0  0  0  0  0  0  0  0  0
    3.3953   28.7733   54.4073 C   0  0  0  0  0  0  0  0  0  0  0  0
    2.0895   28.8817   54.0452 O   0  0  0  0  0  0  0  0  0  0  0  0
    1.7414   27.8033   53.2408 N   0  0  0  0  0  0  0  0  0  0  0  0
    2.8496   27.0693   53.1161 C   0  0  0  0  0  0  0  0  0  0  0  0
    2.9343   25.9342   52.3961 N   0  0  0  0  0  0  0  0  0  0  0  0
    3.9369   27.6377   53.8349 C   0  0  0  0  0  0  0  0  0  0  0  0
    5.2909   27.3238   54.0841 C   0  0  0  0  0  0  0  0  0  0  0  0
    2.1428   25.5927   51.9205 H   0  0  0  0  0  0  0  0  0  0  0  0
    3.7877   25.4459   52.3454 H   0  0  0  0  0  0  0  0  0  0  0  0
   10.6530   26.9447   53.8579 C   0  0  0  0  0  0  0  0  0  0  0  0
   11.7859   27.6368   54.1575 F   0  0  0  0  0  0  0  0  0  0  0  0
   10.4198   27.1042   52.5258 F   0  0  0  0  0  0  0  0  0  0  0  0
   10.9442   25.6229   54.0416 F   0  0  0  0  0  0  0  0  0  0  0  0
 19 20  1  0
 20 21  1  0
 20 18  1  0
 18 12  1  0
 12 13  2  0
 13 14  1  0
 14 15  1  0
 14 16  2  0
 16 17  1  0
 17  5  1  0
  5  6  2  0
  6  7  1  0
  7  8  2  0
  8  1  1  0
  1  2  1  0
  2  3  2  0
  2 22  1  0
 22 23  2  0
 23 24  1  0
 24 39  1  0
 39 40  1  0
 39 41  1  0
 39 42  1  0
 24 25  2  0
 25 26  1  0
 26 27  1  0
 27 28  2  0
 28 29  1  0
 29 30  2  0
 30 31  1  0
 31 32  1  0
 32 33  2  0
 33 34  1  0
 33 35  1  0
 35 36  2  0
  8  9  1  0
  9 10  1  0
  9 11  2  0
 17 12  1  0
 11  5  1  0
 26 22  1  0
 36 27  1  0
 35 30  1  0
  1  4  1  0
 34 37  1  0
 34 38  1  0
M  END
> <minimizedAffinity>
-8.64776

> <CNNscore>
0.1721724868

> <CNNaffinity>
6.8956623077

> <CNN_VS>
1.1872433424

> <CNNaffinity_variance>
0.3702179193

$$$$



 42 46  0  0  0  0  0  0  0  0999 V2000
    4.4238   31.7662   57.0570 N   0  0  0  0  0  0  0  0  0  0  0  0
    5.7420   32.1598   57.2322 C   0  0  0  0  0  0  0  0  0  0  0  0
    6.2068   33.2342   56.8796 O   0  0  0  0  0  0  0  0  0  0  0  0
    4.2111   30.8337   57.2902 H   0  0  0  0  0  0  0  0  0  0  0  0
    1.2365   34.0653   55.4457 C   0  0  0  0  0  0  0  0  0  0  0  0
    1.9095   33.0922   54.6886 C   0  0  0  0  0  0  0  0  0  0  0  0
    2.9544   32.3462   55.2537 C   0  0  0  0  0  0  0  0  0  0  0  0
    3.3513   32.5548   56.5810 C   0  0  0  0  0  0  0  0  0  0  0  0
    2.6335   33.4848   57.3414 C   0  0  0  0  0  0  0  0  0  0  0  0
    2.8385   33.6269   58.6570 F   0  0  0  0  0  0  0  0  0  0  0  0
    1.5932   34.2334   56.7836 C   0  0  0  0  0  0  0  0  0  0  0  0
    0.2031   36.1303   54.3300 C   0  0  0  0  0  0  0  0  0  0  0  0
   -0.9913   36.4690   53.8609 N   0  0  0  0  0  0  0  0  0  0  0  0
   -1.7921   35.3892   54.0627 C   0  0  0  0  0  0  0  0  0  0  0  0
   -3.6110   35.3437   53.5771 Br  0  0  0  0  0  0  0  0  0  0  0  0
   -1.0990   34.3625   54.6489 C   0  0  0  0  0  0  0  0  0  0  0  0
    0.1888   34.8308   54.8503 N   0  0  0  0  0  0  0  0  0  0  0  0
    1.4154   37.0093   54.1650 C   0  0  0  0  0  0  0  0  0  0  0  0
    0.3498   39.1545   54.4197 C   0  0  0  0  0  0  0  0  0  0  0  0
    1.3585   38.2462   54.9753 N   0  0  0  0  0  0  0  0  0  0  0  0
    1.0337   37.9560   56.3770 C   0  0  0  0  0  0  0  0  0  0  0  0
    6.5213   31.1327   57.8891 C   0  0  0  0  0  0  0  0  0  0  0  0
    6.6642   29.8302   57.4328 C   0  0  0  0  0  0  0  0  0  0  0  0
    7.6024   29.2084   58.2776 C   0  0  0  0  0  0  0  0  0  0  0  0
    8.0521   30.0824   59.1902 N   0  0  0  0  0  0  0  0  0  0  0  0
    7.3058   31.2194   59.0389 N   0  0  0  0  0  0  0  0  0  0  0  0
    7.5022   32.2671   59.9994 C   0  0  0  0  0  0  0  0  0  0  0  0
    6.4634   32.5362   60.9207 C   0  0  0  0  0  0  0  0  0  0  0  0
    6.5590   33.5504   61.8865 C   0  0  0  0  0  0  0  0  0  0  0  0
    7.7335   34.2939   61.8758 C   0  0  0  0  0  0  0  0  0  0  0  0
    8.0454   35.3254   62.7046 O   0  0  0  0  0  0  0  0  0  0  0  0
    9.2915   35.8349   62.3605 N   0  0  0  0  0  0  0  0  0  0  0  0
    9.7200   35.0902   61.3386 C   0  0  0  0  0  0  0  0  0  0  0  0
   10.9040   35.2566   60.7187 N   0  0  0  0  0  0  0  0  0  0  0  0
    8.7717   34.0909   60.9863 C   0  0  0  0  0  0  0  0  0  0  0  0
    8.6578   33.0648   60.0228 C   0  0  0  0  0  0  0  0  0  0  0  0
   11.5171   35.9691   61.0115 H   0  0  0  0  0  0  0  0  0  0  0  0
   11.1565   34.6658   59.9727 H   0  0  0  0  0  0  0  0  0  0  0  0
    8.1026   27.7899   58.1830 C   0  0  0  0  0  0  0  0  0  0  0  0
    9.3601   27.6346   58.6797 F   0  0  0  0  0  0  0  0  0  0  0  0
    8.1155   27.3416   56.8972 F   0  0  0  0  0  0  0  0  0  0  0  0
    7.2997   26.9331   58.8808 F   0  0  0  0  0  0  0  0  0  0  0  0
 19 20  1  0
 20 21  1  0
 20 18  1  0
 18 12  1  0
 12 13  2  0
 13 14  1  0
 14 15  1  0
 14 16  2  0
 16 17  1  0
 17  5  1  0
  5  6  2  0
  6  7  1  0
  7  8  2  0
  8  1  1  0
  1  2  1  0
  2  3  2  0
  2 22  1  0
 22 23  2  0
 23 24  1  0
 24 39  1  0
 39 40  1  0
 39 41  1  0
 39 42  1  0
 24 25  2  0
 25 26  1  0
 26 27  1  0
 27 28  2  0
 28 29  1  0
 29 30  2  0
 30 31  1  0
 31 32  1  0
 32 33  2  0
 33 34  1  0
 33 35  1  0
 35 36  2  0
  8  9  1  0
  9 10  1  0
  9 11  2  0
 17 12  1  0
 11  5  1  0
 26 22  1  0
 36 27  1  0
 35 30  1  0
  1  4  1  0
 34 37  1  0
 34 38  1  0
M  END
> <minimizedAffinity>
-7.00175

> <CNNscore>
0.1598182172

> <CNNaffinity>
6.0839419365

> <CNN_VS>
0.9723247290

> <CNNaffinity_variance>
0.1366123706

$$$$
