


 36 39  0  0  0  0  0  0  0  0999 V2000
  -40.8616   -2.5942    0.2128 N   0  0  0  0  0  0  0  0  0  0  0  0
  -41.6511   -2.6298   -0.9208 C   0  0  0  0  0  0  0  0  0  0  0  0
  -41.2959   -2.8832   -2.0643 O   0  0  0  0  0  0  0  0  0  0  0  0
  -41.3279   -2.3814    1.0534 H   0  0  0  0  0  0  0  0  0  0  0  0
  -43.0893   -2.2989   -0.6424 C   0  0  0  0  0  0  0  0  0  0  0  0
  -44.0012   -2.2345   -1.6919 C   0  0  0  0  0  0  0  0  0  0  0  0
  -45.3232   -1.9150   -1.3973 C   0  0  0  0  0  0  0  0  0  0  0  0
  -45.6796   -1.6752   -0.0768 C   0  0  0  0  0  0  0  0  0  0  0  0
  -46.9520   -1.3709    0.2161 F   0  0  0  0  0  0  0  0  0  0  0  0
  -44.7115   -1.7604    0.9245 C   0  0  0  0  0  0  0  0  0  0  0  0
  -43.4105   -2.0660    0.6660 N   0  0  0  0  0  0  0  0  0  0  0  0
  -45.0442   -1.5395    2.3238 C   0  0  0  0  0  0  0  0  0  0  0  0
  -44.5270   -2.3671    3.3272 C   0  0  0  0  0  0  0  0  0  0  0  0
  -43.7057   -3.3778    3.0053 F   0  0  0  0  0  0  0  0  0  0  0  0
  -44.8372   -2.1705    4.6692 C   0  0  0  0  0  0  0  0  0  0  0  0
  -45.6822   -1.1271    5.0183 C   0  0  0  0  0  0  0  0  0  0  0  0
  -45.9896   -0.9316    6.3068 F   0  0  0  0  0  0  0  0  0  0  0  0
  -46.2174   -0.2859    4.0518 C   0  0  0  0  0  0  0  0  0  0  0  0
  -45.8946   -0.4991    2.7150 C   0  0  0  0  0  0  0  0  0  0  0  0
  -46.4112    0.3298    1.7954 F   0  0  0  0  0  0  0  0  0  0  0  0
  -38.8897   -3.1357    1.5689 C   0  0  0  0  0  0  0  0  0  0  0  0
  -37.4981   -3.3618    1.6053 C   0  0  0  0  0  0  0  0  0  0  0  0
  -36.7506   -3.2705    0.4433 C   0  0  0  0  0  0  0  0  0  0  0  0
  -37.2791   -2.9703   -0.7530 N   0  0  0  0  0  0  0  0  0  0  0  0
  -38.6187   -2.7565   -0.7856 C   0  0  0  0  0  0  0  0  0  0  0  0
  -39.4737   -2.8234    0.3214 C   0  0  0  0  0  0  0  0  0  0  0  0
  -40.7988   -0.6811    5.5727 C   0  0  0  0  0  0  0  0  0  0  0  0
  -40.6576   -2.0370    4.8799 C   0  0  0  0  0  0  0  0  0  0  0  0
  -40.0046   -3.0591    5.8191 C   0  0  0  0  0  0  0  0  0  0  0  0
  -39.8332   -4.4250    5.1453 C   0  0  0  0  0  0  0  0  0  0  0  0
  -39.1788   -5.3499    6.0703 N   0  0  0  0  0  0  0  0  0  0  0  0
  -39.0227   -4.3100    3.8474 C   0  0  0  0  0  0  0  0  0  0  0  0
  -39.6271   -3.2560    2.9002 C   0  0  0  0  0  0  0  0  0  0  0  0
  -39.8510   -1.8944    3.5818 C   0  0  0  0  0  0  0  0  0  0  0  0
  -38.2547   -4.9921    6.3119 H   0  0  0  0  0  0  0  0  0  0  0  0
  -39.0844   -6.2638    5.6273 H   0  0  0  0  0  0  0  0  0  0  0  0
 28 27  1  0
 28 29  1  0
 29 30  1  0
 30 31  1  0
 30 32  1  0
 32 33  1  0
 33 21  1  0
 21 22  2  0
 22 23  1  0
 23 24  2  0
 24 25  1  0
 25 26  2  0
 26  1  1  0
  1  2  1  0
  2  3  2  0
  2  5  1  0
  5  6  2  0
  6  7  1  0
  7  8  2  0
  8  9  1  0
  8 10  1  0
 10 12  1  0
 12 13  2  0
 13 14  1  0
 13 15  1  0
 15 16  2  0
 16 17  1  0
 16 18  1  0
 18 19  2  0
 19 20  1  0
 10 11  2  0
 33 34  1  0
 34 28  1  0
 26 21  1  0
 11  5  1  0
 19 12  1  0
 31 35  1  0
 31 36  1  0
  1  4  1  0
M  END
> <minimizedAffinity>
-11.32012

> <CNNscore>
0.9656584859

> <CNNaffinity>
9.2455644608

> <CNN_VS>
8.9280576706

> <CNNaffinity_variance>
0.0729053244

$$$$



 36 39  0  0  0  0  0  0  0  0999 V2000
  -44.6180   -1.3618    2.2371 N   0  0  0  0  0  0  0  0  0  0  0  0
  -44.4303   -0.6904    1.0439 C   0  0  0  0  0  0  0  0  0  0  0  0
  -44.8286    0.4297    0.7525 O   0  0  0  0  0  0  0  0  0  0  0  0
  -44.2118   -2.2569    2.2937 H   0  0  0  0  0  0  0  0  0  0  0  0
  -43.6533   -1.4907    0.0384 C   0  0  0  0  0  0  0  0  0  0  0  0
  -44.2862   -1.9684   -1.1054 C   0  0  0  0  0  0  0  0  0  0  0  0
  -43.5370   -2.7151   -2.0097 C   0  0  0  0  0  0  0  0  0  0  0  0
  -42.1959   -2.9524   -1.7387 C   0  0  0  0  0  0  0  0  0  0  0  0
  -41.4660   -3.6672   -2.6068 F   0  0  0  0  0  0  0  0  0  0  0  0
  -41.6274   -2.4393   -0.5723 C   0  0  0  0  0  0  0  0  0  0  0  0
  -42.3361   -1.7100    0.3325 N   0  0  0  0  0  0  0  0  0  0  0  0
  -40.2212   -2.6437   -0.2588 C   0  0  0  0  0  0  0  0  0  0  0  0
  -39.7194   -2.3662    1.0180 C   0  0  0  0  0  0  0  0  0  0  0  0
  -40.5402   -1.9109    1.9765 F   0  0  0  0  0  0  0  0  0  0  0  0
  -38.3773   -2.5541    1.3330 C   0  0  0  0  0  0  0  0  0  0  0  0
  -37.5166   -3.0279    0.3536 C   0  0  0  0  0  0  0  0  0  0  0  0
  -36.2225   -3.2091    0.6456 F   0  0  0  0  0  0  0  0  0  0  0  0
  -37.9758   -3.3126   -0.9257 C   0  0  0  0  0  0  0  0  0  0  0  0
  -39.3219   -3.1181   -1.2205 C   0  0  0  0  0  0  0  0  0  0  0  0
  -39.7510   -3.4088   -2.4579 F   0  0  0  0  0  0  0  0  0  0  0  0
  -44.7498   -1.0749    4.6704 C   0  0  0  0  0  0  0  0  0  0  0  0
  -45.4977   -0.6145    5.7738 C   0  0  0  0  0  0  0  0  0  0  0  0
  -46.7456   -0.0475    5.5773 C   0  0  0  0  0  0  0  0  0  0  0  0
  -47.3089    0.0966    4.3679 N   0  0  0  0  0  0  0  0  0  0  0  0
  -46.5857   -0.3441    3.3077 C   0  0  0  0  0  0  0  0  0  0  0  0
  -45.3164   -0.9305    3.3846 C   0  0  0  0  0  0  0  0  0  0  0  0
  -39.7164   -0.5075    4.4633 C   0  0  0  0  0  0  0  0  0  0  0  0
  -40.8624   -1.3887    4.9617 C   0  0  0  0  0  0  0  0  0  0  0  0
  -40.7229   -2.8164    4.4182 C   0  0  0  0  0  0  0  0  0  0  0  0
  -41.8689   -3.7198    4.8869 C   0  0  0  0  0  0  0  0  0  0  0  0
  -41.7052   -5.0564    4.3159 N   0  0  0  0  0  0  0  0  0  0  0  0
  -43.2341   -3.1389    4.4956 C   0  0  0  0  0  0  0  0  0  0  0  0
  -43.3878   -1.6871    4.9875 C   0  0  0  0  0  0  0  0  0  0  0  0
  -42.2160   -0.7831    4.5654 C   0  0  0  0  0  0  0  0  0  0  0  0
  -41.7375   -4.9976    3.2981 H   0  0  0  0  0  0  0  0  0  0  0  0
  -42.4572   -5.6614    4.6456 H   0  0  0  0  0  0  0  0  0  0  0  0
 28 27  1  0
 28 29  1  0
 29 30  1  0
 30 31  1  0
 30 32  1  0
 32 33  1  0
 33 21  1  0
 21 22  2  0
 22 23  1  0
 23 24  2  0
 24 25  1  0
 25 26  2  0
 26  1  1  0
  1  2  1  0
  2  3  2  0
  2  5  1  0
  5  6  2  0
  6  7  1  0
  7  8  2  0
  8  9  1  0
  8 10  1  0
 10 12  1  0
 12 13  2  0
 13 14  1  0
 13 15  1  0
 15 16  2  0
 16 17  1  0
 16 18  1  0
 18 19  2  0
 19 20  1  0
 10 11  2  0
 33 34  1  0
 34 28  1  0
 26 21  1  0
 11  5  1  0
 19 12  1  0
 31 35  1  0
 31 36  1  0
  1  4  1  0
M  END
> <minimizedAffinity>
-11.35577

> <CNNscore>
0.6947078109

> <CNNaffinity>
8.1716794968

> <CNN_VS>
5.6769294739

> <CNNaffinity_variance>
0.3506176472

$$$$



 36 39  0  0  0  0  0  0  0  0999 V2000
  -44.3660   -1.2359    5.5938 N   0  0  0  0  0  0  0  0  0  0  0  0
  -44.6664   -2.2419    4.6953 C   0  0  0  0  0  0  0  0  0  0  0  0
  -44.8420   -3.4280    4.9413 O   0  0  0  0  0  0  0  0  0  0  0  0
  -44.2714   -0.3337    5.2112 H   0  0  0  0  0  0  0  0  0  0  0  0
  -44.7600   -1.7521    3.2788 C   0  0  0  0  0  0  0  0  0  0  0  0
  -45.8370   -0.9616    2.8886 C   0  0  0  0  0  0  0  0  0  0  0  0
  -45.8956   -0.5348    1.5654 C   0  0  0  0  0  0  0  0  0  0  0  0
  -44.8842   -0.9104    0.6913 C   0  0  0  0  0  0  0  0  0  0  0  0
  -44.9309   -0.4999   -0.5840 F   0  0  0  0  0  0  0  0  0  0  0  0
  -43.8329   -1.7028    1.1539 C   0  0  0  0  0  0  0  0  0  0  0  0
  -43.7513   -2.1391    2.4407 N   0  0  0  0  0  0  0  0  0  0  0  0
  -42.7401   -2.1014    0.2796 C   0  0  0  0  0  0  0  0  0  0  0  0
  -42.9903   -2.7094   -0.9561 C   0  0  0  0  0  0  0  0  0  0  0  0
  -44.2533   -2.9264   -1.3529 F   0  0  0  0  0  0  0  0  0  0  0  0
  -41.9566   -3.0983   -1.8023 C   0  0  0  0  0  0  0  0  0  0  0  0
  -40.6451   -2.8773   -1.4077 C   0  0  0  0  0  0  0  0  0  0  0  0
  -39.6431   -3.2509   -2.2134 F   0  0  0  0  0  0  0  0  0  0  0  0
  -40.3561   -2.2789   -0.1883 C   0  0  0  0  0  0  0  0  0  0  0  0
  -41.4042   -1.8970    0.6437 C   0  0  0  0  0  0  0  0  0  0  0  0
  -41.1075   -1.3101    1.8129 F   0  0  0  0  0  0  0  0  0  0  0  0
  -42.9132   -1.6669    7.5237 C   0  0  0  0  0  0  0  0  0  0  0  0
  -42.7918   -1.7399    8.9268 C   0  0  0  0  0  0  0  0  0  0  0  0
  -43.8915   -1.4938    9.7314 C   0  0  0  0  0  0  0  0  0  0  0  0
  -45.1042   -1.1816    9.2491 N   0  0  0  0  0  0  0  0  0  0  0  0
  -45.2174   -1.1088    7.8988 C   0  0  0  0  0  0  0  0  0  0  0  0
  -44.1774   -1.3345    6.9886 C   0  0  0  0  0  0  0  0  0  0  0  0
  -39.5925    0.0639    4.1065 C   0  0  0  0  0  0  0  0  0  0  0  0
  -39.9287   -1.0785    5.0656 C   0  0  0  0  0  0  0  0  0  0  0  0
  -40.0078   -2.4123    4.3119 C   0  0  0  0  0  0  0  0  0  0  0  0
  -40.3615   -3.5752    5.2455 C   0  0  0  0  0  0  0  0  0  0  0  0
  -40.4555   -4.8136    4.4731 N   0  0  0  0  0  0  0  0  0  0  0  0
  -41.6770   -3.3132    5.9907 C   0  0  0  0  0  0  0  0  0  0  0  0
  -41.6472   -1.9572    6.7215 C   0  0  0  0  0  0  0  0  0  0  0  0
  -41.2430   -0.7896    5.8041 C   0  0  0  0  0  0  0  0  0  0  0  0
  -41.1948   -4.7243    3.7761 H   0  0  0  0  0  0  0  0  0  0  0  0
  -40.6705   -5.5894    5.0994 H   0  0  0  0  0  0  0  0  0  0  0  0
 28 27  1  0
 28 29  1  0
 29 30  1  0
 30 31  1  0
 30 32  1  0
 32 33  1  0
 33 21  1  0
 21 22  2  0
 22 23  1  0
 23 24  2  0
 24 25  1  0
 25 26  2  0
 26  1  1  0
  1  2  1  0
  2  3  2  0
  2  5  1  0
  5  6  2  0
  6  7  1  0
  7  8  2  0
  8  9  1  0
  8 10  1  0
 10 12  1  0
 12 13  2  0
 13 14  1  0
 13 15  1  0
 15 16  2  0
 16 17  1  0
 16 18  1  0
 18 19  2  0
 19 20  1  0
 10 11  2  0
 33 34  1  0
 34 28  1  0
 26 21  1  0
 11  5  1  0
 19 12  1  0
 31 35  1  0
 31 36  1  0
  1  4  1  0
M  END
> <minimizedAffinity>
-9.26562

> <CNNscore>
0.5637465715

> <CNNaffinity>
7.7204456329

> <CNN_VS>
4.3523745537

> <CNNaffinity_variance>
0.1341222972

$$$$



 36 39  0  0  0  0  0  0  0  0999 V2000
  -44.3311   -1.3370    2.2815 N   0  0  0  0  0  0  0  0  0  0  0  0
  -44.4434   -0.8201    1.0049 C   0  0  0  0  0  0  0  0  0  0  0  0
  -45.1510    0.1099    0.6408 O   0  0  0  0  0  0  0  0  0  0  0  0
  -43.6982   -2.0837    2.3874 H   0  0  0  0  0  0  0  0  0  0  0  0
  -43.5813   -1.5370    0.0057 C   0  0  0  0  0  0  0  0  0  0  0  0
  -44.1176   -1.9292   -1.2172 C   0  0  0  0  0  0  0  0  0  0  0  0
  -43.2917   -2.6004   -2.1138 C   0  0  0  0  0  0  0  0  0  0  0  0
  -41.9732   -2.8505   -1.7571 C   0  0  0  0  0  0  0  0  0  0  0  0
  -41.1697   -3.4928   -2.6168 F   0  0  0  0  0  0  0  0  0  0  0  0
  -41.5033   -2.4250   -0.5141 C   0  0  0  0  0  0  0  0  0  0  0  0
  -42.2886   -1.7709    0.3850 N   0  0  0  0  0  0  0  0  0  0  0  0
  -40.1235   -2.6451   -0.1074 C   0  0  0  0  0  0  0  0  0  0  0  0
  -39.0747   -2.5388   -1.0282 C   0  0  0  0  0  0  0  0  0  0  0  0
  -39.3339   -2.2229   -2.3060 F   0  0  0  0  0  0  0  0  0  0  0  0
  -37.7506   -2.7484   -0.6557 C   0  0  0  0  0  0  0  0  0  0  0  0
  -37.4661   -3.0721    0.6629 C   0  0  0  0  0  0  0  0  0  0  0  0
  -36.1954   -3.2791    1.0308 F   0  0  0  0  0  0  0  0  0  0  0  0
  -38.4792   -3.1893    1.6055 C   0  0  0  0  0  0  0  0  0  0  0  0
  -39.7970   -2.9754    1.2129 C   0  0  0  0  0  0  0  0  0  0  0  0
  -40.7622   -3.0814    2.1385 F   0  0  0  0  0  0  0  0  0  0  0  0
  -44.3495   -0.9427    4.7032 C   0  0  0  0  0  0  0  0  0  0  0  0
  -45.0799   -0.5181    5.8325 C   0  0  0  0  0  0  0  0  0  0  0  0
  -46.3971   -0.1142    5.6943 C   0  0  0  0  0  0  0  0  0  0  0  0
  -47.0459   -0.1006    4.5198 N   0  0  0  0  0  0  0  0  0  0  0  0
  -46.3397   -0.5064    3.4343 C   0  0  0  0  0  0  0  0  0  0  0  0
  -45.0061   -0.9331    3.4527 C   0  0  0  0  0  0  0  0  0  0  0  0
  -41.0500   -4.7895    4.8256 C   0  0  0  0  0  0  0  0  0  0  0  0
  -41.2198   -3.2749    4.9496 C   0  0  0  0  0  0  0  0  0  0  0  0
  -40.6918   -2.7802    6.3023 C   0  0  0  0  0  0  0  0  0  0  0  0
  -40.8652   -1.2659    6.4632 C   0  0  0  0  0  0  0  0  0  0  0  0
  -40.3769   -0.8530    7.7787 N   0  0  0  0  0  0  0  0  0  0  0  0
  -42.3315   -0.8495    6.2866 C   0  0  0  0  0  0  0  0  0  0  0  0
  -42.9064   -1.3716    4.9560 C   0  0  0  0  0  0  0  0  0  0  0  0
  -42.6919   -2.8831    4.7614 C   0  0  0  0  0  0  0  0  0  0  0  0
  -40.9215   -1.3182    8.5049 H   0  0  0  0  0  0  0  0  0  0  0  0
  -40.4742    0.1577    7.8756 H   0  0  0  0  0  0  0  0  0  0  0  0
 28 27  1  0
 28 29  1  0
 29 30  1  0
 30 31  1  0
 30 32  1  0
 32 33  1  0
 33 21  1  0
 21 22  2  0
 22 23  1  0
 23 24  2  0
 24 25  1  0
 25 26  2  0
 26  1  1  0
  1  2  1  0
  2  3  2  0
  2  5  1  0
  5  6  2  0
  6  7  1  0
  7  8  2  0
  8  9  1  0
  8 10  1  0
 10 12  1  0
 12 13  2  0
 13 14  1  0
 13 15  1  0
 15 16  2  0
 16 17  1  0
 16 18  1  0
 18 19  2  0
 19 20  1  0
 10 11  2  0
 33 34  1  0
 34 28  1  0
 26 21  1  0
 11  5  1  0
 19 12  1  0
 31 35  1  0
 31 36  1  0
  1  4  1  0
M  END
> <minimizedAffinity>
-10.43007

> <CNNscore>
0.4681738615

> <CNNaffinity>
8.0022897720

> <CNN_VS>
3.7464628220

> <CNNaffinity_variance>
0.1178070083

$$$$



 36 39  0  0  0  0  0  0  0  0999 V2000
  -41.1129   -2.0563    0.9882 N   0  0  0  0  0  0  0  0  0  0  0  0
  -42.2458   -2.4704    0.3138 C   0  0  0  0  0  0  0  0  0  0  0  0
  -42.3055   -3.2535   -0.6250 O   0  0  0  0  0  0  0  0  0  0  0  0
  -41.2619   -1.4264    1.7300 H   0  0  0  0  0  0  0  0  0  0  0  0
  -43.5028   -1.8387    0.8392 C   0  0  0  0  0  0  0  0  0  0  0  0
  -44.3042   -1.0804   -0.0091 C   0  0  0  0  0  0  0  0  0  0  0  0
  -45.4560   -0.5017    0.5154 C   0  0  0  0  0  0  0  0  0  0  0  0
  -45.7601   -0.7023    1.8553 C   0  0  0  0  0  0  0  0  0  0  0  0
  -46.8700   -0.1519    2.3674 F   0  0  0  0  0  0  0  0  0  0  0  0
  -44.9109   -1.4774    2.6459 C   0  0  0  0  0  0  0  0  0  0  0  0
  -43.7755   -2.0518    2.1620 N   0  0  0  0  0  0  0  0  0  0  0  0
  -45.2016   -1.7331    4.0486 C   0  0  0  0  0  0  0  0  0  0  0  0
  -44.5981   -0.9762    5.0596 C   0  0  0  0  0  0  0  0  0  0  0  0
  -43.7424    0.0067    4.7411 F   0  0  0  0  0  0  0  0  0  0  0  0
  -44.8637   -1.2096    6.4052 C   0  0  0  0  0  0  0  0  0  0  0  0
  -45.7493   -2.2201    6.7506 C   0  0  0  0  0  0  0  0  0  0  0  0
  -46.0091   -2.4549    8.0429 F   0  0  0  0  0  0  0  0  0  0  0  0
  -46.3663   -2.9943    5.7768 C   0  0  0  0  0  0  0  0  0  0  0  0
  -46.0874   -2.7448    4.4364 C   0  0  0  0  0  0  0  0  0  0  0  0
  -46.7008   -3.4945    3.5083 F   0  0  0  0  0  0  0  0  0  0  0  0
  -38.9445   -2.8593    1.8091 C   0  0  0  0  0  0  0  0  0  0  0  0
  -37.6152   -3.2154    1.5012 C   0  0  0  0  0  0  0  0  0  0  0  0
  -37.1574   -3.1240    0.1976 C   0  0  0  0  0  0  0  0  0  0  0  0
  -37.9188   -2.7045   -0.8246 N   0  0  0  0  0  0  0  0  0  0  0  0
  -39.1985   -2.3657   -0.5261 C   0  0  0  0  0  0  0  0  0  0  0  0
  -39.7703   -2.4195    0.7510 C   0  0  0  0  0  0  0  0  0  0  0  0
  -37.8724   -4.8932    6.3273 C   0  0  0  0  0  0  0  0  0  0  0  0
  -38.7931   -3.9397    5.5648 C   0  0  0  0  0  0  0  0  0  0  0  0
  -40.2597   -4.3606    5.7244 C   0  0  0  0  0  0  0  0  0  0  0  0
  -41.2064   -3.4326    4.9552 C   0  0  0  0  0  0  0  0  0  0  0  0
  -42.5845   -3.8962    5.1142 N   0  0  0  0  0  0  0  0  0  0  0  0
  -40.8370   -3.3662    3.4674 C   0  0  0  0  0  0  0  0  0  0  0  0
  -39.3555   -2.9906    3.2735 C   0  0  0  0  0  0  0  0  0  0  0  0
  -38.3988   -3.8845    4.0824 C   0  0  0  0  0  0  0  0  0  0  0  0
  -42.6733   -4.8368    4.7298 H   0  0  0  0  0  0  0  0  0  0  0  0
  -43.2147   -3.2655    4.6187 H   0  0  0  0  0  0  0  0  0  0  0  0
 28 27  1  0
 28 29  1  0
 29 30  1  0
 30 31  1  0
 30 32  1  0
 32 33  1  0
 33 21  1  0
 21 22  2  0
 22 23  1  0
 23 24  2  0
 24 25  1  0
 25 26  2  0
 26  1  1  0
  1  2  1  0
  2  3  2  0
  2  5  1  0
  5  6  2  0
  6  7  1  0
  7  8  2  0
  8  9  1  0
  8 10  1  0
 10 12  1  0
 12 13  2  0
 13 14  1  0
 13 15  1  0
 15 16  2  0
 16 17  1  0
 16 18  1  0
 18 19  2  0
 19 20  1  0
 10 11  2  0
 33 34  1  0
 34 28  1  0
 26 21  1  0
 11  5  1  0
 19 12  1  0
 31 35  1  0
 31 36  1  0
  1  4  1  0
M  END
> <minimizedAffinity>
-10.61552

> <CNNscore>
0.4271745384

> <CNNaffinity>
8.3193244934

> <CNN_VS>
3.5538036823

> <CNNaffinity_variance>
0.0304756928

$$$$



 36 39  0  0  0  0  0  0  0  0999 V2000
  -38.1727   -4.1627    3.2412 N   0  0  0  0  0  0  0  0  0  0  0  0
  -37.6136   -3.8295    2.0221 C   0  0  0  0  0  0  0  0  0  0  0  0
  -36.4745   -4.0627    1.6399 O   0  0  0  0  0  0  0  0  0  0  0  0
  -39.1135   -3.9014    3.3670 H   0  0  0  0  0  0  0  0  0  0  0  0
  -38.5650   -3.0913    1.1247 C   0  0  0  0  0  0  0  0  0  0  0  0
  -38.1717   -2.7407   -0.1635 C   0  0  0  0  0  0  0  0  0  0  0  0
  -39.0761   -2.0482   -0.9629 C   0  0  0  0  0  0  0  0  0  0  0  0
  -40.3278   -1.7366   -0.4488 C   0  0  0  0  0  0  0  0  0  0  0  0
  -41.2065   -1.0734   -1.2138 F   0  0  0  0  0  0  0  0  0  0  0  0
  -40.6542   -2.1230    0.8516 C   0  0  0  0  0  0  0  0  0  0  0  0
  -39.7889   -2.7967    1.6582 N   0  0  0  0  0  0  0  0  0  0  0  0
  -41.9616   -1.8379    1.4235 C   0  0  0  0  0  0  0  0  0  0  0  0
  -42.0874   -1.0753    2.5904 C   0  0  0  0  0  0  0  0  0  0  0  0
  -40.9928   -0.5892    3.1949 F   0  0  0  0  0  0  0  0  0  0  0  0
  -43.3298   -0.7958    3.1509 C   0  0  0  0  0  0  0  0  0  0  0  0
  -44.4714   -1.2883    2.5354 C   0  0  0  0  0  0  0  0  0  0  0  0
  -45.6716   -1.0278    3.0687 F   0  0  0  0  0  0  0  0  0  0  0  0
  -44.3878   -2.0508    1.3778 C   0  0  0  0  0  0  0  0  0  0  0  0
  -43.1357   -2.3189    0.8329 C   0  0  0  0  0  0  0  0  0  0  0  0
  -43.0737   -3.0474   -0.2919 F   0  0  0  0  0  0  0  0  0  0  0  0
  -37.9265   -4.5105    5.6576 C   0  0  0  0  0  0  0  0  0  0  0  0
  -37.2916   -5.2209    6.6973 C   0  0  0  0  0  0  0  0  0  0  0  0
  -36.3495   -6.1908    6.3993 C   0  0  0  0  0  0  0  0  0  0  0  0
  -35.9881   -6.5090    5.1468 N   0  0  0  0  0  0  0  0  0  0  0  0
  -36.6031   -5.8263    4.1482 C   0  0  0  0  0  0  0  0  0  0  0  0
  -37.5694   -4.8291    4.3287 C   0  0  0  0  0  0  0  0  0  0  0  0
  -39.6480   -1.5853    9.4233 C   0  0  0  0  0  0  0  0  0  0  0  0
  -39.7780   -1.9293    7.9390 C   0  0  0  0  0  0  0  0  0  0  0  0
  -41.2168   -2.3423    7.6033 C   0  0  0  0  0  0  0  0  0  0  0  0
  -41.3742   -2.7107    6.1240 C   0  0  0  0  0  0  0  0  0  0  0  0
  -42.7524   -3.1265    5.8657 N   0  0  0  0  0  0  0  0  0  0  0  0
  -40.3991   -3.8240    5.7186 C   0  0  0  0  0  0  0  0  0  0  0  0
  -38.9478   -3.4594    6.0852 C   0  0  0  0  0  0  0  0  0  0  0  0
  -38.7880   -3.0383    7.5568 C   0  0  0  0  0  0  0  0  0  0  0  0
  -42.9702   -3.9497    6.4272 H   0  0  0  0  0  0  0  0  0  0  0  0
  -42.8601   -3.3514    4.8766 H   0  0  0  0  0  0  0  0  0  0  0  0
 28 27  1  0
 28 29  1  0
 29 30  1  0
 30 31  1  0
 30 32  1  0
 32 33  1  0
 33 21  1  0
 21 22  2  0
 22 23  1  0
 23 24  2  0
 24 25  1  0
 25 26  2  0
 26  1  1  0
  1  2  1  0
  2  3  2  0
  2  5  1  0
  5  6  2  0
  6  7  1  0
  7  8  2  0
  8  9  1  0
  8 10  1  0
 10 12  1  0
 12 13  2  0
 13 14  1  0
 13 15  1  0
 15 16  2  0
 16 17  1  0
 16 18  1  0
 18 19  2  0
 19 20  1  0
 10 11  2  0
 33 34  1  0
 34 28  1  0
 26 21  1  0
 11  5  1  0
 19 12  1  0
 31 35  1  0
 31 36  1  0
  1  4  1  0
M  END
> <minimizedAffinity>
-10.33919

> <CNNscore>
0.3796854615

> <CNNaffinity>
7.8866763115

> <CNN_VS>
2.9944562912

> <CNNaffinity_variance>
0.0421822034

$$$$



 36 39  0  0  0  0  0  0  0  0999 V2000
  -39.2787   -3.5965    4.6902 N   0  0  0  0  0  0  0  0  0  0  0  0
  -39.5784   -2.2657    4.9105 C   0  0  0  0  0  0  0  0  0  0  0  0
  -39.0370   -1.5045    5.7016 O   0  0  0  0  0  0  0  0  0  0  0  0
  -39.8171   -4.0487    4.0011 H   0  0  0  0  0  0  0  0  0  0  0  0
  -40.7117   -1.7724    4.0574 C   0  0  0  0  0  0  0  0  0  0  0  0
  -41.7002   -0.9677    4.6161 C   0  0  0  0  0  0  0  0  0  0  0  0
  -42.7405   -0.5380    3.7976 C   0  0  0  0  0  0  0  0  0  0  0  0
  -42.7518   -0.9250    2.4641 C   0  0  0  0  0  0  0  0  0  0  0  0
  -43.7480   -0.5119    1.6678 F   0  0  0  0  0  0  0  0  0  0  0  0
  -41.7248   -1.7314    1.9721 C   0  0  0  0  0  0  0  0  0  0  0  0
  -40.6975   -2.1708    2.7496 N   0  0  0  0  0  0  0  0  0  0  0  0
  -41.6837   -2.1424    0.5767 C   0  0  0  0  0  0  0  0  0  0  0  0
  -40.4993   -2.0600   -0.1646 C   0  0  0  0  0  0  0  0  0  0  0  0
  -39.3778   -1.6030    0.4124 F   0  0  0  0  0  0  0  0  0  0  0  0
  -40.4441   -2.4468   -1.4999 C   0  0  0  0  0  0  0  0  0  0  0  0
  -41.5947   -2.9251   -2.1097 C   0  0  0  0  0  0  0  0  0  0  0  0
  -41.5529   -3.2968   -3.3953 F   0  0  0  0  0  0  0  0  0  0  0  0
  -42.7897   -3.0197   -1.4085 C   0  0  0  0  0  0  0  0  0  0  0  0
  -42.8240   -2.6279   -0.0736 C   0  0  0  0  0  0  0  0  0  0  0  0
  -43.9836   -2.7365    0.5921 F   0  0  0  0  0  0  0  0  0  0  0  0
  -38.1615   -4.3770    6.7306 C   0  0  0  0  0  0  0  0  0  0  0  0
  -37.1700   -5.2018    7.3013 C   0  0  0  0  0  0  0  0  0  0  0  0
  -36.3695   -5.9868    6.4887 C   0  0  0  0  0  0  0  0  0  0  0  0
  -36.4772   -6.0148    5.1515 N   0  0  0  0  0  0  0  0  0  0  0  0
  -37.4342   -5.2228    4.6053 C   0  0  0  0  0  0  0  0  0  0  0  0
  -38.3008   -4.3911    5.3252 C   0  0  0  0  0  0  0  0  0  0  0  0
  -38.1308   -1.4631   10.8789 C   0  0  0  0  0  0  0  0  0  0  0  0
  -38.9868   -2.0214    9.7415 C   0  0  0  0  0  0  0  0  0  0  0  0
  -40.1855   -2.8000   10.2984 C   0  0  0  0  0  0  0  0  0  0  0  0
  -41.0534   -3.3877    9.1802 C   0  0  0  0  0  0  0  0  0  0  0  0
  -42.1603   -4.1446    9.7644 N   0  0  0  0  0  0  0  0  0  0  0  0
  -40.2302   -4.2857    8.2473 C   0  0  0  0  0  0  0  0  0  0  0  0
  -38.9913   -3.5467    7.7066 C   0  0  0  0  0  0  0  0  0  0  0  0
  -38.1399   -2.9088    8.8188 C   0  0  0  0  0  0  0  0  0  0  0  0
  -41.7892   -4.9140   10.3217 H   0  0  0  0  0  0  0  0  0  0  0  0
  -42.7481   -4.5174    9.0189 H   0  0  0  0  0  0  0  0  0  0  0  0
 28 27  1  0
 28 29  1  0
 29 30  1  0
 30 31  1  0
 30 32  1  0
 32 33  1  0
 33 21  1  0
 21 22  2  0
 22 23  1  0
 23 24  2  0
 24 25  1  0
 25 26  2  0
 26  1  1  0
  1  2  1  0
  2  3  2  0
  2  5  1  0
  5  6  2  0
  6  7  1  0
  7  8  2  0
  8  9  1  0
  8 10  1  0
 10 12  1  0
 12 13  2  0
 13 14  1  0
 13 15  1  0
 15 16  2  0
 16 17  1  0
 16 18  1  0
 18 19  2  0
 19 20  1  0
 10 11  2  0
 33 34  1  0
 34 28  1  0
 26 21  1  0
 11  5  1  0
 19 12  1  0
 31 35  1  0
 31 36  1  0
  1  4  1  0
M  END
> <minimizedAffinity>
-9.60321

> <CNNscore>
0.2987687588

> <CNNaffinity>
7.2296257019

> <CNN_VS>
2.1599862576

> <CNNaffinity_variance>
0.3339827955

$$$$



 36 39  0  0  0  0  0  0  0  0999 V2000
  -42.0241   -2.2957    0.5707 N   0  0  0  0  0  0  0  0  0  0  0  0
  -40.8941   -1.9724   -0.1561 C   0  0  0  0  0  0  0  0  0  0  0  0
  -40.8339   -1.2848   -1.1669 O   0  0  0  0  0  0  0  0  0  0  0  0
  -41.8757   -2.8542    1.3678 H   0  0  0  0  0  0  0  0  0  0  0  0
  -39.6415   -2.5769    0.4105 C   0  0  0  0  0  0  0  0  0  0  0  0
  -38.4719   -2.5817   -0.3438 C   0  0  0  0  0  0  0  0  0  0  0  0
  -37.3334   -3.1597    0.2098 C   0  0  0  0  0  0  0  0  0  0  0  0
  -37.4071   -3.7048    1.4848 C   0  0  0  0  0  0  0  0  0  0  0  0
  -36.3139   -4.2597    2.0270 F   0  0  0  0  0  0  0  0  0  0  0  0
  -38.6140   -3.6614    2.1838 C   0  0  0  0  0  0  0  0  0  0  0  0
  -39.7445   -3.1072    1.6665 N   0  0  0  0  0  0  0  0  0  0  0  0
  -38.7317   -4.1996    3.5307 C   0  0  0  0  0  0  0  0  0  0  0  0
  -39.9296   -4.0946    4.2470 C   0  0  0  0  0  0  0  0  0  0  0  0
  -40.9935   -3.4966    3.6899 F   0  0  0  0  0  0  0  0  0  0  0  0
  -40.0576   -4.6019    5.5362 C   0  0  0  0  0  0  0  0  0  0  0  0
  -38.9674   -5.2264    6.1245 C   0  0  0  0  0  0  0  0  0  0  0  0
  -39.0793   -5.7150    7.3660 F   0  0  0  0  0  0  0  0  0  0  0  0
  -37.7612   -5.3482    5.4472 C   0  0  0  0  0  0  0  0  0  0  0  0
  -37.6537   -4.8343    4.1584 C   0  0  0  0  0  0  0  0  0  0  0  0
  -36.4850   -4.9705    3.5142 F   0  0  0  0  0  0  0  0  0  0  0  0
  -44.1676   -1.3857    1.3439 C   0  0  0  0  0  0  0  0  0  0  0  0
  -45.4941   -1.0322    1.0213 C   0  0  0  0  0  0  0  0  0  0  0  0
  -45.9696   -1.2252   -0.2648 C   0  0  0  0  0  0  0  0  0  0  0  0
  -45.2285   -1.7440   -1.2558 N   0  0  0  0  0  0  0  0  0  0  0  0
  -43.9514   -2.0801   -0.9435 C   0  0  0  0  0  0  0  0  0  0  0  0
  -43.3629   -1.9289    0.3181 C   0  0  0  0  0  0  0  0  0  0  0  0
  -40.3663   -0.1390    4.4578 C   0  0  0  0  0  0  0  0  0  0  0  0
  -41.8619   -0.4413    4.3585 C   0  0  0  0  0  0  0  0  0  0  0  0
  -42.2426   -1.6003    5.2887 C   0  0  0  0  0  0  0  0  0  0  0  0
  -43.7347   -1.9386    5.1974 C   0  0  0  0  0  0  0  0  0  0  0  0
  -44.0366   -3.0675    6.0770 N   0  0  0  0  0  0  0  0  0  0  0  0
  -44.1466   -2.2641    3.7556 C   0  0  0  0  0  0  0  0  0  0  0  0
  -43.7361   -1.1384    2.7873 C   0  0  0  0  0  0  0  0  0  0  0  0
  -42.2503   -0.7555    2.9071 C   0  0  0  0  0  0  0  0  0  0  0  0
  -43.5028   -3.8837    5.7782 H   0  0  0  0  0  0  0  0  0  0  0  0
  -45.0336   -3.2777    6.0304 H   0  0  0  0  0  0  0  0  0  0  0  0
 28 27  1  0
 28 29  1  0
 29 30  1  0
 30 31  1  0
 30 32  1  0
 32 33  1  0
 33 21  1  0
 21 22  2  0
 22 23  1  0
 23 24  2  0
 24 25  1  0
 25 26  2  0
 26  1  1  0
  1  2  1  0
  2  3  2  0
  2  5  1  0
  5  6  2  0
  6  7  1  0
  7  8  2  0
  8  9  1  0
  8 10  1  0
 10 12  1  0
 12 13  2  0
 13 14  1  0
 13 15  1  0
 15 16  2  0
 16 17  1  0
 16 18  1  0
 18 19  2  0
 19 20  1  0
 10 11  2  0
 33 34  1  0
 34 28  1  0
 26 21  1  0
 11  5  1  0
 19 12  1  0
 31 35  1  0
 31 36  1  0
  1  4  1  0
M  END
> <minimizedAffinity>
-11.62280

> <CNNscore>
0.2894178331

> <CNNaffinity>
7.8111457825

> <CNN_VS>
2.2606849670

> <CNNaffinity_variance>
0.2641382217

$$$$



 36 39  0  0  0  0  0  0  0  0999 V2000
  -42.5617   -2.0862    0.0606 N   0  0  0  0  0  0  0  0  0  0  0  0
  -41.6784   -2.3732   -0.9627 C   0  0  0  0  0  0  0  0  0  0  0  0
  -41.9374   -2.5008   -2.1521 O   0  0  0  0  0  0  0  0  0  0  0  0
  -42.1665   -2.0095    0.9591 H   0  0  0  0  0  0  0  0  0  0  0  0
  -40.2653   -2.5454   -0.4844 C   0  0  0  0  0  0  0  0  0  0  0  0
  -39.2073   -2.3698   -1.3714 C   0  0  0  0  0  0  0  0  0  0  0  0
  -37.9119   -2.5477   -0.8951 C   0  0  0  0  0  0  0  0  0  0  0  0
  -37.7256   -2.8901    0.4376 C   0  0  0  0  0  0  0  0  0  0  0  0
  -36.4808   -3.0591    0.9055 F   0  0  0  0  0  0  0  0  0  0  0  0
  -38.8345   -3.0468    1.2701 C   0  0  0  0  0  0  0  0  0  0  0  0
  -40.1128   -2.8841    0.8315 N   0  0  0  0  0  0  0  0  0  0  0  0
  -38.6861   -3.3827    2.6782 C   0  0  0  0  0  0  0  0  0  0  0  0
  -38.1007   -4.5911    3.0734 C   0  0  0  0  0  0  0  0  0  0  0  0
  -37.6602   -5.4568    2.1480 F   0  0  0  0  0  0  0  0  0  0  0  0
  -37.9536   -4.9280    4.4152 C   0  0  0  0  0  0  0  0  0  0  0  0
  -38.4008   -4.0415    5.3841 C   0  0  0  0  0  0  0  0  0  0  0  0
  -38.2669   -4.3578    6.6783 F   0  0  0  0  0  0  0  0  0  0  0  0
  -38.9890   -2.8338    5.0321 C   0  0  0  0  0  0  0  0  0  0  0  0
  -39.1267   -2.5154    3.6844 C   0  0  0  0  0  0  0  0  0  0  0  0
  -39.6868   -1.3399    3.3620 F   0  0  0  0  0  0  0  0  0  0  0  0
  -44.7086   -1.5997    1.1444 C   0  0  0  0  0  0  0  0  0  0  0  0
  -46.0975   -1.4048    0.9960 C   0  0  0  0  0  0  0  0  0  0  0  0
  -46.6813   -1.5031   -0.2557 C   0  0  0  0  0  0  0  0  0  0  0  0
  -45.9913   -1.7817   -1.3724 N   0  0  0  0  0  0  0  0  0  0  0  0
  -44.6547   -1.9654   -1.2272 C   0  0  0  0  0  0  0  0  0  0  0  0
  -43.9566   -1.8887   -0.0157 C   0  0  0  0  0  0  0  0  0  0  0  0
  -42.2797   -3.9080    4.9487 C   0  0  0  0  0  0  0  0  0  0  0  0
  -42.8751   -2.5892    4.4542 C   0  0  0  0  0  0  0  0  0  0  0  0
  -43.9236   -2.0643    5.4433 C   0  0  0  0  0  0  0  0  0  0  0  0
  -44.5519   -0.7507    4.9650 C   0  0  0  0  0  0  0  0  0  0  0  0
  -45.5641   -0.3125    5.9255 N   0  0  0  0  0  0  0  0  0  0  0  0
  -45.1741   -0.9040    3.5708 C   0  0  0  0  0  0  0  0  0  0  0  0
  -44.1581   -1.4740    2.5628 C   0  0  0  0  0  0  0  0  0  0  0  0
  -43.4834   -2.7663    3.0560 C   0  0  0  0  0  0  0  0  0  0  0  0
  -46.2996   -1.0164    5.9893 H   0  0  0  0  0  0  0  0  0  0  0  0
  -45.9663    0.5723    5.6159 H   0  0  0  0  0  0  0  0  0  0  0  0
 28 27  1  0
 28 29  1  0
 29 30  1  0
 30 31  1  0
 30 32  1  0
 32 33  1  0
 33 21  1  0
 21 22  2  0
 22 23  1  0
 23 24  2  0
 24 25  1  0
 25 26  2  0
 26  1  1  0
  1  2  1  0
  2  3  2  0
  2  5  1  0
  5  6  2  0
  6  7  1  0
  7  8  2  0
  8  9  1  0
  8 10  1  0
 10 12  1  0
 12 13  2  0
 13 14  1  0
 13 15  1  0
 15 16  2  0
 16 17  1  0
 16 18  1  0
 18 19  2  0
 19 20  1  0
 10 11  2  0
 33 34  1  0
 34 28  1  0
 26 21  1  0
 11  5  1  0
 19 12  1  0
 31 35  1  0
 31 36  1  0
  1  4  1  0
M  END
> <minimizedAffinity>
-10.49842

> <CNNscore>
0.1965930015

> <CNNaffinity>
7.7058200836

> <CNN_VS>
1.5149103403

> <CNNaffinity_variance>
0.3491607010

$$$$
