


 34 36  0  0  0  0  0  0  0  0999 V2000
    1.3333   28.5149    9.1887 C   0  0  0  0  0  0  0  0  0  0  0  0
    2.3024   27.5393    9.1083 C   0  0  0  0  0  0  0  0  0  0  0  0
    3.0493   27.3137    8.0093 N   0  0  0  0  0  0  0  0  0  0  0  0
    2.8184   28.1057    6.9547 C   0  0  0  0  0  0  0  0  0  0  0  0
    1.8882   29.0652    6.9329 N   0  0  0  0  0  0  0  0  0  0  0  0
    1.1384   29.2573    8.0338 C   0  0  0  0  0  0  0  0  0  0  0  0
    0.2085   30.3105    7.9639 N   0  0  0  0  0  0  0  0  0  0  0  0
    0.0983   30.8150    7.1257 H   0  0  0  0  0  0  0  0  0  0  0  0
   -0.3321   30.5431    8.7531 H   0  0  0  0  0  0  0  0  0  0  0  0
    0.5230   28.7199   10.4083 C   0  0  0  0  0  0  0  0  0  0  0  0
    1.0421   28.6474   11.5186 O   0  0  0  0  0  0  0  0  0  0  0  0
   -1.8526   27.9777   10.0710 C   0  0  0  0  0  0  0  0  0  0  0  0
   -3.2134   28.2955   10.0424 C   0  0  0  0  0  0  0  0  0  0  0  0
   -3.6254   29.6083   10.2759 C   0  0  0  0  0  0  0  0  0  0  0  0
   -4.9339   29.8934   10.2398 F   0  0  0  0  0  0  0  0  0  0  0  0
   -2.7026   30.6120   10.5349 C   0  0  0  0  0  0  0  0  0  0  0  0
   -3.1171   31.8691   10.7417 F   0  0  0  0  0  0  0  0  0  0  0  0
   -1.3500   30.3101   10.5637 C   0  0  0  0  0  0  0  0  0  0  0  0
   -0.4622   31.2915   10.7782 F   0  0  0  0  0  0  0  0  0  0  0  0
   -0.9222   29.0024   10.3285 C   0  0  0  0  0  0  0  0  0  0  0  0
   -1.6225   25.7268   10.8468 C   0  0  0  0  0  0  0  0  0  0  0  0
   -1.3415   26.7248    9.8697 O   0  0  0  0  0  0  0  0  0  0  0  0
    3.5588   27.9692    5.7875 N   0  0  0  0  0  0  0  0  0  0  0  0
    3.9176   28.7462    5.3009 H   0  0  0  0  0  0  0  0  0  0  0  0
    3.7711   26.5982    5.3281 C   0  0  0  0  0  0  0  0  0  0  0  0
    4.6751   25.8310    6.3078 C   0  0  0  0  0  0  0  0  0  0  0  0
    6.1274   25.8082    5.8528 C   0  0  0  0  0  0  0  0  0  0  0  0
    6.2496   25.1791    4.5182 N   0  0  0  0  0  0  0  0  0  0  0  0
    5.1036   25.3405    3.6013 C   0  0  0  0  0  0  0  0  0  0  0  0
    4.3680   26.6361    3.9126 C   0  0  0  0  0  0  0  0  0  0  0  0
    7.2250   23.8138    4.3420 S   0  0  0  0  0  0  0  0  0  0  0  0
    6.0682   22.6015    3.7354 C   0  0  0  0  0  0  0  0  0  0  0  0
    8.1791   24.0776    3.2863 O   0  0  0  0  0  0  0  0  0  0  0  0
    7.6539   23.3923    5.6579 O   0  0  0  0  0  0  0  0  0  0  0  0
 21 22  1  0
 22 12  1  0
 12 13  2  0
 13 14  1  0
 14 15  1  0
 14 16  2  0
 16 17  1  0
 16 18  1  0
 18 19  1  0
 18 20  2  0
 20 10  1  0
 10 11  2  0
 10  1  1  0
  1  2  2  0
  2  3  1  0
  3  4  2  0
  4 23  1  0
 23 25  1  0
 25 26  1  0
 26 27  1  0
 27 28  1  0
 28 31  1  0
 31 32  1  0
 31 33  2  0
 31 34  2  0
 28 29  1  0
 29 30  1  0
  4  5  1  0
  5  6  2  0
  6  7  1  0
 20 12  1  0
  6  1  1  0
 30 25  1  0
 23 24  1  0
  7  8  1  0
  7  9  1  0
M  END
> <minimizedAffinity>
-8.51761

> <CNNscore>
0.4094635248

> <CNNaffinity>
6.8114476204

> <CNN_VS>
2.7890393734

> <CNNaffinity_variance>
0.0747416243

$$$$



 34 36  0  0  0  0  0  0  0  0999 V2000
    0.8938   27.9386    8.4964 C   0  0  0  0  0  0  0  0  0  0  0  0
    1.1666   28.3067    7.1974 C   0  0  0  0  0  0  0  0  0  0  0  0
    2.4127   28.4193    6.6963 N   0  0  0  0  0  0  0  0  0  0  0  0
    3.4219   28.1420    7.5314 C   0  0  0  0  0  0  0  0  0  0  0  0
    3.2559   27.7949    8.8115 N   0  0  0  0  0  0  0  0  0  0  0  0
    2.0034   27.7113    9.2965 C   0  0  0  0  0  0  0  0  0  0  0  0
    1.8933   27.2983   10.6367 N   0  0  0  0  0  0  0  0  0  0  0  0
    2.7046   27.1469   11.1734 H   0  0  0  0  0  0  0  0  0  0  0  0
    1.0048   27.1605   11.0379 H   0  0  0  0  0  0  0  0  0  0  0  0
   -0.4882   27.8427    9.0131 C   0  0  0  0  0  0  0  0  0  0  0  0
   -1.1004   26.7798    8.9561 O   0  0  0  0  0  0  0  0  0  0  0  0
   -2.0480   28.8771   10.6879 C   0  0  0  0  0  0  0  0  0  0  0  0
   -2.6394   30.0247   11.2234 C   0  0  0  0  0  0  0  0  0  0  0  0
   -2.3476   31.2757   10.6781 C   0  0  0  0  0  0  0  0  0  0  0  0
   -2.9283   32.3631   11.2027 F   0  0  0  0  0  0  0  0  0  0  0  0
   -1.4772   31.4025    9.6046 C   0  0  0  0  0  0  0  0  0  0  0  0
   -1.2215   32.6109    9.0857 F   0  0  0  0  0  0  0  0  0  0  0  0
   -0.8859   30.2717    9.0632 C   0  0  0  0  0  0  0  0  0  0  0  0
   -0.0748   30.3981    8.0032 F   0  0  0  0  0  0  0  0  0  0  0  0
   -1.1706   29.0131    9.5953 C   0  0  0  0  0  0  0  0  0  0  0  0
   -1.7703   27.2886   12.4546 C   0  0  0  0  0  0  0  0  0  0  0  0
   -2.2529   27.6067   11.1525 O   0  0  0  0  0  0  0  0  0  0  0  0
    4.7400   28.2008    7.0978 N   0  0  0  0  0  0  0  0  0  0  0  0
    5.2952   29.0051    7.2168 H   0  0  0  0  0  0  0  0  0  0  0  0
    5.2500   26.9924    6.4534 C   0  0  0  0  0  0  0  0  0  0  0  0
    5.1898   27.1266    4.9223 C   0  0  0  0  0  0  0  0  0  0  0  0
    3.9521   26.4635    4.3351 C   0  0  0  0  0  0  0  0  0  0  0  0
    3.9159   25.0234    4.6768 N   0  0  0  0  0  0  0  0  0  0  0  0
    4.5264   24.6312    5.9627 C   0  0  0  0  0  0  0  0  0  0  0  0
    4.4404   25.7850    6.9516 C   0  0  0  0  0  0  0  0  0  0  0  0
    3.8819   23.8861    3.4310 S   0  0  0  0  0  0  0  0  0  0  0  0
    5.5522   23.9552    2.8137 C   0  0  0  0  0  0  0  0  0  0  0  0
    3.6855   22.5797    4.0218 O   0  0  0  0  0  0  0  0  0  0  0  0
    3.0078   24.3822    2.3904 O   0  0  0  0  0  0  0  0  0  0  0  0
 21 22  1  0
 22 12  1  0
 12 13  2  0
 13 14  1  0
 14 15  1  0
 14 16  2  0
 16 17  1  0
 16 18  1  0
 18 19  1  0
 18 20  2  0
 20 10  1  0
 10 11  2  0
 10  1  1  0
  1  2  2  0
  2  3  1  0
  3  4  2  0
  4 23  1  0
 23 25  1  0
 25 26  1  0
 26 27  1  0
 27 28  1  0
 28 31  1  0
 31 32  1  0
 31 33  2  0
 31 34  2  0
 28 29  1  0
 29 30  1  0
  4  5  1  0
  5  6  2  0
  6  7  1  0
 20 12  1  0
  6  1  1  0
 30 25  1  0
 23 24  1  0
  7  8  1  0
  7  9  1  0
M  END
> <minimizedAffinity>
-8.93334

> <CNNscore>
0.3576994836

> <CNNaffinity>
6.5787377357

> <CNN_VS>
2.3532111645

> <CNNaffinity_variance>
0.6666713357

$$$$



 34 36  0  0  0  0  0  0  0  0999 V2000
   -2.5028   29.5956    9.9529 C   0  0  0  0  0  0  0  0  0  0  0  0
   -2.1864   28.9851   11.1464 C   0  0  0  0  0  0  0  0  0  0  0  0
   -3.0023   28.1251   11.7878 N   0  0  0  0  0  0  0  0  0  0  0  0
   -4.1770   27.8628   11.2012 C   0  0  0  0  0  0  0  0  0  0  0  0
   -4.5783   28.4201   10.0545 N   0  0  0  0  0  0  0  0  0  0  0  0
   -3.7567   29.2935    9.4436 C   0  0  0  0  0  0  0  0  0  0  0  0
   -4.2164   29.8109    8.2188 N   0  0  0  0  0  0  0  0  0  0  0  0
   -5.1134   29.5734    7.8897 H   0  0  0  0  0  0  0  0  0  0  0  0
   -3.6411   30.4104    7.6907 H   0  0  0  0  0  0  0  0  0  0  0  0
   -1.5863   30.5468    9.2888 C   0  0  0  0  0  0  0  0  0  0  0  0
   -1.7387   31.7571    9.4289 O   0  0  0  0  0  0  0  0  0  0  0  0
   -0.1816   28.7039    8.3201 C   0  0  0  0  0  0  0  0  0  0  0  0
    0.8548   28.3098    7.4691 C   0  0  0  0  0  0  0  0  0  0  0  0
    1.5653   29.2706    6.7483 C   0  0  0  0  0  0  0  0  0  0  0  0
    2.5581   28.8729    5.9415 F   0  0  0  0  0  0  0  0  0  0  0  0
    1.2618   30.6199    6.8633 C   0  0  0  0  0  0  0  0  0  0  0  0
    1.9655   31.5282    6.1742 F   0  0  0  0  0  0  0  0  0  0  0  0
    0.2377   31.0237    7.7056 C   0  0  0  0  0  0  0  0  0  0  0  0
   -0.0256   32.3315    7.8396 F   0  0  0  0  0  0  0  0  0  0  0  0
   -0.4797   30.0749    8.4360 C   0  0  0  0  0  0  0  0  0  0  0  0
   -0.5508   26.4806    9.1214 C   0  0  0  0  0  0  0  0  0  0  0  0
   -0.9490   27.8471    9.0608 O   0  0  0  0  0  0  0  0  0  0  0  0
   -5.0717   26.9663   11.7712 N   0  0  0  0  0  0  0  0  0  0  0  0
   -6.0113   27.2031   11.9452 H   0  0  0  0  0  0  0  0  0  0  0  0
   -4.5289   25.6489   12.0962 C   0  0  0  0  0  0  0  0  0  0  0  0
   -5.5719   24.8012   12.8439 C   0  0  0  0  0  0  0  0  0  0  0  0
   -5.3703   24.8398   14.3520 C   0  0  0  0  0  0  0  0  0  0  0  0
   -4.0231   24.3445   14.7144 N   0  0  0  0  0  0  0  0  0  0  0  0
   -2.9438   24.5804   13.7348 C   0  0  0  0  0  0  0  0  0  0  0  0
   -3.2453   25.8309   12.9213 C   0  0  0  0  0  0  0  0  0  0  0  0
   -3.8884   23.0143   15.7436 S   0  0  0  0  0  0  0  0  0  0  0  0
   -4.3635   23.7063   17.3156 C   0  0  0  0  0  0  0  0  0  0  0  0
   -4.8987   22.0500   15.3646 O   0  0  0  0  0  0  0  0  0  0  0  0
   -2.4912   22.6487   15.8285 O   0  0  0  0  0  0  0  0  0  0  0  0
 21 22  1  0
 22 12  1  0
 12 13  2  0
 13 14  1  0
 14 15  1  0
 14 16  2  0
 16 17  1  0
 16 18  1  0
 18 19  1  0
 18 20  2  0
 20 10  1  0
 10 11  2  0
 10  1  1  0
  1  2  2  0
  2  3  1  0
  3  4  2  0
  4 23  1  0
 23 25  1  0
 25 26  1  0
 26 27  1  0
 27 28  1  0
 28 31  1  0
 31 32  1  0
 31 33  2  0
 31 34  2  0
 28 29  1  0
 29 30  1  0
  4  5  1  0
  5  6  2  0
  6  7  1  0
 20 12  1  0
  6  1  1  0
 30 25  1  0
 23 24  1  0
  7  8  1  0
  7  9  1  0
M  END
> <minimizedAffinity>
-9.17891

> <CNNscore>
0.2036013454

> <CNNaffinity>
6.0030441284

> <CNN_VS>
1.2222278118

> <CNNaffinity_variance>
0.9311992526

$$$$



 34 36  0  0  0  0  0  0  0  0999 V2000
   -1.0973   27.0992   10.4465 C   0  0  0  0  0  0  0  0  0  0  0  0
   -0.9841   25.8560    9.8642 C   0  0  0  0  0  0  0  0  0  0  0  0
   -0.3185   24.8251   10.4216 N   0  0  0  0  0  0  0  0  0  0  0  0
    0.2467   25.0512   11.6142 C   0  0  0  0  0  0  0  0  0  0  0  0
    0.2057   26.2277   12.2472 N   0  0  0  0  0  0  0  0  0  0  0  0
   -0.4449   27.2495   11.6609 C   0  0  0  0  0  0  0  0  0  0  0  0
   -0.4909   28.4475   12.3970 N   0  0  0  0  0  0  0  0  0  0  0  0
   -0.0146   28.5161   13.2558 H   0  0  0  0  0  0  0  0  0  0  0  0
   -0.9995   29.2172   12.0532 H   0  0  0  0  0  0  0  0  0  0  0  0
   -1.8227   28.2101    9.7943 C   0  0  0  0  0  0  0  0  0  0  0  0
   -3.0503   28.2392    9.8008 O   0  0  0  0  0  0  0  0  0  0  0  0
   -1.1593   30.6237    9.5872 C   0  0  0  0  0  0  0  0  0  0  0  0
   -0.4257   31.6107    8.9231 C   0  0  0  0  0  0  0  0  0  0  0  0
    0.3526   31.2709    7.8157 C   0  0  0  0  0  0  0  0  0  0  0  0
    1.0449   32.2323    7.1902 F   0  0  0  0  0  0  0  0  0  0  0  0
    0.4102   29.9626    7.3565 C   0  0  0  0  0  0  0  0  0  0  0  0
    1.1516   29.6592    6.2825 F   0  0  0  0  0  0  0  0  0  0  0  0
   -0.3145   28.9750    8.0051 C   0  0  0  0  0  0  0  0  0  0  0  0
   -0.2829   27.7202    7.5338 F   0  0  0  0  0  0  0  0  0  0  0  0
   -1.1005   29.2998    9.1119 C   0  0  0  0  0  0  0  0  0  0  0  0
   -2.4511   32.1586   10.8898 C   0  0  0  0  0  0  0  0  0  0  0  0
   -1.9420   30.8435   10.6875 O   0  0  0  0  0  0  0  0  0  0  0  0
    0.9281   24.0411   12.2809 N   0  0  0  0  0  0  0  0  0  0  0  0
    0.9718   23.9990   13.2635 H   0  0  0  0  0  0  0  0  0  0  0  0
    1.5759   23.0449   11.4303 C   0  0  0  0  0  0  0  0  0  0  0  0
    1.3196   21.6255   11.9644 C   0  0  0  0  0  0  0  0  0  0  0  0
    2.4782   21.1097   12.8059 C   0  0  0  0  0  0  0  0  0  0  0  0
    3.7314   21.0902   12.0180 N   0  0  0  0  0  0  0  0  0  0  0  0
    3.8720   22.1203   10.9696 C   0  0  0  0  0  0  0  0  0  0  0  0
    3.0777   23.3612   11.3511 C   0  0  0  0  0  0  0  0  0  0  0  0
    4.5480   19.6280   11.8133 S   0  0  0  0  0  0  0  0  0  0  0  0
    3.2335   18.5292   11.3230 C   0  0  0  0  0  0  0  0  0  0  0  0
    5.4454   19.7696   10.6868 O   0  0  0  0  0  0  0  0  0  0  0  0
    5.0255   19.1923   13.1076 O   0  0  0  0  0  0  0  0  0  0  0  0
 21 22  1  0
 22 12  1  0
 12 13  2  0
 13 14  1  0
 14 15  1  0
 14 16  2  0
 16 17  1  0
 16 18  1  0
 18 19  1  0
 18 20  2  0
 20 10  1  0
 10 11  2  0
 10  1  1  0
  1  2  2  0
  2  3  1  0
  3  4  2  0
  4 23  1  0
 23 25  1  0
 25 26  1  0
 26 27  1  0
 27 28  1  0
 28 31  1  0
 31 32  1  0
 31 33  2  0
 31 34  2  0
 28 29  1  0
 29 30  1  0
  4  5  1  0
  5  6  2  0
  6  7  1  0
 20 12  1  0
  6  1  1  0
 30 25  1  0
 23 24  1  0
  7  8  1  0
  7  9  1  0
M  END
> <minimizedAffinity>
-7.74980

> <CNNscore>
0.1567081362

> <CNNaffinity>
5.2511653900

> <CNN_VS>
0.8229003549

> <CNNaffinity_variance>
1.8888765574

$$$$



 34 36  0  0  0  0  0  0  0  0999 V2000
   -1.2687   28.6335   10.8980 C   0  0  0  0  0  0  0  0  0  0  0  0
   -2.3875   28.1164   10.2830 C   0  0  0  0  0  0  0  0  0  0  0  0
   -3.2004   27.2034   10.8506 N   0  0  0  0  0  0  0  0  0  0  0  0
   -2.8802   26.8026   12.0875 C   0  0  0  0  0  0  0  0  0  0  0  0
   -1.8061   27.2338   12.7559 N   0  0  0  0  0  0  0  0  0  0  0  0
   -0.9959   28.1281   12.1602 C   0  0  0  0  0  0  0  0  0  0  0  0
    0.0917   28.5764   12.9317 N   0  0  0  0  0  0  0  0  0  0  0  0
    0.2533   28.1933   13.8241 H   0  0  0  0  0  0  0  0  0  0  0  0
    0.6912   29.2732   12.5792 H   0  0  0  0  0  0  0  0  0  0  0  0
   -0.3924   29.6222   10.2343 C   0  0  0  0  0  0  0  0  0  0  0  0
   -0.4076   30.7992   10.5836 O   0  0  0  0  0  0  0  0  0  0  0  0
    1.4670   28.2130    9.3044 C   0  0  0  0  0  0  0  0  0  0  0  0
    2.2702   27.8566    8.2174 C   0  0  0  0  0  0  0  0  0  0  0  0
    2.1055   28.5016    6.9909 C   0  0  0  0  0  0  0  0  0  0  0  0
    2.8883   28.1486    5.9626 F   0  0  0  0  0  0  0  0  0  0  0  0
    1.1545   29.4993    6.8296 C   0  0  0  0  0  0  0  0  0  0  0  0
    1.0221   30.1170    5.6481 F   0  0  0  0  0  0  0  0  0  0  0  0
    0.3533   29.8634    7.9005 C   0  0  0  0  0  0  0  0  0  0  0  0
   -0.5380   30.8532    7.7475 F   0  0  0  0  0  0  0  0  0  0  0  0
    0.5085   29.2301    9.1347 C   0  0  0  0  0  0  0  0  0  0  0  0
    1.8492   26.2505   10.6175 C   0  0  0  0  0  0  0  0  0  0  0  0
    1.5349   27.6381   10.5440 O   0  0  0  0  0  0  0  0  0  0  0  0
   -3.6744   25.8872   12.7659 N   0  0  0  0  0  0  0  0  0  0  0  0
   -4.3629   26.1680   13.4112 H   0  0  0  0  0  0  0  0  0  0  0  0
   -3.4226   24.4804   12.4605 C   0  0  0  0  0  0  0  0  0  0  0  0
   -2.2303   23.9526   13.2763 C   0  0  0  0  0  0  0  0  0  0  0  0
   -0.9349   23.9680   12.4773 C   0  0  0  0  0  0  0  0  0  0  0  0
   -1.0625   23.1432   11.2544 N   0  0  0  0  0  0  0  0  0  0  0  0
   -2.4043   23.0666   10.6430 C   0  0  0  0  0  0  0  0  0  0  0  0
   -3.1875   24.3353   10.9488 C   0  0  0  0  0  0  0  0  0  0  0  0
   -0.0079   21.8461   11.0271 S   0  0  0  0  0  0  0  0  0  0  0  0
    0.9970   22.4128    9.6688 C   0  0  0  0  0  0  0  0  0  0  0  0
    0.8434   21.7506   12.1935 O   0  0  0  0  0  0  0  0  0  0  0  0
   -0.7785   20.7137   10.5612 O   0  0  0  0  0  0  0  0  0  0  0  0
 21 22  1  0
 22 12  1  0
 12 13  2  0
 13 14  1  0
 14 15  1  0
 14 16  2  0
 16 17  1  0
 16 18  1  0
 18 19  1  0
 18 20  2  0
 20 10  1  0
 10 11  2  0
 10  1  1  0
  1  2  2  0
  2  3  1  0
  3  4  2  0
  4 23  1  0
 23 25  1  0
 25 26  1  0
 26 27  1  0
 27 28  1  0
 28 31  1  0
 31 32  1  0
 31 33  2  0
 31 34  2  0
 28 29  1  0
 29 30  1  0
  4  5  1  0
  5  6  2  0
  6  7  1  0
 20 12  1  0
  6  1  1  0
 30 25  1  0
 23 24  1  0
  7  8  1  0
  7  9  1  0
M  END
> <minimizedAffinity>
-8.42125

> <CNNscore>
0.1379612833

> <CNNaffinity>
6.0146069527

> <CNN_VS>
0.8297829032

> <CNNaffinity_variance>
0.8092969060

$$$$



 34 36  0  0  0  0  0  0  0  0999 V2000
    1.2064   27.2859   10.0560 C   0  0  0  0  0  0  0  0  0  0  0  0
    0.9952   27.9712    8.8800 C   0  0  0  0  0  0  0  0  0  0  0  0
    1.9294   28.1172    7.9194 N   0  0  0  0  0  0  0  0  0  0  0  0
    3.1179   27.5440    8.1472 C   0  0  0  0  0  0  0  0  0  0  0  0
    3.4211   26.8757    9.2644 N   0  0  0  0  0  0  0  0  0  0  0  0
    2.4800   26.7625   10.2197 C   0  0  0  0  0  0  0  0  0  0  0  0
    2.8450   26.0100   11.3509 N   0  0  0  0  0  0  0  0  0  0  0  0
    3.7596   25.6546   11.4316 H   0  0  0  0  0  0  0  0  0  0  0  0
    2.1859   25.8389   12.0619 H   0  0  0  0  0  0  0  0  0  0  0  0
    0.1600   27.1624   11.0932 C   0  0  0  0  0  0  0  0  0  0  0  0
    0.3074   26.3891   12.0355 O   0  0  0  0  0  0  0  0  0  0  0  0
   -2.3364   27.3195   10.8664 C   0  0  0  0  0  0  0  0  0  0  0  0
   -3.4886   28.1103   10.8404 C   0  0  0  0  0  0  0  0  0  0  0  0
   -3.3839   29.4954   10.9753 C   0  0  0  0  0  0  0  0  0  0  0  0
   -4.4997   30.2361   10.9433 F   0  0  0  0  0  0  0  0  0  0  0  0
   -2.1482   30.1071   11.1330 C   0  0  0  0  0  0  0  0  0  0  0  0
   -2.0674   31.4396   11.2459 F   0  0  0  0  0  0  0  0  0  0  0  0
   -0.9979   29.3341   11.1581 C   0  0  0  0  0  0  0  0  0  0  0  0
    0.1950   29.9350   11.2740 F   0  0  0  0  0  0  0  0  0  0  0  0
   -1.0860   27.9479   11.0208 C   0  0  0  0  0  0  0  0  0  0  0  0
   -3.0421   25.2043   11.7320 C   0  0  0  0  0  0  0  0  0  0  0  0
   -2.3255   25.9559   10.7566 O   0  0  0  0  0  0  0  0  0  0  0  0
    4.1337   27.6145    7.2027 N   0  0  0  0  0  0  0  0  0  0  0  0
    4.9135   28.2048    7.3151 H   0  0  0  0  0  0  0  0  0  0  0  0
    3.9707   26.7561    6.0312 C   0  0  0  0  0  0  0  0  0  0  0  0
    4.7160   25.4247    6.2256 C   0  0  0  0  0  0  0  0  0  0  0  0
    6.0860   25.4303    5.5627 C   0  0  0  0  0  0  0  0  0  0  0  0
    5.9651   25.6870    4.1096 N   0  0  0  0  0  0  0  0  0  0  0  0
    4.8398   26.5401    3.6781 C   0  0  0  0  0  0  0  0  0  0  0  0
    4.4690   27.5117    4.7893 C   0  0  0  0  0  0  0  0  0  0  0  0
    6.5591   24.5413    3.0228 S   0  0  0  0  0  0  0  0  0  0  0  0
    8.1929   25.1633    2.6771 C   0  0  0  0  0  0  0  0  0  0  0  0
    6.7069   23.2871    3.7296 O   0  0  0  0  0  0  0  0  0  0  0  0
    5.7866   24.6329    1.8030 O   0  0  0  0  0  0  0  0  0  0  0  0
 21 22  1  0
 22 12  1  0
 12 13  2  0
 13 14  1  0
 14 15  1  0
 14 16  2  0
 16 17  1  0
 16 18  1  0
 18 19  1  0
 18 20  2  0
 20 10  1  0
 10 11  2  0
 10  1  1  0
  1  2  2  0
  2  3  1  0
  3  4  2  0
  4 23  1  0
 23 25  1  0
 25 26  1  0
 26 27  1  0
 27 28  1  0
 28 31  1  0
 31 32  1  0
 31 33  2  0
 31 34  2  0
 28 29  1  0
 29 30  1  0
  4  5  1  0
  5  6  2  0
  6  7  1  0
 20 12  1  0
  6  1  1  0
 30 25  1  0
 23 24  1  0
  7  8  1  0
  7  9  1  0
M  END
> <minimizedAffinity>
-8.30853

> <CNNscore>
0.1303947270

> <CNNaffinity>
6.3102183342

> <CNN_VS>
0.8228191733

> <CNNaffinity_variance>
0.2812540233

$$$$



 34 36  0  0  0  0  0  0  0  0999 V2000
    4.2275   25.8157    8.0305 C   0  0  0  0  0  0  0  0  0  0  0  0
    3.3900   24.9479    8.6960 C   0  0  0  0  0  0  0  0  0  0  0  0
    2.5697   25.3189    9.6990 N   0  0  0  0  0  0  0  0  0  0  0  0
    2.5863   26.6140   10.0389 C   0  0  0  0  0  0  0  0  0  0  0  0
    3.3770   27.5253    9.4637 N   0  0  0  0  0  0  0  0  0  0  0  0
    4.2047   27.1274    8.4799 C   0  0  0  0  0  0  0  0  0  0  0  0
    4.9780   28.1407    7.8847 N   0  0  0  0  0  0  0  0  0  0  0  0
    4.9351   29.0609    8.2320 H   0  0  0  0  0  0  0  0  0  0  0  0
    5.5621   27.9295    7.1208 H   0  0  0  0  0  0  0  0  0  0  0  0
    5.1254   25.3657    6.9455 C   0  0  0  0  0  0  0  0  0  0  0  0
    6.3430   25.4721    7.0625 O   0  0  0  0  0  0  0  0  0  0  0  0
    4.4531   23.4010    5.5327 C   0  0  0  0  0  0  0  0  0  0  0  0
    3.9054   22.9141    4.3425 C   0  0  0  0  0  0  0  0  0  0  0  0
    3.4984   23.8057    3.3491 C   0  0  0  0  0  0  0  0  0  0  0  0
    2.9801   23.3188    2.2137 F   0  0  0  0  0  0  0  0  0  0  0  0
    3.6308   25.1765    3.5205 C   0  0  0  0  0  0  0  0  0  0  0  0
    3.2479   26.0154    2.5487 F   0  0  0  0  0  0  0  0  0  0  0  0
    4.1745   25.6718    4.6954 C   0  0  0  0  0  0  0  0  0  0  0  0
    4.3331   26.9953    4.8390 F   0  0  0  0  0  0  0  0  0  0  0  0
    4.5897   24.7926    5.6969 C   0  0  0  0  0  0  0  0  0  0  0  0
    4.0387   21.5312    6.9656 C   0  0  0  0  0  0  0  0  0  0  0  0
    4.8712   22.6190    6.5744 O   0  0  0  0  0  0  0  0  0  0  0  0
    1.7539   27.0968   11.0404 N   0  0  0  0  0  0  0  0  0  0  0  0
    2.0834   27.2889   11.9480 H   0  0  0  0  0  0  0  0  0  0  0  0
    0.3576   27.3012   10.6606 C   0  0  0  0  0  0  0  0  0  0  0  0
    0.2409   28.4023    9.5930 C   0  0  0  0  0  0  0  0  0  0  0  0
   -0.1185   29.7526   10.1965 C   0  0  0  0  0  0  0  0  0  0  0  0
   -1.4039   29.6758   10.9270 N   0  0  0  0  0  0  0  0  0  0  0  0
   -1.7334   28.3810   11.5555 C   0  0  0  0  0  0  0  0  0  0  0  0
   -0.4547   27.6405   11.9202 C   0  0  0  0  0  0  0  0  0  0  0  0
   -2.6755   30.6795   10.4559 S   0  0  0  0  0  0  0  0  0  0  0  0
   -4.1024   29.6835   10.8404 C   0  0  0  0  0  0  0  0  0  0  0  0
   -2.6907   31.8275   11.3369 O   0  0  0  0  0  0  0  0  0  0  0  0
   -2.6210   30.8329    9.0183 O   0  0  0  0  0  0  0  0  0  0  0  0
 21 22  1  0
 22 12  1  0
 12 13  2  0
 13 14  1  0
 14 15  1  0
 14 16  2  0
 16 17  1  0
 16 18  1  0
 18 19  1  0
 18 20  2  0
 20 10  1  0
 10 11  2  0
 10  1  1  0
  1  2  2  0
  2  3  1  0
  3  4  2  0
  4 23  1  0
 23 25  1  0
 25 26  1  0
 26 27  1  0
 27 28  1  0
 28 31  1  0
 31 32  1  0
 31 33  2  0
 31 34  2  0
 28 29  1  0
 29 30  1  0
  4  5  1  0
  5  6  2  0
  6  7  1  0
 20 12  1  0
  6  1  1  0
 30 25  1  0
 23 24  1  0
  7  8  1  0
  7  9  1  0
M  END
> <minimizedAffinity>
-7.85401

> <CNNscore>
0.1250088960

> <CNNaffinity>
5.1253418922

> <CNN_VS>
0.6407133341

> <CNNaffinity_variance>
1.8560122252

$$$$



 34 36  0  0  0  0  0  0  0  0999 V2000
   -2.3861   27.8893   11.6651 C   0  0  0  0  0  0  0  0  0  0  0  0
   -3.6738   27.4518   11.4465 C   0  0  0  0  0  0  0  0  0  0  0  0
   -4.1715   26.3052   11.9507 N   0  0  0  0  0  0  0  0  0  0  0  0
   -3.3449   25.5762   12.7110 C   0  0  0  0  0  0  0  0  0  0  0  0
   -2.0755   25.9101   12.9635 N   0  0  0  0  0  0  0  0  0  0  0  0
   -1.5931   27.0478   12.4305 C   0  0  0  0  0  0  0  0  0  0  0  0
   -0.2655   27.3666   12.7695 N   0  0  0  0  0  0  0  0  0  0  0  0
    0.2665   26.7432   13.3151 H   0  0  0  0  0  0  0  0  0  0  0  0
    0.1316   28.2130   12.4611 H   0  0  0  0  0  0  0  0  0  0  0  0
   -1.8724   29.1461   11.0798 C   0  0  0  0  0  0  0  0  0  0  0  0
   -2.1068   30.2240   11.6191 O   0  0  0  0  0  0  0  0  0  0  0  0
   -0.7753   27.9424    9.1679 C   0  0  0  0  0  0  0  0  0  0  0  0
   -0.0533   28.0014    7.9725 C   0  0  0  0  0  0  0  0  0  0  0  0
    0.3417   29.2377    7.4597 C   0  0  0  0  0  0  0  0  0  0  0  0
    1.0368   29.2727    6.3150 F   0  0  0  0  0  0  0  0  0  0  0  0
    0.0313   30.4181    8.1203 C   0  0  0  0  0  0  0  0  0  0  0  0
    0.4325   31.5941    7.6194 F   0  0  0  0  0  0  0  0  0  0  0  0
   -0.6823   30.3728    9.3078 C   0  0  0  0  0  0  0  0  0  0  0  0
   -0.9467   31.5143    9.9593 F   0  0  0  0  0  0  0  0  0  0  0  0
   -1.0812   29.1436    9.8354 C   0  0  0  0  0  0  0  0  0  0  0  0
   -0.6270   25.5612    9.3397 C   0  0  0  0  0  0  0  0  0  0  0  0
   -1.2222   26.7884    9.7511 O   0  0  0  0  0  0  0  0  0  0  0  0
   -3.7767   24.3944   13.2992 N   0  0  0  0  0  0  0  0  0  0  0  0
   -4.2248   23.6857   12.7832 H   0  0  0  0  0  0  0  0  0  0  0  0
   -3.5232   24.2703   14.7331 C   0  0  0  0  0  0  0  0  0  0  0  0
   -2.7019   23.0046   15.0318 C   0  0  0  0  0  0  0  0  0  0  0  0
   -3.5788   21.8397   15.4685 C   0  0  0  0  0  0  0  0  0  0  0  0
   -4.3505   22.1898   16.6825 N   0  0  0  0  0  0  0  0  0  0  0  0
   -4.7289   23.6081   16.8419 C   0  0  0  0  0  0  0  0  0  0  0  0
   -4.8684   24.2650   15.4761 C   0  0  0  0  0  0  0  0  0  0  0  0
   -4.1582   21.2551   18.0738 S   0  0  0  0  0  0  0  0  0  0  0  0
   -4.4977   22.4328   19.3674 C   0  0  0  0  0  0  0  0  0  0  0  0
   -5.2109   20.2623   18.0960 O   0  0  0  0  0  0  0  0  0  0  0  0
   -2.7649   20.8791   18.1763 O   0  0  0  0  0  0  0  0  0  0  0  0
 21 22  1  0
 22 12  1  0
 12 13  2  0
 13 14  1  0
 14 15  1  0
 14 16  2  0
 16 17  1  0
 16 18  1  0
 18 19  1  0
 18 20  2  0
 20 10  1  0
 10 11  2  0
 10  1  1  0
  1  2  2  0
  2  3  1  0
  3  4  2  0
  4 23  1  0
 23 25  1  0
 25 26  1  0
 26 27  1  0
 27 28  1  0
 28 31  1  0
 31 32  1  0
 31 33  2  0
 31 34  2  0
 28 29  1  0
 29 30  1  0
  4  5  1  0
  5  6  2  0
  6  7  1  0
 20 12  1  0
  6  1  1  0
 30 25  1  0
 23 24  1  0
  7  8  1  0
  7  9  1  0
M  END
> <minimizedAffinity>
-9.70690

> <CNNscore>
0.1186579391

> <CNNaffinity>
5.5559458733

> <CNN_VS>
0.6592571139

> <CNNaffinity_variance>
1.1830449104

$$$$



 34 36  0  0  0  0  0  0  0  0999 V2000
    3.3764   27.4914    8.1958 C   0  0  0  0  0  0  0  0  0  0  0  0
    3.2420   26.7732    9.3634 C   0  0  0  0  0  0  0  0  0  0  0  0
    2.2548   26.9757   10.2585 N   0  0  0  0  0  0  0  0  0  0  0  0
    1.3642   27.9308    9.9626 C   0  0  0  0  0  0  0  0  0  0  0  0
    1.4231   28.6903    8.8644 N   0  0  0  0  0  0  0  0  0  0  0  0
    2.4308   28.4858    7.9961 C   0  0  0  0  0  0  0  0  0  0  0  0
    2.4122   29.2856    6.8389 N   0  0  0  0  0  0  0  0  0  0  0  0
    1.7246   29.9822    6.7330 H   0  0  0  0  0  0  0  0  0  0  0  0
    3.0868   29.1487    6.1351 H   0  0  0  0  0  0  0  0  0  0  0  0
    4.4842   27.2499    7.2469 C   0  0  0  0  0  0  0  0  0  0  0  0
    5.4978   27.9419    7.2860 O   0  0  0  0  0  0  0  0  0  0  0  0
    4.7018   24.8496    6.5401 C   0  0  0  0  0  0  0  0  0  0  0  0
    4.5703   23.8787    5.5433 C   0  0  0  0  0  0  0  0  0  0  0  0
    4.1383   24.2460    4.2682 C   0  0  0  0  0  0  0  0  0  0  0  0
    4.0230   23.3012    3.3255 F   0  0  0  0  0  0  0  0  0  0  0  0
    3.8374   25.5672    3.9681 C   0  0  0  0  0  0  0  0  0  0  0  0
    3.4385   25.9020    2.7337 F   0  0  0  0  0  0  0  0  0  0  0  0
    3.9659   26.5398    4.9473 C   0  0  0  0  0  0  0  0  0  0  0  0
    3.7088   27.8193    4.6401 F   0  0  0  0  0  0  0  0  0  0  0  0
    4.4004   26.1886    6.2264 C   0  0  0  0  0  0  0  0  0  0  0  0
    4.5613   23.4548    8.4781 C   0  0  0  0  0  0  0  0  0  0  0  0
    5.1032   24.5982    7.8235 O   0  0  0  0  0  0  0  0  0  0  0  0
    0.2944   28.1919   10.8090 N   0  0  0  0  0  0  0  0  0  0  0  0
    0.2194   29.0336   11.3141 H   0  0  0  0  0  0  0  0  0  0  0  0
   -0.7128   27.1371   10.9017 C   0  0  0  0  0  0  0  0  0  0  0  0
   -0.5869   26.3818   12.2357 C   0  0  0  0  0  0  0  0  0  0  0  0
    0.2070   25.0911   12.0932 C   0  0  0  0  0  0  0  0  0  0  0  0
   -0.4300   24.1891   11.1070 N   0  0  0  0  0  0  0  0  0  0  0  0
   -1.1614   24.8309    9.9965 C   0  0  0  0  0  0  0  0  0  0  0  0
   -0.5576   26.1955    9.6972 C   0  0  0  0  0  0  0  0  0  0  0  0
   -0.9180   22.6508   11.5990 S   0  0  0  0  0  0  0  0  0  0  0  0
   -2.2892   23.0184   12.6762 C   0  0  0  0  0  0  0  0  0  0  0  0
   -1.4416   21.9554   10.4429 O   0  0  0  0  0  0  0  0  0  0  0  0
    0.1363   22.0800   12.4087 O   0  0  0  0  0  0  0  0  0  0  0  0
 21 22  1  0
 22 12  1  0
 12 13  2  0
 13 14  1  0
 14 15  1  0
 14 16  2  0
 16 17  1  0
 16 18  1  0
 18 19  1  0
 18 20  2  0
 20 10  1  0
 10 11  2  0
 10  1  1  0
  1  2  2  0
  2  3  1  0
  3  4  2  0
  4 23  1  0
 23 25  1  0
 25 26  1  0
 26 27  1  0
 27 28  1  0
 28 31  1  0
 31 32  1  0
 31 33  2  0
 31 34  2  0
 28 29  1  0
 29 30  1  0
  4  5  1  0
  5  6  2  0
  6  7  1  0
 20 12  1  0
  6  1  1  0
 30 25  1  0
 23 24  1  0
  7  8  1  0
  7  9  1  0
M  END
> <minimizedAffinity>
-8.02898

> <CNNscore>
0.1063811034

> <CNNaffinity>
5.5487141609

> <CNN_VS>
0.5902783275

> <CNNaffinity_variance>
0.7892058492

$$$$
