


 22 22  0  0  0  0  0  0  0  0999 V2000
    6.2686  -13.2176    3.7478 C   0  0  0  0  0  0  0  0  0  0  0  0
    6.5637  -13.9575    2.4070 C   0  0  0  0  0  0  0  0  0  0  0  0
    5.2614  -14.4691    1.7325 C   0  0  0  0  0  0  0  0  0  0  0  0
    5.5127  -15.2709    0.5643 O   0  0  0  0  0  0  0  0  0  0  0  0
    4.2941  -13.3722    1.2617 C   0  0  0  0  0  0  0  0  0  0  0  0
    3.9324  -12.3392    2.2254 N   0  0  0  0  0  0  0  0  0  0  0  0
    4.9700  -11.3155    2.4673 C   0  0  0  0  0  0  0  0  0  0  0  0
    5.9782  -11.6994    3.5923 C   0  0  0  0  0  0  0  0  0  0  0  0
    5.9146  -14.7201   -0.1256 H   0  0  0  0  0  0  0  0  0  0  0  0
    3.7252  -12.7949    3.1141 H   0  0  0  0  0  0  0  0  0  0  0  0
    7.4982  -15.0789    2.6802 N   0  0  0  0  0  0  0  0  0  0  0  0
    7.0793  -16.2984    3.1452 C   0  0  0  0  0  0  0  0  0  0  0  0
    8.1297  -17.3739    3.1318 C   0  0  0  0  0  0  0  0  0  0  0  0
    5.9353  -16.4934    3.5479 O   0  0  0  0  0  0  0  0  0  0  0  0
    8.4598  -14.9405    2.5204 H   0  0  0  0  0  0  0  0  0  0  0  0
    5.6773  -10.7559    1.2089 C   0  0  0  0  0  0  0  0  0  0  0  0
    6.8433  -10.0260    1.5807 O   0  0  0  0  0  0  0  0  0  0  0  0
    6.5917   -9.2841    2.1526 H   0  0  0  0  0  0  0  0  0  0  0  0
    8.3603  -12.3105    4.5772 C   0  0  0  0  0  0  0  0  0  0  0  0
    7.4624  -13.4139    4.5768 O   0  0  0  0  0  0  0  0  0  0  0  0
    5.4406  -11.2418    4.8638 O   0  0  0  0  0  0  0  0  0  0  0  0
    6.3155  -10.3421    5.5392 C   0  0  0  0  0  0  0  0  0  0  0  0
 19 20  1  0
  1 20  1  0
  1  2  1  0
  2 11  1  0
 11 12  1  0
 12 13  1  0
 12 14  2  0
  2  3  1  0
  3  4  1  0
  3  5  1  0
  5  6  1  0
  6  7  1  0
  7 16  1  0
 16 17  1  0
  7  8  1  0
  8 21  1  0
 21 22  1  0
  8  1  1  0
 11 15  1  0
  4  9  1  0
  6 10  1  0
 17 18  1  0
M  END
> <minimizedAffinity>
-6.03068

> <CNNscore>
0.3684939742

> <CNNaffinity>
4.6457104683

> <CNN_VS>
1.7119163275

> <CNNaffinity_variance>
0.5261416435

$$$$



 22 22  0  0  0  0  0  0  0  0999 V2000
    9.5581  -21.1148   10.8198 C   0  0  0  0  0  0  0  0  0  0  0  0
    8.9388  -20.1619   11.8878 C   0  0  0  0  0  0  0  0  0  0  0  0
    9.8970  -19.9445   13.0909 C   0  0  0  0  0  0  0  0  0  0  0  0
    9.2992  -19.1788   14.1525 O   0  0  0  0  0  0  0  0  0  0  0  0
   11.2063  -19.2120   12.7603 C   0  0  0  0  0  0  0  0  0  0  0  0
   11.9907  -19.7150   11.6385 N   0  0  0  0  0  0  0  0  0  0  0  0
   11.4650  -19.3716   10.3010 C   0  0  0  0  0  0  0  0  0  0  0  0
   10.4309  -20.4004    9.7515 C   0  0  0  0  0  0  0  0  0  0  0  0
    9.1283  -18.2755   13.8430 H   0  0  0  0  0  0  0  0  0  0  0  0
   12.0296  -20.7317   11.7110 H   0  0  0  0  0  0  0  0  0  0  0  0
    7.6420  -20.7305   12.3354 N   0  0  0  0  0  0  0  0  0  0  0  0
    7.5473  -21.6786   13.3208 C   0  0  0  0  0  0  0  0  0  0  0  0
    6.1491  -21.9534   13.8001 C   0  0  0  0  0  0  0  0  0  0  0  0
    8.5297  -22.2626   13.7711 O   0  0  0  0  0  0  0  0  0  0  0  0
    6.8149  -20.4130   11.9060 H   0  0  0  0  0  0  0  0  0  0  0  0
   10.9970  -17.9081   10.1113 C   0  0  0  0  0  0  0  0  0  0  0  0
   11.9020  -17.2056    9.2638 O   0  0  0  0  0  0  0  0  0  0  0  0
   12.7845  -17.2009    9.6664 H   0  0  0  0  0  0  0  0  0  0  0  0
    7.9738  -21.1340    8.9825 C   0  0  0  0  0  0  0  0  0  0  0  0
    8.4191  -21.7739   10.1725 O   0  0  0  0  0  0  0  0  0  0  0  0
   11.1553  -21.4395    9.0369 O   0  0  0  0  0  0  0  0  0  0  0  0
   12.0707  -20.9132    8.0799 C   0  0  0  0  0  0  0  0  0  0  0  0
 19 20  1  0
  1 20  1  0
  1  2  1  0
  2 11  1  0
 11 12  1  0
 12 13  1  0
 12 14  2  0
  2  3  1  0
  3  4  1  0
  3  5  1  0
  5  6  1  0
  6  7  1  0
  7 16  1  0
 16 17  1  0
  7  8  1  0
  8 21  1  0
 21 22  1  0
  8  1  1  0
 11 15  1  0
  4  9  1  0
  6 10  1  0
 17 18  1  0
M  END
> <minimizedAffinity>
-4.65187

> <CNNscore>
0.2918347120

> <CNNaffinity>
2.5824191570

> <CNN_VS>
0.7536395788

> <CNNaffinity_variance>
1.6637578011

$$$$



 22 22  0  0  0  0  0  0  0  0999 V2000
    9.8835  -21.1462    9.5591 C   0  0  0  0  0  0  0  0  0  0  0  0
   11.1135  -20.5945    8.7748 C   0  0  0  0  0  0  0  0  0  0  0  0
   11.1206  -19.0418    8.7324 C   0  0  0  0  0  0  0  0  0  0  0  0
   12.1685  -18.5084    7.9028 O   0  0  0  0  0  0  0  0  0  0  0  0
   11.2997  -18.3511   10.0930 C   0  0  0  0  0  0  0  0  0  0  0  0
   10.4227  -18.7731   11.1791 N   0  0  0  0  0  0  0  0  0  0  0  0
   10.7676  -20.0704   11.7963 C   0  0  0  0  0  0  0  0  0  0  0  0
   10.1118  -21.2947   11.0886 C   0  0  0  0  0  0  0  0  0  0  0  0
   13.0303  -18.7205    8.2942 H   0  0  0  0  0  0  0  0  0  0  0  0
    9.4739  -18.8409   10.8108 H   0  0  0  0  0  0  0  0  0  0  0  0
   11.0961  -21.1648    7.4037 N   0  0  0  0  0  0  0  0  0  0  0  0
   12.2357  -21.5394    6.7406 C   0  0  0  0  0  0  0  0  0  0  0  0
   12.0029  -22.3116    5.4718 C   0  0  0  0  0  0  0  0  0  0  0  0
   13.3595  -21.2586    7.1495 O   0  0  0  0  0  0  0  0  0  0  0  0
   10.2289  -21.2788    6.9517 H   0  0  0  0  0  0  0  0  0  0  0  0
   12.2685  -20.3000   12.0991 C   0  0  0  0  0  0  0  0  0  0  0  0
   13.0378  -19.1838   11.6601 O   0  0  0  0  0  0  0  0  0  0  0  0
   12.9266  -19.0708   10.7031 H   0  0  0  0  0  0  0  0  0  0  0  0
    8.2739  -22.5924    8.4620 C   0  0  0  0  0  0  0  0  0  0  0  0
    9.5963  -22.4577    8.9689 O   0  0  0  0  0  0  0  0  0  0  0  0
    8.8069  -21.5245   11.6881 O   0  0  0  0  0  0  0  0  0  0  0  0
    7.8601  -20.5149   11.3485 C   0  0  0  0  0  0  0  0  0  0  0  0
 19 20  1  0
  1 20  1  0
  1  2  1  0
  2 11  1  0
 11 12  1  0
 12 13  1  0
 12 14  2  0
  2  3  1  0
  3  4  1  0
  3  5  1  0
  5  6  1  0
  6  7  1  0
  7 16  1  0
 16 17  1  0
  7  8  1  0
  8 21  1  0
 21 22  1  0
  8  1  1  0
 11 15  1  0
  4  9  1  0
  6 10  1  0
 17 18  1  0
M  END
> <minimizedAffinity>
-3.64749

> <CNNscore>
0.2812876105

> <CNNaffinity>
2.9689776897

> <CNN_VS>
0.8351366520

> <CNNaffinity_variance>
0.9072341919

$$$$



 22 22  0  0  0  0  0  0  0  0999 V2000
    5.9225  -15.6663    0.7894 C   0  0  0  0  0  0  0  0  0  0  0  0
    6.6097  -14.5652    1.6541 C   0  0  0  0  0  0  0  0  0  0  0  0
    6.3989  -14.8104    3.1733 C   0  0  0  0  0  0  0  0  0  0  0  0
    6.9063  -13.7396    3.9898 O   0  0  0  0  0  0  0  0  0  0  0  0
    7.0593  -16.0816    3.7285 C   0  0  0  0  0  0  0  0  0  0  0  0
    6.8011  -17.3327    3.0251 N   0  0  0  0  0  0  0  0  0  0  0  0
    7.5423  -17.5051    1.7586 C   0  0  0  0  0  0  0  0  0  0  0  0
    6.8075  -16.9139    0.5175 C   0  0  0  0  0  0  0  0  0  0  0  0
    7.8719  -13.6993    3.9066 H   0  0  0  0  0  0  0  0  0  0  0  0
    5.8038  -17.3775    2.8160 H   0  0  0  0  0  0  0  0  0  0  0  0
    6.0735  -13.2409    1.2487 N   0  0  0  0  0  0  0  0  0  0  0  0
    4.8025  -12.8289    1.5545 C   0  0  0  0  0  0  0  0  0  0  0  0
    4.5241  -11.3786    1.2729 C   0  0  0  0  0  0  0  0  0  0  0  0
    3.9556  -13.5895    2.0163 O   0  0  0  0  0  0  0  0  0  0  0  0
    6.6560  -12.6329    0.7385 H   0  0  0  0  0  0  0  0  0  0  0  0
    9.0419  -17.1219    1.7925 C   0  0  0  0  0  0  0  0  0  0  0  0
    9.6349  -17.5535    3.0142 O   0  0  0  0  0  0  0  0  0  0  0  0
    9.1868  -17.1250    3.7602 H   0  0  0  0  0  0  0  0  0  0  0  0
    6.5910  -15.1030   -1.4737 C   0  0  0  0  0  0  0  0  0  0  0  0
    5.5786  -15.0139   -0.4782 O   0  0  0  0  0  0  0  0  0  0  0  0
    5.9321  -17.9396   -0.0272 O   0  0  0  0  0  0  0  0  0  0  0  0
    6.5953  -19.1875   -0.2115 C   0  0  0  0  0  0  0  0  0  0  0  0
 19 20  1  0
  1 20  1  0
  1  2  1  0
  2 11  1  0
 11 12  1  0
 12 13  1  0
 12 14  2  0
  2  3  1  0
  3  4  1  0
  3  5  1  0
  5  6  1  0
  6  7  1  0
  7 16  1  0
 16 17  1  0
  7  8  1  0
  8 21  1  0
 21 22  1  0
  8  1  1  0
 11 15  1  0
  4  9  1  0
  6 10  1  0
 17 18  1  0
M  END
> <minimizedAffinity>
-5.25355

> <CNNscore>
0.2599081695

> <CNNaffinity>
3.1950209141

> <CNN_VS>
0.8304120302

> <CNNaffinity_variance>
1.3191403151

$$$$



 22 22  0  0  0  0  0  0  0  0999 V2000
   11.2583  -20.8754   11.7758 C   0  0  0  0  0  0  0  0  0  0  0  0
   11.5468  -19.4740   11.1550 C   0  0  0  0  0  0  0  0  0  0  0  0
   10.2845  -18.5690   11.1637 C   0  0  0  0  0  0  0  0  0  0  0  0
   10.4850  -17.3206   10.4766 O   0  0  0  0  0  0  0  0  0  0  0  0
    9.7694  -18.1781   12.5573 C   0  0  0  0  0  0  0  0  0  0  0  0
    9.5661  -19.2525   13.5221 N   0  0  0  0  0  0  0  0  0  0  0  0
   10.7997  -19.7896   14.1326 C   0  0  0  0  0  0  0  0  0  0  0  0
   11.4502  -20.9469   13.3157 C   0  0  0  0  0  0  0  0  0  0  0  0
   11.1387  -16.7887   10.9567 H   0  0  0  0  0  0  0  0  0  0  0  0
    9.0899  -20.0187   13.0460 H   0  0  0  0  0  0  0  0  0  0  0  0
   12.0571  -19.6636    9.7733 N   0  0  0  0  0  0  0  0  0  0  0  0
   11.2319  -19.8696    8.6985 C   0  0  0  0  0  0  0  0  0  0  0  0
   11.9106  -19.7994    7.3589 C   0  0  0  0  0  0  0  0  0  0  0  0
   10.0318  -20.1007    8.8228 O   0  0  0  0  0  0  0  0  0  0  0  0
   13.0298  -19.6403    9.6229 H   0  0  0  0  0  0  0  0  0  0  0  0
   11.8391  -18.7405   14.5972 C   0  0  0  0  0  0  0  0  0  0  0  0
   11.8854  -18.6870   16.0204 O   0  0  0  0  0  0  0  0  0  0  0  0
   11.0137  -18.4349   16.3630 H   0  0  0  0  0  0  0  0  0  0  0  0
   13.4551  -21.9048   11.7518 C   0  0  0  0  0  0  0  0  0  0  0  0
   12.1875  -21.7976   11.1148 O   0  0  0  0  0  0  0  0  0  0  0  0
   10.8629  -22.2028   13.7548 O   0  0  0  0  0  0  0  0  0  0  0  0
    9.5884  -22.4494   13.1666 C   0  0  0  0  0  0  0  0  0  0  0  0
 19 20  1  0
  1 20  1  0
  1  2  1  0
  2 11  1  0
 11 12  1  0
 12 13  1  0
 12 14  2  0
  2  3  1  0
  3  4  1  0
  3  5  1  0
  5  6  1  0
  6  7  1  0
  7 16  1  0
 16 17  1  0
  7  8  1  0
  8 21  1  0
 21 22  1  0
  8  1  1  0
 11 15  1  0
  4  9  1  0
  6 10  1  0
 17 18  1  0
M  END
> <minimizedAffinity>
-4.66400

> <CNNscore>
0.2341582030

> <CNNaffinity>
2.8701419830

> <CNN_VS>
0.6720672846

> <CNNaffinity_variance>
1.0902501345

$$$$



 22 22  0  0  0  0  0  0  0  0999 V2000
    8.3791  -17.9497   -1.2177 C   0  0  0  0  0  0  0  0  0  0  0  0
    8.4933  -17.1881   -2.5739 C   0  0  0  0  0  0  0  0  0  0  0  0
    7.3774  -17.6111   -3.5681 C   0  0  0  0  0  0  0  0  0  0  0  0
    7.5371  -17.0250   -4.8726 O   0  0  0  0  0  0  0  0  0  0  0  0
    5.9476  -17.2464   -3.1403 C   0  0  0  0  0  0  0  0  0  0  0  0
    5.5311  -17.6324   -1.7970 N   0  0  0  0  0  0  0  0  0  0  0  0
    6.0679  -16.7911   -0.7074 C   0  0  0  0  0  0  0  0  0  0  0  0
    7.4534  -17.2662   -0.1740 C   0  0  0  0  0  0  0  0  0  0  0  0
    7.4227  -16.0637   -4.8114 H   0  0  0  0  0  0  0  0  0  0  0  0
    5.8370  -18.5919   -1.6351 H   0  0  0  0  0  0  0  0  0  0  0  0
    9.8404  -17.4393   -3.1466 N   0  0  0  0  0  0  0  0  0  0  0  0
   10.5323  -16.4948   -3.8593 C   0  0  0  0  0  0  0  0  0  0  0  0
   11.9649  -16.8468   -4.1490 C   0  0  0  0  0  0  0  0  0  0  0  0
   10.0175  -15.4455   -4.2375 O   0  0  0  0  0  0  0  0  0  0  0  0
   10.2541  -18.3219   -3.0084 H   0  0  0  0  0  0  0  0  0  0  0  0
    6.0216  -15.2620   -0.9453 C   0  0  0  0  0  0  0  0  0  0  0  0
    5.0203  -14.6644   -0.1262 O   0  0  0  0  0  0  0  0  0  0  0  0
    4.1542  -15.0407   -0.3480 H   0  0  0  0  0  0  0  0  0  0  0  0
   10.1100  -16.9463    0.1546 C   0  0  0  0  0  0  0  0  0  0  0  0
    9.7467  -18.0287   -0.6941 O   0  0  0  0  0  0  0  0  0  0  0  0
    7.2272  -18.2357    0.8862 O   0  0  0  0  0  0  0  0  0  0  0  0
    7.1077  -19.5686    0.3962 C   0  0  0  0  0  0  0  0  0  0  0  0
 19 20  1  0
  1 20  1  0
  1  2  1  0
  2 11  1  0
 11 12  1  0
 12 13  1  0
 12 14  2  0
  2  3  1  0
  3  4  1  0
  3  5  1  0
  5  6  1  0
  6  7  1  0
  7 16  1  0
 16 17  1  0
  7  8  1  0
  8 21  1  0
 21 22  1  0
  8  1  1  0
 11 15  1  0
  4  9  1  0
  6 10  1  0
 17 18  1  0
M  END
> <minimizedAffinity>
-4.04871

> <CNNscore>
0.2168883830

> <CNNaffinity>
3.2018568516

> <CNN_VS>
0.6944455504

> <CNNaffinity_variance>
0.4977948964

$$$$



 22 22  0  0  0  0  0  0  0  0999 V2000
   11.5631  -20.7180   11.0442 C   0  0  0  0  0  0  0  0  0  0  0  0
   10.8380  -20.3201    9.7221 C   0  0  0  0  0  0  0  0  0  0  0  0
    9.4955  -21.0820    9.5494 C   0  0  0  0  0  0  0  0  0  0  0  0
    8.8708  -20.8357    8.2766 O   0  0  0  0  0  0  0  0  0  0  0  0
    8.4170  -20.7519   10.5926 C   0  0  0  0  0  0  0  0  0  0  0  0
    8.8013  -20.8190   11.9978 N   0  0  0  0  0  0  0  0  0  0  0  0
    9.6122  -19.6827   12.4817 C   0  0  0  0  0  0  0  0  0  0  0  0
   11.1458  -19.8782   12.2828 C   0  0  0  0  0  0  0  0  0  0  0  0
    8.6026  -19.9051    8.2228 H   0  0  0  0  0  0  0  0  0  0  0  0
    9.3403  -21.6737   12.1373 H   0  0  0  0  0  0  0  0  0  0  0  0
   11.7518  -20.5854    8.5819 N   0  0  0  0  0  0  0  0  0  0  0  0
   11.8994  -19.7179    7.5310 C   0  0  0  0  0  0  0  0  0  0  0  0
   13.0366  -20.0396    6.6018 C   0  0  0  0  0  0  0  0  0  0  0  0
   11.1544  -18.7563    7.3595 O   0  0  0  0  0  0  0  0  0  0  0  0
   12.2738  -21.4201    8.5808 H   0  0  0  0  0  0  0  0  0  0  0  0
    9.1368  -18.2754   12.0453 C   0  0  0  0  0  0  0  0  0  0  0  0
   10.1844  -17.5881   11.3666 O   0  0  0  0  0  0  0  0  0  0  0  0
   10.9447  -17.4898   11.9609 H   0  0  0  0  0  0  0  0  0  0  0  0
   13.7993  -21.6552   11.1300 C   0  0  0  0  0  0  0  0  0  0  0  0
   12.9939  -20.5364   10.7785 O   0  0  0  0  0  0  0  0  0  0  0  0
   11.6751  -20.5620   13.4521 O   0  0  0  0  0  0  0  0  0  0  0  0
   11.3112  -19.9246   14.6737 C   0  0  0  0  0  0  0  0  0  0  0  0
 19 20  1  0
  1 20  1  0
  1  2  1  0
  2 11  1  0
 11 12  1  0
 12 13  1  0
 12 14  2  0
  2  3  1  0
  3  4  1  0
  3  5  1  0
  5  6  1  0
  6  7  1  0
  7 16  1  0
 16 17  1  0
  7  8  1  0
  8 21  1  0
 21 22  1  0
  8  1  1  0
 11 15  1  0
  4  9  1  0
  6 10  1  0
 17 18  1  0
M  END
> <minimizedAffinity>
-3.86578

> <CNNscore>
0.2125279158

> <CNNaffinity>
2.8215177059

> <CNN_VS>
0.5996512771

> <CNNaffinity_variance>
0.8570386767

$$$$



 22 22  0  0  0  0  0  0  0  0999 V2000
    7.2481  -18.6501   -1.6188 C   0  0  0  0  0  0  0  0  0  0  0  0
    5.6932  -18.5288   -1.6238 C   0  0  0  0  0  0  0  0  0  0  0  0
    5.1377  -18.1819   -0.2153 C   0  0  0  0  0  0  0  0  0  0  0  0
    3.6998  -18.1958   -0.1607 O   0  0  0  0  0  0  0  0  0  0  0  0
    5.5432  -16.8025    0.3263 C   0  0  0  0  0  0  0  0  0  0  0  0
    6.9611  -16.4626    0.2995 N   0  0  0  0  0  0  0  0  0  0  0  0
    7.4931  -16.0936   -1.0286 C   0  0  0  0  0  0  0  0  0  0  0  0
    7.9969  -17.3109   -1.8617 C   0  0  0  0  0  0  0  0  0  0  0  0
    3.3482  -17.4826   -0.7162 H   0  0  0  0  0  0  0  0  0  0  0  0
    7.4858  -17.2697    0.6367 H   0  0  0  0  0  0  0  0  0  0  0  0
    5.1198  -19.8044   -2.1234 N   0  0  0  0  0  0  0  0  0  0  0  0
    4.2140  -19.8595   -3.1506 C   0  0  0  0  0  0  0  0  0  0  0  0
    3.9335  -21.2417   -3.6714 C   0  0  0  0  0  0  0  0  0  0  0  0
    3.6692  -18.8564   -3.6045 O   0  0  0  0  0  0  0  0  0  0  0  0
    5.4024  -20.6464   -1.6986 H   0  0  0  0  0  0  0  0  0  0  0  0
    6.6181  -15.1291   -1.8659 C   0  0  0  0  0  0  0  0  0  0  0  0
    7.2743  -14.8004   -3.0873 O   0  0  0  0  0  0  0  0  0  0  0  0
    8.1195  -14.3657   -2.8935 H   0  0  0  0  0  0  0  0  0  0  0  0
    7.8085  -19.0007   -3.9531 C   0  0  0  0  0  0  0  0  0  0  0  0
    7.5721  -19.6025   -2.6859 O   0  0  0  0  0  0  0  0  0  0  0  0
    9.3939  -17.5443   -1.5313 O   0  0  0  0  0  0  0  0  0  0  0  0
   10.2432  -16.4786   -1.9481 C   0  0  0  0  0  0  0  0  0  0  0  0
 19 20  1  0
  1 20  1  0
  1  2  1  0
  2 11  1  0
 11 12  1  0
 12 13  1  0
 12 14  2  0
  2  3  1  0
  3  4  1  0
  3  5  1  0
  5  6  1  0
  6  7  1  0
  7 16  1  0
 16 17  1  0
  7  8  1  0
  8 21  1  0
 21 22  1  0
  8  1  1  0
 11 15  1  0
  4  9  1  0
  6 10  1  0
 17 18  1  0
M  END
> <minimizedAffinity>
-4.36270

> <CNNscore>
0.2108947784

> <CNNaffinity>
3.1485474110

> <CNN_VS>
0.6640121937

> <CNNaffinity_variance>
0.4770062864

$$$$



 22 22  0  0  0  0  0  0  0  0999 V2000
   10.2937  -21.3520   11.6457 C   0  0  0  0  0  0  0  0  0  0  0  0
    9.1728  -20.2708   11.5640 C   0  0  0  0  0  0  0  0  0  0  0  0
    9.6509  -18.9017   12.1206 C   0  0  0  0  0  0  0  0  0  0  0  0
    8.5980  -17.9228   12.1818 O   0  0  0  0  0  0  0  0  0  0  0  0
   10.7756  -18.2271   11.3204 C   0  0  0  0  0  0  0  0  0  0  0  0
   11.9534  -19.0300   11.0125 N   0  0  0  0  0  0  0  0  0  0  0  0
   11.7751  -20.0144    9.9251 C   0  0  0  0  0  0  0  0  0  0  0  0
   11.2361  -21.3938   10.4113 C   0  0  0  0  0  0  0  0  0  0  0  0
    8.3074  -17.7039   11.2827 H   0  0  0  0  0  0  0  0  0  0  0  0
   12.2197  -19.5367   11.8567 H   0  0  0  0  0  0  0  0  0  0  0  0
    7.9847  -20.7625   12.3071 N   0  0  0  0  0  0  0  0  0  0  0  0
    6.8612  -21.2369   11.6815 C   0  0  0  0  0  0  0  0  0  0  0  0
    5.8687  -21.9081   12.5895 C   0  0  0  0  0  0  0  0  0  0  0  0
    6.6782  -21.1155   10.4728 O   0  0  0  0  0  0  0  0  0  0  0  0
    8.0050  -20.7472   13.2913 H   0  0  0  0  0  0  0  0  0  0  0  0
   11.0363  -19.5053    8.6635 C   0  0  0  0  0  0  0  0  0  0  0  0
   11.9151  -18.7259    7.8567 O   0  0  0  0  0  0  0  0  0  0  0  0
   12.2275  -17.9610    8.3649 H   0  0  0  0  0  0  0  0  0  0  0  0
   10.0173  -23.4132   12.8951 C   0  0  0  0  0  0  0  0  0  0  0  0
    9.5949  -22.6340   11.7823 O   0  0  0  0  0  0  0  0  0  0  0  0
   12.3718  -22.2253   10.7774 O   0  0  0  0  0  0  0  0  0  0  0  0
   13.6224  -21.5882   10.5299 C   0  0  0  0  0  0  0  0  0  0  0  0
 19 20  1  0
  1 20  1  0
  1  2  1  0
  2 11  1  0
 11 12  1  0
 12 13  1  0
 12 14  2  0
  2  3  1  0
  3  4  1  0
  3  5  1  0
  5  6  1  0
  6  7  1  0
  7 16  1  0
 16 17  1  0
  7  8  1  0
  8 21  1  0
 21 22  1  0
  8  1  1  0
 11 15  1  0
  4  9  1  0
  6 10  1  0
 17 18  1  0
M  END
> <minimizedAffinity>
-4.31635

> <CNNscore>
0.1962261349

> <CNNaffinity>
2.7362754345

> <CNN_VS>
0.5369287729

> <CNNaffinity_variance>
1.0910811424

$$$$
