


 31 31  0  0  0  0  0  0  0  0999 V2000
   36.4709   41.7336   -4.0927 C   0  0  0  0  0  0  0  0  0  0  0  0
   35.1277   41.7758   -6.1783 C   0  0  0  0  0  0  0  0  0  0  0  0
   35.0464   43.0014   -6.1640 O   0  0  0  0  0  0  0  0  0  0  0  0
   35.6929   41.0636   -5.1385 N   0  0  0  0  0  0  0  0  0  0  0  0
   35.5709   40.0875   -5.0992 H   0  0  0  0  0  0  0  0  0  0  0  0
   34.6539   40.9102   -7.3580 C   0  0  0  0  0  0  0  0  0  0  0  0
   34.0006   39.3083   -6.7554 S   0  0  0  0  0  0  0  0  0  0  0  0
   32.9122   39.5291   -5.9703 H   0  0  0  0  0  0  0  0  0  0  0  0
   33.6743   41.6482   -8.2875 C   0  0  0  0  0  0  0  0  0  0  0  0
   33.5093   41.0730   -9.7052 C   0  0  0  0  0  0  0  0  0  0  0  0
   33.0744   42.1321  -10.7239 C   0  0  0  0  0  0  0  0  0  0  0  0
   32.9828   44.6187  -11.2967 C   0  0  0  0  0  0  0  0  0  0  0  0
   33.3974   43.5623  -10.2844 C   0  0  0  0  0  0  0  0  0  0  0  0
   37.6704   40.8112   -3.7812 C   0  0  0  0  0  0  0  0  0  0  0  0
   38.7214   41.2411   -3.3034 O   0  0  0  0  0  0  0  0  0  0  0  0
   37.4897   39.4800   -4.0895 N   0  0  0  0  0  0  0  0  0  0  0  0
   36.6158   39.1681   -4.4185 H   0  0  0  0  0  0  0  0  0  0  0  0
   38.5887   38.5282   -3.9308 C   0  0  0  0  0  0  0  0  0  0  0  0
   38.3553   37.6558   -2.7060 C   0  0  0  0  0  0  0  0  0  0  0  0
   38.7120   37.6485   -5.1764 C   0  0  0  0  0  0  0  0  0  0  0  0
   39.7427   37.3280   -5.7494 O   0  0  0  0  0  0  0  0  0  0  0  0
   37.5155   37.2493   -5.6563 O   0  0  0  0  0  0  0  0  0  0  0  0
   36.7272   37.4969   -5.2144 H   0  0  0  0  0  0  0  0  0  0  0  0
   35.5988   41.9608   -2.8490 C   0  0  0  0  0  0  0  0  0  0  0  0
   36.3165   42.6618   -1.7169 C   0  0  0  0  0  0  0  0  0  0  0  0
   36.7177   44.0010   -1.8490 C   0  0  0  0  0  0  0  0  0  0  0  0
   37.3926   44.6416   -0.8090 C   0  0  0  0  0  0  0  0  0  0  0  0
   37.6616   43.9479    0.3642 C   0  0  0  0  0  0  0  0  0  0  0  0
   38.3134   44.5624    1.3598 F   0  0  0  0  0  0  0  0  0  0  0  0
   37.2643   42.6261    0.5184 C   0  0  0  0  0  0  0  0  0  0  0  0
   36.5871   41.9841   -0.5191 C   0  0  0  0  0  0  0  0  0  0  0  0
 12 13  1  0
 13 11  1  0
 11 10  1  0
 10  9  1  0
  9  6  1  0
  6  7  1  0
  6  2  1  0
  2  3  2  0
  2  4  1  0
  4  1  1  0
  1 24  1  0
 24 25  1  0
 25 26  2  0
 26 27  1  0
 27 28  2  0
 28 29  1  0
 28 30  1  0
 30 31  2  0
  1 14  1  0
 14 15  2  0
 14 16  1  0
 16 18  1  0
 18 19  1  0
 18 20  1  0
 20 21  2  0
 20 22  1  0
 31 25  1  0
  7  8  1  0
  4  5  1  0
 16 17  1  0
 22 23  1  0
M  END
> <minimizedAffinity>
-8.53863

> <CNNscore>
0.8432323337

> <CNNaffinity>
7.3901710510

> <CNN_VS>
6.2316312790

> <CNNaffinity_variance>
0.0601244867

$$$$



 31 31  0  0  0  0  0  0  0  0999 V2000
   32.7518   43.4010  -10.6973 C   0  0  0  0  0  0  0  0  0  0  0  0
   33.6250   42.7625   -8.4644 C   0  0  0  0  0  0  0  0  0  0  0  0
   32.5860   43.1000   -7.9028 O   0  0  0  0  0  0  0  0  0  0  0  0
   33.8436   42.9937   -9.8085 N   0  0  0  0  0  0  0  0  0  0  0  0
   34.7500   42.8828  -10.1765 H   0  0  0  0  0  0  0  0  0  0  0  0
   34.7670   42.0168   -7.7537 C   0  0  0  0  0  0  0  0  0  0  0  0
   35.0020   42.6709   -6.0588 S   0  0  0  0  0  0  0  0  0  0  0  0
   33.8765   42.4507   -5.3278 H   0  0  0  0  0  0  0  0  0  0  0  0
   34.5987   40.4876   -7.7905 C   0  0  0  0  0  0  0  0  0  0  0  0
   34.2071   39.8735   -9.1461 C   0  0  0  0  0  0  0  0  0  0  0  0
   33.6886   38.4374   -9.0147 C   0  0  0  0  0  0  0  0  0  0  0  0
   32.3234   37.6164   -7.0192 C   0  0  0  0  0  0  0  0  0  0  0  0
   32.3120   38.3500   -8.3512 C   0  0  0  0  0  0  0  0  0  0  0  0
   32.2786   42.1221  -11.4232 C   0  0  0  0  0  0  0  0  0  0  0  0
   33.0004   41.5115  -12.2131 O   0  0  0  0  0  0  0  0  0  0  0  0
   30.9906   41.7220  -11.1394 N   0  0  0  0  0  0  0  0  0  0  0  0
   30.4660   42.2058  -10.4612 H   0  0  0  0  0  0  0  0  0  0  0  0
   30.3986   40.5828  -11.8398 C   0  0  0  0  0  0  0  0  0  0  0  0
   29.4432   39.8384  -10.9186 C   0  0  0  0  0  0  0  0  0  0  0  0
   29.6498   41.0580  -13.0865 C   0  0  0  0  0  0  0  0  0  0  0  0
   30.1389   41.3682  -14.1626 O   0  0  0  0  0  0  0  0  0  0  0  0
   28.3176   41.1525  -12.8932 O   0  0  0  0  0  0  0  0  0  0  0  0
   27.9460   40.9138  -12.0668 H   0  0  0  0  0  0  0  0  0  0  0  0
   33.2476   44.4611  -11.6919 C   0  0  0  0  0  0  0  0  0  0  0  0
   32.3749   44.6060  -12.9189 C   0  0  0  0  0  0  0  0  0  0  0  0
   30.9898   44.7972  -12.7891 C   0  0  0  0  0  0  0  0  0  0  0  0
   30.1844   44.9161  -13.9226 C   0  0  0  0  0  0  0  0  0  0  0  0
   30.7617   44.8501  -15.1844 C   0  0  0  0  0  0  0  0  0  0  0  0
   29.9870   44.9597  -16.2713 F   0  0  0  0  0  0  0  0  0  0  0  0
   32.1308   44.6717  -15.3340 C   0  0  0  0  0  0  0  0  0  0  0  0
   32.9387   44.5549  -14.2021 C   0  0  0  0  0  0  0  0  0  0  0  0
 12 13  1  0
 13 11  1  0
 11 10  1  0
 10  9  1  0
  9  6  1  0
  6  7  1  0
  6  2  1  0
  2  3  2  0
  2  4  1  0
  4  1  1  0
  1 24  1  0
 24 25  1  0
 25 26  2  0
 26 27  1  0
 27 28  2  0
 28 29  1  0
 28 30  1  0
 30 31  2  0
  1 14  1  0
 14 15  2  0
 14 16  1  0
 16 18  1  0
 18 19  1  0
 18 20  1  0
 20 21  2  0
 20 22  1  0
 31 25  1  0
  7  8  1  0
  4  5  1  0
 16 17  1  0
 22 23  1  0
M  END
> <minimizedAffinity>
-6.28166

> <CNNscore>
0.8145216107

> <CNNaffinity>
6.1180310249

> <CNN_VS>
4.9832682610

> <CNNaffinity_variance>
0.0149374614

$$$$



 31 31  0  0  0  0  0  0  0  0999 V2000
   36.8176   40.3888   -3.9260 C   0  0  0  0  0  0  0  0  0  0  0  0
   35.4769   40.0883   -5.9919 C   0  0  0  0  0  0  0  0  0  0  0  0
   35.7662   38.8970   -6.0698 O   0  0  0  0  0  0  0  0  0  0  0  0
   36.0482   40.9244   -5.0525 N   0  0  0  0  0  0  0  0  0  0  0  0
   35.9363   41.8985   -5.1413 H   0  0  0  0  0  0  0  0  0  0  0  0
   34.4292   40.7650   -6.8917 C   0  0  0  0  0  0  0  0  0  0  0  0
   34.5980   42.5874   -6.8125 S   0  0  0  0  0  0  0  0  0  0  0  0
   35.8179   42.9509   -7.2911 H   0  0  0  0  0  0  0  0  0  0  0  0
   34.4353   40.2222   -8.3317 C   0  0  0  0  0  0  0  0  0  0  0  0
   33.3850   39.1477   -8.6637 C   0  0  0  0  0  0  0  0  0  0  0  0
   33.9783   37.9604   -9.4298 C   0  0  0  0  0  0  0  0  0  0  0  0
   34.2033   35.4226   -9.2601 C   0  0  0  0  0  0  0  0  0  0  0  0
   34.2865   36.7570   -8.5355 C   0  0  0  0  0  0  0  0  0  0  0  0
   37.4527   41.6035   -3.2134 C   0  0  0  0  0  0  0  0  0  0  0  0
   38.6672   41.8101   -3.2265 O   0  0  0  0  0  0  0  0  0  0  0  0
   36.5707   42.4287   -2.5497 N   0  0  0  0  0  0  0  0  0  0  0  0
   35.6027   42.2594   -2.6094 H   0  0  0  0  0  0  0  0  0  0  0  0
   37.0642   43.5545   -1.7573 C   0  0  0  0  0  0  0  0  0  0  0  0
   35.9224   44.5040   -1.4254 C   0  0  0  0  0  0  0  0  0  0  0  0
   37.7098   43.0504   -0.4651 C   0  0  0  0  0  0  0  0  0  0  0  0
   37.1448   42.5154    0.4773 O   0  0  0  0  0  0  0  0  0  0  0  0
   39.0379   43.2850   -0.4169 O   0  0  0  0  0  0  0  0  0  0  0  0
   39.4678   43.6953   -1.1413 H   0  0  0  0  0  0  0  0  0  0  0  0
   37.8886   39.4123   -4.4344 C   0  0  0  0  0  0  0  0  0  0  0  0
   38.4861   38.5404   -3.3523 C   0  0  0  0  0  0  0  0  0  0  0  0
   39.8240   38.1216   -3.4331 C   0  0  0  0  0  0  0  0  0  0  0  0
   40.3693   37.3052   -2.4413 C   0  0  0  0  0  0  0  0  0  0  0  0
   39.5816   36.9121   -1.3667 C   0  0  0  0  0  0  0  0  0  0  0  0
   40.1047   36.1249   -0.4178 F   0  0  0  0  0  0  0  0  0  0  0  0
   38.2593   37.3238   -1.2631 C   0  0  0  0  0  0  0  0  0  0  0  0
   37.7124   38.1421   -2.2524 C   0  0  0  0  0  0  0  0  0  0  0  0
 12 13  1  0
 13 11  1  0
 11 10  1  0
 10  9  1  0
  9  6  1  0
  6  7  1  0
  6  2  1  0
  2  3  2  0
  2  4  1  0
  4  1  1  0
  1 24  1  0
 24 25  1  0
 25 26  2  0
 26 27  1  0
 27 28  2  0
 28 29  1  0
 28 30  1  0
 30 31  2  0
  1 14  1  0
 14 15  2  0
 14 16  1  0
 16 18  1  0
 18 19  1  0
 18 20  1  0
 20 21  2  0
 20 22  1  0
 31 25  1  0
  7  8  1  0
  4  5  1  0
 16 17  1  0
 22 23  1  0
M  END
> <minimizedAffinity>
-6.19132

> <CNNscore>
0.7136839628

> <CNNaffinity>
6.9798665047

> <CNN_VS>
4.9814186096

> <CNNaffinity_variance>
0.3498636484

$$$$



 31 31  0  0  0  0  0  0  0  0999 V2000
   32.5402   38.4013   -8.7363 C   0  0  0  0  0  0  0  0  0  0  0  0
   32.9989   40.8296   -8.9575 C   0  0  0  0  0  0  0  0  0  0  0  0
   32.8070   40.8094  -10.1706 O   0  0  0  0  0  0  0  0  0  0  0  0
   33.0176   39.6773   -8.1961 N   0  0  0  0  0  0  0  0  0  0  0  0
   33.3580   39.7138   -7.2731 H   0  0  0  0  0  0  0  0  0  0  0  0
   33.1955   42.1260   -8.1536 C   0  0  0  0  0  0  0  0  0  0  0  0
   34.9161   42.2416   -7.5354 S   0  0  0  0  0  0  0  0  0  0  0  0
   35.7735   42.3011   -8.5895 H   0  0  0  0  0  0  0  0  0  0  0  0
   32.7465   43.3816   -8.9218 C   0  0  0  0  0  0  0  0  0  0  0  0
   33.6112   43.7944  -10.1259 C   0  0  0  0  0  0  0  0  0  0  0  0
   32.7777   44.0798  -11.3797 C   0  0  0  0  0  0  0  0  0  0  0  0
   32.6353   46.4398  -12.3441 C   0  0  0  0  0  0  0  0  0  0  0  0
   33.4072   45.1304  -12.2979 C   0  0  0  0  0  0  0  0  0  0  0  0
   33.6988   37.8219   -9.5780 C   0  0  0  0  0  0  0  0  0  0  0  0
   33.6197   37.6912  -10.8004 O   0  0  0  0  0  0  0  0  0  0  0  0
   34.8180   37.4468   -8.8664 N   0  0  0  0  0  0  0  0  0  0  0  0
   34.8625   37.6185   -7.8980 H   0  0  0  0  0  0  0  0  0  0  0  0
   35.9399   36.7952   -9.5414 C   0  0  0  0  0  0  0  0  0  0  0  0
   36.9307   37.8375  -10.0390 C   0  0  0  0  0  0  0  0  0  0  0  0
   36.6427   35.8275   -8.5874 C   0  0  0  0  0  0  0  0  0  0  0  0
   37.8260   35.5220   -8.5923 O   0  0  0  0  0  0  0  0  0  0  0  0
   35.7995   35.2653   -7.6964 O   0  0  0  0  0  0  0  0  0  0  0  0
   34.8928   35.5019   -7.6956 H   0  0  0  0  0  0  0  0  0  0  0  0
   31.2832   38.6261   -9.5898 C   0  0  0  0  0  0  0  0  0  0  0  0
   30.1408   37.6926   -9.2560 C   0  0  0  0  0  0  0  0  0  0  0  0
   28.9419   37.7450   -9.9852 C   0  0  0  0  0  0  0  0  0  0  0  0
   27.8837   36.8929   -9.6663 C   0  0  0  0  0  0  0  0  0  0  0  0
   28.0242   35.9851   -8.6241 C   0  0  0  0  0  0  0  0  0  0  0  0
   27.0064   35.1710   -8.3160 F   0  0  0  0  0  0  0  0  0  0  0  0
   29.2053   35.9105   -7.8974 C   0  0  0  0  0  0  0  0  0  0  0  0
   30.2657   36.7599   -8.2159 C   0  0  0  0  0  0  0  0  0  0  0  0
 12 13  1  0
 13 11  1  0
 11 10  1  0
 10  9  1  0
  9  6  1  0
  6  7  1  0
  6  2  1  0
  2  3  2  0
  2  4  1  0
  4  1  1  0
  1 24  1  0
 24 25  1  0
 25 26  2  0
 26 27  1  0
 27 28  2  0
 28 29  1  0
 28 30  1  0
 30 31  2  0
  1 14  1  0
 14 15  2  0
 14 16  1  0
 16 18  1  0
 18 19  1  0
 18 20  1  0
 20 21  2  0
 20 22  1  0
 31 25  1  0
  7  8  1  0
  4  5  1  0
 16 17  1  0
 22 23  1  0
M  END
> <minimizedAffinity>
-5.63172

> <CNNscore>
0.5871238708

> <CNNaffinity>
5.8702635765

> <CNN_VS>
3.4465718269

> <CNNaffinity_variance>
0.1019426063

$$$$



 31 31  0  0  0  0  0  0  0  0999 V2000
   36.7544   40.5125   -3.9484 C   0  0  0  0  0  0  0  0  0  0  0  0
   35.4226   40.1404   -6.0085 C   0  0  0  0  0  0  0  0  0  0  0  0
   35.7114   38.9470   -6.0433 O   0  0  0  0  0  0  0  0  0  0  0  0
   35.9902   41.0087   -5.0964 N   0  0  0  0  0  0  0  0  0  0  0  0
   35.8794   41.9791   -5.2198 H   0  0  0  0  0  0  0  0  0  0  0  0
   34.3792   40.7858   -6.9361 C   0  0  0  0  0  0  0  0  0  0  0  0
   34.5320   42.6109   -6.9003 S   0  0  0  0  0  0  0  0  0  0  0  0
   35.7542   42.9729   -7.3745 H   0  0  0  0  0  0  0  0  0  0  0  0
   34.4058   40.2076   -8.3620 C   0  0  0  0  0  0  0  0  0  0  0  0
   33.6263   40.9899   -9.4336 C   0  0  0  0  0  0  0  0  0  0  0  0
   33.1430   40.0962  -10.5808 C   0  0  0  0  0  0  0  0  0  0  0  0
   33.0010   42.3781  -11.7177 C   0  0  0  0  0  0  0  0  0  0  0  0
   32.7822   40.8787  -11.8459 C   0  0  0  0  0  0  0  0  0  0  0  0
   37.3542   41.7545   -3.2526 C   0  0  0  0  0  0  0  0  0  0  0  0
   38.2337   42.4393   -3.7774 O   0  0  0  0  0  0  0  0  0  0  0  0
   36.8504   42.0331   -2.0003 N   0  0  0  0  0  0  0  0  0  0  0  0
   36.1097   41.4940   -1.6398 H   0  0  0  0  0  0  0  0  0  0  0  0
   37.4096   43.1249   -1.2041 C   0  0  0  0  0  0  0  0  0  0  0  0
   36.4871   44.3342   -1.2495 C   0  0  0  0  0  0  0  0  0  0  0  0
   37.6047   42.6774    0.2458 C   0  0  0  0  0  0  0  0  0  0  0  0
   38.2450   43.2546    1.1121 O   0  0  0  0  0  0  0  0  0  0  0  0
   37.0074   41.4976    0.5148 O   0  0  0  0  0  0  0  0  0  0  0  0
   36.5172   41.0579   -0.1518 H   0  0  0  0  0  0  0  0  0  0  0  0
   37.8522   39.5482   -4.4215 C   0  0  0  0  0  0  0  0  0  0  0  0
   38.0476   38.3512   -3.5175 C   0  0  0  0  0  0  0  0  0  0  0  0
   37.9777   38.4935   -2.1223 C   0  0  0  0  0  0  0  0  0  0  0  0
   38.1726   37.3906   -1.2896 C   0  0  0  0  0  0  0  0  0  0  0  0
   38.4313   36.1457   -1.8492 C   0  0  0  0  0  0  0  0  0  0  0  0
   38.6228   35.0891   -1.0489 F   0  0  0  0  0  0  0  0  0  0  0  0
   38.4944   35.9821   -3.2269 C   0  0  0  0  0  0  0  0  0  0  0  0
   38.2974   37.0829   -4.0617 C   0  0  0  0  0  0  0  0  0  0  0  0
 12 13  1  0
 13 11  1  0
 11 10  1  0
 10  9  1  0
  9  6  1  0
  6  7  1  0
  6  2  1  0
  2  3  2  0
  2  4  1  0
  4  1  1  0
  1 24  1  0
 24 25  1  0
 25 26  2  0
 26 27  1  0
 27 28  2  0
 28 29  1  0
 28 30  1  0
 30 31  2  0
  1 14  1  0
 14 15  2  0
 14 16  1  0
 16 18  1  0
 18 19  1  0
 18 20  1  0
 20 21  2  0
 20 22  1  0
 31 25  1  0
  7  8  1  0
  4  5  1  0
 16 17  1  0
 22 23  1  0
M  END
> <minimizedAffinity>
-6.87866

> <CNNscore>
0.5865671635

> <CNNaffinity>
6.8033499718

> <CNN_VS>
3.9906218052

> <CNNaffinity_variance>
0.2400079817

$$$$



 31 31  0  0  0  0  0  0  0  0999 V2000
   37.2088   40.3916   -3.3385 C   0  0  0  0  0  0  0  0  0  0  0  0
   36.0064   40.0416   -5.4804 C   0  0  0  0  0  0  0  0  0  0  0  0
   36.4198   38.8897   -5.5854 O   0  0  0  0  0  0  0  0  0  0  0  0
   36.4433   40.8922   -4.4836 N   0  0  0  0  0  0  0  0  0  0  0  0
   36.2365   41.8529   -4.5435 H   0  0  0  0  0  0  0  0  0  0  0  0
   34.9391   40.6454   -6.4087 C   0  0  0  0  0  0  0  0  0  0  0  0
   35.0166   42.4752   -6.3690 S   0  0  0  0  0  0  0  0  0  0  0  0
   36.2237   42.8882   -6.8401 H   0  0  0  0  0  0  0  0  0  0  0  0
   34.9921   40.0717   -7.8357 C   0  0  0  0  0  0  0  0  0  0  0  0
   33.8119   40.4213   -8.7593 C   0  0  0  0  0  0  0  0  0  0  0  0
   32.7577   39.3104   -8.8146 C   0  0  0  0  0  0  0  0  0  0  0  0
   30.4611   38.6044   -9.6790 C   0  0  0  0  0  0  0  0  0  0  0  0
   31.5502   39.6657   -9.6857 C   0  0  0  0  0  0  0  0  0  0  0  0
   37.3993   41.5899   -2.3824 C   0  0  0  0  0  0  0  0  0  0  0  0
   38.4654   42.2022   -2.3028 O   0  0  0  0  0  0  0  0  0  0  0  0
   36.3021   41.9154   -1.6144 N   0  0  0  0  0  0  0  0  0  0  0  0
   35.4522   41.4366   -1.7475 H   0  0  0  0  0  0  0  0  0  0  0  0
   36.3929   42.9678   -0.6029 C   0  0  0  0  0  0  0  0  0  0  0  0
   37.5754   42.7095    0.3192 C   0  0  0  0  0  0  0  0  0  0  0  0
   36.5482   44.3345   -1.2727 C   0  0  0  0  0  0  0  0  0  0  0  0
   37.5918   44.9355   -1.4805 O   0  0  0  0  0  0  0  0  0  0  0  0
   35.3656   44.8890   -1.6121 O   0  0  0  0  0  0  0  0  0  0  0  0
   34.5674   44.4253   -1.4513 H   0  0  0  0  0  0  0  0  0  0  0  0
   38.5578   39.8288   -3.8101 C   0  0  0  0  0  0  0  0  0  0  0  0
   39.0364   38.6357   -3.0129 C   0  0  0  0  0  0  0  0  0  0  0  0
   40.3354   38.1336   -3.1931 C   0  0  0  0  0  0  0  0  0  0  0  0
   40.7702   37.0238   -2.4672 C   0  0  0  0  0  0  0  0  0  0  0  0
   39.9113   36.4193   -1.5580 C   0  0  0  0  0  0  0  0  0  0  0  0
   40.3282   35.3516   -0.8653 F   0  0  0  0  0  0  0  0  0  0  0  0
   38.6264   36.9069   -1.3578 C   0  0  0  0  0  0  0  0  0  0  0  0
   38.1900   38.0179   -2.0806 C   0  0  0  0  0  0  0  0  0  0  0  0
 12 13  1  0
 13 11  1  0
 11 10  1  0
 10  9  1  0
  9  6  1  0
  6  7  1  0
  6  2  1  0
  2  3  2  0
  2  4  1  0
  4  1  1  0
  1 24  1  0
 24 25  1  0
 25 26  2  0
 26 27  1  0
 27 28  2  0
 28 29  1  0
 28 30  1  0
 30 31  2  0
  1 14  1  0
 14 15  2  0
 14 16  1  0
 16 18  1  0
 18 19  1  0
 18 20  1  0
 20 21  2  0
 20 22  1  0
 31 25  1  0
  7  8  1  0
  4  5  1  0
 16 17  1  0
 22 23  1  0
M  END
> <minimizedAffinity>
-7.13245

> <CNNscore>
0.5218351483

> <CNNaffinity>
6.6219863892

> <CNN_VS>
3.4555852413

> <CNNaffinity_variance>
0.0003727828

$$$$



 31 31  0  0  0  0  0  0  0  0999 V2000
   33.2983   41.3600  -10.0107 C   0  0  0  0  0  0  0  0  0  0  0  0
   31.5844   39.6097  -10.4045 C   0  0  0  0  0  0  0  0  0  0  0  0
   32.2845   39.0363  -11.2352 O   0  0  0  0  0  0  0  0  0  0  0  0
   31.9441   40.8230   -9.8508 N   0  0  0  0  0  0  0  0  0  0  0  0
   31.2781   41.3367   -9.3391 H   0  0  0  0  0  0  0  0  0  0  0  0
   30.2670   39.0295   -9.8632 C   0  0  0  0  0  0  0  0  0  0  0  0
   28.8507   39.6065  -10.8716 S   0  0  0  0  0  0  0  0  0  0  0  0
   28.9852   39.1495  -12.1455 H   0  0  0  0  0  0  0  0  0  0  0  0
   30.3073   37.4995   -9.7021 C   0  0  0  0  0  0  0  0  0  0  0  0
   30.1221   36.9554   -8.2747 C   0  0  0  0  0  0  0  0  0  0  0  0
   28.9057   36.0317   -8.1492 C   0  0  0  0  0  0  0  0  0  0  0  0
   26.4425   35.7967   -8.7795 C   0  0  0  0  0  0  0  0  0  0  0  0
   27.8097   36.3329   -9.1745 C   0  0  0  0  0  0  0  0  0  0  0  0
   34.1155   40.8526   -8.8019 C   0  0  0  0  0  0  0  0  0  0  0  0
   34.9944   39.9970   -8.9172 O   0  0  0  0  0  0  0  0  0  0  0  0
   33.7828   41.4099   -7.5860 N   0  0  0  0  0  0  0  0  0  0  0  0
   33.1127   42.1300   -7.5446 H   0  0  0  0  0  0  0  0  0  0  0  0
   34.4193   40.9377   -6.3568 C   0  0  0  0  0  0  0  0  0  0  0  0
   35.2198   39.6732   -6.6321 C   0  0  0  0  0  0  0  0  0  0  0  0
   35.3399   42.0190   -5.7876 C   0  0  0  0  0  0  0  0  0  0  0  0
   35.3099   42.4893   -4.6600 O   0  0  0  0  0  0  0  0  0  0  0  0
   36.2306   42.4777   -6.6917 O   0  0  0  0  0  0  0  0  0  0  0  0
   36.2507   42.1148   -7.5553 H   0  0  0  0  0  0  0  0  0  0  0  0
   33.2561   42.8947  -10.0563 C   0  0  0  0  0  0  0  0  0  0  0  0
   33.0719   43.4616  -11.4465 C   0  0  0  0  0  0  0  0  0  0  0  0
   33.2964   44.8253  -11.6950 C   0  0  0  0  0  0  0  0  0  0  0  0
   33.1119   45.3494  -12.9752 C   0  0  0  0  0  0  0  0  0  0  0  0
   32.7093   44.5118  -14.0078 C   0  0  0  0  0  0  0  0  0  0  0  0
   32.5281   45.0168  -15.2349 F   0  0  0  0  0  0  0  0  0  0  0  0
   32.4919   43.1584  -13.7849 C   0  0  0  0  0  0  0  0  0  0  0  0
   32.6781   42.6315  -12.5062 C   0  0  0  0  0  0  0  0  0  0  0  0
 12 13  1  0
 13 11  1  0
 11 10  1  0
 10  9  1  0
  9  6  1  0
  6  7  1  0
  6  2  1  0
  2  3  2  0
  2  4  1  0
  4  1  1  0
  1 24  1  0
 24 25  1  0
 25 26  2  0
 26 27  1  0
 27 28  2  0
 28 29  1  0
 28 30  1  0
 30 31  2  0
  1 14  1  0
 14 15  2  0
 14 16  1  0
 16 18  1  0
 18 19  1  0
 18 20  1  0
 20 21  2  0
 20 22  1  0
 31 25  1  0
  7  8  1  0
  4  5  1  0
 16 17  1  0
 22 23  1  0
M  END
> <minimizedAffinity>
-7.34508

> <CNNscore>
0.4053153098

> <CNNaffinity>
5.7221245766

> <CNN_VS>
2.3192646503

> <CNNaffinity_variance>
0.1716407984

$$$$



 31 31  0  0  0  0  0  0  0  0999 V2000
   33.4754   40.0123  -10.4877 C   0  0  0  0  0  0  0  0  0  0  0  0
   32.0432   38.1521   -9.6851 C   0  0  0  0  0  0  0  0  0  0  0  0
   31.6894   38.7825   -8.6920 O   0  0  0  0  0  0  0  0  0  0  0  0
   33.0128   38.6230  -10.5488 N   0  0  0  0  0  0  0  0  0  0  0  0
   33.4005   38.0139  -11.2181 H   0  0  0  0  0  0  0  0  0  0  0  0
   31.4253   36.8051  -10.0967 C   0  0  0  0  0  0  0  0  0  0  0  0
   32.3852   36.0506  -11.4623 S   0  0  0  0  0  0  0  0  0  0  0  0
   33.6495   35.7870  -11.0361 H   0  0  0  0  0  0  0  0  0  0  0  0
   31.2202   35.8512   -8.9067 C   0  0  0  0  0  0  0  0  0  0  0  0
   29.7648   35.5901   -8.4803 C   0  0  0  0  0  0  0  0  0  0  0  0
   29.3638   34.1180   -8.6235 C   0  0  0  0  0  0  0  0  0  0  0  0
   26.9121   33.4099   -8.5372 C   0  0  0  0  0  0  0  0  0  0  0  0
   28.1714   33.7282   -7.7465 C   0  0  0  0  0  0  0  0  0  0  0  0
   34.2414   40.1600   -9.1543 C   0  0  0  0  0  0  0  0  0  0  0  0
   35.3339   39.6236   -8.9628 O   0  0  0  0  0  0  0  0  0  0  0  0
   33.6120   40.9177   -8.1903 N   0  0  0  0  0  0  0  0  0  0  0  0
   32.7659   41.3743   -8.4020 H   0  0  0  0  0  0  0  0  0  0  0  0
   34.1937   41.0473   -6.8547 C   0  0  0  0  0  0  0  0  0  0  0  0
   34.9242   39.7680   -6.4734 C   0  0  0  0  0  0  0  0  0  0  0  0
   35.1640   42.2293   -6.8117 C   0  0  0  0  0  0  0  0  0  0  0  0
   35.9862   42.4725   -5.9409 O   0  0  0  0  0  0  0  0  0  0  0  0
   35.0163   43.0667   -7.8596 O   0  0  0  0  0  0  0  0  0  0  0  0
   34.3848   42.8772   -8.5255 H   0  0  0  0  0  0  0  0  0  0  0  0
   32.2779   40.9715  -10.5571 C   0  0  0  0  0  0  0  0  0  0  0  0
   32.5309   42.2085  -11.3902 C   0  0  0  0  0  0  0  0  0  0  0  0
   32.3277   42.1852  -12.7795 C   0  0  0  0  0  0  0  0  0  0  0  0
   32.5756   43.3232  -13.5483 C   0  0  0  0  0  0  0  0  0  0  0  0
   33.0203   44.4851  -12.9302 C   0  0  0  0  0  0  0  0  0  0  0  0
   33.2623   45.5752  -13.6698 F   0  0  0  0  0  0  0  0  0  0  0  0
   33.2177   44.5316  -11.5564 C   0  0  0  0  0  0  0  0  0  0  0  0
   32.9682   43.3958  -10.7850 C   0  0  0  0  0  0  0  0  0  0  0  0
 12 13  1  0
 13 11  1  0
 11 10  1  0
 10  9  1  0
  9  6  1  0
  6  7  1  0
  6  2  1  0
  2  3  2  0
  2  4  1  0
  4  1  1  0
  1 24  1  0
 24 25  1  0
 25 26  2  0
 26 27  1  0
 27 28  2  0
 28 29  1  0
 28 30  1  0
 30 31  2  0
  1 14  1  0
 14 15  2  0
 14 16  1  0
 16 18  1  0
 18 19  1  0
 18 20  1  0
 20 21  2  0
 20 22  1  0
 31 25  1  0
  7  8  1  0
  4  5  1  0
 16 17  1  0
 22 23  1  0
M  END
> <minimizedAffinity>
-5.99993

> <CNNscore>
0.3753911555

> <CNNaffinity>
5.7219238281

> <CNN_VS>
2.1479597092

> <CNNaffinity_variance>
0.0020934287

$$$$



 31 31  0  0  0  0  0  0  0  0999 V2000
   33.1526   42.4909   -9.9184 C   0  0  0  0  0  0  0  0  0  0  0  0
   31.9448   40.3360  -10.1498 C   0  0  0  0  0  0  0  0  0  0  0  0
   32.9660   39.7381  -10.4793 O   0  0  0  0  0  0  0  0  0  0  0  0
   31.9161   41.7068   -9.9827 N   0  0  0  0  0  0  0  0  0  0  0  0
   31.0486   42.1658   -9.9053 H   0  0  0  0  0  0  0  0  0  0  0  0
   30.6114   39.6308   -9.8492 C   0  0  0  0  0  0  0  0  0  0  0  0
   29.3360   40.1261  -11.0674 S   0  0  0  0  0  0  0  0  0  0  0  0
   29.7176   39.7277  -12.3105 H   0  0  0  0  0  0  0  0  0  0  0  0
   30.7569   38.1045   -9.7171 C   0  0  0  0  0  0  0  0  0  0  0  0
   31.0758   37.5654   -8.3116 C   0  0  0  0  0  0  0  0  0  0  0  0
   30.6608   36.1009   -8.1340 C   0  0  0  0  0  0  0  0  0  0  0  0
   28.3558   35.5058   -9.0573 C   0  0  0  0  0  0  0  0  0  0  0  0
   29.1682   35.9266   -7.8427 C   0  0  0  0  0  0  0  0  0  0  0  0
   33.6558   42.3954   -8.4610 C   0  0  0  0  0  0  0  0  0  0  0  0
   33.1647   43.0670   -7.5525 O   0  0  0  0  0  0  0  0  0  0  0  0
   34.7005   41.5212   -8.2511 N   0  0  0  0  0  0  0  0  0  0  0  0
   35.0278   40.9627   -8.9928 H   0  0  0  0  0  0  0  0  0  0  0  0
   35.3255   41.4184   -6.9329 C   0  0  0  0  0  0  0  0  0  0  0  0
   34.8236   42.5319   -6.0252 C   0  0  0  0  0  0  0  0  0  0  0  0
   35.0150   40.0588   -6.3037 C   0  0  0  0  0  0  0  0  0  0  0  0
   33.9639   39.4396   -6.3760 O   0  0  0  0  0  0  0  0  0  0  0  0
   36.0439   39.5690   -5.5807 O   0  0  0  0  0  0  0  0  0  0  0  0
   36.8483   40.0465   -5.5275 H   0  0  0  0  0  0  0  0  0  0  0  0
   32.8768   43.9465  -10.3236 C   0  0  0  0  0  0  0  0  0  0  0  0
   32.8283   44.1676  -11.8192 C   0  0  0  0  0  0  0  0  0  0  0  0
   32.5490   43.1004  -12.6882 C   0  0  0  0  0  0  0  0  0  0  0  0
   32.5190   43.3034  -14.0686 C   0  0  0  0  0  0  0  0  0  0  0  0
   32.7618   44.5717  -14.5809 C   0  0  0  0  0  0  0  0  0  0  0  0
   32.7372   44.7642  -15.9060 F   0  0  0  0  0  0  0  0  0  0  0  0
   33.0298   45.6423  -13.7379 C   0  0  0  0  0  0  0  0  0  0  0  0
   33.0580   45.4424  -12.3571 C   0  0  0  0  0  0  0  0  0  0  0  0
 12 13  1  0
 13 11  1  0
 11 10  1  0
 10  9  1  0
  9  6  1  0
  6  7  1  0
  6  2  1  0
  2  3  2  0
  2  4  1  0
  4  1  1  0
  1 24  1  0
 24 25  1  0
 25 26  2  0
 26 27  1  0
 27 28  2  0
 28 29  1  0
 28 30  1  0
 30 31  2  0
  1 14  1  0
 14 15  2  0
 14 16  1  0
 16 18  1  0
 18 19  1  0
 18 20  1  0
 20 21  2  0
 20 22  1  0
 31 25  1  0
  7  8  1  0
  4  5  1  0
 16 17  1  0
 22 23  1  0
M  END
> <minimizedAffinity>
-7.42618

> <CNNscore>
0.3509371281

> <CNNaffinity>
5.4438710213

> <CNN_VS>
1.9104564190

> <CNNaffinity_variance>
0.2472787350

$$$$
