


 16 16  0  0  0  0  0  0  0  0999 V2000
   -1.5790   14.2238   16.4948 C   0  0  0  0  0  0  0  0  0  0  0  0
   -1.7013   15.6197   16.5148 C   0  0  0  0  0  0  0  0  0  0  0  0
   -1.1672   16.3632   17.5724 C   0  0  0  0  0  0  0  0  0  0  0  0
   -0.5415   15.7316   18.6483 C   0  0  0  0  0  0  0  0  0  0  0  0
    0.1061   16.4850   19.6259 N   0  0  0  0  0  0  0  0  0  0  0  0
   -0.3770   14.3464   18.6039 C   0  0  0  0  0  0  0  0  0  0  0  0
   -0.9053   13.5939   17.5499 C   0  0  0  0  0  0  0  0  0  0  0  0
   -0.0128   17.4619   19.6536 H   0  0  0  0  0  0  0  0  0  0  0  0
    0.6823   16.0403   20.2887 H   0  0  0  0  0  0  0  0  0  0  0  0
   -1.7220   12.2001   15.2085 N   0  0  0  0  0  0  0  0  0  0  0  0
   -2.1231   13.4410   15.3788 C   0  0  0  0  0  0  0  0  0  0  0  0
   -3.0019   13.9956   14.5728 N   0  0  0  0  0  0  0  0  0  0  0  0
   -2.0798   11.6650   14.4636 H   0  0  0  0  0  0  0  0  0  0  0  0
   -1.0640   11.8063   15.8259 H   0  0  0  0  0  0  0  0  0  0  0  0
   -3.3739   13.4805   13.8208 H   0  0  0  0  0  0  0  0  0  0  0  0
   -3.2878   14.9259   14.7214 H   0  0  0  0  0  0  0  0  0  0  0  0
 10 11  1  0
 11 12  2  0
 11  1  1  0
  1  2  2  0
  2  3  1  0
  3  4  2  0
  4  5  1  0
  4  6  1  0
  6  7  2  0
  7  1  1  0
 10 13  1  0
 10 14  1  0
 12 15  1  0
 12 16  1  0
  5  8  1  0
  5  9  1  0
M  CHG 1  12   1
M  END
> <minimizedAffinity>
-6.72639

> <CNNscore>
0.9742228389

> <CNNaffinity>
4.0092749596

> <CNN_VS>
3.9059271812

> <CNNaffinity_variance>
0.6316375136

$$$$



 16 16  0  0  0  0  0  0  0  0999 V2000
   -1.5983   14.2540   16.4721 C   0  0  0  0  0  0  0  0  0  0  0  0
   -0.9204   13.6418   17.5350 C   0  0  0  0  0  0  0  0  0  0  0  0
   -0.4442   14.4052   18.6060 C   0  0  0  0  0  0  0  0  0  0  0  0
   -0.5942   15.7927   18.6196 C   0  0  0  0  0  0  0  0  0  0  0  0
   -0.2404   16.5269   19.7503 N   0  0  0  0  0  0  0  0  0  0  0  0
   -1.3118   16.3956   17.5855 C   0  0  0  0  0  0  0  0  0  0  0  0
   -1.7940   15.6410   16.5111 C   0  0  0  0  0  0  0  0  0  0  0  0
    0.2658   16.0976   20.4774 H   0  0  0  0  0  0  0  0  0  0  0  0
   -0.4966   17.4748   19.8218 H   0  0  0  0  0  0  0  0  0  0  0  0
   -2.9712   13.9983   14.5176 N   0  0  0  0  0  0  0  0  0  0  0  0
   -2.1144   13.4549   15.3545 C   0  0  0  0  0  0  0  0  0  0  0  0
   -1.7085   12.2122   15.2114 N   0  0  0  0  0  0  0  0  0  0  0  0
   -3.3244   13.4724   13.7640 H   0  0  0  0  0  0  0  0  0  0  0  0
   -3.2593   14.9311   14.6447 H   0  0  0  0  0  0  0  0  0  0  0  0
   -2.0477   11.6663   14.4655 H   0  0  0  0  0  0  0  0  0  0  0  0
   -1.0654   11.8277   15.8501 H   0  0  0  0  0  0  0  0  0  0  0  0
 10 11  1  0
 11 12  2  0
 11  1  1  0
  1  2  2  0
  2  3  1  0
  3  4  2  0
  4  5  1  0
  4  6  1  0
  6  7  2  0
  7  1  1  0
 10 13  1  0
 10 14  1  0
 12 15  1  0
 12 16  1  0
  5  8  1  0
  5  9  1  0
M  CHG 1  12   1
M  END
> <minimizedAffinity>
-6.58451

> <CNNscore>
0.9492086172

> <CNNaffinity>
4.0143227577

> <CNN_VS>
3.8104298115

> <CNNaffinity_variance>
0.5790722966

$$$$



 16 16  0  0  0  0  0  0  0  0999 V2000
   -1.0279   15.4472   18.1533 C   0  0  0  0  0  0  0  0  0  0  0  0
   -0.4721   14.1641   18.2463 C   0  0  0  0  0  0  0  0  0  0  0  0
   -0.7616   13.1943   17.2808 C   0  0  0  0  0  0  0  0  0  0  0  0
   -1.6407   13.4674   16.2318 C   0  0  0  0  0  0  0  0  0  0  0  0
   -1.8155   12.5440   15.2026 N   0  0  0  0  0  0  0  0  0  0  0  0
   -2.1550   14.7594   16.1126 C   0  0  0  0  0  0  0  0  0  0  0  0
   -1.8700   15.7370   17.0714 C   0  0  0  0  0  0  0  0  0  0  0  0
   -1.4511   11.6337   15.2908 H   0  0  0  0  0  0  0  0  0  0  0  0
   -2.3034   12.8020   14.3873 H   0  0  0  0  0  0  0  0  0  0  0  0
   -1.6303   17.3598   19.4760 N   0  0  0  0  0  0  0  0  0  0  0  0
   -0.7136   16.4730   19.1549 C   0  0  0  0  0  0  0  0  0  0  0  0
    0.4775   16.4838   19.7121 N   0  0  0  0  0  0  0  0  0  0  0  0
   -1.4313   18.0528   20.1464 H   0  0  0  0  0  0  0  0  0  0  0  0
   -2.5154   17.3307   19.0460 H   0  0  0  0  0  0  0  0  0  0  0  0
    0.6999   17.1671   20.3852 H   0  0  0  0  0  0  0  0  0  0  0  0
    1.1468   15.8087   19.4563 H   0  0  0  0  0  0  0  0  0  0  0  0
 10 11  1  0
 11 12  2  0
 11  1  1  0
  1  2  2  0
  2  3  1  0
  3  4  2  0
  4  5  1  0
  4  6  1  0
  6  7  2  0
  7  1  1  0
 10 13  1  0
 10 14  1  0
 12 15  1  0
 12 16  1  0
  5  8  1  0
  5  9  1  0
M  CHG 1  12   1
M  END
> <minimizedAffinity>
-5.99360

> <CNNscore>
0.8935536146

> <CNNaffinity>
3.8316857815

> <CNN_VS>
3.4238166809

> <CNNaffinity_variance>
0.5465407968

$$$$



 16 16  0  0  0  0  0  0  0  0999 V2000
    8.0317   20.8459   12.0552 C   0  0  0  0  0  0  0  0  0  0  0  0
    7.4635   22.0410   11.5937 C   0  0  0  0  0  0  0  0  0  0  0  0
    6.1353   22.3579   11.8965 C   0  0  0  0  0  0  0  0  0  0  0  0
    5.3360   21.4755   12.6248 C   0  0  0  0  0  0  0  0  0  0  0  0
    4.0612   21.8589   13.0376 N   0  0  0  0  0  0  0  0  0  0  0  0
    5.9164   20.3090   13.1254 C   0  0  0  0  0  0  0  0  0  0  0  0
    7.2444   19.9839   12.8302 C   0  0  0  0  0  0  0  0  0  0  0  0
    3.6556   22.6825   12.6820 H   0  0  0  0  0  0  0  0  0  0  0  0
    3.5664   21.3062   13.6848 H   0  0  0  0  0  0  0  0  0  0  0  0
   10.1784   21.4012   11.1310 N   0  0  0  0  0  0  0  0  0  0  0  0
    9.4301   20.5171   11.7542 C   0  0  0  0  0  0  0  0  0  0  0  0
    9.9071   19.3459   12.1150 N   0  0  0  0  0  0  0  0  0  0  0  0
   11.1178   21.1922   10.9235 H   0  0  0  0  0  0  0  0  0  0  0  0
    9.7990   22.2720   10.8720 H   0  0  0  0  0  0  0  0  0  0  0  0
   10.8435   19.1140   11.9185 H   0  0  0  0  0  0  0  0  0  0  0  0
    9.3278   18.7010   12.5816 H   0  0  0  0  0  0  0  0  0  0  0  0
 10 11  1  0
 11 12  2  0
 11  1  1  0
  1  2  2  0
  2  3  1  0
  3  4  2  0
  4  5  1  0
  4  6  1  0
  6  7  2  0
  7  1  1  0
 10 13  1  0
 10 14  1  0
 12 15  1  0
 12 16  1  0
  5  8  1  0
  5  9  1  0
M  CHG 1  12   1
M  END
> <minimizedAffinity>
-4.42568

> <CNNscore>
0.8854914308

> <CNNaffinity>
3.2894747257

> <CNN_VS>
2.9128017426

> <CNNaffinity_variance>
0.7432858348

$$$$



 16 16  0  0  0  0  0  0  0  0999 V2000
   -2.0686   14.8902   17.2653 C   0  0  0  0  0  0  0  0  0  0  0  0
   -2.7539   16.0506   16.8812 C   0  0  0  0  0  0  0  0  0  0  0  0
   -2.8113   17.1561   17.7363 C   0  0  0  0  0  0  0  0  0  0  0  0
   -2.2271   17.1132   19.0032 C   0  0  0  0  0  0  0  0  0  0  0  0
   -2.1708   18.2619   19.7905 N   0  0  0  0  0  0  0  0  0  0  0  0
   -1.5035   15.9760   19.3652 C   0  0  0  0  0  0  0  0  0  0  0  0
   -1.4382   14.8661   18.5165 C   0  0  0  0  0  0  0  0  0  0  0  0
   -2.6828   19.0619   19.5315 H   0  0  0  0  0  0  0  0  0  0  0  0
   -1.6189   18.2734   20.6057 H   0  0  0  0  0  0  0  0  0  0  0  0
   -2.2804   13.8912   15.0910 N   0  0  0  0  0  0  0  0  0  0  0  0
   -1.9916   13.7340   16.3644 C   0  0  0  0  0  0  0  0  0  0  0  0
   -1.6337   12.5647   16.8483 N   0  0  0  0  0  0  0  0  0  0  0  0
   -2.2324   13.1231   14.4769 H   0  0  0  0  0  0  0  0  0  0  0  0
   -2.5447   14.7768   14.7518 H   0  0  0  0  0  0  0  0  0  0  0  0
   -1.5785   11.7819   16.2538 H   0  0  0  0  0  0  0  0  0  0  0  0
   -1.4210   12.4721   17.8051 H   0  0  0  0  0  0  0  0  0  0  0  0
 10 11  1  0
 11 12  2  0
 11  1  1  0
  1  2  2  0
  2  3  1  0
  3  4  2  0
  4  5  1  0
  4  6  1  0
  6  7  2  0
  7  1  1  0
 10 13  1  0
 10 14  1  0
 12 15  1  0
 12 16  1  0
  5  8  1  0
  5  9  1  0
M  CHG 1  12   1
M  END
> <minimizedAffinity>
-4.47151

> <CNNscore>
0.8826466799

> <CNNaffinity>
3.7286968231

> <CNN_VS>
3.2911219597

> <CNNaffinity_variance>
0.2266553044

$$$$



 16 16  0  0  0  0  0  0  0  0999 V2000
   -1.0130   15.4134   18.0608 C   0  0  0  0  0  0  0  0  0  0  0  0
   -1.7952   15.7760   16.9560 C   0  0  0  0  0  0  0  0  0  0  0  0
   -2.0903   14.8409   15.9585 C   0  0  0  0  0  0  0  0  0  0  0  0
   -1.5789   13.5437   16.0184 C   0  0  0  0  0  0  0  0  0  0  0  0
   -1.9889   12.5831   15.0954 N   0  0  0  0  0  0  0  0  0  0  0  0
   -0.8412   13.1694   17.1425 C   0  0  0  0  0  0  0  0  0  0  0  0
   -0.5425   14.0962   18.1466 C   0  0  0  0  0  0  0  0  0  0  0  0
   -2.5091   12.8515   14.3038 H   0  0  0  0  0  0  0  0  0  0  0  0
   -1.7582   11.6363   15.2350 H   0  0  0  0  0  0  0  0  0  0  0  0
    0.4793   16.3910   19.6695 N   0  0  0  0  0  0  0  0  0  0  0  0
   -0.7149   16.3866   19.1182 C   0  0  0  0  0  0  0  0  0  0  0  0
   -1.6470   17.2356   19.4920 N   0  0  0  0  0  0  0  0  0  0  0  0
    0.6912   17.0390   20.3797 H   0  0  0  0  0  0  0  0  0  0  0  0
    1.1612   15.7463   19.3719 H   0  0  0  0  0  0  0  0  0  0  0  0
   -1.4588   17.8930   20.2002 H   0  0  0  0  0  0  0  0  0  0  0  0
   -2.5332   17.2138   19.0635 H   0  0  0  0  0  0  0  0  0  0  0  0
 10 11  1  0
 11 12  2  0
 11  1  1  0
  1  2  2  0
  2  3  1  0
  3  4  2  0
  4  5  1  0
  4  6  1  0
  6  7  2  0
  7  1  1  0
 10 13  1  0
 10 14  1  0
 12 15  1  0
 12 16  1  0
  5  8  1  0
  5  9  1  0
M  CHG 1  12   1
M  END
> <minimizedAffinity>
-6.01750

> <CNNscore>
0.8764030337

> <CNNaffinity>
3.8314645290

> <CNN_VS>
3.3579070568

> <CNNaffinity_variance>
0.5930874944

$$$$



 16 16  0  0  0  0  0  0  0  0999 V2000
    6.7017   20.4369   12.9219 C   0  0  0  0  0  0  0  0  0  0  0  0
    6.4483   19.9417   14.2081 C   0  0  0  0  0  0  0  0  0  0  0  0
    5.1905   20.1080   14.7970 C   0  0  0  0  0  0  0  0  0  0  0  0
    4.1773   20.8056   14.1379 C   0  0  0  0  0  0  0  0  0  0  0  0
    2.8904   20.8474   14.6717 N   0  0  0  0  0  0  0  0  0  0  0  0
    4.4146   21.2555   12.8382 C   0  0  0  0  0  0  0  0  0  0  0  0
    5.6681   21.0923   12.2395 C   0  0  0  0  0  0  0  0  0  0  0  0
    2.7275   20.5290   15.5890 H   0  0  0  0  0  0  0  0  0  0  0  0
    2.1445   21.1952   14.1316 H   0  0  0  0  0  0  0  0  0  0  0  0
    8.5837   19.0648   12.3336 N   0  0  0  0  0  0  0  0  0  0  0  0
    8.0148   20.2500   12.2934 C   0  0  0  0  0  0  0  0  0  0  0  0
    8.5953   21.2707   11.7013 N   0  0  0  0  0  0  0  0  0  0  0  0
    9.4643   18.9270   11.9156 H   0  0  0  0  0  0  0  0  0  0  0  0
    8.1288   18.3154   12.7816 H   0  0  0  0  0  0  0  0  0  0  0  0
    9.4761   21.1575   11.2763 H   0  0  0  0  0  0  0  0  0  0  0  0
    8.1491   22.1481   11.6831 H   0  0  0  0  0  0  0  0  0  0  0  0
 10 11  1  0
 11 12  2  0
 11  1  1  0
  1  2  2  0
  2  3  1  0
  3  4  2  0
  4  5  1  0
  4  6  1  0
  6  7  2  0
  7  1  1  0
 10 13  1  0
 10 14  1  0
 12 15  1  0
 12 16  1  0
  5  8  1  0
  5  9  1  0
M  CHG 1  12   1
M  END
> <minimizedAffinity>
-4.88496

> <CNNscore>
0.8458998203

> <CNNaffinity>
3.1902706623

> <CNN_VS>
2.6986494064

> <CNNaffinity_variance>
0.6963402629

$$$$



 16 16  0  0  0  0  0  0  0  0999 V2000
    7.5717   21.0721   12.0412 C   0  0  0  0  0  0  0  0  0  0  0  0
    6.6550   20.2951   12.7623 C   0  0  0  0  0  0  0  0  0  0  0  0
    5.3332   20.7237   12.9219 C   0  0  0  0  0  0  0  0  0  0  0  0
    4.9101   21.9497   12.4064 C   0  0  0  0  0  0  0  0  0  0  0  0
    3.5628   22.3039   12.4512 N   0  0  0  0  0  0  0  0  0  0  0  0
    5.8097   22.6995   11.6472 C   0  0  0  0  0  0  0  0  0  0  0  0
    7.1331   22.2788   11.4797 C   0  0  0  0  0  0  0  0  0  0  0  0
    2.9317   21.7723   12.9880 H   0  0  0  0  0  0  0  0  0  0  0  0
    3.2423   23.0858   11.9459 H   0  0  0  0  0  0  0  0  0  0  0  0
    9.2779   19.3878   12.1910 N   0  0  0  0  0  0  0  0  0  0  0  0
    8.9552   20.6183   11.8569 C   0  0  0  0  0  0  0  0  0  0  0  0
    9.8440   21.4505   11.3599 N   0  0  0  0  0  0  0  0  0  0  0  0
   10.2027   19.0719   12.0721 H   0  0  0  0  0  0  0  0  0  0  0  0
    8.5946   18.7827   12.5601 H   0  0  0  0  0  0  0  0  0  0  0  0
   10.7751   21.1575   11.2316 H   0  0  0  0  0  0  0  0  0  0  0  0
    9.5782   22.3666   11.1160 H   0  0  0  0  0  0  0  0  0  0  0  0
 10 11  1  0
 11 12  2  0
 11  1  1  0
  1  2  2  0
  2  3  1  0
  3  4  2  0
  4  5  1  0
  4  6  1  0
  6  7  2  0
  7  1  1  0
 10 13  1  0
 10 14  1  0
 12 15  1  0
 12 16  1  0
  5  8  1  0
  5  9  1  0
M  CHG 1  12   1
M  END
> <minimizedAffinity>
-4.20502

> <CNNscore>
0.7465945482

> <CNNaffinity>
3.0799973011

> <CNN_VS>
2.2995092869

> <CNNaffinity_variance>
0.8435767293

$$$$



 16 16  0  0  0  0  0  0  0  0999 V2000
    7.1368   21.7044   12.7598 C   0  0  0  0  0  0  0  0  0  0  0  0
    8.2116   22.5333   12.4111 C   0  0  0  0  0  0  0  0  0  0  0  0
    9.4000   21.9841   11.9185 C   0  0  0  0  0  0  0  0  0  0  0  0
    9.5574   20.6020   11.8046 C   0  0  0  0  0  0  0  0  0  0  0  0
   10.6887   20.0719   11.1865 N   0  0  0  0  0  0  0  0  0  0  0  0
    8.4701   19.7804   12.1055 C   0  0  0  0  0  0  0  0  0  0  0  0
    7.2767   20.3197   12.5966 C   0  0  0  0  0  0  0  0  0  0  0  0
   11.4534   20.6551   10.9761 H   0  0  0  0  0  0  0  0  0  0  0  0
   10.7230   19.1144   10.9605 H   0  0  0  0  0  0  0  0  0  0  0  0
    4.7493   21.9564   12.6748 N   0  0  0  0  0  0  0  0  0  0  0  0
    5.8820   22.2775   13.2611 C   0  0  0  0  0  0  0  0  0  0  0  0
    5.9153   23.0990   14.2875 N   0  0  0  0  0  0  0  0  0  0  0  0
    3.9012   22.3343   13.0020 H   0  0  0  0  0  0  0  0  0  0  0  0
    4.7496   21.3381   11.9086 H   0  0  0  0  0  0  0  0  0  0  0  0
    5.0802   23.4897   14.6327 H   0  0  0  0  0  0  0  0  0  0  0  0
    6.7754   23.3234   14.7107 H   0  0  0  0  0  0  0  0  0  0  0  0
 10 11  1  0
 11 12  2  0
 11  1  1  0
  1  2  2  0
  2  3  1  0
  3  4  2  0
  4  5  1  0
  4  6  1  0
  6  7  2  0
  7  1  1  0
 10 13  1  0
 10 14  1  0
 12 15  1  0
 12 16  1  0
  5  8  1  0
  5  9  1  0
M  CHG 1  12   1
M  END
> <minimizedAffinity>
-3.70904

> <CNNscore>
0.7072377801

> <CNNaffinity>
2.9223372936

> <CNN_VS>
2.0667872429

> <CNNaffinity_variance>
0.8127610087

$$$$
