


 51 54  0  0  0  0  0  0  0  0999 V2000
   -3.6656   -3.6104   31.8268 N   0  0  0  0  0  0  0  0  0  0  0  0
   -3.5644   -3.4783   30.4602 C   0  0  0  0  0  0  0  0  0  0  0  0
   -4.5335   -3.4087   29.7142 O   0  0  0  0  0  0  0  0  0  0  0  0
   -2.8394   -3.6525   32.3605 H   0  0  0  0  0  0  0  0  0  0  0  0
   -2.1920   -3.3795   29.8895 C   0  0  0  0  0  0  0  0  0  0  0  0
   -1.1915   -4.1894   30.4470 C   0  0  0  0  0  0  0  0  0  0  0  0
    0.1103   -4.1395   29.9407 C   0  0  0  0  0  0  0  0  0  0  0  0
    0.4125   -3.2805   28.8796 C   0  0  0  0  0  0  0  0  0  0  0  0
   -0.5700   -2.4414   28.3553 C   0  0  0  0  0  0  0  0  0  0  0  0
   -1.8768   -2.4997   28.8459 C   0  0  0  0  0  0  0  0  0  0  0  0
    1.1941   -5.0031   30.4700 C   0  0  0  0  0  0  0  0  0  0  0  0
    2.0574   -5.4217   29.7079 O   0  0  0  0  0  0  0  0  0  0  0  0
    1.1754   -5.2479   31.8236 N   0  0  0  0  0  0  0  0  0  0  0  0
    0.4414   -4.8832   32.3691 H   0  0  0  0  0  0  0  0  0  0  0  0
    2.2173   -6.0345   32.4665 C   0  0  0  0  0  0  0  0  0  0  0  0
    1.6028   -7.2343   33.1911 C   0  0  0  0  0  0  0  0  0  0  0  0
    3.0628   -5.1220   33.3382 C   0  0  0  0  0  0  0  0  0  0  0  0
    2.5184   -4.2850   34.3236 C   0  0  0  0  0  0  0  0  0  0  0  0
    3.3397   -3.4434   35.0790 C   0  0  0  0  0  0  0  0  0  0  0  0
    4.7144   -3.4146   34.8493 C   0  0  0  0  0  0  0  0  0  0  0  0
    5.2694   -4.2227   33.8624 C   0  0  0  0  0  0  0  0  0  0  0  0
    4.4504   -5.0684   33.1124 C   0  0  0  0  0  0  0  0  0  0  0  0
   -0.1889   -1.5949   27.2572 N   0  0  0  0  0  0  0  0  0  0  0  0
   -1.2917   -0.7959   26.6701 C   0  0  0  0  0  0  0  0  0  0  0  0
    1.2731   -0.7219   27.4156 S   0  0  0  0  0  0  0  0  0  0  0  0
    2.4453   -1.8316   26.6605 C   0  0  0  0  0  0  0  0  0  0  0  0
    1.5857   -0.5864   28.8220 O   0  0  0  0  0  0  0  0  0  0  0  0
    1.1759    0.4486   26.5682 O   0  0  0  0  0  0  0  0  0  0  0  0
   -4.9662   -3.6916   32.5239 C   0  0  0  0  0  0  0  0  0  0  0  0
   -5.2799   -2.3425   33.2353 C   0  0  0  0  0  0  0  0  0  0  0  0
   -5.5770   -2.5090   34.6275 O   0  0  0  0  0  0  0  0  0  0  0  0
   -6.3882   -3.0318   34.7247 H   0  0  0  0  0  0  0  0  0  0  0  0
   -6.4609   -1.5884   32.5773 C   0  0  0  0  0  0  0  0  0  0  0  0
   -7.7628   -2.0877   33.0732 N   0  0  0  0  0  0  0  0  0  0  0  0
   -7.6195   -2.9926   33.5215 H   0  0  0  0  0  0  0  0  0  0  0  0
   -8.7388   -2.2451   31.9903 C   0  0  0  0  0  0  0  0  0  0  0  0
  -12.5510   -1.9602   32.1362 C   0  0  0  0  0  0  0  0  0  0  0  0
  -12.7640   -1.8878   33.5128 C   0  0  0  0  0  0  0  0  0  0  0  0
  -11.6792   -1.9357   34.3932 C   0  0  0  0  0  0  0  0  0  0  0  0
  -10.3785   -2.0512   33.9029 C   0  0  0  0  0  0  0  0  0  0  0  0
  -10.1459   -2.1175   32.5230 C   0  0  0  0  0  0  0  0  0  0  0  0
  -11.2442   -2.0773   31.6504 C   0  0  0  0  0  0  0  0  0  0  0  0
  -13.1413   -1.4014   29.9013 C   0  0  0  0  0  0  0  0  0  0  0  0
  -13.5181   -1.9255   31.1690 O   0  0  0  0  0  0  0  0  0  0  0  0
   -4.9320   -4.9047   33.4849 C   0  0  0  0  0  0  0  0  0  0  0  0
   -4.0194   -6.0281   33.0439 C   0  0  0  0  0  0  0  0  0  0  0  0
   -4.2442   -6.6925   31.8285 C   0  0  0  0  0  0  0  0  0  0  0  0
   -3.3935   -7.7189   31.4139 C   0  0  0  0  0  0  0  0  0  0  0  0
   -2.3084   -8.0881   32.2057 C   0  0  0  0  0  0  0  0  0  0  0  0
   -2.0738   -7.4333   33.4135 C   0  0  0  0  0  0  0  0  0  0  0  0
   -2.9240   -6.4080   33.8304 C   0  0  0  0  0  0  0  0  0  0  0  0
 43 44  1  0
 44 37  1  0
 37 38  2  0
 38 39  1  0
 39 40  2  0
 40 41  1  0
 41 36  1  0
 36 34  1  0
 34 33  1  0
 33 30  1  0
 30 31  1  0
 30 29  1  0
 29 45  1  0
 45 46  1  0
 46 47  2  0
 47 48  1  0
 48 49  2  0
 49 50  1  0
 50 51  2  0
 29  1  1  0
  1  2  1  0
  2  3  2  0
  2  5  1  0
  5  6  2  0
  6  7  1  0
  7 11  1  0
 11 12  2  0
 11 13  1  0
 13 15  1  0
 15 16  1  0
 15 17  1  0
 17 18  2  0
 18 19  1  0
 19 20  2  0
 20 21  1  0
 21 22  2  0
  7  8  2  0
  8  9  1  0
  9 23  1  0
 23 24  1  0
 23 25  1  0
 25 26  1  0
 25 27  2  0
 25 28  2  0
  9 10  2  0
 41 42  2  0
 42 37  1  0
 51 46  1  0
 10  5  1  0
 22 17  1  0
 34 35  1  0
 31 32  1  0
  1  4  1  0
 13 14  1  0
M  END
> <minimizedAffinity>
-12.23615

> <CNNscore>
0.9920085073

> <CNNaffinity>
7.9739127159

> <CNN_VS>
7.9101891518

> <CNNaffinity_variance>
1.2006121874

$$$$



 51 54  0  0  0  0  0  0  0  0999 V2000
   -3.5688   -3.8885   31.7603 N   0  0  0  0  0  0  0  0  0  0  0  0
   -3.4826   -3.4637   30.4536 C   0  0  0  0  0  0  0  0  0  0  0  0
   -4.4547   -3.1389   29.7829 O   0  0  0  0  0  0  0  0  0  0  0  0
   -2.7403   -4.1256   32.2363 H   0  0  0  0  0  0  0  0  0  0  0  0
   -2.1190   -3.3676   29.8617 C   0  0  0  0  0  0  0  0  0  0  0  0
   -1.1081   -4.1687   30.4132 C   0  0  0  0  0  0  0  0  0  0  0  0
    0.1859   -4.1211   29.8872 C   0  0  0  0  0  0  0  0  0  0  0  0
    0.4701   -3.2730   28.8125 C   0  0  0  0  0  0  0  0  0  0  0  0
   -0.5223   -2.4422   28.2936 C   0  0  0  0  0  0  0  0  0  0  0  0
   -1.8216   -2.4985   28.8040 C   0  0  0  0  0  0  0  0  0  0  0  0
    1.2797   -4.9759   30.4099 C   0  0  0  0  0  0  0  0  0  0  0  0
    2.1689   -5.3467   29.6527 O   0  0  0  0  0  0  0  0  0  0  0  0
    1.2390   -5.2683   31.7536 N   0  0  0  0  0  0  0  0  0  0  0  0
    0.4849   -4.9408   32.2952 H   0  0  0  0  0  0  0  0  0  0  0  0
    2.2866   -6.0512   32.3915 C   0  0  0  0  0  0  0  0  0  0  0  0
    1.6763   -7.2298   33.1535 C   0  0  0  0  0  0  0  0  0  0  0  0
    3.1581   -5.1289   33.2265 C   0  0  0  0  0  0  0  0  0  0  0  0
    4.5538   -5.0703   33.0974 C   0  0  0  0  0  0  0  0  0  0  0  0
    5.3112   -4.2235   33.9114 C   0  0  0  0  0  0  0  0  0  0  0  0
    4.6864   -3.4353   34.8766 C   0  0  0  0  0  0  0  0  0  0  0  0
    3.3054   -3.4953   35.0327 C   0  0  0  0  0  0  0  0  0  0  0  0
    2.5478   -4.3357   34.2154 C   0  0  0  0  0  0  0  0  0  0  0  0
   -0.1598   -1.6069   27.1808 N   0  0  0  0  0  0  0  0  0  0  0  0
   -1.2740   -0.8198   26.5991 C   0  0  0  0  0  0  0  0  0  0  0  0
    1.3001   -0.7253   27.3097 S   0  0  0  0  0  0  0  0  0  0  0  0
    2.4396   -1.7741   26.4282 C   0  0  0  0  0  0  0  0  0  0  0  0
    1.6886   -0.6670   28.7024 O   0  0  0  0  0  0  0  0  0  0  0  0
    1.1445    0.4907   26.5386 O   0  0  0  0  0  0  0  0  0  0  0  0
   -4.8567   -4.0025   32.4763 C   0  0  0  0  0  0  0  0  0  0  0  0
   -5.1989   -2.6584   33.1841 C   0  0  0  0  0  0  0  0  0  0  0  0
   -4.9948   -2.7139   34.6017 O   0  0  0  0  0  0  0  0  0  0  0  0
   -5.6058   -3.3587   34.9913 H   0  0  0  0  0  0  0  0  0  0  0  0
   -6.6572   -2.2087   32.9244 C   0  0  0  0  0  0  0  0  0  0  0  0
   -6.9694   -2.1998   31.4779 N   0  0  0  0  0  0  0  0  0  0  0  0
   -6.1030   -2.0728   30.9547 H   0  0  0  0  0  0  0  0  0  0  0  0
   -7.8987   -1.1224   31.1235 C   0  0  0  0  0  0  0  0  0  0  0  0
  -11.0093   -1.8409   33.2314 C   0  0  0  0  0  0  0  0  0  0  0  0
  -11.9365   -2.1681   32.2419 C   0  0  0  0  0  0  0  0  0  0  0  0
  -11.5598   -2.1521   30.8958 C   0  0  0  0  0  0  0  0  0  0  0  0
  -10.2559   -1.8144   30.5331 C   0  0  0  0  0  0  0  0  0  0  0  0
   -9.3099   -1.4907   31.5143 C   0  0  0  0  0  0  0  0  0  0  0  0
   -9.7034   -1.5018   32.8613 C   0  0  0  0  0  0  0  0  0  0  0  0
  -11.9644   -2.9148   35.1262 C   0  0  0  0  0  0  0  0  0  0  0  0
  -11.2448   -1.8164   34.5789 O   0  0  0  0  0  0  0  0  0  0  0  0
   -4.7741   -5.2080   33.4438 C   0  0  0  0  0  0  0  0  0  0  0  0
   -3.8874   -6.3365   32.9648 C   0  0  0  0  0  0  0  0  0  0  0  0
   -4.1006   -6.9257   31.7092 C   0  0  0  0  0  0  0  0  0  0  0  0
   -3.2733   -7.9567   31.2603 C   0  0  0  0  0  0  0  0  0  0  0  0
   -2.2231   -8.4056   32.0580 C   0  0  0  0  0  0  0  0  0  0  0  0
   -2.0001   -7.8260   33.3057 C   0  0  0  0  0  0  0  0  0  0  0  0
   -2.8271   -6.7961   33.7568 C   0  0  0  0  0  0  0  0  0  0  0  0
 43 44  1  0
 44 37  1  0
 37 38  2  0
 38 39  1  0
 39 40  2  0
 40 41  1  0
 41 36  1  0
 36 34  1  0
 34 33  1  0
 33 30  1  0
 30 31  1  0
 30 29  1  0
 29 45  1  0
 45 46  1  0
 46 47  2  0
 47 48  1  0
 48 49  2  0
 49 50  1  0
 50 51  2  0
 29  1  1  0
  1  2  1  0
  2  3  2  0
  2  5  1  0
  5  6  2  0
  6  7  1  0
  7 11  1  0
 11 12  2  0
 11 13  1  0
 13 15  1  0
 15 16  1  0
 15 17  1  0
 17 18  2  0
 18 19  1  0
 19 20  2  0
 20 21  1  0
 21 22  2  0
  7  8  2  0
  8  9  1  0
  9 23  1  0
 23 24  1  0
 23 25  1  0
 25 26  1  0
 25 27  2  0
 25 28  2  0
  9 10  2  0
 41 42  2  0
 42 37  1  0
 51 46  1  0
 10  5  1  0
 22 17  1  0
 34 35  1  0
 31 32  1  0
  1  4  1  0
 13 14  1  0
M  END
> <minimizedAffinity>
-12.01066

> <CNNscore>
0.9868981838

> <CNNaffinity>
7.9128265381

> <CNN_VS>
7.8091540337

> <CNNaffinity_variance>
1.0533676147

$$$$



 51 54  0  0  0  0  0  0  0  0999 V2000
   -3.6278   -4.1013   31.7972 N   0  0  0  0  0  0  0  0  0  0  0  0
   -3.5437   -3.5683   30.5306 C   0  0  0  0  0  0  0  0  0  0  0  0
   -4.5157   -3.1785   29.8953 O   0  0  0  0  0  0  0  0  0  0  0  0
   -2.7994   -4.3859   32.2466 H   0  0  0  0  0  0  0  0  0  0  0  0
   -2.1821   -3.4357   29.9411 C   0  0  0  0  0  0  0  0  0  0  0  0
   -1.1565   -4.2283   30.4776 C   0  0  0  0  0  0  0  0  0  0  0  0
    0.1364   -4.1467   29.9531 C   0  0  0  0  0  0  0  0  0  0  0  0
    0.4048   -3.2733   28.8948 C   0  0  0  0  0  0  0  0  0  0  0  0
   -0.6028   -2.4513   28.3913 C   0  0  0  0  0  0  0  0  0  0  0  0
   -1.9009   -2.5414   28.9001 C   0  0  0  0  0  0  0  0  0  0  0  0
    1.2459   -4.9909   30.4599 C   0  0  0  0  0  0  0  0  0  0  0  0
    2.1356   -5.3405   29.6934 O   0  0  0  0  0  0  0  0  0  0  0  0
    1.2180   -5.2979   31.8007 N   0  0  0  0  0  0  0  0  0  0  0  0
    0.4626   -4.9873   32.3504 H   0  0  0  0  0  0  0  0  0  0  0  0
    2.2810   -6.0721   32.4236 C   0  0  0  0  0  0  0  0  0  0  0  0
    1.6965   -7.2907   33.1416 C   0  0  0  0  0  0  0  0  0  0  0  0
    3.1191   -5.1536   33.2962 C   0  0  0  0  0  0  0  0  0  0  0  0
    2.5690   -4.3289   34.2888 C   0  0  0  0  0  0  0  0  0  0  0  0
    3.3833   -3.4811   35.0448 C   0  0  0  0  0  0  0  0  0  0  0  0
    4.7563   -3.4336   34.8088 C   0  0  0  0  0  0  0  0  0  0  0  0
    5.3166   -4.2294   33.8148 C   0  0  0  0  0  0  0  0  0  0  0  0
    4.5048   -5.0813   33.0642 C   0  0  0  0  0  0  0  0  0  0  0  0
   -0.2559   -1.5885   27.2947 N   0  0  0  0  0  0  0  0  0  0  0  0
   -1.3747   -0.7762   26.7584 C   0  0  0  0  0  0  0  0  0  0  0  0
    1.2142   -0.7232   27.4173 S   0  0  0  0  0  0  0  0  0  0  0  0
    2.3564   -1.8262   26.6086 C   0  0  0  0  0  0  0  0  0  0  0  0
    1.5732   -0.6089   28.8145 O   0  0  0  0  0  0  0  0  0  0  0  0
    1.0941    0.4596   26.5903 O   0  0  0  0  0  0  0  0  0  0  0  0
   -4.9132   -4.2629   32.5084 C   0  0  0  0  0  0  0  0  0  0  0  0
   -5.2714   -2.9558   33.2748 C   0  0  0  0  0  0  0  0  0  0  0  0
   -4.3156   -2.6338   34.2931 O   0  0  0  0  0  0  0  0  0  0  0  0
   -4.3216   -3.3260   34.9727 H   0  0  0  0  0  0  0  0  0  0  0  0
   -6.6717   -3.0210   33.9315 C   0  0  0  0  0  0  0  0  0  0  0  0
   -7.6266   -2.1137   33.2569 N   0  0  0  0  0  0  0  0  0  0  0  0
   -8.5643   -2.5081   33.3311 H   0  0  0  0  0  0  0  0  0  0  0  0
   -7.3011   -1.9302   31.8390 C   0  0  0  0  0  0  0  0  0  0  0  0
   -8.3956    1.6512   31.0571 C   0  0  0  0  0  0  0  0  0  0  0  0
   -7.1630    2.2727   30.8565 C   0  0  0  0  0  0  0  0  0  0  0  0
   -5.9799    1.5382   30.9781 C   0  0  0  0  0  0  0  0  0  0  0  0
   -6.0229    0.1805   31.2955 C   0  0  0  0  0  0  0  0  0  0  0  0
   -7.2524   -0.4612   31.4928 C   0  0  0  0  0  0  0  0  0  0  0  0
   -8.4323    0.2896   31.3765 C   0  0  0  0  0  0  0  0  0  0  0  0
  -10.2867    2.1763   29.7141 C   0  0  0  0  0  0  0  0  0  0  0  0
   -9.6227    2.2499   30.9701 O   0  0  0  0  0  0  0  0  0  0  0  0
   -4.8142   -5.5088   33.4218 C   0  0  0  0  0  0  0  0  0  0  0  0
   -3.8690   -6.5791   32.9218 C   0  0  0  0  0  0  0  0  0  0  0  0
   -4.0581   -7.1630   31.6598 C   0  0  0  0  0  0  0  0  0  0  0  0
   -3.1774   -8.1398   31.1916 C   0  0  0  0  0  0  0  0  0  0  0  0
   -2.0977   -8.5391   31.9761 C   0  0  0  0  0  0  0  0  0  0  0  0
   -1.8984   -7.9642   33.2300 C   0  0  0  0  0  0  0  0  0  0  0  0
   -2.7787   -6.9885   33.7004 C   0  0  0  0  0  0  0  0  0  0  0  0
 43 44  1  0
 44 37  1  0
 37 38  2  0
 38 39  1  0
 39 40  2  0
 40 41  1  0
 41 36  1  0
 36 34  1  0
 34 33  1  0
 33 30  1  0
 30 31  1  0
 30 29  1  0
 29 45  1  0
 45 46  1  0
 46 47  2  0
 47 48  1  0
 48 49  2  0
 49 50  1  0
 50 51  2  0
 29  1  1  0
  1  2  1  0
  2  3  2  0
  2  5  1  0
  5  6  2  0
  6  7  1  0
  7 11  1  0
 11 12  2  0
 11 13  1  0
 13 15  1  0
 15 16  1  0
 15 17  1  0
 17 18  2  0
 18 19  1  0
 19 20  2  0
 20 21  1  0
 21 22  2  0
  7  8  2  0
  8  9  1  0
  9 23  1  0
 23 24  1  0
 23 25  1  0
 25 26  1  0
 25 27  2  0
 25 28  2  0
  9 10  2  0
 41 42  2  0
 42 37  1  0
 51 46  1  0
 10  5  1  0
 22 17  1  0
 34 35  1  0
 31 32  1  0
  1  4  1  0
 13 14  1  0
M  END
> <minimizedAffinity>
-12.29203

> <CNNscore>
0.9865196943

> <CNNaffinity>
8.1085977554

> <CNN_VS>
7.9992914200

> <CNNaffinity_variance>
1.1227893829

$$$$



 51 54  0  0  0  0  0  0  0  0999 V2000
   -3.2557   -4.0800   31.7988 N   0  0  0  0  0  0  0  0  0  0  0  0
   -2.9344   -3.7901   30.4919 C   0  0  0  0  0  0  0  0  0  0  0  0
   -3.7637   -3.4850   29.6435 O   0  0  0  0  0  0  0  0  0  0  0  0
   -2.5310   -4.3099   32.4243 H   0  0  0  0  0  0  0  0  0  0  0  0
   -1.4903   -3.8200   30.1273 C   0  0  0  0  0  0  0  0  0  0  0  0
   -0.9959   -2.7803   29.3259 C   0  0  0  0  0  0  0  0  0  0  0  0
    0.3539   -2.7588   28.9639 C   0  0  0  0  0  0  0  0  0  0  0  0
    1.2085   -3.7755   29.4009 C   0  0  0  0  0  0  0  0  0  0  0  0
    0.7088   -4.8339   30.1588 C   0  0  0  0  0  0  0  0  0  0  0  0
   -0.6358   -4.8514   30.5380 C   0  0  0  0  0  0  0  0  0  0  0  0
    0.9330   -1.6618   28.1504 C   0  0  0  0  0  0  0  0  0  0  0  0
    1.5828   -0.7813   28.7017 O   0  0  0  0  0  0  0  0  0  0  0  0
    0.7273   -1.7331   26.7920 N   0  0  0  0  0  0  0  0  0  0  0  0
    0.1850   -2.4681   26.4248 H   0  0  0  0  0  0  0  0  0  0  0  0
    1.2941   -0.7453   25.8863 C   0  0  0  0  0  0  0  0  0  0  0  0
    0.1842   -0.0751   25.0732 C   0  0  0  0  0  0  0  0  0  0  0  0
    2.3898   -1.3980   25.0613 C   0  0  0  0  0  0  0  0  0  0  0  0
    2.6850   -1.0180   23.7435 C   0  0  0  0  0  0  0  0  0  0  0  0
    3.6856   -1.6717   23.0190 C   0  0  0  0  0  0  0  0  0  0  0  0
    4.3943   -2.7246   23.5953 C   0  0  0  0  0  0  0  0  0  0  0  0
    4.1014   -3.1286   24.8939 C   0  0  0  0  0  0  0  0  0  0  0  0
    3.1070   -2.4716   25.6203 C   0  0  0  0  0  0  0  0  0  0  0  0
    1.6491   -5.8356   30.5828 N   0  0  0  0  0  0  0  0  0  0  0  0
    2.6343   -6.2460   29.5530 C   0  0  0  0  0  0  0  0  0  0  0  0
    2.3299   -5.6570   32.1415 S   0  0  0  0  0  0  0  0  0  0  0  0
    1.4557   -6.9035   33.0674 C   0  0  0  0  0  0  0  0  0  0  0  0
    1.9803   -4.3506   32.6564 O   0  0  0  0  0  0  0  0  0  0  0  0
    3.7162   -6.0686   32.0615 O   0  0  0  0  0  0  0  0  0  0  0  0
   -4.6461   -4.0594   32.2994 C   0  0  0  0  0  0  0  0  0  0  0  0
   -4.9072   -2.7541   33.1071 C   0  0  0  0  0  0  0  0  0  0  0  0
   -4.2992   -2.7774   34.4048 O   0  0  0  0  0  0  0  0  0  0  0  0
   -4.7021   -3.4804   34.9380 H   0  0  0  0  0  0  0  0  0  0  0  0
   -6.4169   -2.4631   33.2874 C   0  0  0  0  0  0  0  0  0  0  0  0
   -6.6808   -1.0088   33.3609 N   0  0  0  0  0  0  0  0  0  0  0  0
   -7.3572   -0.8339   34.1042 H   0  0  0  0  0  0  0  0  0  0  0  0
   -7.2158   -0.4836   32.1008 C   0  0  0  0  0  0  0  0  0  0  0  0
  -10.7024   -1.9705   32.6177 C   0  0  0  0  0  0  0  0  0  0  0  0
  -11.1181   -2.1498   31.2983 C   0  0  0  0  0  0  0  0  0  0  0  0
  -10.2762   -1.7868   30.2430 C   0  0  0  0  0  0  0  0  0  0  0  0
   -9.0155   -1.2484   30.5007 C   0  0  0  0  0  0  0  0  0  0  0  0
   -8.5791   -1.0686   31.8197 C   0  0  0  0  0  0  0  0  0  0  0  0
   -9.4374   -1.4288   32.8698 C   0  0  0  0  0  0  0  0  0  0  0  0
  -12.6973   -1.6618   33.8751 C   0  0  0  0  0  0  0  0  0  0  0  0
  -11.4237   -2.2808   33.7381 O   0  0  0  0  0  0  0  0  0  0  0  0
   -4.8921   -5.3518   33.1152 C   0  0  0  0  0  0  0  0  0  0  0  0
   -3.9591   -6.4938   32.7767 C   0  0  0  0  0  0  0  0  0  0  0  0
   -4.0119   -7.1064   31.5152 C   0  0  0  0  0  0  0  0  0  0  0  0
   -3.1411   -8.1500   31.1971 C   0  0  0  0  0  0  0  0  0  0  0  0
   -2.2066   -8.5884   32.1326 C   0  0  0  0  0  0  0  0  0  0  0  0
   -2.1431   -7.9856   33.3876 C   0  0  0  0  0  0  0  0  0  0  0  0
   -3.0140   -6.9430   33.7081 C   0  0  0  0  0  0  0  0  0  0  0  0
 43 44  1  0
 44 37  1  0
 37 38  2  0
 38 39  1  0
 39 40  2  0
 40 41  1  0
 41 36  1  0
 36 34  1  0
 34 33  1  0
 33 30  1  0
 30 31  1  0
 30 29  1  0
 29 45  1  0
 45 46  1  0
 46 47  2  0
 47 48  1  0
 48 49  2  0
 49 50  1  0
 50 51  2  0
 29  1  1  0
  1  2  1  0
  2  3  2  0
  2  5  1  0
  5  6  2  0
  6  7  1  0
  7 11  1  0
 11 12  2  0
 11 13  1  0
 13 15  1  0
 15 16  1  0
 15 17  1  0
 17 18  2  0
 18 19  1  0
 19 20  2  0
 20 21  1  0
 21 22  2  0
  7  8  2  0
  8  9  1  0
  9 23  1  0
 23 24  1  0
 23 25  1  0
 25 26  1  0
 25 27  2  0
 25 28  2  0
  9 10  2  0
 41 42  2  0
 42 37  1  0
 51 46  1  0
 10  5  1  0
 22 17  1  0
 34 35  1  0
 31 32  1  0
  1  4  1  0
 13 14  1  0
M  END
> <minimizedAffinity>
-10.79168

> <CNNscore>
0.9503650665

> <CNNaffinity>
7.6997795105

> <CNN_VS>
7.3176016808

> <CNNaffinity_variance>
0.9339299202

$$$$



 51 54  0  0  0  0  0  0  0  0999 V2000
   -3.5109   -4.0996   31.9066 N   0  0  0  0  0  0  0  0  0  0  0  0
   -3.3859   -3.8205   30.5643 C   0  0  0  0  0  0  0  0  0  0  0  0
   -4.3404   -3.7181   29.8034 O   0  0  0  0  0  0  0  0  0  0  0  0
   -2.6957   -4.1588   32.4554 H   0  0  0  0  0  0  0  0  0  0  0  0
   -2.0076   -3.5987   30.0446 C   0  0  0  0  0  0  0  0  0  0  0  0
   -1.0235   -4.5417   30.3760 C   0  0  0  0  0  0  0  0  0  0  0  0
    0.2829   -4.3828   29.9054 C   0  0  0  0  0  0  0  0  0  0  0  0
    0.6061   -3.2823   29.1057 C   0  0  0  0  0  0  0  0  0  0  0  0
   -0.3598   -2.3199   28.8139 C   0  0  0  0  0  0  0  0  0  0  0  0
   -1.6713   -2.4828   29.2671 C   0  0  0  0  0  0  0  0  0  0  0  0
    1.3497   -5.3717   30.1961 C   0  0  0  0  0  0  0  0  0  0  0  0
    1.2990   -6.0260   31.2309 O   0  0  0  0  0  0  0  0  0  0  0  0
    2.3270   -5.5167   29.2388 N   0  0  0  0  0  0  0  0  0  0  0  0
    2.3040   -4.9464   28.4366 H   0  0  0  0  0  0  0  0  0  0  0  0
    3.3940   -6.4950   29.3865 C   0  0  0  0  0  0  0  0  0  0  0  0
    3.8501   -6.5636   30.8458 C   0  0  0  0  0  0  0  0  0  0  0  0
    4.4930   -6.1873   28.3841 C   0  0  0  0  0  0  0  0  0  0  0  0
    4.5298   -5.0068   27.6271 C   0  0  0  0  0  0  0  0  0  0  0  0
    5.5497   -4.7864   26.6971 C   0  0  0  0  0  0  0  0  0  0  0  0
    6.5380   -5.7493   26.4990 C   0  0  0  0  0  0  0  0  0  0  0  0
    6.5062   -6.9349   27.2261 C   0  0  0  0  0  0  0  0  0  0  0  0
    5.4918   -7.1525   28.1599 C   0  0  0  0  0  0  0  0  0  0  0  0
    0.0423   -1.2232   27.9755 N   0  0  0  0  0  0  0  0  0  0  0  0
    1.4833   -0.8792   28.0423 C   0  0  0  0  0  0  0  0  0  0  0  0
   -0.5937   -1.1800   26.3885 S   0  0  0  0  0  0  0  0  0  0  0  0
    0.6817   -0.3014   25.5072 C   0  0  0  0  0  0  0  0  0  0  0  0
   -1.8027   -0.3847   26.3918 O   0  0  0  0  0  0  0  0  0  0  0  0
   -0.6094   -2.5390   25.8880 O   0  0  0  0  0  0  0  0  0  0  0  0
   -4.8211   -4.3137   32.5559 C   0  0  0  0  0  0  0  0  0  0  0  0
   -5.1987   -3.0781   33.4249 C   0  0  0  0  0  0  0  0  0  0  0  0
   -6.2276   -3.3687   34.3794 O   0  0  0  0  0  0  0  0  0  0  0  0
   -7.0460   -3.5994   33.9126 H   0  0  0  0  0  0  0  0  0  0  0  0
   -5.6610   -1.8735   32.5697 C   0  0  0  0  0  0  0  0  0  0  0  0
   -6.7013   -1.0848   33.2668 N   0  0  0  0  0  0  0  0  0  0  0  0
   -7.3032   -1.7218   33.7886 H   0  0  0  0  0  0  0  0  0  0  0  0
   -7.5258   -0.3147   32.3303 C   0  0  0  0  0  0  0  0  0  0  0  0
  -10.4876   -2.7077   32.6994 C   0  0  0  0  0  0  0  0  0  0  0  0
  -11.2877   -2.3149   31.6265 C   0  0  0  0  0  0  0  0  0  0  0  0
  -10.8744   -1.2757   30.7877 C   0  0  0  0  0  0  0  0  0  0  0  0
   -9.6595   -0.6287   31.0139 C   0  0  0  0  0  0  0  0  0  0  0  0
   -8.8401   -1.0156   32.0822 C   0  0  0  0  0  0  0  0  0  0  0  0
   -9.2708   -2.0541   32.9219 C   0  0  0  0  0  0  0  0  0  0  0  0
  -11.8738   -3.4892   34.4667 C   0  0  0  0  0  0  0  0  0  0  0  0
  -10.7718   -3.7039   33.5932 O   0  0  0  0  0  0  0  0  0  0  0  0
   -4.7609   -5.6378   33.3556 C   0  0  0  0  0  0  0  0  0  0  0  0
   -3.7638   -6.6450   32.8261 C   0  0  0  0  0  0  0  0  0  0  0  0
   -2.6178   -6.9701   33.5679 C   0  0  0  0  0  0  0  0  0  0  0  0
   -1.7052   -7.9106   33.0868 C   0  0  0  0  0  0  0  0  0  0  0  0
   -1.9303   -8.5387   31.8638 C   0  0  0  0  0  0  0  0  0  0  0  0
   -3.0664   -8.2257   31.1197 C   0  0  0  0  0  0  0  0  0  0  0  0
   -3.9792   -7.2846   31.5984 C   0  0  0  0  0  0  0  0  0  0  0  0
 43 44  1  0
 44 37  1  0
 37 38  2  0
 38 39  1  0
 39 40  2  0
 40 41  1  0
 41 36  1  0
 36 34  1  0
 34 33  1  0
 33 30  1  0
 30 31  1  0
 30 29  1  0
 29 45  1  0
 45 46  1  0
 46 47  2  0
 47 48  1  0
 48 49  2  0
 49 50  1  0
 50 51  2  0
 29  1  1  0
  1  2  1  0
  2  3  2  0
  2  5  1  0
  5  6  2  0
  6  7  1  0
  7 11  1  0
 11 12  2  0
 11 13  1  0
 13 15  1  0
 15 16  1  0
 15 17  1  0
 17 18  2  0
 18 19  1  0
 19 20  2  0
 20 21  1  0
 21 22  2  0
  7  8  2  0
  8  9  1  0
  9 23  1  0
 23 24  1  0
 23 25  1  0
 25 26  1  0
 25 27  2  0
 25 28  2  0
  9 10  2  0
 41 42  2  0
 42 37  1  0
 51 46  1  0
 10  5  1  0
 22 17  1  0
 34 35  1  0
 31 32  1  0
  1  4  1  0
 13 14  1  0
M  END
> <minimizedAffinity>
-10.99333

> <CNNscore>
0.8059710264

> <CNNaffinity>
7.4125609398

> <CNN_VS>
5.9743094444

> <CNNaffinity_variance>
1.0506281853

$$$$



 51 54  0  0  0  0  0  0  0  0999 V2000
   -3.2457   -4.1772   31.7643 N   0  0  0  0  0  0  0  0  0  0  0  0
   -2.9279   -3.8208   30.4730 C   0  0  0  0  0  0  0  0  0  0  0  0
   -3.7593   -3.4711   29.6442 O   0  0  0  0  0  0  0  0  0  0  0  0
   -2.5195   -4.4403   32.3748 H   0  0  0  0  0  0  0  0  0  0  0  0
   -1.4850   -3.8341   30.1028 C   0  0  0  0  0  0  0  0  0  0  0  0
   -1.0049   -2.7867   29.3026 C   0  0  0  0  0  0  0  0  0  0  0  0
    0.3431   -2.7496   28.9356 C   0  0  0  0  0  0  0  0  0  0  0  0
    1.2103   -3.7583   29.3662 C   0  0  0  0  0  0  0  0  0  0  0  0
    0.7249   -4.8243   30.1228 C   0  0  0  0  0  0  0  0  0  0  0  0
   -0.6179   -4.8574   30.5072 C   0  0  0  0  0  0  0  0  0  0  0  0
    0.9072   -1.6441   28.1231 C   0  0  0  0  0  0  0  0  0  0  0  0
    1.5832   -0.7797   28.6685 O   0  0  0  0  0  0  0  0  0  0  0  0
    0.6578   -1.6894   26.7710 N   0  0  0  0  0  0  0  0  0  0  0  0
    0.0966   -2.4126   26.4086 H   0  0  0  0  0  0  0  0  0  0  0  0
    1.2056   -0.6912   25.8649 C   0  0  0  0  0  0  0  0  0  0  0  0
    0.0816   -0.0331   25.0612 C   0  0  0  0  0  0  0  0  0  0  0  0
    2.3044   -1.3267   25.0306 C   0  0  0  0  0  0  0  0  0  0  0  0
    2.9774   -2.4962   25.4144 C   0  0  0  0  0  0  0  0  0  0  0  0
    4.0012   -3.0235   24.6224 C   0  0  0  0  0  0  0  0  0  0  0  0
    4.3778   -2.3807   23.4442 C   0  0  0  0  0  0  0  0  0  0  0  0
    3.7354   -1.2088   23.0581 C   0  0  0  0  0  0  0  0  0  0  0  0
    2.7082   -0.6856   23.8451 C   0  0  0  0  0  0  0  0  0  0  0  0
    1.6776   -5.8171   30.5402 N   0  0  0  0  0  0  0  0  0  0  0  0
    2.6938   -6.1774   29.5220 C   0  0  0  0  0  0  0  0  0  0  0  0
    2.3202   -5.6674   32.1181 S   0  0  0  0  0  0  0  0  0  0  0  0
    1.4127   -6.9201   33.0028 C   0  0  0  0  0  0  0  0  0  0  0  0
    1.9683   -4.3659   32.6437 O   0  0  0  0  0  0  0  0  0  0  0  0
    3.7046   -6.0895   32.0668 O   0  0  0  0  0  0  0  0  0  0  0  0
   -4.6345   -4.1804   32.2696 C   0  0  0  0  0  0  0  0  0  0  0  0
   -4.9101   -2.8872   33.0919 C   0  0  0  0  0  0  0  0  0  0  0  0
   -4.3577   -2.9454   34.4132 O   0  0  0  0  0  0  0  0  0  0  0  0
   -4.7930   -3.6524   34.9148 H   0  0  0  0  0  0  0  0  0  0  0  0
   -6.4216   -2.5763   33.2149 C   0  0  0  0  0  0  0  0  0  0  0  0
   -7.0338   -2.3429   31.8879 N   0  0  0  0  0  0  0  0  0  0  0  0
   -6.3407   -1.9111   31.2767 H   0  0  0  0  0  0  0  0  0  0  0  0
   -8.2050   -1.4645   31.9707 C   0  0  0  0  0  0  0  0  0  0  0  0
   -8.5503    1.9947   30.3739 C   0  0  0  0  0  0  0  0  0  0  0  0
   -7.2498    2.4827   30.5024 C   0  0  0  0  0  0  0  0  0  0  0  0
   -6.2638    1.6984   31.1079 C   0  0  0  0  0  0  0  0  0  0  0  0
   -6.5709    0.4232   31.5828 C   0  0  0  0  0  0  0  0  0  0  0  0
   -7.8699   -0.0854   31.4550 C   0  0  0  0  0  0  0  0  0  0  0  0
   -8.8525    0.7156   30.8532 C   0  0  0  0  0  0  0  0  0  0  0  0
  -10.7404    1.8721   29.4551 C   0  0  0  0  0  0  0  0  0  0  0  0
   -9.6053    2.6549   29.8055 O   0  0  0  0  0  0  0  0  0  0  0  0
   -4.8606   -5.4844   33.0726 C   0  0  0  0  0  0  0  0  0  0  0  0
   -3.9236   -6.6151   32.7083 C   0  0  0  0  0  0  0  0  0  0  0  0
   -3.9685   -7.1936   31.4305 C   0  0  0  0  0  0  0  0  0  0  0  0
   -3.0939   -8.2266   31.0890 C   0  0  0  0  0  0  0  0  0  0  0  0
   -2.1635   -8.6884   32.0173 C   0  0  0  0  0  0  0  0  0  0  0  0
   -2.1079   -8.1196   33.2884 C   0  0  0  0  0  0  0  0  0  0  0  0
   -2.9824   -7.0876   33.6323 C   0  0  0  0  0  0  0  0  0  0  0  0
 43 44  1  0
 44 37  1  0
 37 38  2  0
 38 39  1  0
 39 40  2  0
 40 41  1  0
 41 36  1  0
 36 34  1  0
 34 33  1  0
 33 30  1  0
 30 31  1  0
 30 29  1  0
 29 45  1  0
 45 46  1  0
 46 47  2  0
 47 48  1  0
 48 49  2  0
 49 50  1  0
 50 51  2  0
 29  1  1  0
  1  2  1  0
  2  3  2  0
  2  5  1  0
  5  6  2  0
  6  7  1  0
  7 11  1  0
 11 12  2  0
 11 13  1  0
 13 15  1  0
 15 16  1  0
 15 17  1  0
 17 18  2  0
 18 19  1  0
 19 20  2  0
 20 21  1  0
 21 22  2  0
  7  8  2  0
  8  9  1  0
  9 23  1  0
 23 24  1  0
 23 25  1  0
 25 26  1  0
 25 27  2  0
 25 28  2  0
  9 10  2  0
 41 42  2  0
 42 37  1  0
 51 46  1  0
 10  5  1  0
 22 17  1  0
 34 35  1  0
 31 32  1  0
  1  4  1  0
 13 14  1  0
M  END
> <minimizedAffinity>
-10.75921

> <CNNscore>
0.7802321315

> <CNNaffinity>
7.2681431770

> <CNN_VS>
5.6708388329

> <CNNaffinity_variance>
0.8299086094

$$$$



 51 54  0  0  0  0  0  0  0  0999 V2000
   -3.4856   -3.9525   31.8005 N   0  0  0  0  0  0  0  0  0  0  0  0
   -3.3756   -3.6493   30.4621 C   0  0  0  0  0  0  0  0  0  0  0  0
   -4.3375   -3.5494   29.7104 O   0  0  0  0  0  0  0  0  0  0  0  0
   -2.6653   -4.0080   32.3420 H   0  0  0  0  0  0  0  0  0  0  0  0
   -2.0051   -3.3973   29.9357 C   0  0  0  0  0  0  0  0  0  0  0  0
   -0.9809   -4.2701   30.3319 C   0  0  0  0  0  0  0  0  0  0  0  0
    0.3203   -4.0810   29.8582 C   0  0  0  0  0  0  0  0  0  0  0  0
    0.5984   -3.0202   28.9907 C   0  0  0  0  0  0  0  0  0  0  0  0
   -0.4088   -2.1247   28.6328 C   0  0  0  0  0  0  0  0  0  0  0  0
   -1.7148   -2.3192   29.0895 C   0  0  0  0  0  0  0  0  0  0  0  0
    1.4295   -4.9982   30.2172 C   0  0  0  0  0  0  0  0  0  0  0  0
    1.6061   -5.2994   31.3917 O   0  0  0  0  0  0  0  0  0  0  0  0
    2.1783   -5.4908   29.1735 N   0  0  0  0  0  0  0  0  0  0  0  0
    1.9802   -5.1935   28.2561 H   0  0  0  0  0  0  0  0  0  0  0  0
    3.2567   -6.4419   29.3965 C   0  0  0  0  0  0  0  0  0  0  0  0
    3.4869   -6.6379   30.8968 C   0  0  0  0  0  0  0  0  0  0  0  0
    4.4798   -5.9998   28.6116 C   0  0  0  0  0  0  0  0  0  0  0  0
    4.4720   -4.9043   27.7354 C   0  0  0  0  0  0  0  0  0  0  0  0
    5.6187   -4.5576   27.0155 C   0  0  0  0  0  0  0  0  0  0  0  0
    6.7845   -5.3102   27.1490 C   0  0  0  0  0  0  0  0  0  0  0  0
    6.8048   -6.4121   27.9978 C   0  0  0  0  0  0  0  0  0  0  0  0
    5.6619   -6.7547   28.7221 C   0  0  0  0  0  0  0  0  0  0  0  0
   -0.0514   -1.0665   27.7273 N   0  0  0  0  0  0  0  0  0  0  0  0
    1.3770   -0.6692   27.7606 C   0  0  0  0  0  0  0  0  0  0  0  0
   -0.6995   -1.1401   26.1463 S   0  0  0  0  0  0  0  0  0  0  0  0
    0.5358   -0.2678   25.2038 C   0  0  0  0  0  0  0  0  0  0  0  0
   -1.9375   -0.3915   26.1143 O   0  0  0  0  0  0  0  0  0  0  0  0
   -0.6674   -2.5257   25.7261 O   0  0  0  0  0  0  0  0  0  0  0  0
   -4.7872   -4.1980   32.4561 C   0  0  0  0  0  0  0  0  0  0  0  0
   -5.2738   -2.9103   33.1838 C   0  0  0  0  0  0  0  0  0  0  0  0
   -5.9453   -3.1944   34.4178 O   0  0  0  0  0  0  0  0  0  0  0  0
   -6.7562   -3.6951   34.2368 H   0  0  0  0  0  0  0  0  0  0  0  0
   -6.2208   -2.0574   32.3051 C   0  0  0  0  0  0  0  0  0  0  0  0
   -7.2866   -1.4270   33.1156 N   0  0  0  0  0  0  0  0  0  0  0  0
   -7.4065   -1.9622   33.9756 H   0  0  0  0  0  0  0  0  0  0  0  0
   -8.5666   -1.3849   32.4016 C   0  0  0  0  0  0  0  0  0  0  0  0
   -9.6703    1.2495   29.8567 C   0  0  0  0  0  0  0  0  0  0  0  0
   -9.0429    2.3897   30.3588 C   0  0  0  0  0  0  0  0  0  0  0  0
   -8.2685    2.3096   31.5199 C   0  0  0  0  0  0  0  0  0  0  0  0
   -8.1139    1.0910   32.1809 C   0  0  0  0  0  0  0  0  0  0  0  0
   -8.7307   -0.0654   31.6862 C   0  0  0  0  0  0  0  0  0  0  0  0
   -9.5126    0.0305   30.5248 C   0  0  0  0  0  0  0  0  0  0  0  0
  -11.6993    1.8728   28.7841 C   0  0  0  0  0  0  0  0  0  0  0  0
  -10.4528    1.1887   28.7361 O   0  0  0  0  0  0  0  0  0  0  0  0
   -4.6404   -5.4209   33.3938 C   0  0  0  0  0  0  0  0  0  0  0  0
   -3.7400   -6.5142   32.8617 C   0  0  0  0  0  0  0  0  0  0  0  0
   -2.6384   -6.9565   33.6102 C   0  0  0  0  0  0  0  0  0  0  0  0
   -1.8161   -7.9757   33.1265 C   0  0  0  0  0  0  0  0  0  0  0  0
   -2.0883   -8.5660   31.8943 C   0  0  0  0  0  0  0  0  0  0  0  0
   -3.1812   -8.1366   31.1436 C   0  0  0  0  0  0  0  0  0  0  0  0
   -4.0036   -7.1168   31.6248 C   0  0  0  0  0  0  0  0  0  0  0  0
 43 44  1  0
 44 37  1  0
 37 38  2  0
 38 39  1  0
 39 40  2  0
 40 41  1  0
 41 36  1  0
 36 34  1  0
 34 33  1  0
 33 30  1  0
 30 31  1  0
 30 29  1  0
 29 45  1  0
 45 46  1  0
 46 47  2  0
 47 48  1  0
 48 49  2  0
 49 50  1  0
 50 51  2  0
 29  1  1  0
  1  2  1  0
  2  3  2  0
  2  5  1  0
  5  6  2  0
  6  7  1  0
  7 11  1  0
 11 12  2  0
 11 13  1  0
 13 15  1  0
 15 16  1  0
 15 17  1  0
 17 18  2  0
 18 19  1  0
 19 20  2  0
 20 21  1  0
 21 22  2  0
  7  8  2  0
  8  9  1  0
  9 23  1  0
 23 24  1  0
 23 25  1  0
 25 26  1  0
 25 27  2  0
 25 28  2  0
  9 10  2  0
 41 42  2  0
 42 37  1  0
 51 46  1  0
 10  5  1  0
 22 17  1  0
 34 35  1  0
 31 32  1  0
  1  4  1  0
 13 14  1  0
M  END
> <minimizedAffinity>
-10.89107

> <CNNscore>
0.6445932984

> <CNNaffinity>
7.1757969856

> <CNN_VS>
4.6254706383

> <CNNaffinity_variance>
1.1651520729

$$$$



 51 54  0  0  0  0  0  0  0  0999 V2000
    0.4820   -5.2739   32.2072 N   0  0  0  0  0  0  0  0  0  0  0  0
    0.7010   -5.0950   30.8599 C   0  0  0  0  0  0  0  0  0  0  0  0
    1.5587   -5.6999   30.2282 O   0  0  0  0  0  0  0  0  0  0  0  0
   -0.2321   -4.7552   32.6433 H   0  0  0  0  0  0  0  0  0  0  0  0
   -0.1919   -4.1367   30.1503 C   0  0  0  0  0  0  0  0  0  0  0  0
   -1.5199   -4.0313   30.5898 C   0  0  0  0  0  0  0  0  0  0  0  0
   -2.3946   -3.1400   29.9623 C   0  0  0  0  0  0  0  0  0  0  0  0
   -1.9436   -2.3559   28.8961 C   0  0  0  0  0  0  0  0  0  0  0  0
   -0.6372   -2.4931   28.4283 C   0  0  0  0  0  0  0  0  0  0  0  0
    0.2464   -3.3698   29.0630 C   0  0  0  0  0  0  0  0  0  0  0  0
   -3.7966   -2.9640   30.4140 C   0  0  0  0  0  0  0  0  0  0  0  0
   -4.7060   -3.4699   29.7670 O   0  0  0  0  0  0  0  0  0  0  0  0
   -3.9796   -2.2590   31.5810 N   0  0  0  0  0  0  0  0  0  0  0  0
   -3.1977   -1.8746   32.0393 H   0  0  0  0  0  0  0  0  0  0  0  0
   -5.3043   -2.0694   32.1527 C   0  0  0  0  0  0  0  0  0  0  0  0
   -6.1762   -3.2985   31.8858 C   0  0  0  0  0  0  0  0  0  0  0  0
   -5.8778   -0.7546   31.6531 C   0  0  0  0  0  0  0  0  0  0  0  0
   -5.1172    0.1971   30.9576 C   0  0  0  0  0  0  0  0  0  0  0  0
   -5.6881    1.4043   30.5448 C   0  0  0  0  0  0  0  0  0  0  0  0
   -7.0225    1.6842   30.8351 C   0  0  0  0  0  0  0  0  0  0  0  0
   -7.7865    0.7610   31.5415 C   0  0  0  0  0  0  0  0  0  0  0  0
   -7.2188   -0.4476   31.9480 C   0  0  0  0  0  0  0  0  0  0  0  0
   -0.2408   -1.6446   27.3372 N   0  0  0  0  0  0  0  0  0  0  0  0
   -1.3214   -0.7962   26.7789 C   0  0  0  0  0  0  0  0  0  0  0  0
    1.2550   -0.8291   27.4864 S   0  0  0  0  0  0  0  0  0  0  0  0
    2.3753   -1.9743   26.7062 C   0  0  0  0  0  0  0  0  0  0  0  0
    1.5890   -0.7199   28.8902 O   0  0  0  0  0  0  0  0  0  0  0  0
    1.1921    0.3529   26.6518 O   0  0  0  0  0  0  0  0  0  0  0  0
    1.2773   -6.2141   33.0244 C   0  0  0  0  0  0  0  0  0  0  0  0
    2.7962   -6.0195   32.7422 C   0  0  0  0  0  0  0  0  0  0  0  0
    3.1906   -4.6420   32.7717 O   0  0  0  0  0  0  0  0  0  0  0  0
    2.7449   -4.1626   32.0558 H   0  0  0  0  0  0  0  0  0  0  0  0
    3.2246   -6.6144   31.3788 C   0  0  0  0  0  0  0  0  0  0  0  0
    4.6262   -6.2669   31.0552 N   0  0  0  0  0  0  0  0  0  0  0  0
    4.7527   -5.2620   31.1760 H   0  0  0  0  0  0  0  0  0  0  0  0
    4.9768   -6.6260   29.6775 C   0  0  0  0  0  0  0  0  0  0  0  0
    7.9400   -4.2625   29.1595 C   0  0  0  0  0  0  0  0  0  0  0  0
    7.5937   -3.6555   27.9523 C   0  0  0  0  0  0  0  0  0  0  0  0
    6.4078   -4.0119   27.3037 C   0  0  0  0  0  0  0  0  0  0  0  0
    5.5615   -4.9714   27.8597 C   0  0  0  0  0  0  0  0  0  0  0  0
    5.8902   -5.5854   29.0752 C   0  0  0  0  0  0  0  0  0  0  0  0
    7.0879   -5.2250   29.7116 C   0  0  0  0  0  0  0  0  0  0  0  0
    9.9354   -5.1073   30.1397 C   0  0  0  0  0  0  0  0  0  0  0  0
    9.0657   -4.0085   29.8945 O   0  0  0  0  0  0  0  0  0  0  0  0
    0.7749   -7.6515   32.7452 C   0  0  0  0  0  0  0  0  0  0  0  0
   -0.6509   -7.7311   32.2455 C   0  0  0  0  0  0  0  0  0  0  0  0
   -1.7131   -7.2915   33.0504 C   0  0  0  0  0  0  0  0  0  0  0  0
   -3.0275   -7.3506   32.5840 C   0  0  0  0  0  0  0  0  0  0  0  0
   -3.2935   -7.8442   31.3087 C   0  0  0  0  0  0  0  0  0  0  0  0
   -2.2463   -8.2811   30.4994 C   0  0  0  0  0  0  0  0  0  0  0  0
   -0.9316   -8.2241   30.9646 C   0  0  0  0  0  0  0  0  0  0  0  0
 43 44  1  0
 44 37  1  0
 37 38  2  0
 38 39  1  0
 39 40  2  0
 40 41  1  0
 41 36  1  0
 36 34  1  0
 34 33  1  0
 33 30  1  0
 30 31  1  0
 30 29  1  0
 29 45  1  0
 45 46  1  0
 46 47  2  0
 47 48  1  0
 48 49  2  0
 49 50  1  0
 50 51  2  0
 29  1  1  0
  1  2  1  0
  2  3  2  0
  2  5  1  0
  5  6  2  0
  6  7  1  0
  7 11  1  0
 11 12  2  0
 11 13  1  0
 13 15  1  0
 15 16  1  0
 15 17  1  0
 17 18  2  0
 18 19  1  0
 19 20  2  0
 20 21  1  0
 21 22  2  0
  7  8  2  0
  8  9  1  0
  9 23  1  0
 23 24  1  0
 23 25  1  0
 25 26  1  0
 25 27  2  0
 25 28  2  0
  9 10  2  0
 41 42  2  0
 42 37  1  0
 51 46  1  0
 10  5  1  0
 22 17  1  0
 34 35  1  0
 31 32  1  0
  1  4  1  0
 13 14  1  0
M  END
> <minimizedAffinity>
-9.87890

> <CNNscore>
0.4749822617

> <CNNaffinity>
6.9024257660

> <CNN_VS>
3.2785298824

> <CNNaffinity_variance>
1.2552176714

$$$$



 51 54  0  0  0  0  0  0  0  0999 V2000
    0.4661   -5.2225   32.2240 N   0  0  0  0  0  0  0  0  0  0  0  0
    0.6869   -5.0657   30.8742 C   0  0  0  0  0  0  0  0  0  0  0  0
    1.5449   -5.6815   30.2536 O   0  0  0  0  0  0  0  0  0  0  0  0
   -0.2483   -4.6962   32.6507 H   0  0  0  0  0  0  0  0  0  0  0  0
   -0.2043   -4.1184   30.1480 C   0  0  0  0  0  0  0  0  0  0  0  0
   -1.5376   -4.0182   30.5724 C   0  0  0  0  0  0  0  0  0  0  0  0
   -2.4111   -3.1372   29.9289 C   0  0  0  0  0  0  0  0  0  0  0  0
   -1.9536   -2.3581   28.8617 C   0  0  0  0  0  0  0  0  0  0  0  0
   -0.6414   -2.4905   28.4091 C   0  0  0  0  0  0  0  0  0  0  0  0
    0.2408   -3.3568   29.0597 C   0  0  0  0  0  0  0  0  0  0  0  0
   -3.8190   -2.9669   30.3641 C   0  0  0  0  0  0  0  0  0  0  0  0
   -4.7094   -3.5649   29.7715 O   0  0  0  0  0  0  0  0  0  0  0  0
   -4.0280   -2.1581   31.4572 N   0  0  0  0  0  0  0  0  0  0  0  0
   -3.2605   -1.7038   31.8741 H   0  0  0  0  0  0  0  0  0  0  0  0
   -5.3592   -1.9598   32.0103 C   0  0  0  0  0  0  0  0  0  0  0  0
   -6.2506   -3.1610   31.6866 C   0  0  0  0  0  0  0  0  0  0  0  0
   -5.8963   -0.6175   31.5443 C   0  0  0  0  0  0  0  0  0  0  0  0
   -5.1180    0.3177   30.8462 C   0  0  0  0  0  0  0  0  0  0  0  0
   -5.6544    1.5508   30.4652 C   0  0  0  0  0  0  0  0  0  0  0  0
   -6.9710    1.8732   30.7906 C   0  0  0  0  0  0  0  0  0  0  0  0
   -7.7515    0.9664   31.5003 C   0  0  0  0  0  0  0  0  0  0  0  0
   -7.2185   -0.2679   31.8749 C   0  0  0  0  0  0  0  0  0  0  0  0
   -0.2386   -1.6476   27.3160 N   0  0  0  0  0  0  0  0  0  0  0  0
   -1.3164   -0.8036   26.7456 C   0  0  0  0  0  0  0  0  0  0  0  0
    1.2551   -0.8293   27.4709 S   0  0  0  0  0  0  0  0  0  0  0  0
    2.3877   -1.9940   26.7386 C   0  0  0  0  0  0  0  0  0  0  0  0
    1.5650   -0.6856   28.8771 O   0  0  0  0  0  0  0  0  0  0  0  0
    1.2077    0.3318   26.6064 O   0  0  0  0  0  0  0  0  0  0  0  0
    1.2595   -6.1499   33.0574 C   0  0  0  0  0  0  0  0  0  0  0  0
    2.7774   -5.8310   32.9202 C   0  0  0  0  0  0  0  0  0  0  0  0
    3.0353   -4.4290   32.7724 O   0  0  0  0  0  0  0  0  0  0  0  0
    2.6427   -4.1136   31.9433 H   0  0  0  0  0  0  0  0  0  0  0  0
    3.4306   -6.5697   31.7269 C   0  0  0  0  0  0  0  0  0  0  0  0
    4.5102   -5.7612   31.1178 N   0  0  0  0  0  0  0  0  0  0  0  0
    4.0923   -4.9746   30.6209 H   0  0  0  0  0  0  0  0  0  0  0  0
    5.3159   -6.5430   30.1746 C   0  0  0  0  0  0  0  0  0  0  0  0
    3.5433   -8.1199   27.1736 C   0  0  0  0  0  0  0  0  0  0  0  0
    3.2316   -6.9889   26.4190 C   0  0  0  0  0  0  0  0  0  0  0  0
    3.5886   -5.7185   26.8802 C   0  0  0  0  0  0  0  0  0  0  0  0
    4.2618   -5.5729   28.0932 C   0  0  0  0  0  0  0  0  0  0  0  0
    4.5895   -6.6986   28.8601 C   0  0  0  0  0  0  0  0  0  0  0  0
    4.2174   -7.9674   28.3899 C   0  0  0  0  0  0  0  0  0  0  0  0
    1.8926   -9.7151   26.5521 C   0  0  0  0  0  0  0  0  0  0  0  0
    3.2528   -9.4148   26.8408 O   0  0  0  0  0  0  0  0  0  0  0  0
    0.8933   -7.6006   32.6602 C   0  0  0  0  0  0  0  0  0  0  0  0
   -0.5312   -7.7791   32.1829 C   0  0  0  0  0  0  0  0  0  0  0  0
   -1.6090   -7.4590   33.0228 C   0  0  0  0  0  0  0  0  0  0  0  0
   -2.9235   -7.6092   32.5775 C   0  0  0  0  0  0  0  0  0  0  0  0
   -3.1745   -8.0753   31.2889 C   0  0  0  0  0  0  0  0  0  0  0  0
   -2.1120   -8.3937   30.4450 C   0  0  0  0  0  0  0  0  0  0  0  0
   -0.7971   -8.2456   30.8889 C   0  0  0  0  0  0  0  0  0  0  0  0
 43 44  1  0
 44 37  1  0
 37 38  2  0
 38 39  1  0
 39 40  2  0
 40 41  1  0
 41 36  1  0
 36 34  1  0
 34 33  1  0
 33 30  1  0
 30 31  1  0
 30 29  1  0
 29 45  1  0
 45 46  1  0
 46 47  2  0
 47 48  1  0
 48 49  2  0
 49 50  1  0
 50 51  2  0
 29  1  1  0
  1  2  1  0
  2  3  2  0
  2  5  1  0
  5  6  2  0
  6  7  1  0
  7 11  1  0
 11 12  2  0
 11 13  1  0
 13 15  1  0
 15 16  1  0
 15 17  1  0
 17 18  2  0
 18 19  1  0
 19 20  2  0
 20 21  1  0
 21 22  2  0
  7  8  2  0
  8  9  1  0
  9 23  1  0
 23 24  1  0
 23 25  1  0
 25 26  1  0
 25 27  2  0
 25 28  2  0
  9 10  2  0
 41 42  2  0
 42 37  1  0
 51 46  1  0
 10  5  1  0
 22 17  1  0
 34 35  1  0
 31 32  1  0
  1  4  1  0
 13 14  1  0
M  END
> <minimizedAffinity>
-9.18158

> <CNNscore>
0.4375128150

> <CNNaffinity>
6.7826895714

> <CNN_VS>
2.9675135612

> <CNNaffinity_variance>
1.6305209398

$$$$
