


 16 17  0  0  0  0  0  0  0  0999 V2000
  -15.5731   51.2443    0.3265 N   0  0  0  0  0  0  0  0  0  0  0  0
  -16.5574   50.4727   -0.4191 C   0  0  0  0  0  0  0  0  0  0  0  0
  -16.5554   49.1129    0.0469 N   0  0  0  0  0  0  0  0  0  0  0  0
  -17.1770   48.9790    1.5883 S   0  0  0  0  0  0  0  0  0  0  0  0
  -18.5702   49.3614    1.5560 O   0  0  0  0  0  0  0  0  0  0  0  0
  -16.7375   47.6995    2.0972 O   0  0  0  0  0  0  0  0  0  0  0  0
  -16.3064   50.2291    2.4314 C   0  0  0  0  0  0  0  0  0  0  0  0
  -16.2969   50.1815    3.8159 C   0  0  0  0  0  0  0  0  0  0  0  0
  -15.6160   51.0628    4.5753 N   0  0  0  0  0  0  0  0  0  0  0  0
  -14.9113   52.0003    3.9125 C   0  0  0  0  0  0  0  0  0  0  0  0
  -13.9177   53.2432    4.9465 Br  0  0  0  0  0  0  0  0  0  0  0  0
  -14.8686   52.0993    2.5219 C   0  0  0  0  0  0  0  0  0  0  0  0
  -15.5966   51.2042    1.7235 C   0  0  0  0  0  0  0  0  0  0  0  0
  -15.5960   48.7666    0.0476 H   0  0  0  0  0  0  0  0  0  0  0  0
  -16.0899   53.4815   -0.5415 C   0  0  0  0  0  0  0  0  0  0  0  0
  -15.0243   52.4064   -0.3903 C   0  0  0  0  0  0  0  0  0  0  0  0
 15 16  1  0
 16  1  1  0
  1  2  1  0
  2  3  1  0
  3  4  1  0
  4  5  2  0
  4  6  2  0
  4  7  1  0
  7  8  2  0
  8  9  1  0
  9 10  2  0
 10 11  1  0
 10 12  1  0
 12 13  2  0
 13  1  1  0
 13  7  1  0
  3 14  1  0
M  END
> <minimizedAffinity>
-5.14258

> <CNNscore>
0.8146591783

> <CNNaffinity>
4.2158279419

> <CNN_VS>
3.4344630241

> <CNNaffinity_variance>
0.2238655537

$$$$



 16 17  0  0  0  0  0  0  0  0999 V2000
   -6.8231   51.7312    2.9455 N   0  0  0  0  0  0  0  0  0  0  0  0
   -6.3137   52.8857    2.2190 C   0  0  0  0  0  0  0  0  0  0  0  0
   -7.2629   53.9621    2.3005 N   0  0  0  0  0  0  0  0  0  0  0  0
   -7.3585   54.5966    3.8395 S   0  0  0  0  0  0  0  0  0  0  0  0
   -6.0851   55.1950    4.1690 O   0  0  0  0  0  0  0  0  0  0  0  0
   -8.5995   55.3350    3.9015 O   0  0  0  0  0  0  0  0  0  0  0  0
   -7.5312   53.1585    4.8057 C   0  0  0  0  0  0  0  0  0  0  0  0
   -7.9971   53.3090    6.1017 C   0  0  0  0  0  0  0  0  0  0  0  0
   -8.2202   52.2666    6.9266 N   0  0  0  0  0  0  0  0  0  0  0  0
   -7.9853   51.0423    6.4159 C   0  0  0  0  0  0  0  0  0  0  0  0
   -8.3133   49.5474    7.5379 Br  0  0  0  0  0  0  0  0  0  0  0  0
   -7.5261   50.8185    5.1180 C   0  0  0  0  0  0  0  0  0  0  0  0
   -7.2639   51.8983    4.2613 C   0  0  0  0  0  0  0  0  0  0  0  0
   -8.1821   53.6115    2.0313 H   0  0  0  0  0  0  0  0  0  0  0  0
   -6.7380   50.2034    1.0261 C   0  0  0  0  0  0  0  0  0  0  0  0
   -6.3229   50.4309    2.4719 C   0  0  0  0  0  0  0  0  0  0  0  0
 15 16  1  0
 16  1  1  0
  1  2  1  0
  2  3  1  0
  3  4  1  0
  4  5  2  0
  4  6  2  0
  4  7  1  0
  7  8  2  0
  8  9  1  0
  9 10  2  0
 10 11  1  0
 10 12  1  0
 12 13  2  0
 13  1  1  0
 13  7  1  0
  3 14  1  0
M  END
> <minimizedAffinity>
-4.13981

> <CNNscore>
0.7977006435

> <CNNaffinity>
4.6705412865

> <CNN_VS>
3.7256937027

> <CNNaffinity_variance>
0.0844459236

$$$$



 16 17  0  0  0  0  0  0  0  0999 V2000
  -18.9867   39.6282    3.2741 N   0  0  0  0  0  0  0  0  0  0  0  0
  -18.0595   38.6809    3.8765 C   0  0  0  0  0  0  0  0  0  0  0  0
  -16.7091   39.1099    3.6346 N   0  0  0  0  0  0  0  0  0  0  0  0
  -16.3273   40.4877    4.4926 S   0  0  0  0  0  0  0  0  0  0  0  0
  -16.3742   40.1775    5.9032 O   0  0  0  0  0  0  0  0  0  0  0  0
  -15.1542   41.0503    3.8627 O   0  0  0  0  0  0  0  0  0  0  0  0
  -17.6852   41.5166    4.1334 C   0  0  0  0  0  0  0  0  0  0  0  0
  -17.5456   42.8723    4.3822 C   0  0  0  0  0  0  0  0  0  0  0  0
  -18.5072   43.7730    4.0973 N   0  0  0  0  0  0  0  0  0  0  0  0
  -19.6271   43.2881    3.5268 C   0  0  0  0  0  0  0  0  0  0  0  0
  -20.9936   44.5289    3.0861 Br  0  0  0  0  0  0  0  0  0  0  0  0
  -19.8291   41.9382    3.2396 C   0  0  0  0  0  0  0  0  0  0  0  0
  -18.8458   40.9894    3.5584 C   0  0  0  0  0  0  0  0  0  0  0  0
  -16.5978   39.3008    2.6388 H   0  0  0  0  0  0  0  0  0  0  0  0
  -20.1516   38.2110    1.6430 C   0  0  0  0  0  0  0  0  0  0  0  0
  -20.2916   39.0629    2.8957 C   0  0  0  0  0  0  0  0  0  0  0  0
 15 16  1  0
 16  1  1  0
  1  2  1  0
  2  3  1  0
  3  4  1  0
  4  5  2  0
  4  6  2  0
  4  7  1  0
  7  8  2  0
  8  9  1  0
  9 10  2  0
 10 11  1  0
 10 12  1  0
 12 13  2  0
 13  1  1  0
 13  7  1  0
  3 14  1  0
M  END
> <minimizedAffinity>
-4.50275

> <CNNscore>
0.6160518527

> <CNNaffinity>
4.1976675987

> <CNN_VS>
2.5859808922

> <CNNaffinity_variance>
0.2179601192

$$$$



 16 17  0  0  0  0  0  0  0  0999 V2000
  -14.5397   52.3767    4.6921 N   0  0  0  0  0  0  0  0  0  0  0  0
  -14.6634   51.6911    5.9707 C   0  0  0  0  0  0  0  0  0  0  0  0
  -16.0535   51.4856    6.2734 N   0  0  0  0  0  0  0  0  0  0  0  0
  -16.7541   50.3599    5.2623 S   0  0  0  0  0  0  0  0  0  0  0  0
  -16.1269   49.0793    5.4968 O   0  0  0  0  0  0  0  0  0  0  0  0
  -18.1832   50.5516    5.3639 O   0  0  0  0  0  0  0  0  0  0  0  0
  -16.2389   50.9206    3.6965 C   0  0  0  0  0  0  0  0  0  0  0  0
  -16.9203   50.4434    2.5886 C   0  0  0  0  0  0  0  0  0  0  0  0
  -16.6468   50.8438    1.3309 N   0  0  0  0  0  0  0  0  0  0  0  0
  -15.6738   51.7660    1.1978 C   0  0  0  0  0  0  0  0  0  0  0  0
  -15.2777   52.3748   -0.5553 Br  0  0  0  0  0  0  0  0  0  0  0  0
  -14.9558   52.2959    2.2699 C   0  0  0  0  0  0  0  0  0  0  0  0
  -15.2137   51.8646    3.5799 C   0  0  0  0  0  0  0  0  0  0  0  0
  -16.5473   52.3723    6.1711 H   0  0  0  0  0  0  0  0  0  0  0  0
  -12.1010   52.3751    4.9717 C   0  0  0  0  0  0  0  0  0  0  0  0
  -13.3163   53.1793    4.5351 C   0  0  0  0  0  0  0  0  0  0  0  0
 15 16  1  0
 16  1  1  0
  1  2  1  0
  2  3  1  0
  3  4  1  0
  4  5  2  0
  4  6  2  0
  4  7  1  0
  7  8  2  0
  8  9  1  0
  9 10  2  0
 10 11  1  0
 10 12  1  0
 12 13  2  0
 13  1  1  0
 13  7  1  0
  3 14  1  0
M  END
> <minimizedAffinity>
-4.04385

> <CNNscore>
0.6159331203

> <CNNaffinity>
4.4631710052

> <CNN_VS>
2.7490148544

> <CNNaffinity_variance>
0.2749942839

$$$$



 16 17  0  0  0  0  0  0  0  0999 V2000
  -16.7375   46.9878    2.7951 N   0  0  0  0  0  0  0  0  0  0  0  0
  -17.3338   45.6602    2.7490 C   0  0  0  0  0  0  0  0  0  0  0  0
  -16.3505   44.7065    2.3131 N   0  0  0  0  0  0  0  0  0  0  0  0
  -15.1653   44.4614    3.4599 S   0  0  0  0  0  0  0  0  0  0  0  0
  -15.7730   43.8650    4.6276 O   0  0  0  0  0  0  0  0  0  0  0  0
  -14.0496   43.8522    2.7719 O   0  0  0  0  0  0  0  0  0  0  0  0
  -14.7260   46.0954    3.8705 C   0  0  0  0  0  0  0  0  0  0  0  0
  -13.5234   46.2893    4.5303 C   0  0  0  0  0  0  0  0  0  0  0  0
  -13.0530   47.5104    4.8540 N   0  0  0  0  0  0  0  0  0  0  0  0
  -13.8112   48.5591    4.4795 C   0  0  0  0  0  0  0  0  0  0  0  0
  -13.1695   50.2963    4.8937 Br  0  0  0  0  0  0  0  0  0  0  0  0
  -15.0256   48.4361    3.8045 C   0  0  0  0  0  0  0  0  0  0  0  0
  -15.5373   47.1685    3.4883 C   0  0  0  0  0  0  0  0  0  0  0  0
  -15.9146   45.0509    1.4576 H   0  0  0  0  0  0  0  0  0  0  0  0
  -18.8624   47.9448    3.5659 C   0  0  0  0  0  0  0  0  0  0  0  0
  -17.6849   48.0993    2.6152 C   0  0  0  0  0  0  0  0  0  0  0  0
 15 16  1  0
 16  1  1  0
  1  2  1  0
  2  3  1  0
  3  4  1  0
  4  5  2  0
  4  6  2  0
  4  7  1  0
  7  8  2  0
  8  9  1  0
  9 10  2  0
 10 11  1  0
 10 12  1  0
 12 13  2  0
 13  1  1  0
 13  7  1  0
  3 14  1  0
M  END
> <minimizedAffinity>
-4.08102

> <CNNscore>
0.5675355792

> <CNNaffinity>
3.8409979343

> <CNN_VS>
2.1799030304

> <CNNaffinity_variance>
0.0937757865

$$$$



 16 17  0  0  0  0  0  0  0  0999 V2000
  -17.9314   41.5435    3.7771 N   0  0  0  0  0  0  0  0  0  0  0  0
  -16.5753   41.4129    4.2911 C   0  0  0  0  0  0  0  0  0  0  0  0
  -15.6485   41.9848    3.3530 N   0  0  0  0  0  0  0  0  0  0  0  0
  -15.7800   43.6453    3.2768 S   0  0  0  0  0  0  0  0  0  0  0  0
  -15.4017   44.1948    4.5588 O   0  0  0  0  0  0  0  0  0  0  0  0
  -15.1443   44.0502    2.0435 O   0  0  0  0  0  0  0  0  0  0  0  0
  -17.4991   43.8569    3.0990 C   0  0  0  0  0  0  0  0  0  0  0  0
  -17.9501   45.0860    2.6460 C   0  0  0  0  0  0  0  0  0  0  0  0
  -19.2522   45.3516    2.4202 N   0  0  0  0  0  0  0  0  0  0  0  0
  -20.1132   44.3387    2.6390 C   0  0  0  0  0  0  0  0  0  0  0  0
  -21.9527   44.6655    2.3067 Br  0  0  0  0  0  0  0  0  0  0  0  0
  -19.7264   43.0749    3.0846 C   0  0  0  0  0  0  0  0  0  0  0  0
  -18.3768   42.7974    3.3495 C   0  0  0  0  0  0  0  0  0  0  0  0
  -15.8349   41.5971    2.4281 H   0  0  0  0  0  0  0  0  0  0  0  0
  -18.5654   39.1766    3.6319 C   0  0  0  0  0  0  0  0  0  0  0  0
  -18.8781   40.5261    4.2608 C   0  0  0  0  0  0  0  0  0  0  0  0
 15 16  1  0
 16  1  1  0
  1  2  1  0
  2  3  1  0
  3  4  1  0
  4  5  2  0
  4  6  2  0
  4  7  1  0
  7  8  2  0
  8  9  1  0
  9 10  2  0
 10 11  1  0
 10 12  1  0
 12 13  2  0
 13  1  1  0
 13  7  1  0
  3 14  1  0
M  END
> <minimizedAffinity>
-4.05879

> <CNNscore>
0.5670868158

> <CNNaffinity>
4.1261138916

> <CNN_VS>
2.3398647308

> <CNNaffinity_variance>
0.0304956045

$$$$



 16 17  0  0  0  0  0  0  0  0999 V2000
  -14.7114   46.0417   -6.1369 N   0  0  0  0  0  0  0  0  0  0  0  0
  -13.6464   47.0345   -6.1246 C   0  0  0  0  0  0  0  0  0  0  0  0
  -14.1905   48.3190   -5.7780 N   0  0  0  0  0  0  0  0  0  0  0  0
  -14.6765   48.3832   -4.1843 S   0  0  0  0  0  0  0  0  0  0  0  0
  -13.5115   48.2311   -3.3429 O   0  0  0  0  0  0  0  0  0  0  0  0
  -15.5684   49.5152   -4.0736 O   0  0  0  0  0  0  0  0  0  0  0  0
  -15.6224   46.9282   -4.0434 C   0  0  0  0  0  0  0  0  0  0  0  0
  -16.4822   46.8249   -2.9620 C   0  0  0  0  0  0  0  0  0  0  0  0
  -17.3013   45.7709   -2.7744 N   0  0  0  0  0  0  0  0  0  0  0  0
  -17.2616   44.8105   -3.7182 C   0  0  0  0  0  0  0  0  0  0  0  0
  -18.4199   43.3228   -3.5035 Br  0  0  0  0  0  0  0  0  0  0  0  0
  -16.4285   44.8558   -4.8360 C   0  0  0  0  0  0  0  0  0  0  0  0
  -15.5520   45.9350   -5.0253 C   0  0  0  0  0  0  0  0  0  0  0  0
  -14.9955   48.5075   -6.3755 H   0  0  0  0  0  0  0  0  0  0  0  0
  -15.5627   44.8162   -8.0860 C   0  0  0  0  0  0  0  0  0  0  0  0
  -14.4761   44.8913   -7.0238 C   0  0  0  0  0  0  0  0  0  0  0  0
 15 16  1  0
 16  1  1  0
  1  2  1  0
  2  3  1  0
  3  4  1  0
  4  5  2  0
  4  6  2  0
  4  7  1  0
  7  8  2  0
  8  9  1  0
  9 10  2  0
 10 11  1  0
 10 12  1  0
 12 13  2  0
 13  1  1  0
 13  7  1  0
  3 14  1  0
M  END
> <minimizedAffinity>
-5.88736

> <CNNscore>
0.5596112609

> <CNNaffinity>
4.6751770973

> <CNN_VS>
2.6162817478

> <CNNaffinity_variance>
0.3557581007

$$$$



 16 17  0  0  0  0  0  0  0  0999 V2000
  -20.4088   39.9213    3.9034 N   0  0  0  0  0  0  0  0  0  0  0  0
  -19.3932   39.6317    2.9010 C   0  0  0  0  0  0  0  0  0  0  0  0
  -19.5444   38.2784    2.4406 N   0  0  0  0  0  0  0  0  0  0  0  0
  -20.9272   38.0779    1.5308 S   0  0  0  0  0  0  0  0  0  0  0  0
  -20.8044   38.8706    0.3287 O   0  0  0  0  0  0  0  0  0  0  0  0
  -21.1928   36.6575    1.4972 O   0  0  0  0  0  0  0  0  0  0  0  0
  -22.1281   38.8333    2.5401 C   0  0  0  0  0  0  0  0  0  0  0  0
  -23.4580   38.5463    2.2783 C   0  0  0  0  0  0  0  0  0  0  0  0
  -24.4727   39.0296    3.0224 N   0  0  0  0  0  0  0  0  0  0  0  0
  -24.1274   39.8042    4.0691 C   0  0  0  0  0  0  0  0  0  0  0  0
  -25.5269   40.4818    5.1569 Br  0  0  0  0  0  0  0  0  0  0  0  0
  -22.8095   40.1241    4.3955 C   0  0  0  0  0  0  0  0  0  0  0  0
  -21.7481   39.6493    3.6103 C   0  0  0  0  0  0  0  0  0  0  0  0
  -19.5898   37.6586    3.2495 H   0  0  0  0  0  0  0  0  0  0  0  0
  -19.1034   40.3918    5.9283 C   0  0  0  0  0  0  0  0  0  0  0  0
  -20.0409   40.9632    4.8753 C   0  0  0  0  0  0  0  0  0  0  0  0
 15 16  1  0
 16  1  1  0
  1  2  1  0
  2  3  1  0
  3  4  1  0
  4  5  2  0
  4  6  2  0
  4  7  1  0
  7  8  2  0
  8  9  1  0
  9 10  2  0
 10 11  1  0
 10 12  1  0
 12 13  2  0
 13  1  1  0
 13  7  1  0
  3 14  1  0
M  END
> <minimizedAffinity>
-4.17074

> <CNNscore>
0.5532260537

> <CNNaffinity>
4.3102784157

> <CNN_VS>
2.3845582008

> <CNNaffinity_variance>
0.1117530093

$$$$



 16 17  0  0  0  0  0  0  0  0999 V2000
  -18.6364   43.8440    3.1147 N   0  0  0  0  0  0  0  0  0  0  0  0
  -18.0870   44.7869    2.1508 C   0  0  0  0  0  0  0  0  0  0  0  0
  -16.7248   45.0889    2.4965 N   0  0  0  0  0  0  0  0  0  0  0  0
  -15.7132   43.7866    2.2496 S   0  0  0  0  0  0  0  0  0  0  0  0
  -15.6834   43.4904    0.8355 O   0  0  0  0  0  0  0  0  0  0  0  0
  -14.5129   44.0506    3.0103 O   0  0  0  0  0  0  0  0  0  0  0  0
  -16.5875   42.5042    3.0387 C   0  0  0  0  0  0  0  0  0  0  0  0
  -15.8890   41.3487    3.3492 C   0  0  0  0  0  0  0  0  0  0  0  0
  -16.4441   40.3100    4.0049 N   0  0  0  0  0  0  0  0  0  0  0  0
  -17.7317   40.4574    4.3725 C   0  0  0  0  0  0  0  0  0  0  0  0
  -18.5411   39.0272    5.3214 Br  0  0  0  0  0  0  0  0  0  0  0  0
  -18.4899   41.5964    4.1016 C   0  0  0  0  0  0  0  0  0  0  0  0
  -17.9295   42.6712    3.3948 C   0  0  0  0  0  0  0  0  0  0  0  0
  -16.6860   45.3539    3.4807 H   0  0  0  0  0  0  0  0  0  0  0  0
  -20.7804   43.9137    1.9215 C   0  0  0  0  0  0  0  0  0  0  0  0
  -20.0971   43.9078    3.2807 C   0  0  0  0  0  0  0  0  0  0  0  0
 15 16  1  0
 16  1  1  0
  1  2  1  0
  2  3  1  0
  3  4  1  0
  4  5  2  0
  4  6  2  0
  4  7  1  0
  7  8  2  0
  8  9  1  0
  9 10  2  0
 10 11  1  0
 10 12  1  0
 12 13  2  0
 13  1  1  0
 13  7  1  0
  3 14  1  0
M  END
> <minimizedAffinity>
-4.42924

> <CNNscore>
0.5145410895

> <CNNaffinity>
3.9777743816

> <CNN_VS>
2.0467283726

> <CNNaffinity_variance>
0.0925798789

$$$$
