


 25 26  0  0  0  0  0  0  0  0999 V2000
   43.7470   30.0023   19.0620 C   0  0  0  0  0  0  0  0  0  0  0  0
   42.3491   30.1041   18.7852 O   0  0  0  0  0  0  0  0  0  0  0  0
   41.8944   31.3100   18.1524 C   0  0  0  0  0  0  0  0  0  0  0  0
   42.7313   32.5274   18.5569 C   0  0  0  0  0  0  0  0  0  0  0  0
   42.6106   32.7464   19.9733 O   0  0  0  0  0  0  0  0  0  0  0  0
   44.2134   32.3353   18.2338 C   0  0  0  0  0  0  0  0  0  0  0  0
   44.4703   32.8987   17.0126 F   0  0  0  0  0  0  0  0  0  0  0  0
   44.6541   30.8707   18.1656 C   0  0  0  0  0  0  0  0  0  0  0  0
   46.0320   30.7649   18.5735 O   0  0  0  0  0  0  0  0  0  0  0  0
   42.9520   31.9738   20.4502 H   0  0  0  0  0  0  0  0  0  0  0  0
   46.1249   31.0840   19.4848 H   0  0  0  0  0  0  0  0  0  0  0  0
   45.0883   24.6313   19.0655 N   0  0  0  0  0  0  0  0  0  0  0  0
   44.7232   25.9539   19.0178 C   0  0  0  0  0  0  0  0  0  0  0  0
   45.2539   26.7126   19.9301 N   0  0  0  0  0  0  0  0  0  0  0  0
   44.9642   28.0554   19.9697 C   0  0  0  0  0  0  0  0  0  0  0  0
   45.4633   28.7691   20.8389 O   0  0  0  0  0  0  0  0  0  0  0  0
   44.0961   28.5769   19.0082 N   0  0  0  0  0  0  0  0  0  0  0  0
   43.5126   27.7692   18.0533 C   0  0  0  0  0  0  0  0  0  0  0  0
   43.7693   26.4621   17.9877 C   0  0  0  0  0  0  0  0  0  0  0  0
   43.0134   25.3141   16.7435 Br  0  0  0  0  0  0  0  0  0  0  0  0
   45.7190   24.3193   19.7540 H   0  0  0  0  0  0  0  0  0  0  0  0
   44.7193   23.9949   18.4112 H   0  0  0  0  0  0  0  0  0  0  0  0
   41.7889   31.1418   16.6272 C   0  0  0  0  0  0  0  0  0  0  0  0
   41.5095   32.3951   16.0125 O   0  0  0  0  0  0  0  0  0  0  0  0
   40.6672   32.7394   16.3484 H   0  0  0  0  0  0  0  0  0  0  0  0
 12 13  1  0
 13 14  2  0
 14 15  1  0
 15 16  2  0
 15 17  1  0
  1 17  1  0
  1  2  1  0
  2  3  1  0
  3 23  1  0
 23 24  1  0
  3  4  1  0
  4  5  1  0
  4  6  1  0
  6  7  1  0
  6  8  1  0
  8  9  1  0
 17 18  1  0
 18 19  2  0
 19 20  1  0
 19 13  1  0
  8  1  1  0
 12 21  1  0
 12 22  1  0
 24 25  1  0
  5 10  1  0
  9 11  1  0
M  END
> <minimizedAffinity>
-5.65273

> <CNNscore>
0.5986901522

> <CNNaffinity>
3.9996404648

> <CNN_VS>
2.3945453167

> <CNNaffinity_variance>
0.3037280738

$$$$



 25 26  0  0  0  0  0  0  0  0999 V2000
   32.8722   23.2458   28.0664 C   0  0  0  0  0  0  0  0  0  0  0  0
   32.6832   21.8630   28.3714 O   0  0  0  0  0  0  0  0  0  0  0  0
   32.5369   20.9631   27.2622 C   0  0  0  0  0  0  0  0  0  0  0  0
   31.8562   21.6288   26.0624 C   0  0  0  0  0  0  0  0  0  0  0  0
   30.5261   22.0365   26.4277 O   0  0  0  0  0  0  0  0  0  0  0  0
   32.6162   22.8682   25.5888 C   0  0  0  0  0  0  0  0  0  0  0  0
   33.4555   22.5026   24.5707 F   0  0  0  0  0  0  0  0  0  0  0  0
   33.4706   23.5303   26.6730 C   0  0  0  0  0  0  0  0  0  0  0  0
   33.5454   24.9478   26.4257 O   0  0  0  0  0  0  0  0  0  0  0  0
   30.5729   22.6862   27.1465 H   0  0  0  0  0  0  0  0  0  0  0  0
   32.6529   25.3272   26.4468 H   0  0  0  0  0  0  0  0  0  0  0  0
   35.7181   25.4178   32.2889 N   0  0  0  0  0  0  0  0  0  0  0  0
   35.0615   24.8560   31.2222 C   0  0  0  0  0  0  0  0  0  0  0  0
   33.7902   25.1168   31.1491 N   0  0  0  0  0  0  0  0  0  0  0  0
   33.0372   24.6124   30.1160 C   0  0  0  0  0  0  0  0  0  0  0  0
   31.8328   24.8561   30.0538 O   0  0  0  0  0  0  0  0  0  0  0  0
   33.6717   23.8237   29.1542 N   0  0  0  0  0  0  0  0  0  0  0  0
   35.0163   23.5254   29.2426 C   0  0  0  0  0  0  0  0  0  0  0  0
   35.7759   23.9957   30.2328 C   0  0  0  0  0  0  0  0  0  0  0  0
   37.5827   23.6267   30.4240 Br  0  0  0  0  0  0  0  0  0  0  0  0
   35.2259   25.9817   32.9284 H   0  0  0  0  0  0  0  0  0  0  0  0
   36.6813   25.2568   32.4144 H   0  0  0  0  0  0  0  0  0  0  0  0
   33.8745   20.2995   26.8935 C   0  0  0  0  0  0  0  0  0  0  0  0
   33.7770   18.8861   27.0329 O   0  0  0  0  0  0  0  0  0  0  0  0
   33.5614   18.6660   27.9527 H   0  0  0  0  0  0  0  0  0  0  0  0
 12 13  1  0
 13 14  2  0
 14 15  1  0
 15 16  2  0
 15 17  1  0
  1 17  1  0
  1  2  1  0
  2  3  1  0
  3 23  1  0
 23 24  1  0
  3  4  1  0
  4  5  1  0
  4  6  1  0
  6  7  1  0
  6  8  1  0
  8  9  1  0
 17 18  1  0
 18 19  2  0
 19 20  1  0
 19 13  1  0
  8  1  1  0
 12 21  1  0
 12 22  1  0
 24 25  1  0
  5 10  1  0
  9 11  1  0
M  END
> <minimizedAffinity>
-9.50318

> <CNNscore>
0.4733897150

> <CNNaffinity>
5.0279307365

> <CNN_VS>
2.3801705837

> <CNNaffinity_variance>
0.0318492092

$$$$



 25 26  0  0  0  0  0  0  0  0999 V2000
   33.0370   23.7694   29.2310 C   0  0  0  0  0  0  0  0  0  0  0  0
   33.9273   22.9416   28.4807 O   0  0  0  0  0  0  0  0  0  0  0  0
   33.6733   22.8164   27.0731 C   0  0  0  0  0  0  0  0  0  0  0  0
   32.1802   22.9079   26.7437 C   0  0  0  0  0  0  0  0  0  0  0  0
   31.4794   21.8231   27.3769 O   0  0  0  0  0  0  0  0  0  0  0  0
   31.5652   24.2183   27.2363 C   0  0  0  0  0  0  0  0  0  0  0  0
   31.5754   25.1195   26.2056 F   0  0  0  0  0  0  0  0  0  0  0  0
   32.3108   24.8564   28.4115 C   0  0  0  0  0  0  0  0  0  0  0  0
   31.3771   25.5822   29.2346 O   0  0  0  0  0  0  0  0  0  0  0  0
   31.5806   21.8907   28.3393 H   0  0  0  0  0  0  0  0  0  0  0  0
   30.7051   24.9719   29.5765 H   0  0  0  0  0  0  0  0  0  0  0  0
   35.7881   25.7883   33.5902 N   0  0  0  0  0  0  0  0  0  0  0  0
   35.1561   25.2832   32.4811 C   0  0  0  0  0  0  0  0  0  0  0  0
   33.8624   25.1915   32.5691 N   0  0  0  0  0  0  0  0  0  0  0  0
   33.1282   24.7073   31.5131 C   0  0  0  0  0  0  0  0  0  0  0  0
   31.9045   24.6158   31.6027 O   0  0  0  0  0  0  0  0  0  0  0  0
   33.8047   24.3251   30.3528 N   0  0  0  0  0  0  0  0  0  0  0  0
   35.1801   24.3989   30.2655 C   0  0  0  0  0  0  0  0  0  0  0  0
   35.9234   24.8611   31.2718 C   0  0  0  0  0  0  0  0  0  0  0  0
   37.7733   24.9762   31.2319 Br  0  0  0  0  0  0  0  0  0  0  0  0
   35.2610   26.0601   34.3761 H   0  0  0  0  0  0  0  0  0  0  0  0
   36.7683   25.8788   33.5998 H   0  0  0  0  0  0  0  0  0  0  0  0
   34.5236   23.8039   26.2561 C   0  0  0  0  0  0  0  0  0  0  0  0
   35.7164   24.1272   26.9626 O   0  0  0  0  0  0  0  0  0  0  0  0
   35.4883   24.5381   27.8111 H   0  0  0  0  0  0  0  0  0  0  0  0
 12 13  1  0
 13 14  2  0
 14 15  1  0
 15 16  2  0
 15 17  1  0
  1 17  1  0
  1  2  1  0
  2  3  1  0
  3 23  1  0
 23 24  1  0
  3  4  1  0
  4  5  1  0
  4  6  1  0
  6  7  1  0
  6  8  1  0
  8  9  1  0
 17 18  1  0
 18 19  2  0
 19 20  1  0
 19 13  1  0
  8  1  1  0
 12 21  1  0
 12 22  1  0
 24 25  1  0
  5 10  1  0
  9 11  1  0
M  END
> <minimizedAffinity>
-8.43653

> <CNNscore>
0.3413028717

> <CNNaffinity>
4.2720274925

> <CNN_VS>
1.4580552578

> <CNNaffinity_variance>
0.2299641818

$$$$



 25 26  0  0  0  0  0  0  0  0999 V2000
   23.8566   23.9025   27.7367 C   0  0  0  0  0  0  0  0  0  0  0  0
   24.8186   24.1708   26.7152 O   0  0  0  0  0  0  0  0  0  0  0  0
   25.9387   24.9950   27.0725 C   0  0  0  0  0  0  0  0  0  0  0  0
   25.5765   26.0341   28.1379 C   0  0  0  0  0  0  0  0  0  0  0  0
   24.5711   26.9238   27.6216 O   0  0  0  0  0  0  0  0  0  0  0  0
   25.0243   25.3837   29.4068 C   0  0  0  0  0  0  0  0  0  0  0  0
   26.0522   25.2213   30.2965 F   0  0  0  0  0  0  0  0  0  0  0  0
   24.3915   24.0081   29.1801 C   0  0  0  0  0  0  0  0  0  0  0  0
   23.3333   23.8035   30.1363 O   0  0  0  0  0  0  0  0  0  0  0  0
   23.7708   26.4186   27.4088 H   0  0  0  0  0  0  0  0  0  0  0  0
   22.6566   24.4889   30.0214 H   0  0  0  0  0  0  0  0  0  0  0  0
   21.5865   19.0191   26.4539 N   0  0  0  0  0  0  0  0  0  0  0  0
   22.1879   20.2022   26.8049 C   0  0  0  0  0  0  0  0  0  0  0  0
   21.6407   21.2739   26.3132 N   0  0  0  0  0  0  0  0  0  0  0  0
   22.1565   22.5132   26.6074 C   0  0  0  0  0  0  0  0  0  0  0  0
   21.6398   23.5249   26.1347 O   0  0  0  0  0  0  0  0  0  0  0  0
   23.2711   22.5877   27.4453 N   0  0  0  0  0  0  0  0  0  0  0  0
   23.8685   21.4502   27.9492 C   0  0  0  0  0  0  0  0  0  0  0  0
   23.3959   20.2320   27.6818 C   0  0  0  0  0  0  0  0  0  0  0  0
   24.1527   18.6608   28.3110 Br  0  0  0  0  0  0  0  0  0  0  0  0
   20.7906   19.0244   25.8743 H   0  0  0  0  0  0  0  0  0  0  0  0
   21.9509   18.1653   26.7818 H   0  0  0  0  0  0  0  0  0  0  0  0
   27.1620   24.1474   27.4610 C   0  0  0  0  0  0  0  0  0  0  0  0
   28.3499   24.9258   27.3652 O   0  0  0  0  0  0  0  0  0  0  0  0
   28.4608   25.2356   26.4527 H   0  0  0  0  0  0  0  0  0  0  0  0
 12 13  1  0
 13 14  2  0
 14 15  1  0
 15 16  2  0
 15 17  1  0
  1 17  1  0
  1  2  1  0
  2  3  1  0
  3 23  1  0
 23 24  1  0
  3  4  1  0
  4  5  1  0
  4  6  1  0
  6  7  1  0
  6  8  1  0
  8  9  1  0
 17 18  1  0
 18 19  2  0
 19 20  1  0
 19 13  1  0
  8  1  1  0
 12 21  1  0
 12 22  1  0
 24 25  1  0
  5 10  1  0
  9 11  1  0
M  END
> <minimizedAffinity>
-5.84523

> <CNNscore>
0.3399178684

> <CNNaffinity>
4.4587392807

> <CNN_VS>
1.5156052113

> <CNNaffinity_variance>
0.0309577063

$$$$



 25 26  0  0  0  0  0  0  0  0999 V2000
   34.1526   23.3783   28.2701 C   0  0  0  0  0  0  0  0  0  0  0  0
   33.6631   24.4049   27.4056 O   0  0  0  0  0  0  0  0  0  0  0  0
   32.7716   24.0037   26.3541 C   0  0  0  0  0  0  0  0  0  0  0  0
   33.0755   22.5916   25.8445 C   0  0  0  0  0  0  0  0  0  0  0  0
   34.3999   22.5559   25.2844 O   0  0  0  0  0  0  0  0  0  0  0  0
   33.0086   21.5527   26.9643 C   0  0  0  0  0  0  0  0  0  0  0  0
   31.7585   20.9944   26.9673 F   0  0  0  0  0  0  0  0  0  0  0  0
   33.2601   22.1232   28.3627 C   0  0  0  0  0  0  0  0  0  0  0  0
   33.8751   21.1153   29.1885 O   0  0  0  0  0  0  0  0  0  0  0  0
   35.0479   22.7741   25.9724 H   0  0  0  0  0  0  0  0  0  0  0  0
   34.7209   20.8477   28.7961 H   0  0  0  0  0  0  0  0  0  0  0  0
   34.8859   25.6508   33.2646 N   0  0  0  0  0  0  0  0  0  0  0  0
   34.7609   25.0774   32.0235 C   0  0  0  0  0  0  0  0  0  0  0  0
   33.5573   25.0655   31.5329 N   0  0  0  0  0  0  0  0  0  0  0  0
   33.3195   24.5235   30.2926 C   0  0  0  0  0  0  0  0  0  0  0  0
   32.1777   24.5081   29.8343 O   0  0  0  0  0  0  0  0  0  0  0  0
   34.3980   23.9958   29.5797 N   0  0  0  0  0  0  0  0  0  0  0  0
   35.6728   23.9855   30.1084 C   0  0  0  0  0  0  0  0  0  0  0  0
   35.9385   24.5003   31.3097 C   0  0  0  0  0  0  0  0  0  0  0  0
   37.6206   24.5097   32.0892 Br  0  0  0  0  0  0  0  0  0  0  0  0
   34.0949   26.0249   33.7160 H   0  0  0  0  0  0  0  0  0  0  0  0
   35.7665   25.6880   33.7032 H   0  0  0  0  0  0  0  0  0  0  0  0
   31.2997   24.1839   26.7625 C   0  0  0  0  0  0  0  0  0  0  0  0
   30.5999   24.9218   25.7664 O   0  0  0  0  0  0  0  0  0  0  0  0
   31.0065   25.7968   25.6669 H   0  0  0  0  0  0  0  0  0  0  0  0
 12 13  1  0
 13 14  2  0
 14 15  1  0
 15 16  2  0
 15 17  1  0
  1 17  1  0
  1  2  1  0
  2  3  1  0
  3 23  1  0
 23 24  1  0
  3  4  1  0
  4  5  1  0
  4  6  1  0
  6  7  1  0
  6  8  1  0
  8  9  1  0
 17 18  1  0
 18 19  2  0
 19 20  1  0
 19 13  1  0
  8  1  1  0
 12 21  1  0
 12 22  1  0
 24 25  1  0
  5 10  1  0
  9 11  1  0
M  END
> <minimizedAffinity>
-8.69376

> <CNNscore>
0.3187364340

> <CNNaffinity>
4.2878327370

> <CNN_VS>
1.3666884899

> <CNNaffinity_variance>
0.5880171657

$$$$



 25 26  0  0  0  0  0  0  0  0999 V2000
   43.4773   29.9606   18.1487 C   0  0  0  0  0  0  0  0  0  0  0  0
   42.0532   30.0436   18.0704 O   0  0  0  0  0  0  0  0  0  0  0  0
   41.4933   31.3017   17.6642 C   0  0  0  0  0  0  0  0  0  0  0  0
   42.3510   32.4890   18.1124 C   0  0  0  0  0  0  0  0  0  0  0  0
   42.4151   32.5224   19.5489 O   0  0  0  0  0  0  0  0  0  0  0  0
   43.7807   32.3956   17.5784 C   0  0  0  0  0  0  0  0  0  0  0  0
   43.8611   33.1181   16.4182 F   0  0  0  0  0  0  0  0  0  0  0  0
   44.2389   30.9690   17.2636 C   0  0  0  0  0  0  0  0  0  0  0  0
   45.6607   30.8647   17.4727 O   0  0  0  0  0  0  0  0  0  0  0  0
   42.8330   31.7092   19.8730 H   0  0  0  0  0  0  0  0  0  0  0  0
   45.8672   31.0694   18.3981 H   0  0  0  0  0  0  0  0  0  0  0  0
   44.9121   24.7654   16.8843 N   0  0  0  0  0  0  0  0  0  0  0  0
   44.5721   26.0435   17.2524 C   0  0  0  0  0  0  0  0  0  0  0  0
   44.0749   26.7833   16.3063 N   0  0  0  0  0  0  0  0  0  0  0  0
   43.6918   28.0772   16.5667 C   0  0  0  0  0  0  0  0  0  0  0  0
   43.2277   28.7764   15.6670 O   0  0  0  0  0  0  0  0  0  0  0  0
   43.8459   28.5676   17.8650 N   0  0  0  0  0  0  0  0  0  0  0  0
   44.3957   27.7923   18.8656 C   0  0  0  0  0  0  0  0  0  0  0  0
   44.7806   26.5341   18.6471 C   0  0  0  0  0  0  0  0  0  0  0  0
   45.5386   25.4387   19.9366 Br  0  0  0  0  0  0  0  0  0  0  0  0
   44.7653   24.4643   15.9585 H   0  0  0  0  0  0  0  0  0  0  0  0
   45.3027   24.1500   17.5460 H   0  0  0  0  0  0  0  0  0  0  0  0
   41.1895   31.3238   16.1566 C   0  0  0  0  0  0  0  0  0  0  0  0
   40.7263   32.6124   15.7672 O   0  0  0  0  0  0  0  0  0  0  0  0
   39.9142   32.8246   16.2534 H   0  0  0  0  0  0  0  0  0  0  0  0
 12 13  1  0
 13 14  2  0
 14 15  1  0
 15 16  2  0
 15 17  1  0
  1 17  1  0
  1  2  1  0
  2  3  1  0
  3 23  1  0
 23 24  1  0
  3  4  1  0
  4  5  1  0
  4  6  1  0
  6  7  1  0
  6  8  1  0
  8  9  1  0
 17 18  1  0
 18 19  2  0
 19 20  1  0
 19 13  1  0
  8  1  1  0
 12 21  1  0
 12 22  1  0
 24 25  1  0
  5 10  1  0
  9 11  1  0
M  END
> <minimizedAffinity>
-5.33491

> <CNNscore>
0.2884313762

> <CNNaffinity>
4.1608176231

> <CNN_VS>
1.2001103163

> <CNNaffinity_variance>
0.1814547181

$$$$



 25 26  0  0  0  0  0  0  0  0999 V2000
   38.6101   27.9176   35.6479 C   0  0  0  0  0  0  0  0  0  0  0  0
   40.0349   27.8922   35.7491 O   0  0  0  0  0  0  0  0  0  0  0  0
   40.6058   28.2309   37.0222 C   0  0  0  0  0  0  0  0  0  0  0  0
   39.7573   29.2538   37.7836 C   0  0  0  0  0  0  0  0  0  0  0  0
   39.6914   30.4794   37.0335 O   0  0  0  0  0  0  0  0  0  0  0  0
   38.3277   28.7591   38.0056 C   0  0  0  0  0  0  0  0  0  0  0  0
   38.2550   28.1760   39.2422 F   0  0  0  0  0  0  0  0  0  0  0  0
   37.8581   27.7228   36.9810 C   0  0  0  0  0  0  0  0  0  0  0  0
   36.4352   27.8467   36.7911 O   0  0  0  0  0  0  0  0  0  0  0  0
   39.2663   30.3123   36.1778 H   0  0  0  0  0  0  0  0  0  0  0  0
   36.2290   28.7360   36.4630 H   0  0  0  0  0  0  0  0  0  0  0  0
   37.3743   24.1075   31.8265 N   0  0  0  0  0  0  0  0  0  0  0  0
   37.6261   25.0497   32.7927 C   0  0  0  0  0  0  0  0  0  0  0  0
   38.8347   25.5283   32.8041 N   0  0  0  0  0  0  0  0  0  0  0  0
   39.1933   26.4841   33.7242 C   0  0  0  0  0  0  0  0  0  0  0  0
   40.3400   26.9299   33.7360 O   0  0  0  0  0  0  0  0  0  0  0  0
   38.2304   26.9254   34.6341 N   0  0  0  0  0  0  0  0  0  0  0  0
   36.9535   26.4016   34.6397 C   0  0  0  0  0  0  0  0  0  0  0  0
   36.5727   25.4713   33.7631 C   0  0  0  0  0  0  0  0  0  0  0  0
   34.8816   24.7128   33.7192 Br  0  0  0  0  0  0  0  0  0  0  0  0
   38.0849   23.8454   31.1975 H   0  0  0  0  0  0  0  0  0  0  0  0
   36.4832   23.6940   31.7626 H   0  0  0  0  0  0  0  0  0  0  0  0
   40.9120   26.9750   37.8556 C   0  0  0  0  0  0  0  0  0  0  0  0
   40.8297   25.8113   37.0397 O   0  0  0  0  0  0  0  0  0  0  0  0
   39.9340   25.7346   36.6754 H   0  0  0  0  0  0  0  0  0  0  0  0
 12 13  1  0
 13 14  2  0
 14 15  1  0
 15 16  2  0
 15 17  1  0
  1 17  1  0
  1  2  1  0
  2  3  1  0
  3 23  1  0
 23 24  1  0
  3  4  1  0
  4  5  1  0
  4  6  1  0
  6  7  1  0
  6  8  1  0
  8  9  1  0
 17 18  1  0
 18 19  2  0
 19 20  1  0
 19 13  1  0
  8  1  1  0
 12 21  1  0
 12 22  1  0
 24 25  1  0
  5 10  1  0
  9 11  1  0
M  END
> <minimizedAffinity>
-7.45728

> <CNNscore>
0.2445175499

> <CNNaffinity>
4.7098870277

> <CNN_VS>
1.1516500711

> <CNNaffinity_variance>
0.2737235427

$$$$



 25 26  0  0  0  0  0  0  0  0999 V2000
   26.1544   24.6186   27.7910 C   0  0  0  0  0  0  0  0  0  0  0  0
   27.5038   24.4160   28.2144 O   0  0  0  0  0  0  0  0  0  0  0  0
   28.5370   24.6807   27.2532 C   0  0  0  0  0  0  0  0  0  0  0  0
   28.0842   24.3854   25.8201 C   0  0  0  0  0  0  0  0  0  0  0  0
   27.7653   22.9886   25.6934 O   0  0  0  0  0  0  0  0  0  0  0  0
   26.8419   25.1897   25.4356 C   0  0  0  0  0  0  0  0  0  0  0  0
   27.2423   26.3290   24.7905 F   0  0  0  0  0  0  0  0  0  0  0  0
   25.9791   25.6155   26.6266 C   0  0  0  0  0  0  0  0  0  0  0  0
   24.5996   25.6897   26.2172 O   0  0  0  0  0  0  0  0  0  0  0  0
   27.0345   22.7681   26.2920 H   0  0  0  0  0  0  0  0  0  0  0  0
   24.3072   24.8185   25.9066 H   0  0  0  0  0  0  0  0  0  0  0  0
   23.2719   26.2401   32.2305 N   0  0  0  0  0  0  0  0  0  0  0  0
   23.9531   25.7911   31.1264 C   0  0  0  0  0  0  0  0  0  0  0  0
   24.9464   26.5365   30.7421 N   0  0  0  0  0  0  0  0  0  0  0  0
   25.7026   26.1762   29.6526 C   0  0  0  0  0  0  0  0  0  0  0  0
   26.6378   26.8878   29.2880 O   0  0  0  0  0  0  0  0  0  0  0  0
   25.3797   24.9958   28.9802 N   0  0  0  0  0  0  0  0  0  0  0  0
   24.3109   24.2152   29.3714 C   0  0  0  0  0  0  0  0  0  0  0  0
   23.5546   24.5364   30.4220 C   0  0  0  0  0  0  0  0  0  0  0  0
   22.0972   23.5454   30.9971 Br  0  0  0  0  0  0  0  0  0  0  0  0
   23.5532   27.0705   32.6784 H   0  0  0  0  0  0  0  0  0  0  0  0
   22.5021   25.7318   32.5743 H   0  0  0  0  0  0  0  0  0  0  0  0
   29.1086   26.0994   27.4152 C   0  0  0  0  0  0  0  0  0  0  0  0
   29.4608   26.3354   28.7742 O   0  0  0  0  0  0  0  0  0  0  0  0
   28.6719   26.2501   29.3321 H   0  0  0  0  0  0  0  0  0  0  0  0
 12 13  1  0
 13 14  2  0
 14 15  1  0
 15 16  2  0
 15 17  1  0
  1 17  1  0
  1  2  1  0
  2  3  1  0
  3 23  1  0
 23 24  1  0
  3  4  1  0
  4  5  1  0
  4  6  1  0
  6  7  1  0
  6  8  1  0
  8  9  1  0
 17 18  1  0
 18 19  2  0
 19 20  1  0
 19 13  1  0
  8  1  1  0
 12 21  1  0
 12 22  1  0
 24 25  1  0
  5 10  1  0
  9 11  1  0
M  END
> <minimizedAffinity>
-7.89221

> <CNNscore>
0.2243809253

> <CNNaffinity>
4.1896820068

> <CNN_VS>
0.9400846958

> <CNNaffinity_variance>
0.2711102664

$$$$



 25 26  0  0  0  0  0  0  0  0999 V2000
   37.4693   26.8082   34.2650 C   0  0  0  0  0  0  0  0  0  0  0  0
   38.8308   27.1149   34.5700 O   0  0  0  0  0  0  0  0  0  0  0  0
   39.1594   27.3263   35.9516 C   0  0  0  0  0  0  0  0  0  0  0  0
   37.9953   27.9385   36.7365 C   0  0  0  0  0  0  0  0  0  0  0  0
   37.6773   29.2330   36.1961 O   0  0  0  0  0  0  0  0  0  0  0  0
   36.7368   27.0735   36.6608 C   0  0  0  0  0  0  0  0  0  0  0  0
   36.7006   26.2588   37.7606 F   0  0  0  0  0  0  0  0  0  0  0  0
   36.6683   26.1760   35.4223 C   0  0  0  0  0  0  0  0  0  0  0  0
   35.2908   25.9808   35.0471 O   0  0  0  0  0  0  0  0  0  0  0  0
   37.4005   29.1382   35.2713 H   0  0  0  0  0  0  0  0  0  0  0  0
   34.8868   26.8386   34.8424 H   0  0  0  0  0  0  0  0  0  0  0  0
   37.6611   23.5683   29.7803 N   0  0  0  0  0  0  0  0  0  0  0  0
   37.5560   24.3730   30.8876 C   0  0  0  0  0  0  0  0  0  0  0  0
   38.6829   24.7160   31.4373 N   0  0  0  0  0  0  0  0  0  0  0  0
   38.6947   25.5275   32.5463 C   0  0  0  0  0  0  0  0  0  0  0  0
   39.7631   25.8446   33.0677 O   0  0  0  0  0  0  0  0  0  0  0  0
   37.4738   25.9726   33.0574 N   0  0  0  0  0  0  0  0  0  0  0  0
   36.2751   25.5905   32.4902 C   0  0  0  0  0  0  0  0  0  0  0  0
   36.2269   24.8020   31.4156 C   0  0  0  0  0  0  0  0  0  0  0  0
   34.6562   24.2372   30.6087 Br  0  0  0  0  0  0  0  0  0  0  0  0
   38.5485   23.2982   29.4504 H   0  0  0  0  0  0  0  0  0  0  0  0
   36.8490   23.2612   29.3161 H   0  0  0  0  0  0  0  0  0  0  0  0
   39.7075   26.0458   36.6039 C   0  0  0  0  0  0  0  0  0  0  0  0
   40.8415   26.3505   37.4086 O   0  0  0  0  0  0  0  0  0  0  0  0
   41.5354   26.7413   36.8548 H   0  0  0  0  0  0  0  0  0  0  0  0
 12 13  1  0
 13 14  2  0
 14 15  1  0
 15 16  2  0
 15 17  1  0
  1 17  1  0
  1  2  1  0
  2  3  1  0
  3 23  1  0
 23 24  1  0
  3  4  1  0
  4  5  1  0
  4  6  1  0
  6  7  1  0
  6  8  1  0
  8  9  1  0
 17 18  1  0
 18 19  2  0
 19 20  1  0
 19 13  1  0
  8  1  1  0
 12 21  1  0
 12 22  1  0
 24 25  1  0
  5 10  1  0
  9 11  1  0
M  END
> <minimizedAffinity>
-5.99354

> <CNNscore>
0.2110763043

> <CNNaffinity>
4.0968804359

> <CNN_VS>
0.8647543788

> <CNNaffinity_variance>
0.4345213473

$$$$
