


 37 39  0  0  0  0  0  0  0  0999 V2000
   13.5565    9.0211    0.1133 C   0  0  0  0  0  0  0  0  0  0  0  0
   14.7232    8.4969    0.9455 C   0  0  0  0  0  0  0  0  0  0  0  0
   14.4021    7.3684    1.7411 O   0  0  0  0  0  0  0  0  0  0  0  0
   15.0894    9.7398    1.7462 C   0  0  0  0  0  0  0  0  0  0  0  0
   14.9406   10.8466    0.8309 O   0  0  0  0  0  0  0  0  0  0  0  0
   14.0750   10.4227   -0.2548 C   0  0  0  0  0  0  0  0  0  0  0  0
   13.6655    7.5888    2.3325 H   0  0  0  0  0  0  0  0  0  0  0  0
   14.8267   10.4807   -1.4990 N   0  0  0  0  0  0  0  0  0  0  0  0
   16.1209   10.9037   -1.6726 C   0  0  0  0  0  0  0  0  0  0  0  0
   16.4976   10.8401   -2.9335 N   0  0  0  0  0  0  0  0  0  0  0  0
   15.3847   10.3862   -3.6108 C   0  0  0  0  0  0  0  0  0  0  0  0
   15.1424   10.1179   -4.9684 C   0  0  0  0  0  0  0  0  0  0  0  0
   16.1023   10.2809   -5.9582 N   0  0  0  0  0  0  0  0  0  0  0  0
   13.9113    9.6876   -5.3326 N   0  0  0  0  0  0  0  0  0  0  0  0
   12.9789    9.5174   -4.3692 C   0  0  0  0  0  0  0  0  0  0  0  0
   13.0952    9.7352   -3.0429 N   0  0  0  0  0  0  0  0  0  0  0  0
   14.3303   10.1731   -2.7370 C   0  0  0  0  0  0  0  0  0  0  0  0
   17.0057   10.5925   -5.7213 H   0  0  0  0  0  0  0  0  0  0  0  0
   15.8797   10.0848   -6.8969 H   0  0  0  0  0  0  0  0  0  0  0  0
   12.5791   10.0107    2.0517 C   0  0  0  0  0  0  0  0  0  0  0  0
   12.3656    9.1891    0.9106 O   0  0  0  0  0  0  0  0  0  0  0  0
   16.5186    9.6963    2.2771 C   0  0  0  0  0  0  0  0  0  0  0  0
   16.7049    8.4970    3.0143 O   0  0  0  0  0  0  0  0  0  0  0  0
   17.9054    8.4723    4.1028 S   0  0  0  0  0  0  0  0  0  0  0  0
   18.6500    9.7101    4.0261 O   0  0  0  0  0  0  0  0  0  0  0  0
   18.5925    7.2045    3.9639 O   0  0  0  0  0  0  0  0  0  0  0  0
   17.1491    8.3978    5.5622 N   0  0  0  0  0  0  0  0  0  0  0  0
   16.3306    9.4136    6.0836 C   0  0  0  0  0  0  0  0  0  0  0  0
   16.0947   10.4389    5.4573 O   0  0  0  0  0  0  0  0  0  0  0  0
   17.2788    7.5875    6.1062 H   0  0  0  0  0  0  0  0  0  0  0  0
   15.8471    9.1654    7.5457 C   0  0  0  0  0  0  0  0  0  0  0  0
   16.2000    7.7923    7.9976 N   0  0  0  0  0  0  0  0  0  0  0  0
   15.7016    7.1084    7.4282 H   0  0  0  0  0  0  0  0  0  0  0  0
   15.9354    7.6778    8.9759 H   0  0  0  0  0  0  0  0  0  0  0  0
   14.3282    9.4020    7.7662 C   0  0  0  0  0  0  0  0  0  0  0  0
   14.0052   10.8540    8.1470 C   0  0  0  0  0  0  0  0  0  0  0  0
   13.4513    8.9450    6.5903 C   0  0  0  0  0  0  0  0  0  0  0  0
 20 21  1  0
  1 21  1  0
  1  2  1  0
  2  3  1  0
  2  4  1  0
  4 22  1  0
 22 23  1  0
 23 24  1  0
 24 25  2  0
 24 26  2  0
 24 27  1  0
 27 28  1  0
 28 29  2  0
 28 31  1  0
 31 32  1  0
 31 35  1  0
 35 36  1  0
 35 37  1  0
  4  5  1  0
  5  6  1  0
  6  8  1  0
  8  9  1  0
  9 10  2  0
 10 11  1  0
 11 12  2  0
 12 13  1  0
 12 14  1  0
 14 15  2  0
 15 16  1  0
 16 17  2  0
  6  1  1  0
 17  8  1  0
 17 11  1  0
  3  7  1  0
 27 30  1  0
 32 33  1  0
 32 34  1  0
 13 18  1  0
 13 19  1  0
M  END
> <minimizedAffinity>
-9.79315

> <CNNscore>
0.8996521831

> <CNNaffinity>
5.8746356964

> <CNN_VS>
5.2851285934

> <CNNaffinity_variance>
0.7969846129

$$$$



 37 39  0  0  0  0  0  0  0  0999 V2000
   14.0138    8.7149    0.4856 C   0  0  0  0  0  0  0  0  0  0  0  0
   15.1210    9.1330    1.4489 C   0  0  0  0  0  0  0  0  0  0  0  0
   15.3013    8.2455    2.5394 O   0  0  0  0  0  0  0  0  0  0  0  0
   14.6466   10.5239    1.8495 C   0  0  0  0  0  0  0  0  0  0  0  0
   14.1043   11.1086    0.6458 O   0  0  0  0  0  0  0  0  0  0  0  0
   13.7842   10.0330   -0.2753 C   0  0  0  0  0  0  0  0  0  0  0  0
   14.4689    8.1635    3.0306 H   0  0  0  0  0  0  0  0  0  0  0  0
   14.5964   10.1883   -1.4722 N   0  0  0  0  0  0  0  0  0  0  0  0
   15.8972   10.6199   -1.5474 C   0  0  0  0  0  0  0  0  0  0  0  0
   16.3357   10.6565   -2.7892 N   0  0  0  0  0  0  0  0  0  0  0  0
   15.2580   10.2617   -3.5548 C   0  0  0  0  0  0  0  0  0  0  0  0
   15.0833   10.1039   -4.9398 C   0  0  0  0  0  0  0  0  0  0  0  0
   16.0908   10.3427   -5.8648 N   0  0  0  0  0  0  0  0  0  0  0  0
   13.8721    9.7080   -5.3976 N   0  0  0  0  0  0  0  0  0  0  0  0
   12.8934    9.4639   -4.4980 C   0  0  0  0  0  0  0  0  0  0  0  0
   12.9439    9.5742   -3.1544 N   0  0  0  0  0  0  0  0  0  0  0  0
   14.1620    9.9825   -2.7539 C   0  0  0  0  0  0  0  0  0  0  0  0
   16.9810   10.6316   -5.5594 H   0  0  0  0  0  0  0  0  0  0  0  0
   15.9149   10.2233   -6.8261 H   0  0  0  0  0  0  0  0  0  0  0  0
   12.8504    8.7125    2.5686 C   0  0  0  0  0  0  0  0  0  0  0  0
   12.7928    8.3929    1.1840 O   0  0  0  0  0  0  0  0  0  0  0  0
   15.7760   11.3977    2.3856 C   0  0  0  0  0  0  0  0  0  0  0  0
   17.0203   10.7735    2.1058 O   0  0  0  0  0  0  0  0  0  0  0  0
   18.0623   10.6081    3.3360 S   0  0  0  0  0  0  0  0  0  0  0  0
   17.7473    9.4052    4.0750 O   0  0  0  0  0  0  0  0  0  0  0  0
   18.1310   11.8821    4.0222 O   0  0  0  0  0  0  0  0  0  0  0  0
   19.5323   10.4215    2.6205 N   0  0  0  0  0  0  0  0  0  0  0  0
   20.1053   11.3477    1.7331 C   0  0  0  0  0  0  0  0  0  0  0  0
   19.5471   12.3991    1.4469 O   0  0  0  0  0  0  0  0  0  0  0  0
   20.0443    9.6066    2.8281 H   0  0  0  0  0  0  0  0  0  0  0  0
   21.4399   10.8739    1.0794 C   0  0  0  0  0  0  0  0  0  0  0  0
   22.1754   12.0198    0.4794 N   0  0  0  0  0  0  0  0  0  0  0  0
   21.6258   12.4144   -0.2839 H   0  0  0  0  0  0  0  0  0  0  0  0
   23.0736   11.6966    0.1199 H   0  0  0  0  0  0  0  0  0  0  0  0
   21.2689    9.7599    0.0110 C   0  0  0  0  0  0  0  0  0  0  0  0
   21.6796    8.3745    0.5305 C   0  0  0  0  0  0  0  0  0  0  0  0
   19.8659    9.7077   -0.6129 C   0  0  0  0  0  0  0  0  0  0  0  0
 20 21  1  0
  1 21  1  0
  1  2  1  0
  2  3  1  0
  2  4  1  0
  4 22  1  0
 22 23  1  0
 23 24  1  0
 24 25  2  0
 24 26  2  0
 24 27  1  0
 27 28  1  0
 28 29  2  0
 28 31  1  0
 31 32  1  0
 31 35  1  0
 35 36  1  0
 35 37  1  0
  4  5  1  0
  5  6  1  0
  6  8  1  0
  8  9  1  0
  9 10  2  0
 10 11  1  0
 11 12  2  0
 12 13  1  0
 12 14  1  0
 14 15  2  0
 15 16  1  0
 16 17  2  0
  6  1  1  0
 17  8  1  0
 17 11  1  0
  3  7  1  0
 27 30  1  0
 32 33  1  0
 32 34  1  0
 13 18  1  0
 13 19  1  0
M  END
> <minimizedAffinity>
-9.60912

> <CNNscore>
0.6364797354

> <CNNaffinity>
5.4504494667

> <CNN_VS>
3.4691007137

> <CNNaffinity_variance>
0.5570916533

$$$$



 37 39  0  0  0  0  0  0  0  0999 V2000
   14.5857    9.0564    0.2801 C   0  0  0  0  0  0  0  0  0  0  0  0
   14.2024    8.3022    1.5500 C   0  0  0  0  0  0  0  0  0  0  0  0
   13.6646    7.0121    1.3138 O   0  0  0  0  0  0  0  0  0  0  0  0
   13.2208    9.2801    2.1827 C   0  0  0  0  0  0  0  0  0  0  0  0
   13.7690   10.5926    1.9343 O   0  0  0  0  0  0  0  0  0  0  0  0
   14.6981   10.4921    0.8232 C   0  0  0  0  0  0  0  0  0  0  0  0
   12.8842    7.0867    0.7425 H   0  0  0  0  0  0  0  0  0  0  0  0
   16.0257   10.8578    1.2924 N   0  0  0  0  0  0  0  0  0  0  0  0
   16.4123   11.1156    2.5839 C   0  0  0  0  0  0  0  0  0  0  0  0
   17.6890   11.4304    2.6651 N   0  0  0  0  0  0  0  0  0  0  0  0
   18.1408   11.4069    1.3618 C   0  0  0  0  0  0  0  0  0  0  0  0
   19.3982   11.6575    0.7873 C   0  0  0  0  0  0  0  0  0  0  0  0
   20.5184   12.0026    1.5315 N   0  0  0  0  0  0  0  0  0  0  0  0
   19.5240   11.5669   -0.5578 N   0  0  0  0  0  0  0  0  0  0  0  0
   18.4375   11.2200   -1.2830 C   0  0  0  0  0  0  0  0  0  0  0  0
   17.1894   10.9521   -0.8464 N   0  0  0  0  0  0  0  0  0  0  0  0
   17.1160   11.0691    0.4921 C   0  0  0  0  0  0  0  0  0  0  0  0
   20.4551   12.0755    2.5112 H   0  0  0  0  0  0  0  0  0  0  0  0
   21.3759   12.1742    1.0794 H   0  0  0  0  0  0  0  0  0  0  0  0
   13.9281    9.5301   -1.9639 C   0  0  0  0  0  0  0  0  0  0  0  0
   13.5207    9.0375   -0.6934 O   0  0  0  0  0  0  0  0  0  0  0  0
   13.0602    9.0623    3.6837 C   0  0  0  0  0  0  0  0  0  0  0  0
   14.0447    9.8196    4.3718 O   0  0  0  0  0  0  0  0  0  0  0  0
   14.7944    9.1058    5.6189 S   0  0  0  0  0  0  0  0  0  0  0  0
   16.1752    8.8531    5.2695 O   0  0  0  0  0  0  0  0  0  0  0  0
   13.9508    8.0174    6.0685 O   0  0  0  0  0  0  0  0  0  0  0  0
   14.7489   10.2184    6.8304 N   0  0  0  0  0  0  0  0  0  0  0  0
   15.1859    9.9784    8.1439 C   0  0  0  0  0  0  0  0  0  0  0  0
   15.6706    8.9049    8.4777 O   0  0  0  0  0  0  0  0  0  0  0  0
   14.3916   11.1116    6.6209 H   0  0  0  0  0  0  0  0  0  0  0  0
   14.9050   11.1452    9.1402 C   0  0  0  0  0  0  0  0  0  0  0  0
   15.7995   11.0599   10.3262 N   0  0  0  0  0  0  0  0  0  0  0  0
   15.5952   10.2060   10.8454 H   0  0  0  0  0  0  0  0  0  0  0  0
   15.6445   11.8688   10.9279 H   0  0  0  0  0  0  0  0  0  0  0  0
   13.4300   11.2379    9.6174 C   0  0  0  0  0  0  0  0  0  0  0  0
   12.7576    9.8621    9.7303 C   0  0  0  0  0  0  0  0  0  0  0  0
   13.2468   12.0361   10.9174 C   0  0  0  0  0  0  0  0  0  0  0  0
 20 21  1  0
  1 21  1  0
  1  2  1  0
  2  3  1  0
  2  4  1  0
  4 22  1  0
 22 23  1  0
 23 24  1  0
 24 25  2  0
 24 26  2  0
 24 27  1  0
 27 28  1  0
 28 29  2  0
 28 31  1  0
 31 32  1  0
 31 35  1  0
 35 36  1  0
 35 37  1  0
  4  5  1  0
  5  6  1  0
  6  8  1  0
  8  9  1  0
  9 10  2  0
 10 11  1  0
 11 12  2  0
 12 13  1  0
 12 14  1  0
 14 15  2  0
 15 16  1  0
 16 17  2  0
  6  1  1  0
 17  8  1  0
 17 11  1  0
  3  7  1  0
 27 30  1  0
 32 33  1  0
 32 34  1  0
 13 18  1  0
 13 19  1  0
M  END
> <minimizedAffinity>
-9.54914

> <CNNscore>
0.0760157108

> <CNNaffinity>
5.3255038261

> <CNN_VS>
0.4048219621

> <CNNaffinity_variance>
1.0955084562

$$$$



 37 39  0  0  0  0  0  0  0  0999 V2000
   18.3030   12.1783   -0.1159 C   0  0  0  0  0  0  0  0  0  0  0  0
   18.0267   12.5484    1.3385 C   0  0  0  0  0  0  0  0  0  0  0  0
   18.6872   13.7267    1.7687 O   0  0  0  0  0  0  0  0  0  0  0  0
   18.4838   11.2824    2.0515 C   0  0  0  0  0  0  0  0  0  0  0  0
   18.0614   10.1898    1.2073 O   0  0  0  0  0  0  0  0  0  0  0  0
   17.8409   10.7103   -0.1299 C   0  0  0  0  0  0  0  0  0  0  0  0
   19.6438   13.6248    1.6444 H   0  0  0  0  0  0  0  0  0  0  0  0
   16.4409   10.5215   -0.4777 N   0  0  0  0  0  0  0  0  0  0  0  0
   15.3857   10.3379    0.3806 C   0  0  0  0  0  0  0  0  0  0  0  0
   14.2456   10.1861   -0.2619 N   0  0  0  0  0  0  0  0  0  0  0  0
   14.5845   10.2412   -1.5981 C   0  0  0  0  0  0  0  0  0  0  0  0
   13.8257   10.1384   -2.7759 C   0  0  0  0  0  0  0  0  0  0  0  0
   12.4502    9.9493   -2.7795 N   0  0  0  0  0  0  0  0  0  0  0  0
   14.4657   10.2187   -3.9664 N   0  0  0  0  0  0  0  0  0  0  0  0
   15.8031   10.4142   -3.9651 C   0  0  0  0  0  0  0  0  0  0  0  0
   16.6314   10.5328   -2.9069 N   0  0  0  0  0  0  0  0  0  0  0  0
   15.9485   10.4326   -1.7518 C   0  0  0  0  0  0  0  0  0  0  0  0
   11.9596    9.8874   -1.9282 H   0  0  0  0  0  0  0  0  0  0  0  0
   11.9654    9.8773   -3.6333 H   0  0  0  0  0  0  0  0  0  0  0  0
   20.3182   10.9139   -0.2962 C   0  0  0  0  0  0  0  0  0  0  0  0
   19.7152   12.1968   -0.4118 O   0  0  0  0  0  0  0  0  0  0  0  0
   17.8656   11.1336    3.4380 C   0  0  0  0  0  0  0  0  0  0  0  0
   16.5070   10.7434    3.3023 O   0  0  0  0  0  0  0  0  0  0  0  0
   16.0834    9.3017    3.9095 S   0  0  0  0  0  0  0  0  0  0  0  0
   17.1100    8.3299    3.6027 O   0  0  0  0  0  0  0  0  0  0  0  0
   14.7107    9.0519    3.5199 O   0  0  0  0  0  0  0  0  0  0  0  0
   16.0371    9.5281    5.5387 N   0  0  0  0  0  0  0  0  0  0  0  0
   14.8798    9.3979    6.3245 C   0  0  0  0  0  0  0  0  0  0  0  0
   13.8039    9.0696    5.8412 O   0  0  0  0  0  0  0  0  0  0  0  0
   16.8761    9.7709    5.9930 H   0  0  0  0  0  0  0  0  0  0  0  0
   15.0661    9.8042    7.8189 C   0  0  0  0  0  0  0  0  0  0  0  0
   15.4940    8.6385    8.6386 N   0  0  0  0  0  0  0  0  0  0  0  0
   14.7560    7.9344    8.6398 H   0  0  0  0  0  0  0  0  0  0  0  0
   15.6748    8.9433    9.5950 H   0  0  0  0  0  0  0  0  0  0  0  0
   13.8122   10.4524    8.4668 C   0  0  0  0  0  0  0  0  0  0  0  0
   12.8410    9.4129    9.0444 C   0  0  0  0  0  0  0  0  0  0  0  0
   14.1400   11.5258    9.5161 C   0  0  0  0  0  0  0  0  0  0  0  0
 20 21  1  0
  1 21  1  0
  1  2  1  0
  2  3  1  0
  2  4  1  0
  4 22  1  0
 22 23  1  0
 23 24  1  0
 24 25  2  0
 24 26  2  0
 24 27  1  0
 27 28  1  0
 28 29  2  0
 28 31  1  0
 31 32  1  0
 31 35  1  0
 35 36  1  0
 35 37  1  0
  4  5  1  0
  5  6  1  0
  6  8  1  0
  8  9  1  0
  9 10  2  0
 10 11  1  0
 11 12  2  0
 12 13  1  0
 12 14  1  0
 14 15  2  0
 15 16  1  0
 16 17  2  0
  6  1  1  0
 17  8  1  0
 17 11  1  0
  3  7  1  0
 27 30  1  0
 32 33  1  0
 32 34  1  0
 13 18  1  0
 13 19  1  0
M  END
> <minimizedAffinity>
-8.51722

> <CNNscore>
0.0674380213

> <CNNaffinity>
4.8414759636

> <CNN_VS>
0.3264995515

> <CNNaffinity_variance>
0.6158757210

$$$$



 37 39  0  0  0  0  0  0  0  0999 V2000
   20.4735   10.8176    0.5232 C   0  0  0  0  0  0  0  0  0  0  0  0
   19.1639   10.2387    1.0510 C   0  0  0  0  0  0  0  0  0  0  0  0
   18.1026   10.2645    0.1116 O   0  0  0  0  0  0  0  0  0  0  0  0
   18.9330   11.1142    2.2759 C   0  0  0  0  0  0  0  0  0  0  0  0
   20.2383   11.3123    2.8606 O   0  0  0  0  0  0  0  0  0  0  0  0
   21.2363   11.0461    1.8403 C   0  0  0  0  0  0  0  0  0  0  0  0
   17.9505   11.1772   -0.1795 H   0  0  0  0  0  0  0  0  0  0  0  0
   22.0511    9.9198    2.2692 N   0  0  0  0  0  0  0  0  0  0  0  0
   22.4632    8.8520    1.5115 C   0  0  0  0  0  0  0  0  0  0  0  0
   23.1831    7.9979    2.2100 N   0  0  0  0  0  0  0  0  0  0  0  0
   23.2100    8.5213    3.4862 C   0  0  0  0  0  0  0  0  0  0  0  0
   23.8025    8.0809    4.6815 C   0  0  0  0  0  0  0  0  0  0  0  0
   24.5488    6.9138    4.7746 N   0  0  0  0  0  0  0  0  0  0  0  0
   23.6318    8.8248    5.7999 N   0  0  0  0  0  0  0  0  0  0  0  0
   22.9153    9.9671    5.7089 C   0  0  0  0  0  0  0  0  0  0  0  0
   22.3080   10.4909    4.6240 N   0  0  0  0  0  0  0  0  0  0  0  0
   22.4970    9.7081    3.5460 C   0  0  0  0  0  0  0  0  0  0  0  0
   24.6887    6.3540    3.9769 H   0  0  0  0  0  0  0  0  0  0  0  0
   24.9381    6.6461    5.6383 H   0  0  0  0  0  0  0  0  0  0  0  0
   18.9092   12.3700   -0.3908 C   0  0  0  0  0  0  0  0  0  0  0  0
   20.2755   12.1047   -0.0984 O   0  0  0  0  0  0  0  0  0  0  0  0
   18.0030   10.4642    3.2952 C   0  0  0  0  0  0  0  0  0  0  0  0
   16.6607   10.5969    2.8515 O   0  0  0  0  0  0  0  0  0  0  0  0
   15.6537   11.4652    3.7782 S   0  0  0  0  0  0  0  0  0  0  0  0
   14.2871   11.1916    3.3910 O   0  0  0  0  0  0  0  0  0  0  0  0
   16.1427   12.8288    3.7926 O   0  0  0  0  0  0  0  0  0  0  0  0
   15.8954   10.9019    5.3052 N   0  0  0  0  0  0  0  0  0  0  0  0
   15.5652    9.6052    5.7333 C   0  0  0  0  0  0  0  0  0  0  0  0
   15.0891    8.7743    4.9704 O   0  0  0  0  0  0  0  0  0  0  0  0
   16.2982   11.5142    5.9625 H   0  0  0  0  0  0  0  0  0  0  0  0
   15.7592    9.3617    7.2617 C   0  0  0  0  0  0  0  0  0  0  0  0
   16.4043    8.0448    7.5137 N   0  0  0  0  0  0  0  0  0  0  0  0
   15.7866    7.2974    7.1972 H   0  0  0  0  0  0  0  0  0  0  0  0
   16.5821    7.9389    8.5125 H   0  0  0  0  0  0  0  0  0  0  0  0
   14.4529    9.4595    8.0960 C   0  0  0  0  0  0  0  0  0  0  0  0
   13.8940   10.8885    8.1539 C   0  0  0  0  0  0  0  0  0  0  0  0
   13.3612    8.4708    7.6588 C   0  0  0  0  0  0  0  0  0  0  0  0
 20 21  1  0
  1 21  1  0
  1  2  1  0
  2  3  1  0
  2  4  1  0
  4 22  1  0
 22 23  1  0
 23 24  1  0
 24 25  2  0
 24 26  2  0
 24 27  1  0
 27 28  1  0
 28 29  2  0
 28 31  1  0
 31 32  1  0
 31 35  1  0
 35 36  1  0
 35 37  1  0
  4  5  1  0
  5  6  1  0
  6  8  1  0
  8  9  1  0
  9 10  2  0
 10 11  1  0
 11 12  2  0
 12 13  1  0
 12 14  1  0
 14 15  2  0
 15 16  1  0
 16 17  2  0
  6  1  1  0
 17  8  1  0
 17 11  1  0
  3  7  1  0
 27 30  1  0
 32 33  1  0
 32 34  1  0
 13 18  1  0
 13 19  1  0
M  END
> <minimizedAffinity>
-9.16990

> <CNNscore>
0.0627812669

> <CNNaffinity>
4.8053021431

> <CNN_VS>
0.3016829491

> <CNNaffinity_variance>
0.3360491693

$$$$



 37 39  0  0  0  0  0  0  0  0999 V2000
   21.5522    7.9647    2.2444 C   0  0  0  0  0  0  0  0  0  0  0  0
   20.6962    9.2242    2.1469 C   0  0  0  0  0  0  0  0  0  0  0  0
   19.5333    9.0702    1.3509 O   0  0  0  0  0  0  0  0  0  0  0  0
   21.7061   10.2184    1.5886 C   0  0  0  0  0  0  0  0  0  0  0  0
   22.9535    9.9140    2.2492 O   0  0  0  0  0  0  0  0  0  0  0  0
   22.8753    8.5576    2.7610 C   0  0  0  0  0  0  0  0  0  0  0  0
   19.7877    8.7906    0.4576 H   0  0  0  0  0  0  0  0  0  0  0  0
   22.9926    8.5998    4.2105 N   0  0  0  0  0  0  0  0  0  0  0  0
   22.2100    9.3046    5.0906 C   0  0  0  0  0  0  0  0  0  0  0  0
   22.5914    9.1323    6.3398 N   0  0  0  0  0  0  0  0  0  0  0  0
   23.6918    8.3040    6.2608 C   0  0  0  0  0  0  0  0  0  0  0  0
   24.5457    7.7627    7.2363 C   0  0  0  0  0  0  0  0  0  0  0  0
   24.3930    7.9999    8.5957 N   0  0  0  0  0  0  0  0  0  0  0  0
   25.5729    6.9783    6.8328 N   0  0  0  0  0  0  0  0  0  0  0  0
   25.7165    6.7368    5.5108 C   0  0  0  0  0  0  0  0  0  0  0  0
   24.9624    7.1927    4.4892 N   0  0  0  0  0  0  0  0  0  0  0  0
   23.9665    7.9758    4.9427 C   0  0  0  0  0  0  0  0  0  0  0  0
   23.6547    8.5665    8.9167 H   0  0  0  0  0  0  0  0  0  0  0  0
   25.0231    7.6014    9.2387 H   0  0  0  0  0  0  0  0  0  0  0  0
   21.6140    8.3200   -0.1140 C   0  0  0  0  0  0  0  0  0  0  0  0
   21.8062    7.3906    0.9452 O   0  0  0  0  0  0  0  0  0  0  0  0
   21.3163   11.6674    1.8619 C   0  0  0  0  0  0  0  0  0  0  0  0
   19.9025   11.7589    1.9575 O   0  0  0  0  0  0  0  0  0  0  0  0
   19.1262   12.5430    0.7704 S   0  0  0  0  0  0  0  0  0  0  0  0
   19.8872   12.4357   -0.4551 O   0  0  0  0  0  0  0  0  0  0  0  0
   18.7556   13.8473    1.2803 O   0  0  0  0  0  0  0  0  0  0  0  0
   17.7073   11.7303    0.5865 N   0  0  0  0  0  0  0  0  0  0  0  0
   17.2605   11.1797   -0.6263 C   0  0  0  0  0  0  0  0  0  0  0  0
   17.9288   11.2438   -1.6502 O   0  0  0  0  0  0  0  0  0  0  0  0
   17.1333   11.6227    1.3791 H   0  0  0  0  0  0  0  0  0  0  0  0
   15.8194   10.5854   -0.5726 C   0  0  0  0  0  0  0  0  0  0  0  0
   15.6608    9.6775    0.5956 N   0  0  0  0  0  0  0  0  0  0  0  0
   16.2806    8.8744    0.4886 H   0  0  0  0  0  0  0  0  0  0  0  0
   14.6941    9.3563    0.6478 H   0  0  0  0  0  0  0  0  0  0  0  0
   15.3868    9.8384   -1.8636 C   0  0  0  0  0  0  0  0  0  0  0  0
   13.9238    9.3745   -1.8161 C   0  0  0  0  0  0  0  0  0  0  0  0
   15.6625   10.6216   -3.1563 C   0  0  0  0  0  0  0  0  0  0  0  0
 20 21  1  0
  1 21  1  0
  1  2  1  0
  2  3  1  0
  2  4  1  0
  4 22  1  0
 22 23  1  0
 23 24  1  0
 24 25  2  0
 24 26  2  0
 24 27  1  0
 27 28  1  0
 28 29  2  0
 28 31  1  0
 31 32  1  0
 31 35  1  0
 35 36  1  0
 35 37  1  0
  4  5  1  0
  5  6  1  0
  6  8  1  0
  8  9  1  0
  9 10  2  0
 10 11  1  0
 11 12  2  0
 12 13  1  0
 12 14  1  0
 14 15  2  0
 15 16  1  0
 16 17  2  0
  6  1  1  0
 17  8  1  0
 17 11  1  0
  3  7  1  0
 27 30  1  0
 32 33  1  0
 32 34  1  0
 13 18  1  0
 13 19  1  0
M  END
> <minimizedAffinity>
-9.69240

> <CNNscore>
0.0540078133

> <CNNaffinity>
4.1392149925

> <CNN_VS>
0.2235499471

> <CNNaffinity_variance>
0.9812948704

$$$$



 37 39  0  0  0  0  0  0  0  0999 V2000
   21.2329    5.7524    3.8583 C   0  0  0  0  0  0  0  0  0  0  0  0
   20.6778    7.1738    3.8502 C   0  0  0  0  0  0  0  0  0  0  0  0
   19.2627    7.2394    3.7977 O   0  0  0  0  0  0  0  0  0  0  0  0
   21.3740    7.7498    2.6239 C   0  0  0  0  0  0  0  0  0  0  0  0
   22.7114    7.2060    2.6481 O   0  0  0  0  0  0  0  0  0  0  0  0
   22.7015    6.0170    3.4811 C   0  0  0  0  0  0  0  0  0  0  0  0
   18.9464    6.7717    3.0090 H   0  0  0  0  0  0  0  0  0  0  0  0
   23.5859    6.2360    4.6152 N   0  0  0  0  0  0  0  0  0  0  0  0
   24.7371    5.5533    4.9192 C   0  0  0  0  0  0  0  0  0  0  0  0
   25.2975    5.9958    6.0264 N   0  0  0  0  0  0  0  0  0  0  0  0
   24.4517    6.9886    6.4764 C   0  0  0  0  0  0  0  0  0  0  0  0
   24.4883    7.8309    7.6002 C   0  0  0  0  0  0  0  0  0  0  0  0
   25.5072    7.7963    8.5428 N   0  0  0  0  0  0  0  0  0  0  0  0
   23.4779    8.7142    7.7792 N   0  0  0  0  0  0  0  0  0  0  0  0
   22.4910    8.7574    6.8567 C   0  0  0  0  0  0  0  0  0  0  0  0
   22.3518    8.0087    5.7431 N   0  0  0  0  0  0  0  0  0  0  0  0
   23.3727    7.1407    5.6202 C   0  0  0  0  0  0  0  0  0  0  0  0
   26.2541    7.1637    8.4372 H   0  0  0  0  0  0  0  0  0  0  0  0
   25.4826    8.4043    9.3167 H   0  0  0  0  0  0  0  0  0  0  0  0
   20.5630    3.5705    3.1635 C   0  0  0  0  0  0  0  0  0  0  0  0
   20.6498    4.9462    2.8132 O   0  0  0  0  0  0  0  0  0  0  0  0
   21.4349    9.2737    2.6449 C   0  0  0  0  0  0  0  0  0  0  0  0
   21.5340    9.7539    1.3123 O   0  0  0  0  0  0  0  0  0  0  0  0
   20.6641   11.0664    0.9283 S   0  0  0  0  0  0  0  0  0  0  0  0
   21.5117   12.0250    0.2538 O   0  0  0  0  0  0  0  0  0  0  0  0
   19.9250   11.4596    2.1106 O   0  0  0  0  0  0  0  0  0  0  0  0
   19.5287   10.5237   -0.1320 N   0  0  0  0  0  0  0  0  0  0  0  0
   18.3160   11.1805   -0.3997 C   0  0  0  0  0  0  0  0  0  0  0  0
   18.0270   12.2455    0.1306 O   0  0  0  0  0  0  0  0  0  0  0  0
   19.7114    9.6829   -0.6105 H   0  0  0  0  0  0  0  0  0  0  0  0
   17.3479   10.3913   -1.3340 C   0  0  0  0  0  0  0  0  0  0  0  0
   17.3713   10.9447   -2.7151 N   0  0  0  0  0  0  0  0  0  0  0  0
   17.0168   11.9010   -2.7042 H   0  0  0  0  0  0  0  0  0  0  0  0
   16.7844   10.3714   -3.3211 H   0  0  0  0  0  0  0  0  0  0  0  0
   15.8797   10.3327   -0.8312 C   0  0  0  0  0  0  0  0  0  0  0  0
   15.7700   10.4870    0.6926 C   0  0  0  0  0  0  0  0  0  0  0  0
   14.9398   11.3185   -1.5421 C   0  0  0  0  0  0  0  0  0  0  0  0
 20 21  1  0
  1 21  1  0
  1  2  1  0
  2  3  1  0
  2  4  1  0
  4 22  1  0
 22 23  1  0
 23 24  1  0
 24 25  2  0
 24 26  2  0
 24 27  1  0
 27 28  1  0
 28 29  2  0
 28 31  1  0
 31 32  1  0
 31 35  1  0
 35 36  1  0
 35 37  1  0
  4  5  1  0
  5  6  1  0
  6  8  1  0
  8  9  1  0
  9 10  2  0
 10 11  1  0
 11 12  2  0
 12 13  1  0
 12 14  1  0
 14 15  2  0
 15 16  1  0
 16 17  2  0
  6  1  1  0
 17  8  1  0
 17 11  1  0
  3  7  1  0
 27 30  1  0
 32 33  1  0
 32 34  1  0
 13 18  1  0
 13 19  1  0
M  END
> <minimizedAffinity>
-8.22157

> <CNNscore>
0.0481158793

> <CNNaffinity>
4.0831756592

> <CNN_VS>
0.1964655817

> <CNNaffinity_variance>
0.8430480361

$$$$



 37 39  0  0  0  0  0  0  0  0999 V2000
   18.9089   12.3080   -0.2321 C   0  0  0  0  0  0  0  0  0  0  0  0
   18.1681   12.7405    1.0300 C   0  0  0  0  0  0  0  0  0  0  0  0
   18.6682   13.9327    1.6115 O   0  0  0  0  0  0  0  0  0  0  0  0
   18.3360   11.5036    1.9028 C   0  0  0  0  0  0  0  0  0  0  0  0
   18.2005   10.3783    1.0081 O   0  0  0  0  0  0  0  0  0  0  0  0
   18.4507   10.8430   -0.3444 C   0  0  0  0  0  0  0  0  0  0  0  0
   19.6091   13.8210    1.8195 H   0  0  0  0  0  0  0  0  0  0  0  0
   17.2449   10.6465   -1.1344 N   0  0  0  0  0  0  0  0  0  0  0  0
   17.1392   10.6205   -2.5026 C   0  0  0  0  0  0  0  0  0  0  0  0
   15.8971   10.4323   -2.8996 N   0  0  0  0  0  0  0  0  0  0  0  0
   15.1614   10.3663   -1.7345 C   0  0  0  0  0  0  0  0  0  0  0  0
   13.7903   10.1875   -1.4853 C   0  0  0  0  0  0  0  0  0  0  0  0
   12.8500   10.0227   -2.4934 N   0  0  0  0  0  0  0  0  0  0  0  0
   13.3618   10.1838   -0.2009 N   0  0  0  0  0  0  0  0  0  0  0  0
   14.2771   10.3326    0.7824 C   0  0  0  0  0  0  0  0  0  0  0  0
   15.6101   10.5050    0.6670 N   0  0  0  0  0  0  0  0  0  0  0  0
   15.9806   10.5143   -0.6266 C   0  0  0  0  0  0  0  0  0  0  0  0
   13.1341   10.0214   -3.4361 H   0  0  0  0  0  0  0  0  0  0  0  0
   11.8992    9.9072   -2.2657 H   0  0  0  0  0  0  0  0  0  0  0  0
   20.8861   10.9953    0.0119 C   0  0  0  0  0  0  0  0  0  0  0  0
   20.3386   12.3071   -0.0374 O   0  0  0  0  0  0  0  0  0  0  0  0
   17.2863   11.4165    3.0059 C   0  0  0  0  0  0  0  0  0  0  0  0
   17.7795   10.5951    4.0539 O   0  0  0  0  0  0  0  0  0  0  0  0
   16.9887    9.2116    4.3491 S   0  0  0  0  0  0  0  0  0  0  0  0
   17.7666    8.3969    5.2566 O   0  0  0  0  0  0  0  0  0  0  0  0
   16.5656    8.6716    3.0732 O   0  0  0  0  0  0  0  0  0  0  0  0
   15.6021    9.6724    5.1059 N   0  0  0  0  0  0  0  0  0  0  0  0
   15.4653    9.8053    6.4978 C   0  0  0  0  0  0  0  0  0  0  0  0
   16.4026    9.6102    7.2609 O   0  0  0  0  0  0  0  0  0  0  0  0
   14.8162    9.8679    4.5461 H   0  0  0  0  0  0  0  0  0  0  0  0
   14.0132   10.1146    6.9763 C   0  0  0  0  0  0  0  0  0  0  0  0
   13.9798   11.3410    7.8184 N   0  0  0  0  0  0  0  0  0  0  0  0
   14.5174   11.1830    8.6707 H   0  0  0  0  0  0  0  0  0  0  0  0
   13.0138   11.5603    8.0615 H   0  0  0  0  0  0  0  0  0  0  0  0
   13.3301    8.9492    7.7425 C   0  0  0  0  0  0  0  0  0  0  0  0
   14.0689    7.6143    7.5689 C   0  0  0  0  0  0  0  0  0  0  0  0
   13.0881    9.2420    9.2312 C   0  0  0  0  0  0  0  0  0  0  0  0
 20 21  1  0
  1 21  1  0
  1  2  1  0
  2  3  1  0
  2  4  1  0
  4 22  1  0
 22 23  1  0
 23 24  1  0
 24 25  2  0
 24 26  2  0
 24 27  1  0
 27 28  1  0
 28 29  2  0
 28 31  1  0
 31 32  1  0
 31 35  1  0
 35 36  1  0
 35 37  1  0
  4  5  1  0
  5  6  1  0
  6  8  1  0
  8  9  1  0
  9 10  2  0
 10 11  1  0
 11 12  2  0
 12 13  1  0
 12 14  1  0
 14 15  2  0
 15 16  1  0
 16 17  2  0
  6  1  1  0
 17  8  1  0
 17 11  1  0
  3  7  1  0
 27 30  1  0
 32 33  1  0
 32 34  1  0
 13 18  1  0
 13 19  1  0
M  END
> <minimizedAffinity>
-8.76693

> <CNNscore>
0.0343454629

> <CNNaffinity>
4.4823622704

> <CNN_VS>
0.1539488137

> <CNNaffinity_variance>
0.9853515625

$$$$



 37 39  0  0  0  0  0  0  0  0999 V2000
   19.6064    6.9252    4.5025 C   0  0  0  0  0  0  0  0  0  0  0  0
   18.8828    8.2508    4.2842 C   0  0  0  0  0  0  0  0  0  0  0  0
   17.4706    8.1561    4.3637 O   0  0  0  0  0  0  0  0  0  0  0  0
   19.4043    8.6425    2.9078 C   0  0  0  0  0  0  0  0  0  0  0  0
   20.7959    8.2574    2.8981 O   0  0  0  0  0  0  0  0  0  0  0  0
   20.9973    7.2623    3.9359 C   0  0  0  0  0  0  0  0  0  0  0  0
   17.1526    7.5111    3.7127 H   0  0  0  0  0  0  0  0  0  0  0  0
   21.9349    7.7928    4.9136 N   0  0  0  0  0  0  0  0  0  0  0  0
   21.9142    9.0327    5.5019 C   0  0  0  0  0  0  0  0  0  0  0  0
   22.9180    9.2006    6.3385 N   0  0  0  0  0  0  0  0  0  0  0  0
   23.6394    8.0271    6.2626 C   0  0  0  0  0  0  0  0  0  0  0  0
   24.8127    7.5900    6.9000 C   0  0  0  0  0  0  0  0  0  0  0  0
   25.5089    8.3605    7.8214 N   0  0  0  0  0  0  0  0  0  0  0  0
   25.2941    6.3615    6.5962 N   0  0  0  0  0  0  0  0  0  0  0  0
   24.6115    5.6052    5.7080 C   0  0  0  0  0  0  0  0  0  0  0  0
   23.4799    5.9127    5.0411 N   0  0  0  0  0  0  0  0  0  0  0  0
   23.0523    7.1459    5.3685 C   0  0  0  0  0  0  0  0  0  0  0  0
   25.1812    9.2575    8.0607 H   0  0  0  0  0  0  0  0  0  0  0  0
   26.3304    8.0100    8.2356 H   0  0  0  0  0  0  0  0  0  0  0  0
   19.3844    4.5738    4.1647 C   0  0  0  0  0  0  0  0  0  0  0  0
   19.0457    5.8716    3.6915 O   0  0  0  0  0  0  0  0  0  0  0  0
   19.2798   10.1382    2.6364 C   0  0  0  0  0  0  0  0  0  0  0  0
   19.1770   10.3502    1.2361 O   0  0  0  0  0  0  0  0  0  0  0  0
   18.7972   11.8444    0.7363 S   0  0  0  0  0  0  0  0  0  0  0  0
   19.7656   12.2846   -0.2439 O   0  0  0  0  0  0  0  0  0  0  0  0
   18.5452   12.6468    1.9158 O   0  0  0  0  0  0  0  0  0  0  0  0
   17.3339   11.6833    0.0011 N   0  0  0  0  0  0  0  0  0  0  0  0
   17.1268   11.0064   -1.2125 C   0  0  0  0  0  0  0  0  0  0  0  0
   18.0415   10.4504   -1.8067 O   0  0  0  0  0  0  0  0  0  0  0  0
   16.5516   12.0880    0.4409 H   0  0  0  0  0  0  0  0  0  0  0  0
   15.6754   11.1173   -1.7731 C   0  0  0  0  0  0  0  0  0  0  0  0
   14.6783   11.1422   -0.6689 N   0  0  0  0  0  0  0  0  0  0  0  0
   14.7066   10.2557   -0.1653 H   0  0  0  0  0  0  0  0  0  0  0  0
   13.7454   11.2836   -1.0564 H   0  0  0  0  0  0  0  0  0  0  0  0
   15.2927   10.0014   -2.7831 C   0  0  0  0  0  0  0  0  0  0  0  0
   13.8977    9.4171   -2.5178 C   0  0  0  0  0  0  0  0  0  0  0  0
   15.4305   10.4214   -4.2545 C   0  0  0  0  0  0  0  0  0  0  0  0
 20 21  1  0
  1 21  1  0
  1  2  1  0
  2  3  1  0
  2  4  1  0
  4 22  1  0
 22 23  1  0
 23 24  1  0
 24 25  2  0
 24 26  2  0
 24 27  1  0
 27 28  1  0
 28 29  2  0
 28 31  1  0
 31 32  1  0
 31 35  1  0
 35 36  1  0
 35 37  1  0
  4  5  1  0
  5  6  1  0
  6  8  1  0
  8  9  1  0
  9 10  2  0
 10 11  1  0
 11 12  2  0
 12 13  1  0
 12 14  1  0
 14 15  2  0
 15 16  1  0
 16 17  2  0
  6  1  1  0
 17  8  1  0
 17 11  1  0
  3  7  1  0
 27 30  1  0
 32 33  1  0
 32 34  1  0
 13 18  1  0
 13 19  1  0
M  END
> <minimizedAffinity>
-9.17319

> <CNNscore>
0.0341305733

> <CNNaffinity>
3.8568909168

> <CNN_VS>
0.1316379011

> <CNNaffinity_variance>
1.0088182688

$$$$
