


 26 27  0  0  0  0  0  0  0  0999 V2000
   13.4635   11.6975   47.0993 C   0  0  0  0  0  0  0  0  0  0  0  0
   14.1496   10.5324   46.5230 N   0  0  0  0  0  0  0  0  0  0  0  0
   14.1233   10.5916   45.5050 H   0  0  0  0  0  0  0  0  0  0  0  0
   13.6820    9.6781   46.8261 H   0  0  0  0  0  0  0  0  0  0  0  0
   11.9829   11.7359   46.6507 C   0  0  0  0  0  0  0  0  0  0  0  0
   10.8575   11.2959   47.6628 C   0  0  0  0  0  0  0  0  0  0  0  0
    9.7909   12.3840   47.8125 C   0  0  0  0  0  0  0  0  0  0  0  0
   10.1881   10.0155   47.1200 C   0  0  0  0  0  0  0  0  0  0  0  0
   11.6091   10.9931   49.0116 C   0  0  0  0  0  0  0  0  0  0  0  0
   12.1037   10.0735   51.2818 C   0  0  0  0  0  0  0  0  0  0  0  0
   10.9831   10.2264   50.2207 C   0  0  0  0  0  0  0  0  0  0  0  0
    9.8501   11.0285   50.8893 C   0  0  0  0  0  0  0  0  0  0  0  0
   10.4834    8.8190   49.8786 C   0  0  0  0  0  0  0  0  0  0  0  0
   14.1564   13.0325   46.6974 C   0  0  0  0  0  0  0  0  0  0  0  0
   13.7399   14.1805   47.5111 N   0  0  0  0  0  0  0  0  0  0  0  0
   12.9278   15.1638   46.9925 C   0  0  0  0  0  0  0  0  0  0  0  0
   12.5364   16.2176   47.7078 C   0  0  0  0  0  0  0  0  0  0  0  0
   12.9613   16.3619   49.0968 C   0  0  0  0  0  0  0  0  0  0  0  0
   12.6226   17.3128   49.7888 O   0  0  0  0  0  0  0  0  0  0  0  0
   13.7635   15.3491   49.5493 N   0  0  0  0  0  0  0  0  0  0  0  0
   14.1795   14.2487   48.8361 C   0  0  0  0  0  0  0  0  0  0  0  0
   14.8822   13.3954   49.3744 O   0  0  0  0  0  0  0  0  0  0  0  0
   11.6822   17.1620   46.9509 C   0  0  0  0  0  0  0  0  0  0  0  0
   11.3353   16.3371   45.7062 C   0  0  0  0  0  0  0  0  0  0  0  0
   12.3937   15.2289   45.6002 C   0  0  0  0  0  0  0  0  0  0  0  0
   14.0748   15.4151   50.4810 H   0  0  0  0  0  0  0  0  0  0  0  0
 10 11  1  0
 11 12  1  0
 11 13  1  0
 11  9  1  0
  9  6  1  0
  6  7  1  0
  6  8  1  0
  6  5  1  0
  5  1  1  0
  1  2  1  0
  1 14  1  0
 14 15  1  0
 15 16  1  0
 16 17  2  0
 17 18  1  0
 18 19  2  0
 18 20  1  0
 20 21  1  0
 21 22  2  0
 17 23  1  0
 23 24  1  0
 24 25  1  0
 21 15  1  0
 25 16  1  0
  2  3  1  0
  2  4  1  0
 20 26  1  0
M  END
> <minimizedAffinity>
-4.78506

> <CNNscore>
0.2865860462

> <CNNaffinity>
4.7011256218

> <CNN_VS>
1.3472770452

> <CNNaffinity_variance>
0.1556538790

$$$$



 26 27  0  0  0  0  0  0  0  0999 V2000
   13.1204   11.1116   49.5537 C   0  0  0  0  0  0  0  0  0  0  0  0
   14.0359   11.1434   50.7032 N   0  0  0  0  0  0  0  0  0  0  0  0
   14.8464   10.5556   50.5087 H   0  0  0  0  0  0  0  0  0  0  0  0
   13.5537   10.7945   51.5316 H   0  0  0  0  0  0  0  0  0  0  0  0
   12.6255    9.6692   49.2900 C   0  0  0  0  0  0  0  0  0  0  0  0
   11.5054    9.0559   50.2140 C   0  0  0  0  0  0  0  0  0  0  0  0
   10.6318    8.0639   49.4415 C   0  0  0  0  0  0  0  0  0  0  0  0
   12.1898    8.3118   51.3802 C   0  0  0  0  0  0  0  0  0  0  0  0
   10.6914   10.2901   50.7527 C   0  0  0  0  0  0  0  0  0  0  0  0
    8.3887    9.5568   50.1172 C   0  0  0  0  0  0  0  0  0  0  0  0
    9.3351   10.7847   50.1549 C   0  0  0  0  0  0  0  0  0  0  0  0
    8.6566   11.8361   51.0540 C   0  0  0  0  0  0  0  0  0  0  0  0
    9.4408   11.3235   48.7245 C   0  0  0  0  0  0  0  0  0  0  0  0
   13.7934   11.6671   48.2644 C   0  0  0  0  0  0  0  0  0  0  0  0
   13.1195   12.8467   47.7097 N   0  0  0  0  0  0  0  0  0  0  0  0
   13.3844   14.1096   48.1896 C   0  0  0  0  0  0  0  0  0  0  0  0
   12.7857   15.1973   47.7062 C   0  0  0  0  0  0  0  0  0  0  0  0
   11.8129   15.0814   46.6242 C   0  0  0  0  0  0  0  0  0  0  0  0
   11.2426   16.0551   46.1505 O   0  0  0  0  0  0  0  0  0  0  0  0
   11.5992   13.7998   46.1929 N   0  0  0  0  0  0  0  0  0  0  0  0
   12.2049   12.6603   46.6694 C   0  0  0  0  0  0  0  0  0  0  0  0
   11.9391   11.5675   46.1724 O   0  0  0  0  0  0  0  0  0  0  0  0
   13.2032   16.4501   48.3777 C   0  0  0  0  0  0  0  0  0  0  0  0
   14.4324   15.9844   49.1665 C   0  0  0  0  0  0  0  0  0  0  0  0
   14.3225   14.4578   49.2972 C   0  0  0  0  0  0  0  0  0  0  0  0
   10.9446   13.6816   45.4671 H   0  0  0  0  0  0  0  0  0  0  0  0
 10 11  1  0
 11 12  1  0
 11 13  1  0
 11  9  1  0
  9  6  1  0
  6  7  1  0
  6  8  1  0
  6  5  1  0
  5  1  1  0
  1  2  1  0
  1 14  1  0
 14 15  1  0
 15 16  1  0
 16 17  2  0
 17 18  1  0
 18 19  2  0
 18 20  1  0
 20 21  1  0
 21 22  2  0
 17 23  1  0
 23 24  1  0
 24 25  1  0
 21 15  1  0
 25 16  1  0
  2  3  1  0
  2  4  1  0
 20 26  1  0
M  END
> <minimizedAffinity>
-4.86302

> <CNNscore>
0.1959781796

> <CNNaffinity>
4.5576510429

> <CNN_VS>
0.8932001591

> <CNNaffinity_variance>
0.8177317977

$$$$



 26 27  0  0  0  0  0  0  0  0999 V2000
   12.8323    9.8236   50.2261 C   0  0  0  0  0  0  0  0  0  0  0  0
   13.3716   11.0313   50.8669 N   0  0  0  0  0  0  0  0  0  0  0  0
   12.6378   11.7365   50.9353 H   0  0  0  0  0  0  0  0  0  0  0  0
   14.1433   11.3967   50.3088 H   0  0  0  0  0  0  0  0  0  0  0  0
   12.3271   10.1425   48.7985 C   0  0  0  0  0  0  0  0  0  0  0  0
   11.3296   11.3436   48.5825 C   0  0  0  0  0  0  0  0  0  0  0  0
   10.5391   11.1801   47.2815 C   0  0  0  0  0  0  0  0  0  0  0  0
   10.3387   11.3723   49.7655 C   0  0  0  0  0  0  0  0  0  0  0  0
   12.2289   12.6348   48.5881 C   0  0  0  0  0  0  0  0  0  0  0  0
   13.4172   12.4175   46.4007 C   0  0  0  0  0  0  0  0  0  0  0  0
   12.6574   13.4204   47.3073 C   0  0  0  0  0  0  0  0  0  0  0  0
   11.4422   13.9123   46.4977 C   0  0  0  0  0  0  0  0  0  0  0  0
   13.6024   14.5952   47.5802 C   0  0  0  0  0  0  0  0  0  0  0  0
   11.6706    9.2005   51.0543 C   0  0  0  0  0  0  0  0  0  0  0  0
   11.5677    7.7427   50.9204 N   0  0  0  0  0  0  0  0  0  0  0  0
   12.4396    6.9039   51.5774 C   0  0  0  0  0  0  0  0  0  0  0  0
   12.3705    5.5775   51.4720 C   0  0  0  0  0  0  0  0  0  0  0  0
   11.3410    4.9588   50.6426 C   0  0  0  0  0  0  0  0  0  0  0  0
   11.2416    3.7451   50.5207 O   0  0  0  0  0  0  0  0  0  0  0  0
   10.5071    5.8489   50.0211 N   0  0  0  0  0  0  0  0  0  0  0  0
   10.5520    7.2207   50.1147 C   0  0  0  0  0  0  0  0  0  0  0  0
    9.7217    7.9061   49.5209 O   0  0  0  0  0  0  0  0  0  0  0  0
   13.4148    4.8674   52.2464 C   0  0  0  0  0  0  0  0  0  0  0  0
   13.9642    5.9927   53.1306 C   0  0  0  0  0  0  0  0  0  0  0  0
   13.5728    7.3165   52.4569 C   0  0  0  0  0  0  0  0  0  0  0  0
    9.8028    5.4681   49.4481 H   0  0  0  0  0  0  0  0  0  0  0  0
 10 11  1  0
 11 12  1  0
 11 13  1  0
 11  9  1  0
  9  6  1  0
  6  7  1  0
  6  8  1  0
  6  5  1  0
  5  1  1  0
  1  2  1  0
  1 14  1  0
 14 15  1  0
 15 16  1  0
 16 17  2  0
 17 18  1  0
 18 19  2  0
 18 20  1  0
 20 21  1  0
 21 22  2  0
 17 23  1  0
 23 24  1  0
 24 25  1  0
 21 15  1  0
 25 16  1  0
  2  3  1  0
  2  4  1  0
 20 26  1  0
M  END
> <minimizedAffinity>
-5.05490

> <CNNscore>
0.1940282285

> <CNNaffinity>
4.7836418152

> <CNN_VS>
0.9281615615

> <CNNaffinity_variance>
0.7557730675

$$$$



 26 27  0  0  0  0  0  0  0  0999 V2000
   12.1964    9.4407   50.5405 C   0  0  0  0  0  0  0  0  0  0  0  0
   11.9185   10.5753   51.4325 N   0  0  0  0  0  0  0  0  0  0  0  0
   11.0410   11.0168   51.1578 H   0  0  0  0  0  0  0  0  0  0  0  0
   12.6766   11.2544   51.3650 H   0  0  0  0  0  0  0  0  0  0  0  0
   12.3283    9.9185   49.0745 C   0  0  0  0  0  0  0  0  0  0  0  0
   11.4066   11.0879   48.5573 C   0  0  0  0  0  0  0  0  0  0  0  0
   12.2144   12.3668   48.3209 C   0  0  0  0  0  0  0  0  0  0  0  0
   10.7675   10.6501   47.2224 C   0  0  0  0  0  0  0  0  0  0  0  0
   10.3013   11.2640   49.6635 C   0  0  0  0  0  0  0  0  0  0  0  0
    8.1074   11.9582   50.6377 C   0  0  0  0  0  0  0  0  0  0  0  0
    8.7672   11.3406   49.3773 C   0  0  0  0  0  0  0  0  0  0  0  0
    8.4449   12.2857   48.2039 C   0  0  0  0  0  0  0  0  0  0  0  0
    8.1064    9.9793   49.1369 C   0  0  0  0  0  0  0  0  0  0  0  0
   11.0862    8.3526   50.6277 C   0  0  0  0  0  0  0  0  0  0  0  0
   11.6086    6.9853   50.7330 N   0  0  0  0  0  0  0  0  0  0  0  0
   12.5360    6.6493   51.6934 C   0  0  0  0  0  0  0  0  0  0  0  0
   13.0287    5.4169   51.8102 C   0  0  0  0  0  0  0  0  0  0  0  0
   12.5855    4.3596   50.9067 C   0  0  0  0  0  0  0  0  0  0  0  0
   13.0111    3.2145   50.9816 O   0  0  0  0  0  0  0  0  0  0  0  0
   11.6619    4.7605   49.9793 N   0  0  0  0  0  0  0  0  0  0  0  0
   11.1330    6.0227   49.8383 C   0  0  0  0  0  0  0  0  0  0  0  0
   10.2864    6.2428   48.9742 O   0  0  0  0  0  0  0  0  0  0  0  0
   14.0260    5.2790   52.8969 C   0  0  0  0  0  0  0  0  0  0  0  0
   13.8316    6.5915   53.6647 C   0  0  0  0  0  0  0  0  0  0  0  0
   13.1390    7.5688   52.7029 C   0  0  0  0  0  0  0  0  0  0  0  0
   11.3433    4.0752   49.3484 H   0  0  0  0  0  0  0  0  0  0  0  0
 10 11  1  0
 11 12  1  0
 11 13  1  0
 11  9  1  0
  9  6  1  0
  6  7  1  0
  6  8  1  0
  6  5  1  0
  5  1  1  0
  1  2  1  0
  1 14  1  0
 14 15  1  0
 15 16  1  0
 16 17  2  0
 17 18  1  0
 18 19  2  0
 18 20  1  0
 20 21  1  0
 21 22  2  0
 17 23  1  0
 23 24  1  0
 24 25  1  0
 21 15  1  0
 25 16  1  0
  2  3  1  0
  2  4  1  0
 20 26  1  0
M  END
> <minimizedAffinity>
-5.31147

> <CNNscore>
0.1641595960

> <CNNaffinity>
4.6193170547

> <CNN_VS>
0.7583051920

> <CNNaffinity_variance>
1.0473057032

$$$$



 26 27  0  0  0  0  0  0  0  0999 V2000
   11.4223    6.7051   49.9981 C   0  0  0  0  0  0  0  0  0  0  0  0
   11.0897    5.8774   48.8298 N   0  0  0  0  0  0  0  0  0  0  0  0
   10.0763    5.7920   48.7512 H   0  0  0  0  0  0  0  0  0  0  0  0
   11.5014    4.9509   48.9412 H   0  0  0  0  0  0  0  0  0  0  0  0
   10.8847    6.0573   51.2966 C   0  0  0  0  0  0  0  0  0  0  0  0
   11.8681    5.2356   52.2143 C   0  0  0  0  0  0  0  0  0  0  0  0
   13.0188    4.6396   51.3991 C   0  0  0  0  0  0  0  0  0  0  0  0
   12.4540    6.1894   53.2769 C   0  0  0  0  0  0  0  0  0  0  0  0
   10.9745    4.1351   52.8975 C   0  0  0  0  0  0  0  0  0  0  0  0
    9.1421    2.4721   52.5502 C   0  0  0  0  0  0  0  0  0  0  0  0
   10.6413    2.7466   52.2632 C   0  0  0  0  0  0  0  0  0  0  0  0
   10.8013    2.7580   50.7308 C   0  0  0  0  0  0  0  0  0  0  0  0
   11.4400    1.5804   52.8544 C   0  0  0  0  0  0  0  0  0  0  0  0
   10.8473    8.1460   49.8671 C   0  0  0  0  0  0  0  0  0  0  0  0
   11.8773    9.1908   49.8398 N   0  0  0  0  0  0  0  0  0  0  0  0
   12.4341    9.6112   48.6530 C   0  0  0  0  0  0  0  0  0  0  0  0
   13.3721   10.5559   48.5992 C   0  0  0  0  0  0  0  0  0  0  0  0
   13.8446   11.1930   49.8246 C   0  0  0  0  0  0  0  0  0  0  0  0
   14.7024   12.0659   49.8189 O   0  0  0  0  0  0  0  0  0  0  0  0
   13.2480   10.7309   50.9667 N   0  0  0  0  0  0  0  0  0  0  0  0
   12.2756    9.7614   51.0519 C   0  0  0  0  0  0  0  0  0  0  0  0
   11.8039    9.4566   52.1457 O   0  0  0  0  0  0  0  0  0  0  0  0
   13.8454   10.8421   47.2250 C   0  0  0  0  0  0  0  0  0  0  0  0
   12.7891   10.1240   46.3773 C   0  0  0  0  0  0  0  0  0  0  0  0
   12.1171    9.0883   47.2913 C   0  0  0  0  0  0  0  0  0  0  0  0
   13.5455   11.1337   51.8144 H   0  0  0  0  0  0  0  0  0  0  0  0
 10 11  1  0
 11 12  1  0
 11 13  1  0
 11  9  1  0
  9  6  1  0
  6  7  1  0
  6  8  1  0
  6  5  1  0
  5  1  1  0
  1  2  1  0
  1 14  1  0
 14 15  1  0
 15 16  1  0
 16 17  2  0
 17 18  1  0
 18 19  2  0
 18 20  1  0
 20 21  1  0
 21 22  2  0
 17 23  1  0
 23 24  1  0
 24 25  1  0
 21 15  1  0
 25 16  1  0
  2  3  1  0
  2  4  1  0
 20 26  1  0
M  END
> <minimizedAffinity>
-5.97715

> <CNNscore>
0.1408204883

> <CNNaffinity>
4.8712029457

> <CNN_VS>
0.6859651804

> <CNNaffinity_variance>
0.1104402319

$$$$



 26 27  0  0  0  0  0  0  0  0999 V2000
   29.9243   19.3210   62.4974 C   0  0  0  0  0  0  0  0  0  0  0  0
   30.0630   20.6820   63.0346 N   0  0  0  0  0  0  0  0  0  0  0  0
   31.0341   20.8451   63.3008 H   0  0  0  0  0  0  0  0  0  0  0  0
   29.4638   20.7872   63.8533 H   0  0  0  0  0  0  0  0  0  0  0  0
   30.3215   18.2708   63.5624 C   0  0  0  0  0  0  0  0  0  0  0  0
   30.2971   16.7406   63.1850 C   0  0  0  0  0  0  0  0  0  0  0  0
   28.9452   16.3384   62.5895 C   0  0  0  0  0  0  0  0  0  0  0  0
   31.3991   16.4802   62.1363 C   0  0  0  0  0  0  0  0  0  0  0  0
   30.6216   15.9790   64.5232 C   0  0  0  0  0  0  0  0  0  0  0  0
   32.8030   16.7715   65.4492 C   0  0  0  0  0  0  0  0  0  0  0  0
   32.0496   15.5108   64.9511 C   0  0  0  0  0  0  0  0  0  0  0  0
   32.0042   14.5279   66.1367 C   0  0  0  0  0  0  0  0  0  0  0  0
   32.8770   14.9048   63.8128 C   0  0  0  0  0  0  0  0  0  0  0  0
   30.7927   19.1125   61.2221 C   0  0  0  0  0  0  0  0  0  0  0  0
   30.3222   19.8728   60.0585 N   0  0  0  0  0  0  0  0  0  0  0  0
   29.0155   19.7879   59.6332 C   0  0  0  0  0  0  0  0  0  0  0  0
   28.5622   20.4650   58.5791 C   0  0  0  0  0  0  0  0  0  0  0  0
   29.4560   21.3423   57.8293 C   0  0  0  0  0  0  0  0  0  0  0  0
   29.0793   21.9832   56.8571 O   0  0  0  0  0  0  0  0  0  0  0  0
   30.7383   21.3823   58.3067 N   0  0  0  0  0  0  0  0  0  0  0  0
   31.2327   20.6987   59.3935 C   0  0  0  0  0  0  0  0  0  0  0  0
   32.4055   20.8456   59.7321 O   0  0  0  0  0  0  0  0  0  0  0  0
   27.1321   20.2140   58.2852 C   0  0  0  0  0  0  0  0  0  0  0  0
   26.6757   19.4932   59.5587 C   0  0  0  0  0  0  0  0  0  0  0  0
   27.9411   18.9441   60.2346 C   0  0  0  0  0  0  0  0  0  0  0  0
   31.3720   21.9597   57.8227 H   0  0  0  0  0  0  0  0  0  0  0  0
 10 11  1  0
 11 12  1  0
 11 13  1  0
 11  9  1  0
  9  6  1  0
  6  7  1  0
  6  8  1  0
  6  5  1  0
  5  1  1  0
  1  2  1  0
  1 14  1  0
 14 15  1  0
 15 16  1  0
 16 17  2  0
 17 18  1  0
 18 19  2  0
 18 20  1  0
 20 21  1  0
 21 22  2  0
 17 23  1  0
 23 24  1  0
 24 25  1  0
 21 15  1  0
 25 16  1  0
  2  3  1  0
  2  4  1  0
 20 26  1  0
M  END
> <minimizedAffinity>
-6.57610

> <CNNscore>
0.1360198706

> <CNNaffinity>
4.2734427452

> <CNN_VS>
0.5812731385

> <CNNaffinity_variance>
0.6104011536

$$$$



 26 27  0  0  0  0  0  0  0  0999 V2000
   10.4217    8.6887   49.8580 C   0  0  0  0  0  0  0  0  0  0  0  0
    9.2671    9.4168   50.4031 N   0  0  0  0  0  0  0  0  0  0  0  0
    8.4062    9.0197   50.0268 H   0  0  0  0  0  0  0  0  0  0  0  0
    9.3309   10.4005   50.1410 H   0  0  0  0  0  0  0  0  0  0  0  0
   10.4629    8.8072   48.3155 C   0  0  0  0  0  0  0  0  0  0  0  0
   11.6433    9.5979   47.6328 C   0  0  0  0  0  0  0  0  0  0  0  0
   12.6449   10.1056   48.6735 C   0  0  0  0  0  0  0  0  0  0  0  0
   12.3736    8.6427   46.6651 C   0  0  0  0  0  0  0  0  0  0  0  0
   10.9527   10.7652   46.8350 C   0  0  0  0  0  0  0  0  0  0  0  0
   10.2153   13.0761   46.2349 C   0  0  0  0  0  0  0  0  0  0  0  0
   10.6447   12.1790   47.4248 C   0  0  0  0  0  0  0  0  0  0  0  0
    9.4564   12.1496   48.4051 C   0  0  0  0  0  0  0  0  0  0  0  0
   11.8465   12.8534   48.0944 C   0  0  0  0  0  0  0  0  0  0  0  0
   10.3958    7.1839   50.2566 C   0  0  0  0  0  0  0  0  0  0  0  0
   11.5489    6.7685   51.0636 N   0  0  0  0  0  0  0  0  0  0  0  0
   11.9989    5.4675   51.0458 C   0  0  0  0  0  0  0  0  0  0  0  0
   13.0415    5.0626   51.7699 C   0  0  0  0  0  0  0  0  0  0  0  0
   13.7587    6.0090   52.6189 C   0  0  0  0  0  0  0  0  0  0  0  0
   14.7220    5.6787   53.2975 O   0  0  0  0  0  0  0  0  0  0  0  0
   13.2614    7.2840   52.5873 N   0  0  0  0  0  0  0  0  0  0  0  0
   12.1912    7.7310   51.8474 C   0  0  0  0  0  0  0  0  0  0  0  0
   11.8631    8.9152   51.8921 O   0  0  0  0  0  0  0  0  0  0  0  0
   13.3442    3.6207   51.6162 C   0  0  0  0  0  0  0  0  0  0  0  0
   12.4905    3.2528   50.3973 C   0  0  0  0  0  0  0  0  0  0  0  0
   11.4092    4.3366   50.2705 C   0  0  0  0  0  0  0  0  0  0  0  0
   13.7165    7.9496   53.1522 H   0  0  0  0  0  0  0  0  0  0  0  0
 10 11  1  0
 11 12  1  0
 11 13  1  0
 11  9  1  0
  9  6  1  0
  6  7  1  0
  6  8  1  0
  6  5  1  0
  5  1  1  0
  1  2  1  0
  1 14  1  0
 14 15  1  0
 15 16  1  0
 16 17  2  0
 17 18  1  0
 18 19  2  0
 18 20  1  0
 20 21  1  0
 21 22  2  0
 17 23  1  0
 23 24  1  0
 24 25  1  0
 21 15  1  0
 25 16  1  0
  2  3  1  0
  2  4  1  0
 20 26  1  0
M  END
> <minimizedAffinity>
-5.25540

> <CNNscore>
0.1348412335

> <CNNaffinity>
4.2432613373

> <CNN_VS>
0.5721666217

> <CNNaffinity_variance>
0.6513032317

$$$$



 26 27  0  0  0  0  0  0  0  0999 V2000
   30.8359   19.4601   61.0882 C   0  0  0  0  0  0  0  0  0  0  0  0
   30.4131   20.0850   62.3495 N   0  0  0  0  0  0  0  0  0  0  0  0
   31.2316   20.2648   62.9310 H   0  0  0  0  0  0  0  0  0  0  0  0
   29.7766   19.4588   62.8426 H   0  0  0  0  0  0  0  0  0  0  0  0
   31.5482   18.1130   61.3584 C   0  0  0  0  0  0  0  0  0  0  0  0
   31.5633   17.5271   62.8216 C   0  0  0  0  0  0  0  0  0  0  0  0
   32.9920   17.2299   63.2846 C   0  0  0  0  0  0  0  0  0  0  0  0
   30.9408   18.5726   63.7711 C   0  0  0  0  0  0  0  0  0  0  0  0
   30.6643   16.2371   62.7602 C   0  0  0  0  0  0  0  0  0  0  0  0
   28.8003   17.1007   64.1827 C   0  0  0  0  0  0  0  0  0  0  0  0
   29.1119   16.2310   62.9371 C   0  0  0  0  0  0  0  0  0  0  0  0
   28.3922   16.8932   61.7465 C   0  0  0  0  0  0  0  0  0  0  0  0
   28.5160   14.8422   63.1895 C   0  0  0  0  0  0  0  0  0  0  0  0
   31.7845   20.3880   60.2739 C   0  0  0  0  0  0  0  0  0  0  0  0
   31.1452   21.0046   59.1058 N   0  0  0  0  0  0  0  0  0  0  0  0
   29.8280   20.7494   58.7973 C   0  0  0  0  0  0  0  0  0  0  0  0
   29.2233   21.2936   57.7421 C   0  0  0  0  0  0  0  0  0  0  0  0
   29.9538   22.2026   56.8643 C   0  0  0  0  0  0  0  0  0  0  0  0
   29.4352   22.7252   55.8866 O   0  0  0  0  0  0  0  0  0  0  0  0
   31.2559   22.4147   57.2296 N   0  0  0  0  0  0  0  0  0  0  0  0
   31.9044   21.8709   58.3142 C   0  0  0  0  0  0  0  0  0  0  0  0
   33.0756   22.1668   58.5436 O   0  0  0  0  0  0  0  0  0  0  0  0
   27.8123   20.8703   57.5855 C   0  0  0  0  0  0  0  0  0  0  0  0
   27.5371   20.2022   58.9375 C   0  0  0  0  0  0  0  0  0  0  0  0
   28.9035   19.8432   59.5405 C   0  0  0  0  0  0  0  0  0  0  0  0
   31.7824   23.0185   56.6574 H   0  0  0  0  0  0  0  0  0  0  0  0
 10 11  1  0
 11 12  1  0
 11 13  1  0
 11  9  1  0
  9  6  1  0
  6  7  1  0
  6  8  1  0
  6  5  1  0
  5  1  1  0
  1  2  1  0
  1 14  1  0
 14 15  1  0
 15 16  1  0
 16 17  2  0
 17 18  1  0
 18 19  2  0
 18 20  1  0
 20 21  1  0
 21 22  2  0
 17 23  1  0
 23 24  1  0
 24 25  1  0
 21 15  1  0
 25 16  1  0
  2  3  1  0
  2  4  1  0
 20 26  1  0
M  END
> <minimizedAffinity>
-6.73445

> <CNNscore>
0.1322177500

> <CNNaffinity>
4.2071013451

> <CNN_VS>
0.5562534928

> <CNNaffinity_variance>
1.0094643831

$$$$



 26 27  0  0  0  0  0  0  0  0999 V2000
    9.4180    6.3406   50.4094 C   0  0  0  0  0  0  0  0  0  0  0  0
    8.5995    5.1359   50.2121 N   0  0  0  0  0  0  0  0  0  0  0  0
    9.1681    4.4046   49.7853 H   0  0  0  0  0  0  0  0  0  0  0  0
    7.8131    5.3555   49.6008 H   0  0  0  0  0  0  0  0  0  0  0  0
    9.9519    6.8654   49.0550 C   0  0  0  0  0  0  0  0  0  0  0  0
   10.0171    8.4196   48.8004 C   0  0  0  0  0  0  0  0  0  0  0  0
    9.5679    8.7673   47.3786 C   0  0  0  0  0  0  0  0  0  0  0  0
    9.0744    9.1173   49.8037 C   0  0  0  0  0  0  0  0  0  0  0  0
   11.5122    8.8226   49.0803 C   0  0  0  0  0  0  0  0  0  0  0  0
   11.7737   10.1116   51.2049 C   0  0  0  0  0  0  0  0  0  0  0  0
   11.9627   10.1984   49.6681 C   0  0  0  0  0  0  0  0  0  0  0  0
   13.4596   10.4690   49.4232 C   0  0  0  0  0  0  0  0  0  0  0  0
   11.1376   11.3909   49.1735 C   0  0  0  0  0  0  0  0  0  0  0  0
   10.6177    6.0732   51.3650 C   0  0  0  0  0  0  0  0  0  0  0  0
   10.8332    4.6511   51.6560 N   0  0  0  0  0  0  0  0  0  0  0  0
   11.6962    3.8919   50.8984 C   0  0  0  0  0  0  0  0  0  0  0  0
   11.9090    2.5988   51.1388 C   0  0  0  0  0  0  0  0  0  0  0  0
   11.2224    1.9336   52.2419 C   0  0  0  0  0  0  0  0  0  0  0  0
   11.3913    0.7489   52.4979 O   0  0  0  0  0  0  0  0  0  0  0  0
   10.3825    2.7459   52.9552 N   0  0  0  0  0  0  0  0  0  0  0  0
   10.1469    4.0830   52.7329 C   0  0  0  0  0  0  0  0  0  0  0  0
    9.3829    4.7045   53.4691 O   0  0  0  0  0  0  0  0  0  0  0  0
   12.8602    1.9700   50.1931 C   0  0  0  0  0  0  0  0  0  0  0  0
   13.4653    3.1963   49.5004 C   0  0  0  0  0  0  0  0  0  0  0  0
   12.4837    4.3576   49.7189 C   0  0  0  0  0  0  0  0  0  0  0  0
    9.8973    2.3305   53.7043 H   0  0  0  0  0  0  0  0  0  0  0  0
 10 11  1  0
 11 12  1  0
 11 13  1  0
 11  9  1  0
  9  6  1  0
  6  7  1  0
  6  8  1  0
  6  5  1  0
  5  1  1  0
  1  2  1  0
  1 14  1  0
 14 15  1  0
 15 16  1  0
 16 17  2  0
 17 18  1  0
 18 19  2  0
 18 20  1  0
 20 21  1  0
 21 22  2  0
 17 23  1  0
 23 24  1  0
 24 25  1  0
 21 15  1  0
 25 16  1  0
  2  3  1  0
  2  4  1  0
 20 26  1  0
M  END
> <minimizedAffinity>
-4.68757

> <CNNscore>
0.1134263352

> <CNNaffinity>
4.0864071846

> <CNN_VS>
0.4635061920

> <CNNaffinity_variance>
0.5445855260

$$$$
