


 20 19  0  0  0  0  0  0  0  0999 V2000
   -2.5401    9.3575   18.1669 C   0  0  0  0  0  0  0  0  0  0  0  0
   -2.8769    9.8758   19.5677 C   0  0  0  0  0  0  0  0  0  0  0  0
   -2.4521   11.3316   19.7912 C   0  0  0  0  0  0  0  0  0  0  0  0
   -1.8939   11.9974   18.5307 C   0  0  0  0  0  0  0  0  0  0  0  0
   -2.4997   13.3777   18.2561 C   0  0  0  0  0  0  0  0  0  0  0  0
   -1.4496   14.4647   18.0163 C   0  0  0  0  0  0  0  0  0  0  0  0
   -2.0783   15.8596   18.0527 C   0  0  0  0  0  0  0  0  0  0  0  0
   -2.9142   16.1261   16.7996 C   0  0  0  0  0  0  0  0  0  0  0  0
   -3.8219   18.3616   16.0722 C   0  0  0  0  0  0  0  0  0  0  0  0
   -3.9646   17.2075   17.0516 C   0  0  0  0  0  0  0  0  0  0  0  0
   -1.9948    7.9230   18.1641 C   0  0  0  0  0  0  0  0  0  0  0  0
   -2.2320    7.1999   19.4912 C   0  0  0  0  0  0  0  0  0  0  0  0
   -2.3552    5.6615   19.3739 N   0  0  0  0  0  0  0  0  0  0  0  0
   -1.0078    4.9419   19.3123 C   0  0  0  0  0  0  0  0  0  0  0  0
   -2.9648    5.4262   17.9360 C   0  0  0  0  0  0  0  0  0  0  0  0
   -3.3646    5.0028   20.3021 C   0  0  0  0  0  0  0  0  0  0  0  0
   -3.9887    3.6550   20.0177 N   0  0  0  0  0  0  0  0  0  0  0  0
   -3.2109    2.7585   19.0720 C   0  0  0  0  0  0  0  0  0  0  0  0
   -4.3855    2.8770   21.2678 C   0  0  0  0  0  0  0  0  0  0  0  0
   -5.3352    3.9659   19.2881 C   0  0  0  0  0  0  0  0  0  0  0  0
  9 10  1  0
 10  8  1  0
  8  7  1  0
  7  6  1  0
  6  5  1  0
  5  4  1  0
  4  3  1  0
  3  2  1  0
  2  1  1  0
  1 11  1  0
 11 12  1  0
 12 13  1  0
 13 14  1  0
 13 15  1  0
 13 16  1  0
 16 17  1  0
 17 18  1  0
 17 19  1  0
 17 20  1  0
M  CHG 1  13   1
M  CHG 1  17   1
M  END
> <minimizedAffinity>
-5.98203

> <CNNscore>
0.8367758393

> <CNNaffinity>
5.8584899902

> <CNN_VS>
4.9022426605

> <CNNaffinity_variance>
0.7580372691

$$$$



 20 19  0  0  0  0  0  0  0  0999 V2000
   -2.0582    9.2992   17.7538 C   0  0  0  0  0  0  0  0  0  0  0  0
   -2.4773   10.1989   18.9196 C   0  0  0  0  0  0  0  0  0  0  0  0
   -3.7045   11.0620   18.6053 C   0  0  0  0  0  0  0  0  0  0  0  0
   -3.3449   12.4422   18.0491 C   0  0  0  0  0  0  0  0  0  0  0  0
   -1.9645   12.9342   18.4963 C   0  0  0  0  0  0  0  0  0  0  0  0
   -1.7531   14.4334   18.2738 C   0  0  0  0  0  0  0  0  0  0  0  0
   -3.0223   15.0977   17.7352 C   0  0  0  0  0  0  0  0  0  0  0  0
   -2.8322   16.6062   17.5666 C   0  0  0  0  0  0  0  0  0  0  0  0
   -3.7748   18.3298   15.9882 C   0  0  0  0  0  0  0  0  0  0  0  0
   -4.0997   17.2695   17.0283 C   0  0  0  0  0  0  0  0  0  0  0  0
   -1.8105    7.8424   18.1683 C   0  0  0  0  0  0  0  0  0  0  0  0
   -2.6533    6.8500   17.3652 C   0  0  0  0  0  0  0  0  0  0  0  0
   -3.1073    5.6007   18.1581 N   0  0  0  0  0  0  0  0  0  0  0  0
   -4.5374    5.1616   17.8433 C   0  0  0  0  0  0  0  0  0  0  0  0
   -3.1952    6.0975   19.6547 C   0  0  0  0  0  0  0  0  0  0  0  0
   -2.1094    4.4541   18.2203 C   0  0  0  0  0  0  0  0  0  0  0  0
   -1.9446    3.5700   19.4361 N   0  0  0  0  0  0  0  0  0  0  0  0
   -1.1166    2.3155   19.2276 C   0  0  0  0  0  0  0  0  0  0  0  0
   -1.4692    4.3089   20.6826 C   0  0  0  0  0  0  0  0  0  0  0  0
   -3.3834    3.0695   19.7845 C   0  0  0  0  0  0  0  0  0  0  0  0
  9 10  1  0
 10  8  1  0
  8  7  1  0
  7  6  1  0
  6  5  1  0
  5  4  1  0
  4  3  1  0
  3  2  1  0
  2  1  1  0
  1 11  1  0
 11 12  1  0
 12 13  1  0
 13 14  1  0
 13 15  1  0
 13 16  1  0
 16 17  1  0
 17 18  1  0
 17 19  1  0
 17 20  1  0
M  CHG 1  13   1
M  CHG 1  17   1
M  END
> <minimizedAffinity>
-6.14840

> <CNNscore>
0.8280300498

> <CNNaffinity>
5.8190779686

> <CNN_VS>
4.8183712959

> <CNNaffinity_variance>
0.8156793118

$$$$



 20 19  0  0  0  0  0  0  0  0999 V2000
   -2.2754    7.4110   17.5637 C   0  0  0  0  0  0  0  0  0  0  0  0
   -2.8736    8.5535   18.3889 C   0  0  0  0  0  0  0  0  0  0  0  0
   -2.2573    9.9192   18.0651 C   0  0  0  0  0  0  0  0  0  0  0  0
   -1.8605   10.7131   19.3125 C   0  0  0  0  0  0  0  0  0  0  0  0
   -1.5067   12.1736   19.0135 C   0  0  0  0  0  0  0  0  0  0  0  0
   -2.5847   12.9078   18.2133 C   0  0  0  0  0  0  0  0  0  0  0  0
   -2.2369   14.3886   18.0443 C   0  0  0  0  0  0  0  0  0  0  0  0
   -3.3929   15.1627   17.4086 C   0  0  0  0  0  0  0  0  0  0  0  0
   -4.2231   17.4376   16.7112 C   0  0  0  0  0  0  0  0  0  0  0  0
   -3.1542   16.6711   17.4738 C   0  0  0  0  0  0  0  0  0  0  0  0
   -3.2538    6.2517   17.3312 C   0  0  0  0  0  0  0  0  0  0  0  0
   -3.0747    5.1179   18.3424 C   0  0  0  0  0  0  0  0  0  0  0  0
   -2.6709    3.7587   17.7218 N   0  0  0  0  0  0  0  0  0  0  0  0
   -2.4592    3.8147   16.2088 C   0  0  0  0  0  0  0  0  0  0  0  0
   -3.9584    2.8578   17.8808 C   0  0  0  0  0  0  0  0  0  0  0  0
   -1.5965    2.9809   18.4667 C   0  0  0  0  0  0  0  0  0  0  0  0
   -0.6461    3.6247   19.4513 N   0  0  0  0  0  0  0  0  0  0  0  0
   -1.2949    4.4653   20.5353 C   0  0  0  0  0  0  0  0  0  0  0  0
    0.3576    2.6577   20.0701 C   0  0  0  0  0  0  0  0  0  0  0  0
    0.2149    4.6197   18.6083 C   0  0  0  0  0  0  0  0  0  0  0  0
  9 10  1  0
 10  8  1  0
  8  7  1  0
  7  6  1  0
  6  5  1  0
  5  4  1  0
  4  3  1  0
  3  2  1  0
  2  1  1  0
  1 11  1  0
 11 12  1  0
 12 13  1  0
 13 14  1  0
 13 15  1  0
 13 16  1  0
 16 17  1  0
 17 18  1  0
 17 19  1  0
 17 20  1  0
M  CHG 1  13   1
M  CHG 1  17   1
M  END
> <minimizedAffinity>
-5.78850

> <CNNscore>
0.8246739507

> <CNNaffinity>
5.5569930077

> <CNN_VS>
4.5827074051

> <CNNaffinity_variance>
0.8930951953

$$$$



 20 19  0  0  0  0  0  0  0  0999 V2000
   -2.0733    8.4886   17.8991 C   0  0  0  0  0  0  0  0  0  0  0  0
   -2.6563    9.1119   19.1702 C   0  0  0  0  0  0  0  0  0  0  0  0
   -2.9180   10.6166   19.0396 C   0  0  0  0  0  0  0  0  0  0  0  0
   -1.6349   11.4505   18.9956 C   0  0  0  0  0  0  0  0  0  0  0  0
   -1.8702   12.9011   18.5620 C   0  0  0  0  0  0  0  0  0  0  0  0
   -3.1862   13.1034   17.8079 C   0  0  0  0  0  0  0  0  0  0  0  0
   -3.2637   14.5037   17.1950 C   0  0  0  0  0  0  0  0  0  0  0  0
   -2.5083   15.5261   18.0460 C   0  0  0  0  0  0  0  0  0  0  0  0
   -4.2331   17.0517   17.0222 C   0  0  0  0  0  0  0  0  0  0  0  0
   -2.8384   16.9564   17.6199 C   0  0  0  0  0  0  0  0  0  0  0  0
   -2.0699    6.9540   17.9205 C   0  0  0  0  0  0  0  0  0  0  0  0
   -3.3943    6.3688   18.4144 C   0  0  0  0  0  0  0  0  0  0  0  0
   -3.4217    4.8240   18.5066 N   0  0  0  0  0  0  0  0  0  0  0  0
   -4.8215    4.2265   18.3631 C   0  0  0  0  0  0  0  0  0  0  0  0
   -3.0408    4.5146   20.0078 C   0  0  0  0  0  0  0  0  0  0  0  0
   -2.3534    4.0915   17.7087 C   0  0  0  0  0  0  0  0  0  0  0  0
   -2.6513    2.8869   16.8444 N   0  0  0  0  0  0  0  0  0  0  0  0
   -3.7256    3.0849   15.7911 C   0  0  0  0  0  0  0  0  0  0  0  0
   -1.4155    2.2502   16.2175 C   0  0  0  0  0  0  0  0  0  0  0  0
   -3.2154    1.8043   17.8201 C   0  0  0  0  0  0  0  0  0  0  0  0
  9 10  1  0
 10  8  1  0
  8  7  1  0
  7  6  1  0
  6  5  1  0
  5  4  1  0
  4  3  1  0
  3  2  1  0
  2  1  1  0
  1 11  1  0
 11 12  1  0
 12 13  1  0
 13 14  1  0
 13 15  1  0
 13 16  1  0
 16 17  1  0
 17 18  1  0
 17 19  1  0
 17 20  1  0
M  CHG 1  13   1
M  CHG 1  17   1
M  END
> <minimizedAffinity>
-5.77486

> <CNNscore>
0.8175581098

> <CNNaffinity>
5.6496500969

> <CNN_VS>
4.6189174652

> <CNNaffinity_variance>
0.6901444793

$$$$



 20 19  0  0  0  0  0  0  0  0999 V2000
   -2.3256    8.1476   19.4172 C   0  0  0  0  0  0  0  0  0  0  0  0
   -1.8738    8.3877   17.9741 C   0  0  0  0  0  0  0  0  0  0  0  0
   -1.8849    9.8681   17.5764 C   0  0  0  0  0  0  0  0  0  0  0  0
   -2.2620   10.8001   18.7309 C   0  0  0  0  0  0  0  0  0  0  0  0
   -1.7954   12.2442   18.5203 C   0  0  0  0  0  0  0  0  0  0  0  0
   -2.9089   13.1781   18.0410 C   0  0  0  0  0  0  0  0  0  0  0  0
   -2.4031   14.6156   17.8988 C   0  0  0  0  0  0  0  0  0  0  0  0
   -3.4601   15.5165   17.2577 C   0  0  0  0  0  0  0  0  0  0  0  0
   -3.9413   17.8769   16.5176 C   0  0  0  0  0  0  0  0  0  0  0  0
   -3.1156   16.9944   17.4402 C   0  0  0  0  0  0  0  0  0  0  0  0
   -1.8842    6.7874   19.9743 C   0  0  0  0  0  0  0  0  0  0  0  0
   -1.8557    5.6939   18.9049 C   0  0  0  0  0  0  0  0  0  0  0  0
   -0.7084    4.6671   19.0634 N   0  0  0  0  0  0  0  0  0  0  0  0
   -0.4827    4.2187   20.5073 C   0  0  0  0  0  0  0  0  0  0  0  0
    0.5989    5.4853   18.7228 C   0  0  0  0  0  0  0  0  0  0  0  0
   -0.6907    3.5291   18.0540 C   0  0  0  0  0  0  0  0  0  0  0  0
   -1.7067    3.3984   16.9415 N   0  0  0  0  0  0  0  0  0  0  0  0
   -2.1428    4.7003   16.2951 C   0  0  0  0  0  0  0  0  0  0  0  0
   -1.3270    2.3834   15.8684 C   0  0  0  0  0  0  0  0  0  0  0  0
   -2.9898    2.8152   17.6165 C   0  0  0  0  0  0  0  0  0  0  0  0
  9 10  1  0
 10  8  1  0
  8  7  1  0
  7  6  1  0
  6  5  1  0
  5  4  1  0
  4  3  1  0
  3  2  1  0
  2  1  1  0
  1 11  1  0
 11 12  1  0
 12 13  1  0
 13 14  1  0
 13 15  1  0
 13 16  1  0
 16 17  1  0
 17 18  1  0
 17 19  1  0
 17 20  1  0
M  CHG 1  13   1
M  CHG 1  17   1
M  END
> <minimizedAffinity>
-5.80423

> <CNNscore>
0.8159833550

> <CNNaffinity>
5.6048474312

> <CNN_VS>
4.5734620094

> <CNNaffinity_variance>
0.7884719968

$$$$



 20 19  0  0  0  0  0  0  0  0999 V2000
   -2.4299    7.6828   18.9982 C   0  0  0  0  0  0  0  0  0  0  0  0
   -1.7708    8.0913   17.6780 C   0  0  0  0  0  0  0  0  0  0  0  0
   -1.7633    9.6072   17.4506 C   0  0  0  0  0  0  0  0  0  0  0  0
   -2.1193   10.4074   18.7063 C   0  0  0  0  0  0  0  0  0  0  0  0
   -1.7004   11.8789   18.6255 C   0  0  0  0  0  0  0  0  0  0  0  0
   -2.8267   12.8062   18.1637 C   0  0  0  0  0  0  0  0  0  0  0  0
   -2.3150   14.2317   17.9435 C   0  0  0  0  0  0  0  0  0  0  0  0
   -3.4190   15.1418   17.4021 C   0  0  0  0  0  0  0  0  0  0  0  0
   -4.0305   17.5116   16.8015 C   0  0  0  0  0  0  0  0  0  0  0  0
   -3.0280   16.6154   17.5109 C   0  0  0  0  0  0  0  0  0  0  0  0
   -1.9148    6.3452   19.5468 C   0  0  0  0  0  0  0  0  0  0  0  0
   -2.9720    5.2408   19.4948 C   0  0  0  0  0  0  0  0  0  0  0  0
   -2.7527    4.1907   18.3791 N   0  0  0  0  0  0  0  0  0  0  0  0
   -1.3204    4.1535   17.8458 C   0  0  0  0  0  0  0  0  0  0  0  0
   -3.5875    4.7391   17.1557 C   0  0  0  0  0  0  0  0  0  0  0  0
   -3.3524    2.8158   18.6331 C   0  0  0  0  0  0  0  0  0  0  0  0
   -4.1658    2.4862   19.8646 N   0  0  0  0  0  0  0  0  0  0  0  0
   -5.2257    3.5044   20.2424 C   0  0  0  0  0  0  0  0  0  0  0  0
   -4.7667    1.0846   19.8564 C   0  0  0  0  0  0  0  0  0  0  0  0
   -3.1458    2.4841   21.0485 C   0  0  0  0  0  0  0  0  0  0  0  0
  9 10  1  0
 10  8  1  0
  8  7  1  0
  7  6  1  0
  6  5  1  0
  5  4  1  0
  4  3  1  0
  3  2  1  0
  2  1  1  0
  1 11  1  0
 11 12  1  0
 12 13  1  0
 13 14  1  0
 13 15  1  0
 13 16  1  0
 16 17  1  0
 17 18  1  0
 17 19  1  0
 17 20  1  0
M  CHG 1  13   1
M  CHG 1  17   1
M  END
> <minimizedAffinity>
-5.60395

> <CNNscore>
0.8023911715

> <CNNaffinity>
5.6124172211

> <CNN_VS>
4.5033540726

> <CNNaffinity_variance>
0.6905056834

$$$$



 20 19  0  0  0  0  0  0  0  0999 V2000
   -1.5031    7.4977   19.1254 C   0  0  0  0  0  0  0  0  0  0  0  0
   -1.8489    7.7955   17.6639 C   0  0  0  0  0  0  0  0  0  0  0  0
   -1.7641    9.2858   17.3150 C   0  0  0  0  0  0  0  0  0  0  0  0
   -2.0726   10.2018   18.5022 C   0  0  0  0  0  0  0  0  0  0  0  0
   -2.5365   11.6006   18.0831 C   0  0  0  0  0  0  0  0  0  0  0  0
   -1.9885   12.7151   18.9771 C   0  0  0  0  0  0  0  0  0  0  0  0
   -1.6302   13.9568   18.1574 C   0  0  0  0  0  0  0  0  0  0  0  0
   -2.8793   14.7581   17.7862 C   0  0  0  0  0  0  0  0  0  0  0  0
   -3.7462   17.0507   17.2003 C   0  0  0  0  0  0  0  0  0  0  0  0
   -2.6076   16.2617   17.8269 C   0  0  0  0  0  0  0  0  0  0  0  0
   -0.6326    6.2460   19.3015 C   0  0  0  0  0  0  0  0  0  0  0  0
   -1.0354    5.1109   18.3584 C   0  0  0  0  0  0  0  0  0  0  0  0
   -1.8410    3.9717   19.0283 N   0  0  0  0  0  0  0  0  0  0  0  0
   -1.4116    3.6814   20.4665 C   0  0  0  0  0  0  0  0  0  0  0  0
   -1.4064    2.6714   18.2443 C   0  0  0  0  0  0  0  0  0  0  0  0
   -3.3489    4.0197   18.8324 C   0  0  0  0  0  0  0  0  0  0  0  0
   -4.3152    3.2153   19.6727 N   0  0  0  0  0  0  0  0  0  0  0  0
   -3.8075    2.8027   21.0420 C   0  0  0  0  0  0  0  0  0  0  0  0
   -5.7014    3.8391   19.7953 C   0  0  0  0  0  0  0  0  0  0  0  0
   -4.5376    1.8818   18.8888 C   0  0  0  0  0  0  0  0  0  0  0  0
  9 10  1  0
 10  8  1  0
  8  7  1  0
  7  6  1  0
  6  5  1  0
  5  4  1  0
  4  3  1  0
  3  2  1  0
  2  1  1  0
  1 11  1  0
 11 12  1  0
 12 13  1  0
 13 14  1  0
 13 15  1  0
 13 16  1  0
 16 17  1  0
 17 18  1  0
 17 19  1  0
 17 20  1  0
M  CHG 1  13   1
M  CHG 1  17   1
M  END
> <minimizedAffinity>
-5.72419

> <CNNscore>
0.7887554169

> <CNNaffinity>
5.4668331146

> <CNN_VS>
4.3119940758

> <CNNaffinity_variance>
0.7936852574

$$$$



 20 19  0  0  0  0  0  0  0  0999 V2000
   -1.6746   10.6892   18.8817 C   0  0  0  0  0  0  0  0  0  0  0  0
   -2.8600   11.6216   19.1452 C   0  0  0  0  0  0  0  0  0  0  0  0
   -3.4985   12.1641   17.8615 C   0  0  0  0  0  0  0  0  0  0  0  0
   -3.3984   13.6864   17.7346 C   0  0  0  0  0  0  0  0  0  0  0  0
   -2.0524   14.2461   18.2065 C   0  0  0  0  0  0  0  0  0  0  0  0
   -1.9559   15.7692   18.0956 C   0  0  0  0  0  0  0  0  0  0  0  0
   -2.6560   16.2781   16.8334 C   0  0  0  0  0  0  0  0  0  0  0  0
   -3.6949   17.3501   17.1671 C   0  0  0  0  0  0  0  0  0  0  0  0
   -3.4673   19.0906   15.3589 C   0  0  0  0  0  0  0  0  0  0  0  0
   -4.3076   17.9443   15.8991 C   0  0  0  0  0  0  0  0  0  0  0  0
   -2.0929    9.3011   18.3780 C   0  0  0  0  0  0  0  0  0  0  0  0
   -2.2988    8.2990   19.5154 C   0  0  0  0  0  0  0  0  0  0  0  0
   -2.2847    6.8147   19.0770 N   0  0  0  0  0  0  0  0  0  0  0  0
   -0.9237    6.3389   18.5687 C   0  0  0  0  0  0  0  0  0  0  0  0
   -3.1934    6.7793   17.7857 C   0  0  0  0  0  0  0  0  0  0  0  0
   -2.9672    5.8363   20.0210 C   0  0  0  0  0  0  0  0  0  0  0  0
   -2.8058    4.3367   19.9116 N   0  0  0  0  0  0  0  0  0  0  0  0
   -2.8177    3.7768   18.5012 C   0  0  0  0  0  0  0  0  0  0  0  0
   -1.6141    3.7813   20.6844 C   0  0  0  0  0  0  0  0  0  0  0  0
   -4.0635    3.7307   20.6138 C   0  0  0  0  0  0  0  0  0  0  0  0
  9 10  1  0
 10  8  1  0
  8  7  1  0
  7  6  1  0
  6  5  1  0
  5  4  1  0
  4  3  1  0
  3  2  1  0
  2  1  1  0
  1 11  1  0
 11 12  1  0
 12 13  1  0
 13 14  1  0
 13 15  1  0
 13 16  1  0
 16 17  1  0
 17 18  1  0
 17 19  1  0
 17 20  1  0
M  CHG 1  13   1
M  CHG 1  17   1
M  END
> <minimizedAffinity>
-6.14332

> <CNNscore>
0.7724313140

> <CNNaffinity>
5.7035179138

> <CNN_VS>
4.4055757523

> <CNNaffinity_variance>
1.3400440216

$$$$



 20 19  0  0  0  0  0  0  0  0999 V2000
   -1.6058    9.6274   17.2655 C   0  0  0  0  0  0  0  0  0  0  0  0
   -1.9716   10.6272   18.3658 C   0  0  0  0  0  0  0  0  0  0  0  0
   -3.3061   11.3387   18.1157 C   0  0  0  0  0  0  0  0  0  0  0  0
   -3.1609   12.8541   17.9547 C   0  0  0  0  0  0  0  0  0  0  0  0
   -1.8889   13.4125   18.6009 C   0  0  0  0  0  0  0  0  0  0  0  0
   -1.4938   14.7924   18.0703 C   0  0  0  0  0  0  0  0  0  0  0  0
   -2.5467   15.3353   17.1013 C   0  0  0  0  0  0  0  0  0  0  0  0
   -3.1514   16.6440   17.6129 C   0  0  0  0  0  0  0  0  0  0  0  0
   -3.7226   18.4777   15.9813 C   0  0  0  0  0  0  0  0  0  0  0  0
   -4.1954   17.1917   16.6401 C   0  0  0  0  0  0  0  0  0  0  0  0
   -2.1591    8.2180   17.5159 C   0  0  0  0  0  0  0  0  0  0  0  0
   -1.7805    7.6727   18.8942 C   0  0  0  0  0  0  0  0  0  0  0  0
   -1.6259    6.1340   18.9583 N   0  0  0  0  0  0  0  0  0  0  0  0
   -2.4295    5.4840   20.0846 C   0  0  0  0  0  0  0  0  0  0  0  0
   -0.1259    5.9094   19.3985 C   0  0  0  0  0  0  0  0  0  0  0  0
   -1.7218    5.4004   17.6290 C   0  0  0  0  0  0  0  0  0  0  0  0
   -1.4959    3.9115   17.4913 N   0  0  0  0  0  0  0  0  0  0  0  0
   -0.0801    3.4354   17.7587 C   0  0  0  0  0  0  0  0  0  0  0  0
   -2.4907    3.0568   18.2695 C   0  0  0  0  0  0  0  0  0  0  0  0
   -1.7703    3.5866   15.9875 C   0  0  0  0  0  0  0  0  0  0  0  0
  9 10  1  0
 10  8  1  0
  8  7  1  0
  7  6  1  0
  6  5  1  0
  5  4  1  0
  4  3  1  0
  3  2  1  0
  2  1  1  0
  1 11  1  0
 11 12  1  0
 12 13  1  0
 13 14  1  0
 13 15  1  0
 13 16  1  0
 16 17  1  0
 17 18  1  0
 17 19  1  0
 17 20  1  0
M  CHG 1  13   1
M  CHG 1  17   1
M  END
> <minimizedAffinity>
-6.28973

> <CNNscore>
0.7655741572

> <CNNaffinity>
5.5365219116

> <CNN_VS>
4.2386178970

> <CNNaffinity_variance>
1.3162736893

$$$$
