


 32 34  0  0  0  0  0  0  0  0999 V2000
    3.9049   31.7610    7.8886 C   0  0  0  0  0  0  0  0  0  0  0  0
    3.7857   31.7192    9.2203 N   0  0  0  0  0  0  0  0  0  0  0  0
    4.3253   30.6645    9.8494 C   0  0  0  0  0  0  0  0  0  0  0  0
    4.9642   29.6415    9.1970 C   0  0  0  0  0  0  0  0  0  0  0  0
    5.0274   29.7398    7.8270 C   0  0  0  0  0  0  0  0  0  0  0  0
    4.5208   30.8026    7.1752 N   0  0  0  0  0  0  0  0  0  0  0  0
    3.3950   32.8138    7.1333 N   0  0  0  0  0  0  0  0  0  0  0  0
    3.3050   33.6472    7.6495 H   0  0  0  0  0  0  0  0  0  0  0  0
    2.0344   33.3008    3.1571 C   0  0  0  0  0  0  0  0  0  0  0  0
    3.2057   32.5806    3.4021 C   0  0  0  0  0  0  0  0  0  0  0  0
    3.6706   32.4097    4.7131 C   0  0  0  0  0  0  0  0  0  0  0  0
    2.9826   32.9499    5.8044 C   0  0  0  0  0  0  0  0  0  0  0  0
    1.8060   33.6715    5.5391 C   0  0  0  0  0  0  0  0  0  0  0  0
    1.3328   33.8481    4.2330 C   0  0  0  0  0  0  0  0  0  0  0  0
    0.6432   34.1361    1.3777 O   0  0  0  0  0  0  0  0  0  0  0  0
    1.5797   33.4564    1.7547 C   0  0  0  0  0  0  0  0  0  0  0  0
    2.3226   32.7499    0.8838 O   0  0  0  0  0  0  0  0  0  0  0  0
    3.0400   32.2321    1.1921 H   0  0  0  0  0  0  0  0  0  0  0  0
    5.6575   28.7928    7.0212 N   0  0  0  0  0  0  0  0  0  0  0  0
    5.1703   28.6239    6.1825 H   0  0  0  0  0  0  0  0  0  0  0  0
    6.8332   28.0207    7.1318 C   0  0  0  0  0  0  0  0  0  0  0  0
    7.2183   27.3834    8.3175 C   0  0  0  0  0  0  0  0  0  0  0  0
    8.4199   26.6791    8.3865 C   0  0  0  0  0  0  0  0  0  0  0  0
    8.8670   25.8962    9.8524 Cl  0  0  0  0  0  0  0  0  0  0  0  0
    9.2580   26.6001    7.2803 C   0  0  0  0  0  0  0  0  0  0  0  0
    8.8935   27.2253    6.0867 C   0  0  0  0  0  0  0  0  0  0  0  0
    7.6912   27.9374    6.0049 C   0  0  0  0  0  0  0  0  0  0  0  0
    7.2311   28.5829    4.8833 O   0  0  0  0  0  0  0  0  0  0  0  0
    7.6745   29.9069    4.6463 C   0  0  0  0  0  0  0  0  0  0  0  0
    6.6274   30.7445    4.4899 F   0  0  0  0  0  0  0  0  0  0  0  0
    8.3875   30.3218    5.7159 F   0  0  0  0  0  0  0  0  0  0  0  0
    8.4703   29.9698    3.5581 F   0  0  0  0  0  0  0  0  0  0  0  0
 15 16  2  0
 16 17  1  0
 16  9  1  0
  9 10  2  0
 10 11  1  0
 11 12  2  0
 12  7  1  0
  7  1  1  0
  1  2  2  0
  2  3  1  0
  3  4  2  0
  4  5  1  0
  5 19  1  0
 19 21  1  0
 21 22  2  0
 22 23  1  0
 23 24  1  0
 23 25  2  0
 25 26  1  0
 26 27  2  0
 27 28  1  0
 28 29  1  0
 29 30  1  0
 29 31  1  0
 29 32  1  0
  5  6  2  0
 12 13  1  0
 13 14  2  0
 14  9  1  0
  6  1  1  0
 27 21  1  0
 17 18  1  0
  7  8  1  0
 19 20  1  0
M  END
> <minimizedAffinity>
-9.99729

> <CNNscore>
0.9897321463

> <CNNaffinity>
7.8096561432

> <CNN_VS>
7.7294678688

> <CNNaffinity_variance>
0.0185528416

$$$$



 32 34  0  0  0  0  0  0  0  0999 V2000
    3.9615   31.6812    7.8227 C   0  0  0  0  0  0  0  0  0  0  0  0
    3.9090   31.5845    9.1558 N   0  0  0  0  0  0  0  0  0  0  0  0
    4.4684   30.4999    9.7124 C   0  0  0  0  0  0  0  0  0  0  0  0
    5.0631   29.4999    8.9866 C   0  0  0  0  0  0  0  0  0  0  0  0
    5.0584   29.6551    7.6204 C   0  0  0  0  0  0  0  0  0  0  0  0
    4.5308   30.7485    7.0398 N   0  0  0  0  0  0  0  0  0  0  0  0
    3.4254   32.7690    7.1384 N   0  0  0  0  0  0  0  0  0  0  0  0
    3.3777   33.5829    7.6902 H   0  0  0  0  0  0  0  0  0  0  0  0
    2.0687   33.2813    3.1641 C   0  0  0  0  0  0  0  0  0  0  0  0
    1.3247   33.8110    4.2207 C   0  0  0  0  0  0  0  0  0  0  0  0
    1.7596   33.6505    5.5433 C   0  0  0  0  0  0  0  0  0  0  0  0
    2.9397   32.9618    5.8417 C   0  0  0  0  0  0  0  0  0  0  0  0
    3.6756   32.4356    4.7660 C   0  0  0  0  0  0  0  0  0  0  0  0
    3.2499   32.5904    3.4409 C   0  0  0  0  0  0  0  0  0  0  0  0
    0.6571   34.2056    1.4457 O   0  0  0  0  0  0  0  0  0  0  0  0
    1.5710   33.4751    1.7812 C   0  0  0  0  0  0  0  0  0  0  0  0
    2.2440   32.7414    0.8767 O   0  0  0  0  0  0  0  0  0  0  0  0
    2.9449   32.1844    1.1532 H   0  0  0  0  0  0  0  0  0  0  0  0
    5.6373   28.7375    6.7451 N   0  0  0  0  0  0  0  0  0  0  0  0
    5.2970   27.8229    6.8749 H   0  0  0  0  0  0  0  0  0  0  0  0
    6.5990   28.8189    5.7160 C   0  0  0  0  0  0  0  0  0  0  0  0
    6.2852   29.2074    4.4080 C   0  0  0  0  0  0  0  0  0  0  0  0
    7.2651   29.2160    3.4158 C   0  0  0  0  0  0  0  0  0  0  0  0
    6.8569   29.7067    1.8177 Cl  0  0  0  0  0  0  0  0  0  0  0  0
    8.5701   28.8359    3.7074 C   0  0  0  0  0  0  0  0  0  0  0  0
    8.9069   28.4472    5.0051 C   0  0  0  0  0  0  0  0  0  0  0  0
    7.9321   28.4319    6.0095 C   0  0  0  0  0  0  0  0  0  0  0  0
    8.1522   28.0754    7.3174 O   0  0  0  0  0  0  0  0  0  0  0  0
    8.1621   26.6966    7.6408 C   0  0  0  0  0  0  0  0  0  0  0  0
    7.9259   25.9436    6.5455 F   0  0  0  0  0  0  0  0  0  0  0  0
    9.3842   26.3732    8.1167 F   0  0  0  0  0  0  0  0  0  0  0  0
    7.2490   26.4098    8.5922 F   0  0  0  0  0  0  0  0  0  0  0  0
 15 16  2  0
 16 17  1  0
 16  9  1  0
  9 10  2  0
 10 11  1  0
 11 12  2  0
 12  7  1  0
  7  1  1  0
  1  2  2  0
  2  3  1  0
  3  4  2  0
  4  5  1  0
  5 19  1  0
 19 21  1  0
 21 22  2  0
 22 23  1  0
 23 24  1  0
 23 25  2  0
 25 26  1  0
 26 27  2  0
 27 28  1  0
 28 29  1  0
 29 30  1  0
 29 31  1  0
 29 32  1  0
  5  6  2  0
 12 13  1  0
 13 14  2  0
 14  9  1  0
  6  1  1  0
 27 21  1  0
 17 18  1  0
  7  8  1  0
 19 20  1  0
M  END
> <minimizedAffinity>
-9.69146

> <CNNscore>
0.9875410795

> <CNNaffinity>
7.8574881554

> <CNN_VS>
7.7595925331

> <CNNaffinity_variance>
0.0144549822

$$$$



 32 34  0  0  0  0  0  0  0  0999 V2000
    3.8876   31.7210    7.9320 C   0  0  0  0  0  0  0  0  0  0  0  0
    3.7705   31.6723    9.2637 N   0  0  0  0  0  0  0  0  0  0  0  0
    4.3345   30.6282    9.8890 C   0  0  0  0  0  0  0  0  0  0  0  0
    4.9960   29.6221    9.2329 C   0  0  0  0  0  0  0  0  0  0  0  0
    5.0559   29.7262    7.8631 C   0  0  0  0  0  0  0  0  0  0  0  0
    4.5246   30.7792    7.2151 N   0  0  0  0  0  0  0  0  0  0  0  0
    3.3532   32.7642    7.1804 N   0  0  0  0  0  0  0  0  0  0  0  0
    3.2058   33.5812    7.7096 H   0  0  0  0  0  0  0  0  0  0  0  0
    2.1040   33.2688    3.1700 C   0  0  0  0  0  0  0  0  0  0  0  0
    3.3102   32.6186    3.4403 C   0  0  0  0  0  0  0  0  0  0  0  0
    3.7390   32.4430    4.7629 C   0  0  0  0  0  0  0  0  0  0  0  0
    2.9797   32.9090    5.8410 C   0  0  0  0  0  0  0  0  0  0  0  0
    1.7688   33.5607    5.5503 C   0  0  0  0  0  0  0  0  0  0  0  0
    1.3312   33.7414    4.2324 C   0  0  0  0  0  0  0  0  0  0  0  0
    0.7657   34.1161    1.3560 O   0  0  0  0  0  0  0  0  0  0  0  0
    1.6896   33.4322    1.7561 C   0  0  0  0  0  0  0  0  0  0  0  0
    2.4551   32.7280    0.9031 O   0  0  0  0  0  0  0  0  0  0  0  0
    3.1622   32.2069    1.2291 H   0  0  0  0  0  0  0  0  0  0  0  0
    5.7068   28.7963    7.0539 N   0  0  0  0  0  0  0  0  0  0  0  0
    5.3816   27.8778    7.1944 H   0  0  0  0  0  0  0  0  0  0  0  0
    6.7247   28.8695    6.0796 C   0  0  0  0  0  0  0  0  0  0  0  0
    6.4760   28.7528    4.7067 C   0  0  0  0  0  0  0  0  0  0  0  0
    7.5272   28.7761    3.7907 C   0  0  0  0  0  0  0  0  0  0  0  0
    7.1954   28.6404    2.1075 Cl  0  0  0  0  0  0  0  0  0  0  0  0
    8.8408   28.9124    4.2249 C   0  0  0  0  0  0  0  0  0  0  0  0
    9.1126   29.0330    5.5887 C   0  0  0  0  0  0  0  0  0  0  0  0
    8.0667   29.0087    6.5186 C   0  0  0  0  0  0  0  0  0  0  0  0
    8.2171   29.1259    7.8787 O   0  0  0  0  0  0  0  0  0  0  0  0
    8.7010   28.0046    8.5957 C   0  0  0  0  0  0  0  0  0  0  0  0
    7.9075   26.9299    8.4014 F   0  0  0  0  0  0  0  0  0  0  0  0
    9.9365   27.7015    8.1413 F   0  0  0  0  0  0  0  0  0  0  0  0
    8.7898   28.2683    9.9163 F   0  0  0  0  0  0  0  0  0  0  0  0
 15 16  2  0
 16 17  1  0
 16  9  1  0
  9 10  2  0
 10 11  1  0
 11 12  2  0
 12  7  1  0
  7  1  1  0
  1  2  2  0
  2  3  1  0
  3  4  2  0
  4  5  1  0
  5 19  1  0
 19 21  1  0
 21 22  2  0
 22 23  1  0
 23 24  1  0
 23 25  2  0
 25 26  1  0
 26 27  2  0
 27 28  1  0
 28 29  1  0
 29 30  1  0
 29 31  1  0
 29 32  1  0
  5  6  2  0
 12 13  1  0
 13 14  2  0
 14  9  1  0
  6  1  1  0
 27 21  1  0
 17 18  1  0
  7  8  1  0
 19 20  1  0
M  END
> <minimizedAffinity>
-9.88198

> <CNNscore>
0.9859541059

> <CNNaffinity>
7.7746195793

> <CNN_VS>
7.6654181480

> <CNNaffinity_variance>
0.0046083913

$$$$



 32 34  0  0  0  0  0  0  0  0999 V2000
    3.7466   31.7621    7.9204 C   0  0  0  0  0  0  0  0  0  0  0  0
    3.6373   31.6440    9.2484 N   0  0  0  0  0  0  0  0  0  0  0  0
    4.2221   30.5794    9.8174 C   0  0  0  0  0  0  0  0  0  0  0  0
    4.8971   29.6193    9.1082 C   0  0  0  0  0  0  0  0  0  0  0  0
    4.9480   29.7936    7.7452 C   0  0  0  0  0  0  0  0  0  0  0  0
    4.3956   30.8688    7.1538 N   0  0  0  0  0  0  0  0  0  0  0  0
    3.1908   32.8328    7.2250 N   0  0  0  0  0  0  0  0  0  0  0  0
    3.0087   33.6103    7.8008 H   0  0  0  0  0  0  0  0  0  0  0  0
    2.2387   33.4368    3.1474 C   0  0  0  0  0  0  0  0  0  0  0  0
    1.3025   33.7652    4.1305 C   0  0  0  0  0  0  0  0  0  0  0  0
    1.6015   33.5715    5.4858 C   0  0  0  0  0  0  0  0  0  0  0  0
    2.8339   33.0487    5.8907 C   0  0  0  0  0  0  0  0  0  0  0  0
    3.7637   32.7240    4.8880 C   0  0  0  0  0  0  0  0  0  0  0  0
    3.4750   32.9137    3.5309 C   0  0  0  0  0  0  0  0  0  0  0  0
    0.8970   33.2175    1.1596 O   0  0  0  0  0  0  0  0  0  0  0  0
    1.8798   33.6585    1.7263 C   0  0  0  0  0  0  0  0  0  0  0  0
    2.7727   34.4263    1.0761 O   0  0  0  0  0  0  0  0  0  0  0  0
    3.5235   34.7570    1.5286 H   0  0  0  0  0  0  0  0  0  0  0  0
    5.6102   28.9172    6.8870 N   0  0  0  0  0  0  0  0  0  0  0  0
    5.0896   28.1024    6.7013 H   0  0  0  0  0  0  0  0  0  0  0  0
    6.8552   28.9298    6.2233 C   0  0  0  0  0  0  0  0  0  0  0  0
    8.0725   29.1162    6.8894 C   0  0  0  0  0  0  0  0  0  0  0  0
    9.2695   29.1764    6.1765 C   0  0  0  0  0  0  0  0  0  0  0  0
   10.7540   29.3968    7.0186 Cl  0  0  0  0  0  0  0  0  0  0  0  0
    9.2747   29.0556    4.7916 C   0  0  0  0  0  0  0  0  0  0  0  0
    8.0734   28.8665    4.1063 C   0  0  0  0  0  0  0  0  0  0  0  0
    6.8648   28.8067    4.8099 C   0  0  0  0  0  0  0  0  0  0  0  0
    5.6291   28.6176    4.2411 O   0  0  0  0  0  0  0  0  0  0  0  0
    5.1561   29.5952    3.3322 C   0  0  0  0  0  0  0  0  0  0  0  0
    5.7452   30.7885    3.5590 F   0  0  0  0  0  0  0  0  0  0  0  0
    5.4680   29.2052    2.0771 F   0  0  0  0  0  0  0  0  0  0  0  0
    3.8156   29.7303    3.4115 F   0  0  0  0  0  0  0  0  0  0  0  0
 15 16  2  0
 16 17  1  0
 16  9  1  0
  9 10  2  0
 10 11  1  0
 11 12  2  0
 12  7  1  0
  7  1  1  0
  1  2  2  0
  2  3  1  0
  3  4  2  0
  4  5  1  0
  5 19  1  0
 19 21  1  0
 21 22  2  0
 22 23  1  0
 23 24  1  0
 23 25  2  0
 25 26  1  0
 26 27  2  0
 27 28  1  0
 28 29  1  0
 29 30  1  0
 29 31  1  0
 29 32  1  0
  5  6  2  0
 12 13  1  0
 13 14  2  0
 14  9  1  0
  6  1  1  0
 27 21  1  0
 17 18  1  0
  7  8  1  0
 19 20  1  0
M  END
> <minimizedAffinity>
-8.05225

> <CNNscore>
0.9712322354

> <CNNaffinity>
7.8062119484

> <CNN_VS>
7.5816445351

> <CNNaffinity_variance>
0.0133101419

$$$$



 32 34  0  0  0  0  0  0  0  0999 V2000
    3.7886   31.5346    6.2793 C   0  0  0  0  0  0  0  0  0  0  0  0
    3.3930   32.2218    7.3566 N   0  0  0  0  0  0  0  0  0  0  0  0
    3.7428   31.7330    8.5557 C   0  0  0  0  0  0  0  0  0  0  0  0
    4.4580   30.5746    8.7199 C   0  0  0  0  0  0  0  0  0  0  0  0
    4.8095   29.9089    7.5692 C   0  0  0  0  0  0  0  0  0  0  0  0
    4.4969   30.3946    6.3537 N   0  0  0  0  0  0  0  0  0  0  0  0
    3.4940   31.9548    4.9849 N   0  0  0  0  0  0  0  0  0  0  0  0
    3.9267   31.4018    4.2949 H   0  0  0  0  0  0  0  0  0  0  0  0
    1.1097   35.1144    3.4912 C   0  0  0  0  0  0  0  0  0  0  0  0
    1.8423   34.3236    2.6032 C   0  0  0  0  0  0  0  0  0  0  0  0
    2.6372   33.2729    3.0810 C   0  0  0  0  0  0  0  0  0  0  0  0
    2.7200   32.9878    4.4477 C   0  0  0  0  0  0  0  0  0  0  0  0
    1.9762   33.7938    5.3266 C   0  0  0  0  0  0  0  0  0  0  0  0
    1.1789   34.8460    4.8596 C   0  0  0  0  0  0  0  0  0  0  0  0
   -0.4057   36.1604    1.9392 O   0  0  0  0  0  0  0  0  0  0  0  0
    0.2823   36.2148    2.9416 C   0  0  0  0  0  0  0  0  0  0  0  0
    0.3548   37.3393    3.6763 O   0  0  0  0  0  0  0  0  0  0  0  0
    0.8898   37.3629    4.4452 H   0  0  0  0  0  0  0  0  0  0  0  0
    5.5514   28.7287    7.5654 N   0  0  0  0  0  0  0  0  0  0  0  0
    5.0166   27.9454    7.3016 H   0  0  0  0  0  0  0  0  0  0  0  0
    6.8928   28.3992    7.8529 C   0  0  0  0  0  0  0  0  0  0  0  0
    7.2881   27.7859    9.0479 C   0  0  0  0  0  0  0  0  0  0  0  0
    8.6355   27.5338    9.3041 C   0  0  0  0  0  0  0  0  0  0  0  0
    9.0957   26.7703   10.7761 Cl  0  0  0  0  0  0  0  0  0  0  0  0
    9.6100   27.8899    8.3789 C   0  0  0  0  0  0  0  0  0  0  0  0
    9.2393   28.5001    7.1795 C   0  0  0  0  0  0  0  0  0  0  0  0
    7.8905   28.7609    6.9112 C   0  0  0  0  0  0  0  0  0  0  0  0
    7.4131   29.3479    5.7650 O   0  0  0  0  0  0  0  0  0  0  0  0
    7.4186   28.5846    4.5721 C   0  0  0  0  0  0  0  0  0  0  0  0
    7.2471   27.2725    4.8393 F   0  0  0  0  0  0  0  0  0  0  0  0
    6.3922   28.9918    3.7939 F   0  0  0  0  0  0  0  0  0  0  0  0
    8.5659   28.7597    3.8835 F   0  0  0  0  0  0  0  0  0  0  0  0
 15 16  2  0
 16 17  1  0
 16  9  1  0
  9 10  2  0
 10 11  1  0
 11 12  2  0
 12  7  1  0
  7  1  1  0
  1  2  2  0
  2  3  1  0
  3  4  2  0
  4  5  1  0
  5 19  1  0
 19 21  1  0
 21 22  2  0
 22 23  1  0
 23 24  1  0
 23 25  2  0
 25 26  1  0
 26 27  2  0
 27 28  1  0
 28 29  1  0
 29 30  1  0
 29 31  1  0
 29 32  1  0
  5  6  2  0
 12 13  1  0
 13 14  2  0
 14  9  1  0
  6  1  1  0
 27 21  1  0
 17 18  1  0
  7  8  1  0
 19 20  1  0
M  END
> <minimizedAffinity>
-8.91339

> <CNNscore>
0.7971214652

> <CNNaffinity>
7.3458113670

> <CNN_VS>
5.8555040359

> <CNNaffinity_variance>
0.0657431558

$$$$



 32 34  0  0  0  0  0  0  0  0999 V2000
    3.7911   31.7801    6.1822 C   0  0  0  0  0  0  0  0  0  0  0  0
    3.3006   32.3140    7.3064 N   0  0  0  0  0  0  0  0  0  0  0  0
    3.5932   31.6905    8.4574 C   0  0  0  0  0  0  0  0  0  0  0  0
    4.3427   30.5444    8.5263 C   0  0  0  0  0  0  0  0  0  0  0  0
    4.7930   30.0395    7.3292 C   0  0  0  0  0  0  0  0  0  0  0  0
    4.5387   30.6631    6.1641 N   0  0  0  0  0  0  0  0  0  0  0  0
    3.5623   32.3493    4.9322 N   0  0  0  0  0  0  0  0  0  0  0  0
    2.9239   33.0980    4.9633 H   0  0  0  0  0  0  0  0  0  0  0  0
    5.0529   31.4500    1.0763 C   0  0  0  0  0  0  0  0  0  0  0  0
    4.3897   32.6595    1.2948 C   0  0  0  0  0  0  0  0  0  0  0  0
    3.8897   32.9733    2.5658 C   0  0  0  0  0  0  0  0  0  0  0  0
    4.0382   32.0934    3.6427 C   0  0  0  0  0  0  0  0  0  0  0  0
    4.7082   30.8811    3.4046 C   0  0  0  0  0  0  0  0  0  0  0  0
    5.2116   30.5578    2.1385 C   0  0  0  0  0  0  0  0  0  0  0  0
    4.9300   30.6672   -1.1978 O   0  0  0  0  0  0  0  0  0  0  0  0
    5.5655   31.1597   -0.2841 C   0  0  0  0  0  0  0  0  0  0  0  0
    6.8574   31.5010   -0.4389 O   0  0  0  0  0  0  0  0  0  0  0  0
    7.3310   31.8791    0.2758 H   0  0  0  0  0  0  0  0  0  0  0  0
    5.5807   28.8936    7.2310 N   0  0  0  0  0  0  0  0  0  0  0  0
    5.1121   28.1478    6.7911 H   0  0  0  0  0  0  0  0  0  0  0  0
    6.8953   28.5573    7.6173 C   0  0  0  0  0  0  0  0  0  0  0  0
    7.2059   28.0077    8.8670 C   0  0  0  0  0  0  0  0  0  0  0  0
    8.5300   27.7467    9.2181 C   0  0  0  0  0  0  0  0  0  0  0  0
    8.8857   27.0620   10.7564 Cl  0  0  0  0  0  0  0  0  0  0  0  0
    9.5651   28.0306    8.3347 C   0  0  0  0  0  0  0  0  0  0  0  0
    9.2793   28.5765    7.0822 C   0  0  0  0  0  0  0  0  0  0  0  0
    7.9546   28.8454    6.7184 C   0  0  0  0  0  0  0  0  0  0  0  0
    7.5586   29.3732    5.5139 O   0  0  0  0  0  0  0  0  0  0  0  0
    7.5287   28.5158    4.3871 C   0  0  0  0  0  0  0  0  0  0  0  0
    6.2780   28.0606    4.1616 F   0  0  0  0  0  0  0  0  0  0  0  0
    7.9226   29.2158    3.3010 F   0  0  0  0  0  0  0  0  0  0  0  0
    8.3688   27.4712    4.5437 F   0  0  0  0  0  0  0  0  0  0  0  0
 15 16  2  0
 16 17  1  0
 16  9  1  0
  9 10  2  0
 10 11  1  0
 11 12  2  0
 12  7  1  0
  7  1  1  0
  1  2  2  0
  2  3  1  0
  3  4  2  0
  4  5  1  0
  5 19  1  0
 19 21  1  0
 21 22  2  0
 22 23  1  0
 23 24  1  0
 23 25  2  0
 25 26  1  0
 26 27  2  0
 27 28  1  0
 28 29  1  0
 29 30  1  0
 29 31  1  0
 29 32  1  0
  5  6  2  0
 12 13  1  0
 13 14  2  0
 14  9  1  0
  6  1  1  0
 27 21  1  0
 17 18  1  0
  7  8  1  0
 19 20  1  0
M  END
> <minimizedAffinity>
-8.43147

> <CNNscore>
0.5134553909

> <CNNaffinity>
7.0079646111

> <CNN_VS>
3.5982770920

> <CNNaffinity_variance>
0.0221483801

$$$$



 32 34  0  0  0  0  0  0  0  0999 V2000
    5.9397   30.1398    3.0939 C   0  0  0  0  0  0  0  0  0  0  0  0
    7.0411   29.9545    2.3578 N   0  0  0  0  0  0  0  0  0  0  0  0
    8.0083   29.1904    2.8868 C   0  0  0  0  0  0  0  0  0  0  0  0
    7.9242   28.6187    4.1303 C   0  0  0  0  0  0  0  0  0  0  0  0
    6.7737   28.8721    4.8394 C   0  0  0  0  0  0  0  0  0  0  0  0
    5.7761   29.6101    4.3185 N   0  0  0  0  0  0  0  0  0  0  0  0
    4.8669   30.9030    2.6405 N   0  0  0  0  0  0  0  0  0  0  0  0
    4.7242   30.8244    1.6696 H   0  0  0  0  0  0  0  0  0  0  0  0
    2.1292   33.4369    4.6361 C   0  0  0  0  0  0  0  0  0  0  0  0
    2.1823   33.4416    3.2404 C   0  0  0  0  0  0  0  0  0  0  0  0
    3.0832   32.6086    2.5634 C   0  0  0  0  0  0  0  0  0  0  0  0
    3.9476   31.7563    3.2581 C   0  0  0  0  0  0  0  0  0  0  0  0
    3.8803   31.7648    4.6619 C   0  0  0  0  0  0  0  0  0  0  0  0
    2.9838   32.5932    5.3481 C   0  0  0  0  0  0  0  0  0  0  0  0
   -0.0236   34.1109    5.4792 O   0  0  0  0  0  0  0  0  0  0  0  0
    1.1608   34.3343    5.3103 C   0  0  0  0  0  0  0  0  0  0  0  0
    1.7228   35.4767    5.7446 O   0  0  0  0  0  0  0  0  0  0  0  0
    2.6364   35.6317    5.6057 H   0  0  0  0  0  0  0  0  0  0  0  0
    6.5275   28.3504    6.1084 N   0  0  0  0  0  0  0  0  0  0  0  0
    6.8515   27.4260    6.2079 H   0  0  0  0  0  0  0  0  0  0  0  0
    5.9206   28.8430    7.2829 C   0  0  0  0  0  0  0  0  0  0  0  0
    5.0170   29.9126    7.2835 C   0  0  0  0  0  0  0  0  0  0  0  0
    4.4900   30.3956    8.4808 C   0  0  0  0  0  0  0  0  0  0  0  0
    3.3738   31.7052    8.4548 Cl  0  0  0  0  0  0  0  0  0  0  0  0
    4.8549   29.8257    9.6950 C   0  0  0  0  0  0  0  0  0  0  0  0
    5.7521   28.7567    9.7189 C   0  0  0  0  0  0  0  0  0  0  0  0
    6.2902   28.2639    8.5243 C   0  0  0  0  0  0  0  0  0  0  0  0
    7.1726   27.2158    8.4294 O   0  0  0  0  0  0  0  0  0  0  0  0
    8.4866   27.4027    8.9234 C   0  0  0  0  0  0  0  0  0  0  0  0
    9.3150   26.4409    8.4641 F   0  0  0  0  0  0  0  0  0  0  0  0
    8.9465   28.5957    8.4872 F   0  0  0  0  0  0  0  0  0  0  0  0
    8.5066   27.4103   10.2728 F   0  0  0  0  0  0  0  0  0  0  0  0
 15 16  2  0
 16 17  1  0
 16  9  1  0
  9 10  2  0
 10 11  1  0
 11 12  2  0
 12  7  1  0
  7  1  1  0
  1  2  2  0
  2  3  1  0
  3  4  2  0
  4  5  1  0
  5 19  1  0
 19 21  1  0
 21 22  2  0
 22 23  1  0
 23 24  1  0
 23 25  2  0
 25 26  1  0
 26 27  2  0
 27 28  1  0
 28 29  1  0
 29 30  1  0
 29 31  1  0
 29 32  1  0
  5  6  2  0
 12 13  1  0
 13 14  2  0
 14  9  1  0
  6  1  1  0
 27 21  1  0
 17 18  1  0
  7  8  1  0
 19 20  1  0
M  END
> <minimizedAffinity>
-9.24506

> <CNNscore>
0.3233023286

> <CNNaffinity>
6.5896391869

> <CNN_VS>
2.1304457188

> <CNNaffinity_variance>
0.2317731231

$$$$



 32 34  0  0  0  0  0  0  0  0999 V2000
    5.2298   30.1194    7.5478 C   0  0  0  0  0  0  0  0  0  0  0  0
    4.9866   30.2308    8.8584 N   0  0  0  0  0  0  0  0  0  0  0  0
    4.0134   31.0759    9.2297 C   0  0  0  0  0  0  0  0  0  0  0  0
    3.2858   31.8268    8.3426 C   0  0  0  0  0  0  0  0  0  0  0  0
    3.6071   31.6786    7.0139 C   0  0  0  0  0  0  0  0  0  0  0  0
    4.5583   30.8148    6.6137 N   0  0  0  0  0  0  0  0  0  0  0  0
    6.2073   29.2634    7.0472 N   0  0  0  0  0  0  0  0  0  0  0  0
    6.2179   29.2278    6.0634 H   0  0  0  0  0  0  0  0  0  0  0  0
    9.0379   26.7092    8.8808 C   0  0  0  0  0  0  0  0  0  0  0  0
    9.4766   27.7346    8.0401 C   0  0  0  0  0  0  0  0  0  0  0  0
    8.5525   28.5897    7.4247 C   0  0  0  0  0  0  0  0  0  0  0  0
    7.1771   28.4433    7.6316 C   0  0  0  0  0  0  0  0  0  0  0  0
    6.7538   27.4063    8.4805 C   0  0  0  0  0  0  0  0  0  0  0  0
    7.6688   26.5463    9.1004 C   0  0  0  0  0  0  0  0  0  0  0  0
   10.4090   25.8682   10.6731 O   0  0  0  0  0  0  0  0  0  0  0  0
   10.0505   25.8285    9.5107 C   0  0  0  0  0  0  0  0  0  0  0  0
   10.5708   24.9337    8.6516 O   0  0  0  0  0  0  0  0  0  0  0  0
   10.2827   24.9178    7.7601 H   0  0  0  0  0  0  0  0  0  0  0  0
    2.9496   32.3563    5.9884 N   0  0  0  0  0  0  0  0  0  0  0  0
    2.2166   32.9247    6.3185 H   0  0  0  0  0  0  0  0  0  0  0  0
    3.0935   32.4146    4.5861 C   0  0  0  0  0  0  0  0  0  0  0  0
    4.2017   31.8890    3.9107 C   0  0  0  0  0  0  0  0  0  0  0  0
    4.3196   32.0244    2.5279 C   0  0  0  0  0  0  0  0  0  0  0  0
    5.6864   31.3615    1.7191 Cl  0  0  0  0  0  0  0  0  0  0  0  0
    3.3405   32.6864    1.7960 C   0  0  0  0  0  0  0  0  0  0  0  0
    2.2256   33.2164    2.4475 C   0  0  0  0  0  0  0  0  0  0  0  0
    2.0964   33.0894    3.8355 C   0  0  0  0  0  0  0  0  0  0  0  0
    1.0421   33.5641    4.5766 O   0  0  0  0  0  0  0  0  0  0  0  0
    1.0354   34.9369    4.9244 C   0  0  0  0  0  0  0  0  0  0  0  0
    1.9308   35.1901    5.9024 F   0  0  0  0  0  0  0  0  0  0  0  0
    1.3852   35.6596    3.8381 F   0  0  0  0  0  0  0  0  0  0  0  0
   -0.1915   35.3363    5.3201 F   0  0  0  0  0  0  0  0  0  0  0  0
 15 16  2  0
 16 17  1  0
 16  9  1  0
  9 10  2  0
 10 11  1  0
 11 12  2  0
 12  7  1  0
  7  1  1  0
  1  2  2  0
  2  3  1  0
  3  4  2  0
  4  5  1  0
  5 19  1  0
 19 21  1  0
 21 22  2  0
 22 23  1  0
 23 24  1  0
 23 25  2  0
 25 26  1  0
 26 27  2  0
 27 28  1  0
 28 29  1  0
 29 30  1  0
 29 31  1  0
 29 32  1  0
  5  6  2  0
 12 13  1  0
 13 14  2  0
 14  9  1  0
  6  1  1  0
 27 21  1  0
 17 18  1  0
  7  8  1  0
 19 20  1  0
M  END
> <minimizedAffinity>
-7.96319

> <CNNscore>
0.2453043461

> <CNNaffinity>
6.4651074409

> <CNN_VS>
1.5859189034

> <CNNaffinity_variance>
0.1130768880

$$$$



 32 34  0  0  0  0  0  0  0  0999 V2000
    7.6640   29.0933    4.0230 C   0  0  0  0  0  0  0  0  0  0  0  0
    7.5368   28.7437    2.7382 N   0  0  0  0  0  0  0  0  0  0  0  0
    6.4165   29.1277    2.1083 C   0  0  0  0  0  0  0  0  0  0  0  0
    5.4108   29.8327    2.7182 C   0  0  0  0  0  0  0  0  0  0  0  0
    5.5996   30.1360    4.0460 C   0  0  0  0  0  0  0  0  0  0  0  0
    6.7280   29.7886    4.6919 N   0  0  0  0  0  0  0  0  0  0  0  0
    8.7896   28.7603    4.7721 N   0  0  0  0  0  0  0  0  0  0  0  0
    9.6314   29.0306    4.3391 H   0  0  0  0  0  0  0  0  0  0  0  0
    9.3863   26.7188    8.4292 C   0  0  0  0  0  0  0  0  0  0  0  0
    9.3580   28.1151    8.4151 C   0  0  0  0  0  0  0  0  0  0  0  0
    9.1614   28.8072    7.2125 C   0  0  0  0  0  0  0  0  0  0  0  0
    8.9895   28.1273    6.0025 C   0  0  0  0  0  0  0  0  0  0  0  0
    9.0208   26.7226    6.0355 C   0  0  0  0  0  0  0  0  0  0  0  0
    9.2165   26.0213    7.2317 C   0  0  0  0  0  0  0  0  0  0  0  0
    9.8978   24.8581    9.8699 O   0  0  0  0  0  0  0  0  0  0  0  0
    9.5968   26.0283    9.7240 C   0  0  0  0  0  0  0  0  0  0  0  0
    9.4198   26.8390   10.7827 O   0  0  0  0  0  0  0  0  0  0  0  0
    9.1882   27.7374   10.6512 H   0  0  0  0  0  0  0  0  0  0  0  0
    4.6806   30.8616    4.8023 N   0  0  0  0  0  0  0  0  0  0  0  0
    4.0778   31.4064    4.2463 H   0  0  0  0  0  0  0  0  0  0  0  0
    4.4161   30.9945    6.1818 C   0  0  0  0  0  0  0  0  0  0  0  0
    4.7396   30.0059    7.1190 C   0  0  0  0  0  0  0  0  0  0  0  0
    4.4041   30.1654    8.4631 C   0  0  0  0  0  0  0  0  0  0  0  0
    4.8208   28.9404    9.5977 Cl  0  0  0  0  0  0  0  0  0  0  0  0
    3.7398   31.3074    8.8955 C   0  0  0  0  0  0  0  0  0  0  0  0
    3.4093   32.3075    7.9796 C   0  0  0  0  0  0  0  0  0  0  0  0
    3.7382   32.1586    6.6272 C   0  0  0  0  0  0  0  0  0  0  0  0
    3.4691   33.0786    5.6437 O   0  0  0  0  0  0  0  0  0  0  0  0
    2.1135   33.3628    5.3486 C   0  0  0  0  0  0  0  0  0  0  0  0
    1.7295   32.7480    4.2098 F   0  0  0  0  0  0  0  0  0  0  0  0
    1.3449   32.8964    6.3568 F   0  0  0  0  0  0  0  0  0  0  0  0
    1.9041   34.6915    5.2379 F   0  0  0  0  0  0  0  0  0  0  0  0
 15 16  2  0
 16 17  1  0
 16  9  1  0
  9 10  2  0
 10 11  1  0
 11 12  2  0
 12  7  1  0
  7  1  1  0
  1  2  2  0
  2  3  1  0
  3  4  2  0
  4  5  1  0
  5 19  1  0
 19 21  1  0
 21 22  2  0
 22 23  1  0
 23 24  1  0
 23 25  2  0
 25 26  1  0
 26 27  2  0
 27 28  1  0
 28 29  1  0
 29 30  1  0
 29 31  1  0
 29 32  1  0
  5  6  2  0
 12 13  1  0
 13 14  2  0
 14  9  1  0
  6  1  1  0
 27 21  1  0
 17 18  1  0
  7  8  1  0
 19 20  1  0
M  END
> <minimizedAffinity>
-9.88352

> <CNNscore>
0.2089920342

> <CNNaffinity>
6.1278648376

> <CNN_VS>
1.2806749344

> <CNNaffinity_variance>
0.4743250310

$$$$
