


 22 24  0  0  0  0  0  0  0  0999 V2000
   37.7512  -10.2695  -15.0881 O   0  0  0  0  0  0  0  0  0  0  0  0
   38.4252  -11.1474  -14.3015 C   0  0  0  0  0  0  0  0  0  0  0  0
   38.4417  -10.7903  -13.0129 N   0  0  0  0  0  0  0  0  0  0  0  0
   39.0686  -11.6443  -12.1842 C   0  0  0  0  0  0  0  0  0  0  0  0
   39.6469  -12.7958  -12.5812 N   0  0  0  0  0  0  0  0  0  0  0  0
   39.5980  -13.0944  -13.8980 C   0  0  0  0  0  0  0  0  0  0  0  0
   38.9969  -12.2773  -14.8331 C   0  0  0  0  0  0  0  0  0  0  0  0
   38.8846  -12.6498  -16.2725 C   0  0  0  0  0  0  0  0  0  0  0  0
   40.3432  -13.4753  -16.9952 S   0  0  0  0  0  0  0  0  0  0  0  0
   41.1779  -14.1241  -15.5062 C   0  0  0  0  0  0  0  0  0  0  0  0
   40.2395  -14.3801  -14.3383 C   0  0  0  0  0  0  0  0  0  0  0  0
   37.3662   -9.5028  -14.7114 H   0  0  0  0  0  0  0  0  0  0  0  0
   39.1225  -11.3041  -10.7467 C   0  0  0  0  0  0  0  0  0  0  0  0
   39.4418  -12.2681   -9.7717 C   0  0  0  0  0  0  0  0  0  0  0  0
   39.4933  -11.9471   -8.4093 C   0  0  0  0  0  0  0  0  0  0  0  0
   39.2321  -10.6421   -7.9744 C   0  0  0  0  0  0  0  0  0  0  0  0
   38.9036   -9.6720   -8.9288 C   0  0  0  0  0  0  0  0  0  0  0  0
   38.8538   -9.9998  -10.2895 C   0  0  0  0  0  0  0  0  0  0  0  0
   39.2644  -10.2984   -6.5057 C   0  0  0  0  0  0  0  0  0  0  0  0
   39.7330   -9.0425   -6.2607 F   0  0  0  0  0  0  0  0  0  0  0  0
   38.0380  -10.3575   -5.9149 F   0  0  0  0  0  0  0  0  0  0  0  0
   40.0632  -11.1406   -5.7942 F   0  0  0  0  0  0  0  0  0  0  0  0
  1  2  1  0
  2  3  2  0
  3  4  1  0
  4 13  1  0
 13 14  2  0
 14 15  1  0
 15 16  2  0
 16 19  1  0
 19 20  1  0
 19 21  1  0
 19 22  1  0
 16 17  1  0
 17 18  2  0
  4  5  2  0
  5  6  1  0
  6  7  2  0
  7  8  1  0
  8  9  1  0
  9 10  1  0
 10 11  1  0
  7  2  1  0
 18 13  1  0
 11  6  1  0
  1 12  1  0
M  END
> <minimizedAffinity>
-11.10490

> <CNNscore>
0.9237051010

> <CNNaffinity>
6.8118405342

> <CNN_VS>
6.2921319008

> <CNNaffinity_variance>
0.0297665056

$$$$



 22 24  0  0  0  0  0  0  0  0999 V2000
   32.0011   -8.6445   -1.9426 O   0  0  0  0  0  0  0  0  0  0  0  0
   30.8290   -8.4224   -2.5913 C   0  0  0  0  0  0  0  0  0  0  0  0
   30.4910   -7.1293   -2.6346 N   0  0  0  0  0  0  0  0  0  0  0  0
   29.3536   -6.8507   -3.2962 C   0  0  0  0  0  0  0  0  0  0  0  0
   28.5812   -7.7790   -3.8960 N   0  0  0  0  0  0  0  0  0  0  0  0
   28.9779   -9.0677   -3.8103 C   0  0  0  0  0  0  0  0  0  0  0  0
   30.1171   -9.4613   -3.1390 C   0  0  0  0  0  0  0  0  0  0  0  0
   30.5853  -10.8766   -3.1114 C   0  0  0  0  0  0  0  0  0  0  0  0
   29.2804  -12.1416   -2.9428 S   0  0  0  0  0  0  0  0  0  0  0  0
   27.8050  -11.2311   -3.5164 C   0  0  0  0  0  0  0  0  0  0  0  0
   28.1181  -10.1005   -4.4828 C   0  0  0  0  0  0  0  0  0  0  0  0
   32.4760   -7.9257   -1.5740 H   0  0  0  0  0  0  0  0  0  0  0  0
   28.9251   -5.4384   -3.3774 C   0  0  0  0  0  0  0  0  0  0  0  0
   29.8586   -4.3871   -3.4509 C   0  0  0  0  0  0  0  0  0  0  0  0
   29.4541   -3.0484   -3.5280 C   0  0  0  0  0  0  0  0  0  0  0  0
   28.0943   -2.7146   -3.5409 C   0  0  0  0  0  0  0  0  0  0  0  0
   27.1514   -3.7461   -3.4591 C   0  0  0  0  0  0  0  0  0  0  0  0
   27.5628   -5.0826   -3.3822 C   0  0  0  0  0  0  0  0  0  0  0  0
   27.6555   -1.2724   -3.6009 C   0  0  0  0  0  0  0  0  0  0  0  0
   27.1931   -0.9048   -4.8289 F   0  0  0  0  0  0  0  0  0  0  0  0
   26.6528   -0.9809   -2.7256 F   0  0  0  0  0  0  0  0  0  0  0  0
   28.6684   -0.4104   -3.3098 F   0  0  0  0  0  0  0  0  0  0  0  0
  1  2  1  0
  2  3  2  0
  3  4  1  0
  4 13  1  0
 13 14  2  0
 14 15  1  0
 15 16  2  0
 16 19  1  0
 19 20  1  0
 19 21  1  0
 19 22  1  0
 16 17  1  0
 17 18  2  0
  4  5  2  0
  5  6  1  0
  6  7  2  0
  7  8  1  0
  8  9  1  0
  9 10  1  0
 10 11  1  0
  7  2  1  0
 18 13  1  0
 11  6  1  0
  1 12  1  0
M  END
> <minimizedAffinity>
-3.60708

> <CNNscore>
0.4660357237

> <CNNaffinity>
5.1617398262

> <CNN_VS>
2.4055552483

> <CNNaffinity_variance>
0.3288635910

$$$$



 22 24  0  0  0  0  0  0  0  0999 V2000
   39.4878  -19.8572  -10.9251 O   0  0  0  0  0  0  0  0  0  0  0  0
   39.7359  -20.4576   -9.7326 C   0  0  0  0  0  0  0  0  0  0  0  0
   38.6491  -20.5562   -8.9597 N   0  0  0  0  0  0  0  0  0  0  0  0
   38.8331  -21.1742   -7.7793 C   0  0  0  0  0  0  0  0  0  0  0  0
   40.0126  -21.6814   -7.3673 N   0  0  0  0  0  0  0  0  0  0  0  0
   41.0717  -21.5437   -8.1948 C   0  0  0  0  0  0  0  0  0  0  0  0
   40.9939  -20.9095   -9.4176 C   0  0  0  0  0  0  0  0  0  0  0  0
   42.1504  -20.8263  -10.3550 C   0  0  0  0  0  0  0  0  0  0  0  0
   43.7767  -20.5215   -9.5845 S   0  0  0  0  0  0  0  0  0  0  0  0
   43.4824  -21.0702   -7.8678 C   0  0  0  0  0  0  0  0  0  0  0  0
   42.3845  -22.1130   -7.7359 C   0  0  0  0  0  0  0  0  0  0  0  0
   38.6244  -19.5538  -11.1262 H   0  0  0  0  0  0  0  0  0  0  0  0
   37.6693  -21.3128   -6.8787 C   0  0  0  0  0  0  0  0  0  0  0  0
   36.6143  -22.1993   -7.1673 C   0  0  0  0  0  0  0  0  0  0  0  0
   35.5110  -22.3317   -6.3148 C   0  0  0  0  0  0  0  0  0  0  0  0
   35.4283  -21.5825   -5.1348 C   0  0  0  0  0  0  0  0  0  0  0  0
   36.4635  -20.6887   -4.8359 C   0  0  0  0  0  0  0  0  0  0  0  0
   37.5639  -20.5612   -5.6928 C   0  0  0  0  0  0  0  0  0  0  0  0
   34.2304  -21.7060   -4.2260 C   0  0  0  0  0  0  0  0  0  0  0  0
   33.3950  -22.7235   -4.5778 F   0  0  0  0  0  0  0  0  0  0  0  0
   34.5662  -21.9359   -2.9256 F   0  0  0  0  0  0  0  0  0  0  0  0
   33.4657  -20.5796   -4.2212 F   0  0  0  0  0  0  0  0  0  0  0  0
  1  2  1  0
  2  3  2  0
  3  4  1  0
  4 13  1  0
 13 14  2  0
 14 15  1  0
 15 16  2  0
 16 19  1  0
 19 20  1  0
 19 21  1  0
 19 22  1  0
 16 17  1  0
 17 18  2  0
  4  5  2  0
  5  6  1  0
  6  7  2  0
  7  8  1  0
  8  9  1  0
  9 10  1  0
 10 11  1  0
  7  2  1  0
 18 13  1  0
 11  6  1  0
  1 12  1  0
M  END
> <minimizedAffinity>
-6.67231

> <CNNscore>
0.3605578244

> <CNNaffinity>
4.5617527962

> <CNN_VS>
1.6447756290

> <CNNaffinity_variance>
0.8736079335

$$$$



 22 24  0  0  0  0  0  0  0  0999 V2000
   31.9720   -8.8068   -0.9281 O   0  0  0  0  0  0  0  0  0  0  0  0
   31.7522   -9.7750   -1.8545 C   0  0  0  0  0  0  0  0  0  0  0  0
   32.6772  -10.7404   -1.8328 N   0  0  0  0  0  0  0  0  0  0  0  0
   32.4875  -11.7428   -2.7094 C   0  0  0  0  0  0  0  0  0  0  0  0
   31.4465  -11.8134   -3.5634 N   0  0  0  0  0  0  0  0  0  0  0  0
   30.5506  -10.8024   -3.5365 C   0  0  0  0  0  0  0  0  0  0  0  0
   30.6636   -9.7190   -2.6899 C   0  0  0  0  0  0  0  0  0  0  0  0
   29.6320   -8.6449   -2.6167 C   0  0  0  0  0  0  0  0  0  0  0  0
   28.9057   -8.1316   -4.2106 S   0  0  0  0  0  0  0  0  0  0  0  0
   29.2528   -9.5843   -5.2613 C   0  0  0  0  0  0  0  0  0  0  0  0
   29.3888  -10.8846   -4.4862 C   0  0  0  0  0  0  0  0  0  0  0  0
   32.7191   -8.8583   -0.3648 H   0  0  0  0  0  0  0  0  0  0  0  0
   33.4778  -12.8399   -2.7353 C   0  0  0  0  0  0  0  0  0  0  0  0
   34.8040  -12.6271   -3.1570 C   0  0  0  0  0  0  0  0  0  0  0  0
   35.7434  -13.6657   -3.1819 C   0  0  0  0  0  0  0  0  0  0  0  0
   35.3876  -14.9581   -2.7772 C   0  0  0  0  0  0  0  0  0  0  0  0
   34.0706  -15.1908   -2.3635 C   0  0  0  0  0  0  0  0  0  0  0  0
   33.1363  -14.1477   -2.3411 C   0  0  0  0  0  0  0  0  0  0  0  0
   36.3909  -16.0839   -2.8245 C   0  0  0  0  0  0  0  0  0  0  0  0
   36.0751  -17.0433   -3.7392 F   0  0  0  0  0  0  0  0  0  0  0  0
   37.6483  -15.6675   -3.1443 F   0  0  0  0  0  0  0  0  0  0  0  0
   36.5027  -16.7283   -1.6305 F   0  0  0  0  0  0  0  0  0  0  0  0
  1  2  1  0
  2  3  2  0
  3  4  1  0
  4 13  1  0
 13 14  2  0
 14 15  1  0
 15 16  2  0
 16 19  1  0
 19 20  1  0
 19 21  1  0
 19 22  1  0
 16 17  1  0
 17 18  2  0
  4  5  2  0
  5  6  1  0
  6  7  2  0
  7  8  1  0
  8  9  1  0
  9 10  1  0
 10 11  1  0
  7  2  1  0
 18 13  1  0
 11  6  1  0
  1 12  1  0
M  END
> <minimizedAffinity>
-4.81383

> <CNNscore>
0.3448277116

> <CNNaffinity>
4.5162611008

> <CNN_VS>
1.5573320389

> <CNNaffinity_variance>
0.6121798158

$$$$



 22 24  0  0  0  0  0  0  0  0999 V2000
   33.5260  -11.1961   -1.1588 O   0  0  0  0  0  0  0  0  0  0  0  0
   32.3786  -10.7526   -1.7340 C   0  0  0  0  0  0  0  0  0  0  0  0
   32.2968   -9.4187   -1.7789 N   0  0  0  0  0  0  0  0  0  0  0  0
   31.1935   -8.9266   -2.3702 C   0  0  0  0  0  0  0  0  0  0  0  0
   30.2165   -9.6890   -2.9014 N   0  0  0  0  0  0  0  0  0  0  0  0
   30.3596  -11.0300   -2.8181 C   0  0  0  0  0  0  0  0  0  0  0  0
   31.4428  -11.6352   -2.2150 C   0  0  0  0  0  0  0  0  0  0  0  0
   31.6272  -13.1146   -2.1920 C   0  0  0  0  0  0  0  0  0  0  0  0
   30.1153  -14.0991   -1.9158 S   0  0  0  0  0  0  0  0  0  0  0  0
   28.8103  -12.9208   -2.4090 C   0  0  0  0  0  0  0  0  0  0  0  0
   29.2718  -11.8783   -3.4142 C   0  0  0  0  0  0  0  0  0  0  0  0
   34.1554  -10.5822   -0.8350 H   0  0  0  0  0  0  0  0  0  0  0  0
   31.0438   -7.4582   -2.4493 C   0  0  0  0  0  0  0  0  0  0  0  0
   29.8506   -6.8612   -2.8983 C   0  0  0  0  0  0  0  0  0  0  0  0
   29.7073   -5.4699   -2.9737 C   0  0  0  0  0  0  0  0  0  0  0  0
   30.7565   -4.6240   -2.5941 C   0  0  0  0  0  0  0  0  0  0  0  0
   31.9542   -5.1998   -2.1538 C   0  0  0  0  0  0  0  0  0  0  0  0
   32.0907   -6.5917   -2.0809 C   0  0  0  0  0  0  0  0  0  0  0  0
   30.6134   -3.1255   -2.6957 C   0  0  0  0  0  0  0  0  0  0  0  0
   30.5143   -2.5144   -1.4818 F   0  0  0  0  0  0  0  0  0  0  0  0
   31.6640   -2.5288   -3.3255 F   0  0  0  0  0  0  0  0  0  0  0  0
   29.5024   -2.7574   -3.3911 F   0  0  0  0  0  0  0  0  0  0  0  0
  1  2  1  0
  2  3  2  0
  3  4  1  0
  4 13  1  0
 13 14  2  0
 14 15  1  0
 15 16  2  0
 16 19  1  0
 19 20  1  0
 19 21  1  0
 19 22  1  0
 16 17  1  0
 17 18  2  0
  4  5  2  0
  5  6  1  0
  6  7  2  0
  7  8  1  0
  8  9  1  0
  9 10  1  0
 10 11  1  0
  7  2  1  0
 18 13  1  0
 11  6  1  0
  1 12  1  0
M  END
> <minimizedAffinity>
-4.00128

> <CNNscore>
0.3241093755

> <CNNaffinity>
4.7183318138

> <CNN_VS>
1.5292556286

> <CNNaffinity_variance>
0.0513229929

$$$$



 22 24  0  0  0  0  0  0  0  0999 V2000
   36.4093  -12.2882   -5.1291 O   0  0  0  0  0  0  0  0  0  0  0  0
   36.9143  -13.0326   -4.1118 C   0  0  0  0  0  0  0  0  0  0  0  0
   36.3355  -14.2332   -4.0037 N   0  0  0  0  0  0  0  0  0  0  0  0
   36.8228  -15.0246   -3.0315 C   0  0  0  0  0  0  0  0  0  0  0  0
   37.8296  -14.6750   -2.2056 N   0  0  0  0  0  0  0  0  0  0  0  0
   38.3670  -13.4457   -2.3660 C   0  0  0  0  0  0  0  0  0  0  0  0
   37.9271  -12.5507   -3.3193 C   0  0  0  0  0  0  0  0  0  0  0  0
   38.5739  -11.2249   -3.5363 C   0  0  0  0  0  0  0  0  0  0  0  0
   39.0961  -10.3397   -2.0280 S   0  0  0  0  0  0  0  0  0  0  0  0
   39.2124  -11.7035   -0.8191 C   0  0  0  0  0  0  0  0  0  0  0  0
   39.4917  -13.0591   -1.4474 C   0  0  0  0  0  0  0  0  0  0  0  0
   35.7182  -12.6301   -5.6616 H   0  0  0  0  0  0  0  0  0  0  0  0
   36.2227  -16.3645   -2.8603 C   0  0  0  0  0  0  0  0  0  0  0  0
   36.9268  -17.5368   -3.1949 C   0  0  0  0  0  0  0  0  0  0  0  0
   36.3594  -18.8071   -3.0331 C   0  0  0  0  0  0  0  0  0  0  0  0
   35.0636  -18.9487   -2.5219 C   0  0  0  0  0  0  0  0  0  0  0  0
   34.3445  -17.7937   -2.1923 C   0  0  0  0  0  0  0  0  0  0  0  0
   34.9178  -16.5266   -2.3566 C   0  0  0  0  0  0  0  0  0  0  0  0
   34.4411  -20.3144   -2.3678 C   0  0  0  0  0  0  0  0  0  0  0  0
   33.1961  -20.3993   -2.9150 F   0  0  0  0  0  0  0  0  0  0  0  0
   35.1710  -21.3047   -2.9535 F   0  0  0  0  0  0  0  0  0  0  0  0
   34.3009  -20.6752   -1.0625 F   0  0  0  0  0  0  0  0  0  0  0  0
  1  2  1  0
  2  3  2  0
  3  4  1  0
  4 13  1  0
 13 14  2  0
 14 15  1  0
 15 16  2  0
 16 19  1  0
 19 20  1  0
 19 21  1  0
 19 22  1  0
 16 17  1  0
 17 18  2  0
  4  5  2  0
  5  6  1  0
  6  7  2  0
  7  8  1  0
  8  9  1  0
  9 10  1  0
 10 11  1  0
  7  2  1  0
 18 13  1  0
 11  6  1  0
  1 12  1  0
M  END
> <minimizedAffinity>
-4.81318

> <CNNscore>
0.3082010448

> <CNNaffinity>
4.0682396889

> <CNN_VS>
1.2538356781

> <CNNaffinity_variance>
0.2020016760

$$$$



 22 24  0  0  0  0  0  0  0  0999 V2000
   38.5037   -7.8659   -9.3104 O   0  0  0  0  0  0  0  0  0  0  0  0
   38.8666   -9.1744   -9.3200 C   0  0  0  0  0  0  0  0  0  0  0  0
   38.8603   -9.7108  -10.5449 N   0  0  0  0  0  0  0  0  0  0  0  0
   39.2451  -10.9977  -10.6146 C   0  0  0  0  0  0  0  0  0  0  0  0
   39.6265  -11.7315   -9.5496 N   0  0  0  0  0  0  0  0  0  0  0  0
   39.6053  -11.1296   -8.3401 C   0  0  0  0  0  0  0  0  0  0  0  0
   39.2087   -9.8209   -8.1576 C   0  0  0  0  0  0  0  0  0  0  0  0
   39.2577   -9.1437   -6.8302 C   0  0  0  0  0  0  0  0  0  0  0  0
   38.7601  -10.1628   -5.4000 S   0  0  0  0  0  0  0  0  0  0  0  0
   38.9954  -11.8533   -6.0495 C   0  0  0  0  0  0  0  0  0  0  0  0
   40.0345  -11.9476   -7.1548 C   0  0  0  0  0  0  0  0  0  0  0  0
   38.2728   -7.4379  -10.1114 H   0  0  0  0  0  0  0  0  0  0  0  0
   39.2575  -11.6483  -11.9418 C   0  0  0  0  0  0  0  0  0  0  0  0
   40.0109  -12.8122  -12.1861 C   0  0  0  0  0  0  0  0  0  0  0  0
   40.0234  -13.4298  -13.4432 C   0  0  0  0  0  0  0  0  0  0  0  0
   39.2733  -12.9047  -14.5025 C   0  0  0  0  0  0  0  0  0  0  0  0
   38.5253  -11.7423  -14.2809 C   0  0  0  0  0  0  0  0  0  0  0  0
   38.5172  -11.1299  -13.0215 C   0  0  0  0  0  0  0  0  0  0  0  0
   39.3027  -13.5545  -15.8638 C   0  0  0  0  0  0  0  0  0  0  0  0
   40.1467  -12.9331  -16.7347 F   0  0  0  0  0  0  0  0  0  0  0  0
   39.7021  -14.8567  -15.8270 F   0  0  0  0  0  0  0  0  0  0  0  0
   38.0806  -13.5549  -16.4638 F   0  0  0  0  0  0  0  0  0  0  0  0
  1  2  1  0
  2  3  2  0
  3  4  1  0
  4 13  1  0
 13 14  2  0
 14 15  1  0
 15 16  2  0
 16 19  1  0
 19 20  1  0
 19 21  1  0
 19 22  1  0
 16 17  1  0
 17 18  2  0
  4  5  2  0
  5  6  1  0
  6  7  2  0
  7  8  1  0
  8  9  1  0
  9 10  1  0
 10 11  1  0
  7  2  1  0
 18 13  1  0
 11  6  1  0
  1 12  1  0
M  END
> <minimizedAffinity>
-10.78719

> <CNNscore>
0.2995755076

> <CNNaffinity>
5.3360328674

> <CNN_VS>
1.5985447168

> <CNNaffinity_variance>
0.4685995281

$$$$



 22 24  0  0  0  0  0  0  0  0999 V2000
   50.1016   -5.5154   -3.6140 O   0  0  0  0  0  0  0  0  0  0  0  0
   49.2051   -5.1281   -2.6705 C   0  0  0  0  0  0  0  0  0  0  0  0
   48.1805   -5.9776   -2.5414 N   0  0  0  0  0  0  0  0  0  0  0  0
   47.2797   -5.6576   -1.5952 C   0  0  0  0  0  0  0  0  0  0  0  0
   47.3687   -4.5697   -0.8037 N   0  0  0  0  0  0  0  0  0  0  0  0
   48.4269   -3.7504   -0.9896 C   0  0  0  0  0  0  0  0  0  0  0  0
   49.3957   -3.9775   -1.9452 C   0  0  0  0  0  0  0  0  0  0  0  0
   50.5973   -3.1074   -2.0944 C   0  0  0  0  0  0  0  0  0  0  0  0
   50.3102   -1.3160   -1.8952 S   0  0  0  0  0  0  0  0  0  0  0  0
   48.7517   -1.2937   -0.9437 C   0  0  0  0  0  0  0  0  0  0  0  0
   48.5268   -2.5405   -0.1039 C   0  0  0  0  0  0  0  0  0  0  0  0
   49.9583   -6.3029   -4.1011 H   0  0  0  0  0  0  0  0  0  0  0  0
   46.1222   -6.5570   -1.4054 C   0  0  0  0  0  0  0  0  0  0  0  0
   44.8018   -6.1141   -1.6115 C   0  0  0  0  0  0  0  0  0  0  0  0
   43.7041   -6.9654   -1.4320 C   0  0  0  0  0  0  0  0  0  0  0  0
   43.8915   -8.2977   -1.0445 C   0  0  0  0  0  0  0  0  0  0  0  0
   45.1970   -8.7536   -0.8258 C   0  0  0  0  0  0  0  0  0  0  0  0
   46.2901   -7.8970   -1.0070 C   0  0  0  0  0  0  0  0  0  0  0  0
   42.7101   -9.2108   -0.8283 C   0  0  0  0  0  0  0  0  0  0  0  0
   42.7586  -10.3380   -1.5924 F   0  0  0  0  0  0  0  0  0  0  0  0
   42.5947   -9.6413    0.4593 F   0  0  0  0  0  0  0  0  0  0  0  0
   41.5273   -8.6069   -1.1281 F   0  0  0  0  0  0  0  0  0  0  0  0
  1  2  1  0
  2  3  2  0
  3  4  1  0
  4 13  1  0
 13 14  2  0
 14 15  1  0
 15 16  2  0
 16 19  1  0
 19 20  1  0
 19 21  1  0
 19 22  1  0
 16 17  1  0
 17 18  2  0
  4  5  2  0
  5  6  1  0
  6  7  2  0
  7  8  1  0
  8  9  1  0
  9 10  1  0
 10 11  1  0
  7  2  1  0
 18 13  1  0
 11  6  1  0
  1 12  1  0
M  END
> <minimizedAffinity>
-3.48831

> <CNNscore>
0.2873547673

> <CNNaffinity>
4.4366092682

> <CNN_VS>
1.2748807669

> <CNNaffinity_variance>
0.0710921586

$$$$



 22 24  0  0  0  0  0  0  0  0999 V2000
   32.7555   -9.4578   -1.8465 O   0  0  0  0  0  0  0  0  0  0  0  0
   31.8774  -10.4338   -2.1933 C   0  0  0  0  0  0  0  0  0  0  0  0
   32.3214  -11.6629   -1.9097 N   0  0  0  0  0  0  0  0  0  0  0  0
   31.4743  -12.6656   -2.2030 C   0  0  0  0  0  0  0  0  0  0  0  0
   30.2498  -12.4886   -2.7389 N   0  0  0  0  0  0  0  0  0  0  0  0
   29.8649  -11.2211   -3.0050 C   0  0  0  0  0  0  0  0  0  0  0  0
   30.6655  -10.1244   -2.7605 C   0  0  0  0  0  0  0  0  0  0  0  0
   30.2043   -8.7252   -2.9900 C   0  0  0  0  0  0  0  0  0  0  0  0
   29.2004   -8.4561   -4.4904 S   0  0  0  0  0  0  0  0  0  0  0  0
   28.5847  -10.1410   -4.8319 C   0  0  0  0  0  0  0  0  0  0  0  0
   28.4983  -11.0251   -3.5985 C   0  0  0  0  0  0  0  0  0  0  0  0
   33.5788   -9.6839   -1.4603 H   0  0  0  0  0  0  0  0  0  0  0  0
   31.9086  -14.0488   -1.9144 C   0  0  0  0  0  0  0  0  0  0  0  0
   31.0760  -14.9567   -1.2329 C   0  0  0  0  0  0  0  0  0  0  0  0
   31.4861  -16.2676   -0.9589 C   0  0  0  0  0  0  0  0  0  0  0  0
   32.7476  -16.7191   -1.3655 C   0  0  0  0  0  0  0  0  0  0  0  0
   33.5931  -15.8275   -2.0362 C   0  0  0  0  0  0  0  0  0  0  0  0
   33.1767  -14.5180   -2.3070 C   0  0  0  0  0  0  0  0  0  0  0  0
   33.2012  -18.1234   -1.0518 C   0  0  0  0  0  0  0  0  0  0  0  0
   32.4164  -19.0791   -1.6241 F   0  0  0  0  0  0  0  0  0  0  0  0
   34.4697  -18.3837   -1.4760 F   0  0  0  0  0  0  0  0  0  0  0  0
   33.1929  -18.3840    0.2845 F   0  0  0  0  0  0  0  0  0  0  0  0
  1  2  1  0
  2  3  2  0
  3  4  1  0
  4 13  1  0
 13 14  2  0
 14 15  1  0
 15 16  2  0
 16 19  1  0
 19 20  1  0
 19 21  1  0
 19 22  1  0
 16 17  1  0
 17 18  2  0
  4  5  2  0
  5  6  1  0
  6  7  2  0
  7  8  1  0
  8  9  1  0
  9 10  1  0
 10 11  1  0
  7  2  1  0
 18 13  1  0
 11  6  1  0
  1 12  1  0
M  END
> <minimizedAffinity>
-4.36566

> <CNNscore>
0.2823788822

> <CNNaffinity>
4.5741620064

> <CNN_VS>
1.2916467190

> <CNNaffinity_variance>
0.2207345814

$$$$
