


 28 31  0  0  0  0  0  0  0  0999 V2000
   41.8948   31.9539   31.6119 C   0  0  0  0  0  0  0  0  0  0  0  0
   42.1349   33.0096   32.5040 C   0  0  0  0  0  0  0  0  0  0  0  0
   43.3080   33.7626   32.4174 C   0  0  0  0  0  0  0  0  0  0  0  0
   44.2583   33.4685   31.4297 C   0  0  0  0  0  0  0  0  0  0  0  0
   44.0325   32.4233   30.5308 C   0  0  0  0  0  0  0  0  0  0  0  0
   45.1242   32.0381   29.2498 Cl  0  0  0  0  0  0  0  0  0  0  0  0
   42.8531   31.6750   30.6234 C   0  0  0  0  0  0  0  0  0  0  0  0
   39.2911   29.5797   32.9935 C   0  0  0  0  0  0  0  0  0  0  0  0
   38.3178   29.6303   31.9904 C   0  0  0  0  0  0  0  0  0  0  0  0
   38.5030   30.4268   30.8576 C   0  0  0  0  0  0  0  0  0  0  0  0
   39.6695   31.1905   30.6963 C   0  0  0  0  0  0  0  0  0  0  0  0
   39.8212   32.0341   29.4573 C   0  0  0  0  0  0  0  0  0  0  0  0
   40.6583   31.1645   31.7027 C   0  0  0  0  0  0  0  0  0  0  0  0
   40.4521   30.3520   32.8352 C   0  0  0  0  0  0  0  0  0  0  0  0
   37.1413   26.4280   35.9263 C   0  0  0  0  0  0  0  0  0  0  0  0
   38.1865   27.3649   35.4837 C   0  0  0  0  0  0  0  0  0  0  0  0
   39.3042   27.7203   36.0781 N   0  0  0  0  0  0  0  0  0  0  0  0
   39.9180   28.6244   35.2355 N   0  0  0  0  0  0  0  0  0  0  0  0
   39.1315   28.7568   34.1852 C   0  0  0  0  0  0  0  0  0  0  0  0
   38.0039   27.9792   34.2748 O   0  0  0  0  0  0  0  0  0  0  0  0
   45.4955   34.2763   31.3909 C   0  0  0  0  0  0  0  0  0  0  0  0
   45.5473   35.3656   31.9442 O   0  0  0  0  0  0  0  0  0  0  0  0
   46.5313   33.7086   30.6799 N   0  0  0  0  0  0  0  0  0  0  0  0
   46.3809   32.8785   30.1724 H   0  0  0  0  0  0  0  0  0  0  0  0
   47.8354   34.3273   30.6773 C   0  0  0  0  0  0  0  0  0  0  0  0
   48.5878   34.1402   31.9595 C   0  0  0  0  0  0  0  0  0  0  0  0
   49.7241   33.1575   32.1148 C   0  0  0  0  0  0  0  0  0  0  0  0
   48.4224   32.9213   32.8357 C   0  0  0  0  0  0  0  0  0  0  0  0
 15 16  1  0
 16 17  2  0
 17 18  1  0
 18 19  2  0
 19  8  1  0
  8  9  2  0
  9 10  1  0
 10 11  2  0
 11 12  1  0
 11 13  1  0
 13  1  1  0
  1  2  2  0
  2  3  1  0
  3  4  2  0
  4 21  1  0
 21 22  2  0
 21 23  1  0
 23 25  1  0
 25 26  1  0
 26 27  1  0
 27 28  1  0
  4  5  1  0
  5  6  1  0
  5  7  2  0
 13 14  2  0
 19 20  1  0
 20 16  1  0
 14  8  1  0
  7  1  1  0
 28 26  1  0
 23 24  1  0
M  END
> <minimizedAffinity>
-11.45573

> <CNNscore>
0.9728945494

> <CNNaffinity>
7.9127044678

> <CNN_VS>
7.6982269287

> <CNNaffinity_variance>
0.0070999693

$$$$



 28 31  0  0  0  0  0  0  0  0999 V2000
   42.1557   31.7538   31.3534 C   0  0  0  0  0  0  0  0  0  0  0  0
   43.0467   31.3211   30.3598 C   0  0  0  0  0  0  0  0  0  0  0  0
   44.2864   31.9428   30.1949 C   0  0  0  0  0  0  0  0  0  0  0  0
   44.6524   33.0086   31.0287 C   0  0  0  0  0  0  0  0  0  0  0  0
   43.7785   33.4488   32.0258 C   0  0  0  0  0  0  0  0  0  0  0  0
   44.1801   34.7130   33.1311 Cl  0  0  0  0  0  0  0  0  0  0  0  0
   42.5388   32.8186   32.1856 C   0  0  0  0  0  0  0  0  0  0  0  0
   39.4168   29.6557   32.9093 C   0  0  0  0  0  0  0  0  0  0  0  0
   38.3900   29.8110   31.9723 C   0  0  0  0  0  0  0  0  0  0  0  0
   38.5819   30.5890   30.8279 C   0  0  0  0  0  0  0  0  0  0  0  0
   39.8080   31.2287   30.5882 C   0  0  0  0  0  0  0  0  0  0  0  0
   39.9644   32.0574   29.3399 C   0  0  0  0  0  0  0  0  0  0  0  0
   40.8528   31.0962   31.5274 C   0  0  0  0  0  0  0  0  0  0  0  0
   40.6385   30.3044   32.6730 C   0  0  0  0  0  0  0  0  0  0  0  0
   37.2459   26.5541   35.8799 C   0  0  0  0  0  0  0  0  0  0  0  0
   38.2972   27.4788   35.4262 C   0  0  0  0  0  0  0  0  0  0  0  0
   39.4170   27.8343   36.0166 N   0  0  0  0  0  0  0  0  0  0  0  0
   40.0368   28.7240   35.1631 N   0  0  0  0  0  0  0  0  0  0  0  0
   39.2515   28.8485   34.1110 C   0  0  0  0  0  0  0  0  0  0  0  0
   38.1189   28.0793   34.2097 O   0  0  0  0  0  0  0  0  0  0  0  0
   45.9638   33.6517   30.8021 C   0  0  0  0  0  0  0  0  0  0  0  0
   46.2390   34.7146   31.3405 O   0  0  0  0  0  0  0  0  0  0  0  0
   46.7984   32.9695   29.9427 N   0  0  0  0  0  0  0  0  0  0  0  0
   46.4671   32.1753   29.4643 H   0  0  0  0  0  0  0  0  0  0  0  0
   48.1564   33.4157   29.7420 C   0  0  0  0  0  0  0  0  0  0  0  0
   48.8237   33.8826   30.9997 C   0  0  0  0  0  0  0  0  0  0  0  0
   50.2988   34.1955   31.0851 C   0  0  0  0  0  0  0  0  0  0  0  0
   49.7401   33.0023   31.8158 C   0  0  0  0  0  0  0  0  0  0  0  0
 15 16  1  0
 16 17  2  0
 17 18  1  0
 18 19  2  0
 19  8  1  0
  8  9  2  0
  9 10  1  0
 10 11  2  0
 11 12  1  0
 11 13  1  0
 13  1  1  0
  1  2  2  0
  2  3  1  0
  3  4  2  0
  4 21  1  0
 21 22  2  0
 21 23  1  0
 23 25  1  0
 25 26  1  0
 26 27  1  0
 27 28  1  0
  4  5  1  0
  5  6  1  0
  5  7  2  0
 13 14  2  0
 19 20  1  0
 20 16  1  0
 14  8  1  0
  7  1  1  0
 28 26  1  0
 23 24  1  0
M  END
> <minimizedAffinity>
-11.34908

> <CNNscore>
0.9103462696

> <CNNaffinity>
7.7469711304

> <CNN_VS>
7.0524263382

> <CNNaffinity_variance>
0.0030431033

$$$$



 28 31  0  0  0  0  0  0  0  0999 V2000
   41.6759   31.2963   31.1599 C   0  0  0  0  0  0  0  0  0  0  0  0
   42.5960   30.8044   30.2219 C   0  0  0  0  0  0  0  0  0  0  0  0
   43.8647   31.3758   30.1013 C   0  0  0  0  0  0  0  0  0  0  0  0
   44.2307   32.4499   30.9244 C   0  0  0  0  0  0  0  0  0  0  0  0
   43.3278   32.9487   31.8665 C   0  0  0  0  0  0  0  0  0  0  0  0
   43.7240   34.2272   32.9572 Cl  0  0  0  0  0  0  0  0  0  0  0  0
   42.0591   32.3688   31.9822 C   0  0  0  0  0  0  0  0  0  0  0  0
   38.9273   28.9750   32.3350 C   0  0  0  0  0  0  0  0  0  0  0  0
   37.8295   29.4725   31.6254 C   0  0  0  0  0  0  0  0  0  0  0  0
   37.9752   30.5568   30.7565 C   0  0  0  0  0  0  0  0  0  0  0  0
   39.2244   31.1692   30.5711 C   0  0  0  0  0  0  0  0  0  0  0  0
   39.3291   32.3361   29.6239 C   0  0  0  0  0  0  0  0  0  0  0  0
   40.3424   30.6916   31.2875 C   0  0  0  0  0  0  0  0  0  0  0  0
   40.1732   29.5952   32.1561 C   0  0  0  0  0  0  0  0  0  0  0  0
   37.5510   26.6250   36.3024 C   0  0  0  0  0  0  0  0  0  0  0  0
   38.2052   26.8011   34.9959 C   0  0  0  0  0  0  0  0  0  0  0  0
   38.8886   25.9402   34.2744 N   0  0  0  0  0  0  0  0  0  0  0  0
   39.2826   26.6167   33.1381 N   0  0  0  0  0  0  0  0  0  0  0  0
   38.8110   27.8436   33.2458 C   0  0  0  0  0  0  0  0  0  0  0  0
   38.1096   28.0341   34.4103 O   0  0  0  0  0  0  0  0  0  0  0  0
   45.5747   33.0383   30.7451 C   0  0  0  0  0  0  0  0  0  0  0  0
   46.2315   32.8004   29.7414 O   0  0  0  0  0  0  0  0  0  0  0  0
   45.9999   33.8307   31.7901 N   0  0  0  0  0  0  0  0  0  0  0  0
   45.4610   33.8898   32.6119 H   0  0  0  0  0  0  0  0  0  0  0  0
   47.2327   34.5740   31.6832 C   0  0  0  0  0  0  0  0  0  0  0  0
   48.2683   34.1601   32.6838 C   0  0  0  0  0  0  0  0  0  0  0  0
   49.3700   33.1748   32.3731 C   0  0  0  0  0  0  0  0  0  0  0  0
   48.2763   32.7994   33.3390 C   0  0  0  0  0  0  0  0  0  0  0  0
 15 16  1  0
 16 17  2  0
 17 18  1  0
 18 19  2  0
 19  8  1  0
  8  9  2  0
  9 10  1  0
 10 11  2  0
 11 12  1  0
 11 13  1  0
 13  1  1  0
  1  2  2  0
  2  3  1  0
  3  4  2  0
  4 21  1  0
 21 22  2  0
 21 23  1  0
 23 25  1  0
 25 26  1  0
 26 27  1  0
 27 28  1  0
  4  5  1  0
  5  6  1  0
  5  7  2  0
 13 14  2  0
 19 20  1  0
 20 16  1  0
 14  8  1  0
  7  1  1  0
 28 26  1  0
 23 24  1  0
M  END
> <minimizedAffinity>
-11.39890

> <CNNscore>
0.7823674083

> <CNNaffinity>
7.4696373940

> <CNN_VS>
5.8440008163

> <CNNaffinity_variance>
0.0796500295

$$$$



 28 31  0  0  0  0  0  0  0  0999 V2000
   41.9514   31.3729   31.2181 C   0  0  0  0  0  0  0  0  0  0  0  0
   42.8798   30.9160   30.2707 C   0  0  0  0  0  0  0  0  0  0  0  0
   44.1339   31.5194   30.1539 C   0  0  0  0  0  0  0  0  0  0  0  0
   44.4768   32.5909   30.9902 C   0  0  0  0  0  0  0  0  0  0  0  0
   43.5653   33.0552   31.9417 C   0  0  0  0  0  0  0  0  0  0  0  0
   43.9343   34.3281   33.0483 Cl  0  0  0  0  0  0  0  0  0  0  0  0
   42.3113   32.4432   32.0535 C   0  0  0  0  0  0  0  0  0  0  0  0
   39.2579   28.9854   32.3886 C   0  0  0  0  0  0  0  0  0  0  0  0
   38.1510   29.4522   31.6723 C   0  0  0  0  0  0  0  0  0  0  0  0
   38.2728   30.5370   30.8004 C   0  0  0  0  0  0  0  0  0  0  0  0
   39.5067   31.1808   30.6186 C   0  0  0  0  0  0  0  0  0  0  0  0
   39.5857   32.3469   29.6678 C   0  0  0  0  0  0  0  0  0  0  0  0
   40.6332   30.7345   31.3416 C   0  0  0  0  0  0  0  0  0  0  0  0
   40.4884   29.6369   32.2132 C   0  0  0  0  0  0  0  0  0  0  0  0
   39.5585   24.3829   33.7607 C   0  0  0  0  0  0  0  0  0  0  0  0
   39.2984   25.8233   33.9139 C   0  0  0  0  0  0  0  0  0  0  0  0
   38.8964   26.4981   34.9683 N   0  0  0  0  0  0  0  0  0  0  0  0
   38.8103   27.8171   34.5719 N   0  0  0  0  0  0  0  0  0  0  0  0
   39.1666   27.8545   33.3027 C   0  0  0  0  0  0  0  0  0  0  0  0
   39.4936   26.6140   32.8144 O   0  0  0  0  0  0  0  0  0  0  0  0
   45.8056   33.2140   30.8147 C   0  0  0  0  0  0  0  0  0  0  0  0
   46.2024   34.0679   31.5949 O   0  0  0  0  0  0  0  0  0  0  0  0
   46.5101   32.7673   29.7171 N   0  0  0  0  0  0  0  0  0  0  0  0
   46.0820   32.1564   29.0747 H   0  0  0  0  0  0  0  0  0  0  0  0
   47.8734   33.1925   29.5068 C   0  0  0  0  0  0  0  0  0  0  0  0
   47.9860   34.5192   28.8196 C   0  0  0  0  0  0  0  0  0  0  0  0
   49.2688   35.0235   28.2021 C   0  0  0  0  0  0  0  0  0  0  0  0
   48.7088   35.6977   29.4276 C   0  0  0  0  0  0  0  0  0  0  0  0
 15 16  1  0
 16 17  2  0
 17 18  1  0
 18 19  2  0
 19  8  1  0
  8  9  2  0
  9 10  1  0
 10 11  2  0
 11 12  1  0
 11 13  1  0
 13  1  1  0
  1  2  2  0
  2  3  1  0
  3  4  2  0
  4 21  1  0
 21 22  2  0
 21 23  1  0
 23 25  1  0
 25 26  1  0
 26 27  1  0
 27 28  1  0
  4  5  1  0
  5  6  1  0
  5  7  2  0
 13 14  2  0
 19 20  1  0
 20 16  1  0
 14  8  1  0
  7  1  1  0
 28 26  1  0
 23 24  1  0
M  END
> <minimizedAffinity>
-10.89480

> <CNNscore>
0.7078109384

> <CNNaffinity>
7.3571925163

> <CNN_VS>
5.2075014114

> <CNNaffinity_variance>
0.1181120574

$$$$



 28 31  0  0  0  0  0  0  0  0999 V2000
   43.8678   32.0415   31.4708 C   0  0  0  0  0  0  0  0  0  0  0  0
   43.8187   30.9336   32.3301 C   0  0  0  0  0  0  0  0  0  0  0  0
   42.6788   30.1288   32.3904 C   0  0  0  0  0  0  0  0  0  0  0  0
   41.5698   30.4230   31.5850 C   0  0  0  0  0  0  0  0  0  0  0  0
   41.6042   31.5200   30.7207 C   0  0  0  0  0  0  0  0  0  0  0  0
   40.3045   31.9122   29.6538 Cl  0  0  0  0  0  0  0  0  0  0  0  0
   42.7515   32.3201   30.6650 C   0  0  0  0  0  0  0  0  0  0  0  0
   47.2786   33.2878   30.4042 C   0  0  0  0  0  0  0  0  0  0  0  0
   47.4034   34.4407   31.1861 C   0  0  0  0  0  0  0  0  0  0  0  0
   46.3876   34.8160   32.0688 C   0  0  0  0  0  0  0  0  0  0  0  0
   45.2217   34.0450   32.1959 C   0  0  0  0  0  0  0  0  0  0  0  0
   44.1550   34.4928   33.1609 C   0  0  0  0  0  0  0  0  0  0  0  0
   45.0695   32.8853   31.4065 C   0  0  0  0  0  0  0  0  0  0  0  0
   46.1077   32.5239   30.5251 C   0  0  0  0  0  0  0  0  0  0  0  0
   51.7729   32.5092   28.8707 C   0  0  0  0  0  0  0  0  0  0  0  0
   50.3032   32.5193   28.7952 C   0  0  0  0  0  0  0  0  0  0  0  0
   49.5081   32.1302   27.8230 N   0  0  0  0  0  0  0  0  0  0  0  0
   48.2204   32.3553   28.2650 N   0  0  0  0  0  0  0  0  0  0  0  0
   48.3203   32.8657   29.4769 C   0  0  0  0  0  0  0  0  0  0  0  0
   49.6249   32.9988   29.8825 O   0  0  0  0  0  0  0  0  0  0  0  0
   40.3766   29.5581   31.6996 C   0  0  0  0  0  0  0  0  0  0  0  0
   39.5285   29.5449   30.8188 O   0  0  0  0  0  0  0  0  0  0  0  0
   40.3124   28.8173   32.8605 N   0  0  0  0  0  0  0  0  0  0  0  0
   40.9782   28.9605   33.5714 H   0  0  0  0  0  0  0  0  0  0  0  0
   39.2720   27.8324   33.0371 C   0  0  0  0  0  0  0  0  0  0  0  0
   39.2841   27.1867   34.3891 C   0  0  0  0  0  0  0  0  0  0  0  0
   38.0273   26.7828   35.1230 C   0  0  0  0  0  0  0  0  0  0  0  0
   38.8733   27.9137   35.6475 C   0  0  0  0  0  0  0  0  0  0  0  0
 15 16  1  0
 16 17  2  0
 17 18  1  0
 18 19  2  0
 19  8  1  0
  8  9  2  0
  9 10  1  0
 10 11  2  0
 11 12  1  0
 11 13  1  0
 13  1  1  0
  1  2  2  0
  2  3  1  0
  3  4  2  0
  4 21  1  0
 21 22  2  0
 21 23  1  0
 23 25  1  0
 25 26  1  0
 26 27  1  0
 27 28  1  0
  4  5  1  0
  5  6  1  0
  5  7  2  0
 13 14  2  0
 19 20  1  0
 20 16  1  0
 14  8  1  0
  7  1  1  0
 28 26  1  0
 23 24  1  0
M  END
> <minimizedAffinity>
-9.57265

> <CNNscore>
0.5825965405

> <CNNaffinity>
6.9234452248

> <CNN_VS>
4.0335750580

> <CNNaffinity_variance>
0.0806711167

$$$$



 28 31  0  0  0  0  0  0  0  0999 V2000
   48.6154   33.5796   29.4817 C   0  0  0  0  0  0  0  0  0  0  0  0
   48.4449   34.3957   30.6100 C   0  0  0  0  0  0  0  0  0  0  0  0
   47.2028   34.4870   31.2420 C   0  0  0  0  0  0  0  0  0  0  0  0
   46.1115   33.7565   30.7517 C   0  0  0  0  0  0  0  0  0  0  0  0
   46.2655   32.9358   29.6317 C   0  0  0  0  0  0  0  0  0  0  0  0
   44.9876   31.9588   29.0043 Cl  0  0  0  0  0  0  0  0  0  0  0  0
   47.5145   32.8485   29.0056 C   0  0  0  0  0  0  0  0  0  0  0  0
   51.2591   33.8394   26.7859 C   0  0  0  0  0  0  0  0  0  0  0  0
   52.3856   33.3612   27.4630 C   0  0  0  0  0  0  0  0  0  0  0  0
   52.2934   32.9444   28.7933 C   0  0  0  0  0  0  0  0  0  0  0  0
   51.0702   32.9907   29.4801 C   0  0  0  0  0  0  0  0  0  0  0  0
   51.0231   32.5310   30.9140 C   0  0  0  0  0  0  0  0  0  0  0  0
   49.9241   33.4824   28.8198 C   0  0  0  0  0  0  0  0  0  0  0  0
   50.0393   33.8945   27.4774 C   0  0  0  0  0  0  0  0  0  0  0  0
   51.4902   33.3421   22.0051 C   0  0  0  0  0  0  0  0  0  0  0  0
   51.4209   34.0639   23.2858 C   0  0  0  0  0  0  0  0  0  0  0  0
   51.3936   35.3570   23.5222 N   0  0  0  0  0  0  0  0  0  0  0  0
   51.3281   35.4967   24.8935 N   0  0  0  0  0  0  0  0  0  0  0  0
   51.3195   34.2781   25.3978 C   0  0  0  0  0  0  0  0  0  0  0  0
   51.3761   33.3097   24.4266 O   0  0  0  0  0  0  0  0  0  0  0  0
   44.8105   33.9026   31.4379 C   0  0  0  0  0  0  0  0  0  0  0  0
   44.4959   34.9626   31.9600 O   0  0  0  0  0  0  0  0  0  0  0  0
   44.0331   32.7641   31.4457 N   0  0  0  0  0  0  0  0  0  0  0  0
   44.3981   31.9183   31.0982 H   0  0  0  0  0  0  0  0  0  0  0  0
   42.6857   32.8080   31.9616 C   0  0  0  0  0  0  0  0  0  0  0  0
   41.8847   31.5819   31.6451 C   0  0  0  0  0  0  0  0  0  0  0  0
   42.4900   30.3281   31.0596 C   0  0  0  0  0  0  0  0  0  0  0  0
   41.5487   31.1651   30.2330 C   0  0  0  0  0  0  0  0  0  0  0  0
 15 16  1  0
 16 17  2  0
 17 18  1  0
 18 19  2  0
 19  8  1  0
  8  9  2  0
  9 10  1  0
 10 11  2  0
 11 12  1  0
 11 13  1  0
 13  1  1  0
  1  2  2  0
  2  3  1  0
  3  4  2  0
  4 21  1  0
 21 22  2  0
 21 23  1  0
 23 25  1  0
 25 26  1  0
 26 27  1  0
 27 28  1  0
  4  5  1  0
  5  6  1  0
  5  7  2  0
 13 14  2  0
 19 20  1  0
 20 16  1  0
 14  8  1  0
  7  1  1  0
 28 26  1  0
 23 24  1  0
M  END
> <minimizedAffinity>
-7.42604

> <CNNscore>
0.5259570479

> <CNNaffinity>
6.8825888634

> <CNN_VS>
3.6199460030

> <CNNaffinity_variance>
0.1295275986

$$$$



 28 31  0  0  0  0  0  0  0  0999 V2000
   50.5567   21.7262   28.6120 C   0  0  0  0  0  0  0  0  0  0  0  0
   51.5528   20.7430   28.7079 C   0  0  0  0  0  0  0  0  0  0  0  0
   52.6387   20.7411   27.8295 C   0  0  0  0  0  0  0  0  0  0  0  0
   52.7427   21.7300   26.8415 C   0  0  0  0  0  0  0  0  0  0  0  0
   51.7615   22.7188   26.7353 C   0  0  0  0  0  0  0  0  0  0  0  0
   51.8489   24.0047   25.5865 Cl  0  0  0  0  0  0  0  0  0  0  0  0
   50.6776   22.7145   27.6212 C   0  0  0  0  0  0  0  0  0  0  0  0
   47.0460   21.1992   29.9241 C   0  0  0  0  0  0  0  0  0  0  0  0
   47.1737   21.6648   31.2368 C   0  0  0  0  0  0  0  0  0  0  0  0
   48.3949   22.1594   31.7013 C   0  0  0  0  0  0  0  0  0  0  0  0
   49.5198   22.2056   30.8632 C   0  0  0  0  0  0  0  0  0  0  0  0
   50.8142   22.7470   31.4120 C   0  0  0  0  0  0  0  0  0  0  0  0
   49.4163   21.7284   29.5393 C   0  0  0  0  0  0  0  0  0  0  0  0
   48.1744   21.2366   29.0908 C   0  0  0  0  0  0  0  0  0  0  0  0
   44.1902   18.5649   27.0848 C   0  0  0  0  0  0  0  0  0  0  0  0
   44.5209   19.5188   28.1556 C   0  0  0  0  0  0  0  0  0  0  0  0
   43.7261   20.1842   28.9645 N   0  0  0  0  0  0  0  0  0  0  0  0
   44.5474   20.9391   29.7767 N   0  0  0  0  0  0  0  0  0  0  0  0
   45.7865   20.6807   29.4065 C   0  0  0  0  0  0  0  0  0  0  0  0
   45.8465   19.7788   28.3735 O   0  0  0  0  0  0  0  0  0  0  0  0
   53.8962   21.6745   25.9190 C   0  0  0  0  0  0  0  0  0  0  0  0
   55.0212   21.9534   26.3089 O   0  0  0  0  0  0  0  0  0  0  0  0
   53.5823   21.3122   24.6264 N   0  0  0  0  0  0  0  0  0  0  0  0
   52.6400   21.2063   24.3616 H   0  0  0  0  0  0  0  0  0  0  0  0
   54.6308   21.0875   23.6600 C   0  0  0  0  0  0  0  0  0  0  0  0
   54.9812   19.6413   23.4844 C   0  0  0  0  0  0  0  0  0  0  0  0
   54.8809   18.9219   22.1601 C   0  0  0  0  0  0  0  0  0  0  0  0
   53.9408   18.5653   23.2822 C   0  0  0  0  0  0  0  0  0  0  0  0
 15 16  1  0
 16 17  2  0
 17 18  1  0
 18 19  2  0
 19  8  1  0
  8  9  2  0
  9 10  1  0
 10 11  2  0
 11 12  1  0
 11 13  1  0
 13  1  1  0
  1  2  2  0
  2  3  1  0
  3  4  2  0
  4 21  1  0
 21 22  2  0
 21 23  1  0
 23 25  1  0
 25 26  1  0
 26 27  1  0
 27 28  1  0
  4  5  1  0
  5  6  1  0
  5  7  2  0
 13 14  2  0
 19 20  1  0
 20 16  1  0
 14  8  1  0
  7  1  1  0
 28 26  1  0
 23 24  1  0
M  END
> <minimizedAffinity>
-2.54355

> <CNNscore>
0.3516719937

> <CNNaffinity>
4.4629688263

> <CNN_VS>
1.5695011616

> <CNNaffinity_variance>
0.3729641140

$$$$



 28 31  0  0  0  0  0  0  0  0999 V2000
   46.0242   33.1484   30.5346 C   0  0  0  0  0  0  0  0  0  0  0  0
   45.6929   32.2343   29.5232 C   0  0  0  0  0  0  0  0  0  0  0  0
   44.4165   31.6704   29.4628 C   0  0  0  0  0  0  0  0  0  0  0  0
   43.4506   32.0186   30.4171 C   0  0  0  0  0  0  0  0  0  0  0  0
   43.7631   32.9307   31.4282 C   0  0  0  0  0  0  0  0  0  0  0  0
   42.6121   33.4566   32.6029 Cl  0  0  0  0  0  0  0  0  0  0  0  0
   45.0440   33.4927   31.4800 C   0  0  0  0  0  0  0  0  0  0  0  0
   49.0839   35.1204   29.4982 C   0  0  0  0  0  0  0  0  0  0  0  0
   49.9099   34.9464   30.6134 C   0  0  0  0  0  0  0  0  0  0  0  0
   49.4838   34.1829   31.7031 C   0  0  0  0  0  0  0  0  0  0  0  0
   48.2215   33.5693   31.7039 C   0  0  0  0  0  0  0  0  0  0  0  0
   47.8082   32.7572   32.9036 C   0  0  0  0  0  0  0  0  0  0  0  0
   47.3669   33.7431   30.5946 C   0  0  0  0  0  0  0  0  0  0  0  0
   47.8181   34.5146   29.5053 C   0  0  0  0  0  0  0  0  0  0  0  0
   48.9240   38.7471   26.3394 C   0  0  0  0  0  0  0  0  0  0  0  0
   49.4327   37.5067   26.9465 C   0  0  0  0  0  0  0  0  0  0  0  0
   50.4446   36.7477   26.5874 N   0  0  0  0  0  0  0  0  0  0  0  0
   50.4876   35.7085   27.4942 N   0  0  0  0  0  0  0  0  0  0  0  0
   49.4986   35.9067   28.3438 C   0  0  0  0  0  0  0  0  0  0  0  0
   48.7804   37.0403   28.0553 O   0  0  0  0  0  0  0  0  0  0  0  0
   42.1211   31.3789   30.3282 C   0  0  0  0  0  0  0  0  0  0  0  0
   41.2427   31.8600   29.6266 O   0  0  0  0  0  0  0  0  0  0  0  0
   41.9749   30.2462   31.1003 N   0  0  0  0  0  0  0  0  0  0  0  0
   42.6909   29.9798   31.7212 H   0  0  0  0  0  0  0  0  0  0  0  0
   40.7752   29.4495   31.0013 C   0  0  0  0  0  0  0  0  0  0  0  0
   39.6067   30.0360   31.7332 C   0  0  0  0  0  0  0  0  0  0  0  0
   38.4380   29.2119   32.2191 C   0  0  0  0  0  0  0  0  0  0  0  0
   38.2452   30.2037   31.1015 C   0  0  0  0  0  0  0  0  0  0  0  0
 15 16  1  0
 16 17  2  0
 17 18  1  0
 18 19  2  0
 19  8  1  0
  8  9  2  0
  9 10  1  0
 10 11  2  0
 11 12  1  0
 11 13  1  0
 13  1  1  0
  1  2  2  0
  2  3  1  0
  3  4  2  0
  4 21  1  0
 21 22  2  0
 21 23  1  0
 23 25  1  0
 25 26  1  0
 26 27  1  0
 27 28  1  0
  4  5  1  0
  5  6  1  0
  5  7  2  0
 13 14  2  0
 19 20  1  0
 20 16  1  0
 14  8  1  0
  7  1  1  0
 28 26  1  0
 23 24  1  0
M  END
> <minimizedAffinity>
-9.31490

> <CNNscore>
0.3302420974

> <CNNaffinity>
6.5855021477

> <CNN_VS>
2.1748099327

> <CNNaffinity_variance>
0.0629567578

$$$$



 28 31  0  0  0  0  0  0  0  0999 V2000
   45.8773   33.4551   31.3803 C   0  0  0  0  0  0  0  0  0  0  0  0
   45.0261   34.1685   32.2375 C   0  0  0  0  0  0  0  0  0  0  0  0
   43.6839   33.8063   32.3719 C   0  0  0  0  0  0  0  0  0  0  0  0
   43.1757   32.7185   31.6486 C   0  0  0  0  0  0  0  0  0  0  0  0
   44.0111   31.9949   30.7940 C   0  0  0  0  0  0  0  0  0  0  0  0
   43.4769   30.6071   29.9166 Cl  0  0  0  0  0  0  0  0  0  0  0  0
   45.3556   32.3634   30.6669 C   0  0  0  0  0  0  0  0  0  0  0  0
   49.0072   35.0299   29.9492 C   0  0  0  0  0  0  0  0  0  0  0  0
   49.9632   34.6407   30.8930 C   0  0  0  0  0  0  0  0  0  0  0  0
   49.6010   33.8595   31.9931 C   0  0  0  0  0  0  0  0  0  0  0  0
   48.2731   33.4430   32.1757 C   0  0  0  0  0  0  0  0  0  0  0  0
   47.9332   32.6026   33.3790 C   0  0  0  0  0  0  0  0  0  0  0  0
   47.2902   33.8358   31.2426 C   0  0  0  0  0  0  0  0  0  0  0  0
   47.6783   34.6212   30.1390 C   0  0  0  0  0  0  0  0  0  0  0  0
   51.2587   36.1239   25.8394 C   0  0  0  0  0  0  0  0  0  0  0  0
   50.3428   36.3285   26.9731 C   0  0  0  0  0  0  0  0  0  0  0  0
   49.5576   37.3469   27.2470 N   0  0  0  0  0  0  0  0  0  0  0  0
   48.9140   37.0309   28.4261 N   0  0  0  0  0  0  0  0  0  0  0  0
   49.3516   35.8408   28.7887 C   0  0  0  0  0  0  0  0  0  0  0  0
   50.2688   35.3292   27.9049 O   0  0  0  0  0  0  0  0  0  0  0  0
   41.7438   32.3864   31.8040 C   0  0  0  0  0  0  0  0  0  0  0  0
   41.2088   32.4297   32.9028 O   0  0  0  0  0  0  0  0  0  0  0  0
   41.1083   32.0191   30.6370 N   0  0  0  0  0  0  0  0  0  0  0  0
   41.6295   31.9044   29.8097 H   0  0  0  0  0  0  0  0  0  0  0  0
   39.6813   31.8022   30.6242 C   0  0  0  0  0  0  0  0  0  0  0  0
   39.2873   30.3996   30.9742 C   0  0  0  0  0  0  0  0  0  0  0  0
   37.8515   29.9340   31.0289 C   0  0  0  0  0  0  0  0  0  0  0  0
   38.6588   30.0314   32.2972 C   0  0  0  0  0  0  0  0  0  0  0  0
 15 16  1  0
 16 17  2  0
 17 18  1  0
 18 19  2  0
 19  8  1  0
  8  9  2  0
  9 10  1  0
 10 11  2  0
 11 12  1  0
 11 13  1  0
 13  1  1  0
  1  2  2  0
  2  3  1  0
  3  4  2  0
  4 21  1  0
 21 22  2  0
 21 23  1  0
 23 25  1  0
 25 26  1  0
 26 27  1  0
 27 28  1  0
  4  5  1  0
  5  6  1  0
  5  7  2  0
 13 14  2  0
 19 20  1  0
 20 16  1  0
 14  8  1  0
  7  1  1  0
 28 26  1  0
 23 24  1  0
M  END
> <minimizedAffinity>
-9.15456

> <CNNscore>
0.3162236512

> <CNNaffinity>
6.8685874939

> <CNN_VS>
2.1720097065

> <CNNaffinity_variance>
0.0328082442

$$$$
