


 34 36  0  0  0  0  0  0  0  0999 V2000
   38.5086    5.1655   17.8320 C   0  0  0  0  0  0  0  0  0  0  0  0
   38.4968    4.3044   16.6631 O   0  0  0  0  0  0  0  0  0  0  0  0
   39.8399    4.2341   16.1390 C   0  0  0  0  0  0  0  0  0  0  0  0
   40.7550    4.6008   17.3017 C   0  0  0  0  0  0  0  0  0  0  0  0
   42.0248    5.1032   16.9004 O   0  0  0  0  0  0  0  0  0  0  0  0
   39.9423    5.6886   17.9845 C   0  0  0  0  0  0  0  0  0  0  0  0
   40.1162    6.9234   17.2668 O   0  0  0  0  0  0  0  0  0  0  0  0
   41.9007    5.8828   16.3369 H   0  0  0  0  0  0  0  0  0  0  0  0
   39.8800    6.7919   16.3353 H   0  0  0  0  0  0  0  0  0  0  0  0
   35.8174    3.0169   22.8081 N   0  0  0  0  0  0  0  0  0  0  0  0
   36.0442    3.9628   21.8176 C   0  0  0  0  0  0  0  0  0  0  0  0
   35.3523    5.1240   21.8706 N   0  0  0  0  0  0  0  0  0  0  0  0
   35.5676    6.0440   20.9048 C   0  0  0  0  0  0  0  0  0  0  0  0
   36.4217    5.9799   19.8631 N   0  0  0  0  0  0  0  0  0  0  0  0
   37.0899    4.8160   19.8642 C   0  0  0  0  0  0  0  0  0  0  0  0
   36.9727    3.7824   20.7785 C   0  0  0  0  0  0  0  0  0  0  0  0
   37.8419    2.7564   20.4698 N   0  0  0  0  0  0  0  0  0  0  0  0
   38.4467    3.1484   19.3667 C   0  0  0  0  0  0  0  0  0  0  0  0
   38.0459    4.3998   18.9769 N   0  0  0  0  0  0  0  0  0  0  0  0
   35.1547    3.1932   23.5145 H   0  0  0  0  0  0  0  0  0  0  0  0
   36.3192    2.1700   22.8042 H   0  0  0  0  0  0  0  0  0  0  0  0
   40.1169    2.8351   15.5967 C   0  0  0  0  0  0  0  0  0  0  0  0
   39.6324    2.7390   14.2648 O   0  0  0  0  0  0  0  0  0  0  0  0
   39.2224    1.2710   13.7570 P   0  0  0  0  0  0  0  0  0  0  0  0
   39.7891    0.8801   12.4347 O   0  0  0  0  0  0  0  0  0  0  0  0
   39.7024    0.3367   14.9679 O   0  0  0  0  0  0  0  0  0  0  0  0
   40.6706    0.2785   14.9672 H   0  0  0  0  0  0  0  0  0  0  0  0
   37.6416    1.2586   13.9018 O   0  0  0  0  0  0  0  0  0  0  0  0
   36.7045    1.8102   12.7540 P   0  0  0  0  0  0  0  0  0  0  0  0
   36.4177    0.9328   11.5898 O   0  0  0  0  0  0  0  0  0  0  0  0
   35.4010    2.3439   13.5172 O   0  0  0  0  0  0  0  0  0  0  0  0
   37.3982    3.1870   12.3368 O   0  0  0  0  0  0  0  0  0  0  0  0
   34.8778    1.5893   13.8300 H   0  0  0  0  0  0  0  0  0  0  0  0
   38.2195    3.0021   11.8549 H   0  0  0  0  0  0  0  0  0  0  0  0
 10 11  1  0
 11 12  2  0
 12 13  1  0
 13 14  2  0
 14 15  1  0
 15 16  2  0
 16 17  1  0
 17 18  2  0
 18 19  1  0
  1 19  1  0
  1  2  1  0
  2  3  1  0
  3 22  1  0
 22 23  1  0
 23 24  1  0
 24 25  2  0
 24 26  1  0
 24 28  1  0
 28 29  1  0
 29 30  2  0
 29 31  1  0
 29 32  1  0
  3  4  1  0
  4  5  1  0
  4  6  1  0
  6  7  1  0
 16 11  1  0
  6  1  1  0
 19 15  1  0
 10 20  1  0
 10 21  1  0
 26 27  1  0
 31 33  1  0
 32 34  1  0
  5  8  1  0
  7  9  1  0
M  END
> <minimizedAffinity>
-7.17836

> <CNNscore>
0.9074764848

> <CNNaffinity>
4.7754211426

> <CNN_VS>
4.3335824013

> <CNNaffinity_variance>
0.2720919847

$$$$



 34 36  0  0  0  0  0  0  0  0999 V2000
   38.2204    5.5319   17.7496 C   0  0  0  0  0  0  0  0  0  0  0  0
   37.8922    4.8150   16.5306 O   0  0  0  0  0  0  0  0  0  0  0  0
   39.1031    4.6492   15.7628 C   0  0  0  0  0  0  0  0  0  0  0  0
   40.2456    4.7744   16.7642 C   0  0  0  0  0  0  0  0  0  0  0  0
   41.4830    5.1685   16.1817 O   0  0  0  0  0  0  0  0  0  0  0  0
   39.7159    5.8651   17.6807 C   0  0  0  0  0  0  0  0  0  0  0  0
   39.9275    7.1443   17.0572 O   0  0  0  0  0  0  0  0  0  0  0  0
   41.3694    6.0157   15.7233 H   0  0  0  0  0  0  0  0  0  0  0  0
   39.5190    7.1468   16.1774 H   0  0  0  0  0  0  0  0  0  0  0  0
   35.9146    3.0513   22.7648 N   0  0  0  0  0  0  0  0  0  0  0  0
   36.0323    4.0415   21.7988 C   0  0  0  0  0  0  0  0  0  0  0  0
   35.2701    5.1520   21.9241 N   0  0  0  0  0  0  0  0  0  0  0  0
   35.3791    6.1148   20.9824 C   0  0  0  0  0  0  0  0  0  0  0  0
   36.1848    6.1408   19.9013 N   0  0  0  0  0  0  0  0  0  0  0  0
   36.9260    5.0243   19.8309 C   0  0  0  0  0  0  0  0  0  0  0  0
   36.9197    3.9564   20.7127 C   0  0  0  0  0  0  0  0  0  0  0  0
   37.8376    3.0006   20.3288 N   0  0  0  0  0  0  0  0  0  0  0  0
   38.3624    3.4669   19.2137 C   0  0  0  0  0  0  0  0  0  0  0  0
   37.8634    4.7009   18.8868 N   0  0  0  0  0  0  0  0  0  0  0  0
   35.2765    3.1606   23.5064 H   0  0  0  0  0  0  0  0  0  0  0  0
   36.4694    2.2400   22.7082 H   0  0  0  0  0  0  0  0  0  0  0  0
   39.0925    3.2976   15.0550 C   0  0  0  0  0  0  0  0  0  0  0  0
   40.1652    3.2414   14.1253 O   0  0  0  0  0  0  0  0  0  0  0  0
   39.8154    3.6271   12.6055 P   0  0  0  0  0  0  0  0  0  0  0  0
   38.3623    3.6224   12.2723 O   0  0  0  0  0  0  0  0  0  0  0  0
   40.5119    5.0615   12.4409 O   0  0  0  0  0  0  0  0  0  0  0  0
   40.0033    5.7261   12.9314 H   0  0  0  0  0  0  0  0  0  0  0  0
   40.7582    2.6732   11.7564 O   0  0  0  0  0  0  0  0  0  0  0  0
   41.8122    3.2556   10.7317 P   0  0  0  0  0  0  0  0  0  0  0  0
   41.3431    4.2195    9.7030 O   0  0  0  0  0  0  0  0  0  0  0  0
   43.0107    3.7960   11.6472 O   0  0  0  0  0  0  0  0  0  0  0  0
   42.4775    1.9486   10.0992 O   0  0  0  0  0  0  0  0  0  0  0  0
   42.7315    4.6075   12.0994 H   0  0  0  0  0  0  0  0  0  0  0  0
   41.8412    1.5152    9.5091 H   0  0  0  0  0  0  0  0  0  0  0  0
 10 11  1  0
 11 12  2  0
 12 13  1  0
 13 14  2  0
 14 15  1  0
 15 16  2  0
 16 17  1  0
 17 18  2  0
 18 19  1  0
  1 19  1  0
  1  2  1  0
  2  3  1  0
  3 22  1  0
 22 23  1  0
 23 24  1  0
 24 25  2  0
 24 26  1  0
 24 28  1  0
 28 29  1  0
 29 30  2  0
 29 31  1  0
 29 32  1  0
  3  4  1  0
  4  5  1  0
  4  6  1  0
  6  7  1  0
 16 11  1  0
  6  1  1  0
 19 15  1  0
 10 20  1  0
 10 21  1  0
 26 27  1  0
 31 33  1  0
 32 34  1  0
  5  8  1  0
  7  9  1  0
M  END
> <minimizedAffinity>
-5.75630

> <CNNscore>
0.8833532333

> <CNNaffinity>
4.7448267937

> <CNN_VS>
4.1913580894

> <CNNaffinity_variance>
0.1219488606

$$$$



 34 36  0  0  0  0  0  0  0  0999 V2000
   38.2842    5.6731   17.8675 C   0  0  0  0  0  0  0  0  0  0  0  0
   37.9182    5.0340   16.6163 O   0  0  0  0  0  0  0  0  0  0  0  0
   39.1183    4.8430   15.8375 C   0  0  0  0  0  0  0  0  0  0  0  0
   40.2665    4.8603   16.8400 C   0  0  0  0  0  0  0  0  0  0  0  0
   41.5223    5.2174   16.2731 O   0  0  0  0  0  0  0  0  0  0  0  0
   39.7949    5.9313   17.8097 C   0  0  0  0  0  0  0  0  0  0  0  0
   40.0721    7.2265   17.2480 O   0  0  0  0  0  0  0  0  0  0  0  0
   41.4524    6.0906   15.8565 H   0  0  0  0  0  0  0  0  0  0  0  0
   39.6635    7.2927   16.3708 H   0  0  0  0  0  0  0  0  0  0  0  0
   35.8470    3.0707   22.7572 N   0  0  0  0  0  0  0  0  0  0  0  0
   36.0128    4.0976   21.8379 C   0  0  0  0  0  0  0  0  0  0  0  0
   35.2995    5.2338   22.0116 N   0  0  0  0  0  0  0  0  0  0  0  0
   35.4554    6.2328   21.1153 C   0  0  0  0  0  0  0  0  0  0  0  0
   36.2667    6.2725   20.0388 N   0  0  0  0  0  0  0  0  0  0  0  0
   36.9585    5.1287   19.9196 C   0  0  0  0  0  0  0  0  0  0  0  0
   36.9009    4.0230   20.7516 C   0  0  0  0  0  0  0  0  0  0  0  0
   37.7779    3.0462   20.3270 N   0  0  0  0  0  0  0  0  0  0  0  0
   38.3281    3.5393   19.2360 C   0  0  0  0  0  0  0  0  0  0  0  0
   37.8854    4.8077   18.9644 N   0  0  0  0  0  0  0  0  0  0  0  0
   35.2106    3.1740   23.5012 H   0  0  0  0  0  0  0  0  0  0  0  0
   36.3659    2.2390   22.6651 H   0  0  0  0  0  0  0  0  0  0  0  0
   39.0370    3.5295   15.0653 C   0  0  0  0  0  0  0  0  0  0  0  0
   37.8440    3.5064   14.2945 O   0  0  0  0  0  0  0  0  0  0  0  0
   38.0166    3.2579   12.7167 P   0  0  0  0  0  0  0  0  0  0  0  0
   37.9429    1.8310   12.2914 O   0  0  0  0  0  0  0  0  0  0  0  0
   36.8640    4.1795   12.0907 O   0  0  0  0  0  0  0  0  0  0  0  0
   35.9990    3.7733   12.2574 H   0  0  0  0  0  0  0  0  0  0  0  0
   39.3428    4.0543   12.3607 O   0  0  0  0  0  0  0  0  0  0  0  0
   39.2915    5.5317   11.7998 P   0  0  0  0  0  0  0  0  0  0  0  0
   40.5567    6.3074   11.7286 O   0  0  0  0  0  0  0  0  0  0  0  0
   38.5116    5.4085   10.4059 O   0  0  0  0  0  0  0  0  0  0  0  0
   38.1827    6.2361   12.7081 O   0  0  0  0  0  0  0  0  0  0  0  0
   39.0875    4.9865    9.7493 H   0  0  0  0  0  0  0  0  0  0  0  0
   38.5351    6.3720   13.6016 H   0  0  0  0  0  0  0  0  0  0  0  0
 10 11  1  0
 11 12  2  0
 12 13  1  0
 13 14  2  0
 14 15  1  0
 15 16  2  0
 16 17  1  0
 17 18  2  0
 18 19  1  0
  1 19  1  0
  1  2  1  0
  2  3  1  0
  3 22  1  0
 22 23  1  0
 23 24  1  0
 24 25  2  0
 24 26  1  0
 24 28  1  0
 28 29  1  0
 29 30  2  0
 29 31  1  0
 29 32  1  0
  3  4  1  0
  4  5  1  0
  4  6  1  0
  6  7  1  0
 16 11  1  0
  6  1  1  0
 19 15  1  0
 10 20  1  0
 10 21  1  0
 26 27  1  0
 31 33  1  0
 32 34  1  0
  5  8  1  0
  7  9  1  0
M  END
> <minimizedAffinity>
-6.68759

> <CNNscore>
0.8168268204

> <CNNaffinity>
4.6167960167

> <CNN_VS>
3.7711226940

> <CNNaffinity_variance>
0.4042648375

$$$$



 34 36  0  0  0  0  0  0  0  0999 V2000
   42.3638    4.0419    9.1313 C   0  0  0  0  0  0  0  0  0  0  0  0
   41.3274    3.3508    9.8769 O   0  0  0  0  0  0  0  0  0  0  0  0
   41.5358    3.6038   11.2826 C   0  0  0  0  0  0  0  0  0  0  0  0
   42.3575    4.8858   11.3525 C   0  0  0  0  0  0  0  0  0  0  0  0
   43.1080    5.0255   12.5538 O   0  0  0  0  0  0  0  0  0  0  0  0
   43.2849    4.7067   10.1617 C   0  0  0  0  0  0  0  0  0  0  0  0
   44.3590    3.8245   10.5332 O   0  0  0  0  0  0  0  0  0  0  0  0
   43.7000    4.2639   12.6556 H   0  0  0  0  0  0  0  0  0  0  0  0
   43.9920    2.9905   10.8660 H   0  0  0  0  0  0  0  0  0  0  0  0
   40.8932    7.9521    4.7530 N   0  0  0  0  0  0  0  0  0  0  0  0
   41.7479    7.0873    5.4230 C   0  0  0  0  0  0  0  0  0  0  0  0
   43.0093    6.9442    4.9557 N   0  0  0  0  0  0  0  0  0  0  0  0
   43.8415    6.0991    5.6031 C   0  0  0  0  0  0  0  0  0  0  0  0
   43.5945    5.3617    6.7048 N   0  0  0  0  0  0  0  0  0  0  0  0
   42.3366    5.5492    7.1332 C   0  0  0  0  0  0  0  0  0  0  0  0
   41.3742    6.3732    6.5739 C   0  0  0  0  0  0  0  0  0  0  0  0
   40.2063    6.3275    7.3070 N   0  0  0  0  0  0  0  0  0  0  0  0
   40.4478    5.4621    8.2709 C   0  0  0  0  0  0  0  0  0  0  0  0
   41.7320    4.9852    8.2245 N   0  0  0  0  0  0  0  0  0  0  0  0
   41.2053    8.4288    3.9501 H   0  0  0  0  0  0  0  0  0  0  0  0
   39.9750    8.0888    5.0807 H   0  0  0  0  0  0  0  0  0  0  0  0
   40.1929    3.7314   11.9957 C   0  0  0  0  0  0  0  0  0  0  0  0
   39.4973    4.8648   11.4962 O   0  0  0  0  0  0  0  0  0  0  0  0
   38.4365    5.5484   12.4903 P   0  0  0  0  0  0  0  0  0  0  0  0
   38.9323    5.7835   13.8765 O   0  0  0  0  0  0  0  0  0  0  0  0
   38.0412    6.8909   11.7086 O   0  0  0  0  0  0  0  0  0  0  0  0
   38.7792    7.5190   11.7511 H   0  0  0  0  0  0  0  0  0  0  0  0
   37.1414    4.6453   12.3257 O   0  0  0  0  0  0  0  0  0  0  0  0
   36.0049    4.6261   13.4248 P   0  0  0  0  0  0  0  0  0  0  0  0
   36.3093    5.1803   14.7692 O   0  0  0  0  0  0  0  0  0  0  0  0
   34.7364    5.2909   12.7068 O   0  0  0  0  0  0  0  0  0  0  0  0
   35.5592    3.0932   13.4724 O   0  0  0  0  0  0  0  0  0  0  0  0
   34.8810    6.2455   12.6137 H   0  0  0  0  0  0  0  0  0  0  0  0
   36.2562    2.5668   13.8943 H   0  0  0  0  0  0  0  0  0  0  0  0
 10 11  1  0
 11 12  2  0
 12 13  1  0
 13 14  2  0
 14 15  1  0
 15 16  2  0
 16 17  1  0
 17 18  2  0
 18 19  1  0
  1 19  1  0
  1  2  1  0
  2  3  1  0
  3 22  1  0
 22 23  1  0
 23 24  1  0
 24 25  2  0
 24 26  1  0
 24 28  1  0
 28 29  1  0
 29 30  2  0
 29 31  1  0
 29 32  1  0
  3  4  1  0
  4  5  1  0
  4  6  1  0
  6  7  1  0
 16 11  1  0
  6  1  1  0
 19 15  1  0
 10 20  1  0
 10 21  1  0
 26 27  1  0
 31 33  1  0
 32 34  1  0
  5  8  1  0
  7  9  1  0
M  END
> <minimizedAffinity>
-7.04831

> <CNNscore>
0.8123400807

> <CNNaffinity>
4.0910110474

> <CNN_VS>
3.3232922554

> <CNNaffinity_variance>
0.3977890909

$$$$



 34 36  0  0  0  0  0  0  0  0999 V2000
   38.5683    5.9053   18.7536 C   0  0  0  0  0  0  0  0  0  0  0  0
   37.6111    6.6127   17.9223 O   0  0  0  0  0  0  0  0  0  0  0  0
   38.0344    6.4986   16.5471 C   0  0  0  0  0  0  0  0  0  0  0  0
   38.9319    5.2676   16.4937 C   0  0  0  0  0  0  0  0  0  0  0  0
   39.8545    5.2726   15.4099 O   0  0  0  0  0  0  0  0  0  0  0  0
   39.6659    5.3804   17.8198 C   0  0  0  0  0  0  0  0  0  0  0  0
   40.7282    6.3414   17.6868 O   0  0  0  0  0  0  0  0  0  0  0  0
   40.4090    6.0669   15.4609 H   0  0  0  0  0  0  0  0  0  0  0  0
   40.3644    7.1843   17.3738 H   0  0  0  0  0  0  0  0  0  0  0  0
   36.6542    0.7876   21.3550 N   0  0  0  0  0  0  0  0  0  0  0  0
   37.5356    1.5584   20.6091 C   0  0  0  0  0  0  0  0  0  0  0  0
   38.6309    0.9572   20.0905 N   0  0  0  0  0  0  0  0  0  0  0  0
   39.4929    1.7064   19.3684 C   0  0  0  0  0  0  0  0  0  0  0  0
   39.4074    3.0163   19.0593 N   0  0  0  0  0  0  0  0  0  0  0  0
   38.2997    3.5603   19.5866 C   0  0  0  0  0  0  0  0  0  0  0  0
   37.3334    2.9241   20.3478 C   0  0  0  0  0  0  0  0  0  0  0  0
   36.3253    3.8016   20.6900 N   0  0  0  0  0  0  0  0  0  0  0  0
   36.6956    4.9567   20.1753 C   0  0  0  0  0  0  0  0  0  0  0  0
   37.8693    4.8552   19.4747 N   0  0  0  0  0  0  0  0  0  0  0  0
   36.8432   -0.1662   21.5089 H   0  0  0  0  0  0  0  0  0  0  0  0
   35.8402    1.1949   21.7302 H   0  0  0  0  0  0  0  0  0  0  0  0
   36.8181    6.3745   15.6342 C   0  0  0  0  0  0  0  0  0  0  0  0
   36.8933    5.1558   14.9082 O   0  0  0  0  0  0  0  0  0  0  0  0
   36.9304    5.2783   13.3068 P   0  0  0  0  0  0  0  0  0  0  0  0
   36.2689    4.1616   12.5734 O   0  0  0  0  0  0  0  0  0  0  0  0
   36.2550    6.7095   13.0511 O   0  0  0  0  0  0  0  0  0  0  0  0
   35.3014    6.6516   13.2189 H   0  0  0  0  0  0  0  0  0  0  0  0
   38.4633    5.5461   12.9927 O   0  0  0  0  0  0  0  0  0  0  0  0
   38.9156    6.3036   11.6805 P   0  0  0  0  0  0  0  0  0  0  0  0
   38.4182    7.6848   11.4520 O   0  0  0  0  0  0  0  0  0  0  0  0
   40.5114    6.1635   11.6621 O   0  0  0  0  0  0  0  0  0  0  0  0
   38.5078    5.2962   10.5102 O   0  0  0  0  0  0  0  0  0  0  0  0
   40.8943    6.7383   12.3431 H   0  0  0  0  0  0  0  0  0  0  0  0
   37.5426    5.2858   10.4142 H   0  0  0  0  0  0  0  0  0  0  0  0
 10 11  1  0
 11 12  2  0
 12 13  1  0
 13 14  2  0
 14 15  1  0
 15 16  2  0
 16 17  1  0
 17 18  2  0
 18 19  1  0
  1 19  1  0
  1  2  1  0
  2  3  1  0
  3 22  1  0
 22 23  1  0
 23 24  1  0
 24 25  2  0
 24 26  1  0
 24 28  1  0
 28 29  1  0
 29 30  2  0
 29 31  1  0
 29 32  1  0
  3  4  1  0
  4  5  1  0
  4  6  1  0
  6  7  1  0
 16 11  1  0
  6  1  1  0
 19 15  1  0
 10 20  1  0
 10 21  1  0
 26 27  1  0
 31 33  1  0
 32 34  1  0
  5  8  1  0
  7  9  1  0
M  END
> <minimizedAffinity>
-6.24136

> <CNNscore>
0.8109741211

> <CNNaffinity>
4.4149355888

> <CNN_VS>
3.5803985596

> <CNNaffinity_variance>
0.2848258317

$$$$



 34 36  0  0  0  0  0  0  0  0999 V2000
   38.8182    5.8677   18.2038 C   0  0  0  0  0  0  0  0  0  0  0  0
   37.7843    6.3220   17.2915 O   0  0  0  0  0  0  0  0  0  0  0  0
   38.1578    5.9312   15.9531 C   0  0  0  0  0  0  0  0  0  0  0  0
   39.1300    4.7691   16.1200 C   0  0  0  0  0  0  0  0  0  0  0  0
   40.0055    4.5855   15.0129 O   0  0  0  0  0  0  0  0  0  0  0  0
   39.9085    5.2104   17.3486 C   0  0  0  0  0  0  0  0  0  0  0  0
   40.9003    6.1747   16.9531 O   0  0  0  0  0  0  0  0  0  0  0  0
   40.5091    5.4004   14.8604 H   0  0  0  0  0  0  0  0  0  0  0  0
   40.4703    6.9071   16.4845 H   0  0  0  0  0  0  0  0  0  0  0  0
   35.6183    3.1625   22.5701 N   0  0  0  0  0  0  0  0  0  0  0  0
   35.9845    4.2357   21.7692 C   0  0  0  0  0  0  0  0  0  0  0  0
   35.3740    5.4253   21.9743 N   0  0  0  0  0  0  0  0  0  0  0  0
   35.7251    6.4701   21.1926 C   0  0  0  0  0  0  0  0  0  0  0  0
   36.6479    6.5073   20.2100 N   0  0  0  0  0  0  0  0  0  0  0  0
   37.2306    5.3081   20.0562 C   0  0  0  0  0  0  0  0  0  0  0  0
   36.9730    4.1522   20.7740 C   0  0  0  0  0  0  0  0  0  0  0  0
   37.7884    3.1227   20.3512 N   0  0  0  0  0  0  0  0  0  0  0  0
   38.5001    3.6388   19.3696 C   0  0  0  0  0  0  0  0  0  0  0  0
   38.2185    4.9657   19.1723 N   0  0  0  0  0  0  0  0  0  0  0  0
   34.9188    3.2746   23.2536 H   0  0  0  0  0  0  0  0  0  0  0  0
   36.0582    2.2894   22.4544 H   0  0  0  0  0  0  0  0  0  0  0  0
   36.9160    5.5437   15.1558 C   0  0  0  0  0  0  0  0  0  0  0  0
   37.1813    4.3646   14.4093 O   0  0  0  0  0  0  0  0  0  0  0  0
   36.5197    4.2794   12.9478 P   0  0  0  0  0  0  0  0  0  0  0  0
   35.1415    4.8385   12.8460 O   0  0  0  0  0  0  0  0  0  0  0  0
   37.5950    5.0395   12.0336 O   0  0  0  0  0  0  0  0  0  0  0  0
   37.5533    5.9924   12.2099 H   0  0  0  0  0  0  0  0  0  0  0  0
   36.7179    2.7577   12.5412 O   0  0  0  0  0  0  0  0  0  0  0  0
   38.0123    1.9537   12.9634 P   0  0  0  0  0  0  0  0  0  0  0  0
   38.1149    1.4581   14.3603 O   0  0  0  0  0  0  0  0  0  0  0  0
   38.1653    0.8169   11.8451 O   0  0  0  0  0  0  0  0  0  0  0  0
   39.2069    2.9360   12.5648 O   0  0  0  0  0  0  0  0  0  0  0  0
   37.4824    0.1406   11.9759 H   0  0  0  0  0  0  0  0  0  0  0  0
   39.2268    3.6867   13.1788 H   0  0  0  0  0  0  0  0  0  0  0  0
 10 11  1  0
 11 12  2  0
 12 13  1  0
 13 14  2  0
 14 15  1  0
 15 16  2  0
 16 17  1  0
 17 18  2  0
 18 19  1  0
  1 19  1  0
  1  2  1  0
  2  3  1  0
  3 22  1  0
 22 23  1  0
 23 24  1  0
 24 25  2  0
 24 26  1  0
 24 28  1  0
 28 29  1  0
 29 30  2  0
 29 31  1  0
 29 32  1  0
  3  4  1  0
  4  5  1  0
  4  6  1  0
  6  7  1  0
 16 11  1  0
  6  1  1  0
 19 15  1  0
 10 20  1  0
 10 21  1  0
 26 27  1  0
 31 33  1  0
 32 34  1  0
  5  8  1  0
  7  9  1  0
M  END
> <minimizedAffinity>
-6.32103

> <CNNscore>
0.8022568226

> <CNNaffinity>
4.3183364868

> <CNN_VS>
3.4644148350

> <CNNaffinity_variance>
0.6825220585

$$$$



 34 36  0  0  0  0  0  0  0  0999 V2000
   39.7045    4.0444   17.3906 C   0  0  0  0  0  0  0  0  0  0  0  0
   38.8671    3.9001   16.2134 O   0  0  0  0  0  0  0  0  0  0  0  0
   39.5586    3.0585   15.2663 C   0  0  0  0  0  0  0  0  0  0  0  0
   40.5576    2.2505   16.0866 C   0  0  0  0  0  0  0  0  0  0  0  0
   41.6691    1.7741   15.3360 O   0  0  0  0  0  0  0  0  0  0  0  0
   41.0060    3.2844   17.1064 C   0  0  0  0  0  0  0  0  0  0  0  0
   41.9819    4.1492   16.4985 O   0  0  0  0  0  0  0  0  0  0  0  0
   42.1284    2.5242   14.9269 H   0  0  0  0  0  0  0  0  0  0  0  0
   41.6108    4.5385   15.6913 H   0  0  0  0  0  0  0  0  0  0  0  0
   36.0451    3.0800   22.1129 N   0  0  0  0  0  0  0  0  0  0  0  0
   36.5449    3.8158   21.0471 C   0  0  0  0  0  0  0  0  0  0  0  0
   36.0250    5.0433   20.8168 N   0  0  0  0  0  0  0  0  0  0  0  0
   36.5063    5.7593   19.7769 C   0  0  0  0  0  0  0  0  0  0  0  0
   37.4838    5.4236   18.9106 N   0  0  0  0  0  0  0  0  0  0  0  0
   37.9722    4.2053   19.1901 C   0  0  0  0  0  0  0  0  0  0  0  0
   37.5783    3.3580   20.2123 C   0  0  0  0  0  0  0  0  0  0  0  0
   38.3278    2.1997   20.2027 N   0  0  0  0  0  0  0  0  0  0  0  0
   39.1351    2.3300   19.1695 C   0  0  0  0  0  0  0  0  0  0  0  0
   38.9770    3.5383   18.5421 N   0  0  0  0  0  0  0  0  0  0  0  0
   35.3193    3.4474   22.6674 H   0  0  0  0  0  0  0  0  0  0  0  0
   36.4164    2.1907   22.3142 H   0  0  0  0  0  0  0  0  0  0  0  0
   38.5597    2.1739   14.5262 C   0  0  0  0  0  0  0  0  0  0  0  0
   38.3446    2.6918   13.2211 O   0  0  0  0  0  0  0  0  0  0  0  0
   36.8548    2.5576   12.6349 P   0  0  0  0  0  0  0  0  0  0  0  0
   36.6720    1.4835   11.6175 O   0  0  0  0  0  0  0  0  0  0  0  0
   35.9765    2.3497   13.9597 O   0  0  0  0  0  0  0  0  0  0  0  0
   36.1275    1.4583   14.3111 H   0  0  0  0  0  0  0  0  0  0  0  0
   36.4953    4.0408   12.1978 O   0  0  0  0  0  0  0  0  0  0  0  0
   36.0869    5.1373   13.2612 P   0  0  0  0  0  0  0  0  0  0  0  0
   36.3883    4.8828   14.6936 O   0  0  0  0  0  0  0  0  0  0  0  0
   36.6979    6.5033   12.6890 O   0  0  0  0  0  0  0  0  0  0  0  0
   34.5298    5.3611   12.9855 O   0  0  0  0  0  0  0  0  0  0  0  0
   37.6618    6.4969   12.7978 H   0  0  0  0  0  0  0  0  0  0  0  0
   34.0325    4.5872   13.2931 H   0  0  0  0  0  0  0  0  0  0  0  0
 10 11  1  0
 11 12  2  0
 12 13  1  0
 13 14  2  0
 14 15  1  0
 15 16  2  0
 16 17  1  0
 17 18  2  0
 18 19  1  0
  1 19  1  0
  1  2  1  0
  2  3  1  0
  3 22  1  0
 22 23  1  0
 23 24  1  0
 24 25  2  0
 24 26  1  0
 24 28  1  0
 28 29  1  0
 29 30  2  0
 29 31  1  0
 29 32  1  0
  3  4  1  0
  4  5  1  0
  4  6  1  0
  6  7  1  0
 16 11  1  0
  6  1  1  0
 19 15  1  0
 10 20  1  0
 10 21  1  0
 26 27  1  0
 31 33  1  0
 32 34  1  0
  5  8  1  0
  7  9  1  0
M  END
> <minimizedAffinity>
-6.81918

> <CNNscore>
0.7725149393

> <CNNaffinity>
4.5816788673

> <CNN_VS>
3.5394153595

> <CNNaffinity_variance>
0.3567322791

$$$$



 34 36  0  0  0  0  0  0  0  0999 V2000
   38.7854   -1.8998   14.0388 C   0  0  0  0  0  0  0  0  0  0  0  0
   38.0956   -0.6486   14.2963 O   0  0  0  0  0  0  0  0  0  0  0  0
   38.6230    0.3521   13.3997 C   0  0  0  0  0  0  0  0  0  0  0  0
   39.2321   -0.4194   12.2346 C   0  0  0  0  0  0  0  0  0  0  0  0
   40.2401    0.2983   11.5313 O   0  0  0  0  0  0  0  0  0  0  0  0
   39.8327   -1.6154   12.9550 C   0  0  0  0  0  0  0  0  0  0  0  0
   41.0865   -1.2263   13.5436 O   0  0  0  0  0  0  0  0  0  0  0  0
   40.9457    0.5516   12.1468 H   0  0  0  0  0  0  0  0  0  0  0  0
   40.9487   -0.4578   14.1193 H   0  0  0  0  0  0  0  0  0  0  0  0
   34.3360   -5.1564   11.5450 N   0  0  0  0  0  0  0  0  0  0  0  0
   35.1401   -4.0327   11.6792 C   0  0  0  0  0  0  0  0  0  0  0  0
   34.9052   -2.9766   10.8672 N   0  0  0  0  0  0  0  0  0  0  0  0
   35.6898   -1.8837   10.9924 C   0  0  0  0  0  0  0  0  0  0  0  0
   36.7025   -1.6752   11.8582 N   0  0  0  0  0  0  0  0  0  0  0  0
   36.8854   -2.7458   12.6464 C   0  0  0  0  0  0  0  0  0  0  0  0
   36.1685   -3.9307   12.6313 C   0  0  0  0  0  0  0  0  0  0  0  0
   36.6267   -4.7912   13.6076 N   0  0  0  0  0  0  0  0  0  0  0  0
   37.6274   -4.1510   14.1775 C   0  0  0  0  0  0  0  0  0  0  0  0
   37.8046   -2.8986   13.6495 N   0  0  0  0  0  0  0  0  0  0  0  0
   33.6284   -5.1765   10.8608 H   0  0  0  0  0  0  0  0  0  0  0  0
   34.4732   -5.9331   12.1342 H   0  0  0  0  0  0  0  0  0  0  0  0
   37.5093    1.2961   12.9564 C   0  0  0  0  0  0  0  0  0  0  0  0
   37.6455    2.5389   13.6308 O   0  0  0  0  0  0  0  0  0  0  0  0
   36.5825    3.6809   13.2476 P   0  0  0  0  0  0  0  0  0  0  0  0
   36.7425    4.2587   11.8827 O   0  0  0  0  0  0  0  0  0  0  0  0
   35.1788    2.9412   13.4761 O   0  0  0  0  0  0  0  0  0  0  0  0
   35.0341    2.2958   12.7665 H   0  0  0  0  0  0  0  0  0  0  0  0
   36.6607    4.6847   14.4749 O   0  0  0  0  0  0  0  0  0  0  0  0
   36.7761    6.2464   14.2562 P   0  0  0  0  0  0  0  0  0  0  0  0
   38.0847    6.8083   13.8329 O   0  0  0  0  0  0  0  0  0  0  0  0
   35.5546    6.6104   13.2856 O   0  0  0  0  0  0  0  0  0  0  0  0
   36.2581    6.8549   15.6390 O   0  0  0  0  0  0  0  0  0  0  0  0
   35.7457    6.2885   12.3907 H   0  0  0  0  0  0  0  0  0  0  0  0
   36.9212    6.6987   16.3296 H   0  0  0  0  0  0  0  0  0  0  0  0
 10 11  1  0
 11 12  2  0
 12 13  1  0
 13 14  2  0
 14 15  1  0
 15 16  2  0
 16 17  1  0
 17 18  2  0
 18 19  1  0
  1 19  1  0
  1  2  1  0
  2  3  1  0
  3 22  1  0
 22 23  1  0
 23 24  1  0
 24 25  2  0
 24 26  1  0
 24 28  1  0
 28 29  1  0
 29 30  2  0
 29 31  1  0
 29 32  1  0
  3  4  1  0
  4  5  1  0
  4  6  1  0
  6  7  1  0
 16 11  1  0
  6  1  1  0
 19 15  1  0
 10 20  1  0
 10 21  1  0
 26 27  1  0
 31 33  1  0
 32 34  1  0
  5  8  1  0
  7  9  1  0
M  END
> <minimizedAffinity>
-8.33506

> <CNNscore>
0.7516380548

> <CNNaffinity>
4.6157078743

> <CNN_VS>
3.4693417549

> <CNNaffinity_variance>
0.2407667786

$$$$



 34 36  0  0  0  0  0  0  0  0999 V2000
   38.6348    6.7224   19.0031 C   0  0  0  0  0  0  0  0  0  0  0  0
   37.7004    7.4755   18.1862 O   0  0  0  0  0  0  0  0  0  0  0  0
   38.2281    7.5479   16.8446 C   0  0  0  0  0  0  0  0  0  0  0  0
   39.1979    6.3784   16.7204 C   0  0  0  0  0  0  0  0  0  0  0  0
   40.1946    6.5589   15.7205 O   0  0  0  0  0  0  0  0  0  0  0  0
   39.8260    6.3682   18.1044 C   0  0  0  0  0  0  0  0  0  0  0  0
   40.8369    7.3900   18.1673 O   0  0  0  0  0  0  0  0  0  0  0  0
   40.6963    7.3680   15.9064 H   0  0  0  0  0  0  0  0  0  0  0  0
   40.4478    8.2451   17.9259 H   0  0  0  0  0  0  0  0  0  0  0  0
   36.9151    1.2809   21.0167 N   0  0  0  0  0  0  0  0  0  0  0  0
   37.8185    2.1886   20.4806 C   0  0  0  0  0  0  0  0  0  0  0  0
   39.0574    1.7475   20.1637 N   0  0  0  0  0  0  0  0  0  0  0  0
   39.9401    2.6303   19.6466 C   0  0  0  0  0  0  0  0  0  0  0  0
   39.7527    3.9368   19.3700 N   0  0  0  0  0  0  0  0  0  0  0  0
   38.5071    4.3192   19.6911 C   0  0  0  0  0  0  0  0  0  0  0  0
   37.5014    3.5343   20.2302 C   0  0  0  0  0  0  0  0  0  0  0  0
   36.3463    4.2693   20.4000 N   0  0  0  0  0  0  0  0  0  0  0  0
   36.6607    5.4863   20.0047 C   0  0  0  0  0  0  0  0  0  0  0  0
   37.9484    5.5601   19.5409 N   0  0  0  0  0  0  0  0  0  0  0  0
   37.1885    0.3481   21.1727 H   0  0  0  0  0  0  0  0  0  0  0  0
   36.0011    1.5701   21.2408 H   0  0  0  0  0  0  0  0  0  0  0  0
   37.0905    7.4733   15.8306 C   0  0  0  0  0  0  0  0  0  0  0  0
   36.7486    6.1137   15.6014 O   0  0  0  0  0  0  0  0  0  0  0  0
   36.6905    5.6395   14.0676 P   0  0  0  0  0  0  0  0  0  0  0  0
   35.4436    6.0106   13.3397 O   0  0  0  0  0  0  0  0  0  0  0  0
   38.0181    6.2925   13.4505 O   0  0  0  0  0  0  0  0  0  0  0  0
   37.8960    7.2506   13.3618 H   0  0  0  0  0  0  0  0  0  0  0  0
   37.0546    4.0962   14.1444 O   0  0  0  0  0  0  0  0  0  0  0  0
   36.6299    3.0913   13.0000 P   0  0  0  0  0  0  0  0  0  0  0  0
   35.5894    2.0740   13.2998 O   0  0  0  0  0  0  0  0  0  0  0  0
   36.2977    4.0269   11.7427 O   0  0  0  0  0  0  0  0  0  0  0  0
   38.0157    2.4439   12.5402 O   0  0  0  0  0  0  0  0  0  0  0  0
   35.4591    4.4896   11.8965 H   0  0  0  0  0  0  0  0  0  0  0  0
   38.3352    1.8408   13.2295 H   0  0  0  0  0  0  0  0  0  0  0  0
 10 11  1  0
 11 12  2  0
 12 13  1  0
 13 14  2  0
 14 15  1  0
 15 16  2  0
 16 17  1  0
 17 18  2  0
 18 19  1  0
  1 19  1  0
  1  2  1  0
  2  3  1  0
  3 22  1  0
 22 23  1  0
 23 24  1  0
 24 25  2  0
 24 26  1  0
 24 28  1  0
 28 29  1  0
 29 30  2  0
 29 31  1  0
 29 32  1  0
  3  4  1  0
  4  5  1  0
  4  6  1  0
  6  7  1  0
 16 11  1  0
  6  1  1  0
 19 15  1  0
 10 20  1  0
 10 21  1  0
 26 27  1  0
 31 33  1  0
 32 34  1  0
  5  8  1  0
  7  9  1  0
M  END
> <minimizedAffinity>
-6.33124

> <CNNscore>
0.7354549170

> <CNNaffinity>
4.4791235924

> <CNN_VS>
3.2941935062

> <CNNaffinity_variance>
0.1483989805

$$$$
