


 36 37  0  0  0  0  0  0  0  0999 V2000
  -10.8234   16.6660   20.8775 C   0  0  0  0  0  0  0  0  0  0  0  0
  -10.0242   15.3554   20.9674 C   0  0  0  0  0  0  0  0  0  0  0  0
   -8.9434   15.3038   20.0194 O   0  0  0  0  0  0  0  0  0  0  0  0
   -7.8221   14.6497   20.6382 C   0  0  0  0  0  0  0  0  0  0  0  0
   -7.9686   14.9902   22.1329 C   0  0  0  0  0  0  0  0  0  0  0  0
   -9.4703   15.0511   22.3560 C   0  0  0  0  0  0  0  0  0  0  0  0
   -9.7973   16.0246   23.3414 O   0  0  0  0  0  0  0  0  0  0  0  0
  -11.1998   16.3117   23.4068 C   0  0  0  0  0  0  0  0  0  0  0  0
  -11.8243   16.6995   22.0523 C   0  0  0  0  0  0  0  0  0  0  0  0
  -12.4766   17.9738   22.1233 O   0  0  0  0  0  0  0  0  0  0  0  0
  -11.8200   18.6633   22.3088 H   0  0  0  0  0  0  0  0  0  0  0  0
   -8.8566   18.1365   21.4149 C   0  0  0  0  0  0  0  0  0  0  0  0
  -10.0665   17.9234   20.6314 N   0  0  0  0  0  0  0  0  0  0  0  0
   -9.8003   17.9336   19.6469 H   0  0  0  0  0  0  0  0  0  0  0  0
   -6.4984   15.1735   20.0413 C   0  0  0  0  0  0  0  0  0  0  0  0
   -6.2174   14.9382   18.5417 C   0  0  0  0  0  0  0  0  0  0  0  0
   -6.4727   13.5380   18.1294 N   0  0  0  0  0  0  0  0  0  0  0  0
   -5.8523   12.9134   18.6446 H   0  0  0  0  0  0  0  0  0  0  0  0
   -6.2986   13.4410   17.1291 H   0  0  0  0  0  0  0  0  0  0  0  0
   -4.7525   15.3186   18.2455 C   0  0  0  0  0  0  0  0  0  0  0  0
   -4.1631   16.3135   18.6363 O   0  0  0  0  0  0  0  0  0  0  0  0
   -4.1226   14.4381   17.4330 O   0  0  0  0  0  0  0  0  0  0  0  0
   -4.5730   13.6736   17.1318 H   0  0  0  0  0  0  0  0  0  0  0  0
   -7.9712   13.0941   20.4653 C   0  0  0  0  0  0  0  0  0  0  0  0
   -9.3791   12.3776   20.3279 C   0  0  0  0  0  0  0  0  0  0  0  0
  -10.2638   13.0352   19.2653 C   0  0  0  0  0  0  0  0  0  0  0  0
   -9.1375   10.8956   19.9637 C   0  0  0  0  0  0  0  0  0  0  0  0
  -10.0378   12.4683   21.7637 C   0  0  0  0  0  0  0  0  0  0  0  0
  -11.5632   12.3481   22.0664 C   0  0  0  0  0  0  0  0  0  0  0  0
  -12.4379   12.8260   20.8871 C   0  0  0  0  0  0  0  0  0  0  0  0
  -11.9740   13.1788   23.3015 C   0  0  0  0  0  0  0  0  0  0  0  0
  -11.9609   10.8351   22.2883 C   0  0  0  0  0  0  0  0  0  0  0  0
  -12.9807   10.3427   23.3677 C   0  0  0  0  0  0  0  0  0  0  0  0
  -13.9084   11.5440   23.6844 C   0  0  0  0  0  0  0  0  0  0  0  0
  -13.8865    9.2105   22.8476 C   0  0  0  0  0  0  0  0  0  0  0  0
  -12.3309    9.9037   24.6846 C   0  0  0  0  0  0  0  0  0  0  0  0
 12 13  1  0
  1 13  1  0
  1  2  1  0
  2  3  1  0
  3  4  1  0
  4 15  1  0
 15 16  1  0
 16 17  1  0
 16 20  1  0
 20 21  2  0
 20 22  1  0
  4 24  1  0
 24 25  1  0
 25 26  1  0
 25 27  1  0
 25 28  1  0
 28 29  1  0
 29 30  1  0
 29 31  1  0
 29 32  1  0
 32 33  1  0
 33 34  1  0
 33 35  1  0
 33 36  1  0
  4  5  1  0
  6  5  1  0
  6  7  1  0
  7  8  1  0
  8  9  1  0
  9 10  1  0
  9  1  1  0
  6  2  1  0
 13 14  1  0
 17 18  1  0
 17 19  1  0
 22 23  1  0
 10 11  1  0
M  END
> <minimizedAffinity>
3.81604

> <CNNscore>
0.7112301588

> <CNNaffinity>
7.5662512779

> <CNN_VS>
5.3813462257

> <CNNaffinity_variance>
0.0342336930

$$$$



 36 37  0  0  0  0  0  0  0  0999 V2000
  -10.6908   16.9503   21.0355 C   0  0  0  0  0  0  0  0  0  0  0  0
  -10.6531   15.4484   20.7075 C   0  0  0  0  0  0  0  0  0  0  0  0
   -9.5496   15.0994   19.8530 O   0  0  0  0  0  0  0  0  0  0  0  0
   -9.0406   13.8182   20.2625 C   0  0  0  0  0  0  0  0  0  0  0  0
   -9.3300   13.7664   21.7742 C   0  0  0  0  0  0  0  0  0  0  0  0
  -10.6292   14.5383   21.9317 C   0  0  0  0  0  0  0  0  0  0  0  0
  -10.6600   15.2306   23.1749 O   0  0  0  0  0  0  0  0  0  0  0  0
  -11.7326   16.1764   23.2673 C   0  0  0  0  0  0  0  0  0  0  0  0
  -11.7843   17.1818   22.1004 C   0  0  0  0  0  0  0  0  0  0  0  0
  -11.7493   18.5342   22.5738 O   0  0  0  0  0  0  0  0  0  0  0  0
  -10.9024   18.6999   23.0167 H   0  0  0  0  0  0  0  0  0  0  0  0
   -9.3571   19.0810   21.0606 C   0  0  0  0  0  0  0  0  0  0  0  0
   -9.3940   17.6401   21.2740 N   0  0  0  0  0  0  0  0  0  0  0  0
   -9.1278   17.4665   22.2432 H   0  0  0  0  0  0  0  0  0  0  0  0
   -7.5331   13.7135   19.9470 C   0  0  0  0  0  0  0  0  0  0  0  0
   -6.7002   15.0111   19.8710 C   0  0  0  0  0  0  0  0  0  0  0  0
   -7.5458   16.2277   19.8487 N   0  0  0  0  0  0  0  0  0  0  0  0
   -8.1406   16.2132   19.0202 H   0  0  0  0  0  0  0  0  0  0  0  0
   -6.9501   17.0553   19.8251 H   0  0  0  0  0  0  0  0  0  0  0  0
   -5.8142   14.9589   18.6098 C   0  0  0  0  0  0  0  0  0  0  0  0
   -4.9676   15.7732   18.2780 O   0  0  0  0  0  0  0  0  0  0  0  0
   -6.0774   13.8976   17.8119 O   0  0  0  0  0  0  0  0  0  0  0  0
   -6.7268   13.2712   18.0645 H   0  0  0  0  0  0  0  0  0  0  0  0
   -9.8699   12.6834   19.5579 C   0  0  0  0  0  0  0  0  0  0  0  0
   -9.6659   11.1448   19.8824 C   0  0  0  0  0  0  0  0  0  0  0  0
   -9.8457   10.2617   18.6446 C   0  0  0  0  0  0  0  0  0  0  0  0
   -8.2456   10.9534   20.4600 C   0  0  0  0  0  0  0  0  0  0  0  0
  -10.7388   10.8047   20.9944 C   0  0  0  0  0  0  0  0  0  0  0  0
  -11.0660    9.3753   21.5262 C   0  0  0  0  0  0  0  0  0  0  0  0
   -9.8242    8.4580   21.5543 C   0  0  0  0  0  0  0  0  0  0  0  0
  -12.1328    8.6680   20.6625 C   0  0  0  0  0  0  0  0  0  0  0  0
  -11.5596    9.4474   23.0255 C   0  0  0  0  0  0  0  0  0  0  0  0
  -13.0236    9.7947   23.4540 C   0  0  0  0  0  0  0  0  0  0  0  0
  -13.1366    9.4607   24.9638 C   0  0  0  0  0  0  0  0  0  0  0  0
  -13.3382   11.2958   23.3092 C   0  0  0  0  0  0  0  0  0  0  0  0
  -14.0967    8.9819   22.7214 C   0  0  0  0  0  0  0  0  0  0  0  0
 12 13  1  0
  1 13  1  0
  1  2  1  0
  2  3  1  0
  3  4  1  0
  4 15  1  0
 15 16  1  0
 16 17  1  0
 16 20  1  0
 20 21  2  0
 20 22  1  0
  4 24  1  0
 24 25  1  0
 25 26  1  0
 25 27  1  0
 25 28  1  0
 28 29  1  0
 29 30  1  0
 29 31  1  0
 29 32  1  0
 32 33  1  0
 33 34  1  0
 33 35  1  0
 33 36  1  0
  4  5  1  0
  6  5  1  0
  6  7  1  0
  7  8  1  0
  8  9  1  0
  9 10  1  0
  9  1  1  0
  6  2  1  0
 13 14  1  0
 17 18  1  0
 17 19  1  0
 22 23  1  0
 10 11  1  0
M  END
> <minimizedAffinity>
4.60222

> <CNNscore>
0.4679678380

> <CNNaffinity>
6.7739157677

> <CNN_VS>
3.1699748039

> <CNNaffinity_variance>
0.0365716927

$$$$



 36 37  0  0  0  0  0  0  0  0999 V2000
   -8.6519   13.2475   20.7317 C   0  0  0  0  0  0  0  0  0  0  0  0
   -8.5944   13.5727   22.2335 C   0  0  0  0  0  0  0  0  0  0  0  0
   -7.3762   14.2413   22.6055 O   0  0  0  0  0  0  0  0  0  0  0  0
   -7.6818   15.2255   23.6086 C   0  0  0  0  0  0  0  0  0  0  0  0
   -9.1255   15.6533   23.2855 C   0  0  0  0  0  0  0  0  0  0  0  0
   -9.7761   14.3912   22.7448 C   0  0  0  0  0  0  0  0  0  0  0  0
  -10.7430   14.7060   21.7490 O   0  0  0  0  0  0  0  0  0  0  0  0
  -11.1982   13.5580   21.0220 C   0  0  0  0  0  0  0  0  0  0  0  0
  -10.0640   12.7132   20.4098 C   0  0  0  0  0  0  0  0  0  0  0  0
  -10.2340   12.5567   18.9953 O   0  0  0  0  0  0  0  0  0  0  0  0
  -10.1688   13.4230   18.5640 H   0  0  0  0  0  0  0  0  0  0  0  0
   -6.7753   14.0096   19.2427 C   0  0  0  0  0  0  0  0  0  0  0  0
   -8.1059   14.2557   19.7831 N   0  0  0  0  0  0  0  0  0  0  0  0
   -8.7507   14.3165   18.9951 H   0  0  0  0  0  0  0  0  0  0  0  0
   -6.6861   16.4023   23.5272 C   0  0  0  0  0  0  0  0  0  0  0  0
   -5.9956   16.6966   22.1782 C   0  0  0  0  0  0  0  0  0  0  0  0
   -4.7441   17.4735   22.3388 N   0  0  0  0  0  0  0  0  0  0  0  0
   -4.9566   18.3770   22.7617 H   0  0  0  0  0  0  0  0  0  0  0  0
   -4.3141   17.6183   21.4253 H   0  0  0  0  0  0  0  0  0  0  0  0
   -6.9815   17.4624   21.2726 C   0  0  0  0  0  0  0  0  0  0  0  0
   -7.8538   18.2363   21.6332 O   0  0  0  0  0  0  0  0  0  0  0  0
   -6.8379   17.1742   19.9579 O   0  0  0  0  0  0  0  0  0  0  0  0
   -6.1690   16.5804   19.6787 H   0  0  0  0  0  0  0  0  0  0  0  0
   -7.6705   14.5414   25.0242 C   0  0  0  0  0  0  0  0  0  0  0  0
   -6.3378   14.0476   25.7273 C   0  0  0  0  0  0  0  0  0  0  0  0
   -5.6174   12.9691   24.9136 C   0  0  0  0  0  0  0  0  0  0  0  0
   -5.4081   15.2668   25.9190 C   0  0  0  0  0  0  0  0  0  0  0  0
   -6.7880   13.4989   27.1414 C   0  0  0  0  0  0  0  0  0  0  0  0
   -5.9563   12.5347   28.0422 C   0  0  0  0  0  0  0  0  0  0  0  0
   -5.0451   11.5981   27.2197 C   0  0  0  0  0  0  0  0  0  0  0  0
   -6.8598   11.6367   28.9151 C   0  0  0  0  0  0  0  0  0  0  0  0
   -4.9746   13.3580   28.9669 C   0  0  0  0  0  0  0  0  0  0  0  0
   -4.1605   12.7434   30.1532 C   0  0  0  0  0  0  0  0  0  0  0  0
   -2.9883   11.9475   29.5235 C   0  0  0  0  0  0  0  0  0  0  0  0
   -3.5285   13.8219   31.0535 C   0  0  0  0  0  0  0  0  0  0  0  0
   -4.9640   11.7692   31.0217 C   0  0  0  0  0  0  0  0  0  0  0  0
 12 13  1  0
  1 13  1  0
  1  2  1  0
  2  3  1  0
  3  4  1  0
  4 15  1  0
 15 16  1  0
 16 17  1  0
 16 20  1  0
 20 21  2  0
 20 22  1  0
  4 24  1  0
 24 25  1  0
 25 26  1  0
 25 27  1  0
 25 28  1  0
 28 29  1  0
 29 30  1  0
 29 31  1  0
 29 32  1  0
 32 33  1  0
 33 34  1  0
 33 35  1  0
 33 36  1  0
  4  5  1  0
  6  5  1  0
  6  7  1  0
  7  8  1  0
  8  9  1  0
  9 10  1  0
  9  1  1  0
  6  2  1  0
 13 14  1  0
 17 18  1  0
 17 19  1  0
 22 23  1  0
 10 11  1  0
M  END
> <minimizedAffinity>
3.50355

> <CNNscore>
0.4093833864

> <CNNaffinity>
6.5939488411

> <CNN_VS>
2.6994531155

> <CNNaffinity_variance>
0.0766227171

$$$$



 36 37  0  0  0  0  0  0  0  0999 V2000
  -14.4105    9.8058   24.6818 C   0  0  0  0  0  0  0  0  0  0  0  0
  -14.8248    9.7177   26.1600 C   0  0  0  0  0  0  0  0  0  0  0  0
  -15.9734    8.8750   26.3603 O   0  0  0  0  0  0  0  0  0  0  0  0
  -15.8000    8.1487   27.5894 C   0  0  0  0  0  0  0  0  0  0  0  0
  -14.2737    7.9890   27.7174 C   0  0  0  0  0  0  0  0  0  0  0  0
  -13.7128    9.2579   27.0980 C   0  0  0  0  0  0  0  0  0  0  0  0
  -12.4718    9.0003   26.4504 O   0  0  0  0  0  0  0  0  0  0  0  0
  -12.0265   10.0886   25.6313 C   0  0  0  0  0  0  0  0  0  0  0  0
  -13.0701   10.5678   24.6035 C   0  0  0  0  0  0  0  0  0  0  0  0
  -12.5457   10.5307   23.2701 O   0  0  0  0  0  0  0  0  0  0  0  0
  -12.3488    9.6129   23.0256 H   0  0  0  0  0  0  0  0  0  0  0  0
  -14.3539    8.7124   22.4190 C   0  0  0  0  0  0  0  0  0  0  0  0
  -14.5042    8.5681   23.8611 N   0  0  0  0  0  0  0  0  0  0  0  0
  -13.7762    7.9305   24.1832 H   0  0  0  0  0  0  0  0  0  0  0  0
  -16.5309    6.7909   27.5184 C   0  0  0  0  0  0  0  0  0  0  0  0
  -17.5148    6.5389   26.3558 C   0  0  0  0  0  0  0  0  0  0  0  0
  -17.4740    7.6122   25.3351 N   0  0  0  0  0  0  0  0  0  0  0  0
  -17.7463    8.4977   25.7618 H   0  0  0  0  0  0  0  0  0  0  0  0
  -18.1197    7.3866   24.5785 H   0  0  0  0  0  0  0  0  0  0  0  0
  -18.9398    6.4091   26.9310 C   0  0  0  0  0  0  0  0  0  0  0  0
  -19.8283    7.2442   26.8759 O   0  0  0  0  0  0  0  0  0  0  0  0
  -19.1513    5.2425   27.5840 O   0  0  0  0  0  0  0  0  0  0  0  0
  -18.4708    4.5999   27.6276 H   0  0  0  0  0  0  0  0  0  0  0  0
  -16.3103    9.0303   28.7870 C   0  0  0  0  0  0  0  0  0  0  0  0
  -17.7800    9.6220   28.8510 C   0  0  0  0  0  0  0  0  0  0  0  0
  -17.9778   10.7911   27.8822 C   0  0  0  0  0  0  0  0  0  0  0  0
  -18.7757    8.4893   28.5145 C   0  0  0  0  0  0  0  0  0  0  0  0
  -17.9844   10.0763   30.3527 C   0  0  0  0  0  0  0  0  0  0  0  0
  -19.3299   10.0154   31.1393 C   0  0  0  0  0  0  0  0  0  0  0  0
  -20.5491    9.8351   30.2092 C   0  0  0  0  0  0  0  0  0  0  0  0
  -19.5748   11.2972   31.9648 C   0  0  0  0  0  0  0  0  0  0  0  0
  -19.3503    8.7571   32.0947 C   0  0  0  0  0  0  0  0  0  0  0  0
  -19.5247    7.2820   31.6033 C   0  0  0  0  0  0  0  0  0  0  0  0
  -18.1172    6.6326   31.6360 C   0  0  0  0  0  0  0  0  0  0  0  0
  -20.4166    6.4503   32.5445 C   0  0  0  0  0  0  0  0  0  0  0  0
  -20.0539    7.1611   30.1700 C   0  0  0  0  0  0  0  0  0  0  0  0
 12 13  1  0
  1 13  1  0
  1  2  1  0
  2  3  1  0
  3  4  1  0
  4 15  1  0
 15 16  1  0
 16 17  1  0
 16 20  1  0
 20 21  2  0
 20 22  1  0
  4 24  1  0
 24 25  1  0
 25 26  1  0
 25 27  1  0
 25 28  1  0
 28 29  1  0
 29 30  1  0
 29 31  1  0
 29 32  1  0
 32 33  1  0
 33 34  1  0
 33 35  1  0
 33 36  1  0
  4  5  1  0
  6  5  1  0
  6  7  1  0
  7  8  1  0
  8  9  1  0
  9 10  1  0
  9  1  1  0
  6  2  1  0
 13 14  1  0
 17 18  1  0
 17 19  1  0
 22 23  1  0
 10 11  1  0
M  END
> <minimizedAffinity>
4.76515

> <CNNscore>
0.3223465383

> <CNNaffinity>
5.8437523842

> <CNN_VS>
1.8837133646

> <CNNaffinity_variance>
0.3117795587

$$$$



 36 37  0  0  0  0  0  0  0  0999 V2000
   -7.7979   13.2053   20.2212 C   0  0  0  0  0  0  0  0  0  0  0  0
   -7.6705   13.9729   21.5475 C   0  0  0  0  0  0  0  0  0  0  0  0
   -6.6628   14.9982   21.4952 O   0  0  0  0  0  0  0  0  0  0  0  0
   -7.1255   16.1339   22.2463 C   0  0  0  0  0  0  0  0  0  0  0  0
   -8.6577   16.0789   22.1020 C   0  0  0  0  0  0  0  0  0  0  0  0
   -8.9734   14.5939   22.0418 C   0  0  0  0  0  0  0  0  0  0  0  0
  -10.0942   14.3476   21.1998 O   0  0  0  0  0  0  0  0  0  0  0  0
  -10.2774   12.9589   20.8967 C   0  0  0  0  0  0  0  0  0  0  0  0
   -9.0231   12.2716   20.3226 C   0  0  0  0  0  0  0  0  0  0  0  0
   -9.2966   11.6585   19.0563 O   0  0  0  0  0  0  0  0  0  0  0  0
   -9.5318   12.3425   18.4100 H   0  0  0  0  0  0  0  0  0  0  0  0
   -6.3288   14.2100   18.4459 C   0  0  0  0  0  0  0  0  0  0  0  0
   -7.6738   13.9808   18.9572 N   0  0  0  0  0  0  0  0  0  0  0  0
   -8.1945   13.4797   18.2374 H   0  0  0  0  0  0  0  0  0  0  0  0
   -6.5260   17.4365   21.6744 C   0  0  0  0  0  0  0  0  0  0  0  0
   -7.3734   18.2732   20.6921 C   0  0  0  0  0  0  0  0  0  0  0  0
   -8.5917   18.8301   21.3256 N   0  0  0  0  0  0  0  0  0  0  0  0
   -9.1865   18.0668   21.6479 H   0  0  0  0  0  0  0  0  0  0  0  0
   -9.1011   19.3941   20.6453 H   0  0  0  0  0  0  0  0  0  0  0  0
   -7.7594   17.3871   19.4903 C   0  0  0  0  0  0  0  0  0  0  0  0
   -8.8362   16.8454   19.2985 O   0  0  0  0  0  0  0  0  0  0  0  0
   -6.7450   17.1989   18.6140 O   0  0  0  0  0  0  0  0  0  0  0  0
   -5.9175   17.6137   18.7591 H   0  0  0  0  0  0  0  0  0  0  0  0
   -6.7610   15.9341   23.7626 C   0  0  0  0  0  0  0  0  0  0  0  0
   -7.3974   14.7871   24.6535 C   0  0  0  0  0  0  0  0  0  0  0  0
   -8.7939   15.1547   25.1624 C   0  0  0  0  0  0  0  0  0  0  0  0
   -7.4719   13.4973   23.8060 C   0  0  0  0  0  0  0  0  0  0  0  0
   -6.3847   14.5750   25.8506 C   0  0  0  0  0  0  0  0  0  0  0  0
   -6.1071   13.2186   26.5688 C   0  0  0  0  0  0  0  0  0  0  0  0
   -5.4744   12.1712   25.6271 C   0  0  0  0  0  0  0  0  0  0  0  0
   -7.3980   12.5931   27.1406 C   0  0  0  0  0  0  0  0  0  0  0  0
   -5.0547   13.4181   27.7303 C   0  0  0  0  0  0  0  0  0  0  0  0
   -4.8479   12.4142   28.9123 C   0  0  0  0  0  0  0  0  0  0  0  0
   -4.4104   13.2551   30.1392 C   0  0  0  0  0  0  0  0  0  0  0  0
   -6.1525   11.6981   29.3104 C   0  0  0  0  0  0  0  0  0  0  0  0
   -3.7564   11.3687   28.6582 C   0  0  0  0  0  0  0  0  0  0  0  0
 12 13  1  0
  1 13  1  0
  1  2  1  0
  2  3  1  0
  3  4  1  0
  4 15  1  0
 15 16  1  0
 16 17  1  0
 16 20  1  0
 20 21  2  0
 20 22  1  0
  4 24  1  0
 24 25  1  0
 25 26  1  0
 25 27  1  0
 25 28  1  0
 28 29  1  0
 29 30  1  0
 29 31  1  0
 29 32  1  0
 32 33  1  0
 33 34  1  0
 33 35  1  0
 33 36  1  0
  4  5  1  0
  6  5  1  0
  6  7  1  0
  7  8  1  0
  8  9  1  0
  9 10  1  0
  9  1  1  0
  6  2  1  0
 13 14  1  0
 17 18  1  0
 17 19  1  0
 22 23  1  0
 10 11  1  0
M  END
> <minimizedAffinity>
1.71890

> <CNNscore>
0.2671324015

> <CNNaffinity>
6.3379225731

> <CNN_VS>
1.6930644512

> <CNNaffinity_variance>
0.0956338942

$$$$



 36 37  0  0  0  0  0  0  0  0999 V2000
  -13.3927    8.6643   23.9977 C   0  0  0  0  0  0  0  0  0  0  0  0
  -13.9302    9.1881   25.3398 C   0  0  0  0  0  0  0  0  0  0  0  0
  -13.0423    8.9060   26.4359 O   0  0  0  0  0  0  0  0  0  0  0  0
  -13.0608   10.0242   27.3399 C   0  0  0  0  0  0  0  0  0  0  0  0
  -13.3497   11.2343   26.4323 C   0  0  0  0  0  0  0  0  0  0  0  0
  -14.2565   10.6784   25.3473 C   0  0  0  0  0  0  0  0  0  0  0  0
  -14.0224   11.3339   24.1058 O   0  0  0  0  0  0  0  0  0  0  0  0
  -14.6533   10.6823   22.9963 C   0  0  0  0  0  0  0  0  0  0  0  0
  -14.3164    9.1834   22.8750 C   0  0  0  0  0  0  0  0  0  0  0  0
  -13.7689    8.8734   21.5872 O   0  0  0  0  0  0  0  0  0  0  0  0
  -12.9233    9.3353   21.4757 H   0  0  0  0  0  0  0  0  0  0  0  0
  -11.5204    9.3927   22.4866 C   0  0  0  0  0  0  0  0  0  0  0  0
  -11.9311    8.7810   23.7437 N   0  0  0  0  0  0  0  0  0  0  0  0
  -11.5316    9.3365   24.5002 H   0  0  0  0  0  0  0  0  0  0  0  0
  -11.7068   10.1460   28.0713 C   0  0  0  0  0  0  0  0  0  0  0  0
  -10.4393    9.6003   27.3794 C   0  0  0  0  0  0  0  0  0  0  0  0
  -10.0551    8.2580   27.8757 N   0  0  0  0  0  0  0  0  0  0  0  0
   -9.8441    8.3115   28.8723 H   0  0  0  0  0  0  0  0  0  0  0  0
   -9.2311    7.9318   27.3708 H   0  0  0  0  0  0  0  0  0  0  0  0
   -9.2841   10.5976   27.6017 C   0  0  0  0  0  0  0  0  0  0  0  0
   -9.1031   11.6492   27.0091 O   0  0  0  0  0  0  0  0  0  0  0  0
   -8.3936   10.1886   28.5355 O   0  0  0  0  0  0  0  0  0  0  0  0
   -8.5304    9.3817   28.9917 H   0  0  0  0  0  0  0  0  0  0  0  0
  -14.2594    9.8577   28.3437 C   0  0  0  0  0  0  0  0  0  0  0  0
  -15.4278    8.8098   28.1177 C   0  0  0  0  0  0  0  0  0  0  0  0
  -15.2182    7.9701   26.8546 C   0  0  0  0  0  0  0  0  0  0  0  0
  -15.4992    7.8862   29.3543 C   0  0  0  0  0  0  0  0  0  0  0  0
  -16.7517    9.6713   28.0245 C   0  0  0  0  0  0  0  0  0  0  0  0
  -18.1859    9.1625   28.3664 C   0  0  0  0  0  0  0  0  0  0  0  0
  -18.1961    7.6852   28.8156 C   0  0  0  0  0  0  0  0  0  0  0  0
  -19.1421    9.2760   27.1592 C   0  0  0  0  0  0  0  0  0  0  0  0
  -18.7773    9.9695   29.5894 C   0  0  0  0  0  0  0  0  0  0  0  0
  -18.2855    9.8141   31.0665 C   0  0  0  0  0  0  0  0  0  0  0  0
  -17.0010   10.6719   31.2006 C   0  0  0  0  0  0  0  0  0  0  0  0
  -19.2976   10.3724   32.0849 C   0  0  0  0  0  0  0  0  0  0  0  0
  -17.9214    8.3766   31.4540 C   0  0  0  0  0  0  0  0  0  0  0  0
 12 13  1  0
  1 13  1  0
  1  2  1  0
  2  3  1  0
  3  4  1  0
  4 15  1  0
 15 16  1  0
 16 17  1  0
 16 20  1  0
 20 21  2  0
 20 22  1  0
  4 24  1  0
 24 25  1  0
 25 26  1  0
 25 27  1  0
 25 28  1  0
 28 29  1  0
 29 30  1  0
 29 31  1  0
 29 32  1  0
 32 33  1  0
 33 34  1  0
 33 35  1  0
 33 36  1  0
  4  5  1  0
  6  5  1  0
  6  7  1  0
  7  8  1  0
  8  9  1  0
  9 10  1  0
  9  1  1  0
  6  2  1  0
 13 14  1  0
 17 18  1  0
 17 19  1  0
 22 23  1  0
 10 11  1  0
M  END
> <minimizedAffinity>
3.67815

> <CNNscore>
0.2595577538

> <CNNaffinity>
5.9016551971

> <CNN_VS>
1.5318204165

> <CNNaffinity_variance>
0.1069953665

$$$$



 36 37  0  0  0  0  0  0  0  0999 V2000
   -7.8472   12.5409   20.1749 C   0  0  0  0  0  0  0  0  0  0  0  0
   -8.2553   13.1681   21.5183 C   0  0  0  0  0  0  0  0  0  0  0  0
   -7.4807   14.3375   21.8375 O   0  0  0  0  0  0  0  0  0  0  0  0
   -8.3415   15.2974   22.4744 C   0  0  0  0  0  0  0  0  0  0  0  0
   -9.7277   15.0203   21.8632 C   0  0  0  0  0  0  0  0  0  0  0  0
   -9.7362   13.5200   21.6233 C   0  0  0  0  0  0  0  0  0  0  0  0
  -10.4970   13.1962   20.4648 O   0  0  0  0  0  0  0  0  0  0  0  0
  -10.3276   11.8380   20.0404 C   0  0  0  0  0  0  0  0  0  0  0  0
   -8.8571   11.4221   19.8409 C   0  0  0  0  0  0  0  0  0  0  0  0
   -8.6317   10.9171   18.5186 O   0  0  0  0  0  0  0  0  0  0  0  0
   -8.7877   11.6231   17.8719 H   0  0  0  0  0  0  0  0  0  0  0  0
   -6.4558   14.4447   19.3037 C   0  0  0  0  0  0  0  0  0  0  0  0
   -7.5019   13.4607   19.0573 N   0  0  0  0  0  0  0  0  0  0  0  0
   -7.2037   12.8868   18.2686 H   0  0  0  0  0  0  0  0  0  0  0  0
   -7.8485   16.7325   22.1906 C   0  0  0  0  0  0  0  0  0  0  0  0
   -8.6219   17.5931   21.1687 C   0  0  0  0  0  0  0  0  0  0  0  0
   -9.4757   16.7791   20.2720 N   0  0  0  0  0  0  0  0  0  0  0  0
   -8.8908   16.1404   19.7331 H   0  0  0  0  0  0  0  0  0  0  0  0
   -9.9836   17.3937   19.6359 H   0  0  0  0  0  0  0  0  0  0  0  0
   -7.6092   18.4084   20.3392 C   0  0  0  0  0  0  0  0  0  0  0  0
   -6.9400   18.0046   19.4017 O   0  0  0  0  0  0  0  0  0  0  0  0
   -7.4660   19.6840   20.7690 O   0  0  0  0  0  0  0  0  0  0  0  0
   -7.9786   19.9962   21.4885 H   0  0  0  0  0  0  0  0  0  0  0  0
   -8.4068   14.9910   24.0151 C   0  0  0  0  0  0  0  0  0  0  0  0
   -7.1201   14.9762   24.9416 C   0  0  0  0  0  0  0  0  0  0  0  0
   -5.8231   15.0883   24.1357 C   0  0  0  0  0  0  0  0  0  0  0  0
   -7.2223   16.1549   25.9353 C   0  0  0  0  0  0  0  0  0  0  0  0
   -7.1900   13.6089   25.7348 C   0  0  0  0  0  0  0  0  0  0  0  0
   -5.9933   12.9283   26.4680 C   0  0  0  0  0  0  0  0  0  0  0  0
   -4.8501   13.9193   26.7767 C   0  0  0  0  0  0  0  0  0  0  0  0
   -5.3846   11.7787   25.6359 C   0  0  0  0  0  0  0  0  0  0  0  0
   -6.4538   12.3782   27.8758 C   0  0  0  0  0  0  0  0  0  0  0  0
   -5.4757   12.0202   29.0433 C   0  0  0  0  0  0  0  0  0  0  0  0
   -6.3179   11.2914   30.1219 C   0  0  0  0  0  0  0  0  0  0  0  0
   -4.3727   11.0378   28.6060 C   0  0  0  0  0  0  0  0  0  0  0  0
   -4.8293   13.2392   29.7105 C   0  0  0  0  0  0  0  0  0  0  0  0
 12 13  1  0
  1 13  1  0
  1  2  1  0
  2  3  1  0
  3  4  1  0
  4 15  1  0
 15 16  1  0
 16 17  1  0
 16 20  1  0
 20 21  2  0
 20 22  1  0
  4 24  1  0
 24 25  1  0
 25 26  1  0
 25 27  1  0
 25 28  1  0
 28 29  1  0
 29 30  1  0
 29 31  1  0
 29 32  1  0
 32 33  1  0
 33 34  1  0
 33 35  1  0
 33 36  1  0
  4  5  1  0
  6  5  1  0
  6  7  1  0
  7  8  1  0
  8  9  1  0
  9 10  1  0
  9  1  1  0
  6  2  1  0
 13 14  1  0
 17 18  1  0
 17 19  1  0
 22 23  1  0
 10 11  1  0
M  END
> <minimizedAffinity>
2.94053

> <CNNscore>
0.2487649024

> <CNNaffinity>
6.4720091820

> <CNN_VS>
1.6100087166

> <CNNaffinity_variance>
0.0491534360

$$$$



 36 37  0  0  0  0  0  0  0  0999 V2000
  -12.9165    8.6344   23.4556 C   0  0  0  0  0  0  0  0  0  0  0  0
  -13.4972    8.6351   24.8794 C   0  0  0  0  0  0  0  0  0  0  0  0
  -12.4870    8.8261   25.8856 O   0  0  0  0  0  0  0  0  0  0  0  0
  -13.0330    9.6465   26.9330 C   0  0  0  0  0  0  0  0  0  0  0  0
  -14.0606   10.5387   26.2121 C   0  0  0  0  0  0  0  0  0  0  0  0
  -14.6089    9.6555   25.1040 C   0  0  0  0  0  0  0  0  0  0  0  0
  -14.9336   10.4282   23.9537 O   0  0  0  0  0  0  0  0  0  0  0  0
  -15.2056    9.6289   22.7958 C   0  0  0  0  0  0  0  0  0  0  0  0
  -14.0936    8.6172   22.4570 C   0  0  0  0  0  0  0  0  0  0  0  0
  -13.6199    8.7912   21.1154 O   0  0  0  0  0  0  0  0  0  0  0  0
  -13.2061    9.6643   21.0294 H   0  0  0  0  0  0  0  0  0  0  0  0
  -12.1803   11.0037   23.0505 C   0  0  0  0  0  0  0  0  0  0  0  0
  -11.8211    9.5953   23.1536 N   0  0  0  0  0  0  0  0  0  0  0  0
  -11.1249    9.5096   23.8942 H   0  0  0  0  0  0  0  0  0  0  0  0
  -11.9145   10.4657   27.6118 C   0  0  0  0  0  0  0  0  0  0  0  0
  -10.4595    9.9602   27.5093 C   0  0  0  0  0  0  0  0  0  0  0  0
  -10.1890    8.8212   28.4178 N   0  0  0  0  0  0  0  0  0  0  0  0
  -10.3285    9.1165   29.3841 H   0  0  0  0  0  0  0  0  0  0  0  0
   -9.2262    8.5083   28.2934 H   0  0  0  0  0  0  0  0  0  0  0  0
   -9.5045   11.1288   27.8266 C   0  0  0  0  0  0  0  0  0  0  0  0
   -9.6159   11.9369   28.7346 O   0  0  0  0  0  0  0  0  0  0  0  0
   -8.4794   11.2381   26.9495 O   0  0  0  0  0  0  0  0  0  0  0  0
   -8.3918   10.6190   26.2516 H   0  0  0  0  0  0  0  0  0  0  0  0
  -13.7993    8.7334   27.9582 C   0  0  0  0  0  0  0  0  0  0  0  0
  -15.3761    8.7649   28.1227 C   0  0  0  0  0  0  0  0  0  0  0  0
  -15.9377   10.1880   28.0626 C   0  0  0  0  0  0  0  0  0  0  0  0
  -15.9999    7.9082   26.9983 C   0  0  0  0  0  0  0  0  0  0  0  0
  -15.6653    8.0894   29.5240 C   0  0  0  0  0  0  0  0  0  0  0  0
  -17.0770    7.7154   30.0718 C   0  0  0  0  0  0  0  0  0  0  0  0
  -17.7473    8.8862   30.8228 C   0  0  0  0  0  0  0  0  0  0  0  0
  -17.0192    6.5225   31.0506 C   0  0  0  0  0  0  0  0  0  0  0  0
  -18.0561    7.3761   28.8789 C   0  0  0  0  0  0  0  0  0  0  0  0
  -19.3604    8.1774   28.5561 C   0  0  0  0  0  0  0  0  0  0  0  0
  -20.4912    7.5507   29.4119 C   0  0  0  0  0  0  0  0  0  0  0  0
  -19.2597    9.6571   28.9729 C   0  0  0  0  0  0  0  0  0  0  0  0
  -19.7949    8.0957   27.0886 C   0  0  0  0  0  0  0  0  0  0  0  0
 12 13  1  0
  1 13  1  0
  1  2  1  0
  2  3  1  0
  3  4  1  0
  4 15  1  0
 15 16  1  0
 16 17  1  0
 16 20  1  0
 20 21  2  0
 20 22  1  0
  4 24  1  0
 24 25  1  0
 25 26  1  0
 25 27  1  0
 25 28  1  0
 28 29  1  0
 29 30  1  0
 29 31  1  0
 29 32  1  0
 32 33  1  0
 33 34  1  0
 33 35  1  0
 33 36  1  0
  4  5  1  0
  6  5  1  0
  6  7  1  0
  7  8  1  0
  8  9  1  0
  9 10  1  0
  9  1  1  0
  6  2  1  0
 13 14  1  0
 17 18  1  0
 17 19  1  0
 22 23  1  0
 10 11  1  0
M  END
> <minimizedAffinity>
3.02203

> <CNNscore>
0.2352730930

> <CNNaffinity>
6.0251121521

> <CNN_VS>
1.4175467491

> <CNNaffinity_variance>
0.0066136215

$$$$



 36 37  0  0  0  0  0  0  0  0999 V2000
   -8.6888   13.0314   20.5251 C   0  0  0  0  0  0  0  0  0  0  0  0
   -8.6545   13.6774   21.9201 C   0  0  0  0  0  0  0  0  0  0  0  0
   -7.3627   14.2219   22.2428 O   0  0  0  0  0  0  0  0  0  0  0  0
   -7.5511   15.4429   22.9788 C   0  0  0  0  0  0  0  0  0  0  0  0
   -8.8853   15.9983   22.4469 C   0  0  0  0  0  0  0  0  0  0  0  0
   -9.7083   14.7590   22.1378 C   0  0  0  0  0  0  0  0  0  0  0  0
  -10.5576   14.9809   21.0174 O   0  0  0  0  0  0  0  0  0  0  0  0
  -11.1596   13.7795   20.5195 C   0  0  0  0  0  0  0  0  0  0  0  0
  -10.1518   12.6567   20.2053 C   0  0  0  0  0  0  0  0  0  0  0  0
  -10.2734   12.2099   18.8489 O   0  0  0  0  0  0  0  0  0  0  0  0
  -10.0434   12.9355   18.2476 H   0  0  0  0  0  0  0  0  0  0  0  0
   -6.7069   13.0640   18.9790 C   0  0  0  0  0  0  0  0  0  0  0  0
   -7.9354   13.7034   19.4318 N   0  0  0  0  0  0  0  0  0  0  0  0
   -8.5590   13.7739   18.6278 H   0  0  0  0  0  0  0  0  0  0  0  0
   -6.3709   16.4068   22.7312 C   0  0  0  0  0  0  0  0  0  0  0  0
   -6.4513   17.3860   21.5405 C   0  0  0  0  0  0  0  0  0  0  0  0
   -7.6584   18.2439   21.5918 N   0  0  0  0  0  0  0  0  0  0  0  0
   -8.4931   17.6594   21.5465 H   0  0  0  0  0  0  0  0  0  0  0  0
   -7.6513   18.8884   20.8013 H   0  0  0  0  0  0  0  0  0  0  0  0
   -6.4335   16.5751   20.2289 C   0  0  0  0  0  0  0  0  0  0  0  0
   -5.5100   15.9029   19.7985 O   0  0  0  0  0  0  0  0  0  0  0  0
   -7.5738   16.6927   19.5091 O   0  0  0  0  0  0  0  0  0  0  0  0
   -8.2840   17.2082   19.8375 H   0  0  0  0  0  0  0  0  0  0  0  0
   -7.7255   15.1052   24.5044 C   0  0  0  0  0  0  0  0  0  0  0  0
   -6.5207   14.6348   25.4217 C   0  0  0  0  0  0  0  0  0  0  0  0
   -5.5318   13.7412   24.6681 C   0  0  0  0  0  0  0  0  0  0  0  0
   -5.7928   15.8908   25.9509 C   0  0  0  0  0  0  0  0  0  0  0  0
   -7.1899   13.8634   26.6303 C   0  0  0  0  0  0  0  0  0  0  0  0
   -6.8066   12.4293   27.1092 C   0  0  0  0  0  0  0  0  0  0  0  0
   -5.9891   12.4438   28.4190 C   0  0  0  0  0  0  0  0  0  0  0  0
   -5.9645   11.6750   26.0573 C   0  0  0  0  0  0  0  0  0  0  0  0
   -8.1072   11.5968   27.4439 C   0  0  0  0  0  0  0  0  0  0  0  0
   -8.3231   10.7980   28.7717 C   0  0  0  0  0  0  0  0  0  0  0  0
   -6.9263   10.6335   29.4243 C   0  0  0  0  0  0  0  0  0  0  0  0
   -9.1957   11.5646   29.7836 C   0  0  0  0  0  0  0  0  0  0  0  0
   -8.9035    9.3944   28.5671 C   0  0  0  0  0  0  0  0  0  0  0  0
 12 13  1  0
  1 13  1  0
  1  2  1  0
  2  3  1  0
  3  4  1  0
  4 15  1  0
 15 16  1  0
 16 17  1  0
 16 20  1  0
 20 21  2  0
 20 22  1  0
  4 24  1  0
 24 25  1  0
 25 26  1  0
 25 27  1  0
 25 28  1  0
 28 29  1  0
 29 30  1  0
 29 31  1  0
 29 32  1  0
 32 33  1  0
 33 34  1  0
 33 35  1  0
 33 36  1  0
  4  5  1  0
  6  5  1  0
  6  7  1  0
  7  8  1  0
  8  9  1  0
  9 10  1  0
  9  1  1  0
  6  2  1  0
 13 14  1  0
 17 18  1  0
 17 19  1  0
 22 23  1  0
 10 11  1  0
M  END
> <minimizedAffinity>
2.77060

> <CNNscore>
0.2272529006

> <CNNaffinity>
6.2504787445

> <CNN_VS>
1.4204394817

> <CNNaffinity_variance>
0.0793577805

$$$$
