


 37 38  0  0  0  0  0  0  0  0999 V2000
  -26.9430  -28.6584   11.6525 C   0  0  0  0  0  0  0  0  0  0  0  0
  -27.9718  -29.5179   12.3688 C   0  0  0  0  0  0  0  0  0  0  0  0
  -28.0687  -30.6766   11.4006 C   0  0  0  0  0  0  0  0  0  0  0  0
  -27.9642  -29.9644   10.0342 C   0  0  0  0  0  0  0  0  0  0  0  0
  -27.3771  -28.6597   10.2928 O   0  0  0  0  0  0  0  0  0  0  0  0
  -28.7989  -24.7626   14.1392 C   0  0  0  0  0  0  0  0  0  0  0  0
  -27.7088  -25.4877   13.4121 C   0  0  0  0  0  0  0  0  0  0  0  0
  -27.8275  -26.7215   12.9011 C   0  0  0  0  0  0  0  0  0  0  0  0
  -26.7939  -27.3436   12.2299 N   0  0  0  0  0  0  0  0  0  0  0  0
  -25.5614  -26.7267   12.0402 C   0  0  0  0  0  0  0  0  0  0  0  0
  -24.6274  -27.2767   11.4451 O   0  0  0  0  0  0  0  0  0  0  0  0
  -25.4411  -25.4686   12.5613 N   0  0  0  0  0  0  0  0  0  0  0  0
  -26.4169  -24.7843   13.2358 C   0  0  0  0  0  0  0  0  0  0  0  0
  -26.2203  -23.6563   13.6752 O   0  0  0  0  0  0  0  0  0  0  0  0
  -24.5761  -25.0141   12.4410 H   0  0  0  0  0  0  0  0  0  0  0  0
  -26.9099  -31.5194   11.5627 O   0  0  0  0  0  0  0  0  0  0  0  0
  -26.3572  -31.5235   12.8580 C   0  0  0  0  0  0  0  0  0  0  0  0
  -24.8335  -31.9319   12.8496 N   0  0  0  0  0  0  0  0  0  0  0  0
  -24.2076  -31.0271   11.7927 C   0  0  0  0  0  0  0  0  0  0  0  0
  -24.3267  -31.5176   14.2472 C   0  0  0  0  0  0  0  0  0  0  0  0
  -24.8039  -33.4227   12.6046 C   0  0  0  0  0  0  0  0  0  0  0  0
  -24.4874  -34.4704   13.7275 N   0  0  0  0  0  0  0  0  0  0  0  0
  -22.9977  -34.3867   14.0692 C   0  0  0  0  0  0  0  0  0  0  0  0
  -25.3039  -34.2593   14.9756 C   0  0  0  0  0  0  0  0  0  0  0  0
  -24.7900  -35.8500   13.0694 C   0  0  0  0  0  0  0  0  0  0  0  0
  -26.0835  -36.6183   13.2971 N   0  0  0  0  0  0  0  0  0  0  0  0
  -27.2473  -35.6098   12.9664 C   0  0  0  0  0  0  0  0  0  0  0  0
  -26.3274  -37.0093   14.7711 C   0  0  0  0  0  0  0  0  0  0  0  0
  -26.3548  -37.8267   12.4084 C   0  0  0  0  0  0  0  0  0  0  0  0
  -29.3232  -29.7766    9.3438 C   0  0  0  0  0  0  0  0  0  0  0  0
  -29.1190  -29.4755    7.9648 O   0  0  0  0  0  0  0  0  0  0  0  0
  -30.4145  -29.3418    7.0400 P   0  0  0  0  0  0  0  0  0  0  0  0
  -31.7464  -29.5446    7.7017 O   0  0  0  0  0  0  0  0  0  0  0  0
  -30.2113  -27.8982    6.3988 O   0  0  0  0  0  0  0  0  0  0  0  0
  -30.1369  -30.2832    5.7921 O   0  0  0  0  0  0  0  0  0  0  0  0
  -30.3568  -27.2199    7.0767 H   0  0  0  0  0  0  0  0  0  0  0  0
  -30.2319  -31.2108    6.0594 H   0  0  0  0  0  0  0  0  0  0  0  0
  6  7  1  0
  7  8  2  0
  8  9  1  0
  1  9  1  0
  1  2  1  0
  2  3  1  0
  3 16  1  0
 16 17  1  0
 17 18  1  0
 18 19  1  0
 18 20  1  0
 18 21  1  0
 21 22  1  0
 22 23  1  0
 22 24  1  0
 22 25  1  0
 25 26  1  0
 26 27  1  0
 26 28  1  0
 26 29  1  0
  3  4  1  0
  4 30  1  0
 30 31  1  0
 31 32  1  0
 32 33  2  0
 32 34  1  0
 32 35  1  0
  4  5  1  0
  9 10  1  0
 10 11  2  0
 10 12  1  0
 12 13  1  0
 13 14  2  0
 13  7  1  0
  5  1  1  0
 34 36  1  0
 35 37  1  0
 12 15  1  0
M  CHG 1  18   1
M  CHG 1  22   1
M  CHG 1  26   1
M  END
> <minimizedAffinity>
-5.40510

> <CNNscore>
0.7769279480

> <CNNaffinity>
5.2365326881

> <CNN_VS>
4.0684084892

> <CNNaffinity_variance>
0.1761599779

$$$$



 37 38  0  0  0  0  0  0  0  0999 V2000
  -27.1370  -28.8586   11.6386 C   0  0  0  0  0  0  0  0  0  0  0  0
  -28.4688  -29.4650   12.0495 C   0  0  0  0  0  0  0  0  0  0  0  0
  -28.5106  -30.6624   11.1253 C   0  0  0  0  0  0  0  0  0  0  0  0
  -27.8955  -30.0906    9.8292 C   0  0  0  0  0  0  0  0  0  0  0  0
  -27.1665  -28.8924   10.2121 O   0  0  0  0  0  0  0  0  0  0  0  0
  -28.7441  -24.8343   14.0938 C   0  0  0  0  0  0  0  0  0  0  0  0
  -27.7036  -25.6295   13.3671 C   0  0  0  0  0  0  0  0  0  0  0  0
  -27.8977  -26.8600   12.8713 C   0  0  0  0  0  0  0  0  0  0  0  0
  -26.9073  -27.5484   12.1998 N   0  0  0  0  0  0  0  0  0  0  0  0
  -25.6426  -27.0063   11.9941 C   0  0  0  0  0  0  0  0  0  0  0  0
  -24.7468  -27.6161   11.3986 O   0  0  0  0  0  0  0  0  0  0  0  0
  -25.4455  -25.7515   12.4998 N   0  0  0  0  0  0  0  0  0  0  0  0
  -26.3746  -25.0043   13.1735 C   0  0  0  0  0  0  0  0  0  0  0  0
  -26.1094  -23.8848   13.5984 O   0  0  0  0  0  0  0  0  0  0  0  0
  -24.5566  -25.3494   12.3680 H   0  0  0  0  0  0  0  0  0  0  0  0
  -27.6255  -31.6792   11.6374 O   0  0  0  0  0  0  0  0  0  0  0  0
  -26.8959  -32.3780   10.6563 C   0  0  0  0  0  0  0  0  0  0  0  0
  -25.4417  -32.7418   11.1480 N   0  0  0  0  0  0  0  0  0  0  0  0
  -25.3989  -34.2659   11.0998 C   0  0  0  0  0  0  0  0  0  0  0  0
  -24.5206  -32.1662   10.0516 C   0  0  0  0  0  0  0  0  0  0  0  0
  -25.2796  -32.0768   12.4952 C   0  0  0  0  0  0  0  0  0  0  0  0
  -23.8829  -31.7374   13.1217 N   0  0  0  0  0  0  0  0  0  0  0  0
  -22.9136  -32.8787   12.8041 C   0  0  0  0  0  0  0  0  0  0  0  0
  -23.3131  -30.4369   12.6186 C   0  0  0  0  0  0  0  0  0  0  0  0
  -24.1450  -31.6941   14.6571 C   0  0  0  0  0  0  0  0  0  0  0  0
  -24.1178  -32.9299   15.5444 N   0  0  0  0  0  0  0  0  0  0  0  0
  -25.1128  -32.6320   16.7285 C   0  0  0  0  0  0  0  0  0  0  0  0
  -22.7604  -33.1701   16.2406 C   0  0  0  0  0  0  0  0  0  0  0  0
  -24.6110  -34.2421   14.9457 C   0  0  0  0  0  0  0  0  0  0  0  0
  -28.9463  -29.7237    8.7710 C   0  0  0  0  0  0  0  0  0  0  0  0
  -28.7054  -28.3993    8.3001 O   0  0  0  0  0  0  0  0  0  0  0  0
  -29.7041  -27.8156    7.1986 P   0  0  0  0  0  0  0  0  0  0  0  0
  -30.3928  -28.8100    6.3099 O   0  0  0  0  0  0  0  0  0  0  0  0
  -30.6892  -26.9324    8.0852 O   0  0  0  0  0  0  0  0  0  0  0  0
  -28.8771  -26.6958    6.4352 O   0  0  0  0  0  0  0  0  0  0  0  0
  -31.2606  -27.5141    8.6106 H   0  0  0  0  0  0  0  0  0  0  0  0
  -28.2281  -27.1160    5.8494 H   0  0  0  0  0  0  0  0  0  0  0  0
  6  7  1  0
  7  8  2  0
  8  9  1  0
  1  9  1  0
  1  2  1  0
  2  3  1  0
  3 16  1  0
 16 17  1  0
 17 18  1  0
 18 19  1  0
 18 20  1  0
 18 21  1  0
 21 22  1  0
 22 23  1  0
 22 24  1  0
 22 25  1  0
 25 26  1  0
 26 27  1  0
 26 28  1  0
 26 29  1  0
  3  4  1  0
  4 30  1  0
 30 31  1  0
 31 32  1  0
 32 33  2  0
 32 34  1  0
 32 35  1  0
  4  5  1  0
  9 10  1  0
 10 11  2  0
 10 12  1  0
 12 13  1  0
 13 14  2  0
 13  7  1  0
  5  1  1  0
 34 36  1  0
 35 37  1  0
 12 15  1  0
M  CHG 1  18   1
M  CHG 1  22   1
M  CHG 1  26   1
M  END
> <minimizedAffinity>
-5.69389

> <CNNscore>
0.7741805315

> <CNNaffinity>
5.0114703178

> <CNN_VS>
3.8797826767

> <CNNaffinity_variance>
0.4397130013

$$$$



 37 38  0  0  0  0  0  0  0  0999 V2000
  -21.2854  -33.1865   15.7291 C   0  0  0  0  0  0  0  0  0  0  0  0
  -22.1795  -34.2010   15.0350 C   0  0  0  0  0  0  0  0  0  0  0  0
  -23.4898  -33.4443   15.0376 C   0  0  0  0  0  0  0  0  0  0  0  0
  -23.4541  -32.7425   16.4129 C   0  0  0  0  0  0  0  0  0  0  0  0
  -22.0641  -32.7410   16.8392 O   0  0  0  0  0  0  0  0  0  0  0  0
  -16.3973  -33.6421   14.8902 C   0  0  0  0  0  0  0  0  0  0  0  0
  -17.6544  -33.9249   15.6535 C   0  0  0  0  0  0  0  0  0  0  0  0
  -18.8567  -33.4139   15.3521 C   0  0  0  0  0  0  0  0  0  0  0  0
  -19.9889  -33.7137   16.0829 N   0  0  0  0  0  0  0  0  0  0  0  0
  -19.9530  -34.5681   17.1803 C   0  0  0  0  0  0  0  0  0  0  0  0
  -20.9599  -34.8393   17.8448 O   0  0  0  0  0  0  0  0  0  0  0  0
  -18.7267  -35.0889   17.4870 N   0  0  0  0  0  0  0  0  0  0  0  0
  -17.5606  -34.8433   16.8122 C   0  0  0  0  0  0  0  0  0  0  0  0
  -16.5003  -35.3514   17.1608 O   0  0  0  0  0  0  0  0  0  0  0  0
  -18.6776  -35.6942   18.2618 H   0  0  0  0  0  0  0  0  0  0  0  0
  -23.4474  -32.4326   14.0108 O   0  0  0  0  0  0  0  0  0  0  0  0
  -24.1504  -32.7539   12.8335 C   0  0  0  0  0  0  0  0  0  0  0  0
  -24.7605  -31.4743   12.1413 N   0  0  0  0  0  0  0  0  0  0  0  0
  -26.1524  -31.3442   12.7518 C   0  0  0  0  0  0  0  0  0  0  0  0
  -23.8694  -30.3174   12.6406 C   0  0  0  0  0  0  0  0  0  0  0  0
  -24.6664  -31.7215   10.6535 C   0  0  0  0  0  0  0  0  0  0  0  0
  -25.0745  -33.0784    9.9819 N   0  0  0  0  0  0  0  0  0  0  0  0
  -23.9410  -34.0864   10.1869 C   0  0  0  0  0  0  0  0  0  0  0  0
  -26.3580  -33.6438   10.5316 C   0  0  0  0  0  0  0  0  0  0  0  0
  -25.1982  -32.7408    8.4658 C   0  0  0  0  0  0  0  0  0  0  0  0
  -25.1065  -33.7888    7.3665 N   0  0  0  0  0  0  0  0  0  0  0  0
  -26.1103  -33.3253    6.2447 C   0  0  0  0  0  0  0  0  0  0  0  0
  -25.6234  -35.1822    7.7862 C   0  0  0  0  0  0  0  0  0  0  0  0
  -23.7709  -33.9469    6.6489 C   0  0  0  0  0  0  0  0  0  0  0  0
  -24.3058  -33.4511   17.4764 C   0  0  0  0  0  0  0  0  0  0  0  0
  -24.7825  -32.4938   18.4199 O   0  0  0  0  0  0  0  0  0  0  0  0
  -26.1870  -31.7963   18.1165 P   0  0  0  0  0  0  0  0  0  0  0  0
  -26.7012  -31.8863   16.7092 O   0  0  0  0  0  0  0  0  0  0  0  0
  -27.1307  -32.4730   19.2065 O   0  0  0  0  0  0  0  0  0  0  0  0
  -26.0536  -30.3208   18.6872 O   0  0  0  0  0  0  0  0  0  0  0  0
  -27.2909  -33.3989   18.9654 H   0  0  0  0  0  0  0  0  0  0  0  0
  -25.4891  -29.7961   18.0981 H   0  0  0  0  0  0  0  0  0  0  0  0
  6  7  1  0
  7  8  2  0
  8  9  1  0
  1  9  1  0
  1  2  1  0
  2  3  1  0
  3 16  1  0
 16 17  1  0
 17 18  1  0
 18 19  1  0
 18 20  1  0
 18 21  1  0
 21 22  1  0
 22 23  1  0
 22 24  1  0
 22 25  1  0
 25 26  1  0
 26 27  1  0
 26 28  1  0
 26 29  1  0
  3  4  1  0
  4 30  1  0
 30 31  1  0
 31 32  1  0
 32 33  2  0
 32 34  1  0
 32 35  1  0
  4  5  1  0
  9 10  1  0
 10 11  2  0
 10 12  1  0
 12 13  1  0
 13 14  2  0
 13  7  1  0
  5  1  1  0
 34 36  1  0
 35 37  1  0
 12 15  1  0
M  CHG 1  18   1
M  CHG 1  22   1
M  CHG 1  26   1
M  END
> <minimizedAffinity>
-6.80432

> <CNNscore>
0.6761624217

> <CNNaffinity>
5.6559424400

> <CNN_VS>
3.8243358135

> <CNNaffinity_variance>
0.0299600903

$$$$



 37 38  0  0  0  0  0  0  0  0999 V2000
  -26.9542  -28.7332   11.5496 C   0  0  0  0  0  0  0  0  0  0  0  0
  -27.9670  -29.6280   12.2451 C   0  0  0  0  0  0  0  0  0  0  0  0
  -28.0501  -30.7606   11.2452 C   0  0  0  0  0  0  0  0  0  0  0  0
  -27.9617  -30.0089    9.8989 C   0  0  0  0  0  0  0  0  0  0  0  0
  -27.3935  -28.7032   10.1919 O   0  0  0  0  0  0  0  0  0  0  0  0
  -28.8841  -24.8998   14.0766 C   0  0  0  0  0  0  0  0  0  0  0  0
  -27.7729  -25.6067   13.3636 C   0  0  0  0  0  0  0  0  0  0  0  0
  -27.8759  -26.8277   12.8193 C   0  0  0  0  0  0  0  0  0  0  0  0
  -26.8229  -27.4329   12.1630 N   0  0  0  0  0  0  0  0  0  0  0  0
  -25.5860  -26.8114   12.0240 C   0  0  0  0  0  0  0  0  0  0  0  0
  -24.6348  -27.3464   11.4427 O   0  0  0  0  0  0  0  0  0  0  0  0
  -25.4818  -25.5664   12.5790 N   0  0  0  0  0  0  0  0  0  0  0  0
  -26.4772  -24.8990   13.2418 C   0  0  0  0  0  0  0  0  0  0  0  0
  -26.2943  -23.7820   13.7141 O   0  0  0  0  0  0  0  0  0  0  0  0
  -24.6141  -25.1089   12.4948 H   0  0  0  0  0  0  0  0  0  0  0  0
  -26.8779  -31.5898   11.3797 O   0  0  0  0  0  0  0  0  0  0  0  0
  -26.5299  -31.9126   12.7056 C   0  0  0  0  0  0  0  0  0  0  0  0
  -24.9814  -32.1686   12.8649 N   0  0  0  0  0  0  0  0  0  0  0  0
  -24.3854  -30.7745   13.0339 C   0  0  0  0  0  0  0  0  0  0  0  0
  -24.8646  -32.9429   14.1948 C   0  0  0  0  0  0  0  0  0  0  0  0
  -24.5651  -32.9682   11.6522 C   0  0  0  0  0  0  0  0  0  0  0  0
  -23.3062  -32.6187   10.7852 N   0  0  0  0  0  0  0  0  0  0  0  0
  -23.6563  -31.4479    9.8635 C   0  0  0  0  0  0  0  0  0  0  0  0
  -22.1005  -32.2639   11.6156 C   0  0  0  0  0  0  0  0  0  0  0  0
  -23.0575  -33.8955    9.9273 C   0  0  0  0  0  0  0  0  0  0  0  0
  -22.0886  -34.9972   10.3307 N   0  0  0  0  0  0  0  0  0  0  0  0
  -22.4287  -35.3423   11.8294 C   0  0  0  0  0  0  0  0  0  0  0  0
  -20.6117  -34.5475   10.3705 C   0  0  0  0  0  0  0  0  0  0  0  0
  -22.1854  -36.3291    9.5956 C   0  0  0  0  0  0  0  0  0  0  0  0
  -29.3260  -29.8228    9.2188 C   0  0  0  0  0  0  0  0  0  0  0  0
  -29.1359  -29.6038    7.8224 O   0  0  0  0  0  0  0  0  0  0  0  0
  -30.4301  -29.6447    6.8871 P   0  0  0  0  0  0  0  0  0  0  0  0
  -31.7233  -30.0496    7.5326 O   0  0  0  0  0  0  0  0  0  0  0  0
  -30.4342  -28.1766    6.2696 O   0  0  0  0  0  0  0  0  0  0  0  0
  -30.0093  -30.5154    5.6280 O   0  0  0  0  0  0  0  0  0  0  0  0
  -30.6819  -27.5378    6.9562 H   0  0  0  0  0  0  0  0  0  0  0  0
  -29.9703  -31.4512    5.8804 H   0  0  0  0  0  0  0  0  0  0  0  0
  6  7  1  0
  7  8  2  0
  8  9  1  0
  1  9  1  0
  1  2  1  0
  2  3  1  0
  3 16  1  0
 16 17  1  0
 17 18  1  0
 18 19  1  0
 18 20  1  0
 18 21  1  0
 21 22  1  0
 22 23  1  0
 22 24  1  0
 22 25  1  0
 25 26  1  0
 26 27  1  0
 26 28  1  0
 26 29  1  0
  3  4  1  0
  4 30  1  0
 30 31  1  0
 31 32  1  0
 32 33  2  0
 32 34  1  0
 32 35  1  0
  4  5  1  0
  9 10  1  0
 10 11  2  0
 10 12  1  0
 12 13  1  0
 13 14  2  0
 13  7  1  0
  5  1  1  0
 34 36  1  0
 35 37  1  0
 12 15  1  0
M  CHG 1  18   1
M  CHG 1  22   1
M  CHG 1  26   1
M  END
> <minimizedAffinity>
-5.25707

> <CNNscore>
0.6497190595

> <CNNaffinity>
5.3721709251

> <CNN_VS>
3.4904017448

> <CNNaffinity_variance>
0.0984447598

$$$$



 37 38  0  0  0  0  0  0  0  0999 V2000
  -22.3464  -33.1298   16.7054 C   0  0  0  0  0  0  0  0  0  0  0  0
  -23.3188  -33.9615   15.8849 C   0  0  0  0  0  0  0  0  0  0  0  0
  -24.6085  -33.2267   16.1784 C   0  0  0  0  0  0  0  0  0  0  0  0
  -24.4360  -32.8552   17.6675 C   0  0  0  0  0  0  0  0  0  0  0  0
  -23.0137  -32.9488   17.9540 O   0  0  0  0  0  0  0  0  0  0  0  0
  -17.5970  -33.4698   15.2454 C   0  0  0  0  0  0  0  0  0  0  0  0
  -18.7687  -33.8730   16.0864 C   0  0  0  0  0  0  0  0  0  0  0  0
  -19.9822  -33.3069   16.0187 C   0  0  0  0  0  0  0  0  0  0  0  0
  -21.0340  -33.7220   16.8106 N   0  0  0  0  0  0  0  0  0  0  0  0
  -20.9004  -34.7575   17.7301 C   0  0  0  0  0  0  0  0  0  0  0  0
  -21.8344  -35.1338   18.4478 O   0  0  0  0  0  0  0  0  0  0  0  0
  -19.6629  -35.3343   17.7985 N   0  0  0  0  0  0  0  0  0  0  0  0
  -18.5726  -34.9827   17.0480 C   0  0  0  0  0  0  0  0  0  0  0  0
  -17.4949  -35.5533   17.1785 O   0  0  0  0  0  0  0  0  0  0  0  0
  -19.5450  -36.0677   18.4446 H   0  0  0  0  0  0  0  0  0  0  0  0
  -24.6382  -32.0084   15.4073 O   0  0  0  0  0  0  0  0  0  0  0  0
  -25.6015  -31.9810   14.3804 C   0  0  0  0  0  0  0  0  0  0  0  0
  -24.9939  -31.4817   13.0128 N   0  0  0  0  0  0  0  0  0  0  0  0
  -26.1220  -30.6803   12.3706 C   0  0  0  0  0  0  0  0  0  0  0  0
  -23.8585  -30.5252   13.4343 C   0  0  0  0  0  0  0  0  0  0  0  0
  -24.5150  -32.7212   12.2933 C   0  0  0  0  0  0  0  0  0  0  0  0
  -23.6750  -32.6742   10.9701 N   0  0  0  0  0  0  0  0  0  0  0  0
  -24.1705  -33.7811   10.0362 C   0  0  0  0  0  0  0  0  0  0  0  0
  -23.7601  -31.3449   10.2665 C   0  0  0  0  0  0  0  0  0  0  0  0
  -22.2182  -32.9928   11.4221 C   0  0  0  0  0  0  0  0  0  0  0  0
  -21.0439  -33.0764   10.4581 N   0  0  0  0  0  0  0  0  0  0  0  0
  -21.4228  -32.1562    9.2371 C   0  0  0  0  0  0  0  0  0  0  0  0
  -20.8464  -34.4745    9.8327 C   0  0  0  0  0  0  0  0  0  0  0  0
  -19.6964  -32.5484   10.9366 C   0  0  0  0  0  0  0  0  0  0  0  0
  -25.2029  -33.7876   18.6168 C   0  0  0  0  0  0  0  0  0  0  0  0
  -26.5653  -33.8718   18.2036 O   0  0  0  0  0  0  0  0  0  0  0  0
  -27.6213  -32.9348   18.9509 P   0  0  0  0  0  0  0  0  0  0  0  0
  -27.3856  -31.4541   18.8812 O   0  0  0  0  0  0  0  0  0  0  0  0
  -28.9969  -33.4132   18.3064 O   0  0  0  0  0  0  0  0  0  0  0  0
  -27.7389  -33.5254   20.4199 O   0  0  0  0  0  0  0  0  0  0  0  0
  -29.0469  -33.1075   17.3871 H   0  0  0  0  0  0  0  0  0  0  0  0
  -26.9432  -33.2964   20.9251 H   0  0  0  0  0  0  0  0  0  0  0  0
  6  7  1  0
  7  8  2  0
  8  9  1  0
  1  9  1  0
  1  2  1  0
  2  3  1  0
  3 16  1  0
 16 17  1  0
 17 18  1  0
 18 19  1  0
 18 20  1  0
 18 21  1  0
 21 22  1  0
 22 23  1  0
 22 24  1  0
 22 25  1  0
 25 26  1  0
 26 27  1  0
 26 28  1  0
 26 29  1  0
  3  4  1  0
  4 30  1  0
 30 31  1  0
 31 32  1  0
 32 33  2  0
 32 34  1  0
 32 35  1  0
  4  5  1  0
  9 10  1  0
 10 11  2  0
 10 12  1  0
 12 13  1  0
 13 14  2  0
 13  7  1  0
  5  1  1  0
 34 36  1  0
 35 37  1  0
 12 15  1  0
M  CHG 1  18   1
M  CHG 1  22   1
M  CHG 1  26   1
M  END
> <minimizedAffinity>
-7.11897

> <CNNscore>
0.6432766914

> <CNNaffinity>
5.7799315453

> <CNN_VS>
3.7180953026

> <CNNaffinity_variance>
0.0553749986

$$$$



 37 38  0  0  0  0  0  0  0  0999 V2000
  -21.8594  -33.0853   15.7058 C   0  0  0  0  0  0  0  0  0  0  0  0
  -22.6823  -34.1210   14.9571 C   0  0  0  0  0  0  0  0  0  0  0  0
  -24.0139  -33.4053   14.8938 C   0  0  0  0  0  0  0  0  0  0  0  0
  -24.0746  -32.7149   16.2740 C   0  0  0  0  0  0  0  0  0  0  0  0
  -22.7105  -32.6740   16.7752 O   0  0  0  0  0  0  0  0  0  0  0  0
  -16.9451  -33.5307   15.0301 C   0  0  0  0  0  0  0  0  0  0  0  0
  -18.2201  -33.7831   15.7741 C   0  0  0  0  0  0  0  0  0  0  0  0
  -19.4187  -33.3053   15.4099 C   0  0  0  0  0  0  0  0  0  0  0  0
  -20.5679  -33.5752   16.1258 N   0  0  0  0  0  0  0  0  0  0  0  0
  -20.5540  -34.3629   17.2724 C   0  0  0  0  0  0  0  0  0  0  0  0
  -21.5764  -34.6066   17.9239 O   0  0  0  0  0  0  0  0  0  0  0  0
  -19.3316  -34.8499   17.6430 N   0  0  0  0  0  0  0  0  0  0  0  0
  -18.1495  -34.6304   16.9872 C   0  0  0  0  0  0  0  0  0  0  0  0
  -17.0942  -35.1044   17.3944 O   0  0  0  0  0  0  0  0  0  0  0  0
  -19.2980  -35.4079   18.4534 H   0  0  0  0  0  0  0  0  0  0  0  0
  -23.9479  -32.3839   13.8780 O   0  0  0  0  0  0  0  0  0  0  0  0
  -24.7236  -32.6389   12.7306 C   0  0  0  0  0  0  0  0  0  0  0  0
  -25.5282  -31.3642   12.2654 N   0  0  0  0  0  0  0  0  0  0  0  0
  -26.6462  -31.2292   13.2945 C   0  0  0  0  0  0  0  0  0  0  0  0
  -24.5255  -30.2040   12.4397 C   0  0  0  0  0  0  0  0  0  0  0  0
  -25.9226  -31.6222   10.8297 C   0  0  0  0  0  0  0  0  0  0  0  0
  -25.0577  -31.1599    9.6063 N   0  0  0  0  0  0  0  0  0  0  0  0
  -25.0522  -29.6299    9.5610 C   0  0  0  0  0  0  0  0  0  0  0  0
  -23.6407  -31.6680    9.6624 C   0  0  0  0  0  0  0  0  0  0  0  0
  -25.8168  -31.7111    8.3621 C   0  0  0  0  0  0  0  0  0  0  0  0
  -27.1042  -31.0987    7.8302 N   0  0  0  0  0  0  0  0  0  0  0  0
  -28.2738  -31.8141    8.6055 C   0  0  0  0  0  0  0  0  0  0  0  0
  -27.3818  -31.4186    6.3451 C   0  0  0  0  0  0  0  0  0  0  0  0
  -27.3330  -29.6112    8.0719 C   0  0  0  0  0  0  0  0  0  0  0  0
  -24.9599  -33.4588   17.2847 C   0  0  0  0  0  0  0  0  0  0  0  0
  -25.2822  -32.5877   18.3669 O   0  0  0  0  0  0  0  0  0  0  0  0
  -26.5740  -31.6617   18.2080 P   0  0  0  0  0  0  0  0  0  0  0  0
  -27.2542  -31.6671   16.8700 O   0  0  0  0  0  0  0  0  0  0  0  0
  -27.4870  -32.1641   19.4124 O   0  0  0  0  0  0  0  0  0  0  0  0
  -26.1283  -30.2288   18.7264 O   0  0  0  0  0  0  0  0  0  0  0  0
  -27.8280  -33.0498   19.2120 H   0  0  0  0  0  0  0  0  0  0  0  0
  -25.5546  -29.8100   18.0657 H   0  0  0  0  0  0  0  0  0  0  0  0
  6  7  1  0
  7  8  2  0
  8  9  1  0
  1  9  1  0
  1  2  1  0
  2  3  1  0
  3 16  1  0
 16 17  1  0
 17 18  1  0
 18 19  1  0
 18 20  1  0
 18 21  1  0
 21 22  1  0
 22 23  1  0
 22 24  1  0
 22 25  1  0
 25 26  1  0
 26 27  1  0
 26 28  1  0
 26 29  1  0
  3  4  1  0
  4 30  1  0
 30 31  1  0
 31 32  1  0
 32 33  2  0
 32 34  1  0
 32 35  1  0
  4  5  1  0
  9 10  1  0
 10 11  2  0
 10 12  1  0
 12 13  1  0
 13 14  2  0
 13  7  1  0
  5  1  1  0
 34 36  1  0
 35 37  1  0
 12 15  1  0
M  CHG 1  18   1
M  CHG 1  22   1
M  CHG 1  26   1
M  END
> <minimizedAffinity>
-7.08045

> <CNNscore>
0.6352413893

> <CNNaffinity>
5.8774104118

> <CNN_VS>
3.7335743904

> <CNNaffinity_variance>
0.0470133983

$$$$



 37 38  0  0  0  0  0  0  0  0999 V2000
  -22.5272  -33.0393   16.6382 C   0  0  0  0  0  0  0  0  0  0  0  0
  -23.4991  -33.8809   15.8274 C   0  0  0  0  0  0  0  0  0  0  0  0
  -24.7847  -33.1277   16.0907 C   0  0  0  0  0  0  0  0  0  0  0  0
  -24.6236  -32.7232   17.5725 C   0  0  0  0  0  0  0  0  0  0  0  0
  -23.2052  -32.8232   17.8755 O   0  0  0  0  0  0  0  0  0  0  0  0
  -17.7659  -33.4542   15.2372 C   0  0  0  0  0  0  0  0  0  0  0  0
  -18.9502  -33.8282   16.0741 C   0  0  0  0  0  0  0  0  0  0  0  0
  -20.1576  -33.2527   15.9811 C   0  0  0  0  0  0  0  0  0  0  0  0
  -21.2216  -33.6409   16.7705 N   0  0  0  0  0  0  0  0  0  0  0  0
  -21.1072  -34.6572   17.7137 C   0  0  0  0  0  0  0  0  0  0  0  0
  -22.0522  -35.0092   18.4293 O   0  0  0  0  0  0  0  0  0  0  0  0
  -19.8759  -35.2436   17.8079 N   0  0  0  0  0  0  0  0  0  0  0  0
  -18.7746  -34.9183   17.0617 C   0  0  0  0  0  0  0  0  0  0  0  0
  -17.7036  -35.4956   17.2163 O   0  0  0  0  0  0  0  0  0  0  0  0
  -19.7716  -35.9636   18.4711 H   0  0  0  0  0  0  0  0  0  0  0  0
  -24.7954  -31.9275   15.2914 O   0  0  0  0  0  0  0  0  0  0  0  0
  -25.7283  -31.9270   14.2363 C   0  0  0  0  0  0  0  0  0  0  0  0
  -25.0960  -31.4060   12.8882 N   0  0  0  0  0  0  0  0  0  0  0  0
  -23.9120  -30.5532   13.3331 C   0  0  0  0  0  0  0  0  0  0  0  0
  -24.5780  -32.6856   12.1982 C   0  0  0  0  0  0  0  0  0  0  0  0
  -26.2157  -30.7184   12.1420 C   0  0  0  0  0  0  0  0  0  0  0  0
  -25.9711  -29.6217   11.0484 N   0  0  0  0  0  0  0  0  0  0  0  0
  -25.7567  -28.2755   11.7445 C   0  0  0  0  0  0  0  0  0  0  0  0
  -24.7900  -29.9261   10.1643 C   0  0  0  0  0  0  0  0  0  0  0  0
  -27.3004  -29.5779   10.2365 C   0  0  0  0  0  0  0  0  0  0  0  0
  -27.6543  -30.5915    9.1582 N   0  0  0  0  0  0  0  0  0  0  0  0
  -26.5546  -31.7156    9.2462 C   0  0  0  0  0  0  0  0  0  0  0  0
  -27.5243  -30.0451    7.7196 C   0  0  0  0  0  0  0  0  0  0  0  0
  -28.9785  -31.3345    9.2925 C   0  0  0  0  0  0  0  0  0  0  0  0
  -25.4086  -33.6262   18.5353 C   0  0  0  0  0  0  0  0  0  0  0  0
  -26.7695  -33.7003   18.1156 O   0  0  0  0  0  0  0  0  0  0  0  0
  -27.8531  -32.9128   18.9857 P   0  0  0  0  0  0  0  0  0  0  0  0
  -29.2729  -32.9503   18.5001 O   0  0  0  0  0  0  0  0  0  0  0  0
  -27.6350  -33.5457   20.4309 O   0  0  0  0  0  0  0  0  0  0  0  0
  -27.2521  -31.4569   19.1848 O   0  0  0  0  0  0  0  0  0  0  0  0
  -27.9693  -34.4562   20.4389 H   0  0  0  0  0  0  0  0  0  0  0  0
  -27.3278  -30.9597   18.3554 H   0  0  0  0  0  0  0  0  0  0  0  0
  6  7  1  0
  7  8  2  0
  8  9  1  0
  1  9  1  0
  1  2  1  0
  2  3  1  0
  3 16  1  0
 16 17  1  0
 17 18  1  0
 18 19  1  0
 18 20  1  0
 18 21  1  0
 21 22  1  0
 22 23  1  0
 22 24  1  0
 22 25  1  0
 25 26  1  0
 26 27  1  0
 26 28  1  0
 26 29  1  0
  3  4  1  0
  4 30  1  0
 30 31  1  0
 31 32  1  0
 32 33  2  0
 32 34  1  0
 32 35  1  0
  4  5  1  0
  9 10  1  0
 10 11  2  0
 10 12  1  0
 12 13  1  0
 13 14  2  0
 13  7  1  0
  5  1  1  0
 34 36  1  0
 35 37  1  0
 12 15  1  0
M  CHG 1  18   1
M  CHG 1  22   1
M  CHG 1  26   1
M  END
> <minimizedAffinity>
-7.09908

> <CNNscore>
0.6193760037

> <CNNaffinity>
6.1837782860

> <CNN_VS>
3.8300838470

> <CNNaffinity_variance>
0.5549969077

$$$$



 37 38  0  0  0  0  0  0  0  0999 V2000
  -27.0170  -28.8713   11.6725 C   0  0  0  0  0  0  0  0  0  0  0  0
  -28.2972  -29.5182   12.1756 C   0  0  0  0  0  0  0  0  0  0  0  0
  -28.3495  -30.7347   11.2774 C   0  0  0  0  0  0  0  0  0  0  0  0
  -27.8368  -30.1670    9.9357 C   0  0  0  0  0  0  0  0  0  0  0  0
  -27.1322  -28.9351   10.2513 O   0  0  0  0  0  0  0  0  0  0  0  0
  -28.6856  -24.7808   13.9722 C   0  0  0  0  0  0  0  0  0  0  0  0
  -27.6293  -25.5922   13.2876 C   0  0  0  0  0  0  0  0  0  0  0  0
  -27.8085  -26.8391   12.8285 C   0  0  0  0  0  0  0  0  0  0  0  0
  -26.8037  -27.5424   12.1948 N   0  0  0  0  0  0  0  0  0  0  0  0
  -25.5392  -26.9992   11.9913 C   0  0  0  0  0  0  0  0  0  0  0  0
  -24.6307  -27.6221   11.4296 O   0  0  0  0  0  0  0  0  0  0  0  0
  -25.3573  -25.7277   12.4595 N   0  0  0  0  0  0  0  0  0  0  0  0
  -26.3011  -24.9652   13.0945 C   0  0  0  0  0  0  0  0  0  0  0  0
  -26.0491  -23.8310   13.4873 O   0  0  0  0  0  0  0  0  0  0  0  0
  -24.4688  -25.3244   12.3286 H   0  0  0  0  0  0  0  0  0  0  0  0
  -27.3967  -31.7076   11.7521 O   0  0  0  0  0  0  0  0  0  0  0  0
  -27.6069  -32.1462   13.0737 C   0  0  0  0  0  0  0  0  0  0  0  0
  -26.3907  -32.9918   13.6166 N   0  0  0  0  0  0  0  0  0  0  0  0
  -25.8885  -32.1988   14.8191 C   0  0  0  0  0  0  0  0  0  0  0  0
  -27.0357  -34.3076   14.1008 C   0  0  0  0  0  0  0  0  0  0  0  0
  -25.4497  -33.1652   12.4470 C   0  0  0  0  0  0  0  0  0  0  0  0
  -24.1526  -34.0438   12.5127 N   0  0  0  0  0  0  0  0  0  0  0  0
  -23.3874  -33.6922   13.7909 C   0  0  0  0  0  0  0  0  0  0  0  0
  -24.4418  -35.5219   12.4883 C   0  0  0  0  0  0  0  0  0  0  0  0
  -23.3191  -33.6009   11.2729 C   0  0  0  0  0  0  0  0  0  0  0  0
  -22.6409  -32.2431   11.1640 N   0  0  0  0  0  0  0  0  0  0  0  0
  -22.4368  -31.9860    9.6235 C   0  0  0  0  0  0  0  0  0  0  0  0
  -21.2112  -32.2097   11.7471 C   0  0  0  0  0  0  0  0  0  0  0  0
  -23.4114  -31.0253   11.6606 C   0  0  0  0  0  0  0  0  0  0  0  0
  -28.9635  -29.8607    8.9379 C   0  0  0  0  0  0  0  0  0  0  0  0
  -28.8657  -28.5033    8.5115 O   0  0  0  0  0  0  0  0  0  0  0  0
  -29.7226  -28.0681    7.2357 P   0  0  0  0  0  0  0  0  0  0  0  0
  -30.2169  -29.1673    6.3412 O   0  0  0  0  0  0  0  0  0  0  0  0
  -30.8748  -27.1911    7.8989 O   0  0  0  0  0  0  0  0  0  0  0  0
  -28.8559  -26.9534    6.5098 O   0  0  0  0  0  0  0  0  0  0  0  0
  -31.4839  -27.7703    8.3830 H   0  0  0  0  0  0  0  0  0  0  0  0
  -28.1055  -27.3704    6.0582 H   0  0  0  0  0  0  0  0  0  0  0  0
  6  7  1  0
  7  8  2  0
  8  9  1  0
  1  9  1  0
  1  2  1  0
  2  3  1  0
  3 16  1  0
 16 17  1  0
 17 18  1  0
 18 19  1  0
 18 20  1  0
 18 21  1  0
 21 22  1  0
 22 23  1  0
 22 24  1  0
 22 25  1  0
 25 26  1  0
 26 27  1  0
 26 28  1  0
 26 29  1  0
  3  4  1  0
  4 30  1  0
 30 31  1  0
 31 32  1  0
 32 33  2  0
 32 34  1  0
 32 35  1  0
  4  5  1  0
  9 10  1  0
 10 11  2  0
 10 12  1  0
 12 13  1  0
 13 14  2  0
 13  7  1  0
  5  1  1  0
 34 36  1  0
 35 37  1  0
 12 15  1  0
M  CHG 1  18   1
M  CHG 1  22   1
M  CHG 1  26   1
M  END
> <minimizedAffinity>
-5.40383

> <CNNscore>
0.6095431447

> <CNNaffinity>
5.1392760277

> <CNN_VS>
3.1326105595

> <CNNaffinity_variance>
0.1328686476

$$$$



 37 38  0  0  0  0  0  0  0  0999 V2000
  -22.0227  -33.1070   15.8226 C   0  0  0  0  0  0  0  0  0  0  0  0
  -22.9603  -34.2261   15.3996 C   0  0  0  0  0  0  0  0  0  0  0  0
  -24.2618  -33.4599   15.3069 C   0  0  0  0  0  0  0  0  0  0  0  0
  -24.1495  -32.4879   16.5018 C   0  0  0  0  0  0  0  0  0  0  0  0
  -22.7396  -32.4249   16.8512 O   0  0  0  0  0  0  0  0  0  0  0  0
  -17.1163  -33.4674   15.0469 C   0  0  0  0  0  0  0  0  0  0  0  0
  -18.3713  -33.7416   15.8167 C   0  0  0  0  0  0  0  0  0  0  0  0
  -19.5852  -33.2848   15.4770 C   0  0  0  0  0  0  0  0  0  0  0  0
  -20.7147  -33.5742   16.2161 N   0  0  0  0  0  0  0  0  0  0  0  0
  -20.6638  -34.3613   17.3622 C   0  0  0  0  0  0  0  0  0  0  0  0
  -21.6684  -34.6224   18.0343 O   0  0  0  0  0  0  0  0  0  0  0  0
  -19.4258  -34.8269   17.7078 N   0  0  0  0  0  0  0  0  0  0  0  0
  -18.2614  -34.5872   17.0281 C   0  0  0  0  0  0  0  0  0  0  0  0
  -17.1899  -35.0427   17.4136 O   0  0  0  0  0  0  0  0  0  0  0  0
  -19.3661  -35.3840   18.5173 H   0  0  0  0  0  0  0  0  0  0  0  0
  -24.2626  -32.6854   14.0905 O   0  0  0  0  0  0  0  0  0  0  0  0
  -23.4824  -33.2205   13.0472 C   0  0  0  0  0  0  0  0  0  0  0  0
  -24.3226  -33.4313   11.7287 N   0  0  0  0  0  0  0  0  0  0  0  0
  -24.8153  -34.8720   11.8232 C   0  0  0  0  0  0  0  0  0  0  0  0
  -25.5174  -32.4674   11.8877 C   0  0  0  0  0  0  0  0  0  0  0  0
  -23.3990  -33.0783   10.5861 C   0  0  0  0  0  0  0  0  0  0  0  0
  -21.9039  -33.5457   10.5158 N   0  0  0  0  0  0  0  0  0  0  0  0
  -21.6616  -34.2083    9.1574 C   0  0  0  0  0  0  0  0  0  0  0  0
  -20.9253  -32.4168   10.7081 C   0  0  0  0  0  0  0  0  0  0  0  0
  -21.7767  -34.6147   11.6424 C   0  0  0  0  0  0  0  0  0  0  0  0
  -20.5905  -35.5594   11.7673 N   0  0  0  0  0  0  0  0  0  0  0  0
  -20.5681  -36.0259   13.2716 C   0  0  0  0  0  0  0  0  0  0  0  0
  -19.2215  -34.8749   11.5618 C   0  0  0  0  0  0  0  0  0  0  0  0
  -20.6280  -36.8530   10.9619 C   0  0  0  0  0  0  0  0  0  0  0  0
  -24.9522  -32.9426   17.7296 C   0  0  0  0  0  0  0  0  0  0  0  0
  -26.3448  -32.7596   17.4823 O   0  0  0  0  0  0  0  0  0  0  0  0
  -27.0523  -31.4940   18.1524 P   0  0  0  0  0  0  0  0  0  0  0  0
  -28.0852  -30.7784   17.3315 O   0  0  0  0  0  0  0  0  0  0  0  0
  -27.6045  -32.1102   19.5133 O   0  0  0  0  0  0  0  0  0  0  0  0
  -25.8651  -30.5806   18.6785 O   0  0  0  0  0  0  0  0  0  0  0  0
  -28.3501  -32.7004   19.3219 H   0  0  0  0  0  0  0  0  0  0  0  0
  -25.4385  -30.1402   17.9268 H   0  0  0  0  0  0  0  0  0  0  0  0
  6  7  1  0
  7  8  2  0
  8  9  1  0
  1  9  1  0
  1  2  1  0
  2  3  1  0
  3 16  1  0
 16 17  1  0
 17 18  1  0
 18 19  1  0
 18 20  1  0
 18 21  1  0
 21 22  1  0
 22 23  1  0
 22 24  1  0
 22 25  1  0
 25 26  1  0
 26 27  1  0
 26 28  1  0
 26 29  1  0
  3  4  1  0
  4 30  1  0
 30 31  1  0
 31 32  1  0
 32 33  2  0
 32 34  1  0
 32 35  1  0
  4  5  1  0
  9 10  1  0
 10 11  2  0
 10 12  1  0
 12 13  1  0
 13 14  2  0
 13  7  1  0
  5  1  1  0
 34 36  1  0
 35 37  1  0
 12 15  1  0
M  CHG 1  18   1
M  CHG 1  22   1
M  CHG 1  26   1
M  END
> <minimizedAffinity>
-6.34600

> <CNNscore>
0.5621989965

> <CNNaffinity>
5.8384480476

> <CNN_VS>
3.2823696136

> <CNNaffinity_variance>
0.0674953535

$$$$
