


 21 22  0  0  0  0  0  0  0  0999 V2000
   34.6541   72.2847   17.6269 C   0  0  0  0  0  0  0  0  0  0  0  0
   33.9099   71.8512   16.3281 C   0  0  0  0  0  0  0  0  0  0  0  0
   32.4931   71.8417   16.6189 O   0  0  0  0  0  0  0  0  0  0  0  0
   34.3199   70.4485   15.8175 C   0  0  0  0  0  0  0  0  0  0  0  0
   34.8773   69.6762   16.9234 N   0  0  0  0  0  0  0  0  0  0  0  0
   34.0724   68.9746   17.8019 C   0  0  0  0  0  0  0  0  0  0  0  0
   32.8917   68.7204   17.6902 O   0  0  0  0  0  0  0  0  0  0  0  0
   34.9540   68.7064   19.0404 C   0  0  0  0  0  0  0  0  0  0  0  0
   34.6981   67.9717   19.9660 O   0  0  0  0  0  0  0  0  0  0  0  0
   36.0731   69.4790   18.8625 N   0  0  0  0  0  0  0  0  0  0  0  0
   36.0714   70.1472   17.5911 C   0  0  0  0  0  0  0  0  0  0  0  0
   36.0730   71.6925   17.7389 C   0  0  0  0  0  0  0  0  0  0  0  0
   36.9039   72.2996   16.7349 O   0  0  0  0  0  0  0  0  0  0  0  0
   32.3116   71.1983   17.3217 H   0  0  0  0  0  0  0  0  0  0  0  0
   36.7932   69.5655   19.5282 H   0  0  0  0  0  0  0  0  0  0  0  0
   36.5456   72.1013   15.8556 H   0  0  0  0  0  0  0  0  0  0  0  0
   35.2649   70.5017   14.6021 C   0  0  0  0  0  0  0  0  0  0  0  0
   34.5733   70.1259   13.4083 O   0  0  0  0  0  0  0  0  0  0  0  0
   34.2413   69.2190   13.4988 H   0  0  0  0  0  0  0  0  0  0  0  0
   34.4214   74.3796   16.4845 C   0  0  0  0  0  0  0  0  0  0  0  0
   34.8178   73.7207   17.6828 O   0  0  0  0  0  0  0  0  0  0  0  0
 20 21  1  0
  1 21  1  0
  1  2  1  0
  2  3  1  0
  2  4  1  0
  4 17  1  0
 17 18  1  0
  4  5  1  0
  5  6  1  0
  6  7  2  0
  6  8  1  0
  8  9  2  0
  8 10  1  0
 11 10  1  0
 11 12  1  0
 12 13  1  0
 12  1  1  0
 11  5  1  0
  3 14  1  0
 18 19  1  0
 10 15  1  0
 13 16  1  0
M  END
> <minimizedAffinity>
-4.92684

> <CNNscore>
0.4441663623

> <CNNaffinity>
3.1956148148

> <CNN_VS>
1.4193845987

> <CNNaffinity_variance>
1.0370262861

$$$$



 21 22  0  0  0  0  0  0  0  0999 V2000
   28.8000   66.1844    8.7660 C   0  0  0  0  0  0  0  0  0  0  0  0
   27.3094   65.7708    8.9541 C   0  0  0  0  0  0  0  0  0  0  0  0
   26.4894   66.8488    8.4466 O   0  0  0  0  0  0  0  0  0  0  0  0
   26.9210   65.5055   10.4290 C   0  0  0  0  0  0  0  0  0  0  0  0
   27.8557   66.2023   11.3070 N   0  0  0  0  0  0  0  0  0  0  0  0
   27.6880   67.5335   11.6417 C   0  0  0  0  0  0  0  0  0  0  0  0
   26.7114   68.2298   11.4620 O   0  0  0  0  0  0  0  0  0  0  0  0
   29.0646   68.0022   12.1598 C   0  0  0  0  0  0  0  0  0  0  0  0
   29.3107   69.0454   12.7194 O   0  0  0  0  0  0  0  0  0  0  0  0
   29.9342   66.9896   11.8446 N   0  0  0  0  0  0  0  0  0  0  0  0
   29.2608   65.8594   11.2681 C   0  0  0  0  0  0  0  0  0  0  0  0
   29.7387   65.5656    9.8207 C   0  0  0  0  0  0  0  0  0  0  0  0
   29.8190   64.1491    9.5883 O   0  0  0  0  0  0  0  0  0  0  0  0
   26.6644   67.6555    8.9559 H   0  0  0  0  0  0  0  0  0  0  0  0
   30.9061   67.0323   11.9956 H   0  0  0  0  0  0  0  0  0  0  0  0
   28.9369   63.7561    9.6787 H   0  0  0  0  0  0  0  0  0  0  0  0
   26.8076   64.0058   10.7622 C   0  0  0  0  0  0  0  0  0  0  0  0
   26.4365   63.8195   12.1305 O   0  0  0  0  0  0  0  0  0  0  0  0
   27.1130   64.2108   12.7051 H   0  0  0  0  0  0  0  0  0  0  0  0
   29.8122   66.8199    6.6876 C   0  0  0  0  0  0  0  0  0  0  0  0
   29.3060   65.7521    7.4819 O   0  0  0  0  0  0  0  0  0  0  0  0
 20 21  1  0
  1 21  1  0
  1  2  1  0
  2  3  1  0
  2  4  1  0
  4 17  1  0
 17 18  1  0
  4  5  1  0
  5  6  1  0
  6  7  2  0
  6  8  1  0
  8  9  2  0
  8 10  1  0
 11 10  1  0
 11 12  1  0
 12 13  1  0
 12  1  1  0
 11  5  1  0
  3 14  1  0
 18 19  1  0
 10 15  1  0
 13 16  1  0
M  END
> <minimizedAffinity>
-5.82053

> <CNNscore>
0.2315683663

> <CNNaffinity>
3.1700170040

> <CNN_VS>
0.7340756655

> <CNNaffinity_variance>
0.9252451062

$$$$



 21 22  0  0  0  0  0  0  0  0999 V2000
   27.5368   66.7225   12.3098 C   0  0  0  0  0  0  0  0  0  0  0  0
   27.2760   66.4989   10.7897 C   0  0  0  0  0  0  0  0  0  0  0  0
   25.8804   66.1537   10.6320 O   0  0  0  0  0  0  0  0  0  0  0  0
   28.1378   65.3707   10.1724 C   0  0  0  0  0  0  0  0  0  0  0  0
   28.5731   64.4628   11.2289 N   0  0  0  0  0  0  0  0  0  0  0  0
   27.7742   63.4261   11.6749 C   0  0  0  0  0  0  0  0  0  0  0  0
   26.7617   62.9934   11.1662 O   0  0  0  0  0  0  0  0  0  0  0  0
   28.3536   63.0239   13.0481 C   0  0  0  0  0  0  0  0  0  0  0  0
   28.0643   62.0459   13.6975 O   0  0  0  0  0  0  0  0  0  0  0  0
   29.2521   64.0103   13.3650 N   0  0  0  0  0  0  0  0  0  0  0  0
   29.4041   64.9642   12.3020 C   0  0  0  0  0  0  0  0  0  0  0  0
   28.9830   66.3953   12.7315 C   0  0  0  0  0  0  0  0  0  0  0  0
   29.8614   67.3785   12.1582 O   0  0  0  0  0  0  0  0  0  0  0  0
   25.6941   65.3322   11.1129 H   0  0  0  0  0  0  0  0  0  0  0  0
   29.7363   64.0589   14.2209 H   0  0  0  0  0  0  0  0  0  0  0  0
   29.7973   67.3445   11.1909 H   0  0  0  0  0  0  0  0  0  0  0  0
   29.3143   65.9021    9.3318 C   0  0  0  0  0  0  0  0  0  0  0  0
   30.1122   64.8219    8.8407 O   0  0  0  0  0  0  0  0  0  0  0  0
   30.4721   64.3198    9.5886 H   0  0  0  0  0  0  0  0  0  0  0  0
   27.0014   68.9409   11.5748 C   0  0  0  0  0  0  0  0  0  0  0  0
   27.3176   68.1030   12.6817 O   0  0  0  0  0  0  0  0  0  0  0  0
 20 21  1  0
  1 21  1  0
  1  2  1  0
  2  3  1  0
  2  4  1  0
  4 17  1  0
 17 18  1  0
  4  5  1  0
  5  6  1  0
  6  7  2  0
  6  8  1  0
  8  9  2  0
  8 10  1  0
 11 10  1  0
 11 12  1  0
 12 13  1  0
 12  1  1  0
 11  5  1  0
  3 14  1  0
 18 19  1  0
 10 15  1  0
 13 16  1  0
M  END
> <minimizedAffinity>
-5.87146

> <CNNscore>
0.1901824474

> <CNNaffinity>
2.6450831890

> <CNN_VS>
0.5030484200

> <CNNaffinity_variance>
1.5363502502

$$$$



 21 22  0  0  0  0  0  0  0  0999 V2000
   24.7181   64.2910   12.7812 C   0  0  0  0  0  0  0  0  0  0  0  0
   24.4536   65.4078   11.7270 C   0  0  0  0  0  0  0  0  0  0  0  0
   23.3167   64.9982   10.9323 O   0  0  0  0  0  0  0  0  0  0  0  0
   25.6522   65.6640   10.7813 C   0  0  0  0  0  0  0  0  0  0  0  0
   26.5050   64.4801   10.7513 N   0  0  0  0  0  0  0  0  0  0  0  0
   26.2425   63.4129    9.9121 C   0  0  0  0  0  0  0  0  0  0  0  0
   25.4618   63.3683    8.9851 O   0  0  0  0  0  0  0  0  0  0  0  0
   27.0427   62.2278   10.4938 C   0  0  0  0  0  0  0  0  0  0  0  0
   27.2347   61.1562    9.9677 O   0  0  0  0  0  0  0  0  0  0  0  0
   27.4766   62.6525   11.7235 N   0  0  0  0  0  0  0  0  0  0  0  0
   27.1373   64.0261   11.9710 C   0  0  0  0  0  0  0  0  0  0  0  0
   26.1990   64.1882   13.1971 C   0  0  0  0  0  0  0  0  0  0  0  0
   26.5456   65.3614   13.9523 O   0  0  0  0  0  0  0  0  0  0  0  0
   23.5243   64.1686   10.4744 H   0  0  0  0  0  0  0  0  0  0  0  0
   27.9636   62.0827   12.3618 H   0  0  0  0  0  0  0  0  0  0  0  0
   26.4250   66.1492   13.3993 H   0  0  0  0  0  0  0  0  0  0  0  0
   26.4345   66.9438   11.1324 C   0  0  0  0  0  0  0  0  0  0  0  0
   27.0142   67.5190    9.9587 O   0  0  0  0  0  0  0  0  0  0  0  0
   27.6286   66.8846    9.5574 H   0  0  0  0  0  0  0  0  0  0  0  0
   22.8710   63.6585   14.1725 C   0  0  0  0  0  0  0  0  0  0  0  0
   23.9795   64.5354   14.0004 O   0  0  0  0  0  0  0  0  0  0  0  0
 20 21  1  0
  1 21  1  0
  1  2  1  0
  2  3  1  0
  2  4  1  0
  4 17  1  0
 17 18  1  0
  4  5  1  0
  5  6  1  0
  6  7  2  0
  6  8  1  0
  8  9  2  0
  8 10  1  0
 11 10  1  0
 11 12  1  0
 12 13  1  0
 12  1  1  0
 11  5  1  0
  3 14  1  0
 18 19  1  0
 10 15  1  0
 13 16  1  0
M  END
> <minimizedAffinity>
-5.36176

> <CNNscore>
0.1743632853

> <CNNaffinity>
3.1898841858

> <CNN_VS>
0.5561987162

> <CNNaffinity_variance>
0.3443201780

$$$$



 21 22  0  0  0  0  0  0  0  0999 V2000
   24.5610   65.3494   10.9505 C   0  0  0  0  0  0  0  0  0  0  0  0
   25.9826   65.1725   10.3371 C   0  0  0  0  0  0  0  0  0  0  0  0
   26.9220   65.0744   11.4324 O   0  0  0  0  0  0  0  0  0  0  0  0
   26.4121   66.3433    9.4199 C   0  0  0  0  0  0  0  0  0  0  0  0
   25.6428   67.5345    9.7656 N   0  0  0  0  0  0  0  0  0  0  0  0
   26.0243   68.3761   10.7943 C   0  0  0  0  0  0  0  0  0  0  0  0
   27.0810   68.3944   11.3893 O   0  0  0  0  0  0  0  0  0  0  0  0
   24.7642   69.1985   11.1393 C   0  0  0  0  0  0  0  0  0  0  0  0
   24.7076   70.1692   11.8580 O   0  0  0  0  0  0  0  0  0  0  0  0
   23.7379   68.5894   10.4636 N   0  0  0  0  0  0  0  0  0  0  0  0
   24.2026   67.5176    9.6280 C   0  0  0  0  0  0  0  0  0  0  0  0
   23.6037   66.1468   10.0425 C   0  0  0  0  0  0  0  0  0  0  0  0
   23.3018   65.3512    8.8837 O   0  0  0  0  0  0  0  0  0  0  0  0
   26.8978   65.8923   11.9534 H   0  0  0  0  0  0  0  0  0  0  0  0
   22.7933   68.8557   10.5421 H   0  0  0  0  0  0  0  0  0  0  0  0
   24.1200   65.1654    8.3970 H   0  0  0  0  0  0  0  0  0  0  0  0
   26.3219   65.9994    7.9210 C   0  0  0  0  0  0  0  0  0  0  0  0
   25.7961   64.6826    7.7360 O   0  0  0  0  0  0  0  0  0  0  0  0
   26.3812   64.0379    8.1637 H   0  0  0  0  0  0  0  0  0  0  0  0
   24.6840   62.9697   10.6866 C   0  0  0  0  0  0  0  0  0  0  0  0
   23.9234   64.0705   11.1735 O   0  0  0  0  0  0  0  0  0  0  0  0
 20 21  1  0
  1 21  1  0
  1  2  1  0
  2  3  1  0
  2  4  1  0
  4 17  1  0
 17 18  1  0
  4  5  1  0
  5  6  1  0
  6  7  2  0
  6  8  1  0
  8  9  2  0
  8 10  1  0
 11 10  1  0
 11 12  1  0
 12 13  1  0
 12  1  1  0
 11  5  1  0
  3 14  1  0
 18 19  1  0
 10 15  1  0
 13 16  1  0
M  END
> <minimizedAffinity>
-5.31139

> <CNNscore>
0.1578801572

> <CNNaffinity>
2.5959701538

> <CNN_VS>
0.4098521769

> <CNNaffinity_variance>
0.8268734813

$$$$



 21 22  0  0  0  0  0  0  0  0999 V2000
   27.9210   65.5053   10.4614 C   0  0  0  0  0  0  0  0  0  0  0  0
   26.4076   65.6218   10.8142 C   0  0  0  0  0  0  0  0  0  0  0  0
   26.0807   67.0293   10.8775 O   0  0  0  0  0  0  0  0  0  0  0  0
   26.0338   64.9656   12.1656 C   0  0  0  0  0  0  0  0  0  0  0  0
   27.2245   64.8770   13.0048 N   0  0  0  0  0  0  0  0  0  0  0  0
   27.6456   65.9361   13.7878 C   0  0  0  0  0  0  0  0  0  0  0  0
   27.0378   66.9497   14.0598 O   0  0  0  0  0  0  0  0  0  0  0  0
   29.1209   65.6336   14.1269 C   0  0  0  0  0  0  0  0  0  0  0  0
   29.8115   66.2116   14.9339 O   0  0  0  0  0  0  0  0  0  0  0  0
   29.4704   64.5827   13.3181 N   0  0  0  0  0  0  0  0  0  0  0  0
   28.3549   64.0924   12.5576 C   0  0  0  0  0  0  0  0  0  0  0  0
   28.5794   64.2317   11.0279 C   0  0  0  0  0  0  0  0  0  0  0  0
   28.0497   63.0922   10.3294 O   0  0  0  0  0  0  0  0  0  0  0  0
   26.6054   67.4521   11.5752 H   0  0  0  0  0  0  0  0  0  0  0  0
   30.3794   64.2083   13.2648 H   0  0  0  0  0  0  0  0  0  0  0  0
   27.0912   63.0436   10.4700 H   0  0  0  0  0  0  0  0  0  0  0  0
   25.3277   63.6063   12.0010 C   0  0  0  0  0  0  0  0  0  0  0  0
   25.0738   63.0118   13.2763 O   0  0  0  0  0  0  0  0  0  0  0  0
   25.9142   62.8665   13.7385 H   0  0  0  0  0  0  0  0  0  0  0  0
   29.0738   66.4043    8.5612 C   0  0  0  0  0  0  0  0  0  0  0  0
   28.1232   65.4537    9.0302 O   0  0  0  0  0  0  0  0  0  0  0  0
 20 21  1  0
  1 21  1  0
  1  2  1  0
  2  3  1  0
  2  4  1  0
  4 17  1  0
 17 18  1  0
  4  5  1  0
  5  6  1  0
  6  7  2  0
  6  8  1  0
  8  9  2  0
  8 10  1  0
 11 10  1  0
 11 12  1  0
 12 13  1  0
 12  1  1  0
 11  5  1  0
  3 14  1  0
 18 19  1  0
 10 15  1  0
 13 16  1  0
M  END
> <minimizedAffinity>
-5.62395

> <CNNscore>
0.1557906568

> <CNNaffinity>
2.8087399006

> <CNN_VS>
0.4375754297

> <CNNaffinity_variance>
1.0352960825

$$$$



 21 22  0  0  0  0  0  0  0  0999 V2000
   27.3239   65.0347   10.4201 C   0  0  0  0  0  0  0  0  0  0  0  0
   28.7472   64.4974   10.7583 C   0  0  0  0  0  0  0  0  0  0  0  0
   28.6909   63.9126   12.0799 O   0  0  0  0  0  0  0  0  0  0  0  0
   29.8417   65.5921   10.7475 C   0  0  0  0  0  0  0  0  0  0  0  0
   29.2209   66.8974   10.9499 N   0  0  0  0  0  0  0  0  0  0  0  0
   28.9367   67.3819   12.2134 C   0  0  0  0  0  0  0  0  0  0  0  0
   29.3162   66.9485   13.2807 O   0  0  0  0  0  0  0  0  0  0  0  0
   27.9038   68.5087   11.9973 C   0  0  0  0  0  0  0  0  0  0  0  0
   27.5242   69.3102   12.8191 O   0  0  0  0  0  0  0  0  0  0  0  0
   27.5147   68.3969   10.6869 N   0  0  0  0  0  0  0  0  0  0  0  0
   28.2563   67.3847    9.9880 C   0  0  0  0  0  0  0  0  0  0  0  0
   27.3436   66.2436    9.4638 C   0  0  0  0  0  0  0  0  0  0  0  0
   27.7794   65.7967    8.1687 O   0  0  0  0  0  0  0  0  0  0  0  0
   28.4445   64.5940   12.7248 H   0  0  0  0  0  0  0  0  0  0  0  0
   26.8098   68.9461   10.2738 H   0  0  0  0  0  0  0  0  0  0  0  0
   28.6754   65.4315    8.2373 H   0  0  0  0  0  0  0  0  0  0  0  0
   30.7243   65.5499    9.4856 C   0  0  0  0  0  0  0  0  0  0  0  0
   32.0709   65.2071    9.8228 O   0  0  0  0  0  0  0  0  0  0  0  0
   32.4326   65.8738   10.4275 H   0  0  0  0  0  0  0  0  0  0  0  0
   25.4922   63.4976   10.5938 C   0  0  0  0  0  0  0  0  0  0  0  0
   26.5238   64.0234    9.7651 O   0  0  0  0  0  0  0  0  0  0  0  0
 20 21  1  0
  1 21  1  0
  1  2  1  0
  2  3  1  0
  2  4  1  0
  4 17  1  0
 17 18  1  0
  4  5  1  0
  5  6  1  0
  6  7  2  0
  6  8  1  0
  8  9  2  0
  8 10  1  0
 11 10  1  0
 11 12  1  0
 12 13  1  0
 12  1  1  0
 11  5  1  0
  3 14  1  0
 18 19  1  0
 10 15  1  0
 13 16  1  0
M  END
> <minimizedAffinity>
-5.89602

> <CNNscore>
0.1550028622

> <CNNaffinity>
2.4570896626

> <CNN_VS>
0.3808559179

> <CNNaffinity_variance>
1.5689922571

$$$$



 21 22  0  0  0  0  0  0  0  0999 V2000
   26.3665   64.5834   12.1132 C   0  0  0  0  0  0  0  0  0  0  0  0
   26.6648   63.8674   10.7616 C   0  0  0  0  0  0  0  0  0  0  0  0
   27.6237   64.6758   10.0412 O   0  0  0  0  0  0  0  0  0  0  0  0
   25.4123   63.6748    9.8723 C   0  0  0  0  0  0  0  0  0  0  0  0
   24.3956   64.6501   10.2531 N   0  0  0  0  0  0  0  0  0  0  0  0
   24.3931   65.9369    9.7468 C   0  0  0  0  0  0  0  0  0  0  0  0
   25.0407   66.3741    8.8192 O   0  0  0  0  0  0  0  0  0  0  0  0
   23.5018   66.7533   10.7071 C   0  0  0  0  0  0  0  0  0  0  0  0
   23.0903   67.8770   10.5338 O   0  0  0  0  0  0  0  0  0  0  0  0
   23.2876   65.9347   11.7865 N   0  0  0  0  0  0  0  0  0  0  0  0
   23.8549   64.6291   11.5950 C   0  0  0  0  0  0  0  0  0  0  0  0
   24.9480   64.3028   12.6478 C   0  0  0  0  0  0  0  0  0  0  0  0
   24.8736   62.9243   13.0491 O   0  0  0  0  0  0  0  0  0  0  0  0
   27.2412   65.5492    9.8631 H   0  0  0  0  0  0  0  0  0  0  0  0
   22.8020   66.2098   12.5975 H   0  0  0  0  0  0  0  0  0  0  0  0
   25.0423   62.3547   12.2822 H   0  0  0  0  0  0  0  0  0  0  0  0
   24.8773   62.2304    9.8890 C   0  0  0  0  0  0  0  0  0  0  0  0
   25.7416   61.3635    9.1500 O   0  0  0  0  0  0  0  0  0  0  0  0
   25.7884   61.6623    8.2284 H   0  0  0  0  0  0  0  0  0  0  0  0
   28.1755   63.1309   12.7180 C   0  0  0  0  0  0  0  0  0  0  0  0
   27.2751   64.1458   13.1500 O   0  0  0  0  0  0  0  0  0  0  0  0
 20 21  1  0
  1 21  1  0
  1  2  1  0
  2  3  1  0
  2  4  1  0
  4 17  1  0
 17 18  1  0
  4  5  1  0
  5  6  1  0
  6  7  2  0
  6  8  1  0
  8  9  2  0
  8 10  1  0
 11 10  1  0
 11 12  1  0
 12 13  1  0
 12  1  1  0
 11  5  1  0
  3 14  1  0
 18 19  1  0
 10 15  1  0
 13 16  1  0
M  END
> <minimizedAffinity>
-5.67398

> <CNNscore>
0.1533530354

> <CNNaffinity>
2.6785850525

> <CNN_VS>
0.4107691348

> <CNNaffinity_variance>
0.8014766574

$$$$



 21 22  0  0  0  0  0  0  0  0999 V2000
   28.6862   66.7532   12.7212 C   0  0  0  0  0  0  0  0  0  0  0  0
   29.0513   65.2467   12.5603 C   0  0  0  0  0  0  0  0  0  0  0  0
   29.9760   65.1370   11.4535 O   0  0  0  0  0  0  0  0  0  0  0  0
   27.8294   64.3396   12.2762 C   0  0  0  0  0  0  0  0  0  0  0  0
   26.7511   65.1452   11.7119 N   0  0  0  0  0  0  0  0  0  0  0  0
   26.6846   65.4313   10.3607 C   0  0  0  0  0  0  0  0  0  0  0  0
   27.3239   64.9297    9.4603 O   0  0  0  0  0  0  0  0  0  0  0  0
   25.7294   66.6384   10.2441 C   0  0  0  0  0  0  0  0  0  0  0  0
   25.2576   67.0928    9.2277 O   0  0  0  0  0  0  0  0  0  0  0  0
   25.5418   67.0774   11.5297 N   0  0  0  0  0  0  0  0  0  0  0  0
   26.1866   66.2263   12.4904 C   0  0  0  0  0  0  0  0  0  0  0  0
   27.2761   66.9765   13.3028 C   0  0  0  0  0  0  0  0  0  0  0  0
   27.2732   66.5487   14.6754 O   0  0  0  0  0  0  0  0  0  0  0  0
   29.5475   65.4510   10.6419 H   0  0  0  0  0  0  0  0  0  0  0  0
   25.0256   67.8816   11.7665 H   0  0  0  0  0  0  0  0  0  0  0  0
   27.4892   65.6041   14.7201 H   0  0  0  0  0  0  0  0  0  0  0  0
   27.3779   63.5329   13.5085 C   0  0  0  0  0  0  0  0  0  0  0  0
   28.1815   62.3608   13.6664 O   0  0  0  0  0  0  0  0  0  0  0  0
   28.0904   61.7981   12.8816 H   0  0  0  0  0  0  0  0  0  0  0  0
   29.9190   68.7476   13.2218 C   0  0  0  0  0  0  0  0  0  0  0  0
   29.5982   67.4200   13.6243 O   0  0  0  0  0  0  0  0  0  0  0  0
 20 21  1  0
  1 21  1  0
  1  2  1  0
  2  3  1  0
  2  4  1  0
  4 17  1  0
 17 18  1  0
  4  5  1  0
  5  6  1  0
  6  7  2  0
  6  8  1  0
  8  9  2  0
  8 10  1  0
 11 10  1  0
 11 12  1  0
 12 13  1  0
 12  1  1  0
 11  5  1  0
  3 14  1  0
 18 19  1  0
 10 15  1  0
 13 16  1  0
M  END
> <minimizedAffinity>
-4.94243

> <CNNscore>
0.1530775130

> <CNNaffinity>
2.5890274048

> <CNN_VS>
0.3963218629

> <CNNaffinity_variance>
1.0811396837

$$$$
