


 40 47  0  0  0  0  0  0  0  0999 V2000
    3.1383    3.5928   14.7783 C   0  0  0  0  0  0  0  0  0  0  0  0
    2.3152    4.3507   15.8293 C   0  0  0  0  0  0  0  0  0  0  0  0
    3.0601    4.4489   17.1666 C   0  0  0  0  0  0  0  0  0  0  0  0
    4.3040    3.7535   17.2052 O   0  0  0  0  0  0  0  0  0  0  0  0
    5.2368    3.9735   16.1164 C   0  0  0  0  0  0  0  0  0  0  0  0
    5.9391    2.5952   16.0910 C   0  0  0  0  0  0  0  0  0  0  0  0
    4.5443    4.2403   14.7363 C   0  0  0  0  0  0  0  0  0  0  0  0
    6.1530    5.0658   16.4938 N   0  0  0  0  0  0  0  0  0  0  0  0
    7.4674    5.2749   16.0774 C   0  0  0  0  0  0  0  0  0  0  0  0
    8.3040    4.5815   15.1822 C   0  0  0  0  0  0  0  0  0  0  0  0
    9.6190    5.0220   14.9976 C   0  0  0  0  0  0  0  0  0  0  0  0
   10.0999    6.1361   15.6688 C   0  0  0  0  0  0  0  0  0  0  0  0
    9.2648    6.8521   16.5270 C   0  0  0  0  0  0  0  0  0  0  0  0
    7.9314    6.4328   16.7311 C   0  0  0  0  0  0  0  0  0  0  0  0
    6.8399    6.9894   17.4527 C   0  0  0  0  0  0  0  0  0  0  0  0
    6.5968    8.1391   18.2224 C   0  0  0  0  0  0  0  0  0  0  0  0
    5.2992    8.4390   18.7410 C   0  0  0  0  0  0  0  0  0  0  0  0
    4.1536    7.6512   18.5523 C   0  0  0  0  0  0  0  0  0  0  0  0
    2.7631    7.6677   18.8815 C   0  0  0  0  0  0  0  0  0  0  0  0
    1.9258    8.5620   19.5824 C   0  0  0  0  0  0  0  0  0  0  0  0
    0.5716    8.2667   19.7246 C   0  0  0  0  0  0  0  0  0  0  0  0
   -0.2196    9.1197   20.3900 F   0  0  0  0  0  0  0  0  0  0  0  0
    0.0208    7.1113   19.1946 C   0  0  0  0  0  0  0  0  0  0  0  0
    0.8197    6.2041   18.4972 C   0  0  0  0  0  0  0  0  0  0  0  0
    2.1881    6.4993   18.3487 C   0  0  0  0  0  0  0  0  0  0  0  0
    3.2033    5.7891   17.7239 N   0  0  0  0  0  0  0  0  0  0  0  0
    4.3639    6.4911   17.8266 C   0  0  0  0  0  0  0  0  0  0  0  0
    5.7706    6.1423   17.2537 C   0  0  0  0  0  0  0  0  0  0  0  0
    5.4117    9.7158   19.4596 C   0  0  0  0  0  0  0  0  0  0  0  0
    4.5367   10.3118   20.0533 O   0  0  0  0  0  0  0  0  0  0  0  0
    6.7135   10.1387   19.3398 N   0  0  0  0  0  0  0  0  0  0  0  0
    7.5446    9.2310   18.6278 C   0  0  0  0  0  0  0  0  0  0  0  0
    8.0748    9.9438   17.5393 O   0  0  0  0  0  0  0  0  0  0  0  0
    7.0400   10.9897   19.7119 H   0  0  0  0  0  0  0  0  0  0  0  0
    7.3510   10.3352   17.0258 H   0  0  0  0  0  0  0  0  0  0  0  0
    3.2702    3.3318   12.3525 C   0  0  0  0  0  0  0  0  0  0  0  0
    2.4081    3.6112   13.4941 N   0  0  0  0  0  0  0  0  0  0  0  0
    1.6719    2.9061   13.5272 H   0  0  0  0  0  0  0  0  0  0  0  0
    4.3845    5.6595   14.5232 O   0  0  0  0  0  0  0  0  0  0  0  0
    4.6347    6.4390   15.6836 C   0  0  0  0  0  0  0  0  0  0  0  0
 36 37  1  0
  1 37  1  0
  1  2  1  0
  3  2  1  0
  3  4  1  0
  4  5  1  0
  5  6  1  0
  5  7  1  0
  7 39  1  0
 39 40  1  0
  5  8  1  0
  8  9  1  0
  9 10  2  0
 10 11  1  0
 11 12  2  0
 12 13  1  0
 13 14  2  0
 14 15  1  0
 15 16  2  0
 16 17  1  0
 17 18  2  0
 18 19  1  0
 19 20  2  0
 20 21  1  0
 21 22  1  0
 21 23  2  0
 23 24  1  0
 24 25  2  0
 25 26  1  0
 26 27  1  0
 27 28  2  0
 17 29  1  0
 29 30  2  0
 29 31  1  0
 31 32  1  0
 32 33  1  0
  7  1  1  0
 28  8  1  0
 26  3  1  0
 14  9  1  0
 28 15  1  0
 32 16  1  0
 27 18  1  0
 25 19  1  0
 37 38  1  0
 31 34  1  0
 33 35  1  0
M  END
> <minimizedAffinity>
-13.47219

> <CNNscore>
0.9938542843

> <CNNaffinity>
8.2137718201

> <CNN_VS>
8.1632919312

> <CNNaffinity_variance>
0.0766095445

$$$$



 40 47  0  0  0  0  0  0  0  0999 V2000
    3.8396    3.8319   13.5389 C   0  0  0  0  0  0  0  0  0  0  0  0
    2.6892    4.1981   14.4871 C   0  0  0  0  0  0  0  0  0  0  0  0
    3.1181    4.1063   15.9569 C   0  0  0  0  0  0  0  0  0  0  0  0
    4.4428    3.6200   16.1591 O   0  0  0  0  0  0  0  0  0  0  0  0
    5.5105    4.2201   15.3819 C   0  0  0  0  0  0  0  0  0  0  0  0
    6.4648    3.0077   15.2685 C   0  0  0  0  0  0  0  0  0  0  0  0
    5.0673    4.6807   13.9512 C   0  0  0  0  0  0  0  0  0  0  0  0
    6.0959    5.3271   16.1608 N   0  0  0  0  0  0  0  0  0  0  0  0
    7.3979    5.8242   16.1132 C   0  0  0  0  0  0  0  0  0  0  0  0
    8.5174    5.4871   15.3286 C   0  0  0  0  0  0  0  0  0  0  0  0
    9.7277    6.1548   15.5451 C   0  0  0  0  0  0  0  0  0  0  0  0
    9.8327    7.1497   16.5053 C   0  0  0  0  0  0  0  0  0  0  0  0
    8.7175    7.5170   17.2591 C   0  0  0  0  0  0  0  0  0  0  0  0
    7.4816    6.8625   17.0608 C   0  0  0  0  0  0  0  0  0  0  0  0
    6.1794    7.0678   17.5941 C   0  0  0  0  0  0  0  0  0  0  0  0
    5.5632    7.9635   18.4837 C   0  0  0  0  0  0  0  0  0  0  0  0
    4.1552    7.9357   18.7271 C   0  0  0  0  0  0  0  0  0  0  0  0
    3.2511    7.0439   18.1303 C   0  0  0  0  0  0  0  0  0  0  0  0
    1.8483    6.7718   18.1186 C   0  0  0  0  0  0  0  0  0  0  0  0
    0.7267    7.3458   18.7548 C   0  0  0  0  0  0  0  0  0  0  0  0
   -0.5417    6.8214   18.5155 C   0  0  0  0  0  0  0  0  0  0  0  0
   -1.6038    7.3706   19.1211 F   0  0  0  0  0  0  0  0  0  0  0  0
   -0.7337    5.7441   17.6658 C   0  0  0  0  0  0  0  0  0  0  0  0
    0.3529    5.1511   17.0214 C   0  0  0  0  0  0  0  0  0  0  0  0
    1.6362    5.6791   17.2581 C   0  0  0  0  0  0  0  0  0  0  0  0
    2.8766    5.2924   16.7706 N   0  0  0  0  0  0  0  0  0  0  0  0
    3.8292    6.1234   17.2730 C   0  0  0  0  0  0  0  0  0  0  0  0
    5.3626    6.1331   16.9946 C   0  0  0  0  0  0  0  0  0  0  0  0
    3.8648    9.0198   19.6755 C   0  0  0  0  0  0  0  0  0  0  0  0
    2.7880    9.3251   20.1453 O   0  0  0  0  0  0  0  0  0  0  0  0
    5.0530    9.6540   19.9475 N   0  0  0  0  0  0  0  0  0  0  0  0
    6.1735    9.0686   19.2968 C   0  0  0  0  0  0  0  0  0  0  0  0
    6.7563   10.0809   18.5159 O   0  0  0  0  0  0  0  0  0  0  0  0
    5.1220   10.4393   20.5371 H   0  0  0  0  0  0  0  0  0  0  0  0
    6.0858   10.4617   17.9274 H   0  0  0  0  0  0  0  0  0  0  0  0
    3.6794    2.8774   11.2954 C   0  0  0  0  0  0  0  0  0  0  0  0
    3.3909    4.0262   12.1447 N   0  0  0  0  0  0  0  0  0  0  0  0
    2.3836    4.1866   12.1455 H   0  0  0  0  0  0  0  0  0  0  0  0
    4.6727    6.0696   13.9730 O   0  0  0  0  0  0  0  0  0  0  0  0
    4.4678    6.5805   15.2820 C   0  0  0  0  0  0  0  0  0  0  0  0
 36 37  1  0
  1 37  1  0
  1  2  1  0
  3  2  1  0
  3  4  1  0
  4  5  1  0
  5  6  1  0
  5  7  1  0
  7 39  1  0
 39 40  1  0
  5  8  1  0
  8  9  1  0
  9 10  2  0
 10 11  1  0
 11 12  2  0
 12 13  1  0
 13 14  2  0
 14 15  1  0
 15 16  2  0
 16 17  1  0
 17 18  2  0
 18 19  1  0
 19 20  2  0
 20 21  1  0
 21 22  1  0
 21 23  2  0
 23 24  1  0
 24 25  2  0
 25 26  1  0
 26 27  1  0
 27 28  2  0
 17 29  1  0
 29 30  2  0
 29 31  1  0
 31 32  1  0
 32 33  1  0
  7  1  1  0
 28  8  1  0
 26  3  1  0
 14  9  1  0
 28 15  1  0
 32 16  1  0
 27 18  1  0
 25 19  1  0
 37 38  1  0
 31 34  1  0
 33 35  1  0
M  END
> <minimizedAffinity>
-12.38505

> <CNNscore>
0.8840652108

> <CNNaffinity>
7.6506190300

> <CNN_VS>
6.7636461258

> <CNNaffinity_variance>
0.0753782466

$$$$



 40 47  0  0  0  0  0  0  0  0999 V2000
    4.4272    2.5457   14.9462 C   0  0  0  0  0  0  0  0  0  0  0  0
    5.8504    3.1205   14.9205 C   0  0  0  0  0  0  0  0  0  0  0  0
    5.8469    4.6236   14.6151 C   0  0  0  0  0  0  0  0  0  0  0  0
    4.5608    5.1676   14.3279 O   0  0  0  0  0  0  0  0  0  0  0  0
    3.4758    4.8582   15.2395 C   0  0  0  0  0  0  0  0  0  0  0  0
    2.2863    4.8900   14.2508 C   0  0  0  0  0  0  0  0  0  0  0  0
    3.5848    3.4374   15.8912 C   0  0  0  0  0  0  0  0  0  0  0  0
    3.3937    5.9254   16.2542 N   0  0  0  0  0  0  0  0  0  0  0  0
    2.2742    6.3611   16.9623 C   0  0  0  0  0  0  0  0  0  0  0  0
    0.9326    5.9342   16.9787 C   0  0  0  0  0  0  0  0  0  0  0  0
    0.0112    6.6119   17.7843 C   0  0  0  0  0  0  0  0  0  0  0  0
    0.4043    7.6816   18.5745 C   0  0  0  0  0  0  0  0  0  0  0  0
    1.7398    8.0851   18.5940 C   0  0  0  0  0  0  0  0  0  0  0  0
    2.6933    7.4181   17.7933 C   0  0  0  0  0  0  0  0  0  0  0  0
    4.1050    7.5334   17.6682 C   0  0  0  0  0  0  0  0  0  0  0  0
    5.1295    8.2945   18.2553 C   0  0  0  0  0  0  0  0  0  0  0  0
    6.5066    8.0724   17.9443 C   0  0  0  0  0  0  0  0  0  0  0  0
    6.9851    7.1045   17.0483 C   0  0  0  0  0  0  0  0  0  0  0  0
    8.2314    6.6116   16.5522 C   0  0  0  0  0  0  0  0  0  0  0  0
    9.5849    6.9308   16.7935 C   0  0  0  0  0  0  0  0  0  0  0  0
   10.5856    6.2326   16.1210 C   0  0  0  0  0  0  0  0  0  0  0  0
   11.8694    6.5387   16.3544 F   0  0  0  0  0  0  0  0  0  0  0  0
   10.2869    5.2279   15.2150 C   0  0  0  0  0  0  0  0  0  0  0  0
    8.9595    4.8874   14.9511 C   0  0  0  0  0  0  0  0  0  0  0  0
    7.9449    5.5883   15.6301 C   0  0  0  0  0  0  0  0  0  0  0  0
    6.5639    5.4718   15.5606 N   0  0  0  0  0  0  0  0  0  0  0  0
    5.9999    6.3583   16.4245 C   0  0  0  0  0  0  0  0  0  0  0  0
    4.4919    6.5847   16.7459 C   0  0  0  0  0  0  0  0  0  0  0  0
    7.2851    9.0177   18.7565 C   0  0  0  0  0  0  0  0  0  0  0  0
    8.4905    9.1585   18.7784 O   0  0  0  0  0  0  0  0  0  0  0  0
    6.3926    9.7360   19.5152 N   0  0  0  0  0  0  0  0  0  0  0  0
    5.0334    9.4012   19.2656 C   0  0  0  0  0  0  0  0  0  0  0  0
    4.4906    8.9906   20.4947 O   0  0  0  0  0  0  0  0  0  0  0  0
    6.6681   10.4179   20.1696 H   0  0  0  0  0  0  0  0  0  0  0  0
    5.0332    8.2773   20.8657 H   0  0  0  0  0  0  0  0  0  0  0  0
    3.2651    0.3979   15.0273 C   0  0  0  0  0  0  0  0  0  0  0  0
    4.4932    1.1212   15.3324 N   0  0  0  0  0  0  0  0  0  0  0  0
    5.2641    0.6821   14.8292 H   0  0  0  0  0  0  0  0  0  0  0  0
    4.2647    3.5212   17.1624 O   0  0  0  0  0  0  0  0  0  0  0  0
    5.4210    2.7007   17.2423 C   0  0  0  0  0  0  0  0  0  0  0  0
 36 37  1  0
  1 37  1  0
  1  2  1  0
  3  2  1  0
  3  4  1  0
  4  5  1  0
  5  6  1  0
  5  7  1  0
  7 39  1  0
 39 40  1  0
  5  8  1  0
  8  9  1  0
  9 10  2  0
 10 11  1  0
 11 12  2  0
 12 13  1  0
 13 14  2  0
 14 15  1  0
 15 16  2  0
 16 17  1  0
 17 18  2  0
 18 19  1  0
 19 20  2  0
 20 21  1  0
 21 22  1  0
 21 23  2  0
 23 24  1  0
 24 25  2  0
 25 26  1  0
 26 27  1  0
 27 28  2  0
 17 29  1  0
 29 30  2  0
 29 31  1  0
 31 32  1  0
 32 33  1  0
  7  1  1  0
 28  8  1  0
 26  3  1  0
 14  9  1  0
 28 15  1  0
 32 16  1  0
 27 18  1  0
 25 19  1  0
 37 38  1  0
 31 34  1  0
 33 35  1  0
M  END
> <minimizedAffinity>
-9.83791

> <CNNscore>
0.7646594048

> <CNNaffinity>
7.7530922890

> <CNN_VS>
5.9284749031

> <CNNaffinity_variance>
0.0246248990

$$$$



 40 47  0  0  0  0  0  0  0  0999 V2000
    4.4268    1.7382   11.7398 C   0  0  0  0  0  0  0  0  0  0  0  0
    5.9059    1.7341   12.1504 C   0  0  0  0  0  0  0  0  0  0  0  0
    6.4372    0.3069   12.3330 C   0  0  0  0  0  0  0  0  0  0  0  0
    5.4554   -0.7155   12.1817 O   0  0  0  0  0  0  0  0  0  0  0  0
    4.6005   -0.6654   11.0109 C   0  0  0  0  0  0  0  0  0  0  0  0
    3.3223   -1.3149   11.5923 C   0  0  0  0  0  0  0  0  0  0  0  0
    4.2809    0.7895   10.5247 C   0  0  0  0  0  0  0  0  0  0  0  0
    5.2121   -1.4810    9.9452 N   0  0  0  0  0  0  0  0  0  0  0  0
    4.5789   -2.1601    8.9048 C   0  0  0  0  0  0  0  0  0  0  0  0
    3.2293   -2.2623    8.5170 C   0  0  0  0  0  0  0  0  0  0  0  0
    2.8927   -3.0709    7.4260 C   0  0  0  0  0  0  0  0  0  0  0  0
    3.8680   -3.7552    6.7163 C   0  0  0  0  0  0  0  0  0  0  0  0
    5.2117   -3.6272    7.0697 C   0  0  0  0  0  0  0  0  0  0  0  0
    5.5820   -2.8157    8.1650 C   0  0  0  0  0  0  0  0  0  0  0  0
    6.8401   -2.4236    8.6993 C   0  0  0  0  0  0  0  0  0  0  0  0
    8.1956   -2.6315    8.3941 C   0  0  0  0  0  0  0  0  0  0  0  0
    9.2403   -1.9791    9.1189 C   0  0  0  0  0  0  0  0  0  0  0  0
    9.0470   -1.0859   10.1837 C   0  0  0  0  0  0  0  0  0  0  0  0
    9.8209   -0.2690   11.0645 C   0  0  0  0  0  0  0  0  0  0  0  0
   11.2011   -0.0167   11.2184 C   0  0  0  0  0  0  0  0  0  0  0  0
   11.6321    0.8643   12.2080 C   0  0  0  0  0  0  0  0  0  0  0  0
   12.9436    1.1014   12.3495 F   0  0  0  0  0  0  0  0  0  0  0  0
   10.7376    1.5027   13.0516 C   0  0  0  0  0  0  0  0  0  0  0  0
    9.3661    1.2753   12.9286 C   0  0  0  0  0  0  0  0  0  0  0  0
    8.9256    0.3880   11.9284 C   0  0  0  0  0  0  0  0  0  0  0  0
    7.6460   -0.0275   11.5885 N   0  0  0  0  0  0  0  0  0  0  0  0
    7.7231   -0.8839   10.5345 C   0  0  0  0  0  0  0  0  0  0  0  0
    6.5676   -1.5866    9.7602 C   0  0  0  0  0  0  0  0  0  0  0  0
   10.5096   -2.4039    8.5127 C   0  0  0  0  0  0  0  0  0  0  0  0
   11.6328   -2.0840    8.8435 O   0  0  0  0  0  0  0  0  0  0  0  0
   10.2033   -3.2474    7.4722 N   0  0  0  0  0  0  0  0  0  0  0  0
    8.8099   -3.4892    7.3255 C   0  0  0  0  0  0  0  0  0  0  0  0
    8.4694   -3.0885    6.0226 O   0  0  0  0  0  0  0  0  0  0  0  0
   10.8843   -3.6467    6.8838 H   0  0  0  0  0  0  0  0  0  0  0  0
    8.7491   -2.1702    5.8832 H   0  0  0  0  0  0  0  0  0  0  0  0
    3.7408    3.8665   12.7247 C   0  0  0  0  0  0  0  0  0  0  0  0
    4.0023    3.1318   11.4934 N   0  0  0  0  0  0  0  0  0  0  0  0
    4.7402    3.6113   10.9777 H   0  0  0  0  0  0  0  0  0  0  0  0
    5.2275    1.1979    9.5135 O   0  0  0  0  0  0  0  0  0  0  0  0
    5.3217    2.6066    9.3608 C   0  0  0  0  0  0  0  0  0  0  0  0
 36 37  1  0
  1 37  1  0
  1  2  1  0
  3  2  1  0
  3  4  1  0
  4  5  1  0
  5  6  1  0
  5  7  1  0
  7 39  1  0
 39 40  1  0
  5  8  1  0
  8  9  1  0
  9 10  2  0
 10 11  1  0
 11 12  2  0
 12 13  1  0
 13 14  2  0
 14 15  1  0
 15 16  2  0
 16 17  1  0
 17 18  2  0
 18 19  1  0
 19 20  2  0
 20 21  1  0
 21 22  1  0
 21 23  2  0
 23 24  1  0
 24 25  2  0
 25 26  1  0
 26 27  1  0
 27 28  2  0
 17 29  1  0
 29 30  2  0
 29 31  1  0
 31 32  1  0
 32 33  1  0
  7  1  1  0
 28  8  1  0
 26  3  1  0
 14  9  1  0
 28 15  1  0
 32 16  1  0
 27 18  1  0
 25 19  1  0
 37 38  1  0
 31 34  1  0
 33 35  1  0
M  END
> <minimizedAffinity>
-6.37631

> <CNNscore>
0.3040663600

> <CNNaffinity>
5.4569296837

> <CNN_VS>
1.6592687368

> <CNNaffinity_variance>
0.2600143850

$$$$



 40 47  0  0  0  0  0  0  0  0999 V2000
    9.4825    1.7369    8.8167 C   0  0  0  0  0  0  0  0  0  0  0  0
    8.0192    2.0723    9.1373 C   0  0  0  0  0  0  0  0  0  0  0  0
    7.0532    1.1002    8.4485 C   0  0  0  0  0  0  0  0  0  0  0  0
    7.6793    0.1515    7.5881 O   0  0  0  0  0  0  0  0  0  0  0  0
    8.8168   -0.5848    8.1058 C   0  0  0  0  0  0  0  0  0  0  0  0
    9.6062   -0.8035    6.7933 C   0  0  0  0  0  0  0  0  0  0  0  0
    9.6895    0.2323    9.1187 C   0  0  0  0  0  0  0  0  0  0  0  0
    8.3334   -1.8498    8.6899 N   0  0  0  0  0  0  0  0  0  0  0  0
    9.0113   -3.0627    8.8080 C   0  0  0  0  0  0  0  0  0  0  0  0
   10.3184   -3.4597    8.4672 C   0  0  0  0  0  0  0  0  0  0  0  0
   10.7036   -4.7884    8.6756 C   0  0  0  0  0  0  0  0  0  0  0  0
    9.8246   -5.7090    9.2259 C   0  0  0  0  0  0  0  0  0  0  0  0
    8.5408   -5.3136    9.6032 C   0  0  0  0  0  0  0  0  0  0  0  0
    8.1246   -3.9780    9.4074 C   0  0  0  0  0  0  0  0  0  0  0  0
    6.9443   -3.2686    9.7618 C   0  0  0  0  0  0  0  0  0  0  0  0
    5.7443   -3.5440   10.4382 C   0  0  0  0  0  0  0  0  0  0  0  0
    4.7792   -2.5248   10.7072 C   0  0  0  0  0  0  0  0  0  0  0  0
    4.9073   -1.1763   10.3416 C   0  0  0  0  0  0  0  0  0  0  0  0
    4.1909    0.0531   10.4736 C   0  0  0  0  0  0  0  0  0  0  0  0
    2.9708    0.4239   11.0787 C   0  0  0  0  0  0  0  0  0  0  0  0
    2.5521    1.7515   11.0229 C   0  0  0  0  0  0  0  0  0  0  0  0
    1.3933    2.0988   11.6000 F   0  0  0  0  0  0  0  0  0  0  0  0
    3.3043    2.7241   10.3845 C   0  0  0  0  0  0  0  0  0  0  0  0
    4.5148    2.3924    9.7741 C   0  0  0  0  0  0  0  0  0  0  0  0
    4.9434    1.0527    9.8301 C   0  0  0  0  0  0  0  0  0  0  0  0
    6.0784    0.4446    9.3129 N   0  0  0  0  0  0  0  0  0  0  0  0
    6.0634   -0.8752    9.6421 C   0  0  0  0  0  0  0  0  0  0  0  0
    7.1285   -1.9707    9.3351 C   0  0  0  0  0  0  0  0  0  0  0  0
    3.6812   -3.1618   11.4474 C   0  0  0  0  0  0  0  0  0  0  0  0
    2.6618   -2.6429   11.8533 O   0  0  0  0  0  0  0  0  0  0  0  0
    4.0135   -4.4848   11.6128 N   0  0  0  0  0  0  0  0  0  0  0  0
    5.2466   -4.8435   11.0026 C   0  0  0  0  0  0  0  0  0  0  0  0
    6.0629   -5.3589   12.0234 O   0  0  0  0  0  0  0  0  0  0  0  0
    3.4509   -5.1239   12.1072 H   0  0  0  0  0  0  0  0  0  0  0  0
    6.1279   -4.7119   12.7431 H   0  0  0  0  0  0  0  0  0  0  0  0
   11.7365    2.1741    9.6525 C   0  0  0  0  0  0  0  0  0  0  0  0
   10.3606    2.6491    9.5781 N   0  0  0  0  0  0  0  0  0  0  0  0
   10.3547    3.5623    9.1239 H   0  0  0  0  0  0  0  0  0  0  0  0
    9.2556   -0.0231   10.4721 O   0  0  0  0  0  0  0  0  0  0  0  0
   10.2716   -0.5703   11.2997 C   0  0  0  0  0  0  0  0  0  0  0  0
 36 37  1  0
  1 37  1  0
  1  2  1  0
  3  2  1  0
  3  4  1  0
  4  5  1  0
  5  6  1  0
  5  7  1  0
  7 39  1  0
 39 40  1  0
  5  8  1  0
  8  9  1  0
  9 10  2  0
 10 11  1  0
 11 12  2  0
 12 13  1  0
 13 14  2  0
 14 15  1  0
 15 16  2  0
 16 17  1  0
 17 18  2  0
 18 19  1  0
 19 20  2  0
 20 21  1  0
 21 22  1  0
 21 23  2  0
 23 24  1  0
 24 25  2  0
 25 26  1  0
 26 27  1  0
 27 28  2  0
 17 29  1  0
 29 30  2  0
 29 31  1  0
 31 32  1  0
 32 33  1  0
  7  1  1  0
 28  8  1  0
 26  3  1  0
 14  9  1  0
 28 15  1  0
 32 16  1  0
 27 18  1  0
 25 19  1  0
 37 38  1  0
 31 34  1  0
 33 35  1  0
M  END
> <minimizedAffinity>
-6.26171

> <CNNscore>
0.2115207016

> <CNNaffinity>
5.5521292686

> <CNN_VS>
1.1743903160

> <CNNaffinity_variance>
0.1023087278

$$$$



 40 47  0  0  0  0  0  0  0  0999 V2000
    5.6881    3.4465   13.5801 C   0  0  0  0  0  0  0  0  0  0  0  0
    4.2901    3.0020   14.0321 C   0  0  0  0  0  0  0  0  0  0  0  0
    4.1890    2.9244   15.5607 C   0  0  0  0  0  0  0  0  0  0  0  0
    5.4099    3.1829   16.2498 O   0  0  0  0  0  0  0  0  0  0  0  0
    6.1612    4.3660   15.8757 C   0  0  0  0  0  0  0  0  0  0  0  0
    7.5957    3.8710   16.1769 C   0  0  0  0  0  0  0  0  0  0  0  0
    6.0373    4.7386   14.3587 C   0  0  0  0  0  0  0  0  0  0  0  0
    5.7539    5.4800   16.7521 N   0  0  0  0  0  0  0  0  0  0  0  0
    6.5030    6.5877   17.1475 C   0  0  0  0  0  0  0  0  0  0  0  0
    7.8077    7.0151   16.8355 C   0  0  0  0  0  0  0  0  0  0  0  0
    8.3064    8.1766   17.4350 C   0  0  0  0  0  0  0  0  0  0  0  0
    7.5300    8.9163   18.3144 C   0  0  0  0  0  0  0  0  0  0  0  0
    6.2223    8.5212   18.5977 C   0  0  0  0  0  0  0  0  0  0  0  0
    5.6906    7.3543   18.0052 C   0  0  0  0  0  0  0  0  0  0  0  0
    4.3993    6.7593   18.0247 C   0  0  0  0  0  0  0  0  0  0  0  0
    3.1437    7.0476   18.5851 C   0  0  0  0  0  0  0  0  0  0  0  0
    1.9928    6.2465   18.3090 C   0  0  0  0  0  0  0  0  0  0  0  0
    1.9773    5.1170   17.4767 C   0  0  0  0  0  0  0  0  0  0  0  0
    1.0472    4.1536   16.9777 C   0  0  0  0  0  0  0  0  0  0  0  0
   -0.3396    3.9461   17.1382 C   0  0  0  0  0  0  0  0  0  0  0  0
   -0.9538    2.8774   16.4888 C   0  0  0  0  0  0  0  0  0  0  0  0
   -2.2712    2.6852   16.6433 F   0  0  0  0  0  0  0  0  0  0  0  0
   -0.2359    2.0061   15.6857 C   0  0  0  0  0  0  0  0  0  0  0  0
    1.1370    2.1805   15.5062 C   0  0  0  0  0  0  0  0  0  0  0  0
    1.7616    3.2605   16.1583 C   0  0  0  0  0  0  0  0  0  0  0  0
    3.0892    3.6643   16.1690 N   0  0  0  0  0  0  0  0  0  0  0  0
    3.2063    4.7830   16.9341 C   0  0  0  0  0  0  0  0  0  0  0  0
    4.4753    5.6402   17.2234 C   0  0  0  0  0  0  0  0  0  0  0  0
    0.8667    6.8547   19.0309 C   0  0  0  0  0  0  0  0  0  0  0  0
   -0.2845    6.4716   19.0667 O   0  0  0  0  0  0  0  0  0  0  0  0
    1.3485    7.9681   19.6761 N   0  0  0  0  0  0  0  0  0  0  0  0
    2.7455    8.1678   19.5024 C   0  0  0  0  0  0  0  0  0  0  0  0
    2.8992    9.4413   18.9291 O   0  0  0  0  0  0  0  0  0  0  0  0
    0.7802    8.5706   20.2084 H   0  0  0  0  0  0  0  0  0  0  0  0
    2.3672    9.4979   18.1199 H   0  0  0  0  0  0  0  0  0  0  0  0
    4.5911    2.8782   11.4720 C   0  0  0  0  0  0  0  0  0  0  0  0
    5.6931    3.5879   12.1094 N   0  0  0  0  0  0  0  0  0  0  0  0
    5.6214    4.5784   11.8766 H   0  0  0  0  0  0  0  0  0  0  0  0
    4.9684    5.6896   14.1632 O   0  0  0  0  0  0  0  0  0  0  0  0
    5.3837    6.8851   13.5190 C   0  0  0  0  0  0  0  0  0  0  0  0
 36 37  1  0
  1 37  1  0
  1  2  1  0
  3  2  1  0
  3  4  1  0
  4  5  1  0
  5  6  1  0
  5  7  1  0
  7 39  1  0
 39 40  1  0
  5  8  1  0
  8  9  1  0
  9 10  2  0
 10 11  1  0
 11 12  2  0
 12 13  1  0
 13 14  2  0
 14 15  1  0
 15 16  2  0
 16 17  1  0
 17 18  2  0
 18 19  1  0
 19 20  2  0
 20 21  1  0
 21 22  1  0
 21 23  2  0
 23 24  1  0
 24 25  2  0
 25 26  1  0
 26 27  1  0
 27 28  2  0
 17 29  1  0
 29 30  2  0
 29 31  1  0
 31 32  1  0
 32 33  1  0
  7  1  1  0
 28  8  1  0
 26  3  1  0
 14  9  1  0
 28 15  1  0
 32 16  1  0
 27 18  1  0
 25 19  1  0
 37 38  1  0
 31 34  1  0
 33 35  1  0
M  END
> <minimizedAffinity>
-10.48824

> <CNNscore>
0.1943232715

> <CNNaffinity>
6.7817797661

> <CNN_VS>
1.3178576231

> <CNNaffinity_variance>
0.1220159233

$$$$



 40 47  0  0  0  0  0  0  0  0999 V2000
    4.7196    2.8323   12.7425 C   0  0  0  0  0  0  0  0  0  0  0  0
    3.8993    1.6030   13.1578 C   0  0  0  0  0  0  0  0  0  0  0  0
    3.6861    0.6426   11.9810 C   0  0  0  0  0  0  0  0  0  0  0  0
    4.1978    1.1087   10.7347 O   0  0  0  0  0  0  0  0  0  0  0  0
    5.5582    1.6114   10.7066 C   0  0  0  0  0  0  0  0  0  0  0  0
    5.4269    2.6583    9.5751 C   0  0  0  0  0  0  0  0  0  0  0  0
    5.9971    2.3187   12.0341 C   0  0  0  0  0  0  0  0  0  0  0  0
    6.4628    0.5035   10.3469 N   0  0  0  0  0  0  0  0  0  0  0  0
    7.6934    0.5690    9.6943 C   0  0  0  0  0  0  0  0  0  0  0  0
    8.4630    1.6482    9.2197 C   0  0  0  0  0  0  0  0  0  0  0  0
    9.6662    1.3876    8.5552 C   0  0  0  0  0  0  0  0  0  0  0  0
   10.1153    0.0881    8.3744 C   0  0  0  0  0  0  0  0  0  0  0  0
    9.3782   -0.9846    8.8770 C   0  0  0  0  0  0  0  0  0  0  0  0
    8.1609   -0.7521    9.5547 C   0  0  0  0  0  0  0  0  0  0  0  0
    7.2547   -1.6067   10.2407 C   0  0  0  0  0  0  0  0  0  0  0  0
    7.1693   -2.9733   10.5548 C   0  0  0  0  0  0  0  0  0  0  0  0
    6.1224   -3.4941   11.3765 C   0  0  0  0  0  0  0  0  0  0  0  0
    5.0911   -2.7331   11.9475 C   0  0  0  0  0  0  0  0  0  0  0  0
    3.9607   -2.9125   12.8032 C   0  0  0  0  0  0  0  0  0  0  0  0
    3.3932   -4.0202   13.4689 C   0  0  0  0  0  0  0  0  0  0  0  0
    2.2534   -3.8419   14.2501 C   0  0  0  0  0  0  0  0  0  0  0  0
    1.7189   -4.8966   14.8811 F   0  0  0  0  0  0  0  0  0  0  0  0
    1.6569   -2.5995   14.3915 C   0  0  0  0  0  0  0  0  0  0  0  0
    2.1905   -1.4829   13.7461 C   0  0  0  0  0  0  0  0  0  0  0  0
    3.3435   -1.6576   12.9578 C   0  0  0  0  0  0  0  0  0  0  0  0
    4.0724   -0.7454   12.2079 N   0  0  0  0  0  0  0  0  0  0  0  0
    5.1243   -1.3860   11.6303 C   0  0  0  0  0  0  0  0  0  0  0  0
    6.2546   -0.7963   10.7341 C   0  0  0  0  0  0  0  0  0  0  0  0
    6.3666   -4.9365   11.5151 C   0  0  0  0  0  0  0  0  0  0  0  0
    5.6995   -5.7459   12.1260 O   0  0  0  0  0  0  0  0  0  0  0  0
    7.5157   -5.2251   10.8193 N   0  0  0  0  0  0  0  0  0  0  0  0
    8.0793   -4.0998   10.1576 C   0  0  0  0  0  0  0  0  0  0  0  0
    9.3882   -3.9610   10.6491 O   0  0  0  0  0  0  0  0  0  0  0  0
    7.9114   -6.1258   10.7823 H   0  0  0  0  0  0  0  0  0  0  0  0
    9.3658   -3.9060   11.6173 H   0  0  0  0  0  0  0  0  0  0  0  0
    4.4896    5.0368   13.7707 C   0  0  0  0  0  0  0  0  0  0  0  0
    4.9652    3.6690   13.9352 N   0  0  0  0  0  0  0  0  0  0  0  0
    4.4854    3.2502   14.7319 H   0  0  0  0  0  0  0  0  0  0  0  0
    6.6539    1.3762   12.9092 O   0  0  0  0  0  0  0  0  0  0  0  0
    7.9279    1.8130   13.3594 C   0  0  0  0  0  0  0  0  0  0  0  0
 36 37  1  0
  1 37  1  0
  1  2  1  0
  3  2  1  0
  3  4  1  0
  4  5  1  0
  5  6  1  0
  5  7  1  0
  7 39  1  0
 39 40  1  0
  5  8  1  0
  8  9  1  0
  9 10  2  0
 10 11  1  0
 11 12  2  0
 12 13  1  0
 13 14  2  0
 14 15  1  0
 15 16  2  0
 16 17  1  0
 17 18  2  0
 18 19  1  0
 19 20  2  0
 20 21  1  0
 21 22  1  0
 21 23  2  0
 23 24  1  0
 24 25  2  0
 25 26  1  0
 26 27  1  0
 27 28  2  0
 17 29  1  0
 29 30  2  0
 29 31  1  0
 31 32  1  0
 32 33  1  0
  7  1  1  0
 28  8  1  0
 26  3  1  0
 14  9  1  0
 28 15  1  0
 32 16  1  0
 27 18  1  0
 25 19  1  0
 37 38  1  0
 31 34  1  0
 33 35  1  0
M  END
> <minimizedAffinity>
-6.80651

> <CNNscore>
0.1749066561

> <CNNaffinity>
5.0314712524

> <CNN_VS>
0.8800377846

> <CNNaffinity_variance>
0.5367198586

$$$$



 40 47  0  0  0  0  0  0  0  0999 V2000
    2.8446    2.9887   13.3653 C   0  0  0  0  0  0  0  0  0  0  0  0
    2.7681    3.9608   14.5509 C   0  0  0  0  0  0  0  0  0  0  0  0
    3.6931    3.5290   15.6957 C   0  0  0  0  0  0  0  0  0  0  0  0
    4.3602    2.2872   15.4831 O   0  0  0  0  0  0  0  0  0  0  0  0
    5.0377    2.0908   14.2156 C   0  0  0  0  0  0  0  0  0  0  0  0
    4.8835    0.5582   14.0713 C   0  0  0  0  0  0  0  0  0  0  0  0
    4.3409    2.8090   13.0098 C   0  0  0  0  0  0  0  0  0  0  0  0
    6.4457    2.5039   14.3646 N   0  0  0  0  0  0  0  0  0  0  0  0
    7.5621    2.0356   13.6726 C   0  0  0  0  0  0  0  0  0  0  0  0
    7.7139    1.0963   12.6348 C   0  0  0  0  0  0  0  0  0  0  0  0
    8.9980    0.8019   12.1641 C   0  0  0  0  0  0  0  0  0  0  0  0
   10.1144    1.4325   12.6924 C   0  0  0  0  0  0  0  0  0  0  0  0
    9.9687    2.3936   13.6932 C   0  0  0  0  0  0  0  0  0  0  0  0
    8.6843    2.7137   14.1865 C   0  0  0  0  0  0  0  0  0  0  0  0
    8.2161    3.6862   15.1121 C   0  0  0  0  0  0  0  0  0  0  0  0
    8.7721    4.7151   15.8905 C   0  0  0  0  0  0  0  0  0  0  0  0
    7.9585    5.5966   16.6675 C   0  0  0  0  0  0  0  0  0  0  0  0
    6.5586    5.5435   16.7452 C   0  0  0  0  0  0  0  0  0  0  0  0
    5.4818    6.2511   17.3633 C   0  0  0  0  0  0  0  0  0  0  0  0
    5.3985    7.3795   18.2070 C   0  0  0  0  0  0  0  0  0  0  0  0
    4.1506    7.8215   18.6415 C   0  0  0  0  0  0  0  0  0  0  0  0
    4.0766    8.8942   19.4416 F   0  0  0  0  0  0  0  0  0  0  0  0
    2.9818    7.1789   18.2670 C   0  0  0  0  0  0  0  0  0  0  0  0
    3.0273    6.0592   17.4351 C   0  0  0  0  0  0  0  0  0  0  0  0
    4.2857    5.6104   16.9914 C   0  0  0  0  0  0  0  0  0  0  0  0
    4.6282    4.5381   16.1800 N   0  0  0  0  0  0  0  0  0  0  0  0
    5.9786    4.5188   16.0170 C   0  0  0  0  0  0  0  0  0  0  0  0
    6.8459    3.5441   15.1648 C   0  0  0  0  0  0  0  0  0  0  0  0
    8.8658    6.5527   17.3172 C   0  0  0  0  0  0  0  0  0  0  0  0
    8.5727    7.4579   18.0708 O   0  0  0  0  0  0  0  0  0  0  0  0
   10.1422    6.2441   16.9129 N   0  0  0  0  0  0  0  0  0  0  0  0
   10.2113    5.1086   16.0600 C   0  0  0  0  0  0  0  0  0  0  0  0
   10.8171    5.5400   14.8680 O   0  0  0  0  0  0  0  0  0  0  0  0
   10.9341    6.7604   17.1878 H   0  0  0  0  0  0  0  0  0  0  0  0
   10.3273    6.2980   14.5124 H   0  0  0  0  0  0  0  0  0  0  0  0
    1.2098    2.4654   11.6264 C   0  0  0  0  0  0  0  0  0  0  0  0
    2.0037    3.5068   12.2666 N   0  0  0  0  0  0  0  0  0  0  0  0
    1.3719    4.2129   12.6443 H   0  0  0  0  0  0  0  0  0  0  0  0
    4.9192    4.1162   12.8045 O   0  0  0  0  0  0  0  0  0  0  0  0
    3.9612    5.1644   12.7917 C   0  0  0  0  0  0  0  0  0  0  0  0
 36 37  1  0
  1 37  1  0
  1  2  1  0
  3  2  1  0
  3  4  1  0
  4  5  1  0
  5  6  1  0
  5  7  1  0
  7 39  1  0
 39 40  1  0
  5  8  1  0
  8  9  1  0
  9 10  2  0
 10 11  1  0
 11 12  2  0
 12 13  1  0
 13 14  2  0
 14 15  1  0
 15 16  2  0
 16 17  1  0
 17 18  2  0
 18 19  1  0
 19 20  2  0
 20 21  1  0
 21 22  1  0
 21 23  2  0
 23 24  1  0
 24 25  2  0
 25 26  1  0
 26 27  1  0
 27 28  2  0
 17 29  1  0
 29 30  2  0
 29 31  1  0
 31 32  1  0
 32 33  1  0
  7  1  1  0
 28  8  1  0
 26  3  1  0
 14  9  1  0
 28 15  1  0
 32 16  1  0
 27 18  1  0
 25 19  1  0
 37 38  1  0
 31 34  1  0
 33 35  1  0
M  END
> <minimizedAffinity>
-10.68979

> <CNNscore>
0.1719308645

> <CNNaffinity>
6.5361800194

> <CNN_VS>
1.1237710714

> <CNNaffinity_variance>
0.1938688010

$$$$



 40 47  0  0  0  0  0  0  0  0999 V2000
   12.1603   -3.4542    9.4439 C   0  0  0  0  0  0  0  0  0  0  0  0
   11.8651   -2.2795   10.3869 C   0  0  0  0  0  0  0  0  0  0  0  0
   11.2084   -1.1097    9.6433 C   0  0  0  0  0  0  0  0  0  0  0  0
   11.0861   -1.2957    8.2352 O   0  0  0  0  0  0  0  0  0  0  0  0
   10.5201   -2.5453    7.7638 C   0  0  0  0  0  0  0  0  0  0  0  0
   11.2681   -2.6795    6.4163 C   0  0  0  0  0  0  0  0  0  0  0  0
   10.8527   -3.7734    8.6785 C   0  0  0  0  0  0  0  0  0  0  0  0
    9.0669   -2.3676    7.5863 N   0  0  0  0  0  0  0  0  0  0  0  0
    8.2164   -3.0293    6.7012 C   0  0  0  0  0  0  0  0  0  0  0  0
    8.4321   -4.0548    5.7609 C   0  0  0  0  0  0  0  0  0  0  0  0
    7.3626   -4.4931    4.9726 C   0  0  0  0  0  0  0  0  0  0  0  0
    6.0971   -3.9447    5.1171 C   0  0  0  0  0  0  0  0  0  0  0  0
    5.8665   -2.9562    6.0743 C   0  0  0  0  0  0  0  0  0  0  0  0
    6.9264   -2.4956    6.8867 C   0  0  0  0  0  0  0  0  0  0  0  0
    6.9859   -1.5898    7.9812 C   0  0  0  0  0  0  0  0  0  0  0  0
    6.0806   -0.8080    8.7180 C   0  0  0  0  0  0  0  0  0  0  0  0
    6.4904   -0.0581    9.8634 C   0  0  0  0  0  0  0  0  0  0  0  0
    7.7973   -0.0123   10.3720 C   0  0  0  0  0  0  0  0  0  0  0  0
    8.5149    0.5744   11.4597 C   0  0  0  0  0  0  0  0  0  0  0  0
    8.1579    1.4058   12.5430 C   0  0  0  0  0  0  0  0  0  0  0  0
    9.1348    1.8073   13.4517 C   0  0  0  0  0  0  0  0  0  0  0  0
    8.7906    2.5958   14.4793 F   0  0  0  0  0  0  0  0  0  0  0  0
   10.4559    1.4116   13.3197 C   0  0  0  0  0  0  0  0  0  0  0  0
   10.8444    0.5911   12.2597 C   0  0  0  0  0  0  0  0  0  0  0  0
    9.8604    0.1807   11.3404 C   0  0  0  0  0  0  0  0  0  0  0  0
    9.9580   -0.6130   10.2063 N   0  0  0  0  0  0  0  0  0  0  0  0
    8.7238   -0.7445    9.6495 C   0  0  0  0  0  0  0  0  0  0  0  0
    8.3004   -1.5676    8.3958 C   0  0  0  0  0  0  0  0  0  0  0  0
    5.2896    0.6039   10.3918 C   0  0  0  0  0  0  0  0  0  0  0  0
    5.2121    1.3424   11.3519 O   0  0  0  0  0  0  0  0  0  0  0  0
    4.2340    0.2321    9.5946 N   0  0  0  0  0  0  0  0  0  0  0  0
    4.6068   -0.6088    8.5104 C   0  0  0  0  0  0  0  0  0  0  0  0
    3.8585   -1.7903    8.6450 O   0  0  0  0  0  0  0  0  0  0  0  0
    3.3071    0.5206    9.7587 H   0  0  0  0  0  0  0  0  0  0  0  0
    4.0003   -2.1639    9.5288 H   0  0  0  0  0  0  0  0  0  0  0  0
   14.0843   -4.3521   10.6531 C   0  0  0  0  0  0  0  0  0  0  0  0
   12.7065   -4.5767   10.2341 N   0  0  0  0  0  0  0  0  0  0  0  0
   12.1290   -4.7020   11.0655 H   0  0  0  0  0  0  0  0  0  0  0  0
    9.7990   -3.9769    9.6448 O   0  0  0  0  0  0  0  0  0  0  0  0
    9.1761   -5.2492    9.5451 C   0  0  0  0  0  0  0  0  0  0  0  0
 36 37  1  0
  1 37  1  0
  1  2  1  0
  3  2  1  0
  3  4  1  0
  4  5  1  0
  5  6  1  0
  5  7  1  0
  7 39  1  0
 39 40  1  0
  5  8  1  0
  8  9  1  0
  9 10  2  0
 10 11  1  0
 11 12  2  0
 12 13  1  0
 13 14  2  0
 14 15  1  0
 15 16  2  0
 16 17  1  0
 17 18  2  0
 18 19  1  0
 19 20  2  0
 20 21  1  0
 21 22  1  0
 21 23  2  0
 23 24  1  0
 24 25  2  0
 25 26  1  0
 26 27  1  0
 27 28  2  0
 17 29  1  0
 29 30  2  0
 29 31  1  0
 31 32  1  0
 32 33  1  0
  7  1  1  0
 28  8  1  0
 26  3  1  0
 14  9  1  0
 28 15  1  0
 32 16  1  0
 27 18  1  0
 25 19  1  0
 37 38  1  0
 31 34  1  0
 33 35  1  0
M  END
> <minimizedAffinity>
-6.27526

> <CNNscore>
0.1406106204

> <CNNaffinity>
4.9911193848

> <CNN_VS>
0.7018043995

> <CNNaffinity_variance>
0.1866669208

$$$$
