


 27 30  0  0  0  0  0  0  0  0999 V2000
  -12.4353   56.1871   11.8403 O   0  0  0  0  0  0  0  0  0  0  0  0
  -12.0738   57.2894   11.4507 C   0  0  0  0  0  0  0  0  0  0  0  0
  -10.8122   57.6417   11.0016 N   0  0  0  0  0  0  0  0  0  0  0  0
  -10.6705   58.5936   10.7941 H   0  0  0  0  0  0  0  0  0  0  0  0
  -13.0523   58.4142   11.4992 C   0  0  0  0  0  0  0  0  0  0  0  0
  -13.7309   58.7145   12.7324 C   0  0  0  0  0  0  0  0  0  0  0  0
  -14.6805   59.7546   12.8670 C   0  0  0  0  0  0  0  0  0  0  0  0
  -14.8942   60.4818   11.6846 C   0  0  0  0  0  0  0  0  0  0  0  0
  -15.7116   61.5187   11.4432 N   0  0  0  0  0  0  0  0  0  0  0  0
  -15.4997   61.8316   10.1491 N   0  0  0  0  0  0  0  0  0  0  0  0
  -14.5866   61.0355    9.5182 C   0  0  0  0  0  0  0  0  0  0  0  0
  -14.1764   60.1548   10.4783 C   0  0  0  0  0  0  0  0  0  0  0  0
  -13.2382   59.1463   10.3026 C   0  0  0  0  0  0  0  0  0  0  0  0
  -15.9645   62.5721    9.6966 H   0  0  0  0  0  0  0  0  0  0  0  0
   -9.7063   56.7840   10.8086 C   0  0  0  0  0  0  0  0  0  0  0  0
   -9.1895   56.4565    9.5552 C   0  0  0  0  0  0  0  0  0  0  0  0
   -8.0803   55.6169    9.4568 C   0  0  0  0  0  0  0  0  0  0  0  0
   -7.3806   55.1842    7.7529 Br  0  0  0  0  0  0  0  0  0  0  0  0
   -7.4778   55.0934   10.5986 C   0  0  0  0  0  0  0  0  0  0  0  0
   -7.9828   55.4011   11.8679 C   0  0  0  0  0  0  0  0  0  0  0  0
   -9.0954   56.2558   11.9591 C   0  0  0  0  0  0  0  0  0  0  0  0
   -7.3324   54.8334   13.0465 C   0  0  0  0  0  0  0  0  0  0  0  0
   -6.6015   55.4721   13.9423 N   0  0  0  0  0  0  0  0  0  0  0  0
   -6.1936   54.5364   14.8607 N   0  0  0  0  0  0  0  0  0  0  0  0
   -6.6476   53.3343   14.5438 N   0  0  0  0  0  0  0  0  0  0  0  0
   -7.3453   53.5151   13.4165 N   0  0  0  0  0  0  0  0  0  0  0  0
   -7.8047   52.7990   12.9213 H   0  0  0  0  0  0  0  0  0  0  0  0
  1  2  2  0
  2  3  1  0
  3 15  1  0
 15 16  2  0
 16 17  1  0
 17 18  1  0
 17 19  2  0
 19 20  1  0
 20 22  1  0
 22 23  2  0
 23 24  1  0
 24 25  2  0
 25 26  1  0
 20 21  2  0
  2  5  1  0
  5  6  1  0
  6  7  2  0
  7  8  1  0
  8  9  2  0
  9 10  1  0
 10 11  1  0
 11 12  2  0
 12 13  1  0
 21 15  1  0
 13  5  2  0
 26 22  1  0
 12  8  1  0
  3  4  1  0
 26 27  1  0
 10 14  1  0
M  END
> <minimizedAffinity>
-7.46315

> <CNNscore>
0.5668586493

> <CNNaffinity>
5.0849723816

> <CNN_VS>
2.8824605942

> <CNNaffinity_variance>
0.5327182412

$$$$



 27 30  0  0  0  0  0  0  0  0999 V2000
   -6.9098   50.0506    9.1734 O   0  0  0  0  0  0  0  0  0  0  0  0
   -6.3703   51.1034    9.4862 C   0  0  0  0  0  0  0  0  0  0  0  0
   -5.5724   51.9013    8.6836 N   0  0  0  0  0  0  0  0  0  0  0  0
   -5.1552   52.6808    9.1166 H   0  0  0  0  0  0  0  0  0  0  0  0
   -6.5196   51.5866   10.8895 C   0  0  0  0  0  0  0  0  0  0  0  0
   -7.7906   52.0930   11.3364 C   0  0  0  0  0  0  0  0  0  0  0  0
   -8.0197   52.5806   12.6446 C   0  0  0  0  0  0  0  0  0  0  0  0
   -6.8916   52.5143   13.4785 C   0  0  0  0  0  0  0  0  0  0  0  0
   -6.7410   52.8835   14.7602 N   0  0  0  0  0  0  0  0  0  0  0  0
   -5.4621   52.5794   15.0593 N   0  0  0  0  0  0  0  0  0  0  0  0
   -4.7540   52.0375   14.0246 C   0  0  0  0  0  0  0  0  0  0  0  0
   -5.6445   51.9814   12.9904 C   0  0  0  0  0  0  0  0  0  0  0  0
   -5.3767   51.4928   11.7185 C   0  0  0  0  0  0  0  0  0  0  0  0
   -5.0712   52.7350   15.9493 H   0  0  0  0  0  0  0  0  0  0  0  0
   -5.2919   51.7186    7.3110 C   0  0  0  0  0  0  0  0  0  0  0  0
   -4.3095   50.8535    6.8296 C   0  0  0  0  0  0  0  0  0  0  0  0
   -4.1127   50.7185    5.4556 C   0  0  0  0  0  0  0  0  0  0  0  0
   -2.7834   49.5366    4.8109 Br  0  0  0  0  0  0  0  0  0  0  0  0
   -4.8851   51.4418    4.5495 C   0  0  0  0  0  0  0  0  0  0  0  0
   -5.8723   52.3227    5.0081 C   0  0  0  0  0  0  0  0  0  0  0  0
   -6.0710   52.4460    6.3945 C   0  0  0  0  0  0  0  0  0  0  0  0
   -6.6632   53.0708    4.0338 C   0  0  0  0  0  0  0  0  0  0  0  0
   -6.2659   53.5206    2.8572 N   0  0  0  0  0  0  0  0  0  0  0  0
   -7.3396   54.1679    2.2974 N   0  0  0  0  0  0  0  0  0  0  0  0
   -8.3852   54.1365    3.1082 N   0  0  0  0  0  0  0  0  0  0  0  0
   -7.9654   53.4654    4.1869 N   0  0  0  0  0  0  0  0  0  0  0  0
   -8.5169   53.2806    4.9812 H   0  0  0  0  0  0  0  0  0  0  0  0
  1  2  2  0
  2  3  1  0
  3 15  1  0
 15 16  2  0
 16 17  1  0
 17 18  1  0
 17 19  2  0
 19 20  1  0
 20 22  1  0
 22 23  2  0
 23 24  1  0
 24 25  2  0
 25 26  1  0
 20 21  2  0
  2  5  1  0
  5  6  1  0
  6  7  2  0
  7  8  1  0
  8  9  2  0
  9 10  1  0
 10 11  1  0
 11 12  2  0
 12 13  1  0
 21 15  1  0
 13  5  2  0
 26 22  1  0
 12  8  1  0
  3  4  1  0
 26 27  1  0
 10 14  1  0
M  END
> <minimizedAffinity>
-6.22046

> <CNNscore>
0.4793687761

> <CNNaffinity>
5.7061862946

> <CNN_VS>
2.7353675365

> <CNNaffinity_variance>
0.5187531114

$$$$



 27 30  0  0  0  0  0  0  0  0999 V2000
   -2.4378   49.2977    9.5567 O   0  0  0  0  0  0  0  0  0  0  0  0
   -2.3841   49.1540   10.7707 C   0  0  0  0  0  0  0  0  0  0  0  0
   -1.8708   48.0676   11.4590 N   0  0  0  0  0  0  0  0  0  0  0  0
   -1.9731   48.0805   12.4381 H   0  0  0  0  0  0  0  0  0  0  0  0
   -2.9723   50.2163   11.6368 C   0  0  0  0  0  0  0  0  0  0  0  0
   -4.2311   49.9826   12.2944 C   0  0  0  0  0  0  0  0  0  0  0  0
   -4.8665   50.9361   13.1243 C   0  0  0  0  0  0  0  0  0  0  0  0
   -4.1482   52.1352   13.2609 C   0  0  0  0  0  0  0  0  0  0  0  0
   -4.4420   53.2445   13.9572 N   0  0  0  0  0  0  0  0  0  0  0  0
   -3.3976   54.0707   13.7474 N   0  0  0  0  0  0  0  0  0  0  0  0
   -2.4302   53.5611   12.9287 C   0  0  0  0  0  0  0  0  0  0  0  0
   -2.8817   52.3154   12.5968 C   0  0  0  0  0  0  0  0  0  0  0  0
   -2.2233   51.4087   11.7766 C   0  0  0  0  0  0  0  0  0  0  0  0
   -3.3371   54.9668   14.1506 H   0  0  0  0  0  0  0  0  0  0  0  0
   -1.2164   46.9426   10.9093 C   0  0  0  0  0  0  0  0  0  0  0  0
   -1.8520   45.7297   10.6440 C   0  0  0  0  0  0  0  0  0  0  0  0
   -1.1336   44.6755   10.0806 C   0  0  0  0  0  0  0  0  0  0  0  0
   -2.0055   43.0363    9.7164 Br  0  0  0  0  0  0  0  0  0  0  0  0
    0.2194   44.8143    9.7792 C   0  0  0  0  0  0  0  0  0  0  0  0
    0.8819   46.0193   10.0434 C   0  0  0  0  0  0  0  0  0  0  0  0
    0.1485   47.0805   10.6027 C   0  0  0  0  0  0  0  0  0  0  0  0
    2.3022   46.1333    9.7206 C   0  0  0  0  0  0  0  0  0  0  0  0
    2.8467   46.8367    8.7442 N   0  0  0  0  0  0  0  0  0  0  0  0
    4.2030   46.6371    8.8209 N   0  0  0  0  0  0  0  0  0  0  0  0
    4.5043   45.8175    9.8155 N   0  0  0  0  0  0  0  0  0  0  0  0
    3.3282   45.4981   10.3678 N   0  0  0  0  0  0  0  0  0  0  0  0
    3.2160   44.8901   11.1339 H   0  0  0  0  0  0  0  0  0  0  0  0
  1  2  2  0
  2  3  1  0
  3 15  1  0
 15 16  2  0
 16 17  1  0
 17 18  1  0
 17 19  2  0
 19 20  1  0
 20 22  1  0
 22 23  2  0
 23 24  1  0
 24 25  2  0
 25 26  1  0
 20 21  2  0
  2  5  1  0
  5  6  1  0
  6  7  2  0
  7  8  1  0
  8  9  2  0
  9 10  1  0
 10 11  1  0
 11 12  2  0
 12 13  1  0
 21 15  1  0
 13  5  2  0
 26 22  1  0
 12  8  1  0
  3  4  1  0
 26 27  1  0
 10 14  1  0
M  END
> <minimizedAffinity>
-7.13127

> <CNNscore>
0.4609978199

> <CNNaffinity>
5.3579535484

> <CNN_VS>
2.4700047970

> <CNNaffinity_variance>
0.0699620023

$$$$



 27 30  0  0  0  0  0  0  0  0999 V2000
   -6.8338   50.3143    9.5252 O   0  0  0  0  0  0  0  0  0  0  0  0
   -5.9789   51.1534    9.7748 C   0  0  0  0  0  0  0  0  0  0  0  0
   -4.7731   51.3349    9.1187 N   0  0  0  0  0  0  0  0  0  0  0  0
   -4.1658   52.0116    9.4962 H   0  0  0  0  0  0  0  0  0  0  0  0
   -6.1967   52.0632   10.9366 C   0  0  0  0  0  0  0  0  0  0  0  0
   -7.0017   53.2452   10.7739 C   0  0  0  0  0  0  0  0  0  0  0  0
   -7.2522   54.1679   11.8167 C   0  0  0  0  0  0  0  0  0  0  0  0
   -6.6517   53.8187   13.0374 C   0  0  0  0  0  0  0  0  0  0  0  0
   -6.6720   54.4489   14.2223 N   0  0  0  0  0  0  0  0  0  0  0  0
   -5.9474   53.6631   15.0439 N   0  0  0  0  0  0  0  0  0  0  0  0
   -5.4350   52.5454   14.4491 C   0  0  0  0  0  0  0  0  0  0  0  0
   -5.8693   52.6141   13.1559 C   0  0  0  0  0  0  0  0  0  0  0  0
   -5.5994   51.6828   12.1618 C   0  0  0  0  0  0  0  0  0  0  0  0
   -5.8000   53.8770   15.9935 H   0  0  0  0  0  0  0  0  0  0  0  0
   -4.3193   50.6547    7.9665 C   0  0  0  0  0  0  0  0  0  0  0  0
   -3.6558   49.4284    8.0020 C   0  0  0  0  0  0  0  0  0  0  0  0
   -3.2600   48.8159    6.8132 C   0  0  0  0  0  0  0  0  0  0  0  0
   -2.3676   47.1485    6.8699 Br  0  0  0  0  0  0  0  0  0  0  0  0
   -3.5156   49.4154    5.5819 C   0  0  0  0  0  0  0  0  0  0  0  0
   -4.1731   50.6502    5.5204 C   0  0  0  0  0  0  0  0  0  0  0  0
   -4.5774   51.2565    6.7227 C   0  0  0  0  0  0  0  0  0  0  0  0
   -4.4231   51.2562    4.2147 C   0  0  0  0  0  0  0  0  0  0  0  0
   -3.8026   50.9930    3.0788 N   0  0  0  0  0  0  0  0  0  0  0  0
   -4.3635   51.8046    2.1238 N   0  0  0  0  0  0  0  0  0  0  0  0
   -5.3073   52.5695    2.6491 N   0  0  0  0  0  0  0  0  0  0  0  0
   -5.3392   52.2373    3.9447 N   0  0  0  0  0  0  0  0  0  0  0  0
   -5.9389   52.6425    4.6121 H   0  0  0  0  0  0  0  0  0  0  0  0
  1  2  2  0
  2  3  1  0
  3 15  1  0
 15 16  2  0
 16 17  1  0
 17 18  1  0
 17 19  2  0
 19 20  1  0
 20 22  1  0
 22 23  2  0
 23 24  1  0
 24 25  2  0
 25 26  1  0
 20 21  2  0
  2  5  1  0
  5  6  1  0
  6  7  2  0
  7  8  1  0
  8  9  2  0
  9 10  1  0
 10 11  1  0
 11 12  2  0
 12 13  1  0
 21 15  1  0
 13  5  2  0
 26 22  1  0
 12  8  1  0
  3  4  1  0
 26 27  1  0
 10 14  1  0
M  END
> <minimizedAffinity>
-6.00037

> <CNNscore>
0.3659247160

> <CNNaffinity>
5.0320725441

> <CNN_VS>
1.8413597345

> <CNNaffinity_variance>
0.2808826566

$$$$



 27 30  0  0  0  0  0  0  0  0999 V2000
   -7.6672   51.1648    8.9373 O   0  0  0  0  0  0  0  0  0  0  0  0
   -8.0343   50.1787    9.5620 C   0  0  0  0  0  0  0  0  0  0  0  0
   -7.5636   49.7482   10.7910 N   0  0  0  0  0  0  0  0  0  0  0  0
   -7.9166   48.8901   11.1198 H   0  0  0  0  0  0  0  0  0  0  0  0
   -9.0592   49.2889    8.9433 C   0  0  0  0  0  0  0  0  0  0  0  0
   -9.8165   48.3902    9.7742 C   0  0  0  0  0  0  0  0  0  0  0  0
  -10.7994   47.5051    9.2722 C   0  0  0  0  0  0  0  0  0  0  0  0
  -10.9811   47.5911    7.8822 C   0  0  0  0  0  0  0  0  0  0  0  0
  -11.8122   46.9129    7.0754 N   0  0  0  0  0  0  0  0  0  0  0  0
  -11.5799   47.4099    5.8439 N   0  0  0  0  0  0  0  0  0  0  0  0
  -10.6186   48.3790    5.7983 C   0  0  0  0  0  0  0  0  0  0  0  0
  -10.2113   48.5207    7.0944 C   0  0  0  0  0  0  0  0  0  0  0  0
   -9.2403   49.4053    7.5447 C   0  0  0  0  0  0  0  0  0  0  0  0
  -12.0630   47.1000    5.0440 H   0  0  0  0  0  0  0  0  0  0  0  0
   -6.6319   50.4064   11.6245 C   0  0  0  0  0  0  0  0  0  0  0  0
   -5.3483   49.9256   11.8824 C   0  0  0  0  0  0  0  0  0  0  0  0
   -4.4845   50.6508   12.7026 C   0  0  0  0  0  0  0  0  0  0  0  0
   -2.7421   49.9953   13.0406 Br  0  0  0  0  0  0  0  0  0  0  0  0
   -4.8871   51.8552   13.2754 C   0  0  0  0  0  0  0  0  0  0  0  0
   -6.1735   52.3550   13.0380 C   0  0  0  0  0  0  0  0  0  0  0  0
   -7.0351   51.6227   12.2024 C   0  0  0  0  0  0  0  0  0  0  0  0
   -6.5686   53.6184   13.6562 C   0  0  0  0  0  0  0  0  0  0  0  0
   -7.7160   54.2561   13.5100 N   0  0  0  0  0  0  0  0  0  0  0  0
   -7.6346   55.3971   14.2695 N   0  0  0  0  0  0  0  0  0  0  0  0
   -6.4585   55.4815   14.8707 N   0  0  0  0  0  0  0  0  0  0  0  0
   -5.7946   54.3857   14.4852 N   0  0  0  0  0  0  0  0  0  0  0  0
   -4.8760   54.1619   14.7597 H   0  0  0  0  0  0  0  0  0  0  0  0
  1  2  2  0
  2  3  1  0
  3 15  1  0
 15 16  2  0
 16 17  1  0
 17 18  1  0
 17 19  2  0
 19 20  1  0
 20 22  1  0
 22 23  2  0
 23 24  1  0
 24 25  2  0
 25 26  1  0
 20 21  2  0
  2  5  1  0
  5  6  1  0
  6  7  2  0
  7  8  1  0
  8  9  2  0
  9 10  1  0
 10 11  1  0
 11 12  2  0
 12 13  1  0
 21 15  1  0
 13  5  2  0
 26 22  1  0
 12  8  1  0
  3  4  1  0
 26 27  1  0
 10 14  1  0
M  END
> <minimizedAffinity>
-6.24924

> <CNNscore>
0.3281100988

> <CNNaffinity>
5.3858184814

> <CNN_VS>
1.7671414614

> <CNNaffinity_variance>
0.0813094601

$$$$



 27 30  0  0  0  0  0  0  0  0999 V2000
   -7.0058   52.2494    6.4498 O   0  0  0  0  0  0  0  0  0  0  0  0
   -7.5715   53.2531    6.8619 C   0  0  0  0  0  0  0  0  0  0  0  0
   -7.7952   53.5999    8.1837 N   0  0  0  0  0  0  0  0  0  0  0  0
   -8.3334   54.4094    8.3398 H   0  0  0  0  0  0  0  0  0  0  0  0
   -8.1432   54.2041    5.8651 C   0  0  0  0  0  0  0  0  0  0  0  0
   -8.1845   55.6110    6.1660 C   0  0  0  0  0  0  0  0  0  0  0  0
   -8.7175   56.5817    5.2855 C   0  0  0  0  0  0  0  0  0  0  0  0
   -9.1945   56.0480    4.0771 C   0  0  0  0  0  0  0  0  0  0  0  0
   -9.7593   56.6605    3.0248 N   0  0  0  0  0  0  0  0  0  0  0  0
  -10.0049   55.6725    2.1410 N   0  0  0  0  0  0  0  0  0  0  0  0
   -9.6400   54.4281    2.5698 C   0  0  0  0  0  0  0  0  0  0  0  0
   -9.1144   54.6332    3.8137 C   0  0  0  0  0  0  0  0  0  0  0  0
   -8.6000   53.6484    4.6466 C   0  0  0  0  0  0  0  0  0  0  0  0
  -10.4133   55.8345    1.2600 H   0  0  0  0  0  0  0  0  0  0  0  0
   -7.3352   52.9187    9.3328 C   0  0  0  0  0  0  0  0  0  0  0  0
   -7.0744   51.5491    9.3688 C   0  0  0  0  0  0  0  0  0  0  0  0
   -6.6023   50.9605   10.5417 C   0  0  0  0  0  0  0  0  0  0  0  0
   -6.2433   49.1032   10.5795 Br  0  0  0  0  0  0  0  0  0  0  0  0
   -6.3886   51.7237   11.6874 C   0  0  0  0  0  0  0  0  0  0  0  0
   -6.6505   53.0992   11.6788 C   0  0  0  0  0  0  0  0  0  0  0  0
   -7.1172   53.6868   10.4898 C   0  0  0  0  0  0  0  0  0  0  0  0
   -6.4210   53.8724   12.8970 C   0  0  0  0  0  0  0  0  0  0  0  0
   -6.2607   53.4058   14.1222 N   0  0  0  0  0  0  0  0  0  0  0  0
   -6.0828   54.4940   14.9404 N   0  0  0  0  0  0  0  0  0  0  0  0
   -6.1414   55.6203   14.2478 N   0  0  0  0  0  0  0  0  0  0  0  0
   -6.3594   55.2375   12.9844 N   0  0  0  0  0  0  0  0  0  0  0  0
   -6.4613   55.8526   12.2225 H   0  0  0  0  0  0  0  0  0  0  0  0
  1  2  2  0
  2  3  1  0
  3 15  1  0
 15 16  2  0
 16 17  1  0
 17 18  1  0
 17 19  2  0
 19 20  1  0
 20 22  1  0
 22 23  2  0
 23 24  1  0
 24 25  2  0
 25 26  1  0
 20 21  2  0
  2  5  1  0
  5  6  1  0
  6  7  2  0
  7  8  1  0
  8  9  2  0
  9 10  1  0
 10 11  1  0
 11 12  2  0
 12 13  1  0
 21 15  1  0
 13  5  2  0
 26 22  1  0
 12  8  1  0
  3  4  1  0
 26 27  1  0
 10 14  1  0
M  END
> <minimizedAffinity>
-6.28461

> <CNNscore>
0.2851366699

> <CNNaffinity>
4.9321174622

> <CNN_VS>
1.4063276052

> <CNNaffinity_variance>
0.7438988686

$$$$



 27 30  0  0  0  0  0  0  0  0999 V2000
   -8.9877   55.4937   13.3009 O   0  0  0  0  0  0  0  0  0  0  0  0
   -9.0728   55.6703   12.0930 C   0  0  0  0  0  0  0  0  0  0  0  0
   -8.4125   54.9670   11.0997 N   0  0  0  0  0  0  0  0  0  0  0  0
   -8.5382   55.2879   10.1775 H   0  0  0  0  0  0  0  0  0  0  0  0
   -9.9280   56.7880   11.5988 C   0  0  0  0  0  0  0  0  0  0  0  0
   -9.5307   57.5239   10.4274 C   0  0  0  0  0  0  0  0  0  0  0  0
  -10.2741   58.6036    9.8951 C   0  0  0  0  0  0  0  0  0  0  0  0
  -11.4497   58.8874   10.6092 C   0  0  0  0  0  0  0  0  0  0  0  0
  -12.3834   59.8283   10.3984 N   0  0  0  0  0  0  0  0  0  0  0  0
  -13.2956   59.6339   11.3718 N   0  0  0  0  0  0  0  0  0  0  0  0
  -12.9980   58.6126   12.2285 C   0  0  0  0  0  0  0  0  0  0  0  0
  -11.8151   58.1097   11.7664 C   0  0  0  0  0  0  0  0  0  0  0  0
  -11.1176   57.0446   12.3209 C   0  0  0  0  0  0  0  0  0  0  0  0
  -14.1085   60.1825   11.4580 H   0  0  0  0  0  0  0  0  0  0  0  0
   -7.5780   53.8390   11.2655 C   0  0  0  0  0  0  0  0  0  0  0  0
   -7.9766   52.5326   10.9835 C   0  0  0  0  0  0  0  0  0  0  0  0
   -7.0804   51.4782   11.1565 C   0  0  0  0  0  0  0  0  0  0  0  0
   -7.6267   49.7098   10.7639 Br  0  0  0  0  0  0  0  0  0  0  0  0
   -5.7848   51.7102   11.6130 C   0  0  0  0  0  0  0  0  0  0  0  0
   -5.3633   53.0121   11.9105 C   0  0  0  0  0  0  0  0  0  0  0  0
   -6.2697   54.0706   11.7244 C   0  0  0  0  0  0  0  0  0  0  0  0
   -4.0001   53.2235   12.3917 C   0  0  0  0  0  0  0  0  0  0  0  0
   -2.8797   53.0889   11.7054 N   0  0  0  0  0  0  0  0  0  0  0  0
   -1.8505   53.3816   12.5659 N   0  0  0  0  0  0  0  0  0  0  0  0
   -2.3121   53.6821   13.7694 N   0  0  0  0  0  0  0  0  0  0  0  0
   -3.6418   53.5762   13.6653 N   0  0  0  0  0  0  0  0  0  0  0  0
   -4.2753   53.7307   14.4029 H   0  0  0  0  0  0  0  0  0  0  0  0
  1  2  2  0
  2  3  1  0
  3 15  1  0
 15 16  2  0
 16 17  1  0
 17 18  1  0
 17 19  2  0
 19 20  1  0
 20 22  1  0
 22 23  2  0
 23 24  1  0
 24 25  2  0
 25 26  1  0
 20 21  2  0
  2  5  1  0
  5  6  1  0
  6  7  2  0
  7  8  1  0
  8  9  2  0
  9 10  1  0
 10 11  1  0
 11 12  2  0
 12 13  1  0
 21 15  1  0
 13  5  2  0
 26 22  1  0
 12  8  1  0
  3  4  1  0
 26 27  1  0
 10 14  1  0
M  END
> <minimizedAffinity>
-7.90843

> <CNNscore>
0.2776311338

> <CNNaffinity>
4.5572195053

> <CNN_VS>
1.2652260065

> <CNNaffinity_variance>
1.3753675222

$$$$



 27 30  0  0  0  0  0  0  0  0999 V2000
   -7.7440   51.5349    9.9899 O   0  0  0  0  0  0  0  0  0  0  0  0
   -6.8003   52.1773   10.4306 C   0  0  0  0  0  0  0  0  0  0  0  0
   -6.5048   53.5057   10.1746 N   0  0  0  0  0  0  0  0  0  0  0  0
   -5.6628   53.8484   10.5525 H   0  0  0  0  0  0  0  0  0  0  0  0
   -5.8092   51.4765   11.2975 C   0  0  0  0  0  0  0  0  0  0  0  0
   -5.4388   52.0519   12.5637 C   0  0  0  0  0  0  0  0  0  0  0  0
   -4.5009   51.4625   13.4438 C   0  0  0  0  0  0  0  0  0  0  0  0
   -3.9689   50.2504   12.9744 C   0  0  0  0  0  0  0  0  0  0  0  0
   -3.0672   49.4280   13.5333 N   0  0  0  0  0  0  0  0  0  0  0  0
   -2.9406   48.4093   12.6594 N   0  0  0  0  0  0  0  0  0  0  0  0
   -3.7099   48.5294   11.5371 C   0  0  0  0  0  0  0  0  0  0  0  0
   -4.3852   49.7045   11.7071 C   0  0  0  0  0  0  0  0  0  0  0  0
   -5.3005   50.2474   10.8151 C   0  0  0  0  0  0  0  0  0  0  0  0
   -2.3434   47.6427   12.8170 H   0  0  0  0  0  0  0  0  0  0  0  0
   -7.2800   54.4228    9.4303 C   0  0  0  0  0  0  0  0  0  0  0  0
   -7.2748   54.4898    8.0372 C   0  0  0  0  0  0  0  0  0  0  0  0
   -8.0879   55.4137    7.3812 C   0  0  0  0  0  0  0  0  0  0  0  0
   -8.0808   55.4924    5.4909 Br  0  0  0  0  0  0  0  0  0  0  0  0
   -8.9089   56.2794    8.1006 C   0  0  0  0  0  0  0  0  0  0  0  0
   -8.9260   56.2369    9.5001 C   0  0  0  0  0  0  0  0  0  0  0  0
   -8.1105   55.2963   10.1536 C   0  0  0  0  0  0  0  0  0  0  0  0
   -9.7939   57.1604   10.2270 C   0  0  0  0  0  0  0  0  0  0  0  0
  -10.0808   58.4090    9.9057 N   0  0  0  0  0  0  0  0  0  0  0  0
  -10.9244   58.8846   10.8791 N   0  0  0  0  0  0  0  0  0  0  0  0
  -11.1538   57.9603   11.7982 N   0  0  0  0  0  0  0  0  0  0  0  0
  -10.4479   56.8956   11.4005 N   0  0  0  0  0  0  0  0  0  0  0  0
  -10.4046   56.0396   11.8849 H   0  0  0  0  0  0  0  0  0  0  0  0
  1  2  2  0
  2  3  1  0
  3 15  1  0
 15 16  2  0
 16 17  1  0
 17 18  1  0
 17 19  2  0
 19 20  1  0
 20 22  1  0
 22 23  2  0
 23 24  1  0
 24 25  2  0
 25 26  1  0
 20 21  2  0
  2  5  1  0
  5  6  1  0
  6  7  2  0
  7  8  1  0
  8  9  2  0
  9 10  1  0
 10 11  1  0
 11 12  2  0
 12 13  1  0
 21 15  1  0
 13  5  2  0
 26 22  1  0
 12  8  1  0
  3  4  1  0
 26 27  1  0
 10 14  1  0
M  END
> <minimizedAffinity>
-6.55694

> <CNNscore>
0.2764553130

> <CNNaffinity>
4.9494071007

> <CNN_VS>
1.3682899475

> <CNNaffinity_variance>
0.1638325304

$$$$



 27 30  0  0  0  0  0  0  0  0999 V2000
   -6.4239   55.4526    8.0864 O   0  0  0  0  0  0  0  0  0  0  0  0
   -7.5056   55.3713    7.5200 C   0  0  0  0  0  0  0  0  0  0  0  0
   -8.7589   55.4884    8.0970 N   0  0  0  0  0  0  0  0  0  0  0  0
   -9.5301   55.3223    7.5080 H   0  0  0  0  0  0  0  0  0  0  0  0
   -7.5201   55.0605    6.0612 C   0  0  0  0  0  0  0  0  0  0  0  0
   -6.5692   54.1232    5.5238 C   0  0  0  0  0  0  0  0  0  0  0  0
   -6.5039   53.7773    4.1535 C   0  0  0  0  0  0  0  0  0  0  0  0
   -7.4651   54.4249    3.3603 C   0  0  0  0  0  0  0  0  0  0  0  0
   -7.6944   54.3428    2.0403 N   0  0  0  0  0  0  0  0  0  0  0  0
   -8.7435   55.1605    1.8204 N   0  0  0  0  0  0  0  0  0  0  0  0
   -9.2100   55.7930    2.9375 C   0  0  0  0  0  0  0  0  0  0  0  0
   -8.4090   55.3421    3.9479 C   0  0  0  0  0  0  0  0  0  0  0  0
   -8.5088   55.7086    5.2836 C   0  0  0  0  0  0  0  0  0  0  0  0
   -9.1403   55.2908    0.9289 H   0  0  0  0  0  0  0  0  0  0  0  0
   -9.0516   55.8204    9.4387 C   0  0  0  0  0  0  0  0  0  0  0  0
  -10.2200   56.4682    9.8392 C   0  0  0  0  0  0  0  0  0  0  0  0
  -10.4380   56.7399   11.1896 C   0  0  0  0  0  0  0  0  0  0  0  0
  -12.0294   57.6119   11.7251 Br  0  0  0  0  0  0  0  0  0  0  0  0
   -9.4989   56.3748   12.1517 C   0  0  0  0  0  0  0  0  0  0  0  0
   -8.3145   55.7304   11.7740 C   0  0  0  0  0  0  0  0  0  0  0  0
   -8.1065   55.4516   10.4117 C   0  0  0  0  0  0  0  0  0  0  0  0
   -7.3466   55.3639   12.8052 C   0  0  0  0  0  0  0  0  0  0  0  0
   -7.5567   55.2829   14.1067 N   0  0  0  0  0  0  0  0  0  0  0  0
   -6.3640   54.9135   14.6781 N   0  0  0  0  0  0  0  0  0  0  0  0
   -5.4220   54.7767   13.7586 N   0  0  0  0  0  0  0  0  0  0  0  0
   -6.0266   55.0636   12.6000 N   0  0  0  0  0  0  0  0  0  0  0  0
   -5.5834   55.0593   11.7209 H   0  0  0  0  0  0  0  0  0  0  0  0
  1  2  2  0
  2  3  1  0
  3 15  1  0
 15 16  2  0
 16 17  1  0
 17 18  1  0
 17 19  2  0
 19 20  1  0
 20 22  1  0
 22 23  2  0
 23 24  1  0
 24 25  2  0
 25 26  1  0
 20 21  2  0
  2  5  1  0
  5  6  1  0
  6  7  2  0
  7  8  1  0
  8  9  2  0
  9 10  1  0
 10 11  1  0
 11 12  2  0
 12 13  1  0
 21 15  1  0
 13  5  2  0
 26 22  1  0
 12  8  1  0
  3  4  1  0
 26 27  1  0
 10 14  1  0
M  END
> <minimizedAffinity>
-8.65032

> <CNNscore>
0.2626314163

> <CNNaffinity>
4.7384567261

> <CNN_VS>
1.2444676161

> <CNNaffinity_variance>
0.8572240472

$$$$
