


 34 36  0  0  0  0  0  0  0  0999 V2000
   -0.1499   30.3121    8.2932 C   0  0  0  0  0  0  0  0  0  0  0  0
    0.1549   28.9749    8.1611 C   0  0  0  0  0  0  0  0  0  0  0  0
    1.1594   28.5074    7.3941 N   0  0  0  0  0  0  0  0  0  0  0  0
    1.8680   29.4153    6.7122 C   0  0  0  0  0  0  0  0  0  0  0  0
    1.6490   30.7320    6.7795 N   0  0  0  0  0  0  0  0  0  0  0  0
    0.6398   31.1772    7.5500 C   0  0  0  0  0  0  0  0  0  0  0  0
    0.4922   32.5745    7.6122 N   0  0  0  0  0  0  0  0  0  0  0  0
    1.0723   33.1554    7.0689 H   0  0  0  0  0  0  0  0  0  0  0  0
   -0.1913   32.9717    8.1990 H   0  0  0  0  0  0  0  0  0  0  0  0
   -1.2684   30.7857    9.1369 C   0  0  0  0  0  0  0  0  0  0  0  0
   -1.4582   31.9836    9.3290 O   0  0  0  0  0  0  0  0  0  0  0  0
   -1.8129   29.1955   10.9785 C   0  0  0  0  0  0  0  0  0  0  0  0
   -2.6814   28.2783   11.5760 C   0  0  0  0  0  0  0  0  0  0  0  0
   -3.8978   27.9789   10.9574 C   0  0  0  0  0  0  0  0  0  0  0  0
   -5.0652   26.7317   11.7678 Br  0  0  0  0  0  0  0  0  0  0  0  0
   -4.2498   28.6051    9.7622 C   0  0  0  0  0  0  0  0  0  0  0  0
   -5.4194   28.3326    9.1655 F   0  0  0  0  0  0  0  0  0  0  0  0
   -3.3916   29.5319    9.1817 C   0  0  0  0  0  0  0  0  0  0  0  0
   -3.7445   30.1393    8.0392 F   0  0  0  0  0  0  0  0  0  0  0  0
   -2.1774   29.8348    9.7904 C   0  0  0  0  0  0  0  0  0  0  0  0
   -0.0360   28.4093   12.2180 C   0  0  0  0  0  0  0  0  0  0  0  0
   -0.6584   29.5504   11.6207 O   0  0  0  0  0  0  0  0  0  0  0  0
    2.9078   29.0255    5.8913 N   0  0  0  0  0  0  0  0  0  0  0  0
    3.3527   29.6738    5.2988 H   0  0  0  0  0  0  0  0  0  0  0  0
    3.3303   27.6316    5.9233 C   0  0  0  0  0  0  0  0  0  0  0  0
    3.7604   27.1958    7.3336 C   0  0  0  0  0  0  0  0  0  0  0  0
    5.2694   27.2623    7.5223 C   0  0  0  0  0  0  0  0  0  0  0  0
    5.9629   26.4113    6.5309 N   0  0  0  0  0  0  0  0  0  0  0  0
    5.2951   26.2240    5.2262 C   0  0  0  0  0  0  0  0  0  0  0  0
    4.4542   27.4473    4.8939 C   0  0  0  0  0  0  0  0  0  0  0  0
    6.9961   25.1938    7.0786 S   0  0  0  0  0  0  0  0  0  0  0  0
    5.8868   23.8093    7.2468 C   0  0  0  0  0  0  0  0  0  0  0  0
    7.9286   24.8842    6.0165 O   0  0  0  0  0  0  0  0  0  0  0  0
    7.4534   25.5558    8.4026 O   0  0  0  0  0  0  0  0  0  0  0  0
 21 22  1  0
 22 12  1  0
 12 13  2  0
 13 14  1  0
 14 15  1  0
 14 16  2  0
 16 17  1  0
 16 18  1  0
 18 19  1  0
 18 20  2  0
 20 10  1  0
 10 11  2  0
 10  1  1  0
  1  2  2  0
  2  3  1  0
  3  4  2  0
  4 23  1  0
 23 25  1  0
 25 26  1  0
 26 27  1  0
 27 28  1  0
 28 31  1  0
 31 32  1  0
 31 33  2  0
 31 34  2  0
 28 29  1  0
 29 30  1  0
  4  5  1  0
  5  6  2  0
  6  7  1  0
 20 12  1  0
  6  1  1  0
 30 25  1  0
 23 24  1  0
  7  8  1  0
  7  9  1  0
M  END
> <minimizedAffinity>
-8.95073

> <CNNscore>
0.9894994497

> <CNNaffinity>
7.8819479942

> <CNN_VS>
7.7991833687

> <CNNaffinity_variance>
0.1525602192

$$$$



 34 36  0  0  0  0  0  0  0  0999 V2000
   -0.1589   29.3230    9.5895 C   0  0  0  0  0  0  0  0  0  0  0  0
    0.6899   28.2378    9.5723 C   0  0  0  0  0  0  0  0  0  0  0  0
    1.6202   28.0290    8.6201 N   0  0  0  0  0  0  0  0  0  0  0  0
    1.6826   28.9300    7.6324 C   0  0  0  0  0  0  0  0  0  0  0  0
    0.9045   30.0146    7.5660 N   0  0  0  0  0  0  0  0  0  0  0  0
   -0.0190   30.2030    8.5262 C   0  0  0  0  0  0  0  0  0  0  0  0
   -0.7731   31.3856    8.4219 N   0  0  0  0  0  0  0  0  0  0  0  0
   -0.6448   31.9848    7.6514 H   0  0  0  0  0  0  0  0  0  0  0  0
   -1.4292   31.6142    9.1194 H   0  0  0  0  0  0  0  0  0  0  0  0
   -1.1754   29.5117   10.6469 C   0  0  0  0  0  0  0  0  0  0  0  0
   -1.4134   30.6236   11.1104 O   0  0  0  0  0  0  0  0  0  0  0  0
   -3.2337   28.1119   10.7919 C   0  0  0  0  0  0  0  0  0  0  0  0
   -3.9341   27.0322   11.3362 C   0  0  0  0  0  0  0  0  0  0  0  0
   -3.3240   26.2364   12.3089 C   0  0  0  0  0  0  0  0  0  0  0  0
   -4.2798   24.7811   13.0463 Br  0  0  0  0  0  0  0  0  0  0  0  0
   -2.0191   26.5071   12.7194 C   0  0  0  0  0  0  0  0  0  0  0  0
   -1.4205   25.7432   13.6449 F   0  0  0  0  0  0  0  0  0  0  0  0
   -1.3188   27.5700   12.1607 C   0  0  0  0  0  0  0  0  0  0  0  0
   -0.0595   27.8147   12.5518 F   0  0  0  0  0  0  0  0  0  0  0  0
   -1.9196   28.3687   11.1924 C   0  0  0  0  0  0  0  0  0  0  0  0
   -4.8085   29.7188   10.2924 C   0  0  0  0  0  0  0  0  0  0  0  0
   -3.7977   28.8441    9.7834 O   0  0  0  0  0  0  0  0  0  0  0  0
    2.5971   28.7893    6.6073 N   0  0  0  0  0  0  0  0  0  0  0  0
    2.8479   29.5584    6.0461 H   0  0  0  0  0  0  0  0  0  0  0  0
    3.1819   27.4750    6.3765 C   0  0  0  0  0  0  0  0  0  0  0  0
    3.6884   26.8367    7.6804 C   0  0  0  0  0  0  0  0  0  0  0  0
    5.1824   27.0468    7.8826 C   0  0  0  0  0  0  0  0  0  0  0  0
    5.9518   26.4866    6.7504 N   0  0  0  0  0  0  0  0  0  0  0  0
    5.2852   26.4692    5.4318 C   0  0  0  0  0  0  0  0  0  0  0  0
    4.2992   27.6235    5.3341 C   0  0  0  0  0  0  0  0  0  0  0  0
    7.1323   25.3205    7.0611 S   0  0  0  0  0  0  0  0  0  0  0  0
    6.1684   23.8238    7.1390 C   0  0  0  0  0  0  0  0  0  0  0  0
    7.9918   25.2307    5.9007 O   0  0  0  0  0  0  0  0  0  0  0  0
    7.6702   25.5678    8.3812 O   0  0  0  0  0  0  0  0  0  0  0  0
 21 22  1  0
 22 12  1  0
 12 13  2  0
 13 14  1  0
 14 15  1  0
 14 16  2  0
 16 17  1  0
 16 18  1  0
 18 19  1  0
 18 20  2  0
 20 10  1  0
 10 11  2  0
 10  1  1  0
  1  2  2  0
  2  3  1  0
  3  4  2  0
  4 23  1  0
 23 25  1  0
 25 26  1  0
 26 27  1  0
 27 28  1  0
 28 31  1  0
 31 32  1  0
 31 33  2  0
 31 34  2  0
 28 29  1  0
 29 30  1  0
  4  5  1  0
  5  6  2  0
  6  7  1  0
 20 12  1  0
  6  1  1  0
 30 25  1  0
 23 24  1  0
  7  8  1  0
  7  9  1  0
M  END
> <minimizedAffinity>
-8.55640

> <CNNscore>
0.7523296475

> <CNNaffinity>
7.4329819679

> <CNN_VS>
5.5920529366

> <CNNaffinity_variance>
0.0017682564

$$$$



 34 36  0  0  0  0  0  0  0  0999 V2000
    0.7539   28.6442    9.6171 C   0  0  0  0  0  0  0  0  0  0  0  0
    1.6485   27.5993    9.5392 C   0  0  0  0  0  0  0  0  0  0  0  0
    2.3562   27.2994    8.4323 N   0  0  0  0  0  0  0  0  0  0  0  0
    2.1371   28.0610    7.3538 C   0  0  0  0  0  0  0  0  0  0  0  0
    1.2928   29.0968    7.3348 N   0  0  0  0  0  0  0  0  0  0  0  0
    0.5949   29.3778    8.4504 C   0  0  0  0  0  0  0  0  0  0  0  0
   -0.2411   30.5064    8.3773 N   0  0  0  0  0  0  0  0  0  0  0  0
   -0.3275   31.0010    7.5305 H   0  0  0  0  0  0  0  0  0  0  0  0
   -0.7398   30.8019    9.1731 H   0  0  0  0  0  0  0  0  0  0  0  0
   -0.0129   28.9351   10.8477 C   0  0  0  0  0  0  0  0  0  0  0  0
    0.3617   29.7916   11.6439 O   0  0  0  0  0  0  0  0  0  0  0  0
   -1.1778   26.9460   11.7981 C   0  0  0  0  0  0  0  0  0  0  0  0
   -2.3531   26.2432   12.0769 C   0  0  0  0  0  0  0  0  0  0  0  0
   -3.5834   26.7782   11.6876 C   0  0  0  0  0  0  0  0  0  0  0  0
   -5.1692   25.8188   12.0617 Br  0  0  0  0  0  0  0  0  0  0  0  0
   -3.6387   28.0131   11.0422 C   0  0  0  0  0  0  0  0  0  0  0  0
   -4.8153   28.5404   10.6734 F   0  0  0  0  0  0  0  0  0  0  0  0
   -2.4687   28.7182   10.7847 C   0  0  0  0  0  0  0  0  0  0  0  0
   -2.5325   29.9114   10.1757 F   0  0  0  0  0  0  0  0  0  0  0  0
   -1.2388   28.1918   11.1678 C   0  0  0  0  0  0  0  0  0  0  0  0
   -0.1595   25.2416   12.9685 C   0  0  0  0  0  0  0  0  0  0  0  0
    0.0207   26.4640   12.2478 O   0  0  0  0  0  0  0  0  0  0  0  0
    2.8087   27.8182    6.1719 N   0  0  0  0  0  0  0  0  0  0  0  0
    2.3449   27.8832    5.3059 H   0  0  0  0  0  0  0  0  0  0  0  0
    4.2202   27.4634    6.2377 C   0  0  0  0  0  0  0  0  0  0  0  0
    4.9169   27.6315    4.8774 C   0  0  0  0  0  0  0  0  0  0  0  0
    5.0129   26.3187    4.1129 C   0  0  0  0  0  0  0  0  0  0  0  0
    5.7465   25.3029    4.8990 N   0  0  0  0  0  0  0  0  0  0  0  0
    5.6588   25.4041    6.3705 C   0  0  0  0  0  0  0  0  0  0  0  0
    4.3295   26.0273    6.7691 C   0  0  0  0  0  0  0  0  0  0  0  0
    7.1220   24.5881    4.2306 S   0  0  0  0  0  0  0  0  0  0  0  0
    6.4188   23.4704    3.0340 C   0  0  0  0  0  0  0  0  0  0  0  0
    7.8510   25.6066    3.5063 O   0  0  0  0  0  0  0  0  0  0  0  0
    7.7574   23.7917    5.2578 O   0  0  0  0  0  0  0  0  0  0  0  0
 21 22  1  0
 22 12  1  0
 12 13  2  0
 13 14  1  0
 14 15  1  0
 14 16  2  0
 16 17  1  0
 16 18  1  0
 18 19  1  0
 18 20  2  0
 20 10  1  0
 10 11  2  0
 10  1  1  0
  1  2  2  0
  2  3  1  0
  3  4  2  0
  4 23  1  0
 23 25  1  0
 25 26  1  0
 26 27  1  0
 27 28  1  0
 28 31  1  0
 31 32  1  0
 31 33  2  0
 31 34  2  0
 28 29  1  0
 29 30  1  0
  4  5  1  0
  5  6  2  0
  6  7  1  0
 20 12  1  0
  6  1  1  0
 30 25  1  0
 23 24  1  0
  7  8  1  0
  7  9  1  0
M  END
> <minimizedAffinity>
-8.00602

> <CNNscore>
0.2343719751

> <CNNaffinity>
6.9064083099

> <CNN_VS>
1.6186685562

> <CNNaffinity_variance>
0.0229002740

$$$$



 34 36  0  0  0  0  0  0  0  0999 V2000
   -1.9537   29.1199   10.4194 C   0  0  0  0  0  0  0  0  0  0  0  0
   -1.8620   28.2545   11.4876 C   0  0  0  0  0  0  0  0  0  0  0  0
   -2.8839   27.4929   11.9251 N   0  0  0  0  0  0  0  0  0  0  0  0
   -4.0505   27.6252   11.2826 C   0  0  0  0  0  0  0  0  0  0  0  0
   -4.2343   28.4351   10.2355 N   0  0  0  0  0  0  0  0  0  0  0  0
   -3.2010   29.1880    9.8161 C   0  0  0  0  0  0  0  0  0  0  0  0
   -3.4481   29.9835    8.6828 N   0  0  0  0  0  0  0  0  0  0  0  0
   -4.3476   30.0053    8.2833 H   0  0  0  0  0  0  0  0  0  0  0  0
   -2.7215   30.5187    8.2892 H   0  0  0  0  0  0  0  0  0  0  0  0
   -0.8116   29.9480    9.9758 C   0  0  0  0  0  0  0  0  0  0  0  0
   -0.6437   31.0851   10.4079 O   0  0  0  0  0  0  0  0  0  0  0  0
    0.8331   28.2431    9.1982 C   0  0  0  0  0  0  0  0  0  0  0  0
    1.7585   27.7875    8.2553 C   0  0  0  0  0  0  0  0  0  0  0  0
    2.0200   28.5582    7.1199 C   0  0  0  0  0  0  0  0  0  0  0  0
    3.2783   27.9391    5.8516 Br  0  0  0  0  0  0  0  0  0  0  0  0
    1.3486   29.7640    6.9206 C   0  0  0  0  0  0  0  0  0  0  0  0
    1.5847   30.5064    5.8291 F   0  0  0  0  0  0  0  0  0  0  0  0
    0.4142   30.2037    7.8511 C   0  0  0  0  0  0  0  0  0  0  0  0
   -0.2367   31.3580    7.6445 F   0  0  0  0  0  0  0  0  0  0  0  0
    0.1487   29.4429    8.9857 C   0  0  0  0  0  0  0  0  0  0  0  0
    1.6797   26.7993   10.7826 C   0  0  0  0  0  0  0  0  0  0  0  0
    0.5161   27.4544   10.2699 O   0  0  0  0  0  0  0  0  0  0  0  0
   -5.1554   26.8935   11.6709 N   0  0  0  0  0  0  0  0  0  0  0  0
   -6.0564   27.2896   11.6470 H   0  0  0  0  0  0  0  0  0  0  0  0
   -4.9552   25.5210   12.1167 C   0  0  0  0  0  0  0  0  0  0  0  0
   -6.1384   25.0136   12.9574 C   0  0  0  0  0  0  0  0  0  0  0  0
   -5.8779   25.1359   14.4521 C   0  0  0  0  0  0  0  0  0  0  0  0
   -4.6644   24.3839   14.8392 N   0  0  0  0  0  0  0  0  0  0  0  0
   -3.6045   24.2525   13.8180 C   0  0  0  0  0  0  0  0  0  0  0  0
   -3.6291   25.4556   12.8875 C   0  0  0  0  0  0  0  0  0  0  0  0
   -4.7885   23.1811   16.0172 S   0  0  0  0  0  0  0  0  0  0  0  0
   -3.7477   21.8969   15.3518 C   0  0  0  0  0  0  0  0  0  0  0  0
   -4.1643   23.6709   17.2271 O   0  0  0  0  0  0  0  0  0  0  0  0
   -6.1496   22.6908   16.0155 O   0  0  0  0  0  0  0  0  0  0  0  0
 21 22  1  0
 22 12  1  0
 12 13  2  0
 13 14  1  0
 14 15  1  0
 14 16  2  0
 16 17  1  0
 16 18  1  0
 18 19  1  0
 18 20  2  0
 20 10  1  0
 10 11  2  0
 10  1  1  0
  1  2  2  0
  2  3  1  0
  3  4  2  0
  4 23  1  0
 23 25  1  0
 25 26  1  0
 26 27  1  0
 27 28  1  0
 28 31  1  0
 31 32  1  0
 31 33  2  0
 31 34  2  0
 28 29  1  0
 29 30  1  0
  4  5  1  0
  5  6  2  0
  6  7  1  0
 20 12  1  0
  6  1  1  0
 30 25  1  0
 23 24  1  0
  7  8  1  0
  7  9  1  0
M  END
> <minimizedAffinity>
-9.20662

> <CNNscore>
0.1719614863

> <CNNaffinity>
5.9056973457

> <CNN_VS>
1.0155525208

> <CNNaffinity_variance>
1.1212850809

$$$$



 34 36  0  0  0  0  0  0  0  0999 V2000
    0.9031   28.4647    9.7460 C   0  0  0  0  0  0  0  0  0  0  0  0
    0.6101   29.3119    8.6996 C   0  0  0  0  0  0  0  0  0  0  0  0
    1.1858   29.2286    7.4840 N   0  0  0  0  0  0  0  0  0  0  0  0
    2.1110   28.2754    7.3208 C   0  0  0  0  0  0  0  0  0  0  0  0
    2.4587   27.4064    8.2748 N   0  0  0  0  0  0  0  0  0  0  0  0
    1.8727   27.5084    9.4818 C   0  0  0  0  0  0  0  0  0  0  0  0
    2.2498   26.5361   10.4256 N   0  0  0  0  0  0  0  0  0  0  0  0
    2.9425   25.8739   10.2002 H   0  0  0  0  0  0  0  0  0  0  0  0
    1.8209   26.5178   11.3116 H   0  0  0  0  0  0  0  0  0  0  0  0
    0.2574   28.5951   11.0700 C   0  0  0  0  0  0  0  0  0  0  0  0
    0.7947   29.2174   11.9820 O   0  0  0  0  0  0  0  0  0  0  0  0
   -1.1136   26.6897   11.9105 C   0  0  0  0  0  0  0  0  0  0  0  0
   -2.3570   26.0964   12.1447 C   0  0  0  0  0  0  0  0  0  0  0  0
   -3.5223   26.7715   11.7733 C   0  0  0  0  0  0  0  0  0  0  0  0
   -5.2011   25.9601   12.0867 Br  0  0  0  0  0  0  0  0  0  0  0  0
   -3.4449   28.0358   11.1902 C   0  0  0  0  0  0  0  0  0  0  0  0
   -4.5577   28.6968   10.8393 F   0  0  0  0  0  0  0  0  0  0  0  0
   -2.2068   28.6309   10.9774 C   0  0  0  0  0  0  0  0  0  0  0  0
   -2.1426   29.8529   10.4284 F   0  0  0  0  0  0  0  0  0  0  0  0
   -1.0410   27.9647   11.3430 C   0  0  0  0  0  0  0  0  0  0  0  0
   -0.1334   24.6459   12.3277 C   0  0  0  0  0  0  0  0  0  0  0  0
    0.0246   26.0675   12.3447 O   0  0  0  0  0  0  0  0  0  0  0  0
    2.7619   28.1251    6.1122 N   0  0  0  0  0  0  0  0  0  0  0  0
    2.2843   28.2604    5.2620 H   0  0  0  0  0  0  0  0  0  0  0  0
    4.1726   27.7615    6.1259 C   0  0  0  0  0  0  0  0  0  0  0  0
    4.4568   26.5364    5.2415 C   0  0  0  0  0  0  0  0  0  0  0  0
    4.5065   25.2445    6.0449 C   0  0  0  0  0  0  0  0  0  0  0  0
    5.5414   25.3184    7.0991 N   0  0  0  0  0  0  0  0  0  0  0  0
    5.8361   26.6554    7.6548 C   0  0  0  0  0  0  0  0  0  0  0  0
    4.5945   27.5315    7.5841 C   0  0  0  0  0  0  0  0  0  0  0  0
    6.7668   24.1576    7.1252 S   0  0  0  0  0  0  0  0  0  0  0  0
    5.8861   22.6738    6.6800 C   0  0  0  0  0  0  0  0  0  0  0  0
    7.6929   24.4576    6.0548 O   0  0  0  0  0  0  0  0  0  0  0  0
    7.2159   24.0103    8.4925 O   0  0  0  0  0  0  0  0  0  0  0  0
 21 22  1  0
 22 12  1  0
 12 13  2  0
 13 14  1  0
 14 15  1  0
 14 16  2  0
 16 17  1  0
 16 18  1  0
 18 19  1  0
 18 20  2  0
 20 10  1  0
 10 11  2  0
 10  1  1  0
  1  2  2  0
  2  3  1  0
  3  4  2  0
  4 23  1  0
 23 25  1  0
 25 26  1  0
 26 27  1  0
 27 28  1  0
 28 31  1  0
 31 32  1  0
 31 33  2  0
 31 34  2  0
 28 29  1  0
 29 30  1  0
  4  5  1  0
  5  6  2  0
  6  7  1  0
 20 12  1  0
  6  1  1  0
 30 25  1  0
 23 24  1  0
  7  8  1  0
  7  9  1  0
M  END
> <minimizedAffinity>
-8.23344

> <CNNscore>
0.1610309482

> <CNNaffinity>
6.8594226837

> <CNN_VS>
1.1045793295

> <CNNaffinity_variance>
0.0032632581

$$$$



 34 36  0  0  0  0  0  0  0  0999 V2000
   -1.2712   28.6238   10.8616 C   0  0  0  0  0  0  0  0  0  0  0  0
   -2.4000   28.1127   10.2590 C   0  0  0  0  0  0  0  0  0  0  0  0
   -3.2264   27.2250   10.8462 N   0  0  0  0  0  0  0  0  0  0  0  0
   -2.8920   26.8139   12.0753 C   0  0  0  0  0  0  0  0  0  0  0  0
   -1.8201   27.2553   12.7403 N   0  0  0  0  0  0  0  0  0  0  0  0
   -1.0073   28.1402   12.1347 C   0  0  0  0  0  0  0  0  0  0  0  0
    0.0762   28.5981   12.9057 N   0  0  0  0  0  0  0  0  0  0  0  0
    0.2304   28.2300   13.8057 H   0  0  0  0  0  0  0  0  0  0  0  0
    0.6805   29.2868   12.5454 H   0  0  0  0  0  0  0  0  0  0  0  0
   -0.3823   29.5890   10.1795 C   0  0  0  0  0  0  0  0  0  0  0  0
   -0.4026   30.7837   10.4629 O   0  0  0  0  0  0  0  0  0  0  0  0
    1.5333   28.2034    9.3875 C   0  0  0  0  0  0  0  0  0  0  0  0
    2.4159   27.8133    8.3768 C   0  0  0  0  0  0  0  0  0  0  0  0
    2.3213   28.4046    7.1147 C   0  0  0  0  0  0  0  0  0  0  0  0
    3.5232   27.8771    5.7536 Br  0  0  0  0  0  0  0  0  0  0  0  0
    1.3412   29.3635    6.8609 C   0  0  0  0  0  0  0  0  0  0  0  0
    1.2352   29.9299    5.6500 F   0  0  0  0  0  0  0  0  0  0  0  0
    0.4524   29.7341    7.8634 C   0  0  0  0  0  0  0  0  0  0  0  0
   -0.4956   30.6473    7.6065 F   0  0  0  0  0  0  0  0  0  0  0  0
    0.5406   29.1512    9.1240 C   0  0  0  0  0  0  0  0  0  0  0  0
    2.0400   26.2263   10.4580 C   0  0  0  0  0  0  0  0  0  0  0  0
    1.5712   27.5703   10.5994 O   0  0  0  0  0  0  0  0  0  0  0  0
   -3.6740   25.8957   12.7479 N   0  0  0  0  0  0  0  0  0  0  0  0
   -4.4338   26.1895   13.3008 H   0  0  0  0  0  0  0  0  0  0  0  0
   -3.3473   24.4818   12.6195 C   0  0  0  0  0  0  0  0  0  0  0  0
   -2.0862   24.1107   13.4170 C   0  0  0  0  0  0  0  0  0  0  0  0
   -0.8386   24.0887   12.5452 C   0  0  0  0  0  0  0  0  0  0  0  0
   -0.9923   23.1309   11.4286 N   0  0  0  0  0  0  0  0  0  0  0  0
   -2.3629   22.9042   10.9253 C   0  0  0  0  0  0  0  0  0  0  0  0
   -3.2026   24.1567   11.1260 C   0  0  0  0  0  0  0  0  0  0  0  0
    0.1345   21.8853   11.2585 S   0  0  0  0  0  0  0  0  0  0  0  0
    1.0559   22.4075    9.8253 C   0  0  0  0  0  0  0  0  0  0  0  0
    1.0277   21.9289   12.3959 O   0  0  0  0  0  0  0  0  0  0  0  0
   -0.5813   20.6783   10.9068 O   0  0  0  0  0  0  0  0  0  0  0  0
 21 22  1  0
 22 12  1  0
 12 13  2  0
 13 14  1  0
 14 15  1  0
 14 16  2  0
 16 17  1  0
 16 18  1  0
 18 19  1  0
 18 20  2  0
 20 10  1  0
 10 11  2  0
 10  1  1  0
  1  2  2  0
  2  3  1  0
  3  4  2  0
  4 23  1  0
 23 25  1  0
 25 26  1  0
 26 27  1  0
 27 28  1  0
 28 31  1  0
 31 32  1  0
 31 33  2  0
 31 34  2  0
 28 29  1  0
 29 30  1  0
  4  5  1  0
  5  6  2  0
  6  7  1  0
 20 12  1  0
  6  1  1  0
 30 25  1  0
 23 24  1  0
  7  8  1  0
  7  9  1  0
M  END
> <minimizedAffinity>
-8.46688

> <CNNscore>
0.1539141685

> <CNNaffinity>
6.1389465332

> <CNN_VS>
0.9448708296

> <CNNaffinity_variance>
0.8565067649

$$$$



 34 36  0  0  0  0  0  0  0  0999 V2000
    2.0801   27.8762    8.4715 C   0  0  0  0  0  0  0  0  0  0  0  0
    1.7580   28.6110    7.3514 C   0  0  0  0  0  0  0  0  0  0  0  0
    2.3574   28.4550    6.1547 N   0  0  0  0  0  0  0  0  0  0  0  0
    3.3366   27.5451    6.0867 C   0  0  0  0  0  0  0  0  0  0  0  0
    3.7160   26.7836    7.1173 N   0  0  0  0  0  0  0  0  0  0  0  0
    3.1054   26.9569    8.3037 C   0  0  0  0  0  0  0  0  0  0  0  0
    3.5201   26.0935    9.3336 N   0  0  0  0  0  0  0  0  0  0  0  0
    4.2521   25.4544    9.1753 H   0  0  0  0  0  0  0  0  0  0  0  0
    3.0783   26.1281   10.2127 H   0  0  0  0  0  0  0  0  0  0  0  0
    1.4063   28.0845    9.7714 C   0  0  0  0  0  0  0  0  0  0  0  0
    2.0224   27.9938   10.8298 O   0  0  0  0  0  0  0  0  0  0  0  0
   -0.9682   27.3691   10.0291 C   0  0  0  0  0  0  0  0  0  0  0  0
   -2.3318   27.6719   10.0701 C   0  0  0  0  0  0  0  0  0  0  0  0
   -2.7495   28.9916    9.8820 C   0  0  0  0  0  0  0  0  0  0  0  0
   -4.5965   29.3932    9.9318 Br  0  0  0  0  0  0  0  0  0  0  0  0
   -1.8108   30.0015    9.6736 C   0  0  0  0  0  0  0  0  0  0  0  0
   -2.2005   31.2732    9.5022 F   0  0  0  0  0  0  0  0  0  0  0  0
   -0.4542   29.6991    9.6535 C   0  0  0  0  0  0  0  0  0  0  0  0
    0.4422   30.6789    9.4659 F   0  0  0  0  0  0  0  0  0  0  0  0
   -0.0296   28.3868    9.8385 C   0  0  0  0  0  0  0  0  0  0  0  0
   -1.5806   25.3442   10.9437 C   0  0  0  0  0  0  0  0  0  0  0  0
   -0.5510   26.0931   10.2917 O   0  0  0  0  0  0  0  0  0  0  0  0
    4.0147   27.3273    4.9036 N   0  0  0  0  0  0  0  0  0  0  0  0
    4.0197   28.0081    4.1925 H   0  0  0  0  0  0  0  0  0  0  0  0
    4.7226   26.0653    4.7334 C   0  0  0  0  0  0  0  0  0  0  0  0
    6.0473   26.2495    3.9750 C   0  0  0  0  0  0  0  0  0  0  0  0
    5.9106   25.9364    2.4917 C   0  0  0  0  0  0  0  0  0  0  0  0
    5.4357   24.5506    2.2868 N   0  0  0  0  0  0  0  0  0  0  0  0
    4.5751   23.9754    3.3412 C   0  0  0  0  0  0  0  0  0  0  0  0
    3.7829   25.0802    4.0238 C   0  0  0  0  0  0  0  0  0  0  0  0
    6.3695   23.4951    1.3574 S   0  0  0  0  0  0  0  0  0  0  0  0
    5.2804   22.0969    1.1715 C   0  0  0  0  0  0  0  0  0  0  0  0
    6.5514   24.0881    0.0503 O   0  0  0  0  0  0  0  0  0  0  0  0
    7.4979   23.0717    2.1577 O   0  0  0  0  0  0  0  0  0  0  0  0
 21 22  1  0
 22 12  1  0
 12 13  2  0
 13 14  1  0
 14 15  1  0
 14 16  2  0
 16 17  1  0
 16 18  1  0
 18 19  1  0
 18 20  2  0
 20 10  1  0
 10 11  2  0
 10  1  1  0
  1  2  2  0
  2  3  1  0
  3  4  2  0
  4 23  1  0
 23 25  1  0
 25 26  1  0
 26 27  1  0
 27 28  1  0
 28 31  1  0
 31 32  1  0
 31 33  2  0
 31 34  2  0
 28 29  1  0
 29 30  1  0
  4  5  1  0
  5  6  2  0
  6  7  1  0
 20 12  1  0
  6  1  1  0
 30 25  1  0
 23 24  1  0
  7  8  1  0
  7  9  1  0
M  END
> <minimizedAffinity>
-7.42013

> <CNNscore>
0.1455665380

> <CNNaffinity>
6.4653358459

> <CNN_VS>
0.9411365390

> <CNNaffinity_variance>
0.1569405198

$$$$



 34 36  0  0  0  0  0  0  0  0999 V2000
    1.0862   28.4529    9.7055 C   0  0  0  0  0  0  0  0  0  0  0  0
    0.7750   29.2381    8.6168 C   0  0  0  0  0  0  0  0  0  0  0  0
    1.4002   29.1505    7.4264 N   0  0  0  0  0  0  0  0  0  0  0  0
    2.3944   28.2593    7.3334 C   0  0  0  0  0  0  0  0  0  0  0  0
    2.7650   27.4528    8.3325 N   0  0  0  0  0  0  0  0  0  0  0  0
    2.1286   27.5580    9.5133 C   0  0  0  0  0  0  0  0  0  0  0  0
    2.5360   26.6502   10.5074 N   0  0  0  0  0  0  0  0  0  0  0  0
    3.2807   26.0304   10.3326 H   0  0  0  0  0  0  0  0  0  0  0  0
    2.0765   26.6346   11.3779 H   0  0  0  0  0  0  0  0  0  0  0  0
    0.3838   28.5865   11.0000 C   0  0  0  0  0  0  0  0  0  0  0  0
    0.8921   29.1900   11.9410 O   0  0  0  0  0  0  0  0  0  0  0  0
   -2.1056   28.6887   10.9054 C   0  0  0  0  0  0  0  0  0  0  0  0
   -3.3559   28.1059   11.1289 C   0  0  0  0  0  0  0  0  0  0  0  0
   -3.4293   26.8290   11.6908 C   0  0  0  0  0  0  0  0  0  0  0  0
   -5.1244   26.0492   11.9969 Br  0  0  0  0  0  0  0  0  0  0  0  0
   -2.2627   26.1345   12.0088 C   0  0  0  0  0  0  0  0  0  0  0  0
   -2.3218   24.9041   12.5391 F   0  0  0  0  0  0  0  0  0  0  0  0
   -1.0207   26.7098   11.7663 C   0  0  0  0  0  0  0  0  0  0  0  0
    0.0961   26.0290   12.0628 F   0  0  0  0  0  0  0  0  0  0  0  0
   -0.9386   27.9820   11.2083 C   0  0  0  0  0  0  0  0  0  0  0  0
   -2.8241   30.8777   10.9644 C   0  0  0  0  0  0  0  0  0  0  0  0
   -2.0281   29.9042   10.2828 O   0  0  0  0  0  0  0  0  0  0  0  0
    3.0990   28.1104    6.1550 N   0  0  0  0  0  0  0  0  0  0  0  0
    2.7011   28.3715    5.2932 H   0  0  0  0  0  0  0  0  0  0  0  0
    4.4455   27.5576    6.2184 C   0  0  0  0  0  0  0  0  0  0  0  0
    4.5450   26.2072    5.4902 C   0  0  0  0  0  0  0  0  0  0  0  0
    4.4248   25.0275    6.4445 C   0  0  0  0  0  0  0  0  0  0  0  0
    5.4735   25.0828    7.4862 N   0  0  0  0  0  0  0  0  0  0  0  0
    5.9586   26.4227    7.8768 C   0  0  0  0  0  0  0  0  0  0  0  0
    4.8501   27.4486    7.6954 C   0  0  0  0  0  0  0  0  0  0  0  0
    6.5258   23.7739    7.6577 S   0  0  0  0  0  0  0  0  0  0  0  0
    5.4057   22.4406    8.0366 C   0  0  0  0  0  0  0  0  0  0  0  0
    7.1159   23.4992    6.3656 O   0  0  0  0  0  0  0  0  0  0  0  0
    7.3449   24.0074    8.8271 O   0  0  0  0  0  0  0  0  0  0  0  0
 21 22  1  0
 22 12  1  0
 12 13  2  0
 13 14  1  0
 14 15  1  0
 14 16  2  0
 16 17  1  0
 16 18  1  0
 18 19  1  0
 18 20  2  0
 20 10  1  0
 10 11  2  0
 10  1  1  0
  1  2  2  0
  2  3  1  0
  3  4  2  0
  4 23  1  0
 23 25  1  0
 25 26  1  0
 26 27  1  0
 27 28  1  0
 28 31  1  0
 31 32  1  0
 31 33  2  0
 31 34  2  0
 28 29  1  0
 29 30  1  0
  4  5  1  0
  5  6  2  0
  6  7  1  0
 20 12  1  0
  6  1  1  0
 30 25  1  0
 23 24  1  0
  7  8  1  0
  7  9  1  0
M  END
> <minimizedAffinity>
-8.24733

> <CNNscore>
0.1433580220

> <CNNaffinity>
6.7167067528

> <CNN_VS>
0.9628937840

> <CNNaffinity_variance>
0.0232046675

$$$$



 34 36  0  0  0  0  0  0  0  0999 V2000
    4.2849   27.3660    6.4327 C   0  0  0  0  0  0  0  0  0  0  0  0
    3.6968   27.5064    5.1946 C   0  0  0  0  0  0  0  0  0  0  0  0
    4.0075   26.7456    4.1267 N   0  0  0  0  0  0  0  0  0  0  0  0
    4.9647   25.8266    4.3010 C   0  0  0  0  0  0  0  0  0  0  0  0
    5.5885   25.6150    5.4639 N   0  0  0  0  0  0  0  0  0  0  0  0
    5.2642   26.3871    6.5171 C   0  0  0  0  0  0  0  0  0  0  0  0
    5.9244   26.0828    7.7211 N   0  0  0  0  0  0  0  0  0  0  0  0
    6.6143   25.3807    7.7404 H   0  0  0  0  0  0  0  0  0  0  0  0
    5.6966   26.5718    8.5446 H   0  0  0  0  0  0  0  0  0  0  0  0
    3.9245   28.2285    7.5786 C   0  0  0  0  0  0  0  0  0  0  0  0
    4.7356   29.0106    8.0669 O   0  0  0  0  0  0  0  0  0  0  0  0
    2.2398   27.1122    9.0388 C   0  0  0  0  0  0  0  0  0  0  0  0
    0.9569   27.0531    9.5898 C   0  0  0  0  0  0  0  0  0  0  0  0
    0.0166   28.0289    9.2503 C   0  0  0  0  0  0  0  0  0  0  0  0
   -1.7194   27.9390    9.9941 Br  0  0  0  0  0  0  0  0  0  0  0  0
    0.3622   29.0641    8.3823 C   0  0  0  0  0  0  0  0  0  0  0  0
   -0.5297   30.0116    8.0578 F   0  0  0  0  0  0  0  0  0  0  0  0
    1.6455   29.1303    7.8521 C   0  0  0  0  0  0  0  0  0  0  0  0
    1.9730   30.1371    7.0288 F   0  0  0  0  0  0  0  0  0  0  0  0
    2.5878   28.1616    8.1839 C   0  0  0  0  0  0  0  0  0  0  0  0
    2.6856   24.8693    9.3256 C   0  0  0  0  0  0  0  0  0  0  0  0
    3.1860   26.2053    9.4303 O   0  0  0  0  0  0  0  0  0  0  0  0
    5.3565   25.0109    3.2579 N   0  0  0  0  0  0  0  0  0  0  0  0
    4.7631   24.3000    2.9234 H   0  0  0  0  0  0  0  0  0  0  0  0
    6.6692   25.2279    2.6644 C   0  0  0  0  0  0  0  0  0  0  0  0
    7.0312   26.7211    2.6054 C   0  0  0  0  0  0  0  0  0  0  0  0
    6.7341   27.3328    1.2436 C   0  0  0  0  0  0  0  0  0  0  0  0
    7.4707   26.6238    0.1748 N   0  0  0  0  0  0  0  0  0  0  0  0
    7.7606   25.1923    0.3983 C   0  0  0  0  0  0  0  0  0  0  0  0
    6.6812   24.5754    1.2748 C   0  0  0  0  0  0  0  0  0  0  0  0
    8.5146   27.5017   -0.8199 S   0  0  0  0  0  0  0  0  0  0  0  0
    9.0467   26.2653   -1.9877 C   0  0  0  0  0  0  0  0  0  0  0  0
    7.7306   28.4803   -1.5417 O   0  0  0  0  0  0  0  0  0  0  0  0
    9.6649   27.8884   -0.0323 O   0  0  0  0  0  0  0  0  0  0  0  0
 21 22  1  0
 22 12  1  0
 12 13  2  0
 13 14  1  0
 14 15  1  0
 14 16  2  0
 16 17  1  0
 16 18  1  0
 18 19  1  0
 18 20  2  0
 20 10  1  0
 10 11  2  0
 10  1  1  0
  1  2  2  0
  2  3  1  0
  3  4  2  0
  4 23  1  0
 23 25  1  0
 25 26  1  0
 26 27  1  0
 27 28  1  0
 28 31  1  0
 31 32  1  0
 31 33  2  0
 31 34  2  0
 28 29  1  0
 29 30  1  0
  4  5  1  0
  5  6  2  0
  6  7  1  0
 20 12  1  0
  6  1  1  0
 30 25  1  0
 23 24  1  0
  7  8  1  0
  7  9  1  0
M  END
> <minimizedAffinity>
-7.55870

> <CNNscore>
0.1263477653

> <CNNaffinity>
5.2599558830

> <CNN_VS>
0.6645836830

> <CNNaffinity_variance>
1.1917806864

$$$$
