


 21 21  0  0  0  0  0  0  0  0999 V2000
   -7.3242   15.0945   16.6520 C   0  0  0  0  0  0  0  0  0  0  0  0
   -6.2481   15.9007   16.1440 O   0  0  0  0  0  0  0  0  0  0  0  0
   -7.9741   15.9199   17.7430 C   0  0  0  0  0  0  0  0  0  0  0  0
   -7.8641   15.6799   19.0644 C   0  0  0  0  0  0  0  0  0  0  0  0
   -7.0257   14.5468   19.6055 C   0  0  0  0  0  0  0  0  0  0  0  0
   -7.9507   13.5219   19.9800 O   0  0  0  0  0  0  0  0  0  0  0  0
   -6.0393   13.9751   18.5651 C   0  0  0  0  0  0  0  0  0  0  0  0
   -4.8703   14.7843   18.4503 O   0  0  0  0  0  0  0  0  0  0  0  0
   -6.7158   13.7906   17.2004 C   0  0  0  0  0  0  0  0  0  0  0  0
   -6.6047   16.7309   15.7912 H   0  0  0  0  0  0  0  0  0  0  0  0
   -8.4575   13.2435   19.2012 H   0  0  0  0  0  0  0  0  0  0  0  0
   -5.1181   15.6674   18.1349 H   0  0  0  0  0  0  0  0  0  0  0  0
   -8.3866   14.8490   15.5183 C   0  0  0  0  0  0  0  0  0  0  0  0
   -6.8873   14.9834   13.4484 C   0  0  0  0  0  0  0  0  0  0  0  0
   -8.1621   15.4851   14.1135 N   0  0  0  0  0  0  0  0  0  0  0  0
   -8.1562   17.0087   14.1556 C   0  0  0  0  0  0  0  0  0  0  0  0
   -9.3392   15.0454   13.2283 C   0  0  0  0  0  0  0  0  0  0  0  0
   -8.5899   16.5515   20.0784 C   0  0  0  0  0  0  0  0  0  0  0  0
   -7.6794   17.3195   21.0416 C   0  0  0  0  0  0  0  0  0  0  0  0
   -7.2621   18.5530   20.4652 O   0  0  0  0  0  0  0  0  0  0  0  0
   -6.7661   18.3777   19.6502 H   0  0  0  0  0  0  0  0  0  0  0  0
 14 15  1  0
 15 16  1  0
 15 17  1  0
 15 13  1  0
 13  1  1  0
  1  2  1  0
  1  3  1  0
  3  4  2  0
  4 18  1  0
 18 19  1  0
 19 20  1  0
  4  5  1  0
  5  6  1  0
  5  7  1  0
  7  8  1  0
  7  9  1  0
  9  1  1  0
  2 10  1  0
 20 21  1  0
  6 11  1  0
  8 12  1  0
M  CHG 1  15   1
M  END
> <minimizedAffinity>
-3.18196

> <CNNscore>
0.4118307233

> <CNNaffinity>
2.9134721756

> <CNN_VS>
1.1998573542

> <CNNaffinity_variance>
0.3921724260

$$$$



 21 21  0  0  0  0  0  0  0  0999 V2000
    4.3375   16.1206   16.7497 C   0  0  0  0  0  0  0  0  0  0  0  0
    5.6885   16.5851   16.5906 O   0  0  0  0  0  0  0  0  0  0  0  0
    3.4913   17.3675   16.9012 C   0  0  0  0  0  0  0  0  0  0  0  0
    2.9302   17.7867   18.0524 C   0  0  0  0  0  0  0  0  0  0  0  0
    3.1258   17.0477   19.3545 C   0  0  0  0  0  0  0  0  0  0  0  0
    1.9109   16.3270   19.5799 O   0  0  0  0  0  0  0  0  0  0  0  0
    4.3004   16.0473   19.3104 C   0  0  0  0  0  0  0  0  0  0  0  0
    5.5542   16.7018   19.4944 O   0  0  0  0  0  0  0  0  0  0  0  0
    4.2905   15.2352   18.0086 C   0  0  0  0  0  0  0  0  0  0  0  0
    5.7464   17.1471   15.8021 H   0  0  0  0  0  0  0  0  0  0  0  0
    1.7590   15.7116   18.8456 H   0  0  0  0  0  0  0  0  0  0  0  0
    5.7018   17.3280   18.7684 H   0  0  0  0  0  0  0  0  0  0  0  0
    3.8774   15.3657   15.4487 C   0  0  0  0  0  0  0  0  0  0  0  0
    4.2888   13.7675   13.4924 C   0  0  0  0  0  0  0  0  0  0  0  0
    4.8062   14.2776   14.8308 N   0  0  0  0  0  0  0  0  0  0  0  0
    5.0399   13.1036   15.7743 C   0  0  0  0  0  0  0  0  0  0  0  0
    6.1656   14.9448   14.5673 C   0  0  0  0  0  0  0  0  0  0  0  0
    2.0649   19.0376   18.0880 C   0  0  0  0  0  0  0  0  0  0  0  0
    2.4697   20.0753   19.1397 C   0  0  0  0  0  0  0  0  0  0  0  0
    1.3257   20.5617   19.8343 O   0  0  0  0  0  0  0  0  0  0  0  0
    0.7208   20.9846   19.2049 H   0  0  0  0  0  0  0  0  0  0  0  0
 14 15  1  0
 15 16  1  0
 15 17  1  0
 15 13  1  0
 13  1  1  0
  1  2  1  0
  1  3  1  0
  3  4  2  0
  4 18  1  0
 18 19  1  0
 19 20  1  0
  4  5  1  0
  5  6  1  0
  5  7  1  0
  7  8  1  0
  7  9  1  0
  9  1  1  0
  2 10  1  0
 20 21  1  0
  6 11  1  0
  8 12  1  0
M  CHG 1  15   1
M  END
> <minimizedAffinity>
-3.11293

> <CNNscore>
0.3204162419

> <CNNaffinity>
3.3325328827

> <CNN_VS>
1.0677976608

> <CNNaffinity_variance>
0.7736080289

$$$$



 21 21  0  0  0  0  0  0  0  0999 V2000
    9.0355   19.5977   18.7748 C   0  0  0  0  0  0  0  0  0  0  0  0
    8.8496   19.9695   20.1507 O   0  0  0  0  0  0  0  0  0  0  0  0
    8.7676   18.1083   18.7136 C   0  0  0  0  0  0  0  0  0  0  0  0
    9.7102   17.1584   18.5551 C   0  0  0  0  0  0  0  0  0  0  0  0
   11.1784   17.4959   18.4544 C   0  0  0  0  0  0  0  0  0  0  0  0
   11.5098   17.3833   17.0674 O   0  0  0  0  0  0  0  0  0  0  0  0
   11.5032   18.9271   18.9321 C   0  0  0  0  0  0  0  0  0  0  0  0
   11.5849   18.9998   20.3542 O   0  0  0  0  0  0  0  0  0  0  0  0
   10.4863   19.9390   18.3879 C   0  0  0  0  0  0  0  0  0  0  0  0
    7.9409   19.7645   20.4211 H   0  0  0  0  0  0  0  0  0  0  0  0
   10.9701   18.0050   16.5545 H   0  0  0  0  0  0  0  0  0  0  0  0
   10.7243   18.7722   20.7396 H   0  0  0  0  0  0  0  0  0  0  0  0
    7.9707   20.3289   17.8771 C   0  0  0  0  0  0  0  0  0  0  0  0
    8.9069   22.6507   18.4097 C   0  0  0  0  0  0  0  0  0  0  0  0
    7.6513   21.8306   18.1449 N   0  0  0  0  0  0  0  0  0  0  0  0
    6.6597   22.0231   19.2863 C   0  0  0  0  0  0  0  0  0  0  0  0
    7.0070   22.3875   16.8653 C   0  0  0  0  0  0  0  0  0  0  0  0
    9.3289   15.6880   18.4696 C   0  0  0  0  0  0  0  0  0  0  0  0
    9.2784   15.1137   17.0503 C   0  0  0  0  0  0  0  0  0  0  0  0
    7.9734   14.6306   16.7481 O   0  0  0  0  0  0  0  0  0  0  0  0
    7.7370   13.9260   17.3714 H   0  0  0  0  0  0  0  0  0  0  0  0
 14 15  1  0
 15 16  1  0
 15 17  1  0
 15 13  1  0
 13  1  1  0
  1  2  1  0
  1  3  1  0
  3  4  2  0
  4 18  1  0
 18 19  1  0
 19 20  1  0
  4  5  1  0
  5  6  1  0
  5  7  1  0
  7  8  1  0
  7  9  1  0
  9  1  1  0
  2 10  1  0
 20 21  1  0
  6 11  1  0
  8 12  1  0
M  CHG 1  15   1
M  END
> <minimizedAffinity>
-3.26783

> <CNNscore>
0.2522203922

> <CNNaffinity>
2.8540325165

> <CNN_VS>
0.7198451757

> <CNNaffinity_variance>
0.5771338344

$$$$



 21 21  0  0  0  0  0  0  0  0999 V2000
    7.1065   17.3383   18.0760 C   0  0  0  0  0  0  0  0  0  0  0  0
    7.0470   17.0722   19.4873 O   0  0  0  0  0  0  0  0  0  0  0  0
    6.2901   16.2450   17.4187 C   0  0  0  0  0  0  0  0  0  0  0  0
    6.8003   15.2139   16.7169 C   0  0  0  0  0  0  0  0  0  0  0  0
    8.2876   15.0229   16.5409 C   0  0  0  0  0  0  0  0  0  0  0  0
    8.5811   15.4547   15.2091 O   0  0  0  0  0  0  0  0  0  0  0  0
    9.1252   15.8568   17.5335 C   0  0  0  0  0  0  0  0  0  0  0  0
    9.1972   15.2319   18.8137 O   0  0  0  0  0  0  0  0  0  0  0  0
    8.5856   17.2884   17.6507 C   0  0  0  0  0  0  0  0  0  0  0  0
    6.1233   17.0977   19.7825 H   0  0  0  0  0  0  0  0  0  0  0  0
    8.3321   16.3869   15.1092 H   0  0  0  0  0  0  0  0  0  0  0  0
    8.3068   15.1692   19.1934 H   0  0  0  0  0  0  0  0  0  0  0  0
    6.4230   18.7205   17.7655 C   0  0  0  0  0  0  0  0  0  0  0  0
    6.9112   18.6838   15.2533 C   0  0  0  0  0  0  0  0  0  0  0  0
    6.8811   19.5331   16.5171 N   0  0  0  0  0  0  0  0  0  0  0  0
    8.2348   20.2034   16.7200 C   0  0  0  0  0  0  0  0  0  0  0  0
    5.8385   20.6404   16.2950 C   0  0  0  0  0  0  0  0  0  0  0  0
    5.8869   14.1871   16.0642 C   0  0  0  0  0  0  0  0  0  0  0  0
    4.3884   14.4290   16.2711 C   0  0  0  0  0  0  0  0  0  0  0  0
    3.8629   13.5327   17.2449 O   0  0  0  0  0  0  0  0  0  0  0  0
    3.9861   12.6190   16.9433 H   0  0  0  0  0  0  0  0  0  0  0  0
 14 15  1  0
 15 16  1  0
 15 17  1  0
 15 13  1  0
 13  1  1  0
  1  2  1  0
  1  3  1  0
  3  4  2  0
  4 18  1  0
 18 19  1  0
 19 20  1  0
  4  5  1  0
  5  6  1  0
  5  7  1  0
  7  8  1  0
  7  9  1  0
  9  1  1  0
  2 10  1  0
 20 21  1  0
  6 11  1  0
  8 12  1  0
M  CHG 1  15   1
M  END
> <minimizedAffinity>
-3.22258

> <CNNscore>
0.2405641973

> <CNNaffinity>
2.4089229107

> <CNN_VS>
0.5795006156

> <CNNaffinity_variance>
1.1273913383

$$$$



 21 21  0  0  0  0  0  0  0  0999 V2000
    9.7663   17.8634   17.5414 C   0  0  0  0  0  0  0  0  0  0  0  0
    9.4895   18.7052   16.4096 O   0  0  0  0  0  0  0  0  0  0  0  0
    9.8939   18.7989   18.7257 C   0  0  0  0  0  0  0  0  0  0  0  0
   11.0507   19.1173   19.3391 C   0  0  0  0  0  0  0  0  0  0  0  0
   12.3812   18.5812   18.8678 C   0  0  0  0  0  0  0  0  0  0  0  0
   12.7313   17.5435   19.7880 O   0  0  0  0  0  0  0  0  0  0  0  0
   12.3234   17.9889   17.4437 C   0  0  0  0  0  0  0  0  0  0  0  0
   12.3826   19.0089   16.4484 O   0  0  0  0  0  0  0  0  0  0  0  0
   11.0791   17.1108   17.2569 C   0  0  0  0  0  0  0  0  0  0  0  0
    8.6649   19.1924   16.5630 H   0  0  0  0  0  0  0  0  0  0  0  0
   12.0491   16.8541   19.7727 H   0  0  0  0  0  0  0  0  0  0  0  0
   11.6102   19.5894   16.5340 H   0  0  0  0  0  0  0  0  0  0  0  0
    8.5489   16.9015   17.7999 C   0  0  0  0  0  0  0  0  0  0  0  0
    6.6254   15.5178   16.8324 C   0  0  0  0  0  0  0  0  0  0  0  0
    8.0761   15.9485   16.6611 N   0  0  0  0  0  0  0  0  0  0  0  0
    8.9656   14.7189   16.5204 C   0  0  0  0  0  0  0  0  0  0  0  0
    8.1618   16.7418   15.3474 C   0  0  0  0  0  0  0  0  0  0  0  0
   11.0639   20.0414   20.5476 C   0  0  0  0  0  0  0  0  0  0  0  0
    9.6959   20.6017   20.9493 C   0  0  0  0  0  0  0  0  0  0  0  0
    9.4380   20.3612   22.3290 O   0  0  0  0  0  0  0  0  0  0  0  0
    9.4378   19.4057   22.4962 H   0  0  0  0  0  0  0  0  0  0  0  0
 14 15  1  0
 15 16  1  0
 15 17  1  0
 15 13  1  0
 13  1  1  0
  1  2  1  0
  1  3  1  0
  3  4  2  0
  4 18  1  0
 18 19  1  0
 19 20  1  0
  4  5  1  0
  5  6  1  0
  5  7  1  0
  7  8  1  0
  7  9  1  0
  9  1  1  0
  2 10  1  0
 20 21  1  0
  6 11  1  0
  8 12  1  0
M  CHG 1  15   1
M  END
> <minimizedAffinity>
-3.51695

> <CNNscore>
0.2292746902

> <CNNaffinity>
2.8960695267

> <CNN_VS>
0.6639954448

> <CNNaffinity_variance>
0.6057348847

$$$$



 21 21  0  0  0  0  0  0  0  0999 V2000
    6.5923   15.6973   16.4768 C   0  0  0  0  0  0  0  0  0  0  0  0
    6.6904   16.6948   15.4464 O   0  0  0  0  0  0  0  0  0  0  0  0
    6.3115   14.3936   15.7588 C   0  0  0  0  0  0  0  0  0  0  0  0
    5.1253   13.7542   15.7514 C   0  0  0  0  0  0  0  0  0  0  0  0
    3.9104   14.3119   16.4534 C   0  0  0  0  0  0  0  0  0  0  0  0
    3.7734   13.5525   17.6578 O   0  0  0  0  0  0  0  0  0  0  0  0
    4.0552   15.8050   16.8167 C   0  0  0  0  0  0  0  0  0  0  0  0
    3.7922   16.6459   15.6950 O   0  0  0  0  0  0  0  0  0  0  0  0
    5.4379   16.1006   17.4125 C   0  0  0  0  0  0  0  0  0  0  0  0
    7.4124   16.4644   14.8410 H   0  0  0  0  0  0  0  0  0  0  0  0
    4.5715   13.6579   18.1990 H   0  0  0  0  0  0  0  0  0  0  0  0
    4.4445   16.4700   14.9990 H   0  0  0  0  0  0  0  0  0  0  0  0
    7.9711   15.5644   17.2221 C   0  0  0  0  0  0  0  0  0  0  0  0
    9.0989   17.7008   16.3768 C   0  0  0  0  0  0  0  0  0  0  0  0
    8.7616   16.8540   17.5969 N   0  0  0  0  0  0  0  0  0  0  0  0
   10.0324   16.5534   18.3829 C   0  0  0  0  0  0  0  0  0  0  0  0
    7.8435   17.6981   18.4953 C   0  0  0  0  0  0  0  0  0  0  0  0
    4.9594   12.4269   15.0267 C   0  0  0  0  0  0  0  0  0  0  0  0
    4.9249   12.5235   13.4982 C   0  0  0  0  0  0  0  0  0  0  0  0
    4.0517   13.5672   13.0786 O   0  0  0  0  0  0  0  0  0  0  0  0
    3.1529   13.3829   13.3935 H   0  0  0  0  0  0  0  0  0  0  0  0
 14 15  1  0
 15 16  1  0
 15 17  1  0
 15 13  1  0
 13  1  1  0
  1  2  1  0
  1  3  1  0
  3  4  2  0
  4 18  1  0
 18 19  1  0
 19 20  1  0
  4  5  1  0
  5  6  1  0
  5  7  1  0
  7  8  1  0
  7  9  1  0
  9  1  1  0
  2 10  1  0
 20 21  1  0
  6 11  1  0
  8 12  1  0
M  CHG 1  15   1
M  END
> <minimizedAffinity>
-3.68511

> <CNNscore>
0.2239308059

> <CNNaffinity>
2.7268764973

> <CNN_VS>
0.6106316447

> <CNNaffinity_variance>
0.7689996362

$$$$



 21 21  0  0  0  0  0  0  0  0999 V2000
   -5.9709   16.3437   18.2274 C   0  0  0  0  0  0  0  0  0  0  0  0
   -5.5320   15.0499   17.7805 O   0  0  0  0  0  0  0  0  0  0  0  0
   -5.9638   17.2260   16.9964 C   0  0  0  0  0  0  0  0  0  0  0  0
   -5.0626   18.1956   16.7444 C   0  0  0  0  0  0  0  0  0  0  0  0
   -3.9131   18.4835   17.6801 C   0  0  0  0  0  0  0  0  0  0  0  0
   -4.2789   19.6679   18.3939 O   0  0  0  0  0  0  0  0  0  0  0  0
   -3.6598   17.3468   18.6930 C   0  0  0  0  0  0  0  0  0  0  0  0
   -2.9158   16.2794   18.1086 O   0  0  0  0  0  0  0  0  0  0  0  0
   -4.9752   16.8346   19.2944 C   0  0  0  0  0  0  0  0  0  0  0  0
   -6.1437   14.7163   17.1056 H   0  0  0  0  0  0  0  0  0  0  0  0
   -5.1004   19.5090   18.8846 H   0  0  0  0  0  0  0  0  0  0  0  0
   -3.4267   15.8888   17.3823 H   0  0  0  0  0  0  0  0  0  0  0  0
   -7.4478   16.2502   18.7603 C   0  0  0  0  0  0  0  0  0  0  0  0
   -9.2120   15.1565   20.2578 C   0  0  0  0  0  0  0  0  0  0  0  0
   -7.9146   14.9528   19.4867 N   0  0  0  0  0  0  0  0  0  0  0  0
   -6.8469   14.3858   20.4150 C   0  0  0  0  0  0  0  0  0  0  0  0
   -8.1937   13.9044   18.3979 C   0  0  0  0  0  0  0  0  0  0  0  0
   -5.1680   19.0516   15.4911 C   0  0  0  0  0  0  0  0  0  0  0  0
   -4.9807   18.2948   14.1724 C   0  0  0  0  0  0  0  0  0  0  0  0
   -3.8236   17.4666   14.2264 O   0  0  0  0  0  0  0  0  0  0  0  0
   -3.0390   18.0167   14.3770 H   0  0  0  0  0  0  0  0  0  0  0  0
 14 15  1  0
 15 16  1  0
 15 17  1  0
 15 13  1  0
 13  1  1  0
  1  2  1  0
  1  3  1  0
  3  4  2  0
  4 18  1  0
 18 19  1  0
 19 20  1  0
  4  5  1  0
  5  6  1  0
  5  7  1  0
  7  8  1  0
  7  9  1  0
  9  1  1  0
  2 10  1  0
 20 21  1  0
  6 11  1  0
  8 12  1  0
M  CHG 1  15   1
M  END
> <minimizedAffinity>
-3.36934

> <CNNscore>
0.2066106200

> <CNNaffinity>
2.8180053234

> <CNN_VS>
0.5822298527

> <CNNaffinity_variance>
0.5943230987

$$$$



 21 21  0  0  0  0  0  0  0  0999 V2000
   -6.0713   16.9460   17.3728 C   0  0  0  0  0  0  0  0  0  0  0  0
   -4.6366   17.0327   17.3562 O   0  0  0  0  0  0  0  0  0  0  0  0
   -6.4944   17.4266   18.7454 C   0  0  0  0  0  0  0  0  0  0  0  0
   -6.9554   16.6356   19.7341 C   0  0  0  0  0  0  0  0  0  0  0  0
   -7.0662   15.1381   19.5761 C   0  0  0  0  0  0  0  0  0  0  0  0
   -8.4549   14.8706   19.3609 O   0  0  0  0  0  0  0  0  0  0  0  0
   -6.2603   14.5963   18.3764 C   0  0  0  0  0  0  0  0  0  0  0  0
   -4.8762   14.4598   18.6928 O   0  0  0  0  0  0  0  0  0  0  0  0
   -6.4556   15.4743   17.1334 C   0  0  0  0  0  0  0  0  0  0  0  0
   -4.3665   17.9523   17.5052 H   0  0  0  0  0  0  0  0  0  0  0  0
   -8.7528   15.3316   18.5611 H   0  0  0  0  0  0  0  0  0  0  0  0
   -4.5044   15.3314   18.8999 H   0  0  0  0  0  0  0  0  0  0  0  0
   -6.6762   17.9228   16.2986 C   0  0  0  0  0  0  0  0  0  0  0  0
   -4.7231   18.1556   14.6609 C   0  0  0  0  0  0  0  0  0  0  0  0
   -5.7283   18.8951   15.5339 N   0  0  0  0  0  0  0  0  0  0  0  0
   -4.9951   19.8516   16.4670 C   0  0  0  0  0  0  0  0  0  0  0  0
   -6.6094   19.7372   14.5975 C   0  0  0  0  0  0  0  0  0  0  0  0
   -7.3895   17.2265   21.0672 C   0  0  0  0  0  0  0  0  0  0  0  0
   -8.2016   18.5216   20.9678 C   0  0  0  0  0  0  0  0  0  0  0  0
   -7.6705   19.5176   21.8360 O   0  0  0  0  0  0  0  0  0  0  0  0
   -7.7097   19.2019   22.7524 H   0  0  0  0  0  0  0  0  0  0  0  0
 14 15  1  0
 15 16  1  0
 15 17  1  0
 15 13  1  0
 13  1  1  0
  1  2  1  0
  1  3  1  0
  3  4  2  0
  4 18  1  0
 18 19  1  0
 19 20  1  0
  4  5  1  0
  5  6  1  0
  5  7  1  0
  7  8  1  0
  7  9  1  0
  9  1  1  0
  2 10  1  0
 20 21  1  0
  6 11  1  0
  8 12  1  0
M  CHG 1  15   1
M  END
> <minimizedAffinity>
-3.29518

> <CNNscore>
0.2050718665

> <CNNaffinity>
2.5026843548

> <CNN_VS>
0.5132301450

> <CNNaffinity_variance>
0.7299776077

$$$$



 21 21  0  0  0  0  0  0  0  0999 V2000
   11.3824   19.7632   19.4019 C   0  0  0  0  0  0  0  0  0  0  0  0
   11.6695   19.5550   20.7948 O   0  0  0  0  0  0  0  0  0  0  0  0
   10.1953   18.8752   19.0915 C   0  0  0  0  0  0  0  0  0  0  0  0
   10.2479   17.7355   18.3745 C   0  0  0  0  0  0  0  0  0  0  0  0
   11.5453   17.1966   17.8212 C   0  0  0  0  0  0  0  0  0  0  0  0
   11.5353   17.5130   16.4262 O   0  0  0  0  0  0  0  0  0  0  0  0
   12.7908   17.8362   18.4707 C   0  0  0  0  0  0  0  0  0  0  0  0
   13.0853   17.2451   19.7349 O   0  0  0  0  0  0  0  0  0  0  0  0
   12.6319   19.3569   18.5990 C   0  0  0  0  0  0  0  0  0  0  0  0
   10.8963   19.8039   21.3250 H   0  0  0  0  0  0  0  0  0  0  0  0
   11.4774   18.4747   16.3132 H   0  0  0  0  0  0  0  0  0  0  0  0
   12.3480   17.4027   20.3452 H   0  0  0  0  0  0  0  0  0  0  0  0
   10.9570   21.2586   19.1636 C   0  0  0  0  0  0  0  0  0  0  0  0
    9.8622   21.5094   21.4634 C   0  0  0  0  0  0  0  0  0  0  0  0
   10.7083   22.1846   20.3922 N   0  0  0  0  0  0  0  0  0  0  0  0
   10.0793   23.5171   20.0025 C   0  0  0  0  0  0  0  0  0  0  0  0
   12.0812   22.4794   21.0173 C   0  0  0  0  0  0  0  0  0  0  0  0
    8.9862   16.9350   18.0888 C   0  0  0  0  0  0  0  0  0  0  0  0
    8.5592   15.9783   19.2065 C   0  0  0  0  0  0  0  0  0  0  0  0
    7.3805   16.4503   19.8512 O   0  0  0  0  0  0  0  0  0  0  0  0
    7.5529   17.3207   20.2433 H   0  0  0  0  0  0  0  0  0  0  0  0
 14 15  1  0
 15 16  1  0
 15 17  1  0
 15 13  1  0
 13  1  1  0
  1  2  1  0
  1  3  1  0
  3  4  2  0
  4 18  1  0
 18 19  1  0
 19 20  1  0
  4  5  1  0
  5  6  1  0
  5  7  1  0
  7  8  1  0
  7  9  1  0
  9  1  1  0
  2 10  1  0
 20 21  1  0
  6 11  1  0
  8 12  1  0
M  CHG 1  15   1
M  END
> <minimizedAffinity>
-3.42472

> <CNNscore>
0.2044841200

> <CNNaffinity>
2.4220843315

> <CNN_VS>
0.4952777922

> <CNNaffinity_variance>
1.0102809668

$$$$
