


 18 20  0  0  0  0  0  0  0  0999 V2000
   67.2454   48.3693    5.7979 N   0  0  0  0  0  0  0  0  0  0  0  0
   67.9875   48.4874    6.9705 C   0  0  0  0  0  0  0  0  0  0  0  0
   68.4319   47.3579    7.6362 C   0  0  0  0  0  0  0  0  0  0  0  0
   69.1531   47.5191    8.8138 C   0  0  0  0  0  0  0  0  0  0  0  0
   69.4053   48.8066    9.2980 C   0  0  0  0  0  0  0  0  0  0  0  0
   70.1291   49.0247   10.4857 C   0  0  0  0  0  0  0  0  0  0  0  0
   70.3638   50.3239   10.9499 C   0  0  0  0  0  0  0  0  0  0  0  0
   69.8601   51.3998   10.2159 C   0  0  0  0  0  0  0  0  0  0  0  0
   69.1424   51.1753    9.0348 C   0  0  0  0  0  0  0  0  0  0  0  0
   68.9032   49.8950    8.5566 C   0  0  0  0  0  0  0  0  0  0  0  0
   68.2083   49.7348    7.4160 N   0  0  0  0  0  0  0  0  0  0  0  0
   67.0528   47.4788    5.4248 H   0  0  0  0  0  0  0  0  0  0  0  0
   66.9136   49.1763    5.3420 H   0  0  0  0  0  0  0  0  0  0  0  0
   71.1058   50.5614   12.1833 C   0  0  0  0  0  0  0  0  0  0  0  0
   70.8783   51.6027   13.1411 C   0  0  0  0  0  0  0  0  0  0  0  0
   71.7637   51.5549   14.1955 C   0  0  0  0  0  0  0  0  0  0  0  0
   72.8787   50.2699   14.0377 S   0  0  0  0  0  0  0  0  0  0  0  0
   72.1784   49.7732   12.5563 C   0  0  0  0  0  0  0  0  0  0  0  0
  1  2  1  0
  2  3  2  0
  3  4  1  0
  4  5  2  0
  5  6  1  0
  6  7  2  0
  7 14  1  0
 14 15  1  0
 15 16  2  0
 16 17  1  0
 17 18  1  0
  7  8  1  0
  8  9  2  0
  9 10  1  0
 10 11  2  0
 11  2  1  0
 10  5  1  0
 18 14  2  0
  1 12  1  0
  1 13  1  0
M  END
> <minimizedAffinity>
-7.77821

> <CNNscore>
0.8960007429

> <CNNaffinity>
4.9946827888

> <CNN_VS>
4.4752392769

> <CNNaffinity_variance>
0.2857761085

$$$$



 18 20  0  0  0  0  0  0  0  0999 V2000
   75.3355   48.0358    9.0528 N   0  0  0  0  0  0  0  0  0  0  0  0
   74.9695   47.8772    7.7184 C   0  0  0  0  0  0  0  0  0  0  0  0
   74.6949   48.9816    6.9302 C   0  0  0  0  0  0  0  0  0  0  0  0
   74.3143   48.7788    5.6085 C   0  0  0  0  0  0  0  0  0  0  0  0
   74.2121   47.4756    5.1118 C   0  0  0  0  0  0  0  0  0  0  0  0
   73.8296   47.2156    3.7821 C   0  0  0  0  0  0  0  0  0  0  0  0
   73.7313   45.9011    3.3119 C   0  0  0  0  0  0  0  0  0  0  0  0
   74.0132   44.8519    4.1892 C   0  0  0  0  0  0  0  0  0  0  0  0
   74.3944   45.1182    5.5100 C   0  0  0  0  0  0  0  0  0  0  0  0
   74.5014   46.4144    5.9931 C   0  0  0  0  0  0  0  0  0  0  0  0
   74.8722   46.6149    7.2704 N   0  0  0  0  0  0  0  0  0  0  0  0
   75.4223   48.9388    9.4354 H   0  0  0  0  0  0  0  0  0  0  0  0
   75.5074   47.2450    9.6134 H   0  0  0  0  0  0  0  0  0  0  0  0
   73.3284   45.6198    1.9383 C   0  0  0  0  0  0  0  0  0  0  0  0
   72.1218   46.0394    1.2891 C   0  0  0  0  0  0  0  0  0  0  0  0
   72.0400   45.5974   -0.0132 C   0  0  0  0  0  0  0  0  0  0  0  0
   73.4022   44.6683   -0.4609 S   0  0  0  0  0  0  0  0  0  0  0  0
   74.1063   44.8557    1.0886 C   0  0  0  0  0  0  0  0  0  0  0  0
  1  2  1  0
  2  3  2  0
  3  4  1  0
  4  5  2  0
  5  6  1  0
  6  7  2  0
  7 14  1  0
 14 15  1  0
 15 16  2  0
 16 17  1  0
 17 18  1  0
  7  8  1  0
  8  9  2  0
  9 10  1  0
 10 11  2  0
 11  2  1  0
 10  5  1  0
 18 14  2  0
  1 12  1  0
  1 13  1  0
M  END
> <minimizedAffinity>
-5.10702

> <CNNscore>
0.7632662654

> <CNNaffinity>
4.2314510345

> <CNN_VS>
3.2297239304

> <CNNaffinity_variance>
0.5693961978

$$$$



 18 20  0  0  0  0  0  0  0  0999 V2000
   68.7265   50.9569    8.0953 N   0  0  0  0  0  0  0  0  0  0  0  0
   69.9116   50.2322    7.9957 C   0  0  0  0  0  0  0  0  0  0  0  0
   70.3800   49.8199    6.7600 C   0  0  0  0  0  0  0  0  0  0  0  0
   71.5570   49.0819    6.7060 C   0  0  0  0  0  0  0  0  0  0  0  0
   72.2313   48.7703    7.8908 C   0  0  0  0  0  0  0  0  0  0  0  0
   73.4256   48.0248    7.8915 C   0  0  0  0  0  0  0  0  0  0  0  0
   74.0780   47.7235    9.0924 C   0  0  0  0  0  0  0  0  0  0  0  0
   73.5177   48.1705   10.2908 C   0  0  0  0  0  0  0  0  0  0  0  0
   72.3303   48.9126   10.2823 C   0  0  0  0  0  0  0  0  0  0  0  0
   71.6715   49.2247    9.1018 C   0  0  0  0  0  0  0  0  0  0  0  0
   70.5339   49.9410    9.1496 N   0  0  0  0  0  0  0  0  0  0  0  0
   68.2275   51.1987    7.2818 H   0  0  0  0  0  0  0  0  0  0  0  0
   68.3877   51.2275    8.9792 H   0  0  0  0  0  0  0  0  0  0  0  0
   75.3118   46.9453    9.1055 C   0  0  0  0  0  0  0  0  0  0  0  0
   76.4614   47.1629    9.9330 C   0  0  0  0  0  0  0  0  0  0  0  0
   77.4675   46.2533    9.6914 C   0  0  0  0  0  0  0  0  0  0  0  0
   77.0448   45.1417    8.4646 S   0  0  0  0  0  0  0  0  0  0  0  0
   75.5122   45.8753    8.2535 C   0  0  0  0  0  0  0  0  0  0  0  0
  1  2  1  0
  2  3  2  0
  3  4  1  0
  4  5  2  0
  5  6  1  0
  6  7  2  0
  7 14  1  0
 14 15  1  0
 15 16  2  0
 16 17  1  0
 17 18  1  0
  7  8  1  0
  8  9  2  0
  9 10  1  0
 10 11  2  0
 11  2  1  0
 10  5  1  0
 18 14  2  0
  1 12  1  0
  1 13  1  0
M  END
> <minimizedAffinity>
-4.82930

> <CNNscore>
0.6557016969

> <CNNaffinity>
4.4370131493

> <CNN_VS>
2.9093570709

> <CNNaffinity_variance>
0.1990276724

$$$$



 18 20  0  0  0  0  0  0  0  0999 V2000
   68.9432   49.4231    6.5355 N   0  0  0  0  0  0  0  0  0  0  0  0
   70.0345   48.7753    7.1091 C   0  0  0  0  0  0  0  0  0  0  0  0
   69.8517   47.8799    8.1489 C   0  0  0  0  0  0  0  0  0  0  0  0
   70.9692   47.2692    8.7065 C   0  0  0  0  0  0  0  0  0  0  0  0
   72.2414   47.5754    8.2132 C   0  0  0  0  0  0  0  0  0  0  0  0
   73.4051   46.9863    8.7432 C   0  0  0  0  0  0  0  0  0  0  0  0
   74.6665   47.3137    8.2332 C   0  0  0  0  0  0  0  0  0  0  0  0
   74.7494   48.2417    7.1931 C   0  0  0  0  0  0  0  0  0  0  0  0
   73.5876   48.8226    6.6699 C   0  0  0  0  0  0  0  0  0  0  0  0
   72.3283   48.5074    7.1594 C   0  0  0  0  0  0  0  0  0  0  0  0
   71.2442   49.0939    6.6208 N   0  0  0  0  0  0  0  0  0  0  0  0
   68.0321   49.2286    6.8539 H   0  0  0  0  0  0  0  0  0  0  0  0
   69.0828   50.0755    5.8115 H   0  0  0  0  0  0  0  0  0  0  0  0
   75.8794   46.7153    8.7799 C   0  0  0  0  0  0  0  0  0  0  0  0
   76.5441   45.5335    8.3161 C   0  0  0  0  0  0  0  0  0  0  0  0
   77.6637   45.2296    9.0592 C   0  0  0  0  0  0  0  0  0  0  0  0
   77.9177   46.3514   10.3227 S   0  0  0  0  0  0  0  0  0  0  0  0
   76.5286   47.2482    9.8779 C   0  0  0  0  0  0  0  0  0  0  0  0
  1  2  1  0
  2  3  2  0
  3  4  1  0
  4  5  2  0
  5  6  1  0
  6  7  2  0
  7 14  1  0
 14 15  1  0
 15 16  2  0
 16 17  1  0
 17 18  1  0
  7  8  1  0
  8  9  2  0
  9 10  1  0
 10 11  2  0
 11  2  1  0
 10  5  1  0
 18 14  2  0
  1 12  1  0
  1 13  1  0
M  END
> <minimizedAffinity>
-4.94242

> <CNNscore>
0.6540759802

> <CNNaffinity>
4.0901274681

> <CNN_VS>
2.6752541065

> <CNNaffinity_variance>
0.6936715245

$$$$



 18 20  0  0  0  0  0  0  0  0999 V2000
   73.1963   46.6890    5.1019 N   0  0  0  0  0  0  0  0  0  0  0  0
   73.1794   47.4372    6.2765 C   0  0  0  0  0  0  0  0  0  0  0  0
   74.2513   48.2485    6.6068 C   0  0  0  0  0  0  0  0  0  0  0  0
   74.2031   48.9641    7.7978 C   0  0  0  0  0  0  0  0  0  0  0  0
   73.0859   48.8442    8.6304 C   0  0  0  0  0  0  0  0  0  0  0  0
   72.9879   49.5455    9.8472 C   0  0  0  0  0  0  0  0  0  0  0  0
   71.8600   49.4040   10.6635 C   0  0  0  0  0  0  0  0  0  0  0  0
   70.8366   48.5481   10.2513 C   0  0  0  0  0  0  0  0  0  0  0  0
   70.9404   47.8548    9.0391 C   0  0  0  0  0  0  0  0  0  0  0  0
   72.0486   47.9854    8.2146 C   0  0  0  0  0  0  0  0  0  0  0  0
   72.0979   47.2969    7.0600 N   0  0  0  0  0  0  0  0  0  0  0  0
   73.9642   46.7521    4.4890 H   0  0  0  0  0  0  0  0  0  0  0  0
   72.4403   46.0970    4.8845 H   0  0  0  0  0  0  0  0  0  0  0  0
   71.7512   50.1198   11.9299 C   0  0  0  0  0  0  0  0  0  0  0  0
   72.6453   50.0396   13.0470 C   0  0  0  0  0  0  0  0  0  0  0  0
   72.2521   50.8382   14.0984 C   0  0  0  0  0  0  0  0  0  0  0  0
   70.8043   51.6791   13.7573 S   0  0  0  0  0  0  0  0  0  0  0  0
   70.7000   50.9761   12.1995 C   0  0  0  0  0  0  0  0  0  0  0  0
  1  2  1  0
  2  3  2  0
  3  4  1  0
  4  5  2  0
  5  6  1  0
  6  7  2  0
  7 14  1  0
 14 15  1  0
 15 16  2  0
 16 17  1  0
 17 18  1  0
  7  8  1  0
  8  9  2  0
  9 10  1  0
 10 11  2  0
 11  2  1  0
 10  5  1  0
 18 14  2  0
  1 12  1  0
  1 13  1  0
M  END
> <minimizedAffinity>
-6.62769

> <CNNscore>
0.6243556142

> <CNNaffinity>
4.1596055031

> <CNN_VS>
2.5970730782

> <CNNaffinity_variance>
0.7368499637

$$$$



 18 20  0  0  0  0  0  0  0  0999 V2000
   67.7673   52.0274    9.9975 N   0  0  0  0  0  0  0  0  0  0  0  0
   68.7720   51.1198    9.6712 C   0  0  0  0  0  0  0  0  0  0  0  0
   69.4032   50.3861   10.6610 C   0  0  0  0  0  0  0  0  0  0  0  0
   70.4143   49.5050   10.2949 C   0  0  0  0  0  0  0  0  0  0  0  0
   70.7718   49.3857    8.9482 C   0  0  0  0  0  0  0  0  0  0  0  0
   71.7893   48.5096    8.5249 C   0  0  0  0  0  0  0  0  0  0  0  0
   72.1299   48.4127    7.1709 C   0  0  0  0  0  0  0  0  0  0  0  0
   71.4458   49.2072    6.2485 C   0  0  0  0  0  0  0  0  0  0  0  0
   70.4340   50.0753    6.6768 C   0  0  0  0  0  0  0  0  0  0  0  0
   70.0795   50.1820    8.0139 C   0  0  0  0  0  0  0  0  0  0  0  0
   69.0997   51.0313    8.3719 N   0  0  0  0  0  0  0  0  0  0  0  0
   67.4860   52.1343   10.9349 H   0  0  0  0  0  0  0  0  0  0  0  0
   67.3383   52.5620    9.2909 H   0  0  0  0  0  0  0  0  0  0  0  0
   73.1877   47.5141    6.7219 C   0  0  0  0  0  0  0  0  0  0  0  0
   74.0776   46.7488    7.5441 C   0  0  0  0  0  0  0  0  0  0  0  0
   74.9722   46.0049    6.8063 C   0  0  0  0  0  0  0  0  0  0  0  0
   74.7582   46.2281    5.1259 S   0  0  0  0  0  0  0  0  0  0  0  0
   73.4659   47.3220    5.3815 C   0  0  0  0  0  0  0  0  0  0  0  0
  1  2  1  0
  2  3  2  0
  3  4  1  0
  4  5  2  0
  5  6  1  0
  6  7  2  0
  7 14  1  0
 14 15  1  0
 15 16  2  0
 16 17  1  0
 17 18  1  0
  7  8  1  0
  8  9  2  0
  9 10  1  0
 10 11  2  0
 11  2  1  0
 10  5  1  0
 18 14  2  0
  1 12  1  0
  1 13  1  0
M  END
> <minimizedAffinity>
-5.21317

> <CNNscore>
0.6060764194

> <CNNaffinity>
4.5425910950

> <CNN_VS>
2.7531573772

> <CNNaffinity_variance>
0.7026963830

$$$$



 18 20  0  0  0  0  0  0  0  0999 V2000
   74.4343   47.7457    4.4898 N   0  0  0  0  0  0  0  0  0  0  0  0
   73.9178   48.3584    5.6289 C   0  0  0  0  0  0  0  0  0  0  0  0
   74.7354   48.6258    6.7135 C   0  0  0  0  0  0  0  0  0  0  0  0
   74.1763   49.2210    7.8386 C   0  0  0  0  0  0  0  0  0  0  0  0
   72.8119   49.5273    7.8514 C   0  0  0  0  0  0  0  0  0  0  0  0
   72.1963   50.1288    8.9655 C   0  0  0  0  0  0  0  0  0  0  0  0
   70.8277   50.4211    8.9533 C   0  0  0  0  0  0  0  0  0  0  0  0
   70.0829   50.0980    7.8171 C   0  0  0  0  0  0  0  0  0  0  0  0
   70.7022   49.5011    6.7122 C   0  0  0  0  0  0  0  0  0  0  0  0
   72.0582   49.2077    6.7041 C   0  0  0  0  0  0  0  0  0  0  0  0
   72.6037   48.6344    5.6163 N   0  0  0  0  0  0  0  0  0  0  0  0
   75.3915   47.5201    4.4433 H   0  0  0  0  0  0  0  0  0  0  0  0
   73.8423   47.5382    3.7311 H   0  0  0  0  0  0  0  0  0  0  0  0
   70.1779   51.0371   10.1049 C   0  0  0  0  0  0  0  0  0  0  0  0
   70.1754   50.5561   11.4548 C   0  0  0  0  0  0  0  0  0  0  0  0
   69.4579   51.3686   12.3051 C   0  0  0  0  0  0  0  0  0  0  0  0
   68.7742   52.7049   11.4889 S   0  0  0  0  0  0  0  0  0  0  0  0
   69.4379   52.1994    9.9936 C   0  0  0  0  0  0  0  0  0  0  0  0
  1  2  1  0
  2  3  2  0
  3  4  1  0
  4  5  2  0
  5  6  1  0
  6  7  2  0
  7 14  1  0
 14 15  1  0
 15 16  2  0
 16 17  1  0
 17 18  1  0
  7  8  1  0
  8  9  2  0
  9 10  1  0
 10 11  2  0
 11  2  1  0
 10  5  1  0
 18 14  2  0
  1 12  1  0
  1 13  1  0
M  END
> <minimizedAffinity>
-6.32820

> <CNNscore>
0.5630750656

> <CNNaffinity>
4.0034384727

> <CNN_VS>
2.2542364597

> <CNNaffinity_variance>
0.9219224453

$$$$



 18 20  0  0  0  0  0  0  0  0999 V2000
   64.0235   47.9152    6.9046 N   0  0  0  0  0  0  0  0  0  0  0  0
   63.8692   47.3313    8.1596 C   0  0  0  0  0  0  0  0  0  0  0  0
   63.6156   45.9754    8.2760 C   0  0  0  0  0  0  0  0  0  0  0  0
   63.4489   45.4354    9.5462 C   0  0  0  0  0  0  0  0  0  0  0  0
   63.5341   46.2678   10.6667 C   0  0  0  0  0  0  0  0  0  0  0  0
   63.3718   45.7718   11.9743 C   0  0  0  0  0  0  0  0  0  0  0  0
   63.4580   46.6278   13.0781 C   0  0  0  0  0  0  0  0  0  0  0  0
   63.7012   47.9850   12.8571 C   0  0  0  0  0  0  0  0  0  0  0  0
   63.8630   48.4710   11.5538 C   0  0  0  0  0  0  0  0  0  0  0  0
   63.7851   47.6372   10.4476 C   0  0  0  0  0  0  0  0  0  0  0  0
   63.9486   48.1553    9.2170 N   0  0  0  0  0  0  0  0  0  0  0  0
   63.9747   47.3592    6.0936 H   0  0  0  0  0  0  0  0  0  0  0  0
   64.1814   48.8840    6.8285 H   0  0  0  0  0  0  0  0  0  0  0  0
   63.2838   46.1262   14.4367 C   0  0  0  0  0  0  0  0  0  0  0  0
   63.9021   44.9708   15.0168 C   0  0  0  0  0  0  0  0  0  0  0  0
   63.5180   44.7646   16.3237 C   0  0  0  0  0  0  0  0  0  0  0  0
   62.4065   45.9469   16.8586 S   0  0  0  0  0  0  0  0  0  0  0  0
   62.4366   46.7391   15.3410 C   0  0  0  0  0  0  0  0  0  0  0  0
  1  2  1  0
  2  3  2  0
  3  4  1  0
  4  5  2  0
  5  6  1  0
  6  7  2  0
  7 14  1  0
 14 15  1  0
 15 16  2  0
 16 17  1  0
 17 18  1  0
  7  8  1  0
  8  9  2  0
  9 10  1  0
 10 11  2  0
 11  2  1  0
 10  5  1  0
 18 14  2  0
  1 12  1  0
  1 13  1  0
M  END
> <minimizedAffinity>
-5.21970

> <CNNscore>
0.5343047380

> <CNNaffinity>
3.7418229580

> <CNN_VS>
1.9992737770

> <CNNaffinity_variance>
0.8842374682

$$$$



 18 20  0  0  0  0  0  0  0  0999 V2000
   70.2162   50.1621    6.1954 N   0  0  0  0  0  0  0  0  0  0  0  0
   71.3751   49.7410    6.8429 C   0  0  0  0  0  0  0  0  0  0  0  0
   72.0985   50.6211    7.6293 C   0  0  0  0  0  0  0  0  0  0  0  0
   73.2602   50.1661    8.2428 C   0  0  0  0  0  0  0  0  0  0  0  0
   73.6711   48.8437    8.0479 C   0  0  0  0  0  0  0  0  0  0  0  0
   74.8398   48.3336    8.6448 C   0  0  0  0  0  0  0  0  0  0  0  0
   75.2302   47.0070    8.4298 C   0  0  0  0  0  0  0  0  0  0  0  0
   74.4421   46.2008    7.6059 C   0  0  0  0  0  0  0  0  0  0  0  0
   73.2803   46.7145    7.0168 C   0  0  0  0  0  0  0  0  0  0  0  0
   72.8748   48.0255    7.2215 C   0  0  0  0  0  0  0  0  0  0  0  0
   71.7499   48.4689    6.6321 N   0  0  0  0  0  0  0  0  0  0  0  0
   69.8940   51.0849    6.3134 H   0  0  0  0  0  0  0  0  0  0  0  0
   69.7191   49.5370    5.6197 H   0  0  0  0  0  0  0  0  0  0  0  0
   76.4432   46.4703    9.0368 C   0  0  0  0  0  0  0  0  0  0  0  0
   77.1763   47.0237   10.1368 C   0  0  0  0  0  0  0  0  0  0  0  0
   78.2867   46.2761   10.4628 C   0  0  0  0  0  0  0  0  0  0  0  0
   78.4630   44.9144    9.4459 S   0  0  0  0  0  0  0  0  0  0  0  0
   77.0518   45.3218    8.5659 C   0  0  0  0  0  0  0  0  0  0  0  0
  1  2  1  0
  2  3  2  0
  3  4  1  0
  4  5  2  0
  5  6  1  0
  6  7  2  0
  7 14  1  0
 14 15  1  0
 15 16  2  0
 16 17  1  0
 17 18  1  0
  7  8  1  0
  8  9  2  0
  9 10  1  0
 10 11  2  0
 11  2  1  0
 10  5  1  0
 18 14  2  0
  1 12  1  0
  1 13  1  0
M  END
> <minimizedAffinity>
-5.24548

> <CNNscore>
0.5336107612

> <CNNaffinity>
3.9788074493

> <CNN_VS>
2.1231343746

> <CNNaffinity_variance>
0.5252788663

$$$$
