


 26 27  0  0  0  0  0  0  0  0999 V2000
  -38.9963  -60.6095  -51.6783 C   0  0  0  0  0  0  0  0  0  0  0  0
  -37.9893  -60.0639  -52.5597 O   0  0  0  0  0  0  0  0  0  0  0  0
  -38.5846  -60.2216  -50.2453 C   0  0  0  0  0  0  0  0  0  0  0  0
  -39.7392  -59.7209  -49.3445 C   0  0  0  0  0  0  0  0  0  0  0  0
  -41.0343  -60.4877  -49.6582 C   0  0  0  0  0  0  0  0  0  0  0  0
  -42.1261  -60.0571  -48.8391 O   0  0  0  0  0  0  0  0  0  0  0  0
  -41.4694  -60.2908  -51.1247 C   0  0  0  0  0  0  0  0  0  0  0  0
  -42.1666  -61.4623  -51.5630 O   0  0  0  0  0  0  0  0  0  0  0  0
  -40.3310  -59.9968  -52.0960 C   0  0  0  0  0  0  0  0  0  0  0  0
  -37.1221  -60.4303  -52.3259 H   0  0  0  0  0  0  0  0  0  0  0  0
  -42.3203  -59.1247  -49.0231 H   0  0  0  0  0  0  0  0  0  0  0  0
  -41.5661  -62.2237  -51.5395 H   0  0  0  0  0  0  0  0  0  0  0  0
  -38.1042  -62.7395  -52.4943 O   0  0  0  0  0  0  0  0  0  0  0  0
  -39.0047  -62.1272  -51.9344 C   0  0  0  0  0  0  0  0  0  0  0  0
  -40.1024  -62.7768  -51.5117 O   0  0  0  0  0  0  0  0  0  0  0  0
  -40.7899  -62.3056  -51.0835 H   0  0  0  0  0  0  0  0  0  0  0  0
  -39.3653  -59.8000  -47.8463 C   0  0  0  0  0  0  0  0  0  0  0  0
  -40.5050  -60.3117  -46.9534 C   0  0  0  0  0  0  0  0  0  0  0  0
  -40.0015  -60.7744  -45.5845 C   0  0  0  0  0  0  0  0  0  0  0  0
  -38.8274  -60.0362  -45.2506 O   0  0  0  0  0  0  0  0  0  0  0  0
  -37.8098  -60.7220  -44.6474 C   0  0  0  0  0  0  0  0  0  0  0  0
  -36.5582  -60.5526  -45.2456 C   0  0  0  0  0  0  0  0  0  0  0  0
  -35.4305  -61.1947  -44.7316 C   0  0  0  0  0  0  0  0  0  0  0  0
  -35.5493  -62.0142  -43.6120 C   0  0  0  0  0  0  0  0  0  0  0  0
  -36.7946  -62.1895  -43.0106 C   0  0  0  0  0  0  0  0  0  0  0  0
  -37.9239  -61.5455  -43.5266 C   0  0  0  0  0  0  0  0  0  0  0  0
 13 14  2  0
 14 15  1  0
 14  1  1  0
  1  2  1  0
  1  3  1  0
  3  4  1  0
  4 17  1  0
 17 18  1  0
 18 19  1  0
 19 20  1  0
 20 21  1  0
 21 22  2  0
 22 23  1  0
 23 24  2  0
 24 25  1  0
 25 26  2  0
  4  5  1  0
  5  6  1  0
  5  7  1  0
  7  8  1  0
  7  9  1  0
  9  1  1  0
 26 21  1  0
 15 16  1  0
  2 10  1  0
  6 11  1  0
  8 12  1  0
M  END
> <minimizedAffinity>
-9.98916

> <CNNscore>
0.9541951418

> <CNNaffinity>
5.9744095802

> <CNN_VS>
5.7007527351

> <CNNaffinity_variance>
0.0265827551

$$$$



 26 27  0  0  0  0  0  0  0  0999 V2000
  -39.0192  -60.6320  -51.5946 C   0  0  0  0  0  0  0  0  0  0  0  0
  -37.9250  -60.1808  -52.4239 O   0  0  0  0  0  0  0  0  0  0  0  0
  -38.6600  -60.2514  -50.1456 C   0  0  0  0  0  0  0  0  0  0  0  0
  -39.8212  -59.6480  -49.3193 C   0  0  0  0  0  0  0  0  0  0  0  0
  -41.1520  -60.3188  -49.6967 C   0  0  0  0  0  0  0  0  0  0  0  0
  -42.2516  -59.7915  -48.9474 O   0  0  0  0  0  0  0  0  0  0  0  0
  -41.4875  -60.1152  -51.1883 C   0  0  0  0  0  0  0  0  0  0  0  0
  -42.2475  -61.2375  -51.6502 O   0  0  0  0  0  0  0  0  0  0  0  0
  -40.2769  -59.9265  -52.0964 C   0  0  0  0  0  0  0  0  0  0  0  0
  -37.1033  -60.6083  -52.1358 H   0  0  0  0  0  0  0  0  0  0  0  0
  -42.3624  -58.8504  -49.1546 H   0  0  0  0  0  0  0  0  0  0  0  0
  -41.7100  -62.0421  -51.5821 H   0  0  0  0  0  0  0  0  0  0  0  0
  -40.0847  -62.8346  -51.4854 O   0  0  0  0  0  0  0  0  0  0  0  0
  -39.1307  -62.1489  -51.8304 C   0  0  0  0  0  0  0  0  0  0  0  0
  -38.0783  -62.7155  -52.4447 O   0  0  0  0  0  0  0  0  0  0  0  0
  -37.3497  -62.1883  -52.7076 H   0  0  0  0  0  0  0  0  0  0  0  0
  -39.5394  -59.7289  -47.8012 C   0  0  0  0  0  0  0  0  0  0  0  0
  -40.7247  -60.2605  -46.9823 C   0  0  0  0  0  0  0  0  0  0  0  0
  -40.3293  -60.5862  -45.5405 C   0  0  0  0  0  0  0  0  0  0  0  0
  -41.5087  -60.6432  -44.7400 O   0  0  0  0  0  0  0  0  0  0  0  0
  -42.2600  -61.7832  -44.8164 C   0  0  0  0  0  0  0  0  0  0  0  0
  -43.6312  -61.5675  -44.9785 C   0  0  0  0  0  0  0  0  0  0  0  0
  -44.5153  -62.6437  -45.0720 C   0  0  0  0  0  0  0  0  0  0  0  0
  -44.0304  -63.9472  -45.0027 C   0  0  0  0  0  0  0  0  0  0  0  0
  -42.6642  -64.1706  -44.8394 C   0  0  0  0  0  0  0  0  0  0  0  0
  -41.7793  -63.0913  -44.7459 C   0  0  0  0  0  0  0  0  0  0  0  0
 13 14  2  0
 14 15  1  0
 14  1  1  0
  1  2  1  0
  1  3  1  0
  3  4  1  0
  4 17  1  0
 17 18  1  0
 18 19  1  0
 19 20  1  0
 20 21  1  0
 21 22  2  0
 22 23  1  0
 23 24  2  0
 24 25  1  0
 25 26  2  0
  4  5  1  0
  5  6  1  0
  5  7  1  0
  7  8  1  0
  7  9  1  0
  9  1  1  0
 26 21  1  0
 15 16  1  0
  2 10  1  0
  6 11  1  0
  8 12  1  0
M  END
> <minimizedAffinity>
-7.71570

> <CNNscore>
0.7162241936

> <CNNaffinity>
5.1382980347

> <CNN_VS>
3.6801733971

> <CNNaffinity_variance>
0.0111776218

$$$$



 26 27  0  0  0  0  0  0  0  0999 V2000
  -40.7174  -61.2785  -50.7726 C   0  0  0  0  0  0  0  0  0  0  0  0
  -41.6936  -62.3242  -50.5673 O   0  0  0  0  0  0  0  0  0  0  0  0
  -40.4344  -60.6621  -49.3893 C   0  0  0  0  0  0  0  0  0  0  0  0
  -38.9417  -60.3864  -49.0875 C   0  0  0  0  0  0  0  0  0  0  0  0
  -38.2119  -59.9354  -50.3633 C   0  0  0  0  0  0  0  0  0  0  0  0
  -36.8273  -59.6635  -50.1232 O   0  0  0  0  0  0  0  0  0  0  0  0
  -38.2726  -61.0145  -51.4635 C   0  0  0  0  0  0  0  0  0  0  0  0
  -38.2503  -60.3734  -52.7438 O   0  0  0  0  0  0  0  0  0  0  0  0
  -39.4854  -61.9361  -51.3897 C   0  0  0  0  0  0  0  0  0  0  0  0
  -42.4955  -61.9453  -50.1745 H   0  0  0  0  0  0  0  0  0  0  0  0
  -36.3827  -60.4773  -49.8386 H   0  0  0  0  0  0  0  0  0  0  0  0
  -39.0391  -59.8173  -52.8407 H   0  0  0  0  0  0  0  0  0  0  0  0
  -40.9683  -60.1355  -52.9242 O   0  0  0  0  0  0  0  0  0  0  0  0
  -41.3535  -60.2970  -51.7731 C   0  0  0  0  0  0  0  0  0  0  0  0
  -42.3868  -59.5802  -51.2996 O   0  0  0  0  0  0  0  0  0  0  0  0
  -42.6794  -59.7058  -50.4184 H   0  0  0  0  0  0  0  0  0  0  0  0
  -38.7741  -59.3722  -47.9326 C   0  0  0  0  0  0  0  0  0  0  0  0
  -38.4654  -60.0267  -46.5782 C   0  0  0  0  0  0  0  0  0  0  0  0
  -39.7034  -60.1102  -45.6828 C   0  0  0  0  0  0  0  0  0  0  0  0
  -39.3585  -60.7967  -44.4808 O   0  0  0  0  0  0  0  0  0  0  0  0
  -38.0362  -61.0835  -44.2838 C   0  0  0  0  0  0  0  0  0  0  0  0
  -37.7822  -61.9673  -43.2314 C   0  0  0  0  0  0  0  0  0  0  0  0
  -36.4756  -62.3471  -42.9200 C   0  0  0  0  0  0  0  0  0  0  0  0
  -35.4112  -61.8421  -43.6624 C   0  0  0  0  0  0  0  0  0  0  0  0
  -35.6562  -60.9589  -44.7126 C   0  0  0  0  0  0  0  0  0  0  0  0
  -36.9660  -60.5790  -45.0237 C   0  0  0  0  0  0  0  0  0  0  0  0
 13 14  2  0
 14 15  1  0
 14  1  1  0
  1  2  1  0
  1  3  1  0
  3  4  1  0
  4 17  1  0
 17 18  1  0
 18 19  1  0
 19 20  1  0
 20 21  1  0
 21 22  2  0
 22 23  1  0
 23 24  2  0
 24 25  1  0
 25 26  2  0
  4  5  1  0
  5  6  1  0
  5  7  1  0
  7  8  1  0
  7  9  1  0
  9  1  1  0
 26 21  1  0
 15 16  1  0
  2 10  1  0
  6 11  1  0
  8 12  1  0
M  END
> <minimizedAffinity>
-9.68536

> <CNNscore>
0.6557853818

> <CNNaffinity>
5.2224764824

> <CNN_VS>
3.4248237610

> <CNNaffinity_variance>
0.1321806759

$$$$



 26 27  0  0  0  0  0  0  0  0999 V2000
  -39.0624  -60.6961  -51.4931 C   0  0  0  0  0  0  0  0  0  0  0  0
  -37.8869  -60.1866  -52.1619 O   0  0  0  0  0  0  0  0  0  0  0  0
  -38.8635  -60.4301  -49.9887 C   0  0  0  0  0  0  0  0  0  0  0  0
  -40.1098  -59.8875  -49.2487 C   0  0  0  0  0  0  0  0  0  0  0  0
  -41.3892  -60.5216  -49.8183 C   0  0  0  0  0  0  0  0  0  0  0  0
  -42.5655  -60.0492  -49.1538 O   0  0  0  0  0  0  0  0  0  0  0  0
  -41.5623  -60.2020  -51.3172 C   0  0  0  0  0  0  0  0  0  0  0  0
  -42.2632  -61.2821  -51.9439 O   0  0  0  0  0  0  0  0  0  0  0  0
  -40.2615  -59.9487  -52.0718 C   0  0  0  0  0  0  0  0  0  0  0  0
  -37.0994  -60.6385  -51.8206 H   0  0  0  0  0  0  0  0  0  0  0  0
  -42.6573  -59.0945  -49.2985 H   0  0  0  0  0  0  0  0  0  0  0  0
  -41.7328  -62.0918  -51.8805 H   0  0  0  0  0  0  0  0  0  0  0  0
  -40.0667  -62.9293  -51.5461 O   0  0  0  0  0  0  0  0  0  0  0  0
  -39.1413  -62.1897  -51.8561 C   0  0  0  0  0  0  0  0  0  0  0  0
  -38.0930  -62.6715  -52.5451 O   0  0  0  0  0  0  0  0  0  0  0  0
  -37.3863  -62.1032  -52.7810 H   0  0  0  0  0  0  0  0  0  0  0  0
  -39.9934  -60.0866  -47.7198 C   0  0  0  0  0  0  0  0  0  0  0  0
  -40.9824  -59.2348  -46.9108 C   0  0  0  0  0  0  0  0  0  0  0  0
  -41.9915  -60.0937  -46.1457 C   0  0  0  0  0  0  0  0  0  0  0  0
  -42.9692  -59.2401  -45.5537 O   0  0  0  0  0  0  0  0  0  0  0  0
  -44.1602  -59.1053  -46.2119 C   0  0  0  0  0  0  0  0  0  0  0  0
  -44.7877  -60.3117  -46.5341 C   0  0  0  0  0  0  0  0  0  0  0  0
  -46.0110  -60.3209  -47.2063 C   0  0  0  0  0  0  0  0  0  0  0  0
  -46.6154  -59.1180  -47.5623 C   0  0  0  0  0  0  0  0  0  0  0  0
  -45.9950  -57.9104  -47.2459 C   0  0  0  0  0  0  0  0  0  0  0  0
  -44.7692  -57.9025  -46.5723 C   0  0  0  0  0  0  0  0  0  0  0  0
 13 14  2  0
 14 15  1  0
 14  1  1  0
  1  2  1  0
  1  3  1  0
  3  4  1  0
  4 17  1  0
 17 18  1  0
 18 19  1  0
 19 20  1  0
 20 21  1  0
 21 22  2  0
 22 23  1  0
 23 24  2  0
 24 25  1  0
 25 26  2  0
  4  5  1  0
  5  6  1  0
  5  7  1  0
  7  8  1  0
  7  9  1  0
  9  1  1  0
 26 21  1  0
 15 16  1  0
  2 10  1  0
  6 11  1  0
  8 12  1  0
M  END
> <minimizedAffinity>
-7.52492

> <CNNscore>
0.6344573498

> <CNNaffinity>
4.9859023094

> <CNN_VS>
3.1633424759

> <CNNaffinity_variance>
0.2316410393

$$$$



 26 27  0  0  0  0  0  0  0  0999 V2000
  -38.6025  -71.1709  -49.6163 C   0  0  0  0  0  0  0  0  0  0  0  0
  -38.4817  -71.2276  -48.1773 O   0  0  0  0  0  0  0  0  0  0  0  0
  -37.2008  -70.8403  -50.1635 C   0  0  0  0  0  0  0  0  0  0  0  0
  -36.7700  -71.6625  -51.4019 C   0  0  0  0  0  0  0  0  0  0  0  0
  -37.9777  -71.9269  -52.3158 C   0  0  0  0  0  0  0  0  0  0  0  0
  -37.6178  -72.6804  -53.4782 O   0  0  0  0  0  0  0  0  0  0  0  0
  -39.0772  -72.7257  -51.5865 C   0  0  0  0  0  0  0  0  0  0  0  0
  -40.3517  -72.3621  -52.1289 O   0  0  0  0  0  0  0  0  0  0  0  0
  -39.1083  -72.5371  -50.0735 C   0  0  0  0  0  0  0  0  0  0  0  0
  -38.1613  -70.3741  -47.8459 H   0  0  0  0  0  0  0  0  0  0  0  0
  -37.2939  -73.5544  -53.2095 H   0  0  0  0  0  0  0  0  0  0  0  0
  -40.5183  -71.4214  -51.9607 H   0  0  0  0  0  0  0  0  0  0  0  0
  -40.8573  -70.2191  -49.7084 O   0  0  0  0  0  0  0  0  0  0  0  0
  -39.6566  -70.0884  -49.9097 C   0  0  0  0  0  0  0  0  0  0  0  0
  -39.1800  -68.9478  -50.4366 O   0  0  0  0  0  0  0  0  0  0  0  0
  -38.2607  -68.8506  -50.5896 H   0  0  0  0  0  0  0  0  0  0  0  0
  -35.6066  -70.9812  -52.1587 C   0  0  0  0  0  0  0  0  0  0  0  0
  -35.0442  -69.7459  -51.4405 C   0  0  0  0  0  0  0  0  0  0  0  0
  -33.6973  -70.0307  -50.7727 C   0  0  0  0  0  0  0  0  0  0  0  0
  -32.6649  -69.9242  -51.7514 O   0  0  0  0  0  0  0  0  0  0  0  0
  -31.5394  -69.2326  -51.3982 C   0  0  0  0  0  0  0  0  0  0  0  0
  -30.3885  -69.5930  -52.1043 C   0  0  0  0  0  0  0  0  0  0  0  0
  -29.1686  -68.9660  -51.8454 C   0  0  0  0  0  0  0  0  0  0  0  0
  -29.0928  -67.9713  -50.8739 C   0  0  0  0  0  0  0  0  0  0  0  0
  -30.2360  -67.6073  -50.1641 C   0  0  0  0  0  0  0  0  0  0  0  0
  -31.4579  -68.2364  -50.4245 C   0  0  0  0  0  0  0  0  0  0  0  0
 13 14  2  0
 14 15  1  0
 14  1  1  0
  1  2  1  0
  1  3  1  0
  3  4  1  0
  4 17  1  0
 17 18  1  0
 18 19  1  0
 19 20  1  0
 20 21  1  0
 21 22  2  0
 22 23  1  0
 23 24  2  0
 24 25  1  0
 25 26  2  0
  4  5  1  0
  5  6  1  0
  5  7  1  0
  7  8  1  0
  7  9  1  0
  9  1  1  0
 26 21  1  0
 15 16  1  0
  2 10  1  0
  6 11  1  0
  8 12  1  0
M  END
> <minimizedAffinity>
-4.27905

> <CNNscore>
0.2982075810

> <CNNaffinity>
3.5755360126

> <CNN_VS>
1.0662519932

> <CNNaffinity_variance>
0.2886014283

$$$$



 26 27  0  0  0  0  0  0  0  0999 V2000
  -43.1172  -63.0821  -44.6249 C   0  0  0  0  0  0  0  0  0  0  0  0
  -41.8316  -63.3868  -44.0394 O   0  0  0  0  0  0  0  0  0  0  0  0
  -43.8398  -64.4278  -44.8261 C   0  0  0  0  0  0  0  0  0  0  0  0
  -45.3343  -64.4358  -44.4240 C   0  0  0  0  0  0  0  0  0  0  0  0
  -45.9862  -63.0843  -44.7589 C   0  0  0  0  0  0  0  0  0  0  0  0
  -47.3733  -63.0544  -44.4074 O   0  0  0  0  0  0  0  0  0  0  0  0
  -45.3072  -61.9238  -44.0032 C   0  0  0  0  0  0  0  0  0  0  0  0
  -45.4082  -60.7338  -44.7933 O   0  0  0  0  0  0  0  0  0  0  0  0
  -43.8436  -62.1618  -43.6469 C   0  0  0  0  0  0  0  0  0  0  0  0
  -41.3364  -63.9726  -44.6332 H   0  0  0  0  0  0  0  0  0  0  0  0
  -47.4660  -63.1615  -43.4478 H   0  0  0  0  0  0  0  0  0  0  0  0
  -44.9268  -60.8570  -45.6264 H   0  0  0  0  0  0  0  0  0  0  0  0
  -42.5380  -61.1441  -46.0059 O   0  0  0  0  0  0  0  0  0  0  0  0
  -42.8178  -62.3341  -45.9363 C   0  0  0  0  0  0  0  0  0  0  0  0
  -42.8976  -63.0759  -47.0540 O   0  0  0  0  0  0  0  0  0  0  0  0
  -43.1119  -63.9864  -46.9977 H   0  0  0  0  0  0  0  0  0  0  0  0
  -46.0893  -65.6209  -45.0689 C   0  0  0  0  0  0  0  0  0  0  0  0
  -45.4849  -66.9921  -44.7332 C   0  0  0  0  0  0  0  0  0  0  0  0
  -45.2177  -67.8271  -45.9873 C   0  0  0  0  0  0  0  0  0  0  0  0
  -46.1916  -68.8664  -46.0663 O   0  0  0  0  0  0  0  0  0  0  0  0
  -46.4644  -69.3727  -47.3069 C   0  0  0  0  0  0  0  0  0  0  0  0
  -45.4107  -69.2768  -48.2199 C   0  0  0  0  0  0  0  0  0  0  0  0
  -45.5521  -69.7556  -49.5234 C   0  0  0  0  0  0  0  0  0  0  0  0
  -46.7538  -70.3346  -49.9228 C   0  0  0  0  0  0  0  0  0  0  0  0
  -47.8101  -70.4325  -49.0184 C   0  0  0  0  0  0  0  0  0  0  0  0
  -47.6673  -69.9523  -47.7124 C   0  0  0  0  0  0  0  0  0  0  0  0
 13 14  2  0
 14 15  1  0
 14  1  1  0
  1  2  1  0
  1  3  1  0
  3  4  1  0
  4 17  1  0
 17 18  1  0
 18 19  1  0
 19 20  1  0
 20 21  1  0
 21 22  2  0
 22 23  1  0
 23 24  2  0
 24 25  1  0
 25 26  2  0
  4  5  1  0
  5  6  1  0
  5  7  1  0
  7  8  1  0
  7  9  1  0
  9  1  1  0
 26 21  1  0
 15 16  1  0
  2 10  1  0
  6 11  1  0
  8 12  1  0
M  END
> <minimizedAffinity>
-4.01129

> <CNNscore>
0.2873570621

> <CNNaffinity>
3.5705842972

> <CNN_VS>
1.0260325670

> <CNNaffinity_variance>
0.0690475702

$$$$



 26 27  0  0  0  0  0  0  0  0999 V2000
  -43.7053  -63.7287  -43.0694 C   0  0  0  0  0  0  0  0  0  0  0  0
  -43.2943  -64.0290  -41.7168 O   0  0  0  0  0  0  0  0  0  0  0  0
  -43.2166  -62.2991  -43.3713 C   0  0  0  0  0  0  0  0  0  0  0  0
  -42.5772  -62.1062  -44.7673 C   0  0  0  0  0  0  0  0  0  0  0  0
  -43.2969  -62.9761  -45.8109 C   0  0  0  0  0  0  0  0  0  0  0  0
  -42.7377  -62.8199  -47.1191 O   0  0  0  0  0  0  0  0  0  0  0  0
  -43.2055  -64.4753  -45.4605 C   0  0  0  0  0  0  0  0  0  0  0  0
  -44.3712  -65.1403  -45.9600 O   0  0  0  0  0  0  0  0  0  0  0  0
  -43.0598  -64.7769  -43.9727 C   0  0  0  0  0  0  0  0  0  0  0  0
  -43.6855  -63.3822  -41.1089 H   0  0  0  0  0  0  0  0  0  0  0  0
  -41.8158  -63.1215  -47.1148 H   0  0  0  0  0  0  0  0  0  0  0  0
  -45.1591  -64.7877  -45.5176 H   0  0  0  0  0  0  0  0  0  0  0  0
  -45.8573  -64.7218  -42.4521 O   0  0  0  0  0  0  0  0  0  0  0  0
  -45.2368  -63.8803  -43.0893 C   0  0  0  0  0  0  0  0  0  0  0  0
  -45.8908  -63.0191  -43.8872 O   0  0  0  0  0  0  0  0  0  0  0  0
  -45.4134  -62.3762  -44.3736 H   0  0  0  0  0  0  0  0  0  0  0  0
  -42.5452  -60.6153  -45.1758 C   0  0  0  0  0  0  0  0  0  0  0  0
  -43.9209  -59.9345  -45.1297 C   0  0  0  0  0  0  0  0  0  0  0  0
  -44.0546  -58.8329  -46.1832 C   0  0  0  0  0  0  0  0  0  0  0  0
  -44.3558  -57.6018  -45.5284 O   0  0  0  0  0  0  0  0  0  0  0  0
  -44.8969  -56.6051  -46.2922 C   0  0  0  0  0  0  0  0  0  0  0  0
  -44.0220  -55.5554  -46.5852 C   0  0  0  0  0  0  0  0  0  0  0  0
  -44.4433  -54.4717  -47.3576 C   0  0  0  0  0  0  0  0  0  0  0  0
  -45.7479  -54.4316  -47.8427 C   0  0  0  0  0  0  0  0  0  0  0  0
  -46.6270  -55.4740  -47.5535 C   0  0  0  0  0  0  0  0  0  0  0  0
  -46.2038  -56.5594  -46.7794 C   0  0  0  0  0  0  0  0  0  0  0  0
 13 14  2  0
 14 15  1  0
 14  1  1  0
  1  2  1  0
  1  3  1  0
  3  4  1  0
  4 17  1  0
 17 18  1  0
 18 19  1  0
 19 20  1  0
 20 21  1  0
 21 22  2  0
 22 23  1  0
 23 24  2  0
 24 25  1  0
 25 26  2  0
  4  5  1  0
  5  6  1  0
  5  7  1  0
  7  8  1  0
  7  9  1  0
  9  1  1  0
 26 21  1  0
 15 16  1  0
  2 10  1  0
  6 11  1  0
  8 12  1  0
M  END
> <minimizedAffinity>
-4.31319

> <CNNscore>
0.2866295576

> <CNNaffinity>
3.8034667969

> <CNN_VS>
1.0901859999

> <CNNaffinity_variance>
0.5365399718

$$$$



 26 27  0  0  0  0  0  0  0  0999 V2000
  -42.9854  -62.4127  -43.1133 C   0  0  0  0  0  0  0  0  0  0  0  0
  -42.5894  -62.0123  -41.7823 O   0  0  0  0  0  0  0  0  0  0  0  0
  -43.8645  -61.2774  -43.6718 C   0  0  0  0  0  0  0  0  0  0  0  0
  -43.5743  -60.8859  -45.1407 C   0  0  0  0  0  0  0  0  0  0  0  0
  -43.2028  -62.1305  -45.9632 C   0  0  0  0  0  0  0  0  0  0  0  0
  -42.9334  -61.8100  -47.3319 O   0  0  0  0  0  0  0  0  0  0  0  0
  -41.9408  -62.8219  -45.4081 C   0  0  0  0  0  0  0  0  0  0  0  0
  -42.0240  -64.2256  -45.6786 O   0  0  0  0  0  0  0  0  0  0  0  0
  -41.7025  -62.6160  -43.9159 C   0  0  0  0  0  0  0  0  0  0  0  0
  -43.3801  -61.8724  -41.2381 H   0  0  0  0  0  0  0  0  0  0  0  0
  -42.1635  -61.2219  -47.3807 H   0  0  0  0  0  0  0  0  0  0  0  0
  -42.7875  -64.6002  -45.2121 H   0  0  0  0  0  0  0  0  0  0  0  0
  -43.1760  -64.8380  -42.8301 O   0  0  0  0  0  0  0  0  0  0  0  0
  -43.7273  -63.7512  -42.9489 C   0  0  0  0  0  0  0  0  0  0  0  0
  -45.0687  -63.6715  -42.9592 O   0  0  0  0  0  0  0  0  0  0  0  0
  -45.4879  -62.8385  -43.0502 H   0  0  0  0  0  0  0  0  0  0  0  0
  -44.7560  -60.1083  -45.7648 C   0  0  0  0  0  0  0  0  0  0  0  0
  -45.1697  -58.8672  -44.9607 C   0  0  0  0  0  0  0  0  0  0  0  0
  -46.3436  -58.1274  -45.6056 C   0  0  0  0  0  0  0  0  0  0  0  0
  -45.9861  -57.7672  -46.9388 O   0  0  0  0  0  0  0  0  0  0  0  0
  -45.8455  -56.4340  -47.2084 C   0  0  0  0  0  0  0  0  0  0  0  0
  -46.8502  -55.8937  -48.0158 C   0  0  0  0  0  0  0  0  0  0  0  0
  -46.8310  -54.5434  -48.3688 C   0  0  0  0  0  0  0  0  0  0  0  0
  -45.8019  -53.7227  -47.9146 C   0  0  0  0  0  0  0  0  0  0  0  0
  -44.7952  -54.2544  -47.1102 C   0  0  0  0  0  0  0  0  0  0  0  0
  -44.8155  -55.6077  -46.7572 C   0  0  0  0  0  0  0  0  0  0  0  0
 13 14  2  0
 14 15  1  0
 14  1  1  0
  1  2  1  0
  1  3  1  0
  3  4  1  0
  4 17  1  0
 17 18  1  0
 18 19  1  0
 19 20  1  0
 20 21  1  0
 21 22  2  0
 22 23  1  0
 23 24  2  0
 24 25  1  0
 25 26  2  0
  4  5  1  0
  5  6  1  0
  5  7  1  0
  7  8  1  0
  7  9  1  0
  9  1  1  0
 26 21  1  0
 15 16  1  0
  2 10  1  0
  6 11  1  0
  8 12  1  0
M  END
> <minimizedAffinity>
-4.27514

> <CNNscore>
0.2804801464

> <CNNaffinity>
3.6977272034

> <CNN_VS>
1.0371390581

> <CNNaffinity_variance>
0.0949904323

$$$$



 26 27  0  0  0  0  0  0  0  0999 V2000
  -43.7488  -60.1747  -41.1143 C   0  0  0  0  0  0  0  0  0  0  0  0
  -44.2768  -60.8556  -42.2746 O   0  0  0  0  0  0  0  0  0  0  0  0
  -42.2505  -60.5262  -41.0410 C   0  0  0  0  0  0  0  0  0  0  0  0
  -41.3140  -59.3385  -40.7133 C   0  0  0  0  0  0  0  0  0  0  0  0
  -41.9921  -58.3797  -39.7210 C   0  0  0  0  0  0  0  0  0  0  0  0
  -41.1530  -57.2693  -39.3870 O   0  0  0  0  0  0  0  0  0  0  0  0
  -43.2985  -57.7968  -40.2976 C   0  0  0  0  0  0  0  0  0  0  0  0
  -44.2026  -57.5297  -39.2197 O   0  0  0  0  0  0  0  0  0  0  0  0
  -43.9961  -58.6827  -41.3243 C   0  0  0  0  0  0  0  0  0  0  0  0
  -44.1385  -61.8110  -42.1796 H   0  0  0  0  0  0  0  0  0  0  0  0
  -40.9789  -56.7445  -40.1840 H   0  0  0  0  0  0  0  0  0  0  0  0
  -44.4291  -58.3610  -38.7741 H   0  0  0  0  0  0  0  0  0  0  0  0
  -45.3609  -60.0046  -39.2784 O   0  0  0  0  0  0  0  0  0  0  0  0
  -44.5674  -60.6858  -39.9153 C   0  0  0  0  0  0  0  0  0  0  0  0
  -44.3496  -61.9668  -39.5728 O   0  0  0  0  0  0  0  0  0  0  0  0
  -43.7418  -62.4857  -40.0620 H   0  0  0  0  0  0  0  0  0  0  0  0
  -39.9378  -59.8248  -40.2034 C   0  0  0  0  0  0  0  0  0  0  0  0
  -39.4971  -61.1669  -40.8054 C   0  0  0  0  0  0  0  0  0  0  0  0
  -37.9758  -61.2694  -40.9338 C   0  0  0  0  0  0  0  0  0  0  0  0
  -37.6616  -62.1594  -42.0035 O   0  0  0  0  0  0  0  0  0  0  0  0
  -37.2744  -61.5981  -43.1887 C   0  0  0  0  0  0  0  0  0  0  0  0
  -35.9018  -61.6630  -43.4433 C   0  0  0  0  0  0  0  0  0  0  0  0
  -35.3694  -61.1291  -44.6180 C   0  0  0  0  0  0  0  0  0  0  0  0
  -36.2107  -60.5239  -45.5481 C   0  0  0  0  0  0  0  0  0  0  0  0
  -37.5807  -60.4538  -45.3007 C   0  0  0  0  0  0  0  0  0  0  0  0
  -38.1131  -60.9892  -44.1232 C   0  0  0  0  0  0  0  0  0  0  0  0
 13 14  2  0
 14 15  1  0
 14  1  1  0
  1  2  1  0
  1  3  1  0
  3  4  1  0
  4 17  1  0
 17 18  1  0
 18 19  1  0
 19 20  1  0
 20 21  1  0
 21 22  2  0
 22 23  1  0
 23 24  2  0
 24 25  1  0
 25 26  2  0
  4  5  1  0
  5  6  1  0
  5  7  1  0
  7  8  1  0
  7  9  1  0
  9  1  1  0
 26 21  1  0
 15 16  1  0
  2 10  1  0
  6 11  1  0
  8 12  1  0
M  END
> <minimizedAffinity>
-5.12632

> <CNNscore>
0.2773817480

> <CNNaffinity>
3.3047668934

> <CNN_VS>
0.9166820049

> <CNNaffinity_variance>
0.9286801219

$$$$
