


 43 47  0  0  0  0  0  0  0  0999 V2000
  -17.2830   19.3658   -6.0983 C   0  0  0  0  0  0  0  0  0  0  0  0
  -16.6945   18.8267   -4.7768 C   0  0  0  0  0  0  0  0  0  0  0  0
  -16.7636   17.3628   -4.8599 N   0  0  0  0  0  0  0  0  0  0  0  0
  -17.9756   17.0825   -5.6306 C   0  0  0  0  0  0  0  0  0  0  0  0
  -18.0023   18.1502   -6.7329 C   0  0  0  0  0  0  0  0  0  0  0  0
  -16.8292   16.9538   -3.9278 H   0  0  0  0  0  0  0  0  0  0  0  0
  -18.1718   20.5574   -5.9432 N   0  0  0  0  0  0  0  0  0  0  0  0
  -16.3938   21.9781   -7.0130 O   0  0  0  0  0  0  0  0  0  0  0  0
  -17.4768   22.1022   -6.0625 S   0  0  0  0  0  0  0  0  0  0  0  0
  -18.5340   23.0780   -6.2070 O   0  0  0  0  0  0  0  0  0  0  0  0
  -16.7420   22.4383   -4.4767 C   0  0  0  0  0  0  0  0  0  0  0  0
  -17.5473   22.6128   -3.3403 C   0  0  0  0  0  0  0  0  0  0  0  0
  -16.9677   22.8533   -2.0901 C   0  0  0  0  0  0  0  0  0  0  0  0
  -15.5814   22.9548   -1.9725 C   0  0  0  0  0  0  0  0  0  0  0  0
  -14.7780   22.8232   -3.1062 C   0  0  0  0  0  0  0  0  0  0  0  0
  -15.3492   22.5708   -4.3642 C   0  0  0  0  0  0  0  0  0  0  0  0
  -14.2517   22.4998   -5.6968 Cl  0  0  0  0  0  0  0  0  0  0  0  0
  -19.5497   20.4170   -5.4457 C   0  0  0  0  0  0  0  0  0  0  0  0
  -19.7645   19.5373   -4.2266 C   0  0  0  0  0  0  0  0  0  0  0  0
  -19.0678   19.7161   -3.0232 C   0  0  0  0  0  0  0  0  0  0  0  0
  -19.3339   18.9020   -1.9158 C   0  0  0  0  0  0  0  0  0  0  0  0
  -20.2958   17.8965   -1.9967 C   0  0  0  0  0  0  0  0  0  0  0  0
  -20.9932   17.6999   -3.1879 C   0  0  0  0  0  0  0  0  0  0  0  0
  -20.7368   18.5205   -4.2913 C   0  0  0  0  0  0  0  0  0  0  0  0
  -17.3628   17.7160   -8.0214 N   0  0  0  0  0  0  0  0  0  0  0  0
  -18.3090   16.8609   -9.1384 S   0  0  0  0  0  0  0  0  0  0  0  0
  -18.5952   17.8022  -10.1969 O   0  0  0  0  0  0  0  0  0  0  0  0
  -17.6775   15.5843   -9.3990 O   0  0  0  0  0  0  0  0  0  0  0  0
  -19.8215   16.4899   -8.2676 C   0  0  0  0  0  0  0  0  0  0  0  0
  -19.9776   15.1986   -7.7310 C   0  0  0  0  0  0  0  0  0  0  0  0
  -21.1209   14.8580   -7.0096 C   0  0  0  0  0  0  0  0  0  0  0  0
  -22.1304   15.7986   -6.8342 C   0  0  0  0  0  0  0  0  0  0  0  0
  -22.0012   17.0706   -7.3978 C   0  0  0  0  0  0  0  0  0  0  0  0
  -20.8565   17.4231   -8.1271 C   0  0  0  0  0  0  0  0  0  0  0  0
  -20.8841   19.0007   -8.8260 Cl  0  0  0  0  0  0  0  0  0  0  0  0
  -15.8842   17.6775   -8.1551 C   0  0  0  0  0  0  0  0  0  0  0  0
  -15.2867   19.0088   -8.5744 C   0  0  0  0  0  0  0  0  0  0  0  0
  -14.0012   19.3767   -8.1243 C   0  0  0  0  0  0  0  0  0  0  0  0
  -13.4098   20.5605   -8.5642 C   0  0  0  0  0  0  0  0  0  0  0  0
  -14.0956   21.3732   -9.4607 C   0  0  0  0  0  0  0  0  0  0  0  0
  -13.5126   22.4854   -9.9179 F   0  0  0  0  0  0  0  0  0  0  0  0
  -15.3718   21.0388   -9.9094 C   0  0  0  0  0  0  0  0  0  0  0  0
  -15.9787   19.8692   -9.4473 C   0  0  0  0  0  0  0  0  0  0  0  0
  8  9  2  0
  9 10  2  0
  9 11  1  0
 11 12  2  0
 12 13  1  0
 13 14  2  0
 14 15  1  0
 15 16  2  0
 16 17  1  0
  9  7  1  0
  7 18  1  0
 18 19  1  0
 19 20  2  0
 20 21  1  0
 21 22  2  0
 22 23  1  0
 23 24  2  0
  1  7  1  0
  1  2  1  0
  2  3  1  0
  3  4  1  0
  4  5  1  0
  5 25  1  0
 25 36  1  0
 36 37  1  0
 37 38  2  0
 38 39  1  0
 39 40  2  0
 40 41  1  0
 40 42  1  0
 42 43  2  0
 25 26  1  0
 26 27  2  0
 26 28  2  0
 26 29  1  0
 29 30  2  0
 30 31  1  0
 31 32  2  0
 32 33  1  0
 33 34  2  0
 34 35  1  0
 16 11  1  0
 24 19  1  0
  5  1  1  0
 43 37  1  0
 34 29  1  0
  3  6  1  0
M  END
> <minimizedAffinity>
-10.66129

> <CNNscore>
0.8272500634

> <CNNaffinity>
7.8090748787

> <CNN_VS>
6.4600577354

> <CNNaffinity_variance>
1.3900402784

$$$$



 43 47  0  0  0  0  0  0  0  0999 V2000
  -15.3373   20.8654   -5.7797 C   0  0  0  0  0  0  0  0  0  0  0  0
  -14.7663   20.2741   -4.4729 C   0  0  0  0  0  0  0  0  0  0  0  0
  -14.8063   18.8149   -4.6269 N   0  0  0  0  0  0  0  0  0  0  0  0
  -15.9967   18.5505   -5.4360 C   0  0  0  0  0  0  0  0  0  0  0  0
  -16.0205   19.6691   -6.4866 C   0  0  0  0  0  0  0  0  0  0  0  0
  -14.8835   18.3607   -3.7169 H   0  0  0  0  0  0  0  0  0  0  0  0
  -16.2511   22.0324   -5.5873 N   0  0  0  0  0  0  0  0  0  0  0  0
  -18.5351   23.0846   -5.6060 O   0  0  0  0  0  0  0  0  0  0  0  0
  -17.8926   21.8439   -5.9795 S   0  0  0  0  0  0  0  0  0  0  0  0
  -17.9918   21.2829   -7.3086 O   0  0  0  0  0  0  0  0  0  0  0  0
  -18.5203   20.5839   -4.8906 C   0  0  0  0  0  0  0  0  0  0  0  0
  -19.0599   19.3967   -5.4100 C   0  0  0  0  0  0  0  0  0  0  0  0
  -19.5311   18.3968   -4.5526 C   0  0  0  0  0  0  0  0  0  0  0  0
  -19.4978   18.5903   -3.1715 C   0  0  0  0  0  0  0  0  0  0  0  0
  -19.0004   19.7859   -2.6508 C   0  0  0  0  0  0  0  0  0  0  0  0
  -18.5148   20.7917   -3.5024 C   0  0  0  0  0  0  0  0  0  0  0  0
  -17.9930   22.2498   -2.7364 Cl  0  0  0  0  0  0  0  0  0  0  0  0
  -15.7182   23.3774   -5.3181 C   0  0  0  0  0  0  0  0  0  0  0  0
  -14.7911   23.5343   -4.1255 C   0  0  0  0  0  0  0  0  0  0  0  0
  -13.4176   23.7845   -4.2533 C   0  0  0  0  0  0  0  0  0  0  0  0
  -12.6151   23.9614   -3.1200 C   0  0  0  0  0  0  0  0  0  0  0  0
  -13.1724   23.8865   -1.8447 C   0  0  0  0  0  0  0  0  0  0  0  0
  -14.5353   23.6312   -1.6987 C   0  0  0  0  0  0  0  0  0  0  0  0
  -15.3405   23.4664   -2.8305 C   0  0  0  0  0  0  0  0  0  0  0  0
  -15.3465   19.3084   -7.7803 N   0  0  0  0  0  0  0  0  0  0  0  0
  -13.6603   19.4561   -7.8747 S   0  0  0  0  0  0  0  0  0  0  0  0
  -13.1796   19.2158   -6.5333 O   0  0  0  0  0  0  0  0  0  0  0  0
  -13.1905   18.6843   -9.0061 O   0  0  0  0  0  0  0  0  0  0  0  0
  -13.3735   21.1660   -8.2959 C   0  0  0  0  0  0  0  0  0  0  0  0
  -12.5372   21.9242   -7.4560 C   0  0  0  0  0  0  0  0  0  0  0  0
  -12.2460   23.2553   -7.7505 C   0  0  0  0  0  0  0  0  0  0  0  0
  -12.8042   23.8495   -8.8774 C   0  0  0  0  0  0  0  0  0  0  0  0
  -13.6676   23.1156   -9.6950 C   0  0  0  0  0  0  0  0  0  0  0  0
  -13.9690   21.7768   -9.4068 C   0  0  0  0  0  0  0  0  0  0  0  0
  -15.1124   21.0341  -10.4648 Cl  0  0  0  0  0  0  0  0  0  0  0  0
  -16.1300   19.2101   -9.0380 C   0  0  0  0  0  0  0  0  0  0  0  0
  -17.2635   18.2029   -8.9593 C   0  0  0  0  0  0  0  0  0  0  0  0
  -18.6026   18.6459   -8.9934 C   0  0  0  0  0  0  0  0  0  0  0  0
  -19.6515   17.7269   -9.0001 C   0  0  0  0  0  0  0  0  0  0  0  0
  -19.3657   16.3658   -8.9828 C   0  0  0  0  0  0  0  0  0  0  0  0
  -20.3678   15.4833   -9.0342 F   0  0  0  0  0  0  0  0  0  0  0  0
  -18.0520   15.9034   -8.9353 C   0  0  0  0  0  0  0  0  0  0  0  0
  -17.0007   16.8216   -8.8981 C   0  0  0  0  0  0  0  0  0  0  0  0
  8  9  2  0
  9 10  2  0
  9 11  1  0
 11 12  2  0
 12 13  1  0
 13 14  2  0
 14 15  1  0
 15 16  2  0
 16 17  1  0
  9  7  1  0
  7 18  1  0
 18 19  1  0
 19 20  2  0
 20 21  1  0
 21 22  2  0
 22 23  1  0
 23 24  2  0
  1  7  1  0
  1  2  1  0
  2  3  1  0
  3  4  1  0
  4  5  1  0
  5 25  1  0
 25 36  1  0
 36 37  1  0
 37 38  2  0
 38 39  1  0
 39 40  2  0
 40 41  1  0
 40 42  1  0
 42 43  2  0
 25 26  1  0
 26 27  2  0
 26 28  2  0
 26 29  1  0
 29 30  2  0
 30 31  1  0
 31 32  2  0
 32 33  1  0
 33 34  2  0
 34 35  1  0
 16 11  1  0
 24 19  1  0
  5  1  1  0
 43 37  1  0
 34 29  1  0
  3  6  1  0
M  END
> <minimizedAffinity>
-9.00376

> <CNNscore>
0.8126518726

> <CNNaffinity>
7.5779623985

> <CNN_VS>
6.1582455635

> <CNNaffinity_variance>
2.4946691990

$$$$



 43 47  0  0  0  0  0  0  0  0999 V2000
  -15.3768   20.8830   -5.2831 C   0  0  0  0  0  0  0  0  0  0  0  0
  -14.4651   20.1702   -4.2613 C   0  0  0  0  0  0  0  0  0  0  0  0
  -14.3154   18.7885   -4.7337 N   0  0  0  0  0  0  0  0  0  0  0  0
  -15.5936   18.4627   -5.3675 C   0  0  0  0  0  0  0  0  0  0  0  0
  -16.0029   19.7382   -6.1167 C   0  0  0  0  0  0  0  0  0  0  0  0
  -14.1331   18.1601   -3.9512 H   0  0  0  0  0  0  0  0  0  0  0  0
  -16.3965   21.7931   -4.6783 N   0  0  0  0  0  0  0  0  0  0  0  0
  -18.7472   22.6656   -4.4861 O   0  0  0  0  0  0  0  0  0  0  0  0
  -18.0251   21.5780   -5.1085 S   0  0  0  0  0  0  0  0  0  0  0  0
  -18.0992   21.3022   -6.5260 O   0  0  0  0  0  0  0  0  0  0  0  0
  -18.5540   20.0777   -4.3106 C   0  0  0  0  0  0  0  0  0  0  0  0
  -18.0642   19.7346   -3.0406 C   0  0  0  0  0  0  0  0  0  0  0  0
  -18.4987   18.5672   -2.4042 C   0  0  0  0  0  0  0  0  0  0  0  0
  -19.3995   17.7173   -3.0463 C   0  0  0  0  0  0  0  0  0  0  0  0
  -19.8581   18.0324   -4.3263 C   0  0  0  0  0  0  0  0  0  0  0  0
  -19.4365   19.2076   -4.9696 C   0  0  0  0  0  0  0  0  0  0  0  0
  -20.0216   19.4454   -6.5779 Cl  0  0  0  0  0  0  0  0  0  0  0  0
  -15.9934   23.0009   -3.9403 C   0  0  0  0  0  0  0  0  0  0  0  0
  -14.5680   23.4898   -4.1287 C   0  0  0  0  0  0  0  0  0  0  0  0
  -13.6070   22.7789   -4.8613 C   0  0  0  0  0  0  0  0  0  0  0  0
  -12.3178   23.2950   -5.0385 C   0  0  0  0  0  0  0  0  0  0  0  0
  -11.9701   24.5252   -4.4832 C   0  0  0  0  0  0  0  0  0  0  0  0
  -12.9110   25.2425   -3.7456 C   0  0  0  0  0  0  0  0  0  0  0  0
  -14.2031   24.7336   -3.5781 C   0  0  0  0  0  0  0  0  0  0  0  0
  -15.5647   19.7714   -7.5536 N   0  0  0  0  0  0  0  0  0  0  0  0
  -15.4402   21.2786   -8.3197 S   0  0  0  0  0  0  0  0  0  0  0  0
  -15.9128   21.0624   -9.6682 O   0  0  0  0  0  0  0  0  0  0  0  0
  -16.0213   22.2860   -7.4571 O   0  0  0  0  0  0  0  0  0  0  0  0
  -13.6906   21.6249   -8.3669 C   0  0  0  0  0  0  0  0  0  0  0  0
  -13.2836   22.9517   -8.5988 C   0  0  0  0  0  0  0  0  0  0  0  0
  -11.9318   23.2924   -8.6121 C   0  0  0  0  0  0  0  0  0  0  0  0
  -10.9709   22.3066   -8.4138 C   0  0  0  0  0  0  0  0  0  0  0  0
  -11.3651   20.9798   -8.2225 C   0  0  0  0  0  0  0  0  0  0  0  0
  -12.7219   20.6256   -8.2096 C   0  0  0  0  0  0  0  0  0  0  0  0
  -13.0419   18.9379   -8.0432 Cl  0  0  0  0  0  0  0  0  0  0  0  0
  -15.6199   18.5443   -8.3883 C   0  0  0  0  0  0  0  0  0  0  0  0
  -17.0197   17.9700   -8.5155 C   0  0  0  0  0  0  0  0  0  0  0  0
  -17.8541   18.3774   -9.5777 C   0  0  0  0  0  0  0  0  0  0  0  0
  -19.1118   17.8003   -9.7504 C   0  0  0  0  0  0  0  0  0  0  0  0
  -19.5343   16.8099   -8.8700 C   0  0  0  0  0  0  0  0  0  0  0  0
  -20.7204   16.2244   -9.0598 F   0  0  0  0  0  0  0  0  0  0  0  0
  -18.7344   16.4000   -7.8051 C   0  0  0  0  0  0  0  0  0  0  0  0
  -17.4872   16.9972   -7.6121 C   0  0  0  0  0  0  0  0  0  0  0  0
  8  9  2  0
  9 10  2  0
  9 11  1  0
 11 12  2  0
 12 13  1  0
 13 14  2  0
 14 15  1  0
 15 16  2  0
 16 17  1  0
  9  7  1  0
  7 18  1  0
 18 19  1  0
 19 20  2  0
 20 21  1  0
 21 22  2  0
 22 23  1  0
 23 24  2  0
  1  7  1  0
  1  2  1  0
  2  3  1  0
  3  4  1  0
  4  5  1  0
  5 25  1  0
 25 36  1  0
 36 37  1  0
 37 38  2  0
 38 39  1  0
 39 40  2  0
 40 41  1  0
 40 42  1  0
 42 43  2  0
 25 26  1  0
 26 27  2  0
 26 28  2  0
 26 29  1  0
 29 30  2  0
 30 31  1  0
 31 32  2  0
 32 33  1  0
 33 34  2  0
 34 35  1  0
 16 11  1  0
 24 19  1  0
  5  1  1  0
 43 37  1  0
 34 29  1  0
  3  6  1  0
M  END
> <minimizedAffinity>
-10.21942

> <CNNscore>
0.7599129677

> <CNNaffinity>
7.2396693230

> <CNN_VS>
5.5015187263

> <CNNaffinity_variance>
3.0411903858

$$$$



 43 47  0  0  0  0  0  0  0  0999 V2000
  -17.6242   18.5304   -6.2304 C   0  0  0  0  0  0  0  0  0  0  0  0
  -16.9132   17.2164   -5.8412 C   0  0  0  0  0  0  0  0  0  0  0  0
  -16.0472   17.5369   -4.7002 N   0  0  0  0  0  0  0  0  0  0  0  0
  -15.6023   18.9112   -4.9347 C   0  0  0  0  0  0  0  0  0  0  0  0
  -16.8334   19.6384   -5.4926 C   0  0  0  0  0  0  0  0  0  0  0  0
  -15.2491   16.9027   -4.6670 H   0  0  0  0  0  0  0  0  0  0  0  0
  -17.7310   18.7675   -7.7023 N   0  0  0  0  0  0  0  0  0  0  0  0
  -18.3467   17.9975  -10.0157 O   0  0  0  0  0  0  0  0  0  0  0  0
  -18.0664   17.4425   -8.7099 S   0  0  0  0  0  0  0  0  0  0  0  0
  -17.0603   16.4268   -8.4932 O   0  0  0  0  0  0  0  0  0  0  0  0
  -19.5844   16.7346   -8.1081 C   0  0  0  0  0  0  0  0  0  0  0  0
  -19.6273   15.3989   -7.6787 C   0  0  0  0  0  0  0  0  0  0  0  0
  -20.8152   14.8506   -7.1836 C   0  0  0  0  0  0  0  0  0  0  0  0
  -21.9765   15.6226   -7.1457 C   0  0  0  0  0  0  0  0  0  0  0  0
  -21.9496   16.9386   -7.6099 C   0  0  0  0  0  0  0  0  0  0  0  0
  -20.7596   17.5021   -8.0988 C   0  0  0  0  0  0  0  0  0  0  0  0
  -20.8765   19.1147   -8.7081 Cl  0  0  0  0  0  0  0  0  0  0  0  0
  -17.3060   20.0442   -8.2982 C   0  0  0  0  0  0  0  0  0  0  0  0
  -15.8204   20.2368   -8.5479 C   0  0  0  0  0  0  0  0  0  0  0  0
  -15.2858   21.4025   -9.1143 C   0  0  0  0  0  0  0  0  0  0  0  0
  -13.9036   21.5449   -9.2853 C   0  0  0  0  0  0  0  0  0  0  0  0
  -13.0379   20.5239   -8.8970 C   0  0  0  0  0  0  0  0  0  0  0  0
  -13.5527   19.3547   -8.3385 C   0  0  0  0  0  0  0  0  0  0  0  0
  -14.9326   19.2163   -8.1560 C   0  0  0  0  0  0  0  0  0  0  0  0
  -17.6606   20.3319   -4.4473 N   0  0  0  0  0  0  0  0  0  0  0  0
  -17.8154   22.0178   -4.5351 S   0  0  0  0  0  0  0  0  0  0  0  0
  -17.6530   22.3445   -5.9334 O   0  0  0  0  0  0  0  0  0  0  0  0
  -18.9903   22.4146   -3.7876 O   0  0  0  0  0  0  0  0  0  0  0  0
  -16.4187   22.6537   -3.6250 C   0  0  0  0  0  0  0  0  0  0  0  0
  -16.6233   23.0547   -2.2919 C   0  0  0  0  0  0  0  0  0  0  0  0
  -15.5647   23.5267   -1.5173 C   0  0  0  0  0  0  0  0  0  0  0  0
  -14.2933   23.6223   -2.0732 C   0  0  0  0  0  0  0  0  0  0  0  0
  -14.0894   23.2639   -3.4083 C   0  0  0  0  0  0  0  0  0  0  0  0
  -15.1476   22.7901   -4.1971 C   0  0  0  0  0  0  0  0  0  0  0  0
  -14.7512   22.4667   -5.8454 Cl  0  0  0  0  0  0  0  0  0  0  0  0
  -18.0000   19.6452   -3.1750 C   0  0  0  0  0  0  0  0  0  0  0  0
  -19.4305   19.1383   -3.1319 C   0  0  0  0  0  0  0  0  0  0  0  0
  -20.2390   19.2131   -4.2857 C   0  0  0  0  0  0  0  0  0  0  0  0
  -21.5280   18.6809   -4.2818 C   0  0  0  0  0  0  0  0  0  0  0  0
  -22.0079   18.0651   -3.1307 C   0  0  0  0  0  0  0  0  0  0  0  0
  -23.2258   17.5152   -3.1387 F   0  0  0  0  0  0  0  0  0  0  0  0
  -21.2340   17.9907   -1.9742 C   0  0  0  0  0  0  0  0  0  0  0  0
  -19.9544   18.5493   -1.9659 C   0  0  0  0  0  0  0  0  0  0  0  0
  8  9  2  0
  9 10  2  0
  9 11  1  0
 11 12  2  0
 12 13  1  0
 13 14  2  0
 14 15  1  0
 15 16  2  0
 16 17  1  0
  9  7  1  0
  7 18  1  0
 18 19  1  0
 19 20  2  0
 20 21  1  0
 21 22  2  0
 22 23  1  0
 23 24  2  0
  1  7  1  0
  1  2  1  0
  2  3  1  0
  3  4  1  0
  4  5  1  0
  5 25  1  0
 25 36  1  0
 36 37  1  0
 37 38  2  0
 38 39  1  0
 39 40  2  0
 40 41  1  0
 40 42  1  0
 42 43  2  0
 25 26  1  0
 26 27  2  0
 26 28  2  0
 26 29  1  0
 29 30  2  0
 30 31  1  0
 31 32  2  0
 32 33  1  0
 33 34  2  0
 34 35  1  0
 16 11  1  0
 24 19  1  0
  5  1  1  0
 43 37  1  0
 34 29  1  0
  3  6  1  0
M  END
> <minimizedAffinity>
-10.93873

> <CNNscore>
0.7418287396

> <CNNaffinity>
7.4760460854

> <CNN_VS>
5.5459456444

> <CNNaffinity_variance>
1.9449313879

$$$$



 43 47  0  0  0  0  0  0  0  0999 V2000
  -16.2242   20.4202   -5.5882 C   0  0  0  0  0  0  0  0  0  0  0  0
  -15.3208   19.9447   -4.4302 C   0  0  0  0  0  0  0  0  0  0  0  0
  -14.8700   18.5936   -4.7850 N   0  0  0  0  0  0  0  0  0  0  0  0
  -15.9873   18.0013   -5.5216 C   0  0  0  0  0  0  0  0  0  0  0  0
  -16.5331   19.1370   -6.3979 C   0  0  0  0  0  0  0  0  0  0  0  0
  -14.6671   18.0515   -3.9451 H   0  0  0  0  0  0  0  0  0  0  0  0
  -17.4543   21.1519   -5.1575 N   0  0  0  0  0  0  0  0  0  0  0  0
  -19.7786   21.7407   -5.9158 O   0  0  0  0  0  0  0  0  0  0  0  0
  -18.9621   20.5706   -5.6793 S   0  0  0  0  0  0  0  0  0  0  0  0
  -18.7462   19.5535   -6.6841 O   0  0  0  0  0  0  0  0  0  0  0  0
  -19.6703   19.7137   -4.2894 C   0  0  0  0  0  0  0  0  0  0  0  0
  -20.9897   19.2377   -4.3421 C   0  0  0  0  0  0  0  0  0  0  0  0
  -21.5374   18.5435   -3.2582 C   0  0  0  0  0  0  0  0  0  0  0  0
  -20.7823   18.3496   -2.1014 C   0  0  0  0  0  0  0  0  0  0  0  0
  -19.4841   18.8567   -2.0278 C   0  0  0  0  0  0  0  0  0  0  0  0
  -18.9209   19.5456   -3.1145 C   0  0  0  0  0  0  0  0  0  0  0  0
  -17.3339   20.1835   -2.8700 Cl  0  0  0  0  0  0  0  0  0  0  0  0
  -17.3663   22.4770   -4.5233 C   0  0  0  0  0  0  0  0  0  0  0  0
  -15.9978   22.9331   -4.0484 C   0  0  0  0  0  0  0  0  0  0  0  0
  -15.6340   22.9763   -2.6952 C   0  0  0  0  0  0  0  0  0  0  0  0
  -14.3447   23.3663   -2.3140 C   0  0  0  0  0  0  0  0  0  0  0  0
  -13.4034   23.7222   -3.2783 C   0  0  0  0  0  0  0  0  0  0  0  0
  -13.7501   23.6920   -4.6285 C   0  0  0  0  0  0  0  0  0  0  0  0
  -15.0343   23.2908   -5.0112 C   0  0  0  0  0  0  0  0  0  0  0  0
  -15.9475   19.1786   -7.7810 N   0  0  0  0  0  0  0  0  0  0  0  0
  -15.7088   20.6924   -8.5059 S   0  0  0  0  0  0  0  0  0  0  0  0
  -16.1019   20.5219   -9.8860 O   0  0  0  0  0  0  0  0  0  0  0  0
  -16.3005   21.7088   -7.6613 O   0  0  0  0  0  0  0  0  0  0  0  0
  -13.9465   20.9616   -8.4338 C   0  0  0  0  0  0  0  0  0  0  0  0
  -13.1512   19.9813   -7.8122 C   0  0  0  0  0  0  0  0  0  0  0  0
  -11.7649   20.1165   -7.7552 C   0  0  0  0  0  0  0  0  0  0  0  0
  -11.1596   21.2435   -8.3012 C   0  0  0  0  0  0  0  0  0  0  0  0
  -11.9452   22.2408   -8.8849 C   0  0  0  0  0  0  0  0  0  0  0  0
  -13.3406   22.1160   -8.9456 C   0  0  0  0  0  0  0  0  0  0  0  0
  -14.1730   23.4671   -9.6239 Cl  0  0  0  0  0  0  0  0  0  0  0  0
  -15.9444   17.9647   -8.6365 C   0  0  0  0  0  0  0  0  0  0  0  0
  -17.3332   17.4019   -8.8811 C   0  0  0  0  0  0  0  0  0  0  0  0
  -17.6512   16.0979   -8.4463 C   0  0  0  0  0  0  0  0  0  0  0  0
  -18.9447   15.5984   -8.5955 C   0  0  0  0  0  0  0  0  0  0  0  0
  -19.9241   16.4023   -9.1691 C   0  0  0  0  0  0  0  0  0  0  0  0
  -21.1744   15.9421   -9.2724 F   0  0  0  0  0  0  0  0  0  0  0  0
  -19.6318   17.6884   -9.6189 C   0  0  0  0  0  0  0  0  0  0  0  0
  -18.3305   18.1800   -9.4983 C   0  0  0  0  0  0  0  0  0  0  0  0
  8  9  2  0
  9 10  2  0
  9 11  1  0
 11 12  2  0
 12 13  1  0
 13 14  2  0
 14 15  1  0
 15 16  2  0
 16 17  1  0
  9  7  1  0
  7 18  1  0
 18 19  1  0
 19 20  2  0
 20 21  1  0
 21 22  2  0
 22 23  1  0
 23 24  2  0
  1  7  1  0
  1  2  1  0
  2  3  1  0
  3  4  1  0
  4  5  1  0
  5 25  1  0
 25 36  1  0
 36 37  1  0
 37 38  2  0
 38 39  1  0
 39 40  2  0
 40 41  1  0
 40 42  1  0
 42 43  2  0
 25 26  1  0
 26 27  2  0
 26 28  2  0
 26 29  1  0
 29 30  2  0
 30 31  1  0
 31 32  2  0
 32 33  1  0
 33 34  2  0
 34 35  1  0
 16 11  1  0
 24 19  1  0
  5  1  1  0
 43 37  1  0
 34 29  1  0
  3  6  1  0
M  END
> <minimizedAffinity>
-9.04073

> <CNNscore>
0.4780727625

> <CNNaffinity>
6.9842247963

> <CNN_VS>
3.3389675617

> <CNNaffinity_variance>
3.1096045971

$$$$



 43 47  0  0  0  0  0  0  0  0999 V2000
  -19.3965   18.7789   -5.1427 C   0  0  0  0  0  0  0  0  0  0  0  0
  -18.9861   18.3706   -3.7115 C   0  0  0  0  0  0  0  0  0  0  0  0
  -17.5269   18.5141   -3.6428 N   0  0  0  0  0  0  0  0  0  0  0  0
  -17.0476   18.1716   -4.9825 C   0  0  0  0  0  0  0  0  0  0  0  0
  -18.0707   18.7940   -5.9424 C   0  0  0  0  0  0  0  0  0  0  0  0
  -17.1365   17.8766   -2.9488 H   0  0  0  0  0  0  0  0  0  0  0  0
  -20.4443   17.9106   -5.7609 N   0  0  0  0  0  0  0  0  0  0  0  0
  -20.1460   15.5000   -5.1098 O   0  0  0  0  0  0  0  0  0  0  0  0
  -21.0449   16.6044   -4.8572 S   0  0  0  0  0  0  0  0  0  0  0  0
  -21.3578   17.0666   -3.5232 O   0  0  0  0  0  0  0  0  0  0  0  0
  -22.6119   16.1776   -5.5851 C   0  0  0  0  0  0  0  0  0  0  0  0
  -22.6910   15.1889   -6.5783 C   0  0  0  0  0  0  0  0  0  0  0  0
  -23.9263   14.8374   -7.1328 C   0  0  0  0  0  0  0  0  0  0  0  0
  -25.0864   15.4950   -6.7233 C   0  0  0  0  0  0  0  0  0  0  0  0
  -25.0082   16.5076   -5.7659 C   0  0  0  0  0  0  0  0  0  0  0  0
  -23.7745   16.8606   -5.1950 C   0  0  0  0  0  0  0  0  0  0  0  0
  -23.8038   18.1762   -4.0754 Cl  0  0  0  0  0  0  0  0  0  0  0  0
  -20.7652   18.0115   -7.1936 C   0  0  0  0  0  0  0  0  0  0  0  0
  -19.7608   17.4343   -8.1755 C   0  0  0  0  0  0  0  0  0  0  0  0
  -19.1815   18.1868   -9.2069 C   0  0  0  0  0  0  0  0  0  0  0  0
  -18.2294   17.6161  -10.0598 C   0  0  0  0  0  0  0  0  0  0  0  0
  -17.8464   16.2858   -9.8968 C   0  0  0  0  0  0  0  0  0  0  0  0
  -18.4175   15.5205   -8.8808 C   0  0  0  0  0  0  0  0  0  0  0  0
  -19.3599   16.0932   -8.0204 C   0  0  0  0  0  0  0  0  0  0  0  0
  -17.7051   20.1718   -6.4176 N   0  0  0  0  0  0  0  0  0  0  0  0
  -18.1241   21.4940   -5.4427 S   0  0  0  0  0  0  0  0  0  0  0  0
  -18.3486   22.5887   -6.3590 O   0  0  0  0  0  0  0  0  0  0  0  0
  -19.1332   21.0694   -4.4952 O   0  0  0  0  0  0  0  0  0  0  0  0
  -16.6611   21.8344   -4.4799 C   0  0  0  0  0  0  0  0  0  0  0  0
  -15.4121   21.4863   -5.0264 C   0  0  0  0  0  0  0  0  0  0  0  0
  -14.2304   21.7586   -4.3388 C   0  0  0  0  0  0  0  0  0  0  0  0
  -14.2851   22.3636   -3.0876 C   0  0  0  0  0  0  0  0  0  0  0  0
  -15.5230   22.6763   -2.5200 C   0  0  0  0  0  0  0  0  0  0  0  0
  -16.7179   22.4048   -3.2019 C   0  0  0  0  0  0  0  0  0  0  0  0
  -18.1628   22.7756   -2.3341 Cl  0  0  0  0  0  0  0  0  0  0  0  0
  -17.3555   20.4115   -7.8409 C   0  0  0  0  0  0  0  0  0  0  0  0
  -15.8585   20.4370   -8.0929 C   0  0  0  0  0  0  0  0  0  0  0  0
  -15.2122   21.6595   -8.3727 C   0  0  0  0  0  0  0  0  0  0  0  0
  -13.8273   21.7078   -8.5293 C   0  0  0  0  0  0  0  0  0  0  0  0
  -13.0851   20.5390   -8.3972 C   0  0  0  0  0  0  0  0  0  0  0  0
  -11.7540   20.5905   -8.5027 F   0  0  0  0  0  0  0  0  0  0  0  0
  -13.7012   19.3169   -8.1348 C   0  0  0  0  0  0  0  0  0  0  0  0
  -15.0905   19.2606   -8.0073 C   0  0  0  0  0  0  0  0  0  0  0  0
  8  9  2  0
  9 10  2  0
  9 11  1  0
 11 12  2  0
 12 13  1  0
 13 14  2  0
 14 15  1  0
 15 16  2  0
 16 17  1  0
  9  7  1  0
  7 18  1  0
 18 19  1  0
 19 20  2  0
 20 21  1  0
 21 22  2  0
 22 23  1  0
 23 24  2  0
  1  7  1  0
  1  2  1  0
  2  3  1  0
  3  4  1  0
  4  5  1  0
  5 25  1  0
 25 36  1  0
 36 37  1  0
 37 38  2  0
 38 39  1  0
 39 40  2  0
 40 41  1  0
 40 42  1  0
 42 43  2  0
 25 26  1  0
 26 27  2  0
 26 28  2  0
 26 29  1  0
 29 30  2  0
 30 31  1  0
 31 32  2  0
 32 33  1  0
 33 34  2  0
 34 35  1  0
 16 11  1  0
 24 19  1  0
  5  1  1  0
 43 37  1  0
 34 29  1  0
  3  6  1  0
M  END
> <minimizedAffinity>
-10.24324

> <CNNscore>
0.3958077431

> <CNNaffinity>
7.5932583809

> <CNN_VS>
3.0054705143

> <CNNaffinity_variance>
1.1406298876

$$$$



 43 47  0  0  0  0  0  0  0  0999 V2000
  -17.9787   19.2859   -5.0029 C   0  0  0  0  0  0  0  0  0  0  0  0
  -17.1008   19.2987   -3.7331 C   0  0  0  0  0  0  0  0  0  0  0  0
  -17.9538   18.8272   -2.6355 N   0  0  0  0  0  0  0  0  0  0  0  0
  -19.2944   19.3174   -2.9584 C   0  0  0  0  0  0  0  0  0  0  0  0
  -19.4279   19.1404   -4.4772 C   0  0  0  0  0  0  0  0  0  0  0  0
  -17.6369   19.2110   -1.7452 H   0  0  0  0  0  0  0  0  0  0  0  0
  -17.7958   20.4691   -5.8976 N   0  0  0  0  0  0  0  0  0  0  0  0
  -18.3231   22.8733   -6.4131 O   0  0  0  0  0  0  0  0  0  0  0  0
  -18.1192   22.0129   -5.2686 S   0  0  0  0  0  0  0  0  0  0  0  0
  -19.0894   21.8875   -4.2038 O   0  0  0  0  0  0  0  0  0  0  0  0
  -16.6189   22.5485   -4.4751 C   0  0  0  0  0  0  0  0  0  0  0  0
  -15.4292   22.6735   -5.2096 C   0  0  0  0  0  0  0  0  0  0  0  0
  -14.2562   23.1173   -4.5901 C   0  0  0  0  0  0  0  0  0  0  0  0
  -14.2553   23.4070   -3.2255 C   0  0  0  0  0  0  0  0  0  0  0  0
  -15.4251   23.2450   -2.4816 C   0  0  0  0  0  0  0  0  0  0  0  0
  -16.6109   22.8104   -3.0961 C   0  0  0  0  0  0  0  0  0  0  0  0
  -17.9688   22.5829   -2.0522 Cl  0  0  0  0  0  0  0  0  0  0  0  0
  -17.5967   20.3018   -7.3461 C   0  0  0  0  0  0  0  0  0  0  0  0
  -16.1660   20.2749   -7.8547 C   0  0  0  0  0  0  0  0  0  0  0  0
  -15.7721   20.8741   -9.0594 C   0  0  0  0  0  0  0  0  0  0  0  0
  -14.4314   20.8553   -9.4620 C   0  0  0  0  0  0  0  0  0  0  0  0
  -13.4676   20.2344   -8.6693 C   0  0  0  0  0  0  0  0  0  0  0  0
  -13.8426   19.6272   -7.4716 C   0  0  0  0  0  0  0  0  0  0  0  0
  -15.1798   19.6560   -7.0624 C   0  0  0  0  0  0  0  0  0  0  0  0
  -20.0577   17.8398   -4.8890 N   0  0  0  0  0  0  0  0  0  0  0  0
  -21.5077   17.3785   -4.1415 S   0  0  0  0  0  0  0  0  0  0  0  0
  -21.1359   16.3713   -3.1743 O   0  0  0  0  0  0  0  0  0  0  0  0
  -22.2337   18.5727   -3.7627 O   0  0  0  0  0  0  0  0  0  0  0  0
  -22.4668   16.6130   -5.4367 C   0  0  0  0  0  0  0  0  0  0  0  0
  -21.8494   15.6208   -6.2204 C   0  0  0  0  0  0  0  0  0  0  0  0
  -22.5564   14.9606   -7.2243 C   0  0  0  0  0  0  0  0  0  0  0  0
  -23.8829   15.2992   -7.4695 C   0  0  0  0  0  0  0  0  0  0  0  0
  -24.4917   16.3111   -6.7226 C   0  0  0  0  0  0  0  0  0  0  0  0
  -23.7893   16.9832   -5.7120 C   0  0  0  0  0  0  0  0  0  0  0  0
  -24.6539   18.2598   -4.9368 Cl  0  0  0  0  0  0  0  0  0  0  0  0
  -19.2660   16.8138   -5.6143 C   0  0  0  0  0  0  0  0  0  0  0  0
  -19.0304   17.1614   -7.0734 C   0  0  0  0  0  0  0  0  0  0  0  0
  -17.8310   16.7710   -7.7054 C   0  0  0  0  0  0  0  0  0  0  0  0
  -17.6354   17.0158   -9.0643 C   0  0  0  0  0  0  0  0  0  0  0  0
  -18.6396   17.6411   -9.7959 C   0  0  0  0  0  0  0  0  0  0  0  0
  -18.4726   17.8365  -11.1072 F   0  0  0  0  0  0  0  0  0  0  0  0
  -19.8274   18.0485   -9.1918 C   0  0  0  0  0  0  0  0  0  0  0  0
  -20.0135   17.8317   -7.8251 C   0  0  0  0  0  0  0  0  0  0  0  0
  8  9  2  0
  9 10  2  0
  9 11  1  0
 11 12  2  0
 12 13  1  0
 13 14  2  0
 14 15  1  0
 15 16  2  0
 16 17  1  0
  9  7  1  0
  7 18  1  0
 18 19  1  0
 19 20  2  0
 20 21  1  0
 21 22  2  0
 22 23  1  0
 23 24  2  0
  1  7  1  0
  1  2  1  0
  2  3  1  0
  3  4  1  0
  4  5  1  0
  5 25  1  0
 25 36  1  0
 36 37  1  0
 37 38  2  0
 38 39  1  0
 39 40  2  0
 40 41  1  0
 40 42  1  0
 42 43  2  0
 25 26  1  0
 26 27  2  0
 26 28  2  0
 26 29  1  0
 29 30  2  0
 30 31  1  0
 31 32  2  0
 32 33  1  0
 33 34  2  0
 34 35  1  0
 16 11  1  0
 24 19  1  0
  5  1  1  0
 43 37  1  0
 34 29  1  0
  3  6  1  0
M  END
> <minimizedAffinity>
-10.41472

> <CNNscore>
0.3602218330

> <CNNaffinity>
7.3413405418

> <CNN_VS>
2.6445112228

> <CNNaffinity_variance>
2.1833941936

$$$$



 43 47  0  0  0  0  0  0  0  0999 V2000
  -14.9671   20.6386   -5.2264 C   0  0  0  0  0  0  0  0  0  0  0  0
  -14.2194   20.4682   -3.8865 C   0  0  0  0  0  0  0  0  0  0  0  0
  -15.2397   20.5278   -2.8329 N   0  0  0  0  0  0  0  0  0  0  0  0
  -16.2468   21.4653   -3.3315 C   0  0  0  0  0  0  0  0  0  0  0  0
  -16.3715   21.1560   -4.8297 C   0  0  0  0  0  0  0  0  0  0  0  0
  -14.8346   20.8677   -1.9607 H   0  0  0  0  0  0  0  0  0  0  0  0
  -14.2761   21.5193   -6.2168 N   0  0  0  0  0  0  0  0  0  0  0  0
  -14.1996   19.8907   -8.1314 O   0  0  0  0  0  0  0  0  0  0  0  0
  -14.5737   21.2629   -7.8688 S   0  0  0  0  0  0  0  0  0  0  0  0
  -15.8797   21.7916   -8.1938 O   0  0  0  0  0  0  0  0  0  0  0  0
  -13.4187   22.2945   -8.7459 C   0  0  0  0  0  0  0  0  0  0  0  0
  -13.8518   23.4682   -9.3826 C   0  0  0  0  0  0  0  0  0  0  0  0
  -12.9391   24.2907  -10.0514 C   0  0  0  0  0  0  0  0  0  0  0  0
  -11.5935   23.9290  -10.1177 C   0  0  0  0  0  0  0  0  0  0  0  0
  -11.1644   22.7421   -9.5218 C   0  0  0  0  0  0  0  0  0  0  0  0
  -12.0706   21.9147   -8.8385 C   0  0  0  0  0  0  0  0  0  0  0  0
  -11.4268   20.4408   -8.2072 Cl  0  0  0  0  0  0  0  0  0  0  0  0
  -13.1766   22.4070   -5.8057 C   0  0  0  0  0  0  0  0  0  0  0  0
  -13.4685   23.4170   -4.7098 C   0  0  0  0  0  0  0  0  0  0  0  0
  -12.5859   23.6714   -3.6506 C   0  0  0  0  0  0  0  0  0  0  0  0
  -12.8857   24.6430   -2.6884 C   0  0  0  0  0  0  0  0  0  0  0  0
  -14.0722   25.3701   -2.7688 C   0  0  0  0  0  0  0  0  0  0  0  0
  -14.9649   25.1252   -3.8114 C   0  0  0  0  0  0  0  0  0  0  0  0
  -14.6608   24.1631   -4.7802 C   0  0  0  0  0  0  0  0  0  0  0  0
  -17.4583   20.1735   -5.1635 N   0  0  0  0  0  0  0  0  0  0  0  0
  -19.0607   20.5984   -4.8086 S   0  0  0  0  0  0  0  0  0  0  0  0
  -18.9836   21.4290   -3.6286 O   0  0  0  0  0  0  0  0  0  0  0  0
  -19.6992   21.0545   -6.0255 O   0  0  0  0  0  0  0  0  0  0  0  0
  -19.8588   19.0602   -4.3841 C   0  0  0  0  0  0  0  0  0  0  0  0
  -20.8339   18.5547   -5.2636 C   0  0  0  0  0  0  0  0  0  0  0  0
  -21.4678   17.3401   -5.0057 C   0  0  0  0  0  0  0  0  0  0  0  0
  -21.1487   16.6272   -3.8548 C   0  0  0  0  0  0  0  0  0  0  0  0
  -20.2106   17.1414   -2.9560 C   0  0  0  0  0  0  0  0  0  0  0  0
  -19.5686   18.3631   -3.2044 C   0  0  0  0  0  0  0  0  0  0  0  0
  -18.4983   18.8999   -1.9615 Cl  0  0  0  0  0  0  0  0  0  0  0  0
  -17.1339   18.7471   -5.4199 C   0  0  0  0  0  0  0  0  0  0  0  0
  -17.3913   18.3238   -6.8551 C   0  0  0  0  0  0  0  0  0  0  0  0
  -18.3564   19.0039   -7.6275 C   0  0  0  0  0  0  0  0  0  0  0  0
  -18.5474   18.6759   -8.9694 C   0  0  0  0  0  0  0  0  0  0  0  0
  -17.7695   17.6766   -9.5445 C   0  0  0  0  0  0  0  0  0  0  0  0
  -17.9198   17.3914  -10.8413 F   0  0  0  0  0  0  0  0  0  0  0  0
  -16.8194   16.9810   -8.7993 C   0  0  0  0  0  0  0  0  0  0  0  0
  -16.6470   17.2866   -7.4478 C   0  0  0  0  0  0  0  0  0  0  0  0
  8  9  2  0
  9 10  2  0
  9 11  1  0
 11 12  2  0
 12 13  1  0
 13 14  2  0
 14 15  1  0
 15 16  2  0
 16 17  1  0
  9  7  1  0
  7 18  1  0
 18 19  1  0
 19 20  2  0
 20 21  1  0
 21 22  2  0
 22 23  1  0
 23 24  2  0
  1  7  1  0
  1  2  1  0
  2  3  1  0
  3  4  1  0
  4  5  1  0
  5 25  1  0
 25 36  1  0
 36 37  1  0
 37 38  2  0
 38 39  1  0
 39 40  2  0
 40 41  1  0
 40 42  1  0
 42 43  2  0
 25 26  1  0
 26 27  2  0
 26 28  2  0
 26 29  1  0
 29 30  2  0
 30 31  1  0
 31 32  2  0
 32 33  1  0
 33 34  2  0
 34 35  1  0
 16 11  1  0
 24 19  1  0
  5  1  1  0
 43 37  1  0
 34 29  1  0
  3  6  1  0
M  END
> <minimizedAffinity>
-9.18359

> <CNNscore>
0.3561801016

> <CNNaffinity>
7.1480059624

> <CNN_VS>
2.5459775925

> <CNNaffinity_variance>
2.4401528835

$$$$



 43 47  0  0  0  0  0  0  0  0999 V2000
  -13.9952   21.0488   -6.6561 C   0  0  0  0  0  0  0  0  0  0  0  0
  -13.6263   19.5538   -6.5456 C   0  0  0  0  0  0  0  0  0  0  0  0
  -14.1826   19.0835   -5.2713 N   0  0  0  0  0  0  0  0  0  0  0  0
  -14.0874   20.2311   -4.3682 C   0  0  0  0  0  0  0  0  0  0  0  0
  -14.4501   21.4477   -5.2309 C   0  0  0  0  0  0  0  0  0  0  0  0
  -13.6399   18.2984   -4.9114 H   0  0  0  0  0  0  0  0  0  0  0  0
  -12.9046   21.9209   -7.1890 N   0  0  0  0  0  0  0  0  0  0  0  0
  -13.7722   21.4289   -9.4975 O   0  0  0  0  0  0  0  0  0  0  0  0
  -13.0019   22.4374   -8.8037 S   0  0  0  0  0  0  0  0  0  0  0  0
  -13.3549   23.8395   -8.8232 O   0  0  0  0  0  0  0  0  0  0  0  0
  -11.3448   22.3621   -9.4484 C   0  0  0  0  0  0  0  0  0  0  0  0
  -10.4553   21.3667   -9.0142 C   0  0  0  0  0  0  0  0  0  0  0  0
   -9.1608   21.2939   -9.5392 C   0  0  0  0  0  0  0  0  0  0  0  0
   -8.7348   22.2354  -10.4763 C   0  0  0  0  0  0  0  0  0  0  0  0
   -9.6012   23.2520  -10.8809 C   0  0  0  0  0  0  0  0  0  0  0  0
  -10.9066   23.3276  -10.3682 C   0  0  0  0  0  0  0  0  0  0  0  0
  -11.8536   24.6731  -10.8957 Cl  0  0  0  0  0  0  0  0  0  0  0  0
  -11.6552   22.1189   -6.4369 C   0  0  0  0  0  0  0  0  0  0  0  0
  -11.2812   23.5440   -6.0689 C   0  0  0  0  0  0  0  0  0  0  0  0
  -11.3273   24.0310   -4.7551 C   0  0  0  0  0  0  0  0  0  0  0  0
  -10.9325   25.3424   -4.4648 C   0  0  0  0  0  0  0  0  0  0  0  0
  -10.4906   26.1857   -5.4829 C   0  0  0  0  0  0  0  0  0  0  0  0
  -10.4451   25.7203   -6.7964 C   0  0  0  0  0  0  0  0  0  0  0  0
  -10.8278   24.4064   -7.0858 C   0  0  0  0  0  0  0  0  0  0  0  0
  -15.9040   21.8234   -5.1788 N   0  0  0  0  0  0  0  0  0  0  0  0
  -16.7837   21.8284   -6.6280 S   0  0  0  0  0  0  0  0  0  0  0  0
  -18.0110   22.5300   -6.3280 O   0  0  0  0  0  0  0  0  0  0  0  0
  -15.9059   22.2457   -7.7012 O   0  0  0  0  0  0  0  0  0  0  0  0
  -17.1585   20.1124   -6.9417 C   0  0  0  0  0  0  0  0  0  0  0  0
  -16.8631   19.5916   -8.2150 C   0  0  0  0  0  0  0  0  0  0  0  0
  -17.0997   18.2499   -8.5106 C   0  0  0  0  0  0  0  0  0  0  0  0
  -17.6533   17.4184   -7.5427 C   0  0  0  0  0  0  0  0  0  0  0  0
  -17.9867   17.9369   -6.2887 C   0  0  0  0  0  0  0  0  0  0  0  0
  -17.7551   19.2854   -5.9815 C   0  0  0  0  0  0  0  0  0  0  0  0
  -18.2951   19.7896   -4.4219 Cl  0  0  0  0  0  0  0  0  0  0  0  0
  -16.4571   22.5390   -4.0009 C   0  0  0  0  0  0  0  0  0  0  0  0
  -15.4677   23.4999   -3.3659 C   0  0  0  0  0  0  0  0  0  0  0  0
  -14.8206   23.1506   -2.1619 C   0  0  0  0  0  0  0  0  0  0  0  0
  -13.8530   23.9895   -1.6099 C   0  0  0  0  0  0  0  0  0  0  0  0
  -13.5231   25.1723   -2.2631 C   0  0  0  0  0  0  0  0  0  0  0  0
  -12.5648   25.9558   -1.7596 F   0  0  0  0  0  0  0  0  0  0  0  0
  -14.1577   25.5462   -3.4461 C   0  0  0  0  0  0  0  0  0  0  0  0
  -15.1482   24.7228   -3.9851 C   0  0  0  0  0  0  0  0  0  0  0  0
  8  9  2  0
  9 10  2  0
  9 11  1  0
 11 12  2  0
 12 13  1  0
 13 14  2  0
 14 15  1  0
 15 16  2  0
 16 17  1  0
  9  7  1  0
  7 18  1  0
 18 19  1  0
 19 20  2  0
 20 21  1  0
 21 22  2  0
 22 23  1  0
 23 24  2  0
  1  7  1  0
  1  2  1  0
  2  3  1  0
  3  4  1  0
  4  5  1  0
  5 25  1  0
 25 36  1  0
 36 37  1  0
 37 38  2  0
 38 39  1  0
 39 40  2  0
 40 41  1  0
 40 42  1  0
 42 43  2  0
 25 26  1  0
 26 27  2  0
 26 28  2  0
 26 29  1  0
 29 30  2  0
 30 31  1  0
 31 32  2  0
 32 33  1  0
 33 34  2  0
 34 35  1  0
 16 11  1  0
 24 19  1  0
  5  1  1  0
 43 37  1  0
 34 29  1  0
  3  6  1  0
M  END
> <minimizedAffinity>
-9.46875

> <CNNscore>
0.2991541028

> <CNNaffinity>
7.3178806305

> <CNN_VS>
2.1891739368

> <CNNaffinity_variance>
1.4786726236

$$$$
