


 22 22  0  0  0  0  0  0  0  0999 V2000
    6.6606  -11.8127    3.9083 C   0  0  0  0  0  0  0  0  0  0  0  0
    7.0786  -13.2062    3.3649 C   0  0  0  0  0  0  0  0  0  0  0  0
    7.4461  -14.1385    4.4061 O   0  0  0  0  0  0  0  0  0  0  0  0
    5.9300  -13.8902    2.5878 C   0  0  0  0  0  0  0  0  0  0  0  0
    6.3868  -15.2201    2.2562 O   0  0  0  0  0  0  0  0  0  0  0  0
    5.4706  -13.2162    1.2700 C   0  0  0  0  0  0  0  0  0  0  0  0
    5.2651  -11.7396    1.3172 N   0  0  0  0  0  0  0  0  0  0  0  0
    6.5552  -11.0423    1.4170 C   0  0  0  0  0  0  0  0  0  0  0  0
    6.9152  -10.6979    2.8669 C   0  0  0  0  0  0  0  0  0  0  0  0
    6.1842   -9.5269    3.2725 O   0  0  0  0  0  0  0  0  0  0  0  0
    6.6748  -14.3183    4.9662 H   0  0  0  0  0  0  0  0  0  0  0  0
    7.1582  -15.1605    1.6712 H   0  0  0  0  0  0  0  0  0  0  0  0
    4.6938  -11.5061    2.1293 H   0  0  0  0  0  0  0  0  0  0  0  0
    5.2338   -9.7203    3.2651 H   0  0  0  0  0  0  0  0  0  0  0  0
    7.6108  -10.0739    7.1697 C   0  0  0  0  0  0  0  0  0  0  0  0
    6.7243  -10.5379    6.0472 C   0  0  0  0  0  0  0  0  0  0  0  0
    5.5616  -10.1609    5.9219 O   0  0  0  0  0  0  0  0  0  0  0  0
    7.3144  -11.4219    5.1750 N   0  0  0  0  0  0  0  0  0  0  0  0
    8.1937  -11.8037    5.3995 H   0  0  0  0  0  0  0  0  0  0  0  0
    4.1304  -13.8548    0.8187 C   0  0  0  0  0  0  0  0  0  0  0  0
    4.3355  -15.2131    0.4238 O   0  0  0  0  0  0  0  0  0  0  0  0
    4.9598  -15.2435   -0.3179 H   0  0  0  0  0  0  0  0  0  0  0  0
 15 16  1  0
 16 17  2  0
 16 18  1  0
  1 18  1  0
  1  2  1  0
  2  3  1  0
  2  4  1  0
  4  5  1  0
  4  6  1  0
  6 20  1  0
 20 21  1  0
  6  7  1  0
  7  8  1  0
  8  9  1  0
  9 10  1  0
  9  1  1  0
 18 19  1  0
  3 11  1  0
  5 12  1  0
 21 22  1  0
  7 13  1  0
 10 14  1  0
M  END
> <minimizedAffinity>
-8.00963

> <CNNscore>
0.9128105640

> <CNNaffinity>
5.4152636528

> <CNN_VS>
4.9431099892

> <CNNaffinity_variance>
0.1915803403

$$$$



 22 22  0  0  0  0  0  0  0  0999 V2000
    6.0607  -12.9912    1.8005 C   0  0  0  0  0  0  0  0  0  0  0  0
    7.1810  -11.9282    1.9638 C   0  0  0  0  0  0  0  0  0  0  0  0
    7.3541  -11.0964    0.7948 O   0  0  0  0  0  0  0  0  0  0  0  0
    6.8828  -10.9499    3.1235 C   0  0  0  0  0  0  0  0  0  0  0  0
    7.9122   -9.9368    3.0877 O   0  0  0  0  0  0  0  0  0  0  0  0
    6.8630  -11.5397    4.5565 C   0  0  0  0  0  0  0  0  0  0  0  0
    6.1092  -12.8138    4.7386 N   0  0  0  0  0  0  0  0  0  0  0  0
    6.8274  -13.9321    4.1109 C   0  0  0  0  0  0  0  0  0  0  0  0
    6.3154  -14.2262    2.6960 C   0  0  0  0  0  0  0  0  0  0  0  0
    5.0937  -14.9813    2.7804 O   0  0  0  0  0  0  0  0  0  0  0  0
    6.5481  -10.5779    0.6447 H   0  0  0  0  0  0  0  0  0  0  0  0
    8.7759  -10.3476    3.2493 H   0  0  0  0  0  0  0  0  0  0  0  0
    5.1884  -12.7232    4.3094 H   0  0  0  0  0  0  0  0  0  0  0  0
    4.4109  -14.4446    3.2124 H   0  0  0  0  0  0  0  0  0  0  0  0
    6.3528  -14.7759   -1.5600 C   0  0  0  0  0  0  0  0  0  0  0  0
    6.4995  -14.5668   -0.0781 C   0  0  0  0  0  0  0  0  0  0  0  0
    7.1444  -15.3290    0.6380 O   0  0  0  0  0  0  0  0  0  0  0  0
    5.8503  -13.4592    0.4143 N   0  0  0  0  0  0  0  0  0  0  0  0
    5.2306  -12.9661   -0.1705 H   0  0  0  0  0  0  0  0  0  0  0  0
    6.2440  -10.4948    5.5223 C   0  0  0  0  0  0  0  0  0  0  0  0
    7.1173  -10.2634    6.6299 O   0  0  0  0  0  0  0  0  0  0  0  0
    7.2523  -11.0930    7.1140 H   0  0  0  0  0  0  0  0  0  0  0  0
 15 16  1  0
 16 17  2  0
 16 18  1  0
  1 18  1  0
  1  2  1  0
  2  3  1  0
  2  4  1  0
  4  5  1  0
  4  6  1  0
  6 20  1  0
 20 21  1  0
  6  7  1  0
  7  8  1  0
  8  9  1  0
  9 10  1  0
  9  1  1  0
 18 19  1  0
  3 11  1  0
  5 12  1  0
 21 22  1  0
  7 13  1  0
 10 14  1  0
M  END
> <minimizedAffinity>
-6.12371

> <CNNscore>
0.3913079500

> <CNNaffinity>
3.9968769550

> <CNN_VS>
1.5640097857

> <CNNaffinity_variance>
0.4327626228

$$$$



 22 22  0  0  0  0  0  0  0  0999 V2000
    7.8281  -16.0321    0.6915 C   0  0  0  0  0  0  0  0  0  0  0  0
    6.7985  -16.3991   -0.4117 C   0  0  0  0  0  0  0  0  0  0  0  0
    5.4841  -15.8482   -0.1725 O   0  0  0  0  0  0  0  0  0  0  0  0
    7.2230  -15.8618   -1.7981 C   0  0  0  0  0  0  0  0  0  0  0  0
    6.1326  -16.1412   -2.7038 O   0  0  0  0  0  0  0  0  0  0  0  0
    8.5090  -16.4599   -2.4229 C   0  0  0  0  0  0  0  0  0  0  0  0
    9.6916  -16.5768   -1.5215 N   0  0  0  0  0  0  0  0  0  0  0  0
    9.4808  -17.6409   -0.5296 C   0  0  0  0  0  0  0  0  0  0  0  0
    8.9469  -17.0944    0.7996 C   0  0  0  0  0  0  0  0  0  0  0  0
   10.0349  -16.5282    1.5517 O   0  0  0  0  0  0  0  0  0  0  0  0
    5.5303  -14.8796   -0.1967 H   0  0  0  0  0  0  0  0  0  0  0  0
    6.0078  -17.1007   -2.7733 H   0  0  0  0  0  0  0  0  0  0  0  0
    9.8334  -15.6903   -1.0374 H   0  0  0  0  0  0  0  0  0  0  0  0
   10.4000  -15.7691    1.0706 H   0  0  0  0  0  0  0  0  0  0  0  0
    5.7668  -16.3418    3.8881 C   0  0  0  0  0  0  0  0  0  0  0  0
    6.4584  -16.7882    2.6297 C   0  0  0  0  0  0  0  0  0  0  0  0
    6.3325  -17.9208    2.1704 O   0  0  0  0  0  0  0  0  0  0  0  0
    7.2478  -15.8316    2.0361 N   0  0  0  0  0  0  0  0  0  0  0  0
    7.4310  -14.9930    2.5182 H   0  0  0  0  0  0  0  0  0  0  0  0
    8.9346  -15.5857   -3.6321 C   0  0  0  0  0  0  0  0  0  0  0  0
    8.9744  -16.3727   -4.8246 O   0  0  0  0  0  0  0  0  0  0  0  0
    9.6185  -17.0900   -4.7173 H   0  0  0  0  0  0  0  0  0  0  0  0
 15 16  1  0
 16 17  2  0
 16 18  1  0
  1 18  1  0
  1  2  1  0
  2  3  1  0
  2  4  1  0
  4  5  1  0
  4  6  1  0
  6 20  1  0
 20 21  1  0
  6  7  1  0
  7  8  1  0
  8  9  1  0
  9 10  1  0
  9  1  1  0
 18 19  1  0
  3 11  1  0
  5 12  1  0
 21 22  1  0
  7 13  1  0
 10 14  1  0
M  END
> <minimizedAffinity>
-4.70340

> <CNNscore>
0.3489509523

> <CNNaffinity>
3.0055894852

> <CNN_VS>
1.0488033295

> <CNNaffinity_variance>
0.6683373451

$$$$



 22 22  0  0  0  0  0  0  0  0999 V2000
    1.3723  -21.8778    7.2958 C   0  0  0  0  0  0  0  0  0  0  0  0
    1.7883  -22.2892    8.7344 C   0  0  0  0  0  0  0  0  0  0  0  0
    3.0912  -21.7941    9.1159 O   0  0  0  0  0  0  0  0  0  0  0  0
    0.8111  -21.7358    9.7975 C   0  0  0  0  0  0  0  0  0  0  0  0
    1.3728  -22.0621   11.0880 O   0  0  0  0  0  0  0  0  0  0  0  0
   -0.6398  -22.2796    9.7730 C   0  0  0  0  0  0  0  0  0  0  0  0
   -1.3007  -22.3454    8.4373 N   0  0  0  0  0  0  0  0  0  0  0  0
   -0.7103  -23.4165    7.6221 C   0  0  0  0  0  0  0  0  0  0  0  0
    0.3798  -22.8918    6.6803 C   0  0  0  0  0  0  0  0  0  0  0  0
   -0.2374  -22.2792    5.5340 O   0  0  0  0  0  0  0  0  0  0  0  0
    3.0754  -20.8244    9.1362 H   0  0  0  0  0  0  0  0  0  0  0  0
    1.4176  -23.0260   11.1868 H   0  0  0  0  0  0  0  0  0  0  0  0
   -1.1788  -21.4532    7.9583 H   0  0  0  0  0  0  0  0  0  0  0  0
   -0.7498  -21.5059    5.8173 H   0  0  0  0  0  0  0  0  0  0  0  0
    3.7983  -20.5182    4.6826 C   0  0  0  0  0  0  0  0  0  0  0  0
    2.7722  -20.4813    5.7812 C   0  0  0  0  0  0  0  0  0  0  0  0
    2.2255  -19.4420    6.1427 O   0  0  0  0  0  0  0  0  0  0  0  0
    2.4977  -21.7007    6.3541 N   0  0  0  0  0  0  0  0  0  0  0  0
    3.0644  -22.4744    6.1317 H   0  0  0  0  0  0  0  0  0  0  0  0
   -1.5264  -21.3894   10.6834 C   0  0  0  0  0  0  0  0  0  0  0  0
   -2.8146  -21.2024   10.0928 O   0  0  0  0  0  0  0  0  0  0  0  0
   -2.7155  -20.7659    9.2323 H   0  0  0  0  0  0  0  0  0  0  0  0
 15 16  1  0
 16 17  2  0
 16 18  1  0
  1 18  1  0
  1  2  1  0
  2  3  1  0
  2  4  1  0
  4  5  1  0
  4  6  1  0
  6 20  1  0
 20 21  1  0
  6  7  1  0
  7  8  1  0
  8  9  1  0
  9 10  1  0
  9  1  1  0
 18 19  1  0
  3 11  1  0
  5 12  1  0
 21 22  1  0
  7 13  1  0
 10 14  1  0
M  END
> <minimizedAffinity>
-4.39112

> <CNNscore>
0.2980763614

> <CNNaffinity>
2.2897441387

> <CNN_VS>
0.6825186014

> <CNNaffinity_variance>
0.8154572845

$$$$



 22 22  0  0  0  0  0  0  0  0999 V2000
   11.5727  -18.1449    3.6570 C   0  0  0  0  0  0  0  0  0  0  0  0
   10.3232  -19.0648    3.5916 C   0  0  0  0  0  0  0  0  0  0  0  0
   10.1786  -19.9152    4.7510 O   0  0  0  0  0  0  0  0  0  0  0  0
    9.0111  -18.2503    3.5134 C   0  0  0  0  0  0  0  0  0  0  0  0
    7.9263  -19.2007    3.5975 O   0  0  0  0  0  0  0  0  0  0  0  0
    8.7839  -17.3996    2.2381 C   0  0  0  0  0  0  0  0  0  0  0  0
    9.9393  -16.5780    1.7746 N   0  0  0  0  0  0  0  0  0  0  0  0
   10.9910  -17.4377    1.2131 C   0  0  0  0  0  0  0  0  0  0  0  0
   12.0764  -17.7707    2.2434 C   0  0  0  0  0  0  0  0  0  0  0  0
   12.9739  -16.6529    2.3661 O   0  0  0  0  0  0  0  0  0  0  0  0
   10.0349  -19.3669    5.5382 H   0  0  0  0  0  0  0  0  0  0  0  0
    7.9604  -19.7986    2.8345 H   0  0  0  0  0  0  0  0  0  0  0  0
   10.3186  -16.0565    2.5649 H   0  0  0  0  0  0  0  0  0  0  0  0
   12.4911  -15.8873    2.7149 H   0  0  0  0  0  0  0  0  0  0  0  0
   14.2173  -20.4524    5.1551 C   0  0  0  0  0  0  0  0  0  0  0  0
   13.2214  -19.9460    4.1487 C   0  0  0  0  0  0  0  0  0  0  0  0
   12.8948  -20.5928    3.1564 O   0  0  0  0  0  0  0  0  0  0  0  0
   12.7091  -18.6998    4.4223 N   0  0  0  0  0  0  0  0  0  0  0  0
   13.1087  -18.1641    5.1452 H   0  0  0  0  0  0  0  0  0  0  0  0
    7.5975  -16.4304    2.4844 C   0  0  0  0  0  0  0  0  0  0  0  0
    7.4623  -16.1554    3.8806 O   0  0  0  0  0  0  0  0  0  0  0  0
    7.2927  -16.9825    4.3581 H   0  0  0  0  0  0  0  0  0  0  0  0
 15 16  1  0
 16 17  2  0
 16 18  1  0
  1 18  1  0
  1  2  1  0
  2  3  1  0
  2  4  1  0
  4  5  1  0
  4  6  1  0
  6 20  1  0
 20 21  1  0
  6  7  1  0
  7  8  1  0
  8  9  1  0
  9 10  1  0
  9  1  1  0
 18 19  1  0
  3 11  1  0
  5 12  1  0
 21 22  1  0
  7 13  1  0
 10 14  1  0
M  END
> <minimizedAffinity>
-4.28693

> <CNNscore>
0.2824830711

> <CNNaffinity>
2.5666987896

> <CNN_VS>
0.7250489593

> <CNNaffinity_variance>
1.0477331877

$$$$



 22 22  0  0  0  0  0  0  0  0999 V2000
    7.6035  -16.4854   -0.8536 C   0  0  0  0  0  0  0  0  0  0  0  0
    6.7369  -15.4904   -0.0348 C   0  0  0  0  0  0  0  0  0  0  0  0
    5.6867  -14.8735   -0.8125 O   0  0  0  0  0  0  0  0  0  0  0  0
    6.0194  -16.1866    1.1450 C   0  0  0  0  0  0  0  0  0  0  0  0
    5.1458  -15.2015    1.7398 O   0  0  0  0  0  0  0  0  0  0  0  0
    6.9123  -16.7569    2.2760 C   0  0  0  0  0  0  0  0  0  0  0  0
    8.1024  -17.5469    1.8466 N   0  0  0  0  0  0  0  0  0  0  0  0
    9.1225  -16.6655    1.2610 C   0  0  0  0  0  0  0  0  0  0  0  0
    9.0297  -16.6105   -0.2684 C   0  0  0  0  0  0  0  0  0  0  0  0
    9.6432  -17.7873   -0.8240 O   0  0  0  0  0  0  0  0  0  0  0  0
    5.0611  -15.5534   -1.1079 H   0  0  0  0  0  0  0  0  0  0  0  0
    5.6762  -14.4704    2.0935 H   0  0  0  0  0  0  0  0  0  0  0  0
    7.8149  -18.2356    1.1513 H   0  0  0  0  0  0  0  0  0  0  0  0
    9.1455  -18.5726   -0.5477 H   0  0  0  0  0  0  0  0  0  0  0  0
    7.5810  -16.6408   -4.6666 C   0  0  0  0  0  0  0  0  0  0  0  0
    7.1847  -16.9853   -3.2575 C   0  0  0  0  0  0  0  0  0  0  0  0
    6.4371  -17.9230   -2.9900 O   0  0  0  0  0  0  0  0  0  0  0  0
    7.7192  -16.1652   -2.2920 N   0  0  0  0  0  0  0  0  0  0  0  0
    8.1903  -15.3451   -2.5652 H   0  0  0  0  0  0  0  0  0  0  0  0
    6.0508  -17.6756    3.1824 C   0  0  0  0  0  0  0  0  0  0  0  0
    6.7579  -18.8809    3.4832 O   0  0  0  0  0  0  0  0  0  0  0  0
    6.9560  -19.3536    2.6597 H   0  0  0  0  0  0  0  0  0  0  0  0
 15 16  1  0
 16 17  2  0
 16 18  1  0
  1 18  1  0
  1  2  1  0
  2  3  1  0
  2  4  1  0
  4  5  1  0
  4  6  1  0
  6 20  1  0
 20 21  1  0
  6  7  1  0
  7  8  1  0
  8  9  1  0
  9 10  1  0
  9  1  1  0
 18 19  1  0
  3 11  1  0
  5 12  1  0
 21 22  1  0
  7 13  1  0
 10 14  1  0
M  END
> <minimizedAffinity>
-4.39868

> <CNNscore>
0.2695467472

> <CNNaffinity>
3.2258460522

> <CNN_VS>
0.8695163131

> <CNNaffinity_variance>
0.3852145374

$$$$



 22 22  0  0  0  0  0  0  0  0999 V2000
   15.0646  -16.0892   -2.1051 C   0  0  0  0  0  0  0  0  0  0  0  0
   15.6516  -14.7306   -2.5756 C   0  0  0  0  0  0  0  0  0  0  0  0
   15.0820  -14.2619   -3.8183 O   0  0  0  0  0  0  0  0  0  0  0  0
   15.3872  -13.6027   -1.5513 C   0  0  0  0  0  0  0  0  0  0  0  0
   15.8508  -12.3752   -2.1559 O   0  0  0  0  0  0  0  0  0  0  0  0
   16.0780  -13.7283   -0.1698 C   0  0  0  0  0  0  0  0  0  0  0  0
   16.0027  -15.0639    0.4901 N   0  0  0  0  0  0  0  0  0  0  0  0
   16.8575  -16.0336   -0.2094 C   0  0  0  0  0  0  0  0  0  0  0  0
   16.0712  -16.8686   -1.2268 C   0  0  0  0  0  0  0  0  0  0  0  0
   15.3560  -17.9086   -0.5363 O   0  0  0  0  0  0  0  0  0  0  0  0
   14.1359  -14.0873   -3.6948 H   0  0  0  0  0  0  0  0  0  0  0  0
   16.8071  -12.4310   -2.3086 H   0  0  0  0  0  0  0  0  0  0  0  0
   15.0375  -15.3931    0.4721 H   0  0  0  0  0  0  0  0  0  0  0  0
   14.6996  -17.5107    0.0568 H   0  0  0  0  0  0  0  0  0  0  0  0
   13.0048  -18.3281   -4.4090 C   0  0  0  0  0  0  0  0  0  0  0  0
   13.2821  -17.2347   -3.4146 C   0  0  0  0  0  0  0  0  0  0  0  0
   12.3874  -16.6140   -2.8454 O   0  0  0  0  0  0  0  0  0  0  0  0
   14.6154  -16.9793   -3.1963 N   0  0  0  0  0  0  0  0  0  0  0  0
   15.2870  -17.3993   -3.7809 H   0  0  0  0  0  0  0  0  0  0  0  0
   15.4486  -12.6964    0.8032 C   0  0  0  0  0  0  0  0  0  0  0  0
   15.8468  -11.3706    0.4470 O   0  0  0  0  0  0  0  0  0  0  0  0
   16.8127  -11.2982    0.4988 H   0  0  0  0  0  0  0  0  0  0  0  0
 15 16  1  0
 16 17  2  0
 16 18  1  0
  1 18  1  0
  1  2  1  0
  2  3  1  0
  2  4  1  0
  4  5  1  0
  4  6  1  0
  6 20  1  0
 20 21  1  0
  6  7  1  0
  7  8  1  0
  8  9  1  0
  9 10  1  0
  9  1  1  0
 18 19  1  0
  3 11  1  0
  5 12  1  0
 21 22  1  0
  7 13  1  0
 10 14  1  0
M  END
> <minimizedAffinity>
-4.17607

> <CNNscore>
0.2649924457

> <CNNaffinity>
2.6686794758

> <CNN_VS>
0.7071799040

> <CNNaffinity_variance>
0.6143283248

$$$$



 22 22  0  0  0  0  0  0  0  0999 V2000
    6.1698  -16.3547    2.0550 C   0  0  0  0  0  0  0  0  0  0  0  0
    6.7910  -15.5465    0.8834 C   0  0  0  0  0  0  0  0  0  0  0  0
    6.8971  -16.3060   -0.3415 O   0  0  0  0  0  0  0  0  0  0  0  0
    5.9411  -14.3054    0.5248 C   0  0  0  0  0  0  0  0  0  0  0  0
    6.5370  -13.7202   -0.6541 O   0  0  0  0  0  0  0  0  0  0  0  0
    5.8371  -13.1887    1.5943 C   0  0  0  0  0  0  0  0  0  0  0  0
    5.5546  -13.6319    2.9902 N   0  0  0  0  0  0  0  0  0  0  0  0
    6.7293  -14.3018    3.5662 C   0  0  0  0  0  0  0  0  0  0  0  0
    6.6512  -15.8266    3.4266 C   0  0  0  0  0  0  0  0  0  0  0  0
    5.7795  -16.3526    4.4432 O   0  0  0  0  0  0  0  0  0  0  0  0
    6.0095  -16.5418   -0.6536 H   0  0  0  0  0  0  0  0  0  0  0  0
    7.4376  -13.4244   -0.4483 H   0  0  0  0  0  0  0  0  0  0  0  0
    4.7679  -14.2811    2.9834 H   0  0  0  0  0  0  0  0  0  0  0  0
    4.8799  -16.0185    4.3024 H   0  0  0  0  0  0  0  0  0  0  0  0
    5.8610  -20.1222    1.5319 C   0  0  0  0  0  0  0  0  0  0  0  0
    5.6018  -18.6593    1.2998 C   0  0  0  0  0  0  0  0  0  0  0  0
    4.7285  -18.2540    0.5364 O   0  0  0  0  0  0  0  0  0  0  0  0
    6.4225  -17.8101    2.0040 N   0  0  0  0  0  0  0  0  0  0  0  0
    7.1971  -18.1804    2.4858 H   0  0  0  0  0  0  0  0  0  0  0  0
    4.7099  -12.2038    1.1855 C   0  0  0  0  0  0  0  0  0  0  0  0
    4.9220  -10.9268    1.7918 O   0  0  0  0  0  0  0  0  0  0  0  0
    4.9168  -11.0224    2.7571 H   0  0  0  0  0  0  0  0  0  0  0  0
 15 16  1  0
 16 17  2  0
 16 18  1  0
  1 18  1  0
  1  2  1  0
  2  3  1  0
  2  4  1  0
  4  5  1  0
  4  6  1  0
  6 20  1  0
 20 21  1  0
  6  7  1  0
  7  8  1  0
  8  9  1  0
  9 10  1  0
  9  1  1  0
 18 19  1  0
  3 11  1  0
  5 12  1  0
 21 22  1  0
  7 13  1  0
 10 14  1  0
M  END
> <minimizedAffinity>
-4.76147

> <CNNscore>
0.2559252381

> <CNNaffinity>
3.0414752960

> <CNN_VS>
0.7783902884

> <CNNaffinity_variance>
0.5535433292

$$$$



 22 22  0  0  0  0  0  0  0  0999 V2000
    8.0133  -16.6081   -0.3764 C   0  0  0  0  0  0  0  0  0  0  0  0
    9.0565  -16.2621   -1.4735 C   0  0  0  0  0  0  0  0  0  0  0  0
   10.3762  -16.7783   -1.1900 O   0  0  0  0  0  0  0  0  0  0  0  0
    8.6685  -16.8583   -2.8465 C   0  0  0  0  0  0  0  0  0  0  0  0
    9.7705  -16.5914   -3.7419 O   0  0  0  0  0  0  0  0  0  0  0  0
    7.3837  -16.3088   -3.5165 C   0  0  0  0  0  0  0  0  0  0  0  0
    6.1822  -16.1817   -2.6418 N   0  0  0  0  0  0  0  0  0  0  0  0
    6.3542  -15.0778   -1.6866 C   0  0  0  0  0  0  0  0  0  0  0  0
    6.8729  -15.5644   -0.3285 C   0  0  0  0  0  0  0  0  0  0  0  0
    5.7816  -16.1236    0.4242 O   0  0  0  0  0  0  0  0  0  0  0  0
   10.3487  -17.7478   -1.1790 H   0  0  0  0  0  0  0  0  0  0  0  0
    9.8786  -15.6330   -3.8448 H   0  0  0  0  0  0  0  0  0  0  0  0
    6.0479  -17.0524   -2.1277 H   0  0  0  0  0  0  0  0  0  0  0  0
    5.4400  -16.9068   -0.0349 H   0  0  0  0  0  0  0  0  0  0  0  0
    8.9436  -17.8707    3.1026 C   0  0  0  0  0  0  0  0  0  0  0  0
    8.5456  -17.9482    1.6545 C   0  0  0  0  0  0  0  0  0  0  0  0
    8.2272  -19.0028    1.1104 O   0  0  0  0  0  0  0  0  0  0  0  0
    8.5716  -16.7476    0.9851 N   0  0  0  0  0  0  0  0  0  0  0  0
    8.9717  -15.9618    1.4231 H   0  0  0  0  0  0  0  0  0  0  0  0
    6.9975  -17.2352   -4.6998 C   0  0  0  0  0  0  0  0  0  0  0  0
    5.8360  -16.7335   -5.3649 O   0  0  0  0  0  0  0  0  0  0  0  0
    5.0945  -16.7010   -4.7404 H   0  0  0  0  0  0  0  0  0  0  0  0
 15 16  1  0
 16 17  2  0
 16 18  1  0
  1 18  1  0
  1  2  1  0
  2  3  1  0
  2  4  1  0
  4  5  1  0
  4  6  1  0
  6 20  1  0
 20 21  1  0
  6  7  1  0
  7  8  1  0
  8  9  1  0
  9 10  1  0
  9  1  1  0
 18 19  1  0
  3 11  1  0
  5 12  1  0
 21 22  1  0
  7 13  1  0
 10 14  1  0
M  END
> <minimizedAffinity>
-4.59056

> <CNNscore>
0.2461950183

> <CNNaffinity>
2.6011817455

> <CNN_VS>
0.6403979659

> <CNNaffinity_variance>
1.2713378668

$$$$
