


 32 35  0  0  0  0  0  0  0  0999 V2000
   23.4780    6.6821   16.1378 C   0  0  0  0  0  0  0  0  0  0  0  0
   21.2453    4.4344   10.9916 C   0  0  0  0  0  0  0  0  0  0  0  0
   22.5912    4.5526   10.5623 C   0  0  0  0  0  0  0  0  0  0  0  0
   23.5853    5.0322   11.4240 C   0  0  0  0  0  0  0  0  0  0  0  0
   23.1959    5.3782   12.7023 C   0  0  0  0  0  0  0  0  0  0  0  0
   21.8838    5.2637   13.1247 C   0  0  0  0  0  0  0  0  0  0  0  0
   20.8803    4.7976   12.2968 C   0  0  0  0  0  0  0  0  0  0  0  0
   21.8279    5.7250   14.5101 C   0  0  0  0  0  0  0  0  0  0  0  0
   20.8051    5.8068   15.1617 O   0  0  0  0  0  0  0  0  0  0  0  0
   23.1086    6.0454   14.8700 N   0  0  0  0  0  0  0  0  0  0  0  0
   23.9740    5.9099   13.8195 C   0  0  0  0  0  0  0  0  0  0  0  0
   25.1604    6.1676   13.7634 O   0  0  0  0  0  0  0  0  0  0  0  0
   20.1051    4.3122    8.8769 O   0  0  0  0  0  0  0  0  0  0  0  0
   20.2494    3.9205   10.0192 C   0  0  0  0  0  0  0  0  0  0  0  0
   19.4869    2.9402   10.5306 O   0  0  0  0  0  0  0  0  0  0  0  0
   19.6184    2.6568   11.4140 H   0  0  0  0  0  0  0  0  0  0  0  0
   24.6270    5.9120   16.7996 C   0  0  0  0  0  0  0  0  0  0  0  0
   25.6856    6.3840   17.1868 O   0  0  0  0  0  0  0  0  0  0  0  0
   24.3893    4.5959   16.9980 O   0  0  0  0  0  0  0  0  0  0  0  0
   23.5831    4.2165   16.7079 H   0  0  0  0  0  0  0  0  0  0  0  0
   23.8381    8.1682   15.9653 C   0  0  0  0  0  0  0  0  0  0  0  0
   22.6344    9.0883   16.0932 C   0  0  0  0  0  0  0  0  0  0  0  0
   22.2824    9.5319   17.3796 C   0  0  0  0  0  0  0  0  0  0  0  0
   21.1873   10.3660   17.5714 C   0  0  0  0  0  0  0  0  0  0  0  0
   20.4244   10.7701   16.4805 C   0  0  0  0  0  0  0  0  0  0  0  0
   20.7426   10.3456   15.1831 C   0  0  0  0  0  0  0  0  0  0  0  0
   19.9535   10.7641   14.0990 C   0  0  0  0  0  0  0  0  0  0  0  0
   20.2518   10.3501   12.8041 C   0  0  0  0  0  0  0  0  0  0  0  0
   19.1756   10.9246   11.3604 Br  0  0  0  0  0  0  0  0  0  0  0  0
   21.3360    9.5172   12.5677 C   0  0  0  0  0  0  0  0  0  0  0  0
   22.1295    9.0958   13.6383 C   0  0  0  0  0  0  0  0  0  0  0  0
   21.8582    9.4935   14.9691 C   0  0  0  0  0  0  0  0  0  0  0  0
 13 14  2  0
 14 15  1  0
 14  2  1  0
  2  3  2  0
  3  4  1  0
  4  5  2  0
  5  6  1  0
  6  7  2  0
  6  8  1  0
  8  9  2  0
  8 10  1  0
 10  1  1  0
  1 21  1  0
 21 22  1  0
 22 23  2  0
 23 24  1  0
 24 25  2  0
 25 26  1  0
 26 27  2  0
 27 28  1  0
 28 29  1  0
 28 30  2  0
 30 31  1  0
 31 32  2  0
  1 17  1  0
 17 18  2  0
 17 19  1  0
 10 11  1  0
 11 12  2  0
  7  2  1  0
 32 22  1  0
 11  5  1  0
 32 26  1  0
 15 16  1  0
 19 20  1  0
M  END
> <minimizedAffinity>
-7.77998

> <CNNscore>
0.8864463568

> <CNNaffinity>
5.0198092461

> <CNN_VS>
4.4497914314

> <CNNaffinity_variance>
0.1077063456

$$$$



 32 35  0  0  0  0  0  0  0  0999 V2000
   23.9587    6.7852   16.7071 C   0  0  0  0  0  0  0  0  0  0  0  0
   21.5847    4.6044   11.5954 C   0  0  0  0  0  0  0  0  0  0  0  0
   22.9442    4.5425   11.1981 C   0  0  0  0  0  0  0  0  0  0  0  0
   23.9697    4.9358   12.0666 C   0  0  0  0  0  0  0  0  0  0  0  0
   23.5969    5.3799   13.3193 C   0  0  0  0  0  0  0  0  0  0  0  0
   22.2716    5.4411   13.7105 C   0  0  0  0  0  0  0  0  0  0  0  0
   21.2377    5.0637   12.8750 C   0  0  0  0  0  0  0  0  0  0  0  0
   22.2413    5.9641   15.0746 C   0  0  0  0  0  0  0  0  0  0  0  0
   21.2219    6.1953   15.6948 O   0  0  0  0  0  0  0  0  0  0  0  0
   23.5432    6.1441   15.4558 N   0  0  0  0  0  0  0  0  0  0  0  0
   24.4087    5.8616   14.4352 C   0  0  0  0  0  0  0  0  0  0  0  0
   25.6185    5.9729   14.4009 O   0  0  0  0  0  0  0  0  0  0  0  0
   19.4284    3.8054   10.8889 O   0  0  0  0  0  0  0  0  0  0  0  0
   20.5558    4.1725   10.6177 C   0  0  0  0  0  0  0  0  0  0  0  0
   20.9946    4.2252    9.3493 O   0  0  0  0  0  0  0  0  0  0  0  0
   21.8679    4.5118    9.1672 H   0  0  0  0  0  0  0  0  0  0  0  0
   24.9980    5.9161   17.4252 C   0  0  0  0  0  0  0  0  0  0  0  0
   26.1025    6.2749   17.8056 O   0  0  0  0  0  0  0  0  0  0  0  0
   24.5988    4.6507   17.6852 O   0  0  0  0  0  0  0  0  0  0  0  0
   23.7553    4.3579   17.4012 H   0  0  0  0  0  0  0  0  0  0  0  0
   24.4913    8.2120   16.4868 C   0  0  0  0  0  0  0  0  0  0  0  0
   23.5967    9.0454   15.5829 C   0  0  0  0  0  0  0  0  0  0  0  0
   23.9535    9.1540   14.2277 C   0  0  0  0  0  0  0  0  0  0  0  0
   23.1873    9.9083   13.3470 C   0  0  0  0  0  0  0  0  0  0  0  0
   22.0519   10.5681   13.8060 C   0  0  0  0  0  0  0  0  0  0  0  0
   21.6664   10.4860   15.1512 C   0  0  0  0  0  0  0  0  0  0  0  0
   20.5182   11.1654   15.5904 C   0  0  0  0  0  0  0  0  0  0  0  0
   20.1217   11.0985   16.9229 C   0  0  0  0  0  0  0  0  0  0  0  0
   18.5738   12.0217   17.4923 Br  0  0  0  0  0  0  0  0  0  0  0  0
   20.8576   10.3569   17.8359 C   0  0  0  0  0  0  0  0  0  0  0  0
   22.0009    9.6750   17.4100 C   0  0  0  0  0  0  0  0  0  0  0  0
   22.4374    9.7195   16.0646 C   0  0  0  0  0  0  0  0  0  0  0  0
 13 14  2  0
 14 15  1  0
 14  2  1  0
  2  3  2  0
  3  4  1  0
  4  5  2  0
  5  6  1  0
  6  7  2  0
  6  8  1  0
  8  9  2  0
  8 10  1  0
 10  1  1  0
  1 21  1  0
 21 22  1  0
 22 23  2  0
 23 24  1  0
 24 25  2  0
 25 26  1  0
 26 27  2  0
 27 28  1  0
 28 29  1  0
 28 30  2  0
 30 31  1  0
 31 32  2  0
  1 17  1  0
 17 18  2  0
 17 19  1  0
 10 11  1  0
 11 12  2  0
  7  2  1  0
 32 22  1  0
 11  5  1  0
 32 26  1  0
 15 16  1  0
 19 20  1  0
M  END
> <minimizedAffinity>
-8.40245

> <CNNscore>
0.8778834343

> <CNNaffinity>
4.7872414589

> <CNN_VS>
4.2026400566

> <CNNaffinity_variance>
0.2858722210

$$$$



 32 35  0  0  0  0  0  0  0  0999 V2000
   23.4074    6.5606   16.1848 C   0  0  0  0  0  0  0  0  0  0  0  0
   21.3193    4.5009   10.9009 C   0  0  0  0  0  0  0  0  0  0  0  0
   22.6600    4.7105   10.4903 C   0  0  0  0  0  0  0  0  0  0  0  0
   23.6239    5.1892   11.3862 C   0  0  0  0  0  0  0  0  0  0  0  0
   23.2104    5.4420   12.6787 C   0  0  0  0  0  0  0  0  0  0  0  0
   21.9034    5.2382   13.0829 C   0  0  0  0  0  0  0  0  0  0  0  0
   20.9293    4.7706   12.2215 C   0  0  0  0  0  0  0  0  0  0  0  0
   21.8166    5.6166   14.4916 C   0  0  0  0  0  0  0  0  0  0  0  0
   20.7874    5.6100   15.1382 O   0  0  0  0  0  0  0  0  0  0  0  0
   23.0776    5.9796   14.8798 N   0  0  0  0  0  0  0  0  0  0  0  0
   23.9545    5.9474   13.8307 C   0  0  0  0  0  0  0  0  0  0  0  0
   25.1268    6.2668   13.7993 O   0  0  0  0  0  0  0  0  0  0  0  0
   20.3146    4.3229    8.7225 O   0  0  0  0  0  0  0  0  0  0  0  0
   20.3561    3.9942    9.8927 C   0  0  0  0  0  0  0  0  0  0  0  0
   19.4952    3.0996   10.4052 O   0  0  0  0  0  0  0  0  0  0  0  0
   19.5485    2.8634   11.3103 H   0  0  0  0  0  0  0  0  0  0  0  0
   24.5946    5.8170   16.8084 C   0  0  0  0  0  0  0  0  0  0  0  0
   25.6346    6.3200   17.2066 O   0  0  0  0  0  0  0  0  0  0  0  0
   24.4164    4.4850   16.9569 O   0  0  0  0  0  0  0  0  0  0  0  0
   23.6253    4.0819   16.6576 H   0  0  0  0  0  0  0  0  0  0  0  0
   23.6863    8.0716   16.1008 C   0  0  0  0  0  0  0  0  0  0  0  0
   22.4240    8.9135   16.1989 C   0  0  0  0  0  0  0  0  0  0  0  0
   22.3238   10.0434   15.3689 C   0  0  0  0  0  0  0  0  0  0  0  0
   21.2028   10.8639   15.4137 C   0  0  0  0  0  0  0  0  0  0  0  0
   20.1631   10.5696   16.2898 C   0  0  0  0  0  0  0  0  0  0  0  0
   20.2286    9.4534   17.1352 C   0  0  0  0  0  0  0  0  0  0  0  0
   19.1674    9.1808   18.0141 C   0  0  0  0  0  0  0  0  0  0  0  0
   19.2160    8.0793   18.8634 C   0  0  0  0  0  0  0  0  0  0  0  0
   17.7771    7.7322   20.0389 Br  0  0  0  0  0  0  0  0  0  0  0  0
   20.3163    7.2341   18.8514 C   0  0  0  0  0  0  0  0  0  0  0  0
   21.3774    7.4941   17.9798 C   0  0  0  0  0  0  0  0  0  0  0  0
   21.3663    8.6044   17.1023 C   0  0  0  0  0  0  0  0  0  0  0  0
 13 14  2  0
 14 15  1  0
 14  2  1  0
  2  3  2  0
  3  4  1  0
  4  5  2  0
  5  6  1  0
  6  7  2  0
  6  8  1  0
  8  9  2  0
  8 10  1  0
 10  1  1  0
  1 21  1  0
 21 22  1  0
 22 23  2  0
 23 24  1  0
 24 25  2  0
 25 26  1  0
 26 27  2  0
 27 28  1  0
 28 29  1  0
 28 30  2  0
 30 31  1  0
 31 32  2  0
  1 17  1  0
 17 18  2  0
 17 19  1  0
 10 11  1  0
 11 12  2  0
  7  2  1  0
 32 22  1  0
 11  5  1  0
 32 26  1  0
 15 16  1  0
 19 20  1  0
M  END
> <minimizedAffinity>
-8.08183

> <CNNscore>
0.8465157151

> <CNNaffinity>
5.0202927589

> <CNN_VS>
4.2497568130

> <CNNaffinity_variance>
0.0902486667

$$$$



 32 35  0  0  0  0  0  0  0  0999 V2000
   23.1315    6.2634   16.4984 C   0  0  0  0  0  0  0  0  0  0  0  0
   21.7022    4.7729   10.8190 C   0  0  0  0  0  0  0  0  0  0  0  0
   23.0834    5.0039   10.5977 C   0  0  0  0  0  0  0  0  0  0  0  0
   23.9312    5.3770   11.6478 C   0  0  0  0  0  0  0  0  0  0  0  0
   23.3631    5.5047   12.8994 C   0  0  0  0  0  0  0  0  0  0  0  0
   22.0162    5.2796   13.1190 C   0  0  0  0  0  0  0  0  0  0  0  0
   21.1540    4.9142   12.1028 C   0  0  0  0  0  0  0  0  0  0  0  0
   21.7583    5.5160   14.5378 C   0  0  0  0  0  0  0  0  0  0  0  0
   20.6578    5.4590   15.0505 O   0  0  0  0  0  0  0  0  0  0  0  0
   22.9629    5.8207   15.1111 N   0  0  0  0  0  0  0  0  0  0  0  0
   23.9615    5.8817   14.1785 C   0  0  0  0  0  0  0  0  0  0  0  0
   25.1293    6.1863   14.3222 O   0  0  0  0  0  0  0  0  0  0  0  0
   19.7306    3.9575    9.7077 O   0  0  0  0  0  0  0  0  0  0  0  0
   20.8687    4.3832    9.6551 C   0  0  0  0  0  0  0  0  0  0  0  0
   21.5064    4.5494    8.4847 O   0  0  0  0  0  0  0  0  0  0  0  0
   22.3833    4.8792    8.4717 H   0  0  0  0  0  0  0  0  0  0  0  0
   24.4192    5.6746   17.0872 C   0  0  0  0  0  0  0  0  0  0  0  0
   24.5905    4.5167   17.4382 O   0  0  0  0  0  0  0  0  0  0  0  0
   25.4553    6.5396   17.1667 O   0  0  0  0  0  0  0  0  0  0  0  0
   25.3425    7.4313   16.9020 H   0  0  0  0  0  0  0  0  0  0  0  0
   23.1157    7.7964   16.6314 C   0  0  0  0  0  0  0  0  0  0  0  0
   21.8205    8.3262   17.2260 C   0  0  0  0  0  0  0  0  0  0  0  0
   21.0273    7.4344   17.9683 C   0  0  0  0  0  0  0  0  0  0  0  0
   19.8257    7.8480   18.5313 C   0  0  0  0  0  0  0  0  0  0  0  0
   19.3959    9.1601   18.3610 C   0  0  0  0  0  0  0  0  0  0  0  0
   20.1582   10.0772   17.6244 C   0  0  0  0  0  0  0  0  0  0  0  0
   19.6997   11.3951   17.4632 C   0  0  0  0  0  0  0  0  0  0  0  0
   20.4412   12.3188   16.7324 C   0  0  0  0  0  0  0  0  0  0  0  0
   19.8044   14.0866   16.5274 Br  0  0  0  0  0  0  0  0  0  0  0  0
   21.6463   11.9481   16.1533 C   0  0  0  0  0  0  0  0  0  0  0  0
   22.1136   10.6401   16.3085 C   0  0  0  0  0  0  0  0  0  0  0  0
   21.3884    9.6716   17.0426 C   0  0  0  0  0  0  0  0  0  0  0  0
 13 14  2  0
 14 15  1  0
 14  2  1  0
  2  3  2  0
  3  4  1  0
  4  5  2  0
  5  6  1  0
  6  7  2  0
  6  8  1  0
  8  9  2  0
  8 10  1  0
 10  1  1  0
  1 21  1  0
 21 22  1  0
 22 23  2  0
 23 24  1  0
 24 25  2  0
 25 26  1  0
 26 27  2  0
 27 28  1  0
 28 29  1  0
 28 30  2  0
 30 31  1  0
 31 32  2  0
  1 17  1  0
 17 18  2  0
 17 19  1  0
 10 11  1  0
 11 12  2  0
  7  2  1  0
 32 22  1  0
 11  5  1  0
 32 26  1  0
 15 16  1  0
 19 20  1  0
M  END
> <minimizedAffinity>
-7.51935

> <CNNscore>
0.7171574831

> <CNNaffinity>
4.7659955025

> <CNN_VS>
3.4179692268

> <CNNaffinity_variance>
0.1415604055

$$$$



 32 35  0  0  0  0  0  0  0  0999 V2000
   23.6111    5.6824   13.8409 C   0  0  0  0  0  0  0  0  0  0  0  0
   19.7455    4.4027    9.3754 C   0  0  0  0  0  0  0  0  0  0  0  0
   20.8828    4.6360    8.5617 C   0  0  0  0  0  0  0  0  0  0  0  0
   22.1201    4.9677    9.1270 C   0  0  0  0  0  0  0  0  0  0  0  0
   22.1801    5.0526   10.5035 C   0  0  0  0  0  0  0  0  0  0  0  0
   21.0727    4.8251   11.3004 C   0  0  0  0  0  0  0  0  0  0  0  0
   19.8379    4.5000   10.7721 C   0  0  0  0  0  0  0  0  0  0  0  0
   21.4869    5.0114   12.6892 C   0  0  0  0  0  0  0  0  0  0  0  0
   20.7348    4.9404   13.6415 O   0  0  0  0  0  0  0  0  0  0  0  0
   22.8263    5.2905   12.6662 N   0  0  0  0  0  0  0  0  0  0  0  0
   23.2982    5.3810   11.3856 C   0  0  0  0  0  0  0  0  0  0  0  0
   24.4111    5.6755   10.9961 O   0  0  0  0  0  0  0  0  0  0  0  0
   18.3260    3.8617    7.5100 O   0  0  0  0  0  0  0  0  0  0  0  0
   18.4692    4.0584    8.7017 C   0  0  0  0  0  0  0  0  0  0  0  0
   17.4385    3.9773    9.5590 O   0  0  0  0  0  0  0  0  0  0  0  0
   17.5756    4.1335   10.4726 H   0  0  0  0  0  0  0  0  0  0  0  0
   24.8765    4.8221   13.9407 C   0  0  0  0  0  0  0  0  0  0  0  0
   24.9223    3.6320   14.2142 O   0  0  0  0  0  0  0  0  0  0  0  0
   26.0274    5.4676   13.6461 O   0  0  0  0  0  0  0  0  0  0  0  0
   26.0117    6.3802   13.4340 H   0  0  0  0  0  0  0  0  0  0  0  0
   23.9621    7.1806   13.8390 C   0  0  0  0  0  0  0  0  0  0  0  0
   23.5307    7.8918   15.1117 C   0  0  0  0  0  0  0  0  0  0  0  0
   22.4304    8.7630   15.0347 C   0  0  0  0  0  0  0  0  0  0  0  0
   21.9883    9.4541   16.1566 C   0  0  0  0  0  0  0  0  0  0  0  0
   22.6394    9.2873   17.3746 C   0  0  0  0  0  0  0  0  0  0  0  0
   23.7422    8.4298   17.4895 C   0  0  0  0  0  0  0  0  0  0  0  0
   24.3850    8.2824   18.7297 C   0  0  0  0  0  0  0  0  0  0  0  0
   25.4836    7.4382   18.8623 C   0  0  0  0  0  0  0  0  0  0  0  0
   26.3340    7.2560   20.5405 Br  0  0  0  0  0  0  0  0  0  0  0  0
   25.9580    6.7294   17.7680 C   0  0  0  0  0  0  0  0  0  0  0  0
   25.3254    6.8666   16.5293 C   0  0  0  0  0  0  0  0  0  0  0  0
   24.2070    7.7157   16.3535 C   0  0  0  0  0  0  0  0  0  0  0  0
 13 14  2  0
 14 15  1  0
 14  2  1  0
  2  3  2  0
  3  4  1  0
  4  5  2  0
  5  6  1  0
  6  7  2  0
  6  8  1  0
  8  9  2  0
  8 10  1  0
 10  1  1  0
  1 21  1  0
 21 22  1  0
 22 23  2  0
 23 24  1  0
 24 25  2  0
 25 26  1  0
 26 27  2  0
 27 28  1  0
 28 29  1  0
 28 30  2  0
 30 31  1  0
 31 32  2  0
  1 17  1  0
 17 18  2  0
 17 19  1  0
 10 11  1  0
 11 12  2  0
  7  2  1  0
 32 22  1  0
 11  5  1  0
 32 26  1  0
 15 16  1  0
 19 20  1  0
M  END
> <minimizedAffinity>
-8.05516

> <CNNscore>
0.6359619498

> <CNNaffinity>
5.3027238846

> <CNN_VS>
3.3723306656

> <CNNaffinity_variance>
0.1856338233

$$$$



 32 35  0  0  0  0  0  0  0  0999 V2000
   23.2117    5.9316   14.0919 C   0  0  0  0  0  0  0  0  0  0  0  0
   20.2356    4.6817    8.9830 C   0  0  0  0  0  0  0  0  0  0  0  0
   21.4862    4.9852    8.3880 C   0  0  0  0  0  0  0  0  0  0  0  0
   22.5919    5.3395    9.1706 C   0  0  0  0  0  0  0  0  0  0  0  0
   22.4086    5.3755   10.5383 C   0  0  0  0  0  0  0  0  0  0  0  0
   21.1901    5.0795   11.1222 C   0  0  0  0  0  0  0  0  0  0  0  0
   20.0802    4.7305   10.3766 C   0  0  0  0  0  0  0  0  0  0  0  0
   21.3491    5.2288   12.5670 C   0  0  0  0  0  0  0  0  0  0  0  0
   20.4469    5.0959   13.3706 O   0  0  0  0  0  0  0  0  0  0  0  0
   22.6595    5.5559   12.7869 N   0  0  0  0  0  0  0  0  0  0  0  0
   23.3422    5.7104   11.6118 C   0  0  0  0  0  0  0  0  0  0  0  0
   24.4927    6.0585   11.4319 O   0  0  0  0  0  0  0  0  0  0  0  0
   18.4642    3.2889    8.1408 O   0  0  0  0  0  0  0  0  0  0  0  0
   19.1109    4.3175    8.0865 C   0  0  0  0  0  0  0  0  0  0  0  0
   18.8549    5.2642    7.1688 O   0  0  0  0  0  0  0  0  0  0  0  0
   19.3682    6.0479    7.1483 H   0  0  0  0  0  0  0  0  0  0  0  0
   24.6856    5.5179   14.1799 C   0  0  0  0  0  0  0  0  0  0  0  0
   25.6303    6.2541   14.4224 O   0  0  0  0  0  0  0  0  0  0  0  0
   24.9159    4.1961   14.0128 O   0  0  0  0  0  0  0  0  0  0  0  0
   24.2038    3.6163   13.8263 H   0  0  0  0  0  0  0  0  0  0  0  0
   23.0417    7.4314   14.3914 C   0  0  0  0  0  0  0  0  0  0  0  0
   22.2060    7.6965   15.6337 C   0  0  0  0  0  0  0  0  0  0  0  0
   21.7927    6.5890   16.3940 C   0  0  0  0  0  0  0  0  0  0  0  0
   21.0178    6.7570   17.5355 C   0  0  0  0  0  0  0  0  0  0  0  0
   20.6418    8.0351   17.9360 C   0  0  0  0  0  0  0  0  0  0  0  0
   21.0321    9.1634   17.2015 C   0  0  0  0  0  0  0  0  0  0  0  0
   20.6353   10.4426   17.6246 C   0  0  0  0  0  0  0  0  0  0  0  0
   21.0102   11.5743   16.9063 C   0  0  0  0  0  0  0  0  0  0  0  0
   20.4639   13.2860   17.4932 Br  0  0  0  0  0  0  0  0  0  0  0  0
   21.7834   11.4521   15.7608 C   0  0  0  0  0  0  0  0  0  0  0  0
   22.1858   10.1844   15.3312 C   0  0  0  0  0  0  0  0  0  0  0  0
   21.8240    9.0099   16.0329 C   0  0  0  0  0  0  0  0  0  0  0  0
 13 14  2  0
 14 15  1  0
 14  2  1  0
  2  3  2  0
  3  4  1  0
  4  5  2  0
  5  6  1  0
  6  7  2  0
  6  8  1  0
  8  9  2  0
  8 10  1  0
 10  1  1  0
  1 21  1  0
 21 22  1  0
 22 23  2  0
 23 24  1  0
 24 25  2  0
 25 26  1  0
 26 27  2  0
 27 28  1  0
 28 29  1  0
 28 30  2  0
 30 31  1  0
 31 32  2  0
  1 17  1  0
 17 18  2  0
 17 19  1  0
 10 11  1  0
 11 12  2  0
  7  2  1  0
 32 22  1  0
 11  5  1  0
 32 26  1  0
 15 16  1  0
 19 20  1  0
M  END
> <minimizedAffinity>
-7.53724

> <CNNscore>
0.5923936367

> <CNNaffinity>
5.0970292091

> <CNN_VS>
3.0194475651

> <CNNaffinity_variance>
0.0370699167

$$$$



 32 35  0  0  0  0  0  0  0  0999 V2000
   23.2133    6.2728   13.9961 C   0  0  0  0  0  0  0  0  0  0  0  0
   23.1739    6.8622    7.9818 C   0  0  0  0  0  0  0  0  0  0  0  0
   22.3160    5.7358    8.0535 C   0  0  0  0  0  0  0  0  0  0  0  0
   21.9619    5.1742    9.2863 C   0  0  0  0  0  0  0  0  0  0  0  0
   22.4812    5.7671   10.4196 C   0  0  0  0  0  0  0  0  0  0  0  0
   23.3180    6.8664   10.3534 C   0  0  0  0  0  0  0  0  0  0  0  0
   23.6883    7.4404    9.1521 C   0  0  0  0  0  0  0  0  0  0  0  0
   23.6861    7.2198   11.7227 C   0  0  0  0  0  0  0  0  0  0  0  0
   24.4604    8.1104   12.0134 O   0  0  0  0  0  0  0  0  0  0  0  0
   23.0179    6.3542   12.5454 N   0  0  0  0  0  0  0  0  0  0  0  0
   22.3155    5.4234   11.8306 C   0  0  0  0  0  0  0  0  0  0  0  0
   21.6687    4.4754   12.2306 O   0  0  0  0  0  0  0  0  0  0  0  0
   24.5990    7.3605    6.1089 O   0  0  0  0  0  0  0  0  0  0  0  0
   23.5047    7.3980    6.6384 C   0  0  0  0  0  0  0  0  0  0  0  0
   22.4442    7.9519    6.0280 O   0  0  0  0  0  0  0  0  0  0  0  0
   21.6118    7.9679    6.4579 H   0  0  0  0  0  0  0  0  0  0  0  0
   24.4670    5.4491   14.3140 C   0  0  0  0  0  0  0  0  0  0  0  0
   25.4697    5.3613   13.6211 O   0  0  0  0  0  0  0  0  0  0  0  0
   24.4402    4.8100   15.5052 O   0  0  0  0  0  0  0  0  0  0  0  0
   23.6799    4.8660   16.0500 H   0  0  0  0  0  0  0  0  0  0  0  0
   23.2833    7.6603   14.6577 C   0  0  0  0  0  0  0  0  0  0  0  0
   22.0539    8.5112   14.3814 C   0  0  0  0  0  0  0  0  0  0  0  0
   22.2556    9.8424   13.9778 C   0  0  0  0  0  0  0  0  0  0  0  0
   21.1772   10.6801   13.7187 C   0  0  0  0  0  0  0  0  0  0  0  0
   19.8785   10.2018   13.8598 C   0  0  0  0  0  0  0  0  0  0  0  0
   19.6379    8.8812   14.2635 C   0  0  0  0  0  0  0  0  0  0  0  0
   18.3171    8.4241   14.4029 C   0  0  0  0  0  0  0  0  0  0  0  0
   18.0585    7.1173   14.8061 C   0  0  0  0  0  0  0  0  0  0  0  0
   16.2733    6.5237   14.9883 Br  0  0  0  0  0  0  0  0  0  0  0  0
   19.1055    6.2475   15.0751 C   0  0  0  0  0  0  0  0  0  0  0  0
   20.4240    6.6906   14.9381 C   0  0  0  0  0  0  0  0  0  0  0  0
   20.7280    8.0117   14.5321 C   0  0  0  0  0  0  0  0  0  0  0  0
 13 14  2  0
 14 15  1  0
 14  2  1  0
  2  3  2  0
  3  4  1  0
  4  5  2  0
  5  6  1  0
  6  7  2  0
  6  8  1  0
  8  9  2  0
  8 10  1  0
 10  1  1  0
  1 21  1  0
 21 22  1  0
 22 23  2  0
 23 24  1  0
 24 25  2  0
 25 26  1  0
 26 27  2  0
 27 28  1  0
 28 29  1  0
 28 30  2  0
 30 31  1  0
 31 32  2  0
  1 17  1  0
 17 18  2  0
 17 19  1  0
 10 11  1  0
 11 12  2  0
  7  2  1  0
 32 22  1  0
 11  5  1  0
 32 26  1  0
 15 16  1  0
 19 20  1  0
M  END
> <minimizedAffinity>
-7.44841

> <CNNscore>
0.4878176451

> <CNNaffinity>
4.5196976662

> <CNN_VS>
2.2047882080

> <CNNaffinity_variance>
0.3366001844

$$$$



 32 35  0  0  0  0  0  0  0  0999 V2000
   23.1626    7.7352   15.4025 C   0  0  0  0  0  0  0  0  0  0  0  0
   20.9247    4.0258   11.1890 C   0  0  0  0  0  0  0  0  0  0  0  0
   22.2202    3.4539   11.2564 C   0  0  0  0  0  0  0  0  0  0  0  0
   23.1853    3.9525   12.1399 C   0  0  0  0  0  0  0  0  0  0  0  0
   22.8170    5.0168   12.9381 C   0  0  0  0  0  0  0  0  0  0  0  0
   21.5539    5.5769   12.8754 C   0  0  0  0  0  0  0  0  0  0  0  0
   20.5818    5.1096   12.0116 C   0  0  0  0  0  0  0  0  0  0  0  0
   21.5150    6.6781   13.8352 C   0  0  0  0  0  0  0  0  0  0  0  0
   20.5622    7.4170   13.9884 O   0  0  0  0  0  0  0  0  0  0  0  0
   22.7312    6.6965   14.4621 N   0  0  0  0  0  0  0  0  0  0  0  0
   23.5798    5.7601   13.9390 C   0  0  0  0  0  0  0  0  0  0  0  0
   24.7453    5.5443   14.2077 O   0  0  0  0  0  0  0  0  0  0  0  0
   19.0933    2.6307   10.4915 O   0  0  0  0  0  0  0  0  0  0  0  0
   19.9583    3.4433   10.2257 C   0  0  0  0  0  0  0  0  0  0  0  0
   20.1266    3.9121    8.9784 O   0  0  0  0  0  0  0  0  0  0  0  0
   20.8008    4.5379    8.8001 H   0  0  0  0  0  0  0  0  0  0  0  0
   23.6205    8.9825   14.6370 C   0  0  0  0  0  0  0  0  0  0  0  0
   23.0437   10.0591   14.5972 O   0  0  0  0  0  0  0  0  0  0  0  0
   24.8032    8.8529   13.9948 O   0  0  0  0  0  0  0  0  0  0  0  0
   25.2598    8.0350   14.0143 H   0  0  0  0  0  0  0  0  0  0  0  0
   22.0713    8.0881   16.4283 C   0  0  0  0  0  0  0  0  0  0  0  0
   22.2213    7.3297   17.7376 C   0  0  0  0  0  0  0  0  0  0  0  0
   21.0763    6.7159   18.2742 C   0  0  0  0  0  0  0  0  0  0  0  0
   21.1384    6.0154   19.4730 C   0  0  0  0  0  0  0  0  0  0  0  0
   22.3459    5.9174   20.1567 C   0  0  0  0  0  0  0  0  0  0  0  0
   23.5081    6.5190   19.6545 C   0  0  0  0  0  0  0  0  0  0  0  0
   24.7140    6.4092   20.3665 C   0  0  0  0  0  0  0  0  0  0  0  0
   25.8773    7.0028   19.8854 C   0  0  0  0  0  0  0  0  0  0  0  0
   27.4886    6.8432   20.8606 Br  0  0  0  0  0  0  0  0  0  0  0  0
   25.8600    7.7115   18.6928 C   0  0  0  0  0  0  0  0  0  0  0  0
   24.6665    7.8260   17.9746 C   0  0  0  0  0  0  0  0  0  0  0  0
   23.4627    7.2383   18.4310 C   0  0  0  0  0  0  0  0  0  0  0  0
 13 14  2  0
 14 15  1  0
 14  2  1  0
  2  3  2  0
  3  4  1  0
  4  5  2  0
  5  6  1  0
  6  7  2  0
  6  8  1  0
  8  9  2  0
  8 10  1  0
 10  1  1  0
  1 21  1  0
 21 22  1  0
 22 23  2  0
 23 24  1  0
 24 25  2  0
 25 26  1  0
 26 27  2  0
 27 28  1  0
 28 29  1  0
 28 30  2  0
 30 31  1  0
 31 32  2  0
  1 17  1  0
 17 18  2  0
 17 19  1  0
 10 11  1  0
 11 12  2  0
  7  2  1  0
 32 22  1  0
 11  5  1  0
 32 26  1  0
 15 16  1  0
 19 20  1  0
M  END
> <minimizedAffinity>
-8.37999

> <CNNscore>
0.4305962324

> <CNNaffinity>
4.8820419312

> <CNN_VS>
2.1021888256

> <CNNaffinity_variance>
0.4726210535

$$$$



 32 35  0  0  0  0  0  0  0  0999 V2000
   23.1235    4.9353   13.3226 C   0  0  0  0  0  0  0  0  0  0  0  0
   22.1842    5.7353    7.4066 C   0  0  0  0  0  0  0  0  0  0  0  0
   22.9233    6.9245    7.6295 C   0  0  0  0  0  0  0  0  0  0  0  0
   23.4261    7.2358    8.8987 C   0  0  0  0  0  0  0  0  0  0  0  0
   23.1727    6.3351    9.9137 C   0  0  0  0  0  0  0  0  0  0  0  0
   22.4525    5.1738    9.6997 C   0  0  0  0  0  0  0  0  0  0  0  0
   21.9405    4.8411    8.4600 C   0  0  0  0  0  0  0  0  0  0  0  0
   22.3639    4.4717   10.9781 C   0  0  0  0  0  0  0  0  0  0  0  0
   21.7454    3.4394   11.1487 O   0  0  0  0  0  0  0  0  0  0  0  0
   23.0730    5.2127   11.8839 N   0  0  0  0  0  0  0  0  0  0  0  0
   23.5437    6.3698   11.3270 C   0  0  0  0  0  0  0  0  0  0  0  0
   24.1506    7.2832   11.8510 O   0  0  0  0  0  0  0  0  0  0  0  0
   20.5980    5.8150    5.5998 O   0  0  0  0  0  0  0  0  0  0  0  0
   21.6825    5.4772    6.0344 C   0  0  0  0  0  0  0  0  0  0  0  0
   22.5688    4.8094    5.2779 O   0  0  0  0  0  0  0  0  0  0  0  0
   23.3978    4.5606    5.6369 H   0  0  0  0  0  0  0  0  0  0  0  0
   24.5696    5.0203   13.8256 C   0  0  0  0  0  0  0  0  0  0  0  0
   25.3034    5.9949   13.7564 O   0  0  0  0  0  0  0  0  0  0  0  0
   25.0243    3.9047   14.4395 O   0  0  0  0  0  0  0  0  0  0  0  0
   24.4757    3.1477   14.5021 H   0  0  0  0  0  0  0  0  0  0  0  0
   22.2030    5.8653   14.1323 C   0  0  0  0  0  0  0  0  0  0  0  0
   22.9598    6.9762   14.8429 C   0  0  0  0  0  0  0  0  0  0  0  0
   23.0875    8.2095   14.1808 C   0  0  0  0  0  0  0  0  0  0  0  0
   23.7755    9.2654   14.7668 C   0  0  0  0  0  0  0  0  0  0  0  0
   24.3488    9.1063   16.0242 C   0  0  0  0  0  0  0  0  0  0  0  0
   24.2454    7.8903   16.7136 C   0  0  0  0  0  0  0  0  0  0  0  0
   24.8372    7.7539   17.9801 C   0  0  0  0  0  0  0  0  0  0  0  0
   24.7480    6.5531   18.6782 C   0  0  0  0  0  0  0  0  0  0  0  0
   25.5531    6.3916   20.3807 Br  0  0  0  0  0  0  0  0  0  0  0  0
   24.0706    5.4734   18.1302 C   0  0  0  0  0  0  0  0  0  0  0  0
   23.4760    5.5979   16.8715 C   0  0  0  0  0  0  0  0  0  0  0  0
   23.5458    6.8012   16.1298 C   0  0  0  0  0  0  0  0  0  0  0  0
 13 14  2  0
 14 15  1  0
 14  2  1  0
  2  3  2  0
  3  4  1  0
  4  5  2  0
  5  6  1  0
  6  7  2  0
  6  8  1  0
  8  9  2  0
  8 10  1  0
 10  1  1  0
  1 21  1  0
 21 22  1  0
 22 23  2  0
 23 24  1  0
 24 25  2  0
 25 26  1  0
 26 27  2  0
 27 28  1  0
 28 29  1  0
 28 30  2  0
 30 31  1  0
 31 32  2  0
  1 17  1  0
 17 18  2  0
 17 19  1  0
 10 11  1  0
 11 12  2  0
  7  2  1  0
 32 22  1  0
 11  5  1  0
 32 26  1  0
 15 16  1  0
 19 20  1  0
M  END
> <minimizedAffinity>
-9.62642

> <CNNscore>
0.3991056681

> <CNNaffinity>
4.5830564499

> <CNN_VS>
1.8291238546

> <CNNaffinity_variance>
0.9421474338

$$$$
