


 32 35  0  0  0  0  0  0  0  0999 V2000
   18.6806   -2.5432    9.2796 C   0  0  0  0  0  0  0  0  0  0  0  0
   17.7509   -1.6213    8.8854 O   0  0  0  0  0  0  0  0  0  0  0  0
   16.6251   -1.8171    9.6188 C   0  0  0  0  0  0  0  0  0  0  0  0
   15.5343   -1.0612    9.4627 N   0  0  0  0  0  0  0  0  0  0  0  0
   14.5514   -1.4438   10.2820 C   0  0  0  0  0  0  0  0  0  0  0  0
   12.9302   -0.4499   10.1925 Br  0  0  0  0  0  0  0  0  0  0  0  0
   14.5839   -2.4504   11.1765 N   0  0  0  0  0  0  0  0  0  0  0  0
   15.7016   -3.2047   11.3007 C   0  0  0  0  0  0  0  0  0  0  0  0
   16.8027   -2.8751   10.4946 C   0  0  0  0  0  0  0  0  0  0  0  0
   18.1396   -3.3399   10.2806 C   0  0  0  0  0  0  0  0  0  0  0  0
   22.4478   -2.3057    7.2348 C   0  0  0  0  0  0  0  0  0  0  0  0
   21.7232   -1.1476    7.5182 C   0  0  0  0  0  0  0  0  0  0  0  0
   20.4924   -1.2156    8.1811 C   0  0  0  0  0  0  0  0  0  0  0  0
   19.9623   -2.4476    8.5801 C   0  0  0  0  0  0  0  0  0  0  0  0
   20.6962   -3.6067    8.2844 C   0  0  0  0  0  0  0  0  0  0  0  0
   21.9281   -3.5391    7.6195 C   0  0  0  0  0  0  0  0  0  0  0  0
   23.6474   -1.0779    5.5917 C   0  0  0  0  0  0  0  0  0  0  0  0
   23.6315   -2.0965    6.5839 O   0  0  0  0  0  0  0  0  0  0  0  0
   18.8406   -4.4316   10.9250 C   0  0  0  0  0  0  0  0  0  0  0  0
   18.2424   -5.6887   11.0383 C   0  0  0  0  0  0  0  0  0  0  0  0
   18.9268   -6.7316   11.6671 C   0  0  0  0  0  0  0  0  0  0  0  0
   20.2064   -6.5327   12.1924 C   0  0  0  0  0  0  0  0  0  0  0  0
   20.8023   -5.2762   12.0808 C   0  0  0  0  0  0  0  0  0  0  0  0
   20.1231   -4.2295   11.4473 C   0  0  0  0  0  0  0  0  0  0  0  0
   20.7585   -7.6353   12.7828 O   0  0  0  0  0  0  0  0  0  0  0  0
   20.1570   -8.8906   12.4920 C   0  0  0  0  0  0  0  0  0  0  0  0
   15.7101   -4.2738   12.1920 N   0  0  0  0  0  0  0  0  0  0  0  0
   16.1367   -5.1304   11.9609 H   0  0  0  0  0  0  0  0  0  0  0  0
   15.0593   -4.0720   13.4857 C   0  0  0  0  0  0  0  0  0  0  0  0
   16.0823   -3.7989   14.5955 C   0  0  0  0  0  0  0  0  0  0  0  0
   15.5533   -2.8612   15.5383 O   0  0  0  0  0  0  0  0  0  0  0  0
   15.3531   -2.0265   15.0866 H   0  0  0  0  0  0  0  0  0  0  0  0
 17 18  1  0
 18 11  1  0
 11 12  2  0
 12 13  1  0
 13 14  2  0
 14  1  1  0
  1  2  1  0
  2  3  1  0
  3  4  2  0
  4  5  1  0
  5  6  1  0
  5  7  2  0
  7  8  1  0
  8 27  1  0
 27 29  1  0
 29 30  1  0
 30 31  1  0
  8  9  2  0
  9 10  1  0
 10 19  1  0
 19 20  2  0
 20 21  1  0
 21 22  2  0
 22 25  1  0
 25 26  1  0
 22 23  1  0
 23 24  2  0
 14 15  1  0
 15 16  2  0
 16 11  1  0
 10  1  2  0
 24 19  1  0
  9  3  1  0
 27 28  1  0
 31 32  1  0
M  END
> <minimizedAffinity>
-7.42064

> <CNNscore>
0.7989352345

> <CNNaffinity>
7.0587496758

> <CNN_VS>
5.6394839287

> <CNNaffinity_variance>
0.1464979351

$$$$



 32 35  0  0  0  0  0  0  0  0999 V2000
   16.0514   -2.9465   11.2417 C   0  0  0  0  0  0  0  0  0  0  0  0
   16.5106   -2.0320   10.3348 O   0  0  0  0  0  0  0  0  0  0  0  0
   17.7358   -2.4360    9.9116 C   0  0  0  0  0  0  0  0  0  0  0  0
   18.4417   -1.7435    9.0128 N   0  0  0  0  0  0  0  0  0  0  0  0
   19.6168   -2.3251    8.7587 C   0  0  0  0  0  0  0  0  0  0  0  0
   20.7358   -1.4660    7.4805 Br  0  0  0  0  0  0  0  0  0  0  0  0
   20.0948   -3.4628    9.2989 N   0  0  0  0  0  0  0  0  0  0  0  0
   19.3584   -4.1335   10.2162 C   0  0  0  0  0  0  0  0  0  0  0  0
   18.0958   -3.6143   10.5439 C   0  0  0  0  0  0  0  0  0  0  0  0
   16.9986   -3.9500   11.3998 C   0  0  0  0  0  0  0  0  0  0  0  0
   12.1658   -2.1026   12.8602 C   0  0  0  0  0  0  0  0  0  0  0  0
   12.5208   -1.6358   11.5943 C   0  0  0  0  0  0  0  0  0  0  0  0
   13.7865   -1.9027   11.0600 C   0  0  0  0  0  0  0  0  0  0  0  0
   14.7243   -2.6495   11.7818 C   0  0  0  0  0  0  0  0  0  0  0  0
   14.3592   -3.1088   13.0568 C   0  0  0  0  0  0  0  0  0  0  0  0
   13.0923   -2.8406   13.5926 C   0  0  0  0  0  0  0  0  0  0  0  0
   10.5186   -0.4088   13.1132 C   0  0  0  0  0  0  0  0  0  0  0  0
   10.9015   -1.7704   13.2601 O   0  0  0  0  0  0  0  0  0  0  0  0
   16.8516   -5.0793   12.2951 C   0  0  0  0  0  0  0  0  0  0  0  0
   16.1657   -6.2245   11.8840 C   0  0  0  0  0  0  0  0  0  0  0  0
   16.0259   -7.3044   12.7590 C   0  0  0  0  0  0  0  0  0  0  0  0
   16.5606   -7.2530   14.0490 C   0  0  0  0  0  0  0  0  0  0  0  0
   17.2437   -6.1080   14.4597 C   0  0  0  0  0  0  0  0  0  0  0  0
   17.3910   -5.0254   13.5853 C   0  0  0  0  0  0  0  0  0  0  0  0
   16.3482   -8.3758   14.7999 O   0  0  0  0  0  0  0  0  0  0  0  0
   15.2647   -8.3393   15.7201 C   0  0  0  0  0  0  0  0  0  0  0  0
   19.8802   -5.2812   10.8061 N   0  0  0  0  0  0  0  0  0  0  0  0
   19.4852   -6.1676   10.6404 H   0  0  0  0  0  0  0  0  0  0  0  0
   21.0393   -5.1159   11.6820 C   0  0  0  0  0  0  0  0  0  0  0  0
   21.3376   -3.6355   11.9498 C   0  0  0  0  0  0  0  0  0  0  0  0
   22.7194   -3.4589   12.2776 O   0  0  0  0  0  0  0  0  0  0  0  0
   22.9301   -3.9687   13.0754 H   0  0  0  0  0  0  0  0  0  0  0  0
 17 18  1  0
 18 11  1  0
 11 12  2  0
 12 13  1  0
 13 14  2  0
 14  1  1  0
  1  2  1  0
  2  3  1  0
  3  4  2  0
  4  5  1  0
  5  6  1  0
  5  7  2  0
  7  8  1  0
  8 27  1  0
 27 29  1  0
 29 30  1  0
 30 31  1  0
  8  9  2  0
  9 10  1  0
 10 19  1  0
 19 20  2  0
 20 21  1  0
 21 22  2  0
 22 25  1  0
 25 26  1  0
 22 23  1  0
 23 24  2  0
 14 15  1  0
 15 16  2  0
 16 11  1  0
 10  1  2  0
 24 19  1  0
  9  3  1  0
 27 28  1  0
 31 32  1  0
M  END
> <minimizedAffinity>
-7.81467

> <CNNscore>
0.3929592967

> <CNNaffinity>
6.9992651939

> <CNN_VS>
2.7504262924

> <CNNaffinity_variance>
0.1699234992

$$$$



 32 35  0  0  0  0  0  0  0  0999 V2000
   17.9030   -2.1756    9.3915 C   0  0  0  0  0  0  0  0  0  0  0  0
   18.6098   -1.5011    8.4350 O   0  0  0  0  0  0  0  0  0  0  0  0
   19.8293   -2.0870    8.3199 C   0  0  0  0  0  0  0  0  0  0  0  0
   20.7496   -1.6495    7.4555 N   0  0  0  0  0  0  0  0  0  0  0  0
   21.8711   -2.3712    7.5264 C   0  0  0  0  0  0  0  0  0  0  0  0
   23.2774   -1.8819    6.3402 Br  0  0  0  0  0  0  0  0  0  0  0  0
   22.1143   -3.4185    8.3380 N   0  0  0  0  0  0  0  0  0  0  0  0
   21.1637   -3.8284    9.2109 C   0  0  0  0  0  0  0  0  0  0  0  0
   19.9371   -3.1455    9.2063 C   0  0  0  0  0  0  0  0  0  0  0  0
   18.6837   -3.2084    9.8948 C   0  0  0  0  0  0  0  0  0  0  0  0
   13.9529   -0.6292   10.0517 C   0  0  0  0  0  0  0  0  0  0  0  0
   14.2678   -1.9402   10.4103 C   0  0  0  0  0  0  0  0  0  0  0  0
   15.5517   -2.4542   10.1954 C   0  0  0  0  0  0  0  0  0  0  0  0
   16.5519   -1.6623    9.6204 C   0  0  0  0  0  0  0  0  0  0  0  0
   16.2228   -0.3471    9.2576 C   0  0  0  0  0  0  0  0  0  0  0  0
   14.9368    0.1675    9.4714 C   0  0  0  0  0  0  0  0  0  0  0  0
   12.2118   -0.4166   11.6547 C   0  0  0  0  0  0  0  0  0  0  0  0
   12.6648   -0.2560   10.3162 O   0  0  0  0  0  0  0  0  0  0  0  0
   18.2584   -4.1225   10.9349 C   0  0  0  0  0  0  0  0  0  0  0  0
   17.8301   -5.4124   10.6127 C   0  0  0  0  0  0  0  0  0  0  0  0
   17.4171   -6.2824   11.6246 C   0  0  0  0  0  0  0  0  0  0  0  0
   17.4208   -5.8766   12.9618 C   0  0  0  0  0  0  0  0  0  0  0  0
   17.8465   -4.5873   13.2827 C   0  0  0  0  0  0  0  0  0  0  0  0
   18.2662   -3.7137   12.2733 C   0  0  0  0  0  0  0  0  0  0  0  0
   16.9894   -6.8250   13.8471 O   0  0  0  0  0  0  0  0  0  0  0  0
   15.6562   -7.2939   13.6894 C   0  0  0  0  0  0  0  0  0  0  0  0
   21.4406   -4.8796   10.0802 N   0  0  0  0  0  0  0  0  0  0  0  0
   20.8028   -5.6181   10.2110 H   0  0  0  0  0  0  0  0  0  0  0  0
   22.7177   -4.8417   10.7911 C   0  0  0  0  0  0  0  0  0  0  0  0
   22.5397   -4.3948   12.2475 C   0  0  0  0  0  0  0  0  0  0  0  0
   23.0551   -3.0718   12.4273 O   0  0  0  0  0  0  0  0  0  0  0  0
   24.0006   -3.0610   12.2111 H   0  0  0  0  0  0  0  0  0  0  0  0
 17 18  1  0
 18 11  1  0
 11 12  2  0
 12 13  1  0
 13 14  2  0
 14  1  1  0
  1  2  1  0
  2  3  1  0
  3  4  2  0
  4  5  1  0
  5  6  1  0
  5  7  2  0
  7  8  1  0
  8 27  1  0
 27 29  1  0
 29 30  1  0
 30 31  1  0
  8  9  2  0
  9 10  1  0
 10 19  1  0
 19 20  2  0
 20 21  1  0
 21 22  2  0
 22 25  1  0
 25 26  1  0
 22 23  1  0
 23 24  2  0
 14 15  1  0
 15 16  2  0
 16 11  1  0
 10  1  2  0
 24 19  1  0
  9  3  1  0
 27 28  1  0
 31 32  1  0
M  END
> <minimizedAffinity>
-8.32520

> <CNNscore>
0.2607915998

> <CNNaffinity>
6.1980133057

> <CNN_VS>
1.6163897514

> <CNNaffinity_variance>
0.1230887100

$$$$



 32 35  0  0  0  0  0  0  0  0999 V2000
   22.4789   -9.4250   11.5143 C   0  0  0  0  0  0  0  0  0  0  0  0
   23.1842  -10.4331   12.1107 O   0  0  0  0  0  0  0  0  0  0  0  0
   23.0145  -10.3296   13.4538 C   0  0  0  0  0  0  0  0  0  0  0  0
   23.5827  -11.1836   14.3102 N   0  0  0  0  0  0  0  0  0  0  0  0
   23.2842  -10.8799   15.5760 C   0  0  0  0  0  0  0  0  0  0  0  0
   24.0068  -12.0180   16.9202 Br  0  0  0  0  0  0  0  0  0  0  0  0
   22.5158   -9.8614   16.0085 N   0  0  0  0  0  0  0  0  0  0  0  0
   21.9649   -9.0070   15.1139 C   0  0  0  0  0  0  0  0  0  0  0  0
   22.2037   -9.2471   13.7515 C   0  0  0  0  0  0  0  0  0  0  0  0
   21.8490   -8.6661   12.4923 C   0  0  0  0  0  0  0  0  0  0  0  0
   22.7315   -9.3567    7.2292 C   0  0  0  0  0  0  0  0  0  0  0  0
   21.8740  -10.2497    7.8726 C   0  0  0  0  0  0  0  0  0  0  0  0
   21.7878  -10.2817    9.2692 C   0  0  0  0  0  0  0  0  0  0  0  0
   22.5564   -9.4141   10.0531 C   0  0  0  0  0  0  0  0  0  0  0  0
   23.4203   -8.5244    9.3961 C   0  0  0  0  0  0  0  0  0  0  0  0
   23.5079   -8.4929    7.9976 C   0  0  0  0  0  0  0  0  0  0  0  0
   23.1126  -10.6684    5.2849 C   0  0  0  0  0  0  0  0  0  0  0  0
   22.7179   -9.4312    5.8643 O   0  0  0  0  0  0  0  0  0  0  0  0
   21.0247   -7.5059   12.2222 C   0  0  0  0  0  0  0  0  0  0  0  0
   21.6102   -6.2868   11.8731 C   0  0  0  0  0  0  0  0  0  0  0  0
   20.8043   -5.1740   11.6207 C   0  0  0  0  0  0  0  0  0  0  0  0
   19.4131   -5.2619   11.7185 C   0  0  0  0  0  0  0  0  0  0  0  0
   18.8291   -6.4794   12.0694 C   0  0  0  0  0  0  0  0  0  0  0  0
   19.6316   -7.5985   12.3182 C   0  0  0  0  0  0  0  0  0  0  0  0
   18.7474   -4.0985   11.4489 O   0  0  0  0  0  0  0  0  0  0  0  0
   17.6848   -4.1683   10.5065 C   0  0  0  0  0  0  0  0  0  0  0  0
   21.2130   -7.9286   15.5712 N   0  0  0  0  0  0  0  0  0  0  0  0
   21.3859   -7.0124   15.2550 H   0  0  0  0  0  0  0  0  0  0  0  0
   20.1558   -8.2127   16.5405 C   0  0  0  0  0  0  0  0  0  0  0  0
   18.7648   -8.1235   15.9006 C   0  0  0  0  0  0  0  0  0  0  0  0
   18.2191   -6.8126   16.0797 O   0  0  0  0  0  0  0  0  0  0  0  0
   18.1391   -6.6225   17.0275 H   0  0  0  0  0  0  0  0  0  0  0  0
 17 18  1  0
 18 11  1  0
 11 12  2  0
 12 13  1  0
 13 14  2  0
 14  1  1  0
  1  2  1  0
  2  3  1  0
  3  4  2  0
  4  5  1  0
  5  6  1  0
  5  7  2  0
  7  8  1  0
  8 27  1  0
 27 29  1  0
 29 30  1  0
 30 31  1  0
  8  9  2  0
  9 10  1  0
 10 19  1  0
 19 20  2  0
 20 21  1  0
 21 22  2  0
 22 25  1  0
 25 26  1  0
 22 23  1  0
 23 24  2  0
 14 15  1  0
 15 16  2  0
 16 11  1  0
 10  1  2  0
 24 19  1  0
  9  3  1  0
 27 28  1  0
 31 32  1  0
M  END
> <minimizedAffinity>
-3.78354

> <CNNscore>
0.1962804049

> <CNNaffinity>
5.9008088112

> <CNN_VS>
1.1582131386

> <CNNaffinity_variance>
0.6083408594

$$$$



 32 35  0  0  0  0  0  0  0  0999 V2000
   25.6477   -1.3042   10.0188 C   0  0  0  0  0  0  0  0  0  0  0  0
   24.8121   -1.7611   10.9999 O   0  0  0  0  0  0  0  0  0  0  0  0
   24.0143   -2.7192   10.4623 C   0  0  0  0  0  0  0  0  0  0  0  0
   23.0891   -3.3606   11.1822 N   0  0  0  0  0  0  0  0  0  0  0  0
   22.4210   -4.2491   10.4421 C   0  0  0  0  0  0  0  0  0  0  0  0
   21.0754   -5.2607   11.3310 Br  0  0  0  0  0  0  0  0  0  0  0  0
   22.6023   -4.5189    9.1349 N   0  0  0  0  0  0  0  0  0  0  0  0
   23.5408   -3.8417    8.4318 C   0  0  0  0  0  0  0  0  0  0  0  0
   24.3128   -2.8932    9.1212 C   0  0  0  0  0  0  0  0  0  0  0  0
   25.3789   -1.9815    8.8363 C   0  0  0  0  0  0  0  0  0  0  0  0
   28.3921    1.7213   11.3397 C   0  0  0  0  0  0  0  0  0  0  0  0
   27.8354    1.7812   10.0617 C   0  0  0  0  0  0  0  0  0  0  0  0
   26.9428    0.7973    9.6211 C   0  0  0  0  0  0  0  0  0  0  0  0
   26.5834   -0.2672   10.4551 C   0  0  0  0  0  0  0  0  0  0  0  0
   27.1540   -0.3213   11.7362 C   0  0  0  0  0  0  0  0  0  0  0  0
   28.0489    0.6630   12.1773 C   0  0  0  0  0  0  0  0  0  0  0  0
   29.2770    3.8432   10.7390 C   0  0  0  0  0  0  0  0  0  0  0  0
   29.2473    2.7442   11.6410 O   0  0  0  0  0  0  0  0  0  0  0  0
   26.0668   -1.7441    7.5837 C   0  0  0  0  0  0  0  0  0  0  0  0
   25.6044   -0.7706    6.6951 C   0  0  0  0  0  0  0  0  0  0  0  0
   26.2735   -0.5554    5.4879 C   0  0  0  0  0  0  0  0  0  0  0  0
   27.4018   -1.3082    5.1518 C   0  0  0  0  0  0  0  0  0  0  0  0
   27.8617   -2.2819    6.0388 C   0  0  0  0  0  0  0  0  0  0  0  0
   27.1982   -2.4979    7.2518 C   0  0  0  0  0  0  0  0  0  0  0  0
   27.9557   -0.9968    3.9412 O   0  0  0  0  0  0  0  0  0  0  0  0
   29.1462   -1.6863    3.5815 C   0  0  0  0  0  0  0  0  0  0  0  0
   23.6883   -4.0913    7.0704 N   0  0  0  0  0  0  0  0  0  0  0  0
   24.5386   -4.4201    6.6987 H   0  0  0  0  0  0  0  0  0  0  0  0
   22.5283   -3.8450    6.2151 C   0  0  0  0  0  0  0  0  0  0  0  0
   22.6539   -2.5139    5.4635 C   0  0  0  0  0  0  0  0  0  0  0  0
   22.0429   -2.6128    4.1731 O   0  0  0  0  0  0  0  0  0  0  0  0
   22.4861   -3.3049    3.6578 H   0  0  0  0  0  0  0  0  0  0  0  0
 17 18  1  0
 18 11  1  0
 11 12  2  0
 12 13  1  0
 13 14  2  0
 14  1  1  0
  1  2  1  0
  2  3  1  0
  3  4  2  0
  4  5  1  0
  5  6  1  0
  5  7  2  0
  7  8  1  0
  8 27  1  0
 27 29  1  0
 29 30  1  0
 30 31  1  0
  8  9  2  0
  9 10  1  0
 10 19  1  0
 19 20  2  0
 20 21  1  0
 21 22  2  0
 22 25  1  0
 25 26  1  0
 22 23  1  0
 23 24  2  0
 14 15  1  0
 15 16  2  0
 16 11  1  0
 10  1  2  0
 24 19  1  0
  9  3  1  0
 27 28  1  0
 31 32  1  0
M  END
> <minimizedAffinity>
-3.95521

> <CNNscore>
0.1482667774

> <CNNaffinity>
5.4799270630

> <CNN_VS>
0.8124911189

> <CNNaffinity_variance>
0.3284460604

$$$$



 32 35  0  0  0  0  0  0  0  0999 V2000
   14.8778   -3.1162   11.4947 C   0  0  0  0  0  0  0  0  0  0  0  0
   13.7599   -2.3320   11.4242 O   0  0  0  0  0  0  0  0  0  0  0  0
   12.8269   -2.8508   12.2632 C   0  0  0  0  0  0  0  0  0  0  0  0
   11.6207   -2.2961   12.4156 N   0  0  0  0  0  0  0  0  0  0  0  0
   10.8710   -2.9833   13.2812 C   0  0  0  0  0  0  0  0  0  0  0  0
    9.1240   -2.3078   13.6213 Br  0  0  0  0  0  0  0  0  0  0  0  0
   11.2191   -4.0983   13.9522 N   0  0  0  0  0  0  0  0  0  0  0  0
   12.4455   -4.6412   13.7651 C   0  0  0  0  0  0  0  0  0  0  0  0
   13.3207   -3.9854   12.8848 C   0  0  0  0  0  0  0  0  0  0  0  0
   14.6546   -4.1519   12.3929 C   0  0  0  0  0  0  0  0  0  0  0  0
   18.0946   -1.7987    8.9755 C   0  0  0  0  0  0  0  0  0  0  0  0
   18.3610   -2.4698   10.1693 C   0  0  0  0  0  0  0  0  0  0  0  0
   17.3189   -2.8997   10.9988 C   0  0  0  0  0  0  0  0  0  0  0  0
   15.9841   -2.6709   10.6468 C   0  0  0  0  0  0  0  0  0  0  0  0
   15.7274   -1.9894    9.4471 C   0  0  0  0  0  0  0  0  0  0  0  0
   16.7707   -1.5576    8.6168 C   0  0  0  0  0  0  0  0  0  0  0  0
   20.4194   -2.0969    8.5848 C   0  0  0  0  0  0  0  0  0  0  0  0
   19.2027   -1.4350    8.2625 O   0  0  0  0  0  0  0  0  0  0  0  0
   15.6213   -5.1840   12.7072 C   0  0  0  0  0  0  0  0  0  0  0  0
   16.5309   -5.0079   13.7524 C   0  0  0  0  0  0  0  0  0  0  0  0
   17.4619   -6.0086   14.0415 C   0  0  0  0  0  0  0  0  0  0  0  0
   17.5001   -7.1874   13.2923 C   0  0  0  0  0  0  0  0  0  0  0  0
   16.5927   -7.3617   12.2470 C   0  0  0  0  0  0  0  0  0  0  0  0
   15.6547   -6.3646   11.9565 C   0  0  0  0  0  0  0  0  0  0  0  0
   18.4615   -8.0790   13.6800 O   0  0  0  0  0  0  0  0  0  0  0  0
   18.3753   -8.5820   15.0073 C   0  0  0  0  0  0  0  0  0  0  0  0
   12.7795   -5.8206   14.4245 N   0  0  0  0  0  0  0  0  0  0  0  0
   12.4942   -6.6981   14.0814 H   0  0  0  0  0  0  0  0  0  0  0  0
   13.5717   -5.7024   15.6478 C   0  0  0  0  0  0  0  0  0  0  0  0
   14.1221   -7.0616   16.0972 C   0  0  0  0  0  0  0  0  0  0  0  0
   13.6299   -7.3902   17.4002 O   0  0  0  0  0  0  0  0  0  0  0  0
   13.9153   -6.7135   18.0338 H   0  0  0  0  0  0  0  0  0  0  0  0
 17 18  1  0
 18 11  1  0
 11 12  2  0
 12 13  1  0
 13 14  2  0
 14  1  1  0
  1  2  1  0
  2  3  1  0
  3  4  2  0
  4  5  1  0
  5  6  1  0
  5  7  2  0
  7  8  1  0
  8 27  1  0
 27 29  1  0
 29 30  1  0
 30 31  1  0
  8  9  2  0
  9 10  1  0
 10 19  1  0
 19 20  2  0
 20 21  1  0
 21 22  2  0
 22 25  1  0
 25 26  1  0
 22 23  1  0
 23 24  2  0
 14 15  1  0
 15 16  2  0
 16 11  1  0
 10  1  2  0
 24 19  1  0
  9  3  1  0
 27 28  1  0
 31 32  1  0
M  END
> <minimizedAffinity>
-8.38564

> <CNNscore>
0.1232271194

> <CNNaffinity>
6.4294185638

> <CNN_VS>
0.7922787070

> <CNNaffinity_variance>
0.0549123175

$$$$



 32 35  0  0  0  0  0  0  0  0999 V2000
   13.8044   -2.7091   12.2232 C   0  0  0  0  0  0  0  0  0  0  0  0
   14.3801   -1.9506   11.2419 O   0  0  0  0  0  0  0  0  0  0  0  0
   15.6005   -2.4765   10.9635 C   0  0  0  0  0  0  0  0  0  0  0  0
   16.4067   -1.9507   10.0365 N   0  0  0  0  0  0  0  0  0  0  0  0
   17.5546   -2.6271    9.9445 C   0  0  0  0  0  0  0  0  0  0  0  0
   18.8074   -2.0103    8.6505 Br  0  0  0  0  0  0  0  0  0  0  0  0
   17.9208   -3.7085   10.6593 N   0  0  0  0  0  0  0  0  0  0  0  0
   17.0845   -4.2086   11.5996 C   0  0  0  0  0  0  0  0  0  0  0  0
   15.8406   -3.5793   11.7660 C   0  0  0  0  0  0  0  0  0  0  0  0
   14.6712   -3.7353   12.5766 C   0  0  0  0  0  0  0  0  0  0  0  0
    9.8706   -1.4566   13.4010 C   0  0  0  0  0  0  0  0  0  0  0  0
   10.8105   -0.5207   12.9683 C   0  0  0  0  0  0  0  0  0  0  0  0
   12.0965   -0.9192   12.5860 C   0  0  0  0  0  0  0  0  0  0  0  0
   12.4679   -2.2678   12.6237 C   0  0  0  0  0  0  0  0  0  0  0  0
   11.5170   -3.2002   13.0665 C   0  0  0  0  0  0  0  0  0  0  0  0
   10.2296   -2.8013   13.4507 C   0  0  0  0  0  0  0  0  0  0  0  0
    8.5846    0.4799   13.8930 C   0  0  0  0  0  0  0  0  0  0  0  0
    8.6557   -0.9326   13.7443 O   0  0  0  0  0  0  0  0  0  0  0  0
   14.3929   -4.7256   13.5965 C   0  0  0  0  0  0  0  0  0  0  0  0
   14.5302   -4.4070   14.9495 C   0  0  0  0  0  0  0  0  0  0  0  0
   14.2643   -5.3729   15.9230 C   0  0  0  0  0  0  0  0  0  0  0  0
   13.8660   -6.6623   15.5606 C   0  0  0  0  0  0  0  0  0  0  0  0
   13.7312   -6.9806   14.2090 C   0  0  0  0  0  0  0  0  0  0  0  0
   13.9914   -6.0152   13.2299 C   0  0  0  0  0  0  0  0  0  0  0  0
   13.6424   -7.5072   16.6121 O   0  0  0  0  0  0  0  0  0  0  0  0
   14.3283   -7.2216   17.8246 C   0  0  0  0  0  0  0  0  0  0  0  0
   17.4905   -5.2959   12.3679 N   0  0  0  0  0  0  0  0  0  0  0  0
   17.2631   -5.3617   13.3235 H   0  0  0  0  0  0  0  0  0  0  0  0
   18.2688   -6.3362   11.6972 C   0  0  0  0  0  0  0  0  0  0  0  0
   18.7223   -7.4234   12.6795 C   0  0  0  0  0  0  0  0  0  0  0  0
   17.7889   -8.5082   12.6848 O   0  0  0  0  0  0  0  0  0  0  0  0
   16.9173   -8.1835   12.9598 H   0  0  0  0  0  0  0  0  0  0  0  0
 17 18  1  0
 18 11  1  0
 11 12  2  0
 12 13  1  0
 13 14  2  0
 14  1  1  0
  1  2  1  0
  2  3  1  0
  3  4  2  0
  4  5  1  0
  5  6  1  0
  5  7  2  0
  7  8  1  0
  8 27  1  0
 27 29  1  0
 29 30  1  0
 30 31  1  0
  8  9  2  0
  9 10  1  0
 10 19  1  0
 19 20  2  0
 20 21  1  0
 21 22  2  0
 22 25  1  0
 25 26  1  0
 22 23  1  0
 23 24  2  0
 14 15  1  0
 15 16  2  0
 16 11  1  0
 10  1  2  0
 24 19  1  0
  9  3  1  0
 27 28  1  0
 31 32  1  0
M  END
> <minimizedAffinity>
-8.40730

> <CNNscore>
0.1124747619

> <CNNaffinity>
6.3680720329

> <CNN_VS>
0.7162473798

> <CNNaffinity_variance>
0.0840464309

$$$$



 32 35  0  0  0  0  0  0  0  0999 V2000
   24.1272   -6.6739    8.6565 C   0  0  0  0  0  0  0  0  0  0  0  0
   25.2642   -7.1530    8.0671 O   0  0  0  0  0  0  0  0  0  0  0  0
   25.8140   -6.1509    7.3343 C   0  0  0  0  0  0  0  0  0  0  0  0
   26.9441   -6.3149    6.6403 N   0  0  0  0  0  0  0  0  0  0  0  0
   27.2868   -5.1994    5.9909 C   0  0  0  0  0  0  0  0  0  0  0  0
   28.8901   -5.2665    4.9665 Br  0  0  0  0  0  0  0  0  0  0  0  0
   26.6287   -4.0241    5.9900 N   0  0  0  0  0  0  0  0  0  0  0  0
   25.4795   -3.8956    6.6946 C   0  0  0  0  0  0  0  0  0  0  0  0
   25.0377   -5.0079    7.4287 C   0  0  0  0  0  0  0  0  0  0  0  0
   23.9485   -5.3450    8.2940 C   0  0  0  0  0  0  0  0  0  0  0  0
   22.0814   -9.5021   11.1558 C   0  0  0  0  0  0  0  0  0  0  0  0
   22.1887   -9.7208    9.7820 C   0  0  0  0  0  0  0  0  0  0  0  0
   22.8505   -8.8025    8.9588 C   0  0  0  0  0  0  0  0  0  0  0  0
   23.4252   -7.6453    9.4961 C   0  0  0  0  0  0  0  0  0  0  0  0
   23.3060   -7.4319   10.8781 C   0  0  0  0  0  0  0  0  0  0  0  0
   22.6422   -8.3506   11.7025 C   0  0  0  0  0  0  0  0  0  0  0  0
   20.2255  -10.0827   12.5214 C   0  0  0  0  0  0  0  0  0  0  0  0
   21.4105  -10.4764   11.8408 O   0  0  0  0  0  0  0  0  0  0  0  0
   22.8368   -4.5224    8.7252 C   0  0  0  0  0  0  0  0  0  0  0  0
   22.7816   -4.0353   10.0331 C   0  0  0  0  0  0  0  0  0  0  0  0
   21.7012   -3.2478   10.4381 C   0  0  0  0  0  0  0  0  0  0  0  0
   20.6661   -2.9433    9.5501 C   0  0  0  0  0  0  0  0  0  0  0  0
   20.7208   -3.4321    8.2445 C   0  0  0  0  0  0  0  0  0  0  0  0
   21.8034   -4.2171    7.8323 C   0  0  0  0  0  0  0  0  0  0  0  0
   19.6712   -2.1679   10.0777 O   0  0  0  0  0  0  0  0  0  0  0  0
   18.6501   -1.7368    9.1870 C   0  0  0  0  0  0  0  0  0  0  0  0
   24.7795   -2.6935    6.6489 N   0  0  0  0  0  0  0  0  0  0  0  0
   24.3906   -2.2955    7.4611 H   0  0  0  0  0  0  0  0  0  0  0  0
   24.6454   -2.0461    5.3447 C   0  0  0  0  0  0  0  0  0  0  0  0
   23.9705   -0.6738    5.4626 C   0  0  0  0  0  0  0  0  0  0  0  0
   22.7275   -0.7905    6.1622 O   0  0  0  0  0  0  0  0  0  0  0  0
   22.1375   -1.3873    5.6757 H   0  0  0  0  0  0  0  0  0  0  0  0
 17 18  1  0
 18 11  1  0
 11 12  2  0
 12 13  1  0
 13 14  2  0
 14  1  1  0
  1  2  1  0
  2  3  1  0
  3  4  2  0
  4  5  1  0
  5  6  1  0
  5  7  2  0
  7  8  1  0
  8 27  1  0
 27 29  1  0
 29 30  1  0
 30 31  1  0
  8  9  2  0
  9 10  1  0
 10 19  1  0
 19 20  2  0
 20 21  1  0
 21 22  2  0
 22 25  1  0
 25 26  1  0
 22 23  1  0
 23 24  2  0
 14 15  1  0
 15 16  2  0
 16 11  1  0
 10  1  2  0
 24 19  1  0
  9  3  1  0
 27 28  1  0
 31 32  1  0
M  END
> <minimizedAffinity>
-3.68802

> <CNNscore>
0.1104466468

> <CNNaffinity>
5.4715819359

> <CNN_VS>
0.6043179035

> <CNNaffinity_variance>
1.2225626707

$$$$



 32 35  0  0  0  0  0  0  0  0999 V2000
   13.3648   -4.8707   14.0891 C   0  0  0  0  0  0  0  0  0  0  0  0
   12.0531   -4.7230   14.4455 O   0  0  0  0  0  0  0  0  0  0  0  0
   11.5985   -3.5611   13.9099 C   0  0  0  0  0  0  0  0  0  0  0  0
   10.3412   -3.1426   14.0822 N   0  0  0  0  0  0  0  0  0  0  0  0
   10.1263   -1.9728   13.4747 C   0  0  0  0  0  0  0  0  0  0  0  0
    8.3710   -1.2490   13.6128 Br  0  0  0  0  0  0  0  0  0  0  0  0
   11.0132   -1.2515   12.7621 N   0  0  0  0  0  0  0  0  0  0  0  0
   12.2830   -1.6990   12.6172 C   0  0  0  0  0  0  0  0  0  0  0  0
   12.6105   -2.9311   13.2050 C   0  0  0  0  0  0  0  0  0  0  0  0
   13.7537   -3.7858   13.3138 C   0  0  0  0  0  0  0  0  0  0  0  0
   15.2233   -8.4702   15.5101 C   0  0  0  0  0  0  0  0  0  0  0  0
   14.3864   -7.7296   16.3454 C   0  0  0  0  0  0  0  0  0  0  0  0
   13.7792   -6.5529   15.8921 C   0  0  0  0  0  0  0  0  0  0  0  0
   13.9934   -6.0946   14.5874 C   0  0  0  0  0  0  0  0  0  0  0  0
   14.8419   -6.8436   13.7577 C   0  0  0  0  0  0  0  0  0  0  0  0
   15.4512   -8.0213   14.2117 C   0  0  0  0  0  0  0  0  0  0  0  0
   15.0304  -10.1633   17.1662 C   0  0  0  0  0  0  0  0  0  0  0  0
   15.7502   -9.5962   16.0787 O   0  0  0  0  0  0  0  0  0  0  0  0
   15.0844   -3.6037   12.7713 C   0  0  0  0  0  0  0  0  0  0  0  0
   15.3009   -3.6592   11.3925 C   0  0  0  0  0  0  0  0  0  0  0  0
   16.5901   -3.4878   10.8824 C   0  0  0  0  0  0  0  0  0  0  0  0
   17.6733   -3.2659   11.7369 C   0  0  0  0  0  0  0  0  0  0  0  0
   17.4566   -3.2128   13.1141 C   0  0  0  0  0  0  0  0  0  0  0  0
   16.1664   -3.3788   13.6299 C   0  0  0  0  0  0  0  0  0  0  0  0
   18.8772   -3.1188   11.1057 O   0  0  0  0  0  0  0  0  0  0  0  0
   19.0788   -1.9149   10.3763 C   0  0  0  0  0  0  0  0  0  0  0  0
   13.2064   -0.9241   11.9213 N   0  0  0  0  0  0  0  0  0  0  0  0
   13.9646   -0.4951   12.3798 H   0  0  0  0  0  0  0  0  0  0  0  0
   13.0037   -0.7735   10.4811 C   0  0  0  0  0  0  0  0  0  0  0  0
   14.3378   -0.6814    9.7301 C   0  0  0  0  0  0  0  0  0  0  0  0
   14.7078    0.6881    9.5416 O   0  0  0  0  0  0  0  0  0  0  0  0
   14.0250    1.1388    9.0205 H   0  0  0  0  0  0  0  0  0  0  0  0
 17 18  1  0
 18 11  1  0
 11 12  2  0
 12 13  1  0
 13 14  2  0
 14  1  1  0
  1  2  1  0
  2  3  1  0
  3  4  2  0
  4  5  1  0
  5  6  1  0
  5  7  2  0
  7  8  1  0
  8 27  1  0
 27 29  1  0
 29 30  1  0
 30 31  1  0
  8  9  2  0
  9 10  1  0
 10 19  1  0
 19 20  2  0
 20 21  1  0
 21 22  2  0
 22 25  1  0
 25 26  1  0
 22 23  1  0
 23 24  2  0
 14 15  1  0
 15 16  2  0
 16 11  1  0
 10  1  2  0
 24 19  1  0
  9  3  1  0
 27 28  1  0
 31 32  1  0
M  END
> <minimizedAffinity>
-7.86193

> <CNNscore>
0.0968427882

> <CNNaffinity>
6.2715759277

> <CNN_VS>
0.6073569059

> <CNNaffinity_variance>
0.1070688143

$$$$
