


 16 16  0  0  0  0  0  0  0  0999 V2000
   54.2267   10.1493   32.6499 C   0  0  0  0  0  0  0  0  0  0  0  0
   54.8314   10.7592   31.4171 C   0  0  0  0  0  0  0  0  0  0  0  0
   54.1902   11.6310   30.6225 C   0  0  0  0  0  0  0  0  0  0  0  0
   52.7959   12.1686   30.8801 C   0  0  0  0  0  0  0  0  0  0  0  0
   52.3742   11.8690   32.3384 C   0  0  0  0  0  0  0  0  0  0  0  0
   52.7070   10.4380   32.7832 C   0  0  0  0  0  0  0  0  0  0  0  0
   51.7591   11.5380   29.8904 C   0  0  0  0  0  0  0  0  0  0  0  0
   50.5627   11.8009   29.8416 O   0  0  0  0  0  0  0  0  0  0  0  0
   52.2691   10.6674   28.9908 O   0  0  0  0  0  0  0  0  0  0  0  0
   53.1810   10.4531   29.0111 H   0  0  0  0  0  0  0  0  0  0  0  0
   54.3692   11.9226   34.2237 C   0  0  0  0  0  0  0  0  0  0  0  0
   54.9428   10.7100   33.7553 O   0  0  0  0  0  0  0  0  0  0  0  0
   52.9441   13.5907   30.7126 O   0  0  0  0  0  0  0  0  0  0  0  0
   51.8981   14.2495   30.0135 C   0  0  0  0  0  0  0  0  0  0  0  0
   51.9212    9.5346   31.9896 O   0  0  0  0  0  0  0  0  0  0  0  0
   52.5714    8.2944   31.7443 C   0  0  0  0  0  0  0  0  0  0  0  0
 11 12  1  0
  1 12  1  0
  1  2  1  0
  2  3  2  0
  3  4  1  0
  4 13  1  0
 13 14  1  0
  4  7  1  0
  7  8  2  0
  7  9  1  0
  4  5  1  0
  5  6  1  0
  6 15  1  0
 15 16  1  0
  6  1  1  0
  9 10  1  0
M  END
> <minimizedAffinity>
-4.41969

> <CNNscore>
0.5174084902

> <CNNaffinity>
3.6241893768

> <CNN_VS>
1.8751863241

> <CNNaffinity_variance>
1.7985378504

$$$$



 16 16  0  0  0  0  0  0  0  0999 V2000
   54.2082   11.4106   31.9800 C   0  0  0  0  0  0  0  0  0  0  0  0
   54.5907   11.9817   30.6440 C   0  0  0  0  0  0  0  0  0  0  0  0
   53.7728   12.7336   29.8902 C   0  0  0  0  0  0  0  0  0  0  0  0
   52.3761   13.1619   30.2968 C   0  0  0  0  0  0  0  0  0  0  0  0
   52.1722   12.9315   31.8132 C   0  0  0  0  0  0  0  0  0  0  0  0
   52.6965   11.5716   32.2950 C   0  0  0  0  0  0  0  0  0  0  0  0
   51.2897   12.3719   29.4919 C   0  0  0  0  0  0  0  0  0  0  0  0
   51.4855   11.7197   28.4725 O   0  0  0  0  0  0  0  0  0  0  0  0
   50.0461   12.3899   30.0215 O   0  0  0  0  0  0  0  0  0  0  0  0
   49.8756   12.8823   30.8003 H   0  0  0  0  0  0  0  0  0  0  0  0
   54.6120   11.8276   34.2832 C   0  0  0  0  0  0  0  0  0  0  0  0
   54.9994   12.1109   32.9458 O   0  0  0  0  0  0  0  0  0  0  0  0
   52.3624   14.5758   30.0265 O   0  0  0  0  0  0  0  0  0  0  0  0
   52.8975   14.9772   28.7737 C   0  0  0  0  0  0  0  0  0  0  0  0
   51.9091   10.5470   31.6674 O   0  0  0  0  0  0  0  0  0  0  0  0
   52.4131    9.2369   31.8926 C   0  0  0  0  0  0  0  0  0  0  0  0
 11 12  1  0
  1 12  1  0
  1  2  1  0
  2  3  2  0
  3  4  1  0
  4 13  1  0
 13 14  1  0
  4  7  1  0
  7  8  2  0
  7  9  1  0
  4  5  1  0
  5  6  1  0
  6 15  1  0
 15 16  1  0
  6  1  1  0
  9 10  1  0
M  END
> <minimizedAffinity>
-4.14934

> <CNNscore>
0.4064155221

> <CNNaffinity>
3.2720716000

> <CNN_VS>
1.3298206329

> <CNNaffinity_variance>
0.5995610356

$$$$



 16 16  0  0  0  0  0  0  0  0999 V2000
   48.5956    3.3306   21.5777 C   0  0  0  0  0  0  0  0  0  0  0  0
   49.1266    3.3002   20.1727 C   0  0  0  0  0  0  0  0  0  0  0  0
   49.0546    4.3375   19.3232 C   0  0  0  0  0  0  0  0  0  0  0  0
   48.4843    5.6989   19.6709 C   0  0  0  0  0  0  0  0  0  0  0  0
   48.3433    5.8374   21.2056 C   0  0  0  0  0  0  0  0  0  0  0  0
   47.7415    4.5931   21.8732 C   0  0  0  0  0  0  0  0  0  0  0  0
   47.0903    5.9142   18.9910 C   0  0  0  0  0  0  0  0  0  0  0  0
   46.0698    6.2966   19.5526 O   0  0  0  0  0  0  0  0  0  0  0  0
   47.0544    5.6985   17.6570 O   0  0  0  0  0  0  0  0  0  0  0  0
   47.8236    5.4061   17.2089 H   0  0  0  0  0  0  0  0  0  0  0  0
   50.9668    3.2820   21.7071 C   0  0  0  0  0  0  0  0  0  0  0  0
   49.7443    3.2910   22.4311 O   0  0  0  0  0  0  0  0  0  0  0  0
   49.4891    6.6174   19.2028 O   0  0  0  0  0  0  0  0  0  0  0  0
   50.8354    6.1786   19.3116 C   0  0  0  0  0  0  0  0  0  0  0  0
   46.3928    4.4468   21.4007 O   0  0  0  0  0  0  0  0  0  0  0  0
   45.4189    4.6450   22.4173 C   0  0  0  0  0  0  0  0  0  0  0  0
 11 12  1  0
  1 12  1  0
  1  2  1  0
  2  3  2  0
  3  4  1  0
  4 13  1  0
 13 14  1  0
  4  7  1  0
  7  8  2  0
  7  9  1  0
  4  5  1  0
  5  6  1  0
  6 15  1  0
 15 16  1  0
  6  1  1  0
  9 10  1  0
M  END
> <minimizedAffinity>
-5.04152

> <CNNscore>
0.3809530139

> <CNNaffinity>
4.6003184319

> <CNN_VS>
1.7525051832

> <CNNaffinity_variance>
0.4841853678

$$$$



 16 16  0  0  0  0  0  0  0  0999 V2000
   52.6485   12.9490   31.2891 C   0  0  0  0  0  0  0  0  0  0  0  0
   53.3618   13.9988   30.4852 C   0  0  0  0  0  0  0  0  0  0  0  0
   52.8854   14.5176   29.3422 C   0  0  0  0  0  0  0  0  0  0  0  0
   51.5433   14.1669   28.7294 C   0  0  0  0  0  0  0  0  0  0  0  0
   50.6636   13.4303   29.7677 C   0  0  0  0  0  0  0  0  0  0  0  0
   51.4242   12.3484   30.5469 C   0  0  0  0  0  0  0  0  0  0  0  0
   51.7233   13.2700   27.4586 C   0  0  0  0  0  0  0  0  0  0  0  0
   50.9096   13.1409   26.5508 O   0  0  0  0  0  0  0  0  0  0  0  0
   52.9120   12.6339   27.3594 O   0  0  0  0  0  0  0  0  0  0  0  0
   53.5477   12.7197   28.0424 H   0  0  0  0  0  0  0  0  0  0  0  0
   52.6853   12.9205   33.6640 C   0  0  0  0  0  0  0  0  0  0  0  0
   52.2350   13.5955   32.4976 O   0  0  0  0  0  0  0  0  0  0  0  0
   50.9580   15.4494   28.4375 O   0  0  0  0  0  0  0  0  0  0  0  0
   51.8311   16.4226   27.8831 C   0  0  0  0  0  0  0  0  0  0  0  0
   51.8139   11.3255   29.6166 O   0  0  0  0  0  0  0  0  0  0  0  0
   52.5392   10.2639   30.2234 C   0  0  0  0  0  0  0  0  0  0  0  0
 11 12  1  0
  1 12  1  0
  1  2  1  0
  2  3  2  0
  3  4  1  0
  4 13  1  0
 13 14  1  0
  4  7  1  0
  7  8  2  0
  7  9  1  0
  4  5  1  0
  5  6  1  0
  6 15  1  0
 15 16  1  0
  6  1  1  0
  9 10  1  0
M  END
> <minimizedAffinity>
-3.85946

> <CNNscore>
0.3571222723

> <CNNaffinity>
3.5102250576

> <CNN_VS>
1.2535794973

> <CNNaffinity_variance>
0.1755430102

$$$$



 16 16  0  0  0  0  0  0  0  0999 V2000
   54.3603   13.5065   31.6472 C   0  0  0  0  0  0  0  0  0  0  0  0
   53.0288   13.4104   32.3363 C   0  0  0  0  0  0  0  0  0  0  0  0
   52.1399   12.4294   32.1125 C   0  0  0  0  0  0  0  0  0  0  0  0
   52.3693   11.2532   31.1833 C   0  0  0  0  0  0  0  0  0  0  0  0
   53.8711   11.1458   30.8262 C   0  0  0  0  0  0  0  0  0  0  0  0
   54.5084   12.4977   30.4763 C   0  0  0  0  0  0  0  0  0  0  0  0
   51.5241   11.3991   29.8732 C   0  0  0  0  0  0  0  0  0  0  0  0
   50.4791   12.0301   29.7606 O   0  0  0  0  0  0  0  0  0  0  0  0
   52.0455   10.8065   28.7758 O   0  0  0  0  0  0  0  0  0  0  0  0
   52.8434   10.3196   28.8407 H   0  0  0  0  0  0  0  0  0  0  0  0
   55.1040   13.9802   33.8527 C   0  0  0  0  0  0  0  0  0  0  0  0
   55.3427   13.2513   32.6567 O   0  0  0  0  0  0  0  0  0  0  0  0
   51.9887   10.1142   31.9773 O   0  0  0  0  0  0  0  0  0  0  0  0
   52.8386    8.9798   31.8894 C   0  0  0  0  0  0  0  0  0  0  0  0
   53.8874   12.9811   29.2745 O   0  0  0  0  0  0  0  0  0  0  0  0
   54.6255   14.0178   28.6409 C   0  0  0  0  0  0  0  0  0  0  0  0
 11 12  1  0
  1 12  1  0
  1  2  1  0
  2  3  2  0
  3  4  1  0
  4 13  1  0
 13 14  1  0
  4  7  1  0
  7  8  2  0
  7  9  1  0
  4  5  1  0
  5  6  1  0
  6 15  1  0
 15 16  1  0
  6  1  1  0
  9 10  1  0
M  END
> <minimizedAffinity>
-3.80250

> <CNNscore>
0.3486425877

> <CNNaffinity>
3.2068221569

> <CNN_VS>
1.1180347204

> <CNNaffinity_variance>
0.7880613208

$$$$



 16 16  0  0  0  0  0  0  0  0999 V2000
   52.8188   10.5314   30.3071 C   0  0  0  0  0  0  0  0  0  0  0  0
   53.6684   11.1079   31.4039 C   0  0  0  0  0  0  0  0  0  0  0  0
   53.5192   12.3501   31.8910 C   0  0  0  0  0  0  0  0  0  0  0  0
   52.4448   13.3256   31.4512 C   0  0  0  0  0  0  0  0  0  0  0  0
   51.3469   12.5803   30.6553 C   0  0  0  0  0  0  0  0  0  0  0  0
   51.9111   11.5911   29.6261 C   0  0  0  0  0  0  0  0  0  0  0  0
   53.0511   14.4695   30.5704 C   0  0  0  0  0  0  0  0  0  0  0  0
   52.4924   15.5200   30.2752 O   0  0  0  0  0  0  0  0  0  0  0  0
   54.3225   14.2723   30.1558 O   0  0  0  0  0  0  0  0  0  0  0  0
   54.7673   13.4762   30.3710 H   0  0  0  0  0  0  0  0  0  0  0  0
   52.7983    8.6035   31.6944 C   0  0  0  0  0  0  0  0  0  0  0  0
   52.0248    9.5115   30.9223 O   0  0  0  0  0  0  0  0  0  0  0  0
   51.8900   13.8014   32.6916 O   0  0  0  0  0  0  0  0  0  0  0  0
   52.8247   14.2482   33.6629 C   0  0  0  0  0  0  0  0  0  0  0  0
   52.6246   12.3453   28.6333 O   0  0  0  0  0  0  0  0  0  0  0  0
   51.7803   12.8777   27.6210 C   0  0  0  0  0  0  0  0  0  0  0  0
 11 12  1  0
  1 12  1  0
  1  2  1  0
  2  3  2  0
  3  4  1  0
  4 13  1  0
 13 14  1  0
  4  7  1  0
  7  8  2  0
  7  9  1  0
  4  5  1  0
  5  6  1  0
  6 15  1  0
 15 16  1  0
  6  1  1  0
  9 10  1  0
M  END
> <minimizedAffinity>
-3.69737

> <CNNscore>
0.3233099580

> <CNNaffinity>
3.2121803761

> <CNN_VS>
1.0385298729

> <CNNaffinity_variance>
0.7406516075

$$$$



 16 16  0  0  0  0  0  0  0  0999 V2000
   53.7531   13.0893   33.0497 C   0  0  0  0  0  0  0  0  0  0  0  0
   52.7545   11.9865   33.2589 C   0  0  0  0  0  0  0  0  0  0  0  0
   52.5468   10.9897   32.3838 C   0  0  0  0  0  0  0  0  0  0  0  0
   53.3218   10.7985   31.0945 C   0  0  0  0  0  0  0  0  0  0  0  0
   54.5989   11.6721   31.1101 C   0  0  0  0  0  0  0  0  0  0  0  0
   54.3500   13.0996   31.6165 C   0  0  0  0  0  0  0  0  0  0  0  0
   52.4442   11.1683   29.8515 C   0  0  0  0  0  0  0  0  0  0  0  0
   51.2253   11.2988   29.8475 O   0  0  0  0  0  0  0  0  0  0  0  0
   53.1258   11.4068   28.7087 O   0  0  0  0  0  0  0  0  0  0  0  0
   54.0579   11.3128   28.6908 H   0  0  0  0  0  0  0  0  0  0  0  0
   54.7440   13.8179   35.0818 C   0  0  0  0  0  0  0  0  0  0  0  0
   54.7829   12.8739   34.0205 O   0  0  0  0  0  0  0  0  0  0  0  0
   53.6979    9.4093   31.1274 O   0  0  0  0  0  0  0  0  0  0  0  0
   52.7321    8.5134   31.6579 C   0  0  0  0  0  0  0  0  0  0  0  0
   53.4786   13.7546   30.6809 O   0  0  0  0  0  0  0  0  0  0  0  0
   54.1637   14.6356   29.8002 C   0  0  0  0  0  0  0  0  0  0  0  0
 11 12  1  0
  1 12  1  0
  1  2  1  0
  2  3  2  0
  3  4  1  0
  4 13  1  0
 13 14  1  0
  4  7  1  0
  7  8  2  0
  7  9  1  0
  4  5  1  0
  5  6  1  0
  6 15  1  0
 15 16  1  0
  6  1  1  0
  9 10  1  0
M  END
> <minimizedAffinity>
-3.76751

> <CNNscore>
0.3059479892

> <CNNaffinity>
3.1274833679

> <CNN_VS>
0.9568472505

> <CNNaffinity_variance>
0.5150951743

$$$$



 16 16  0  0  0  0  0  0  0  0999 V2000
   53.6528    9.4080   32.0870 C   0  0  0  0  0  0  0  0  0  0  0  0
   52.7968   10.3171   32.9225 C   0  0  0  0  0  0  0  0  0  0  0  0
   52.2538   11.4583   32.4693 C   0  0  0  0  0  0  0  0  0  0  0  0
   52.3747   11.9649   31.0451 C   0  0  0  0  0  0  0  0  0  0  0  0
   52.8807   10.8314   30.1213 C   0  0  0  0  0  0  0  0  0  0  0  0
   54.0473   10.0355   30.7227 C   0  0  0  0  0  0  0  0  0  0  0  0
   53.3503   13.1870   30.9645 C   0  0  0  0  0  0  0  0  0  0  0  0
   53.5342   14.0173   31.8475 O   0  0  0  0  0  0  0  0  0  0  0  0
   54.0755   13.2782   29.8274 O   0  0  0  0  0  0  0  0  0  0  0  0
   53.9501   12.6535   29.1404 H   0  0  0  0  0  0  0  0  0  0  0  0
   53.6508    7.1471   31.3590 C   0  0  0  0  0  0  0  0  0  0  0  0
   52.8818    8.2184   31.8880 O   0  0  0  0  0  0  0  0  0  0  0  0
   51.0206   12.2984   30.6874 O   0  0  0  0  0  0  0  0  0  0  0  0
   50.8650   13.1755   29.5814 C   0  0  0  0  0  0  0  0  0  0  0  0
   55.1694   10.9234   30.8489 O   0  0  0  0  0  0  0  0  0  0  0  0
   56.2767   10.3345   31.5185 C   0  0  0  0  0  0  0  0  0  0  0  0
 11 12  1  0
  1 12  1  0
  1  2  1  0
  2  3  2  0
  3  4  1  0
  4 13  1  0
 13 14  1  0
  4  7  1  0
  7  8  2  0
  7  9  1  0
  4  5  1  0
  5  6  1  0
  6 15  1  0
 15 16  1  0
  6  1  1  0
  9 10  1  0
M  END
> <minimizedAffinity>
-3.72507

> <CNNscore>
0.3056135774

> <CNNaffinity>
2.7701361179

> <CNN_VS>
0.8465912342

> <CNNaffinity_variance>
0.8561087251

$$$$



 16 16  0  0  0  0  0  0  0  0999 V2000
   54.7039   13.8804   29.3921 C   0  0  0  0  0  0  0  0  0  0  0  0
   54.3639   13.1753   28.1098 C   0  0  0  0  0  0  0  0  0  0  0  0
   53.1087   12.9283   27.7022 C   0  0  0  0  0  0  0  0  0  0  0  0
   51.8597   13.3710   28.4394 C   0  0  0  0  0  0  0  0  0  0  0  0
   52.2213   14.4381   29.5000 C   0  0  0  0  0  0  0  0  0  0  0  0
   53.4721   14.0819   30.3154 C   0  0  0  0  0  0  0  0  0  0  0  0
   51.1557   12.1557   29.1318 C   0  0  0  0  0  0  0  0  0  0  0  0
   51.4381   10.9742   28.9669 O   0  0  0  0  0  0  0  0  0  0  0  0
   50.1888   12.4734   30.0214 O   0  0  0  0  0  0  0  0  0  0  0  0
   49.9581   13.3706   30.1621 H   0  0  0  0  0  0  0  0  0  0  0  0
   55.6467   15.9342   30.1237 C   0  0  0  0  0  0  0  0  0  0  0  0
   55.2559   15.1445   29.0090 O   0  0  0  0  0  0  0  0  0  0  0  0
   51.0560   13.9786   27.4111 O   0  0  0  0  0  0  0  0  0  0  0  0
   51.2515   13.4865   26.0934 C   0  0  0  0  0  0  0  0  0  0  0  0
   53.1798   12.9011   31.0796 O   0  0  0  0  0  0  0  0  0  0  0  0
   54.3231   12.3539   31.7234 C   0  0  0  0  0  0  0  0  0  0  0  0
 11 12  1  0
  1 12  1  0
  1  2  1  0
  2  3  2  0
  3  4  1  0
  4 13  1  0
 13 14  1  0
  4  7  1  0
  7  8  2  0
  7  9  1  0
  4  5  1  0
  5  6  1  0
  6 15  1  0
 15 16  1  0
  6  1  1  0
  9 10  1  0
M  END
> <minimizedAffinity>
-3.33783

> <CNNscore>
0.3014590740

> <CNNaffinity>
2.9953601360

> <CNN_VS>
0.9029784799

> <CNNaffinity_variance>
0.3657986820

$$$$
