


 23 26  0  0  0  0  0  0  0  0999 V2000
  -71.3485  -50.6592  -71.9497 C   0  0  0  0  0  0  0  0  0  0  0  0
  -70.4655  -50.0447  -71.3623 O   0  0  0  0  0  0  0  0  0  0  0  0
  -71.5367  -52.1010  -71.8116 C   0  0  0  0  0  0  0  0  0  0  0  0
  -70.9968  -52.8449  -70.7739 C   0  0  0  0  0  0  0  0  0  0  0  0
  -71.3554  -54.1524  -70.9346 N   0  0  0  0  0  0  0  0  0  0  0  0
  -72.1259  -54.2954  -72.0640 C   0  0  0  0  0  0  0  0  0  0  0  0
  -72.7075  -55.4477  -72.6107 C   0  0  0  0  0  0  0  0  0  0  0  0
  -73.4514  -55.3012  -73.7832 C   0  0  0  0  0  0  0  0  0  0  0  0
  -74.1854  -56.6891  -74.4927 Cl  0  0  0  0  0  0  0  0  0  0  0  0
  -73.6105  -54.0590  -74.3871 C   0  0  0  0  0  0  0  0  0  0  0  0
  -73.0214  -52.9185  -73.8259 C   0  0  0  0  0  0  0  0  0  0  0  0
  -72.2606  -53.0275  -72.6392 C   0  0  0  0  0  0  0  0  0  0  0  0
  -71.0995  -54.8859  -70.3298 H   0  0  0  0  0  0  0  0  0  0  0  0
  -72.2494  -50.0863  -72.7974 O   0  0  0  0  0  0  0  0  0  0  0  0
  -70.5586  -44.9420  -73.9120 C   0  0  0  0  0  0  0  0  0  0  0  0
  -71.0026  -46.2969  -73.5924 N   0  0  0  0  0  0  0  0  0  0  0  0
  -71.8121  -46.3584  -72.3611 C   0  0  0  0  0  0  0  0  0  0  0  0
  -70.7895  -46.3104  -71.2203 C   0  0  0  0  0  0  0  0  0  0  0  0
  -69.5104  -46.8705  -71.8286 C   0  0  0  0  0  0  0  0  0  0  0  0
  -69.8872  -47.2067  -73.2757 C   0  0  0  0  0  0  0  0  0  0  0  0
  -70.4097  -48.6512  -73.3847 C   0  0  0  0  0  0  0  0  0  0  0  0
  -71.9396  -48.7605  -73.2730 C   0  0  0  0  0  0  0  0  0  0  0  0
  -72.5734  -47.6974  -72.3601 C   0  0  0  0  0  0  0  0  0  0  0  0
 15 16  1  0
 16 17  1  0
 17 18  1  0
 18 19  1  0
 20 19  1  0
 20 21  1  0
 21 22  1  0
 22 14  1  0
 14  1  1  0
  1  2  2  0
  1  3  1  0
  3  4  2  0
  4  5  1  0
  5  6  1  0
  6  7  2  0
  7  8  1  0
  8  9  1  0
  8 10  2  0
 10 11  1  0
 11 12  2  0
 22 23  1  0
 20 16  1  0
 12  3  1  0
 23 17  1  0
 12  6  1  0
  5 13  1  0
M  END
> <minimizedAffinity>
-7.54038

> <CNNscore>
0.9544757009

> <CNNaffinity>
7.0762329102

> <CNN_VS>
6.7540922165

> <CNNaffinity_variance>
0.1015053391

$$$$



 23 26  0  0  0  0  0  0  0  0999 V2000
  -72.7171  -50.1386  -73.5244 C   0  0  0  0  0  0  0  0  0  0  0  0
  -72.1959  -49.9799  -72.4264 O   0  0  0  0  0  0  0  0  0  0  0  0
  -72.8735  -51.4515  -74.1448 C   0  0  0  0  0  0  0  0  0  0  0  0
  -73.1658  -51.6306  -75.4880 C   0  0  0  0  0  0  0  0  0  0  0  0
  -73.2456  -52.9686  -75.7481 N   0  0  0  0  0  0  0  0  0  0  0  0
  -73.0124  -53.6876  -74.5998 C   0  0  0  0  0  0  0  0  0  0  0  0
  -72.9953  -55.0750  -74.4006 C   0  0  0  0  0  0  0  0  0  0  0  0
  -72.7264  -55.5386  -73.1113 C   0  0  0  0  0  0  0  0  0  0  0  0
  -72.6949  -57.2360  -72.8173 Cl  0  0  0  0  0  0  0  0  0  0  0  0
  -72.4841  -54.6581  -72.0630 C   0  0  0  0  0  0  0  0  0  0  0  0
  -72.5055  -53.2744  -72.2816 C   0  0  0  0  0  0  0  0  0  0  0  0
  -72.7745  -52.7673  -73.5736 C   0  0  0  0  0  0  0  0  0  0  0  0
  -73.4415  -53.3612  -76.6294 H   0  0  0  0  0  0  0  0  0  0  0  0
  -73.2041  -49.1264  -74.2967 O   0  0  0  0  0  0  0  0  0  0  0  0
  -69.8662  -44.7646  -73.6655 C   0  0  0  0  0  0  0  0  0  0  0  0
  -70.7455  -45.9228  -73.8075 N   0  0  0  0  0  0  0  0  0  0  0  0
  -71.5990  -46.1419  -72.6248 C   0  0  0  0  0  0  0  0  0  0  0  0
  -70.6830  -46.8288  -71.6058 C   0  0  0  0  0  0  0  0  0  0  0  0
  -69.6246  -47.5258  -72.4508 C   0  0  0  0  0  0  0  0  0  0  0  0
  -70.0081  -47.1957  -73.8975 C   0  0  0  0  0  0  0  0  0  0  0  0
  -70.9666  -48.2583  -74.4666 C   0  0  0  0  0  0  0  0  0  0  0  0
  -72.4520  -47.8958  -74.3023 C   0  0  0  0  0  0  0  0  0  0  0  0
  -72.7545  -47.0722  -73.0392 C   0  0  0  0  0  0  0  0  0  0  0  0
 15 16  1  0
 16 17  1  0
 17 18  1  0
 18 19  1  0
 20 19  1  0
 20 21  1  0
 21 22  1  0
 22 14  1  0
 14  1  1  0
  1  2  2  0
  1  3  1  0
  3  4  2  0
  4  5  1  0
  5  6  1  0
  6  7  2  0
  7  8  1  0
  8  9  1  0
  8 10  2  0
 10 11  1  0
 11 12  2  0
 22 23  1  0
 20 16  1  0
 12  3  1  0
 23 17  1  0
 12  6  1  0
  5 13  1  0
M  END
> <minimizedAffinity>
-7.84653

> <CNNscore>
0.9201138616

> <CNNaffinity>
7.1483383179

> <CNN_VS>
6.5772852898

> <CNNaffinity_variance>
0.3268814981

$$$$



 23 26  0  0  0  0  0  0  0  0999 V2000
  -72.5522  -50.5652  -73.1039 C   0  0  0  0  0  0  0  0  0  0  0  0
  -72.5309  -50.0458  -74.2140 O   0  0  0  0  0  0  0  0  0  0  0  0
  -72.4104  -52.0045  -72.8998 C   0  0  0  0  0  0  0  0  0  0  0  0
  -73.0866  -52.9520  -73.6525 C   0  0  0  0  0  0  0  0  0  0  0  0
  -72.7368  -54.1966  -73.2134 N   0  0  0  0  0  0  0  0  0  0  0  0
  -71.8379  -54.0968  -72.1781 C   0  0  0  0  0  0  0  0  0  0  0  0
  -71.2169  -55.1076  -71.4315 C   0  0  0  0  0  0  0  0  0  0  0  0
  -70.3335  -54.7155  -70.4237 C   0  0  0  0  0  0  0  0  0  0  0  0
  -69.5461  -55.9222  -69.4790 Cl  0  0  0  0  0  0  0  0  0  0  0  0
  -70.0781  -53.3728  -70.1693 C   0  0  0  0  0  0  0  0  0  0  0  0
  -70.7085  -52.3766  -70.9262 C   0  0  0  0  0  0  0  0  0  0  0  0
  -71.6097  -52.7349  -71.9550 C   0  0  0  0  0  0  0  0  0  0  0  0
  -73.0784  -55.0422  -73.5842 H   0  0  0  0  0  0  0  0  0  0  0  0
  -72.7140  -49.8783  -71.9376 O   0  0  0  0  0  0  0  0  0  0  0  0
  -69.7930  -45.1954  -72.2611 C   0  0  0  0  0  0  0  0  0  0  0  0
  -70.5544  -46.4409  -72.1976 N   0  0  0  0  0  0  0  0  0  0  0  0
  -69.7961  -47.6016  -72.7005 C   0  0  0  0  0  0  0  0  0  0  0  0
  -69.8916  -47.4971  -74.2267 C   0  0  0  0  0  0  0  0  0  0  0  0
  -71.1778  -46.7208  -74.4778 C   0  0  0  0  0  0  0  0  0  0  0  0
  -71.7357  -46.4371  -73.0789 C   0  0  0  0  0  0  0  0  0  0  0  0
  -72.6709  -47.5718  -72.6212 C   0  0  0  0  0  0  0  0  0  0  0  0
  -71.9604  -48.6569  -71.7949 C   0  0  0  0  0  0  0  0  0  0  0  0
  -70.4916  -48.8789  -72.1930 C   0  0  0  0  0  0  0  0  0  0  0  0
 15 16  1  0
 16 17  1  0
 17 18  1  0
 18 19  1  0
 20 19  1  0
 20 21  1  0
 21 22  1  0
 22 14  1  0
 14  1  1  0
  1  2  2  0
  1  3  1  0
  3  4  2  0
  4  5  1  0
  5  6  1  0
  6  7  2  0
  7  8  1  0
  8  9  1  0
  8 10  2  0
 10 11  1  0
 11 12  2  0
 22 23  1  0
 20 16  1  0
 12  3  1  0
 23 17  1  0
 12  6  1  0
  5 13  1  0
M  END
> <minimizedAffinity>
-7.31885

> <CNNscore>
0.8638899922

> <CNNaffinity>
6.9674181938

> <CNN_VS>
6.0190830231

> <CNNaffinity_variance>
0.2435578704

$$$$



 23 26  0  0  0  0  0  0  0  0999 V2000
  -72.1841  -51.4070  -72.3050 C   0  0  0  0  0  0  0  0  0  0  0  0
  -71.6751  -51.7334  -71.2388 O   0  0  0  0  0  0  0  0  0  0  0  0
  -72.6268  -52.3783  -73.3019 C   0  0  0  0  0  0  0  0  0  0  0  0
  -73.0067  -52.0313  -74.5891 C   0  0  0  0  0  0  0  0  0  0  0  0
  -73.3639  -53.1629  -75.2644 N   0  0  0  0  0  0  0  0  0  0  0  0
  -73.2300  -54.2615  -74.4490 C   0  0  0  0  0  0  0  0  0  0  0  0
  -73.4824  -55.6134  -74.7203 C   0  0  0  0  0  0  0  0  0  0  0  0
  -73.2563  -56.5311  -73.6925 C   0  0  0  0  0  0  0  0  0  0  0  0
  -73.5526  -58.2041  -73.9783 Cl  0  0  0  0  0  0  0  0  0  0  0  0
  -72.7976  -56.1208  -72.4458 C   0  0  0  0  0  0  0  0  0  0  0  0
  -72.5510  -54.7649  -72.1935 C   0  0  0  0  0  0  0  0  0  0  0  0
  -72.7686  -53.8061  -73.2095 C   0  0  0  0  0  0  0  0  0  0  0  0
  -73.6724  -53.1883  -76.1990 H   0  0  0  0  0  0  0  0  0  0  0  0
  -72.3934  -50.1170  -72.6930 O   0  0  0  0  0  0  0  0  0  0  0  0
  -69.6403  -45.7516  -70.7110 C   0  0  0  0  0  0  0  0  0  0  0  0
  -70.3598  -46.8994  -71.2584 N   0  0  0  0  0  0  0  0  0  0  0  0
  -69.6394  -47.5501  -72.3687 C   0  0  0  0  0  0  0  0  0  0  0  0
  -69.9164  -46.6612  -73.5862 C   0  0  0  0  0  0  0  0  0  0  0  0
  -71.2409  -45.9792  -73.2692 C   0  0  0  0  0  0  0  0  0  0  0  0
  -71.6365  -46.5269  -71.8935 C   0  0  0  0  0  0  0  0  0  0  0  0
  -72.4846  -47.8044  -72.0353 C   0  0  0  0  0  0  0  0  0  0  0  0
  -71.6568  -49.0994  -71.9846 C   0  0  0  0  0  0  0  0  0  0  0  0
  -70.2404  -48.9545  -72.5660 C   0  0  0  0  0  0  0  0  0  0  0  0
 15 16  1  0
 16 17  1  0
 17 18  1  0
 18 19  1  0
 20 19  1  0
 20 21  1  0
 21 22  1  0
 22 14  1  0
 14  1  1  0
  1  2  2  0
  1  3  1  0
  3  4  2  0
  4  5  1  0
  5  6  1  0
  6  7  2  0
  7  8  1  0
  8  9  1  0
  8 10  2  0
 10 11  1  0
 11 12  2  0
 22 23  1  0
 20 16  1  0
 12  3  1  0
 23 17  1  0
 12  6  1  0
  5 13  1  0
M  END
> <minimizedAffinity>
-7.81363

> <CNNscore>
0.8591218591

> <CNNaffinity>
6.8119549751

> <CNN_VS>
5.8522992134

> <CNNaffinity_variance>
0.0973713323

$$$$



 23 26  0  0  0  0  0  0  0  0999 V2000
  -68.7238  -44.6380  -68.7899 C   0  0  0  0  0  0  0  0  0  0  0  0
  -69.7583  -44.2246  -68.2787 O   0  0  0  0  0  0  0  0  0  0  0  0
  -67.4586  -44.7179  -68.0646 C   0  0  0  0  0  0  0  0  0  0  0  0
  -66.3936  -45.5058  -68.4729 C   0  0  0  0  0  0  0  0  0  0  0  0
  -65.3683  -45.3579  -67.5835 N   0  0  0  0  0  0  0  0  0  0  0  0
  -65.7308  -44.4843  -66.5859 C   0  0  0  0  0  0  0  0  0  0  0  0
  -65.0003  -44.0425  -65.4742 C   0  0  0  0  0  0  0  0  0  0  0  0
  -65.6232  -43.1399  -64.6098 C   0  0  0  0  0  0  0  0  0  0  0  0
  -64.7652  -42.5685  -63.2293 Cl  0  0  0  0  0  0  0  0  0  0  0  0
  -66.9197  -42.6949  -64.8421 C   0  0  0  0  0  0  0  0  0  0  0  0
  -67.6341  -43.1480  -65.9588 C   0  0  0  0  0  0  0  0  0  0  0  0
  -67.0367  -44.0624  -66.8564 C   0  0  0  0  0  0  0  0  0  0  0  0
  -64.4965  -45.8108  -67.6473 H   0  0  0  0  0  0  0  0  0  0  0  0
  -68.6219  -45.0635  -70.0810 O   0  0  0  0  0  0  0  0  0  0  0  0
  -72.7665  -47.0529  -73.1519 C   0  0  0  0  0  0  0  0  0  0  0  0
  -71.6578  -46.5226  -72.3617 N   0  0  0  0  0  0  0  0  0  0  0  0
  -70.9806  -45.3872  -73.0154 C   0  0  0  0  0  0  0  0  0  0  0  0
  -70.0654  -46.0308  -74.0630 C   0  0  0  0  0  0  0  0  0  0  0  0
  -69.7863  -47.4270  -73.5220 C   0  0  0  0  0  0  0  0  0  0  0  0
  -70.5562  -47.4879  -72.1981 C   0  0  0  0  0  0  0  0  0  0  0  0
  -69.6759  -47.0074  -71.0295 C   0  0  0  0  0  0  0  0  0  0  0  0
  -69.8382  -45.5111  -70.7138 C   0  0  0  0  0  0  0  0  0  0  0  0
  -70.1555  -44.6471  -71.9459 C   0  0  0  0  0  0  0  0  0  0  0  0
 15 16  1  0
 16 17  1  0
 17 18  1  0
 18 19  1  0
 20 19  1  0
 20 21  1  0
 21 22  1  0
 22 14  1  0
 14  1  1  0
  1  2  2  0
  1  3  1  0
  3  4  2  0
  4  5  1  0
  5  6  1  0
  6  7  2  0
  7  8  1  0
  8  9  1  0
  8 10  2  0
 10 11  1  0
 11 12  2  0
 22 23  1  0
 20 16  1  0
 12  3  1  0
 23 17  1  0
 12  6  1  0
  5 13  1  0
M  END
> <minimizedAffinity>
-8.37829

> <CNNscore>
0.8408510089

> <CNNaffinity>
6.7050876617

> <CNN_VS>
5.6379795074

> <CNNaffinity_variance>
0.3728864193

$$$$



 23 26  0  0  0  0  0  0  0  0999 V2000
  -72.9492  -49.5260  -74.9734 C   0  0  0  0  0  0  0  0  0  0  0  0
  -74.0681  -49.2517  -75.3920 O   0  0  0  0  0  0  0  0  0  0  0  0
  -72.7160  -50.5161  -73.9253 C   0  0  0  0  0  0  0  0  0  0  0  0
  -72.2835  -50.1890  -72.6495 C   0  0  0  0  0  0  0  0  0  0  0  0
  -72.1640  -51.3346  -71.9164 N   0  0  0  0  0  0  0  0  0  0  0  0
  -72.5087  -52.4232  -72.6819 C   0  0  0  0  0  0  0  0  0  0  0  0
  -72.5330  -53.7834  -72.3438 C   0  0  0  0  0  0  0  0  0  0  0  0
  -72.9304  -54.6868  -73.3314 C   0  0  0  0  0  0  0  0  0  0  0  0
  -72.9759  -56.3694  -72.9632 Cl  0  0  0  0  0  0  0  0  0  0  0  0
  -73.2894  -54.2550  -74.6033 C   0  0  0  0  0  0  0  0  0  0  0  0
  -73.2587  -52.8911  -74.9225 C   0  0  0  0  0  0  0  0  0  0  0  0
  -72.8613  -51.9463  -73.9487 C   0  0  0  0  0  0  0  0  0  0  0  0
  -71.8733  -51.3752  -70.9767 H   0  0  0  0  0  0  0  0  0  0  0  0
  -71.7987  -48.9477  -75.4211 O   0  0  0  0  0  0  0  0  0  0  0  0
  -70.3605  -44.3953  -72.6331 C   0  0  0  0  0  0  0  0  0  0  0  0
  -70.7476  -45.6094  -73.3479 N   0  0  0  0  0  0  0  0  0  0  0  0
  -71.9422  -46.2558  -72.7730 C   0  0  0  0  0  0  0  0  0  0  0  0
  -71.4217  -47.0158  -71.5479 C   0  0  0  0  0  0  0  0  0  0  0  0
  -69.9578  -47.2941  -71.8631 C   0  0  0  0  0  0  0  0  0  0  0  0
  -69.7389  -46.6795  -73.2499 C   0  0  0  0  0  0  0  0  0  0  0  0
  -70.0317  -47.7083  -74.3579 C   0  0  0  0  0  0  0  0  0  0  0  0
  -71.4752  -47.6485  -74.8849 C   0  0  0  0  0  0  0  0  0  0  0  0
  -72.5070  -47.2297  -73.8242 C   0  0  0  0  0  0  0  0  0  0  0  0
 15 16  1  0
 16 17  1  0
 17 18  1  0
 18 19  1  0
 20 19  1  0
 20 21  1  0
 21 22  1  0
 22 14  1  0
 14  1  1  0
  1  2  2  0
  1  3  1  0
  3  4  2  0
  4  5  1  0
  5  6  1  0
  6  7  2  0
  7  8  1  0
  8  9  1  0
  8 10  2  0
 10 11  1  0
 11 12  2  0
 22 23  1  0
 20 16  1  0
 12  3  1  0
 23 17  1  0
 12  6  1  0
  5 13  1  0
M  END
> <minimizedAffinity>
-7.96267

> <CNNscore>
0.8403947353

> <CNNaffinity>
7.1169190407

> <CNN_VS>
5.9810214043

> <CNNaffinity_variance>
0.1727545261

$$$$



 23 26  0  0  0  0  0  0  0  0999 V2000
  -71.2339  -51.3808  -71.3403 C   0  0  0  0  0  0  0  0  0  0  0  0
  -70.1511  -51.1052  -70.8363 O   0  0  0  0  0  0  0  0  0  0  0  0
  -71.6132  -52.7426  -71.7075 C   0  0  0  0  0  0  0  0  0  0  0  0
  -72.6513  -53.0370  -72.5778 C   0  0  0  0  0  0  0  0  0  0  0  0
  -72.7465  -54.3927  -72.7091 N   0  0  0  0  0  0  0  0  0  0  0  0
  -71.7892  -55.0101  -71.9396 C   0  0  0  0  0  0  0  0  0  0  0  0
  -71.5214  -56.3755  -71.7695 C   0  0  0  0  0  0  0  0  0  0  0  0
  -70.4736  -56.7262  -70.9158 C   0  0  0  0  0  0  0  0  0  0  0  0
  -70.1067  -58.3923  -70.6748 Cl  0  0  0  0  0  0  0  0  0  0  0  0
  -69.7228  -55.7582  -70.2583 C   0  0  0  0  0  0  0  0  0  0  0  0
  -70.0056  -54.3983  -70.4409 C   0  0  0  0  0  0  0  0  0  0  0  0
  -71.0592  -54.0045  -71.2974 C   0  0  0  0  0  0  0  0  0  0  0  0
  -73.4048  -54.8599  -73.2727 H   0  0  0  0  0  0  0  0  0  0  0  0
  -72.2044  -50.4662  -71.6231 O   0  0  0  0  0  0  0  0  0  0  0  0
  -70.3457  -45.9433  -74.2026 C   0  0  0  0  0  0  0  0  0  0  0  0
  -70.8368  -47.1258  -73.4987 N   0  0  0  0  0  0  0  0  0  0  0  0
  -71.7788  -46.7956  -72.4130 C   0  0  0  0  0  0  0  0  0  0  0  0
  -70.8888  -46.3424  -71.2502 C   0  0  0  0  0  0  0  0  0  0  0  0
  -69.5560  -47.0382  -71.4941 C   0  0  0  0  0  0  0  0  0  0  0  0
  -69.7733  -47.8474  -72.7774 C   0  0  0  0  0  0  0  0  0  0  0  0
  -70.2957  -49.2593  -72.4533 C   0  0  0  0  0  0  0  0  0  0  0  0
  -71.8296  -49.3667  -72.4779 C   0  0  0  0  0  0  0  0  0  0  0  0
  -72.5496  -48.0779  -72.0470 C   0  0  0  0  0  0  0  0  0  0  0  0
 15 16  1  0
 16 17  1  0
 17 18  1  0
 18 19  1  0
 20 19  1  0
 20 21  1  0
 21 22  1  0
 22 14  1  0
 14  1  1  0
  1  2  2  0
  1  3  1  0
  3  4  2  0
  4  5  1  0
  5  6  1  0
  6  7  2  0
  7  8  1  0
  8  9  1  0
  8 10  2  0
 10 11  1  0
 11 12  2  0
 22 23  1  0
 20 16  1  0
 12  3  1  0
 23 17  1  0
 12  6  1  0
  5 13  1  0
M  END
> <minimizedAffinity>
-7.63067

> <CNNscore>
0.7668703198

> <CNNaffinity>
6.6611881256

> <CNN_VS>
5.1082673073

> <CNNaffinity_variance>
0.4391719103

$$$$



 23 26  0  0  0  0  0  0  0  0999 V2000
  -68.0951  -45.7642  -68.9925 C   0  0  0  0  0  0  0  0  0  0  0  0
  -68.0394  -46.9772  -68.8255 O   0  0  0  0  0  0  0  0  0  0  0  0
  -67.7334  -44.8039  -67.9532 C   0  0  0  0  0  0  0  0  0  0  0  0
  -68.6651  -44.0775  -67.2280 C   0  0  0  0  0  0  0  0  0  0  0  0
  -68.0064  -43.2746  -66.3417 N   0  0  0  0  0  0  0  0  0  0  0  0
  -66.6485  -43.4515  -66.4631 C   0  0  0  0  0  0  0  0  0  0  0  0
  -65.6001  -42.8398  -65.7620 C   0  0  0  0  0  0  0  0  0  0  0  0
  -64.2966  -43.2139  -66.0946 C   0  0  0  0  0  0  0  0  0  0  0  0
  -62.9747  -42.4892  -65.2603 Cl  0  0  0  0  0  0  0  0  0  0  0  0
  -64.0462  -44.1581  -67.0839 C   0  0  0  0  0  0  0  0  0  0  0  0
  -65.1074  -44.7586  -67.7739 C   0  0  0  0  0  0  0  0  0  0  0  0
  -66.4410  -44.4051  -67.4652 C   0  0  0  0  0  0  0  0  0  0  0  0
  -68.4405  -42.6588  -65.7080 H   0  0  0  0  0  0  0  0  0  0  0  0
  -68.5005  -45.1660  -70.1484 O   0  0  0  0  0  0  0  0  0  0  0  0
  -72.7962  -47.1140  -73.0324 C   0  0  0  0  0  0  0  0  0  0  0  0
  -71.6498  -46.5919  -72.2921 N   0  0  0  0  0  0  0  0  0  0  0  0
  -71.0963  -45.3613  -72.8875 C   0  0  0  0  0  0  0  0  0  0  0  0
  -70.2475  -45.8477  -74.0675 C   0  0  0  0  0  0  0  0  0  0  0  0
  -69.8465  -47.2681  -73.6912 C   0  0  0  0  0  0  0  0  0  0  0  0
  -70.4882  -47.4985  -72.3186 C   0  0  0  0  0  0  0  0  0  0  0  0
  -69.5318  -47.0750  -71.1883 C   0  0  0  0  0  0  0  0  0  0  0  0
  -69.7439  -45.6271  -70.7154 C   0  0  0  0  0  0  0  0  0  0  0  0
  -70.2175  -44.6740  -71.8255 C   0  0  0  0  0  0  0  0  0  0  0  0
 15 16  1  0
 16 17  1  0
 17 18  1  0
 18 19  1  0
 20 19  1  0
 20 21  1  0
 21 22  1  0
 22 14  1  0
 14  1  1  0
  1  2  2  0
  1  3  1  0
  3  4  2  0
  4  5  1  0
  5  6  1  0
  6  7  2  0
  7  8  1  0
  8  9  1  0
  8 10  2  0
 10 11  1  0
 11 12  2  0
 22 23  1  0
 20 16  1  0
 12  3  1  0
 23 17  1  0
 12  6  1  0
  5 13  1  0
M  END
> <minimizedAffinity>
-8.48154

> <CNNscore>
0.7571326494

> <CNNaffinity>
6.5482926369

> <CNN_VS>
4.9579262733

> <CNNaffinity_variance>
0.2791923583

$$$$



 23 26  0  0  0  0  0  0  0  0999 V2000
  -70.3241  -51.8889  -70.9424 C   0  0  0  0  0  0  0  0  0  0  0  0
  -69.7893  -51.3647  -69.9720 O   0  0  0  0  0  0  0  0  0  0  0  0
  -70.4405  -53.3366  -71.0971 C   0  0  0  0  0  0  0  0  0  0  0  0
  -69.4769  -54.2307  -70.6569 C   0  0  0  0  0  0  0  0  0  0  0  0
  -69.8848  -55.5000  -70.9513 N   0  0  0  0  0  0  0  0  0  0  0  0
  -71.1056  -55.4692  -71.5825 C   0  0  0  0  0  0  0  0  0  0  0  0
  -71.8929  -56.5260  -72.0605 C   0  0  0  0  0  0  0  0  0  0  0  0
  -73.1075  -56.2022  -72.6684 C   0  0  0  0  0  0  0  0  0  0  0  0
  -74.1096  -57.4672  -73.2718 Cl  0  0  0  0  0  0  0  0  0  0  0  0
  -73.5222  -54.8814  -72.7953 C   0  0  0  0  0  0  0  0  0  0  0  0
  -72.7216  -53.8385  -72.3114 C   0  0  0  0  0  0  0  0  0  0  0  0
  -71.4848  -54.1271  -71.6901 C   0  0  0  0  0  0  0  0  0  0  0  0
  -69.3785  -56.3179  -70.7421 H   0  0  0  0  0  0  0  0  0  0  0  0
  -70.8648  -51.1995  -71.9868 O   0  0  0  0  0  0  0  0  0  0  0  0
  -71.0601  -45.6883  -72.3792 C   0  0  0  0  0  0  0  0  0  0  0  0
  -70.9966  -47.1458  -72.2982 N   0  0  0  0  0  0  0  0  0  0  0  0
  -69.7530  -47.6972  -72.8680 C   0  0  0  0  0  0  0  0  0  0  0  0
  -69.9809  -47.6853  -74.3837 C   0  0  0  0  0  0  0  0  0  0  0  0
  -71.4937  -47.7577  -74.5443 C   0  0  0  0  0  0  0  0  0  0  0  0
  -72.0311  -47.8114  -73.1100 C   0  0  0  0  0  0  0  0  0  0  0  0
  -72.1500  -49.2676  -72.6232 C   0  0  0  0  0  0  0  0  0  0  0  0
  -70.9091  -49.7634  -71.8620 C   0  0  0  0  0  0  0  0  0  0  0  0
  -69.5909  -49.1380  -72.3484 C   0  0  0  0  0  0  0  0  0  0  0  0
 15 16  1  0
 16 17  1  0
 17 18  1  0
 18 19  1  0
 20 19  1  0
 20 21  1  0
 21 22  1  0
 22 14  1  0
 14  1  1  0
  1  2  2  0
  1  3  1  0
  3  4  2  0
  4  5  1  0
  5  6  1  0
  6  7  2  0
  7  8  1  0
  8  9  1  0
  8 10  2  0
 10 11  1  0
 11 12  2  0
 22 23  1  0
 20 16  1  0
 12  3  1  0
 23 17  1  0
 12  6  1  0
  5 13  1  0
M  END
> <minimizedAffinity>
-7.91111

> <CNNscore>
0.6870201230

> <CNNaffinity>
6.6641726494

> <CNN_VS>
4.5784206390

> <CNNaffinity_variance>
0.3695290983

$$$$
