


 26 27  0  0  0  0  0  0  0  0999 V2000
   33.2757   23.0024   28.6089 C   0  0  0  0  0  0  0  0  0  0  0  0
   33.3196   21.5731   28.5354 O   0  0  0  0  0  0  0  0  0  0  0  0
   32.3455   21.0418   27.6383 C   0  0  0  0  0  0  0  0  0  0  0  0
   32.7332   21.3811   26.1850 C   0  0  0  0  0  0  0  0  0  0  0  0
   31.6088   21.1837   25.3200 O   0  0  0  0  0  0  0  0  0  0  0  0
   33.2541   22.8292   26.0641 C   0  0  0  0  0  0  0  0  0  0  0  0
   34.6822   22.8296   25.9062 O   0  0  0  0  0  0  0  0  0  0  0  0
   32.8536   23.6898   27.2741 C   0  0  0  0  0  0  0  0  0  0  0  0
   31.4283   23.8900   27.2753 O   0  0  0  0  0  0  0  0  0  0  0  0
   30.8891   21.7779   25.5845 H   0  0  0  0  0  0  0  0  0  0  0  0
   35.0943   22.4364   26.6914 H   0  0  0  0  0  0  0  0  0  0  0  0
   30.9814   23.0319   27.3448 H   0  0  0  0  0  0  0  0  0  0  0  0
   33.9404   25.0895   30.3502 O   0  0  0  0  0  0  0  0  0  0  0  0
   34.8237   24.3361   29.9606 C   0  0  0  0  0  0  0  0  0  0  0  0
   34.6124   23.3343   29.0383 N   0  0  0  0  0  0  0  0  0  0  0  0
   35.3802   22.8408   28.6692 H   0  0  0  0  0  0  0  0  0  0  0  0
   36.2028   24.4457   30.5142 C   0  0  0  0  0  0  0  0  0  0  0  0
   37.1043   23.3709   30.4832 C   0  0  0  0  0  0  0  0  0  0  0  0
   38.3890   23.5238   31.0114 C   0  0  0  0  0  0  0  0  0  0  0  0
   38.7684   24.7451   31.5591 C   0  0  0  0  0  0  0  0  0  0  0  0
   40.0007   24.8859   32.0634 F   0  0  0  0  0  0  0  0  0  0  0  0
   37.8907   25.8226   31.5840 C   0  0  0  0  0  0  0  0  0  0  0  0
   36.6063   25.6753   31.0564 C   0  0  0  0  0  0  0  0  0  0  0  0
   32.2581   19.5227   27.8327 C   0  0  0  0  0  0  0  0  0  0  0  0
   33.2179   18.8474   27.0228 O   0  0  0  0  0  0  0  0  0  0  0  0
   33.0464   19.0420   26.0882 H   0  0  0  0  0  0  0  0  0  0  0  0
 13 14  2  0
 14 15  1  0
  1 15  1  0
  1  2  1  0
  2  3  1  0
  3 24  1  0
 24 25  1  0
  3  4  1  0
  4  5  1  0
  4  6  1  0
  6  7  1  0
  6  8  1  0
  8  9  1  0
 14 17  1  0
 17 18  2  0
 18 19  1  0
 19 20  2  0
 20 21  1  0
 20 22  1  0
 22 23  2  0
  8  1  1  0
 23 17  1  0
 15 16  1  0
 25 26  1  0
  5 10  1  0
  7 11  1  0
  9 12  1  0
M  END
> <minimizedAffinity>
-9.10935

> <CNNscore>
0.8963835239

> <CNNaffinity>
4.2991313934

> <CNN_VS>
3.8536705971

> <CNNaffinity_variance>
0.5143230557

$$$$



 26 27  0  0  0  0  0  0  0  0999 V2000
   44.4571   30.3641   19.7002 C   0  0  0  0  0  0  0  0  0  0  0  0
   43.3187   31.0846   19.2152 O   0  0  0  0  0  0  0  0  0  0  0  0
   43.3612   32.4689   19.5583 C   0  0  0  0  0  0  0  0  0  0  0  0
   44.4690   33.1739   18.7500 C   0  0  0  0  0  0  0  0  0  0  0  0
   44.7656   34.4474   19.3344 O   0  0  0  0  0  0  0  0  0  0  0  0
   45.7460   32.3101   18.6716 C   0  0  0  0  0  0  0  0  0  0  0  0
   45.8696   31.7276   17.3640 O   0  0  0  0  0  0  0  0  0  0  0  0
   45.7662   31.2106   19.7466 C   0  0  0  0  0  0  0  0  0  0  0  0
   45.8964   31.8091   21.0490 O   0  0  0  0  0  0  0  0  0  0  0  0
   45.0903   34.3201   20.2395 H   0  0  0  0  0  0  0  0  0  0  0  0
   45.1128   31.1444   17.1970 H   0  0  0  0  0  0  0  0  0  0  0  0
   45.1376   32.3900   21.2152 H   0  0  0  0  0  0  0  0  0  0  0  0
   45.2588   27.7770   20.4033 O   0  0  0  0  0  0  0  0  0  0  0  0
   44.8574   27.9865   19.2655 C   0  0  0  0  0  0  0  0  0  0  0  0
   44.5219   29.2392   18.7994 N   0  0  0  0  0  0  0  0  0  0  0  0
   44.3246   29.3675   17.8434 H   0  0  0  0  0  0  0  0  0  0  0  0
   44.6690   26.8544   18.3151 C   0  0  0  0  0  0  0  0  0  0  0  0
   45.7227   26.3557   17.5341 C   0  0  0  0  0  0  0  0  0  0  0  0
   45.4974   25.2890   16.6598 C   0  0  0  0  0  0  0  0  0  0  0  0
   44.2294   24.7233   16.5748 C   0  0  0  0  0  0  0  0  0  0  0  0
   44.0195   23.7012   15.7356 F   0  0  0  0  0  0  0  0  0  0  0  0
   43.1796   25.1977   17.3526 C   0  0  0  0  0  0  0  0  0  0  0  0
   43.3997   26.2626   18.2285 C   0  0  0  0  0  0  0  0  0  0  0  0
   41.9946   33.1017   19.2665 C   0  0  0  0  0  0  0  0  0  0  0  0
   41.3877   32.5036   18.1233 O   0  0  0  0  0  0  0  0  0  0  0  0
   41.9545   32.6395   17.3479 H   0  0  0  0  0  0  0  0  0  0  0  0
 13 14  2  0
 14 15  1  0
  1 15  1  0
  1  2  1  0
  2  3  1  0
  3 24  1  0
 24 25  1  0
  3  4  1  0
  4  5  1  0
  4  6  1  0
  6  7  1  0
  6  8  1  0
  8  9  1  0
 14 17  1  0
 17 18  2  0
 18 19  1  0
 19 20  2  0
 20 21  1  0
 20 22  1  0
 22 23  2  0
  8  1  1  0
 23 17  1  0
 15 16  1  0
 25 26  1  0
  5 10  1  0
  7 11  1  0
  9 12  1  0
M  END
> <minimizedAffinity>
-4.66459

> <CNNscore>
0.7040433884

> <CNNaffinity>
4.1166462898

> <CNN_VS>
2.8982975483

> <CNNaffinity_variance>
0.0074343714

$$$$



 26 27  0  0  0  0  0  0  0  0999 V2000
   33.1181   23.3267   26.2692 C   0  0  0  0  0  0  0  0  0  0  0  0
   31.9680   22.7709   26.9163 O   0  0  0  0  0  0  0  0  0  0  0  0
   31.2784   21.8313   26.0932 C   0  0  0  0  0  0  0  0  0  0  0  0
   32.1245   20.5514   25.9394 C   0  0  0  0  0  0  0  0  0  0  0  0
   31.6310   19.7673   24.8472 O   0  0  0  0  0  0  0  0  0  0  0  0
   33.6170   20.8843   25.7284 C   0  0  0  0  0  0  0  0  0  0  0  0
   34.3579   20.6178   26.9302 O   0  0  0  0  0  0  0  0  0  0  0  0
   33.8266   22.3428   25.2881 C   0  0  0  0  0  0  0  0  0  0  0  0
   33.2943   22.5301   23.9641 O   0  0  0  0  0  0  0  0  0  0  0  0
   31.7052   20.2759   24.0245 H   0  0  0  0  0  0  0  0  0  0  0  0
   34.0308   21.1866   27.6446 H   0  0  0  0  0  0  0  0  0  0  0  0
   32.3427   22.3423   23.9686 H   0  0  0  0  0  0  0  0  0  0  0  0
   32.1887   23.8296   28.8602 O   0  0  0  0  0  0  0  0  0  0  0  0
   33.3923   23.8783   28.6404 C   0  0  0  0  0  0  0  0  0  0  0  0
   33.9395   23.7303   27.3843 N   0  0  0  0  0  0  0  0  0  0  0  0
   34.8992   23.9015   27.2468 H   0  0  0  0  0  0  0  0  0  0  0  0
   34.3539   24.0653   29.7632 C   0  0  0  0  0  0  0  0  0  0  0  0
   35.6569   23.5461   29.7209 C   0  0  0  0  0  0  0  0  0  0  0  0
   36.5240   23.7516   30.7974 C   0  0  0  0  0  0  0  0  0  0  0  0
   36.0908   24.4768   31.9027 C   0  0  0  0  0  0  0  0  0  0  0  0
   36.9261   24.6708   32.9311 F   0  0  0  0  0  0  0  0  0  0  0  0
   34.8077   25.0089   31.9525 C   0  0  0  0  0  0  0  0  0  0  0  0
   33.9379   24.8074   30.8790 C   0  0  0  0  0  0  0  0  0  0  0  0
   29.9204   21.5073   26.7287 C   0  0  0  0  0  0  0  0  0  0  0  0
   28.8754   22.2560   26.1119 O   0  0  0  0  0  0  0  0  0  0  0  0
   29.0444   23.2040   26.2288 H   0  0  0  0  0  0  0  0  0  0  0  0
 13 14  2  0
 14 15  1  0
  1 15  1  0
  1  2  1  0
  2  3  1  0
  3 24  1  0
 24 25  1  0
  3  4  1  0
  4  5  1  0
  4  6  1  0
  6  7  1  0
  6  8  1  0
  8  9  1  0
 14 17  1  0
 17 18  2  0
 18 19  1  0
 19 20  2  0
 20 21  1  0
 20 22  1  0
 22 23  2  0
  8  1  1  0
 23 17  1  0
 15 16  1  0
 25 26  1  0
  5 10  1  0
  7 11  1  0
  9 12  1  0
M  END
> <minimizedAffinity>
-9.57182

> <CNNscore>
0.6772701740

> <CNNaffinity>
4.5158543587

> <CNN_VS>
3.0584535599

> <CNNaffinity_variance>
0.1338335276

$$$$



 26 27  0  0  0  0  0  0  0  0999 V2000
   43.0062   26.9166   18.8168 C   0  0  0  0  0  0  0  0  0  0  0  0
   43.5343   26.4705   17.5629 O   0  0  0  0  0  0  0  0  0  0  0  0
   44.9192   26.7791   17.4122 C   0  0  0  0  0  0  0  0  0  0  0  0
   45.7567   25.9024   18.3649 C   0  0  0  0  0  0  0  0  0  0  0  0
   47.0772   26.4422   18.4925 O   0  0  0  0  0  0  0  0  0  0  0  0
   45.0907   25.7825   19.7524 C   0  0  0  0  0  0  0  0  0  0  0  0
   44.4941   24.4844   19.9042 O   0  0  0  0  0  0  0  0  0  0  0  0
   44.0392   26.8805   19.9848 C   0  0  0  0  0  0  0  0  0  0  0  0
   44.6893   28.1609   20.0811 O   0  0  0  0  0  0  0  0  0  0  0  0
   47.0268   27.3334   18.8722 H   0  0  0  0  0  0  0  0  0  0  0  0
   43.7999   24.3675   19.2368 H   0  0  0  0  0  0  0  0  0  0  0  0
   45.1555   28.3500   19.2517 H   0  0  0  0  0  0  0  0  0  0  0  0
   42.8074   24.3014   17.8415 O   0  0  0  0  0  0  0  0  0  0  0  0
   41.9121   24.7407   18.5521 C   0  0  0  0  0  0  0  0  0  0  0  0
   41.8770   26.0400   19.0099 N   0  0  0  0  0  0  0  0  0  0  0  0
   41.0743   26.3728   19.4727 H   0  0  0  0  0  0  0  0  0  0  0  0
   40.8051   23.8504   19.0020 C   0  0  0  0  0  0  0  0  0  0  0  0
   40.5163   22.6383   18.3566 C   0  0  0  0  0  0  0  0  0  0  0  0
   39.4702   21.8351   18.8185 C   0  0  0  0  0  0  0  0  0  0  0  0
   38.7255   22.2400   19.9216 C   0  0  0  0  0  0  0  0  0  0  0  0
   37.7246   21.4662   20.3600 F   0  0  0  0  0  0  0  0  0  0  0  0
   39.0092   23.4311   20.5794 C   0  0  0  0  0  0  0  0  0  0  0  0
   40.0541   24.2368   20.1224 C   0  0  0  0  0  0  0  0  0  0  0  0
   45.3325   26.5388   15.9546 C   0  0  0  0  0  0  0  0  0  0  0  0
   45.6143   25.1604   15.7235 O   0  0  0  0  0  0  0  0  0  0  0  0
   46.3466   24.8799   16.2945 H   0  0  0  0  0  0  0  0  0  0  0  0
 13 14  2  0
 14 15  1  0
  1 15  1  0
  1  2  1  0
  2  3  1  0
  3 24  1  0
 24 25  1  0
  3  4  1  0
  4  5  1  0
  4  6  1  0
  6  7  1  0
  6  8  1  0
  8  9  1  0
 14 17  1  0
 17 18  2  0
 18 19  1  0
 19 20  2  0
 20 21  1  0
 20 22  1  0
 22 23  2  0
  8  1  1  0
 23 17  1  0
 15 16  1  0
 25 26  1  0
  5 10  1  0
  7 11  1  0
  9 12  1  0
M  END
> <minimizedAffinity>
9.81981

> <CNNscore>
0.6053809524

> <CNNaffinity>
3.8388450146

> <CNN_VS>
2.3239636421

> <CNNaffinity_variance>
0.3188538849

$$$$



 26 27  0  0  0  0  0  0  0  0999 V2000
   31.0089   22.5430   25.8934 C   0  0  0  0  0  0  0  0  0  0  0  0
   31.0546   21.5509   26.9249 O   0  0  0  0  0  0  0  0  0  0  0  0
   32.1744   20.6764   26.7929 C   0  0  0  0  0  0  0  0  0  0  0  0
   33.4743   21.4390   27.1186 C   0  0  0  0  0  0  0  0  0  0  0  0
   34.6064   20.7002   26.6452 O   0  0  0  0  0  0  0  0  0  0  0  0
   33.4653   22.8559   26.5059 C   0  0  0  0  0  0  0  0  0  0  0  0
   33.2358   23.8364   27.5306 O   0  0  0  0  0  0  0  0  0  0  0  0
   32.4144   22.9964   25.3918 C   0  0  0  0  0  0  0  0  0  0  0  0
   32.7959   22.1907   24.2619 O   0  0  0  0  0  0  0  0  0  0  0  0
   34.5494   20.6033   25.6818 H   0  0  0  0  0  0  0  0  0  0  0  0
   32.3654   23.6870   27.9320 H   0  0  0  0  0  0  0  0  0  0  0  0
   32.8403   21.2593   24.5293 H   0  0  0  0  0  0  0  0  0  0  0  0
   28.4208   23.3017   25.1477 O   0  0  0  0  0  0  0  0  0  0  0  0
   28.9430   23.8410   26.1152 C   0  0  0  0  0  0  0  0  0  0  0  0
   30.2411   23.5981   26.5086 N   0  0  0  0  0  0  0  0  0  0  0  0
   30.6481   24.1493   27.2155 H   0  0  0  0  0  0  0  0  0  0  0  0
   28.1603   24.7843   26.9625 C   0  0  0  0  0  0  0  0  0  0  0  0
   28.7259   25.9555   27.4891 C   0  0  0  0  0  0  0  0  0  0  0  0
   27.9497   26.8115   28.2752 C   0  0  0  0  0  0  0  0  0  0  0  0
   26.6172   26.4994   28.5248 C   0  0  0  0  0  0  0  0  0  0  0  0
   25.8783   27.3234   29.2784 F   0  0  0  0  0  0  0  0  0  0  0  0
   26.0398   25.3500   27.9983 C   0  0  0  0  0  0  0  0  0  0  0  0
   26.8107   24.4920   27.2114 C   0  0  0  0  0  0  0  0  0  0  0  0
   31.9961   19.4842   27.7415 C   0  0  0  0  0  0  0  0  0  0  0  0
   32.9879   18.4880   27.5029 O   0  0  0  0  0  0  0  0  0  0  0  0
   32.9075   18.1633   26.5924 H   0  0  0  0  0  0  0  0  0  0  0  0
 13 14  2  0
 14 15  1  0
  1 15  1  0
  1  2  1  0
  2  3  1  0
  3 24  1  0
 24 25  1  0
  3  4  1  0
  4  5  1  0
  4  6  1  0
  6  7  1  0
  6  8  1  0
  8  9  1  0
 14 17  1  0
 17 18  2  0
 18 19  1  0
 19 20  2  0
 20 21  1  0
 20 22  1  0
 22 23  2  0
  8  1  1  0
 23 17  1  0
 15 16  1  0
 25 26  1  0
  5 10  1  0
  7 11  1  0
  9 12  1  0
M  END
> <minimizedAffinity>
-8.66802

> <CNNscore>
0.5149548650

> <CNNaffinity>
3.8947741985

> <CNN_VS>
2.0056328773

> <CNNaffinity_variance>
0.2019116133

$$$$



 26 27  0  0  0  0  0  0  0  0999 V2000
   28.2238   23.5245   26.0685 C   0  0  0  0  0  0  0  0  0  0  0  0
   28.8724   22.3426   26.5509 O   0  0  0  0  0  0  0  0  0  0  0  0
   30.1378   22.1213   25.9298 C   0  0  0  0  0  0  0  0  0  0  0  0
   31.1495   23.1795   26.4135 C   0  0  0  0  0  0  0  0  0  0  0  0
   32.2888   23.1996   25.5457 O   0  0  0  0  0  0  0  0  0  0  0  0
   30.5073   24.5814   26.4868 C   0  0  0  0  0  0  0  0  0  0  0  0
   30.2538   24.9384   27.8552 O   0  0  0  0  0  0  0  0  0  0  0  0
   29.2088   24.6651   25.6670 C   0  0  0  0  0  0  0  0  0  0  0  0
   29.5136   24.5550   24.2647 O   0  0  0  0  0  0  0  0  0  0  0  0
   32.0081   23.4414   24.6492 H   0  0  0  0  0  0  0  0  0  0  0  0
   29.6250   24.3093   28.2422 H   0  0  0  0  0  0  0  0  0  0  0  0
   29.9338   23.6981   24.0915 H   0  0  0  0  0  0  0  0  0  0  0  0
   25.5896   24.4304   25.8031 O   0  0  0  0  0  0  0  0  0  0  0  0
   26.0401   24.2321   26.9244 C   0  0  0  0  0  0  0  0  0  0  0  0
   27.3479   23.8686   27.1619 N   0  0  0  0  0  0  0  0  0  0  0  0
   27.6874   23.8435   28.0857 H   0  0  0  0  0  0  0  0  0  0  0  0
   25.1556   24.3389   28.1189 C   0  0  0  0  0  0  0  0  0  0  0  0
   23.9972   23.5594   28.2586 C   0  0  0  0  0  0  0  0  0  0  0  0
   23.2016   23.6924   29.3998 C   0  0  0  0  0  0  0  0  0  0  0  0
   23.5682   24.5932   30.3946 C   0  0  0  0  0  0  0  0  0  0  0  0
   22.8022   24.7161   31.4860 F   0  0  0  0  0  0  0  0  0  0  0  0
   24.7203   25.3616   30.2762 C   0  0  0  0  0  0  0  0  0  0  0  0
   25.5192   25.2317   29.1384 C   0  0  0  0  0  0  0  0  0  0  0  0
   30.6275   20.7092   26.2750 C   0  0  0  0  0  0  0  0  0  0  0  0
   31.4959   20.2071   25.2617 O   0  0  0  0  0  0  0  0  0  0  0  0
   31.0178   20.1626   24.4189 H   0  0  0  0  0  0  0  0  0  0  0  0
 13 14  2  0
 14 15  1  0
  1 15  1  0
  1  2  1  0
  2  3  1  0
  3 24  1  0
 24 25  1  0
  3  4  1  0
  4  5  1  0
  4  6  1  0
  6  7  1  0
  6  8  1  0
  8  9  1  0
 14 17  1  0
 17 18  2  0
 18 19  1  0
 19 20  2  0
 20 21  1  0
 20 22  1  0
 22 23  2  0
  8  1  1  0
 23 17  1  0
 15 16  1  0
 25 26  1  0
  5 10  1  0
  7 11  1  0
  9 12  1  0
M  END
> <minimizedAffinity>
-8.43029

> <CNNscore>
0.4578917921

> <CNNaffinity>
4.8869357109

> <CNN_VS>
2.2376878262

> <CNNaffinity_variance>
0.1903712004

$$$$



 26 27  0  0  0  0  0  0  0  0999 V2000
   32.4796   24.0444   28.4115 C   0  0  0  0  0  0  0  0  0  0  0  0
   32.7807   22.6459   28.3497 O   0  0  0  0  0  0  0  0  0  0  0  0
   32.5277   22.0888   27.0607 C   0  0  0  0  0  0  0  0  0  0  0  0
   33.5669   22.6154   26.0505 C   0  0  0  0  0  0  0  0  0  0  0  0
   33.1189   22.3661   24.7132 O   0  0  0  0  0  0  0  0  0  0  0  0
   33.8365   24.1219   26.2529 C   0  0  0  0  0  0  0  0  0  0  0  0
   35.1102   24.3153   26.8888 O   0  0  0  0  0  0  0  0  0  0  0  0
   32.7260   24.8024   27.0709 C   0  0  0  0  0  0  0  0  0  0  0  0
   31.5059   24.8226   26.3078 O   0  0  0  0  0  0  0  0  0  0  0  0
   32.2852   22.8372   24.5583 H   0  0  0  0  0  0  0  0  0  0  0  0
   35.1001   23.9009   27.7657 H   0  0  0  0  0  0  0  0  0  0  0  0
   31.2321   23.9130   26.1117 H   0  0  0  0  0  0  0  0  0  0  0  0
   34.7431   22.7085   29.3717 O   0  0  0  0  0  0  0  0  0  0  0  0
   34.4526   23.8006   29.8433 C   0  0  0  0  0  0  0  0  0  0  0  0
   33.3139   24.4959   29.4983 N   0  0  0  0  0  0  0  0  0  0  0  0
   33.0676   25.3077   29.9979 H   0  0  0  0  0  0  0  0  0  0  0  0
   35.3670   24.4676   30.8126 C   0  0  0  0  0  0  0  0  0  0  0  0
   36.5838   25.0413   30.4134 C   0  0  0  0  0  0  0  0  0  0  0  0
   37.4058   25.6597   31.3593 C   0  0  0  0  0  0  0  0  0  0  0  0
   37.0080   25.7086   32.6915 C   0  0  0  0  0  0  0  0  0  0  0  0
   37.7996   26.3028   33.5933 F   0  0  0  0  0  0  0  0  0  0  0  0
   35.7991   25.1570   33.0989 C   0  0  0  0  0  0  0  0  0  0  0  0
   34.9736   24.5389   32.1575 C   0  0  0  0  0  0  0  0  0  0  0  0
   32.5918   20.5589   27.1525 C   0  0  0  0  0  0  0  0  0  0  0  0
   32.9625   20.1403   28.4641 O   0  0  0  0  0  0  0  0  0  0  0  0
   33.8403   20.4922   28.6798 H   0  0  0  0  0  0  0  0  0  0  0  0
 13 14  2  0
 14 15  1  0
  1 15  1  0
  1  2  1  0
  2  3  1  0
  3 24  1  0
 24 25  1  0
  3  4  1  0
  4  5  1  0
  4  6  1  0
  6  7  1  0
  6  8  1  0
  8  9  1  0
 14 17  1  0
 17 18  2  0
 18 19  1  0
 19 20  2  0
 20 21  1  0
 20 22  1  0
 22 23  2  0
  8  1  1  0
 23 17  1  0
 15 16  1  0
 25 26  1  0
  5 10  1  0
  7 11  1  0
  9 12  1  0
M  END
> <minimizedAffinity>
-9.36793

> <CNNscore>
0.4404509664

> <CNNaffinity>
3.9610264301

> <CNN_VS>
1.7446379662

> <CNNaffinity_variance>
0.4388887584

$$$$



 26 27  0  0  0  0  0  0  0  0999 V2000
   32.7572   23.7052   28.2193 C   0  0  0  0  0  0  0  0  0  0  0  0
   33.2449   22.3711   28.0390 O   0  0  0  0  0  0  0  0  0  0  0  0
   32.9797   21.8641   26.7318 C   0  0  0  0  0  0  0  0  0  0  0  0
   33.8597   22.5963   25.6988 C   0  0  0  0  0  0  0  0  0  0  0  0
   33.3556   22.3683   24.3778 O   0  0  0  0  0  0  0  0  0  0  0  0
   33.9308   24.1104   25.9911 C   0  0  0  0  0  0  0  0  0  0  0  0
   35.2077   24.4453   26.5581 O   0  0  0  0  0  0  0  0  0  0  0  0
   32.7983   24.5722   26.9235 C   0  0  0  0  0  0  0  0  0  0  0  0
   31.5354   24.4639   26.2418 O   0  0  0  0  0  0  0  0  0  0  0  0
   32.4554   22.7232   24.3095 H   0  0  0  0  0  0  0  0  0  0  0  0
   35.3187   23.9802   27.4021 H   0  0  0  0  0  0  0  0  0  0  0  0
   31.3775   23.5383   25.9986 H   0  0  0  0  0  0  0  0  0  0  0  0
   31.8381   24.7936   30.6277 O   0  0  0  0  0  0  0  0  0  0  0  0
   33.0428   24.6501   30.4615 C   0  0  0  0  0  0  0  0  0  0  0  0
   33.5967   24.2038   29.2813 N   0  0  0  0  0  0  0  0  0  0  0  0
   34.5737   24.2255   29.1617 H   0  0  0  0  0  0  0  0  0  0  0  0
   33.9926   24.9217   31.5772 C   0  0  0  0  0  0  0  0  0  0  0  0
   33.5565   25.0951   32.8996 C   0  0  0  0  0  0  0  0  0  0  0  0
   34.4864   25.3437   33.9127 C   0  0  0  0  0  0  0  0  0  0  0  0
   35.8412   25.4105   33.6038 C   0  0  0  0  0  0  0  0  0  0  0  0
   36.7276   25.6486   34.5787 F   0  0  0  0  0  0  0  0  0  0  0  0
   36.2888   25.2268   32.3008 C   0  0  0  0  0  0  0  0  0  0  0  0
   35.3638   24.9771   31.2850 C   0  0  0  0  0  0  0  0  0  0  0  0
   33.2627   20.3567   26.7099 C   0  0  0  0  0  0  0  0  0  0  0  0
   34.6528   20.0999   26.5238 O   0  0  0  0  0  0  0  0  0  0  0  0
   34.9398   20.4728   25.6756 H   0  0  0  0  0  0  0  0  0  0  0  0
 13 14  2  0
 14 15  1  0
  1 15  1  0
  1  2  1  0
  2  3  1  0
  3 24  1  0
 24 25  1  0
  3  4  1  0
  4  5  1  0
  4  6  1  0
  6  7  1  0
  6  8  1  0
  8  9  1  0
 14 17  1  0
 17 18  2  0
 18 19  1  0
 19 20  2  0
 20 21  1  0
 20 22  1  0
 22 23  2  0
  8  1  1  0
 23 17  1  0
 15 16  1  0
 25 26  1  0
  5 10  1  0
  7 11  1  0
  9 12  1  0
M  END
> <minimizedAffinity>
-9.91055

> <CNNscore>
0.4084727466

> <CNNaffinity>
3.8671486378

> <CNN_VS>
1.5796247721

> <CNNaffinity_variance>
0.6991937160

$$$$



 26 27  0  0  0  0  0  0  0  0999 V2000
   34.3519   24.1416   26.5816 C   0  0  0  0  0  0  0  0  0  0  0  0
   33.2378   24.7165   27.2734 O   0  0  0  0  0  0  0  0  0  0  0  0
   31.9862   24.2178   26.8035 C   0  0  0  0  0  0  0  0  0  0  0  0
   31.8164   22.7460   27.2308 C   0  0  0  0  0  0  0  0  0  0  0  0
   30.7651   22.1352   26.4738 O   0  0  0  0  0  0  0  0  0  0  0  0
   33.1302   21.9539   27.0587 C   0  0  0  0  0  0  0  0  0  0  0  0
   33.7399   21.7231   28.3390 O   0  0  0  0  0  0  0  0  0  0  0  0
   34.1175   22.6698   26.1218 C   0  0  0  0  0  0  0  0  0  0  0  0
   33.5976   22.6707   24.7798 O   0  0  0  0  0  0  0  0  0  0  0  0
   30.9951   22.1488   25.5316 H   0  0  0  0  0  0  0  0  0  0  0  0
   33.9640   22.5735   28.7484 H   0  0  0  0  0  0  0  0  0  0  0  0
   32.7527   23.1469   24.7607 H   0  0  0  0  0  0  0  0  0  0  0  0
   34.0200   24.6120   29.3200 O   0  0  0  0  0  0  0  0  0  0  0  0
   35.1496   24.4435   28.8783 C   0  0  0  0  0  0  0  0  0  0  0  0
   35.4231   24.2905   27.5364 N   0  0  0  0  0  0  0  0  0  0  0  0
   36.3576   24.2828   27.2265 H   0  0  0  0  0  0  0  0  0  0  0  0
   36.3128   24.3528   29.8052 C   0  0  0  0  0  0  0  0  0  0  0  0
   36.7532   25.4535   30.5560 C   0  0  0  0  0  0  0  0  0  0  0  0
   37.8467   25.3178   31.4154 C   0  0  0  0  0  0  0  0  0  0  0  0
   38.4880   24.0882   31.5263 C   0  0  0  0  0  0  0  0  0  0  0  0
   39.5350   23.9641   32.3517 F   0  0  0  0  0  0  0  0  0  0  0  0
   38.0541   22.9858   30.7995 C   0  0  0  0  0  0  0  0  0  0  0  0
   36.9613   23.1159   29.9402 C   0  0  0  0  0  0  0  0  0  0  0  0
   30.8541   25.0800   27.3762 C   0  0  0  0  0  0  0  0  0  0  0  0
   31.3461   26.3440   27.8158 O   0  0  0  0  0  0  0  0  0  0  0  0
   32.0053   26.2092   28.5145 H   0  0  0  0  0  0  0  0  0  0  0  0
 13 14  2  0
 14 15  1  0
  1 15  1  0
  1  2  1  0
  2  3  1  0
  3 24  1  0
 24 25  1  0
  3  4  1  0
  4  5  1  0
  4  6  1  0
  6  7  1  0
  6  8  1  0
  8  9  1  0
 14 17  1  0
 17 18  2  0
 18 19  1  0
 19 20  2  0
 20 21  1  0
 20 22  1  0
 22 23  2  0
  8  1  1  0
 23 17  1  0
 15 16  1  0
 25 26  1  0
  5 10  1  0
  7 11  1  0
  9 12  1  0
M  END
> <minimizedAffinity>
-8.42491

> <CNNscore>
0.3445256352

> <CNNaffinity>
4.3429255486

> <CNN_VS>
1.4962491989

> <CNNaffinity_variance>
0.3365564346

$$$$
