


 31 31  0  0  0  0  0  0  0  0999 V2000
   36.2267   41.7168   -3.0768 C   0  0  0  0  0  0  0  0  0  0  0  0
   38.1031   40.0947   -3.2400 C   0  0  0  0  0  0  0  0  0  0  0  0
   38.8804   40.9788   -3.5991 O   0  0  0  0  0  0  0  0  0  0  0  0
   36.8109   40.3817   -2.8422 N   0  0  0  0  0  0  0  0  0  0  0  0
   36.2736   39.6871   -2.3971 H   0  0  0  0  0  0  0  0  0  0  0  0
   38.5442   38.6324   -3.1034 C   0  0  0  0  0  0  0  0  0  0  0  0
   40.3277   38.5545   -3.5262 S   0  0  0  0  0  0  0  0  0  0  0  0
   41.0314   39.3428   -2.6701 H   0  0  0  0  0  0  0  0  0  0  0  0
   38.2336   38.0632   -1.7115 C   0  0  0  0  0  0  0  0  0  0  0  0
   39.2093   36.9976   -1.1947 C   0  0  0  0  0  0  0  0  0  0  0  0
   38.5565   35.6293   -0.9807 C   0  0  0  0  0  0  0  0  0  0  0  0
   40.3375   35.4383    0.8337 C   0  0  0  0  0  0  0  0  0  0  0  0
   39.3961   34.6966   -0.1036 C   0  0  0  0  0  0  0  0  0  0  0  0
   35.9833   41.9125   -4.5917 C   0  0  0  0  0  0  0  0  0  0  0  0
   36.6680   42.6441   -5.3028 O   0  0  0  0  0  0  0  0  0  0  0  0
   34.9723   41.1313   -5.1285 N   0  0  0  0  0  0  0  0  0  0  0  0
   34.5789   40.4043   -4.5938 H   0  0  0  0  0  0  0  0  0  0  0  0
   34.4875   41.3806   -6.4824 C   0  0  0  0  0  0  0  0  0  0  0  0
   34.6267   42.8689   -6.7978 C   0  0  0  0  0  0  0  0  0  0  0  0
   35.2425   40.5045   -7.5315 C   0  0  0  0  0  0  0  0  0  0  0  0
   34.3473   39.5642   -8.3791 N   0  0  0  0  0  0  0  0  0  0  0  0
   33.3578   40.3781   -9.2186 C   0  0  0  0  0  0  0  0  0  0  0  0
   33.5336   38.7048   -7.4110 C   0  0  0  0  0  0  0  0  0  0  0  0
   35.1597   38.6537   -9.2793 C   0  0  0  0  0  0  0  0  0  0  0  0
   37.1680   42.8108   -2.5512 C   0  0  0  0  0  0  0  0  0  0  0  0
   37.3764   42.7579   -1.0579 C   0  0  0  0  0  0  0  0  0  0  0  0
   36.5651   41.9414   -0.2573 C   0  0  0  0  0  0  0  0  0  0  0  0
   36.7507   41.8978    1.1252 C   0  0  0  0  0  0  0  0  0  0  0  0
   37.7483   42.6671    1.7203 C   0  0  0  0  0  0  0  0  0  0  0  0
   38.5610   43.4805    0.9333 C   0  0  0  0  0  0  0  0  0  0  0  0
   38.3766   43.5273   -0.4495 C   0  0  0  0  0  0  0  0  0  0  0  0
 12 13  1  0
 13 11  1  0
 11 10  1  0
 10  9  1  0
  9  6  1  0
  6  7  1  0
  6  2  1  0
  2  3  2  0
  2  4  1  0
  4  1  1  0
  1 25  1  0
 25 26  1  0
 26 27  2  0
 27 28  1  0
 28 29  2  0
 29 30  1  0
 30 31  2  0
  1 14  1  0
 14 15  2  0
 14 16  1  0
 16 18  1  0
 18 19  1  0
 18 20  1  0
 20 21  1  0
 21 22  1  0
 21 23  1  0
 21 24  1  0
 31 26  1  0
  7  8  1  0
  4  5  1  0
 16 17  1  0
M  CHG 1  21   1
M  END
> <minimizedAffinity>
-7.30878

> <CNNscore>
0.9405022264

> <CNNaffinity>
7.0723061562

> <CNN_VS>
6.6515197754

> <CNNaffinity_variance>
0.1032637432

$$$$



 31 31  0  0  0  0  0  0  0  0999 V2000
   36.4017   41.7222   -3.5697 C   0  0  0  0  0  0  0  0  0  0  0  0
   35.2740   41.5744   -5.7800 C   0  0  0  0  0  0  0  0  0  0  0  0
   35.9230   42.5265   -6.2124 O   0  0  0  0  0  0  0  0  0  0  0  0
   35.5265   41.0290   -4.5354 N   0  0  0  0  0  0  0  0  0  0  0  0
   35.1178   40.1677   -4.2899 H   0  0  0  0  0  0  0  0  0  0  0  0
   34.2182   40.8583   -6.6310 C   0  0  0  0  0  0  0  0  0  0  0  0
   33.9944   41.8365   -8.1668 S   0  0  0  0  0  0  0  0  0  0  0  0
   35.1758   41.9046   -8.8371 H   0  0  0  0  0  0  0  0  0  0  0  0
   34.5921   39.3941   -6.9032 C   0  0  0  0  0  0  0  0  0  0  0  0
   33.7608   38.6834   -7.9795 C   0  0  0  0  0  0  0  0  0  0  0  0
   32.5185   37.9826   -7.4228 C   0  0  0  0  0  0  0  0  0  0  0  0
   30.3016   36.8575   -7.9888 C   0  0  0  0  0  0  0  0  0  0  0  0
   31.4538   37.7155   -8.4902 C   0  0  0  0  0  0  0  0  0  0  0  0
   37.6253   40.8307   -3.2529 C   0  0  0  0  0  0  0  0  0  0  0  0
   38.7897   41.2036   -3.3744 O   0  0  0  0  0  0  0  0  0  0  0  0
   37.3219   39.5822   -2.7334 N   0  0  0  0  0  0  0  0  0  0  0  0
   36.4014   39.3812   -2.4479 H   0  0  0  0  0  0  0  0  0  0  0  0
   38.3597   38.5637   -2.6074 C   0  0  0  0  0  0  0  0  0  0  0  0
   38.0378   37.6663   -1.4137 C   0  0  0  0  0  0  0  0  0  0  0  0
   38.5079   37.7315   -3.9202 C   0  0  0  0  0  0  0  0  0  0  0  0
   39.9531   37.2898   -4.2671 N   0  0  0  0  0  0  0  0  0  0  0  0
   40.9403   38.4317   -4.0067 C   0  0  0  0  0  0  0  0  0  0  0  0
   39.9936   36.9768   -5.7632 C   0  0  0  0  0  0  0  0  0  0  0  0
   40.3781   36.0552   -3.4960 C   0  0  0  0  0  0  0  0  0  0  0  0
   35.6304   42.0326   -2.2782 C   0  0  0  0  0  0  0  0  0  0  0  0
   36.4634   42.7356   -1.2350 C   0  0  0  0  0  0  0  0  0  0  0  0
   36.8520   42.0639   -0.0672 C   0  0  0  0  0  0  0  0  0  0  0  0
   37.6151   42.7152    0.9028 C   0  0  0  0  0  0  0  0  0  0  0  0
   37.9984   44.0415    0.7151 C   0  0  0  0  0  0  0  0  0  0  0  0
   37.6188   44.7174   -0.4427 C   0  0  0  0  0  0  0  0  0  0  0  0
   36.8543   44.0690   -1.4139 C   0  0  0  0  0  0  0  0  0  0  0  0
 12 13  1  0
 13 11  1  0
 11 10  1  0
 10  9  1  0
  9  6  1  0
  6  7  1  0
  6  2  1  0
  2  3  2  0
  2  4  1  0
  4  1  1  0
  1 25  1  0
 25 26  1  0
 26 27  2  0
 27 28  1  0
 28 29  2  0
 29 30  1  0
 30 31  2  0
  1 14  1  0
 14 15  2  0
 14 16  1  0
 16 18  1  0
 18 19  1  0
 18 20  1  0
 20 21  1  0
 21 22  1  0
 21 23  1  0
 21 24  1  0
 31 26  1  0
  7  8  1  0
  4  5  1  0
 16 17  1  0
M  CHG 1  21   1
M  END
> <minimizedAffinity>
-7.65247

> <CNNscore>
0.9346588850

> <CNNaffinity>
7.3206896782

> <CNN_VS>
6.8423476219

> <CNNaffinity_variance>
0.0921598598

$$$$



 31 31  0  0  0  0  0  0  0  0999 V2000
   37.3517   40.8915   -3.3681 C   0  0  0  0  0  0  0  0  0  0  0  0
   35.9064   41.6069   -5.2597 C   0  0  0  0  0  0  0  0  0  0  0  0
   36.5185   42.6689   -5.3697 O   0  0  0  0  0  0  0  0  0  0  0  0
   36.3195   40.6177   -4.3873 N   0  0  0  0  0  0  0  0  0  0  0  0
   35.9206   39.7196   -4.4463 H   0  0  0  0  0  0  0  0  0  0  0  0
   34.7118   41.2619   -6.1572 C   0  0  0  0  0  0  0  0  0  0  0  0
   34.3510   42.7388   -7.1838 S   0  0  0  0  0  0  0  0  0  0  0  0
   35.4396   43.0417   -7.9408 H   0  0  0  0  0  0  0  0  0  0  0  0
   34.9636   39.9987   -6.9933 C   0  0  0  0  0  0  0  0  0  0  0  0
   34.5042   40.0656   -8.4558 C   0  0  0  0  0  0  0  0  0  0  0  0
   33.1264   39.4399   -8.6887 C   0  0  0  0  0  0  0  0  0  0  0  0
   33.0881   41.2454  -10.4885 C   0  0  0  0  0  0  0  0  0  0  0  0
   32.4113   40.0081   -9.9175 C   0  0  0  0  0  0  0  0  0  0  0  0
   38.3814   39.7374   -3.3565 C   0  0  0  0  0  0  0  0  0  0  0  0
   39.5979   39.9096   -3.3721 O   0  0  0  0  0  0  0  0  0  0  0  0
   37.8376   38.4678   -3.2425 N   0  0  0  0  0  0  0  0  0  0  0  0
   36.8842   38.3617   -3.0209 H   0  0  0  0  0  0  0  0  0  0  0  0
   38.6705   37.2873   -3.4491 C   0  0  0  0  0  0  0  0  0  0  0  0
   39.4068   37.4211   -4.7810 C   0  0  0  0  0  0  0  0  0  0  0  0
   39.6684   37.0764   -2.2669 C   0  0  0  0  0  0  0  0  0  0  0  0
   39.7714   35.6233   -1.7357 N   0  0  0  0  0  0  0  0  0  0  0  0
   38.4863   34.8478   -2.0415 C   0  0  0  0  0  0  0  0  0  0  0  0
   39.9155   35.6967   -0.2153 C   0  0  0  0  0  0  0  0  0  0  0  0
   40.9667   34.8854   -2.3067 C   0  0  0  0  0  0  0  0  0  0  0  0
   36.7073   41.0334   -1.9811 C   0  0  0  0  0  0  0  0  0  0  0  0
   37.0770   42.3143   -1.2748 C   0  0  0  0  0  0  0  0  0  0  0  0
   37.6356   42.2795    0.0107 C   0  0  0  0  0  0  0  0  0  0  0  0
   37.9702   43.4636    0.6690 C   0  0  0  0  0  0  0  0  0  0  0  0
   37.7518   44.6924    0.0496 C   0  0  0  0  0  0  0  0  0  0  0  0
   37.1987   44.7378   -1.2285 C   0  0  0  0  0  0  0  0  0  0  0  0
   36.8617   43.5551   -1.8887 C   0  0  0  0  0  0  0  0  0  0  0  0
 12 13  1  0
 13 11  1  0
 11 10  1  0
 10  9  1  0
  9  6  1  0
  6  7  1  0
  6  2  1  0
  2  3  2  0
  2  4  1  0
  4  1  1  0
  1 25  1  0
 25 26  1  0
 26 27  2  0
 27 28  1  0
 28 29  2  0
 29 30  1  0
 30 31  2  0
  1 14  1  0
 14 15  2  0
 14 16  1  0
 16 18  1  0
 18 19  1  0
 18 20  1  0
 20 21  1  0
 21 22  1  0
 21 23  1  0
 21 24  1  0
 31 26  1  0
  7  8  1  0
  4  5  1  0
 16 17  1  0
M  CHG 1  21   1
M  END
> <minimizedAffinity>
-6.54456

> <CNNscore>
0.9106491804

> <CNNaffinity>
7.3544669151

> <CNN_VS>
6.6973390579

> <CNNaffinity_variance>
0.1261654943

$$$$



 31 31  0  0  0  0  0  0  0  0999 V2000
   36.6548   41.8278   -4.2304 C   0  0  0  0  0  0  0  0  0  0  0  0
   35.3932   41.9914   -6.3659 C   0  0  0  0  0  0  0  0  0  0  0  0
   35.5740   43.2076   -6.4185 O   0  0  0  0  0  0  0  0  0  0  0  0
   35.9899   41.2100   -5.3945 N   0  0  0  0  0  0  0  0  0  0  0  0
   35.9712   40.2294   -5.4800 H   0  0  0  0  0  0  0  0  0  0  0  0
   34.5859   41.2439   -7.4341 C   0  0  0  0  0  0  0  0  0  0  0  0
   34.0530   39.6477   -6.7035 S   0  0  0  0  0  0  0  0  0  0  0  0
   33.2825   39.8853   -5.6083 H   0  0  0  0  0  0  0  0  0  0  0  0
   33.4124   42.0817   -7.9625 C   0  0  0  0  0  0  0  0  0  0  0  0
   33.6138   42.7113   -9.3472 C   0  0  0  0  0  0  0  0  0  0  0  0
   32.6888   42.1288  -10.4193 C   0  0  0  0  0  0  0  0  0  0  0  0
   32.5591   41.6614  -12.9224 C   0  0  0  0  0  0  0  0  0  0  0  0
   33.0320   42.6107  -11.8315 C   0  0  0  0  0  0  0  0  0  0  0  0
   37.7178   40.8544   -3.6692 C   0  0  0  0  0  0  0  0  0  0  0  0
   38.8020   41.2160   -3.2180 O   0  0  0  0  0  0  0  0  0  0  0  0
   37.3316   39.5241   -3.6299 N   0  0  0  0  0  0  0  0  0  0  0  0
   36.3920   39.2819   -3.7967 H   0  0  0  0  0  0  0  0  0  0  0  0
   38.3101   38.4801   -3.3424 C   0  0  0  0  0  0  0  0  0  0  0  0
   37.9623   37.8216   -2.0085 C   0  0  0  0  0  0  0  0  0  0  0  0
   38.3804   37.4281   -4.4941 C   0  0  0  0  0  0  0  0  0  0  0  0
   39.7866   36.8343   -4.7665 N   0  0  0  0  0  0  0  0  0  0  0  0
   40.8770   37.8409   -4.3865 C   0  0  0  0  0  0  0  0  0  0  0  0
   39.8970   36.5800   -6.2702 C   0  0  0  0  0  0  0  0  0  0  0  0
   40.0119   35.5280   -4.0302 C   0  0  0  0  0  0  0  0  0  0  0  0
   35.6235   42.1623   -3.1424 C   0  0  0  0  0  0  0  0  0  0  0  0
   36.2434   42.6480   -1.8556 C   0  0  0  0  0  0  0  0  0  0  0  0
   36.2587   41.8246   -0.7208 C   0  0  0  0  0  0  0  0  0  0  0  0
   36.8240   42.2755    0.4727 C   0  0  0  0  0  0  0  0  0  0  0  0
   37.3803   43.5509    0.5438 C   0  0  0  0  0  0  0  0  0  0  0  0
   37.3716   44.3763   -0.5787 C   0  0  0  0  0  0  0  0  0  0  0  0
   36.8056   43.9286   -1.7735 C   0  0  0  0  0  0  0  0  0  0  0  0
 12 13  1  0
 13 11  1  0
 11 10  1  0
 10  9  1  0
  9  6  1  0
  6  7  1  0
  6  2  1  0
  2  3  2  0
  2  4  1  0
  4  1  1  0
  1 25  1  0
 25 26  1  0
 26 27  2  0
 27 28  1  0
 28 29  2  0
 29 30  1  0
 30 31  2  0
  1 14  1  0
 14 15  2  0
 14 16  1  0
 16 18  1  0
 18 19  1  0
 18 20  1  0
 20 21  1  0
 21 22  1  0
 21 23  1  0
 21 24  1  0
 31 26  1  0
  7  8  1  0
  4  5  1  0
 16 17  1  0
M  CHG 1  21   1
M  END
> <minimizedAffinity>
-7.25967

> <CNNscore>
0.7554661036

> <CNNaffinity>
7.2466540337

> <CNN_VS>
5.4746012688

> <CNNaffinity_variance>
0.0076956297

$$$$



 31 31  0  0  0  0  0  0  0  0999 V2000
   39.0102   38.3786   -3.0910 C   0  0  0  0  0  0  0  0  0  0  0  0
   37.5274   40.2001   -3.9049 C   0  0  0  0  0  0  0  0  0  0  0  0
   36.9786   39.4420   -4.7041 O   0  0  0  0  0  0  0  0  0  0  0  0
   38.4508   39.7406   -2.9849 N   0  0  0  0  0  0  0  0  0  0  0  0
   38.7390   40.3287   -2.2499 H   0  0  0  0  0  0  0  0  0  0  0  0
   37.1467   41.6819   -3.7993 C   0  0  0  0  0  0  0  0  0  0  0  0
   35.8199   41.9973   -5.0263 S   0  0  0  0  0  0  0  0  0  0  0  0
   34.7460   41.2117   -4.7448 H   0  0  0  0  0  0  0  0  0  0  0  0
   36.7458   42.0746   -2.3699 C   0  0  0  0  0  0  0  0  0  0  0  0
   36.6142   43.5802   -2.1049 C   0  0  0  0  0  0  0  0  0  0  0  0
   36.8974   43.9678   -0.6511 C   0  0  0  0  0  0  0  0  0  0  0  0
   37.3026   42.2803    1.2168 C   0  0  0  0  0  0  0  0  0  0  0  0
   37.8962   43.0311    0.0340 C   0  0  0  0  0  0  0  0  0  0  0  0
   38.4437   37.5001   -1.9509 C   0  0  0  0  0  0  0  0  0  0  0  0
   37.4209   37.7709   -1.3261 O   0  0  0  0  0  0  0  0  0  0  0  0
   39.1308   36.3179   -1.7254 N   0  0  0  0  0  0  0  0  0  0  0  0
   39.8146   36.0189   -2.3675 H   0  0  0  0  0  0  0  0  0  0  0  0
   38.8464   35.5139   -0.5410 C   0  0  0  0  0  0  0  0  0  0  0  0
   38.3466   34.1380   -0.9783 C   0  0  0  0  0  0  0  0  0  0  0  0
   40.0979   35.3957    0.3852 C   0  0  0  0  0  0  0  0  0  0  0  0
   41.2657   34.5476   -0.1812 N   0  0  0  0  0  0  0  0  0  0  0  0
   42.3840   34.4130    0.8570 C   0  0  0  0  0  0  0  0  0  0  0  0
   41.8401   35.2975   -1.3836 C   0  0  0  0  0  0  0  0  0  0  0  0
   40.8124   33.1725   -0.6316 C   0  0  0  0  0  0  0  0  0  0  0  0
   40.5431   38.4235   -3.0063 C   0  0  0  0  0  0  0  0  0  0  0  0
   41.2292   37.7364   -4.1611 C   0  0  0  0  0  0  0  0  0  0  0  0
   42.6278   37.6461   -4.2028 C   0  0  0  0  0  0  0  0  0  0  0  0
   43.2645   37.0186   -5.2744 C   0  0  0  0  0  0  0  0  0  0  0  0
   42.5112   36.4745   -6.3125 C   0  0  0  0  0  0  0  0  0  0  0  0
   41.1207   36.5575   -6.2797 C   0  0  0  0  0  0  0  0  0  0  0  0
   40.4812   37.1858   -5.2099 C   0  0  0  0  0  0  0  0  0  0  0  0
 12 13  1  0
 13 11  1  0
 11 10  1  0
 10  9  1  0
  9  6  1  0
  6  7  1  0
  6  2  1  0
  2  3  2  0
  2  4  1  0
  4  1  1  0
  1 25  1  0
 25 26  1  0
 26 27  2  0
 27 28  1  0
 28 29  2  0
 29 30  1  0
 30 31  2  0
  1 14  1  0
 14 15  2  0
 14 16  1  0
 16 18  1  0
 18 19  1  0
 18 20  1  0
 20 21  1  0
 21 22  1  0
 21 23  1  0
 21 24  1  0
 31 26  1  0
  7  8  1  0
  4  5  1  0
 16 17  1  0
M  CHG 1  21   1
M  END
> <minimizedAffinity>
-5.94490

> <CNNscore>
0.7302892208

> <CNNaffinity>
6.4571380615

> <CNN_VS>
4.7155785561

> <CNNaffinity_variance>
0.1518739164

$$$$



 31 31  0  0  0  0  0  0  0  0999 V2000
   36.8923   41.3350   -3.9825 C   0  0  0  0  0  0  0  0  0  0  0  0
   35.1702   41.6992   -5.7376 C   0  0  0  0  0  0  0  0  0  0  0  0
   35.0763   42.8911   -5.4456 O   0  0  0  0  0  0  0  0  0  0  0  0
   36.1228   40.8825   -5.1581 N   0  0  0  0  0  0  0  0  0  0  0  0
   36.2901   39.9881   -5.5340 H   0  0  0  0  0  0  0  0  0  0  0  0
   34.3142   41.0639   -6.8400 C   0  0  0  0  0  0  0  0  0  0  0  0
   33.9517   42.3702   -8.0760 S   0  0  0  0  0  0  0  0  0  0  0  0
   35.1180   42.8401   -8.5943 H   0  0  0  0  0  0  0  0  0  0  0  0
   34.9883   39.8287   -7.4548 C   0  0  0  0  0  0  0  0  0  0  0  0
   34.6803   39.5695   -8.9354 C   0  0  0  0  0  0  0  0  0  0  0  0
   35.5122   38.4346   -9.5390 C   0  0  0  0  0  0  0  0  0  0  0  0
   33.5866   36.8481  -10.0642 C   0  0  0  0  0  0  0  0  0  0  0  0
   34.7587   37.6472  -10.6143 C   0  0  0  0  0  0  0  0  0  0  0  0
   37.9769   40.2856   -3.6432 C   0  0  0  0  0  0  0  0  0  0  0  0
   39.0562   40.5641   -3.1262 O   0  0  0  0  0  0  0  0  0  0  0  0
   37.6167   38.9701   -3.8887 N   0  0  0  0  0  0  0  0  0  0  0  0
   36.6811   38.7504   -4.1026 H   0  0  0  0  0  0  0  0  0  0  0  0
   38.6167   37.9086   -3.8318 C   0  0  0  0  0  0  0  0  0  0  0  0
   38.9426   37.6057   -2.3703 C   0  0  0  0  0  0  0  0  0  0  0  0
   38.1357   36.6276   -4.5839 C   0  0  0  0  0  0  0  0  0  0  0  0
   39.0414   36.1649   -5.7542 N   0  0  0  0  0  0  0  0  0  0  0  0
   38.3472   36.4066   -7.0981 C   0  0  0  0  0  0  0  0  0  0  0  0
   39.2512   34.6575   -5.6076 C   0  0  0  0  0  0  0  0  0  0  0  0
   40.3933   36.8518   -5.7417 C   0  0  0  0  0  0  0  0  0  0  0  0
   35.9596   41.5334   -2.7785 C   0  0  0  0  0  0  0  0  0  0  0  0
   36.5370   42.4313   -1.7124 C   0  0  0  0  0  0  0  0  0  0  0  0
   36.8935   43.7531   -2.0154 C   0  0  0  0  0  0  0  0  0  0  0  0
   37.4358   44.5824   -1.0327 C   0  0  0  0  0  0  0  0  0  0  0  0
   37.6254   44.1006    0.2608 C   0  0  0  0  0  0  0  0  0  0  0  0
   37.2728   42.7891    0.5725 C   0  0  0  0  0  0  0  0  0  0  0  0
   36.7316   41.9569   -0.4086 C   0  0  0  0  0  0  0  0  0  0  0  0
 12 13  1  0
 13 11  1  0
 11 10  1  0
 10  9  1  0
  9  6  1  0
  6  7  1  0
  6  2  1  0
  2  3  2  0
  2  4  1  0
  4  1  1  0
  1 25  1  0
 25 26  1  0
 26 27  2  0
 27 28  1  0
 28 29  2  0
 29 30  1  0
 30 31  2  0
  1 14  1  0
 14 15  2  0
 14 16  1  0
 16 18  1  0
 18 19  1  0
 18 20  1  0
 20 21  1  0
 21 22  1  0
 21 23  1  0
 21 24  1  0
 31 26  1  0
  7  8  1  0
  4  5  1  0
 16 17  1  0
M  CHG 1  21   1
M  END
> <minimizedAffinity>
-6.61744

> <CNNscore>
0.6986265182

> <CNNaffinity>
7.0322394371

> <CNN_VS>
4.9129090309

> <CNNaffinity_variance>
0.1273925900

$$$$



 31 31  0  0  0  0  0  0  0  0999 V2000
   34.0512   38.6713   -7.9887 C   0  0  0  0  0  0  0  0  0  0  0  0
   33.6002   40.9718   -8.8151 C   0  0  0  0  0  0  0  0  0  0  0  0
   33.5470   40.5790   -9.9803 O   0  0  0  0  0  0  0  0  0  0  0  0
   33.7206   40.0912   -7.7568 N   0  0  0  0  0  0  0  0  0  0  0  0
   33.5843   40.4147   -6.8370 H   0  0  0  0  0  0  0  0  0  0  0  0
   33.4267   42.4507   -8.4485 C   0  0  0  0  0  0  0  0  0  0  0  0
   34.3467   42.7418   -6.8883 S   0  0  0  0  0  0  0  0  0  0  0  0
   35.6621   42.4524   -7.0769 H   0  0  0  0  0  0  0  0  0  0  0  0
   33.8674   43.3832   -9.5862 C   0  0  0  0  0  0  0  0  0  0  0  0
   32.7344   44.0411  -10.3849 C   0  0  0  0  0  0  0  0  0  0  0  0
   32.8759   43.8626  -11.8990 C   0  0  0  0  0  0  0  0  0  0  0  0
   33.0252   45.0778  -14.1354 C   0  0  0  0  0  0  0  0  0  0  0  0
   33.2038   45.1688  -12.6272 C   0  0  0  0  0  0  0  0  0  0  0  0
   32.8791   37.7851   -7.5055 C   0  0  0  0  0  0  0  0  0  0  0  0
   32.7074   37.4627   -6.3323 O   0  0  0  0  0  0  0  0  0  0  0  0
   31.9657   37.4350   -8.4872 N   0  0  0  0  0  0  0  0  0  0  0  0
   32.0032   37.8715   -9.3688 H   0  0  0  0  0  0  0  0  0  0  0  0
   30.9486   36.4227   -8.2210 C   0  0  0  0  0  0  0  0  0  0  0  0
   29.5745   36.9885   -8.5754 C   0  0  0  0  0  0  0  0  0  0  0  0
   31.2375   35.1015   -9.0015 C   0  0  0  0  0  0  0  0  0  0  0  0
   31.3836   33.8308   -8.1251 N   0  0  0  0  0  0  0  0  0  0  0  0
   32.5545   33.9836   -7.1493 C   0  0  0  0  0  0  0  0  0  0  0  0
   31.7085   32.6625   -9.0565 C   0  0  0  0  0  0  0  0  0  0  0  0
   30.1140   33.5102   -7.3605 C   0  0  0  0  0  0  0  0  0  0  0  0
   35.3376   38.2938   -7.2392 C   0  0  0  0  0  0  0  0  0  0  0  0
   36.1976   37.3022   -7.9832 C   0  0  0  0  0  0  0  0  0  0  0  0
   37.1599   36.5453   -7.2998 C   0  0  0  0  0  0  0  0  0  0  0  0
   37.9621   35.6338   -7.9877 C   0  0  0  0  0  0  0  0  0  0  0  0
   37.8100   35.4687   -9.3627 C   0  0  0  0  0  0  0  0  0  0  0  0
   36.8554   36.2149  -10.0509 C   0  0  0  0  0  0  0  0  0  0  0  0
   36.0526   37.1284   -9.3657 C   0  0  0  0  0  0  0  0  0  0  0  0
 12 13  1  0
 13 11  1  0
 11 10  1  0
 10  9  1  0
  9  6  1  0
  6  7  1  0
  6  2  1  0
  2  3  2  0
  2  4  1  0
  4  1  1  0
  1 25  1  0
 25 26  1  0
 26 27  2  0
 27 28  1  0
 28 29  2  0
 29 30  1  0
 30 31  2  0
  1 14  1  0
 14 15  2  0
 14 16  1  0
 16 18  1  0
 18 19  1  0
 18 20  1  0
 20 21  1  0
 21 22  1  0
 21 23  1  0
 21 24  1  0
 31 26  1  0
  7  8  1  0
  4  5  1  0
 16 17  1  0
M  CHG 1  21   1
M  END
> <minimizedAffinity>
-5.52573

> <CNNscore>
0.5050426722

> <CNNaffinity>
6.0796928406

> <CNN_VS>
3.0705044270

> <CNNaffinity_variance>
0.3318220079

$$$$



 31 31  0  0  0  0  0  0  0  0999 V2000
   34.6382   40.4389   -6.2873 C   0  0  0  0  0  0  0  0  0  0  0  0
   35.5831   41.8150   -4.4456 C   0  0  0  0  0  0  0  0  0  0  0  0
   35.0912   42.8410   -4.9147 O   0  0  0  0  0  0  0  0  0  0  0  0
   35.3130   40.5698   -4.9810 N   0  0  0  0  0  0  0  0  0  0  0  0
   35.5740   39.7603   -4.4852 H   0  0  0  0  0  0  0  0  0  0  0  0
   36.4381   41.8334   -3.1727 C   0  0  0  0  0  0  0  0  0  0  0  0
   37.8938   40.7581   -3.4730 S   0  0  0  0  0  0  0  0  0  0  0  0
   38.6044   41.2410   -4.5272 H   0  0  0  0  0  0  0  0  0  0  0  0
   36.8237   43.2603   -2.7566 C   0  0  0  0  0  0  0  0  0  0  0  0
   36.3109   43.7154   -1.3839 C   0  0  0  0  0  0  0  0  0  0  0  0
   37.3927   44.3641   -0.5161 C   0  0  0  0  0  0  0  0  0  0  0  0
   37.1609   42.1957    0.8049 C   0  0  0  0  0  0  0  0  0  0  0  0
   38.0498   43.3801    0.4556 C   0  0  0  0  0  0  0  0  0  0  0  0
   34.8310   39.0009   -6.8237 C   0  0  0  0  0  0  0  0  0  0  0  0
   35.8945   38.3883   -6.7637 O   0  0  0  0  0  0  0  0  0  0  0  0
   33.6830   38.3997   -7.3147 N   0  0  0  0  0  0  0  0  0  0  0  0
   32.8064   38.8214   -7.1633 H   0  0  0  0  0  0  0  0  0  0  0  0
   33.7665   37.1447   -8.0550 C   0  0  0  0  0  0  0  0  0  0  0  0
   32.9402   36.0817   -7.3330 C   0  0  0  0  0  0  0  0  0  0  0  0
   33.2986   37.3202   -9.5343 C   0  0  0  0  0  0  0  0  0  0  0  0
   34.3842   37.0583  -10.6099 N   0  0  0  0  0  0  0  0  0  0  0  0
   35.7268   37.6525  -10.1731 C   0  0  0  0  0  0  0  0  0  0  0  0
   33.9531   37.7810  -11.8865 C   0  0  0  0  0  0  0  0  0  0  0  0
   34.5486   35.5818  -10.9137 C   0  0  0  0  0  0  0  0  0  0  0  0
   35.2116   41.4532   -7.2881 C   0  0  0  0  0  0  0  0  0  0  0  0
   34.2332   41.8550   -8.3639 C   0  0  0  0  0  0  0  0  0  0  0  0
   33.9163   40.9671   -9.4017 C   0  0  0  0  0  0  0  0  0  0  0  0
   33.0181   41.3402  -10.4024 C   0  0  0  0  0  0  0  0  0  0  0  0
   32.4272   42.6017  -10.3753 C   0  0  0  0  0  0  0  0  0  0  0  0
   32.7341   43.4909   -9.3473 C   0  0  0  0  0  0  0  0  0  0  0  0
   33.6333   43.1210   -8.3459 C   0  0  0  0  0  0  0  0  0  0  0  0
 12 13  1  0
 13 11  1  0
 11 10  1  0
 10  9  1  0
  9  6  1  0
  6  7  1  0
  6  2  1  0
  2  3  2  0
  2  4  1  0
  4  1  1  0
  1 25  1  0
 25 26  1  0
 26 27  2  0
 27 28  1  0
 28 29  2  0
 29 30  1  0
 30 31  2  0
  1 14  1  0
 14 15  2  0
 14 16  1  0
 16 18  1  0
 18 19  1  0
 18 20  1  0
 20 21  1  0
 21 22  1  0
 21 23  1  0
 21 24  1  0
 31 26  1  0
  7  8  1  0
  4  5  1  0
 16 17  1  0
M  CHG 1  21   1
M  END
> <minimizedAffinity>
-6.82115

> <CNNscore>
0.4663336575

> <CNNaffinity>
6.3411254883

> <CNN_VS>
2.9570801258

> <CNNaffinity_variance>
0.3070696294

$$$$



 31 31  0  0  0  0  0  0  0  0999 V2000
   34.4179   38.5521   -8.2577 C   0  0  0  0  0  0  0  0  0  0  0  0
   33.6983   40.8403   -8.9100 C   0  0  0  0  0  0  0  0  0  0  0  0
   33.5909   40.5065  -10.0898 O   0  0  0  0  0  0  0  0  0  0  0  0
   33.9793   39.9201   -7.9178 N   0  0  0  0  0  0  0  0  0  0  0  0
   33.8859   40.1800   -6.9729 H   0  0  0  0  0  0  0  0  0  0  0  0
   33.4207   42.2746   -8.4438 C   0  0  0  0  0  0  0  0  0  0  0  0
   34.2341   42.4897   -6.8136 S   0  0  0  0  0  0  0  0  0  0  0  0
   35.5723   42.2854   -6.9442 H   0  0  0  0  0  0  0  0  0  0  0  0
   33.8705   43.3155   -9.4792 C   0  0  0  0  0  0  0  0  0  0  0  0
   32.7477   43.9803  -10.2865 C   0  0  0  0  0  0  0  0  0  0  0  0
   33.2368   44.6363  -11.5806 C   0  0  0  0  0  0  0  0  0  0  0  0
   32.7277   42.4654  -12.8172 C   0  0  0  0  0  0  0  0  0  0  0  0
   32.6549   43.9850  -12.8382 C   0  0  0  0  0  0  0  0  0  0  0  0
   33.2927   37.5499   -7.9082 C   0  0  0  0  0  0  0  0  0  0  0  0
   33.2131   36.9634   -6.8314 O   0  0  0  0  0  0  0  0  0  0  0  0
   32.3103   37.4109   -8.8756 N   0  0  0  0  0  0  0  0  0  0  0  0
   32.2773   38.0384   -9.6336 H   0  0  0  0  0  0  0  0  0  0  0  0
   31.3242   36.3395   -8.7770 C   0  0  0  0  0  0  0  0  0  0  0  0
   30.0093   36.9159   -8.2547 C   0  0  0  0  0  0  0  0  0  0  0  0
   31.1237   35.6176  -10.1469 C   0  0  0  0  0  0  0  0  0  0  0  0
   30.6275   36.5194  -11.3065 N   0  0  0  0  0  0  0  0  0  0  0  0
   29.3522   37.2638  -10.8995 C   0  0  0  0  0  0  0  0  0  0  0  0
   30.2744   35.6074  -12.4819 C   0  0  0  0  0  0  0  0  0  0  0  0
   31.6825   37.5118  -11.7554 C   0  0  0  0  0  0  0  0  0  0  0  0
   35.6969   38.1949   -7.4860 C   0  0  0  0  0  0  0  0  0  0  0  0
   36.4943   37.0850   -8.1253 C   0  0  0  0  0  0  0  0  0  0  0  0
   36.9684   36.0161   -7.3516 C   0  0  0  0  0  0  0  0  0  0  0  0
   37.7134   34.9931   -7.9396 C   0  0  0  0  0  0  0  0  0  0  0  0
   37.9904   35.0270   -9.3046 C   0  0  0  0  0  0  0  0  0  0  0  0
   37.5224   36.0840  -10.0826 C   0  0  0  0  0  0  0  0  0  0  0  0
   36.7783   37.1094   -9.4970 C   0  0  0  0  0  0  0  0  0  0  0  0
 12 13  1  0
 13 11  1  0
 11 10  1  0
 10  9  1  0
  9  6  1  0
  6  7  1  0
  6  2  1  0
  2  3  2  0
  2  4  1  0
  4  1  1  0
  1 25  1  0
 25 26  1  0
 26 27  2  0
 27 28  1  0
 28 29  2  0
 29 30  1  0
 30 31  2  0
  1 14  1  0
 14 15  2  0
 14 16  1  0
 16 18  1  0
 18 19  1  0
 18 20  1  0
 20 21  1  0
 21 22  1  0
 21 23  1  0
 21 24  1  0
 31 26  1  0
  7  8  1  0
  4  5  1  0
 16 17  1  0
M  CHG 1  21   1
M  END
> <minimizedAffinity>
-5.26191

> <CNNscore>
0.4235153198

> <CNNaffinity>
6.1136875153

> <CNN_VS>
2.5892403126

> <CNNaffinity_variance>
0.2405756861

$$$$
