


 30 33  0  0  0  0  0  0  0  0999 V2000
   22.2011   10.6521   21.5707 C   0  0  0  0  0  0  0  0  0  0  0  0
   22.2251    9.5163   22.4962 N   0  0  0  0  0  0  0  0  0  0  0  0
   22.2765    9.9370   23.7803 C   0  0  0  0  0  0  0  0  0  0  0  0
   22.1016    9.1622   24.7846 N   0  0  0  0  0  0  0  0  0  0  0  0
   22.5007   11.2667   23.8558 N   0  0  0  0  0  0  0  0  0  0  0  0
   22.6409   12.0616   25.0540 C   0  0  0  0  0  0  0  0  0  0  0  0
   22.4463   11.8223   22.5898 C   0  0  0  0  0  0  0  0  0  0  0  0
   22.5299   13.0187   22.3326 O   0  0  0  0  0  0  0  0  0  0  0  0
   22.2063    8.5716   22.2197 H   0  0  0  0  0  0  0  0  0  0  0  0
   21.9433    8.2009   24.6430 H   0  0  0  0  0  0  0  0  0  0  0  0
   25.7729   10.5602   20.0451 C   0  0  0  0  0  0  0  0  0  0  0  0
   25.4530   10.4478   18.6843 C   0  0  0  0  0  0  0  0  0  0  0  0
   24.1253   10.4069   18.2597 C   0  0  0  0  0  0  0  0  0  0  0  0
   23.0911   10.4759   19.1915 C   0  0  0  0  0  0  0  0  0  0  0  0
   23.3630   10.5883   20.5668 C   0  0  0  0  0  0  0  0  0  0  0  0
   24.7138   10.6298   20.9700 C   0  0  0  0  0  0  0  0  0  0  0  0
   29.0483    9.6038   21.7174 C   0  0  0  0  0  0  0  0  0  0  0  0
   29.8601   10.6785   21.3598 C   0  0  0  0  0  0  0  0  0  0  0  0
   29.3433   11.7120   20.5769 C   0  0  0  0  0  0  0  0  0  0  0  0
   28.0147   11.6744   20.1490 C   0  0  0  0  0  0  0  0  0  0  0  0
   27.1758   10.6038   20.4940 C   0  0  0  0  0  0  0  0  0  0  0  0
   27.7176    9.5746   21.2834 C   0  0  0  0  0  0  0  0  0  0  0  0
   30.1365    8.8094   23.6763 C   0  0  0  0  0  0  0  0  0  0  0  0
   29.4238    8.5302   22.4781 O   0  0  0  0  0  0  0  0  0  0  0  0
   20.8222   10.6742   20.8901 C   0  0  0  0  0  0  0  0  0  0  0  0
   20.0012    9.5270   20.9476 C   0  0  0  0  0  0  0  0  0  0  0  0
   18.7367    9.5103   20.3559 C   0  0  0  0  0  0  0  0  0  0  0  0
   18.2630   10.6396   19.6967 C   0  0  0  0  0  0  0  0  0  0  0  0
   19.0527   11.7839   19.6288 C   0  0  0  0  0  0  0  0  0  0  0  0
   20.3195   11.8035   20.2204 C   0  0  0  0  0  0  0  0  0  0  0  0
 23 24  1  0
 24 17  1  0
 17 18  2  0
 18 19  1  0
 19 20  2  0
 20 21  1  0
 21 11  1  0
 11 12  2  0
 12 13  1  0
 13 14  2  0
 14 15  1  0
  1 15  1  0
  1 25  1  0
 25 26  2  0
 26 27  1  0
 27 28  2  0
 28 29  1  0
 29 30  2  0
  1  2  1  0
  2  3  1  0
  3  4  2  0
  3  5  1  0
  5  6  1  0
  5  7  1  0
  7  8  2  0
 15 16  2  0
 21 22  2  0
 22 17  1  0
 16 11  1  0
  7  1  1  0
 30 25  1  0
  2  9  1  0
  4 10  1  0
M  END
> <minimizedAffinity>
-10.06689

> <CNNscore>
0.9908160567

> <CNNaffinity>
6.8539595604

> <CNN_VS>
6.7910132408

> <CNNaffinity_variance>
0.1513794512

$$$$



 30 33  0  0  0  0  0  0  0  0999 V2000
   22.1836   10.7140   21.6083 C   0  0  0  0  0  0  0  0  0  0  0  0
   22.2252    9.5567   22.5062 N   0  0  0  0  0  0  0  0  0  0  0  0
   22.2960    9.9471   23.7990 C   0  0  0  0  0  0  0  0  0  0  0  0
   22.1392    9.1482   24.7872 N   0  0  0  0  0  0  0  0  0  0  0  0
   22.5180   11.2752   23.9023 N   0  0  0  0  0  0  0  0  0  0  0  0
   22.6754   12.0419   25.1166 C   0  0  0  0  0  0  0  0  0  0  0  0
   22.4420   11.8604   22.6509 C   0  0  0  0  0  0  0  0  0  0  0  0
   22.5186   13.0628   22.4208 O   0  0  0  0  0  0  0  0  0  0  0  0
   22.2043    8.6188   22.2077 H   0  0  0  0  0  0  0  0  0  0  0  0
   21.9810    8.1900   24.6254 H   0  0  0  0  0  0  0  0  0  0  0  0
   25.7304   10.6918   20.0232 C   0  0  0  0  0  0  0  0  0  0  0  0
   25.3896   10.5862   18.6669 C   0  0  0  0  0  0  0  0  0  0  0  0
   24.0558   10.5281   18.2640 C   0  0  0  0  0  0  0  0  0  0  0  0
   23.0364   10.5726   19.2133 C   0  0  0  0  0  0  0  0  0  0  0  0
   23.3294   10.6773   20.5849 C   0  0  0  0  0  0  0  0  0  0  0  0
   24.6859   10.7367   20.9660 C   0  0  0  0  0  0  0  0  0  0  0  0
   29.2043   12.0291   20.7873 C   0  0  0  0  0  0  0  0  0  0  0  0
   29.8387   10.8825   21.2615 C   0  0  0  0  0  0  0  0  0  0  0  0
   29.1384    9.6772   21.3322 C   0  0  0  0  0  0  0  0  0  0  0  0
   27.8028    9.6142   20.9299 C   0  0  0  0  0  0  0  0  0  0  0  0
   27.1397   10.7537   20.4493 C   0  0  0  0  0  0  0  0  0  0  0  0
   27.8648   11.9563   20.3866 C   0  0  0  0  0  0  0  0  0  0  0  0
   29.4690   14.2163   21.6811 C   0  0  0  0  0  0  0  0  0  0  0  0
   29.7699   13.2689   20.6644 O   0  0  0  0  0  0  0  0  0  0  0  0
   20.7939   10.7482   20.9505 C   0  0  0  0  0  0  0  0  0  0  0  0
   20.0722    9.5454   20.7896 C   0  0  0  0  0  0  0  0  0  0  0  0
   18.8016    9.5344   20.2110 C   0  0  0  0  0  0  0  0  0  0  0  0
   18.2225   10.7245   19.7834 C   0  0  0  0  0  0  0  0  0  0  0  0
   18.9130   11.9237   19.9338 C   0  0  0  0  0  0  0  0  0  0  0  0
   20.1857   11.9377   20.5128 C   0  0  0  0  0  0  0  0  0  0  0  0
 23 24  1  0
 24 17  1  0
 17 18  2  0
 18 19  1  0
 19 20  2  0
 20 21  1  0
 21 11  1  0
 11 12  2  0
 12 13  1  0
 13 14  2  0
 14 15  1  0
  1 15  1  0
  1 25  1  0
 25 26  2  0
 26 27  1  0
 27 28  2  0
 28 29  1  0
 29 30  2  0
  1  2  1  0
  2  3  1  0
  3  4  2  0
  3  5  1  0
  5  6  1  0
  5  7  1  0
  7  8  2  0
 15 16  2  0
 21 22  2  0
 22 17  1  0
 16 11  1  0
  7  1  1  0
 30 25  1  0
  2  9  1  0
  4 10  1  0
M  END
> <minimizedAffinity>
-9.66832

> <CNNscore>
0.9790553451

> <CNNaffinity>
6.6736903191

> <CNN_VS>
6.5339121819

> <CNNaffinity_variance>
0.1508735269

$$$$



 30 33  0  0  0  0  0  0  0  0999 V2000
   22.2831   10.8479   21.2861 C   0  0  0  0  0  0  0  0  0  0  0  0
   22.5538    9.6593   22.0993 N   0  0  0  0  0  0  0  0  0  0  0  0
   22.7213    9.9885   23.4001 C   0  0  0  0  0  0  0  0  0  0  0  0
   22.7653    9.1270   24.3464 N   0  0  0  0  0  0  0  0  0  0  0  0
   22.8014   11.3266   23.5646 N   0  0  0  0  0  0  0  0  0  0  0  0
   23.0031   12.0433   24.8026 C   0  0  0  0  0  0  0  0  0  0  0  0
   22.5228   11.9620   22.3675 C   0  0  0  0  0  0  0  0  0  0  0  0
   22.4370   13.1751   22.2079 O   0  0  0  0  0  0  0  0  0  0  0  0
   22.6067    8.7422   21.7453 H   0  0  0  0  0  0  0  0  0  0  0  0
   22.6998    8.1664   24.1409 H   0  0  0  0  0  0  0  0  0  0  0  0
   25.2232   12.1466   19.1037 C   0  0  0  0  0  0  0  0  0  0  0  0
   25.1708   11.2220   18.0505 C   0  0  0  0  0  0  0  0  0  0  0  0
   24.2145   10.2072   18.0328 C   0  0  0  0  0  0  0  0  0  0  0  0
   23.2923   10.0975   19.0721 C   0  0  0  0  0  0  0  0  0  0  0  0
   23.3066   11.0009   20.1499 C   0  0  0  0  0  0  0  0  0  0  0  0
   24.2821   12.0194   20.1430 C   0  0  0  0  0  0  0  0  0  0  0  0
   27.2861   15.1666   18.0723 C   0  0  0  0  0  0  0  0  0  0  0  0
   28.1644   15.2763   19.1485 C   0  0  0  0  0  0  0  0  0  0  0  0
   28.0863   14.3699   20.2070 C   0  0  0  0  0  0  0  0  0  0  0  0
   27.1304   13.3521   20.1934 C   0  0  0  0  0  0  0  0  0  0  0  0
   26.2333   13.2194   19.1225 C   0  0  0  0  0  0  0  0  0  0  0  0
   26.3308   14.1432   18.0676 C   0  0  0  0  0  0  0  0  0  0  0  0
   28.5063   16.3679   16.4229 C   0  0  0  0  0  0  0  0  0  0  0  0
   27.2537   15.9821   16.9740 O   0  0  0  0  0  0  0  0  0  0  0  0
   20.8348   10.7496   20.7783 C   0  0  0  0  0  0  0  0  0  0  0  0
   20.1071    9.5570   20.9822 C   0  0  0  0  0  0  0  0  0  0  0  0
   18.7854    9.4315   20.5502 C   0  0  0  0  0  0  0  0  0  0  0  0
   18.1604   10.4952   19.9080 C   0  0  0  0  0  0  0  0  0  0  0  0
   18.8560   11.6824   19.6978 C   0  0  0  0  0  0  0  0  0  0  0  0
   20.1798   11.8109   20.1293 C   0  0  0  0  0  0  0  0  0  0  0  0
 23 24  1  0
 24 17  1  0
 17 18  2  0
 18 19  1  0
 19 20  2  0
 20 21  1  0
 21 11  1  0
 11 12  2  0
 12 13  1  0
 13 14  2  0
 14 15  1  0
  1 15  1  0
  1 25  1  0
 25 26  2  0
 26 27  1  0
 27 28  2  0
 28 29  1  0
 29 30  2  0
  1  2  1  0
  2  3  1  0
  3  4  2  0
  3  5  1  0
  5  6  1  0
  5  7  1  0
  7  8  2  0
 15 16  2  0
 21 22  2  0
 22 17  1  0
 16 11  1  0
  7  1  1  0
 30 25  1  0
  2  9  1  0
  4 10  1  0
M  END
> <minimizedAffinity>
-9.31268

> <CNNscore>
0.9433980584

> <CNNaffinity>
6.5885086060

> <CNN_VS>
6.2155861855

> <CNNaffinity_variance>
0.0554276593

$$$$



 30 33  0  0  0  0  0  0  0  0999 V2000
   22.2655   10.8449   21.2700 C   0  0  0  0  0  0  0  0  0  0  0  0
   22.5356    9.6629   22.0930 N   0  0  0  0  0  0  0  0  0  0  0  0
   22.7108   10.0036   23.3899 C   0  0  0  0  0  0  0  0  0  0  0  0
   22.7561    9.1508   24.3439 N   0  0  0  0  0  0  0  0  0  0  0  0
   22.7969   11.3429   23.5413 N   0  0  0  0  0  0  0  0  0  0  0  0
   23.0075   12.0703   24.7716 C   0  0  0  0  0  0  0  0  0  0  0  0
   22.5149   11.9681   22.3397 C   0  0  0  0  0  0  0  0  0  0  0  0
   22.4329   13.1800   22.1692 O   0  0  0  0  0  0  0  0  0  0  0  0
   22.5831    8.7423   21.7474 H   0  0  0  0  0  0  0  0  0  0  0  0
   22.6859    8.1886   24.1478 H   0  0  0  0  0  0  0  0  0  0  0  0
   25.1778   12.1321   19.0440 C   0  0  0  0  0  0  0  0  0  0  0  0
   25.1398   11.1768   18.0180 C   0  0  0  0  0  0  0  0  0  0  0  0
   24.2017   10.1451   18.0318 C   0  0  0  0  0  0  0  0  0  0  0  0
   23.2837   10.0490   19.0761 C   0  0  0  0  0  0  0  0  0  0  0  0
   23.2839   10.9832   20.1274 C   0  0  0  0  0  0  0  0  0  0  0  0
   24.2411   12.0182   20.0889 C   0  0  0  0  0  0  0  0  0  0  0  0
   28.1356   14.3207   19.9933 C   0  0  0  0  0  0  0  0  0  0  0  0
   28.0699   15.3074   19.0113 C   0  0  0  0  0  0  0  0  0  0  0  0
   27.0658   15.2612   18.0430 C   0  0  0  0  0  0  0  0  0  0  0  0
   26.1251   14.2292   18.0528 C   0  0  0  0  0  0  0  0  0  0  0  0
   26.1687   13.2227   19.0296 C   0  0  0  0  0  0  0  0  0  0  0  0
   27.1883   13.2899   19.9948 C   0  0  0  0  0  0  0  0  0  0  0  0
   29.0213   13.0897   21.8243 C   0  0  0  0  0  0  0  0  0  0  0  0
   29.0615   14.2460   20.9979 O   0  0  0  0  0  0  0  0  0  0  0  0
   20.8143   10.7475   20.7703 C   0  0  0  0  0  0  0  0  0  0  0  0
   20.0915    9.5506   20.9662 C   0  0  0  0  0  0  0  0  0  0  0  0
   18.7675    9.4257   20.5412 C   0  0  0  0  0  0  0  0  0  0  0  0
   18.1352   10.4941   19.9142 C   0  0  0  0  0  0  0  0  0  0  0  0
   18.8260   11.6855   19.7122 C   0  0  0  0  0  0  0  0  0  0  0  0
   20.1521   11.8135   20.1367 C   0  0  0  0  0  0  0  0  0  0  0  0
 23 24  1  0
 24 17  1  0
 17 18  2  0
 18 19  1  0
 19 20  2  0
 20 21  1  0
 21 11  1  0
 11 12  2  0
 12 13  1  0
 13 14  2  0
 14 15  1  0
  1 15  1  0
  1 25  1  0
 25 26  2  0
 26 27  1  0
 27 28  2  0
 28 29  1  0
 29 30  2  0
  1  2  1  0
  2  3  1  0
  3  4  2  0
  3  5  1  0
  5  6  1  0
  5  7  1  0
  7  8  2  0
 15 16  2  0
 21 22  2  0
 22 17  1  0
 16 11  1  0
  7  1  1  0
 30 25  1  0
  2  9  1  0
  4 10  1  0
M  END
> <minimizedAffinity>
-9.27653

> <CNNscore>
0.9224625826

> <CNNaffinity>
6.5010151863

> <CNN_VS>
5.9969434738

> <CNNaffinity_variance>
0.1102210283

$$$$



 30 33  0  0  0  0  0  0  0  0999 V2000
   21.8518   11.9165   22.3860 C   0  0  0  0  0  0  0  0  0  0  0  0
   22.1287   10.5480   22.8308 N   0  0  0  0  0  0  0  0  0  0  0  0
   21.9053   10.4139   24.1577 C   0  0  0  0  0  0  0  0  0  0  0  0
   21.8729    9.2831   24.7574 N   0  0  0  0  0  0  0  0  0  0  0  0
   21.6926   11.6108   24.7461 N   0  0  0  0  0  0  0  0  0  0  0  0
   21.4453   11.8630   26.1470 C   0  0  0  0  0  0  0  0  0  0  0  0
   21.6058   12.5975   23.7801 C   0  0  0  0  0  0  0  0  0  0  0  0
   21.3385   13.7765   23.9879 O   0  0  0  0  0  0  0  0  0  0  0  0
   22.4366    9.8220   22.2414 H   0  0  0  0  0  0  0  0  0  0  0  0
   22.0397    8.4538   24.2537 H   0  0  0  0  0  0  0  0  0  0  0  0
   25.4176   12.4485   20.9384 C   0  0  0  0  0  0  0  0  0  0  0  0
   25.2866   13.7540   20.4434 C   0  0  0  0  0  0  0  0  0  0  0  0
   24.0872   14.4539   20.5723 C   0  0  0  0  0  0  0  0  0  0  0  0
   22.9940   13.8579   21.1985 C   0  0  0  0  0  0  0  0  0  0  0  0
   23.0777   12.5503   21.7097 C   0  0  0  0  0  0  0  0  0  0  0  0
   24.3022   11.8649   21.5687 C   0  0  0  0  0  0  0  0  0  0  0  0
   28.7355   10.8053   21.7937 C   0  0  0  0  0  0  0  0  0  0  0  0
   29.1139   10.2951   20.5534 C   0  0  0  0  0  0  0  0  0  0  0  0
   28.2922   10.4854   19.4414 C   0  0  0  0  0  0  0  0  0  0  0  0
   27.0903   11.1852   19.5656 C   0  0  0  0  0  0  0  0  0  0  0  0
   26.6849   11.7088   20.8028 C   0  0  0  0  0  0  0  0  0  0  0  0
   27.5285   11.5053   21.9086 C   0  0  0  0  0  0  0  0  0  0  0  0
   29.8339    9.3837   23.3511 C   0  0  0  0  0  0  0  0  0  0  0  0
   29.4433   10.6935   22.9595 O   0  0  0  0  0  0  0  0  0  0  0  0
   20.6182   11.8716   21.4687 C   0  0  0  0  0  0  0  0  0  0  0  0
   20.7575   11.4152   20.1399 C   0  0  0  0  0  0  0  0  0  0  0  0
   19.6605   11.3448   19.2791 C   0  0  0  0  0  0  0  0  0  0  0  0
   18.4001   11.7254   19.7271 C   0  0  0  0  0  0  0  0  0  0  0  0
   18.2368   12.1763   21.0339 C   0  0  0  0  0  0  0  0  0  0  0  0
   19.3336   12.2480   21.8982 C   0  0  0  0  0  0  0  0  0  0  0  0
 23 24  1  0
 24 17  1  0
 17 18  2  0
 18 19  1  0
 19 20  2  0
 20 21  1  0
 21 11  1  0
 11 12  2  0
 12 13  1  0
 13 14  2  0
 14 15  1  0
  1 15  1  0
  1 25  1  0
 25 26  2  0
 26 27  1  0
 27 28  2  0
 28 29  1  0
 29 30  2  0
  1  2  1  0
  2  3  1  0
  3  4  2  0
  3  5  1  0
  5  6  1  0
  5  7  1  0
  7  8  2  0
 15 16  2  0
 21 22  2  0
 22 17  1  0
 16 11  1  0
  7  1  1  0
 30 25  1  0
  2  9  1  0
  4 10  1  0
M  END
> <minimizedAffinity>
-8.94156

> <CNNscore>
0.8783380985

> <CNNaffinity>
6.6551890373

> <CNN_VS>
5.8455061913

> <CNNaffinity_variance>
0.0260494892

$$$$



 30 33  0  0  0  0  0  0  0  0999 V2000
   26.0192   12.6047   19.1321 C   0  0  0  0  0  0  0  0  0  0  0  0
   26.3778   13.0751   17.7914 N   0  0  0  0  0  0  0  0  0  0  0  0
   26.3676   14.4260   17.7317 C   0  0  0  0  0  0  0  0  0  0  0  0
   26.8378   15.0925   16.7446 N   0  0  0  0  0  0  0  0  0  0  0  0
   25.8337   14.9657   18.8486 N   0  0  0  0  0  0  0  0  0  0  0  0
   25.6365   16.3686   19.1318 C   0  0  0  0  0  0  0  0  0  0  0  0
   25.6090   13.9731   19.7859 C   0  0  0  0  0  0  0  0  0  0  0  0
   25.2062   14.1520   20.9305 O   0  0  0  0  0  0  0  0  0  0  0  0
   26.5972   12.4854   17.0342 H   0  0  0  0  0  0  0  0  0  0  0  0
   27.2106   14.6208   15.9651 H   0  0  0  0  0  0  0  0  0  0  0  0
   22.4365   11.1681   19.5719 C   0  0  0  0  0  0  0  0  0  0  0  0
   22.6067    9.9067   18.9832 C   0  0  0  0  0  0  0  0  0  0  0  0
   23.8399    9.5186   18.4605 C   0  0  0  0  0  0  0  0  0  0  0  0
   24.9274   10.3886   18.5156 C   0  0  0  0  0  0  0  0  0  0  0  0
   24.8045   11.6640   19.0954 C   0  0  0  0  0  0  0  0  0  0  0  0
   23.5475   12.0314   19.6188 C   0  0  0  0  0  0  0  0  0  0  0  0
   18.7006   11.3177   20.2505 C   0  0  0  0  0  0  0  0  0  0  0  0
   18.6339   12.3570   21.1765 C   0  0  0  0  0  0  0  0  0  0  0  0
   19.8012   13.0078   21.5789 C   0  0  0  0  0  0  0  0  0  0  0  0
   21.0379   12.6220   21.0578 C   0  0  0  0  0  0  0  0  0  0  0  0
   21.1336   11.5783   20.1247 C   0  0  0  0  0  0  0  0  0  0  0  0
   19.9450   10.9377   19.7339 C   0  0  0  0  0  0  0  0  0  0  0  0
   17.5032    9.2637   20.2396 C   0  0  0  0  0  0  0  0  0  0  0  0
   17.6399   10.5989   19.7702 O   0  0  0  0  0  0  0  0  0  0  0  0
   27.2662   11.9489   19.7488 C   0  0  0  0  0  0  0  0  0  0  0  0
   28.1664   12.7372   20.4981 C   0  0  0  0  0  0  0  0  0  0  0  0
   29.3023   12.1784   21.0870 C   0  0  0  0  0  0  0  0  0  0  0  0
   29.5624   10.8196   20.9433 C   0  0  0  0  0  0  0  0  0  0  0  0
   28.6882   10.0210   20.2115 C   0  0  0  0  0  0  0  0  0  0  0  0
   27.5499   10.5780   19.6206 C   0  0  0  0  0  0  0  0  0  0  0  0
 23 24  1  0
 24 17  1  0
 17 18  2  0
 18 19  1  0
 19 20  2  0
 20 21  1  0
 21 11  1  0
 11 12  2  0
 12 13  1  0
 13 14  2  0
 14 15  1  0
  1 15  1  0
  1 25  1  0
 25 26  2  0
 26 27  1  0
 27 28  2  0
 28 29  1  0
 29 30  2  0
  1  2  1  0
  2  3  1  0
  3  4  2  0
  3  5  1  0
  5  6  1  0
  5  7  1  0
  7  8  2  0
 15 16  2  0
 21 22  2  0
 22 17  1  0
 16 11  1  0
  7  1  1  0
 30 25  1  0
  2  9  1  0
  4 10  1  0
M  END
> <minimizedAffinity>
-10.04784

> <CNNscore>
0.6461703777

> <CNNaffinity>
5.8019485474

> <CNN_VS>
3.7490472794

> <CNNaffinity_variance>
0.5997492075

$$$$



 30 33  0  0  0  0  0  0  0  0999 V2000
   25.6228   11.7452   20.4422 C   0  0  0  0  0  0  0  0  0  0  0  0
   24.8155   11.5826   21.6543 N   0  0  0  0  0  0  0  0  0  0  0  0
   23.8683   10.6328   21.4833 C   0  0  0  0  0  0  0  0  0  0  0  0
   23.1682   10.1533   22.4422 N   0  0  0  0  0  0  0  0  0  0  0  0
   23.7865   10.2436   20.1926 N   0  0  0  0  0  0  0  0  0  0  0  0
   22.8786    9.2706   19.6303 C   0  0  0  0  0  0  0  0  0  0  0  0
   24.8127   10.8196   19.4650 C   0  0  0  0  0  0  0  0  0  0  0  0
   25.0586   10.6003   18.2835 O   0  0  0  0  0  0  0  0  0  0  0  0
   24.9455   12.0970   22.4836 H   0  0  0  0  0  0  0  0  0  0  0  0
   23.2894   10.4934   23.3581 H   0  0  0  0  0  0  0  0  0  0  0  0
   26.5378   15.0424   18.6025 C   0  0  0  0  0  0  0  0  0  0  0  0
   25.4656   15.8513   19.0060 C   0  0  0  0  0  0  0  0  0  0  0  0
   24.4725   15.3580   19.8516 C   0  0  0  0  0  0  0  0  0  0  0  0
   24.5333   14.0427   20.3085 C   0  0  0  0  0  0  0  0  0  0  0  0
   25.5889   13.1938   19.9301 C   0  0  0  0  0  0  0  0  0  0  0  0
   26.5815   13.7173   19.0761 C   0  0  0  0  0  0  0  0  0  0  0  0
   29.8651   16.3997   17.3667 C   0  0  0  0  0  0  0  0  0  0  0  0
   29.6042   16.5628   16.0076 C   0  0  0  0  0  0  0  0  0  0  0  0
   28.3490   16.2325   15.4943 C   0  0  0  0  0  0  0  0  0  0  0  0
   27.3515   15.7381   16.3371 C   0  0  0  0  0  0  0  0  0  0  0  0
   27.5877   15.5634   17.7093 C   0  0  0  0  0  0  0  0  0  0  0  0
   28.8589   15.9030   18.2039 C   0  0  0  0  0  0  0  0  0  0  0  0
   30.9815   16.9244   19.3992 C   0  0  0  0  0  0  0  0  0  0  0  0
   31.0446   16.6841   17.9993 O   0  0  0  0  0  0  0  0  0  0  0  0
   27.0459   11.2543   20.7566 C   0  0  0  0  0  0  0  0  0  0  0  0
   27.8957   12.0529   21.5526 C   0  0  0  0  0  0  0  0  0  0  0  0
   29.1894   11.6376   21.8737 C   0  0  0  0  0  0  0  0  0  0  0  0
   29.6618   10.4144   21.4099 C   0  0  0  0  0  0  0  0  0  0  0  0
   28.8419    9.6079   20.6258 C   0  0  0  0  0  0  0  0  0  0  0  0
   27.5458   10.0213   20.3025 C   0  0  0  0  0  0  0  0  0  0  0  0
 23 24  1  0
 24 17  1  0
 17 18  2  0
 18 19  1  0
 19 20  2  0
 20 21  1  0
 21 11  1  0
 11 12  2  0
 12 13  1  0
 13 14  2  0
 14 15  1  0
  1 15  1  0
  1 25  1  0
 25 26  2  0
 26 27  1  0
 27 28  2  0
 28 29  1  0
 29 30  2  0
  1  2  1  0
  2  3  1  0
  3  4  2  0
  3  5  1  0
  5  6  1  0
  5  7  1  0
  7  8  2  0
 15 16  2  0
 21 22  2  0
 22 17  1  0
 16 11  1  0
  7  1  1  0
 30 25  1  0
  2  9  1  0
  4 10  1  0
M  END
> <minimizedAffinity>
-7.76251

> <CNNscore>
0.6245418787

> <CNNaffinity>
6.0881595612

> <CNN_VS>
3.8023107052

> <CNNaffinity_variance>
0.2570418119

$$$$



 30 33  0  0  0  0  0  0  0  0999 V2000
   18.6856   11.2806   23.8488 C   0  0  0  0  0  0  0  0  0  0  0  0
   19.6209   10.3278   24.4528 N   0  0  0  0  0  0  0  0  0  0  0  0
   20.3827   10.9264   25.3961 C   0  0  0  0  0  0  0  0  0  0  0  0
   21.1304   10.2831   26.2125 N   0  0  0  0  0  0  0  0  0  0  0  0
   20.2246   12.2676   25.3806 N   0  0  0  0  0  0  0  0  0  0  0  0
   20.8899   13.2347   26.2228 C   0  0  0  0  0  0  0  0  0  0  0  0
   19.2043   12.6078   24.5101 C   0  0  0  0  0  0  0  0  0  0  0  0
   18.7660   13.7397   24.3338 O   0  0  0  0  0  0  0  0  0  0  0  0
   19.6860    9.3773   24.2046 H   0  0  0  0  0  0  0  0  0  0  0  0
   21.1902    9.3020   26.1566 H   0  0  0  0  0  0  0  0  0  0  0  0
   20.2781   11.3087   20.3052 C   0  0  0  0  0  0  0  0  0  0  0  0
   19.1278   11.4885   19.5234 C   0  0  0  0  0  0  0  0  0  0  0  0
   17.8694   11.6035   20.1132 C   0  0  0  0  0  0  0  0  0  0  0  0
   17.7385   11.5385   21.4993 C   0  0  0  0  0  0  0  0  0  0  0  0
   18.8633   11.3584   22.3242 C   0  0  0  0  0  0  0  0  0  0  0  0
   20.1246   11.2471   21.7033 C   0  0  0  0  0  0  0  0  0  0  0  0
   23.5278   12.2091   18.5535 C   0  0  0  0  0  0  0  0  0  0  0  0
   24.1540   10.9660   18.4866 C   0  0  0  0  0  0  0  0  0  0  0  0
   23.5207    9.8376   19.0095 C   0  0  0  0  0  0  0  0  0  0  0  0
   22.2606    9.9479   19.6010 C   0  0  0  0  0  0  0  0  0  0  0  0
   21.6080   11.1876   19.6823 C   0  0  0  0  0  0  0  0  0  0  0  0
   22.2646   12.3101   19.1487 C   0  0  0  0  0  0  0  0  0  0  0  0
   25.3758   13.6997   18.4277 C   0  0  0  0  0  0  0  0  0  0  0  0
   24.0319   13.3903   18.0814 O   0  0  0  0  0  0  0  0  0  0  0  0
   17.2632   10.8708   24.2658 C   0  0  0  0  0  0  0  0  0  0  0  0
   16.3079   11.8709   24.5499 C   0  0  0  0  0  0  0  0  0  0  0  0
   15.0017   11.5421   24.9175 C   0  0  0  0  0  0  0  0  0  0  0  0
   14.6200   10.2076   25.0063 C   0  0  0  0  0  0  0  0  0  0  0  0
   15.5430    9.2034   24.7283 C   0  0  0  0  0  0  0  0  0  0  0  0
   16.8518    9.5298   24.3601 C   0  0  0  0  0  0  0  0  0  0  0  0
 23 24  1  0
 24 17  1  0
 17 18  2  0
 18 19  1  0
 19 20  2  0
 20 21  1  0
 21 11  1  0
 11 12  2  0
 12 13  1  0
 13 14  2  0
 14 15  1  0
  1 15  1  0
  1 25  1  0
 25 26  2  0
 26 27  1  0
 27 28  2  0
 28 29  1  0
 29 30  2  0
  1  2  1  0
  2  3  1  0
  3  4  2  0
  3  5  1  0
  5  6  1  0
  5  7  1  0
  7  8  2  0
 15 16  2  0
 21 22  2  0
 22 17  1  0
 16 11  1  0
  7  1  1  0
 30 25  1  0
  2  9  1  0
  4 10  1  0
M  END
> <minimizedAffinity>
-9.08593

> <CNNscore>
0.5855947137

> <CNNaffinity>
5.6230893135

> <CNN_VS>
3.2928514481

> <CNNaffinity_variance>
0.2385364026

$$$$



 30 33  0  0  0  0  0  0  0  0999 V2000
   23.0121   12.0080   22.3015 C   0  0  0  0  0  0  0  0  0  0  0  0
   23.5052   10.9367   23.1712 N   0  0  0  0  0  0  0  0  0  0  0  0
   22.4825   10.2053   23.6688 C   0  0  0  0  0  0  0  0  0  0  0  0
   22.6433    9.0947   24.2854 N   0  0  0  0  0  0  0  0  0  0  0  0
   21.2894   10.7794   23.4024 N   0  0  0  0  0  0  0  0  0  0  0  0
   19.9837   10.3014   23.7949 C   0  0  0  0  0  0  0  0  0  0  0  0
   21.4691   11.8600   22.5572 C   0  0  0  0  0  0  0  0  0  0  0  0
   20.5722   12.5393   22.0688 O   0  0  0  0  0  0  0  0  0  0  0  0
   24.4557   10.7713   23.3674 H   0  0  0  0  0  0  0  0  0  0  0  0
   23.5502    8.7441   24.4396 H   0  0  0  0  0  0  0  0  0  0  0  0
   23.1668   15.4493   24.0978 C   0  0  0  0  0  0  0  0  0  0  0  0
   24.4129   15.9047   23.6434 C   0  0  0  0  0  0  0  0  0  0  0  0
   25.1873   15.1330   22.7776 C   0  0  0  0  0  0  0  0  0  0  0  0
   24.7287   13.8879   22.3513 C   0  0  0  0  0  0  0  0  0  0  0  0
   23.4859   13.3890   22.7810 C   0  0  0  0  0  0  0  0  0  0  0  0
   22.7211   14.1896   23.6544 C   0  0  0  0  0  0  0  0  0  0  0  0
   21.0356   16.4806   27.0700 C   0  0  0  0  0  0  0  0  0  0  0  0
   20.7781   17.8167   26.7693 C   0  0  0  0  0  0  0  0  0  0  0  0
   21.2960   18.3808   25.6024 C   0  0  0  0  0  0  0  0  0  0  0  0
   22.0728   17.6120   24.7333 C   0  0  0  0  0  0  0  0  0  0  0  0
   22.3480   16.2646   25.0123 C   0  0  0  0  0  0  0  0  0  0  0  0
   21.8157   15.7178   26.1928 C   0  0  0  0  0  0  0  0  0  0  0  0
   20.7515   14.3914   28.1688 C   0  0  0  0  0  0  0  0  0  0  0  0
   20.5909   15.8042   28.1732 O   0  0  0  0  0  0  0  0  0  0  0  0
   23.4564   11.6880   20.8643 C   0  0  0  0  0  0  0  0  0  0  0  0
   23.0016   12.4975   19.8006 C   0  0  0  0  0  0  0  0  0  0  0  0
   23.3929   12.2506   18.4834 C   0  0  0  0  0  0  0  0  0  0  0  0
   24.2494   11.1921   18.1998 C   0  0  0  0  0  0  0  0  0  0  0  0
   24.7136   10.3814   19.2317 C   0  0  0  0  0  0  0  0  0  0  0  0
   24.3233   10.6263   20.5519 C   0  0  0  0  0  0  0  0  0  0  0  0
 23 24  1  0
 24 17  1  0
 17 18  2  0
 18 19  1  0
 19 20  2  0
 20 21  1  0
 21 11  1  0
 11 12  2  0
 12 13  1  0
 13 14  2  0
 14 15  1  0
  1 15  1  0
  1 25  1  0
 25 26  2  0
 26 27  1  0
 27 28  2  0
 28 29  1  0
 29 30  2  0
  1  2  1  0
  2  3  1  0
  3  4  2  0
  3  5  1  0
  5  6  1  0
  5  7  1  0
  7  8  2  0
 15 16  2  0
 21 22  2  0
 22 17  1  0
 16 11  1  0
  7  1  1  0
 30 25  1  0
  2  9  1  0
  4 10  1  0
M  END
> <minimizedAffinity>
-7.70407

> <CNNscore>
0.5595414042

> <CNNaffinity>
5.8515052795

> <CNN_VS>
3.2741594315

> <CNNaffinity_variance>
0.1878062934

$$$$
