


 49 52  0  0  0  0  0  0  0  0999 V2000
   44.8298   14.3112    1.1010 C   0  0  0  0  0  0  0  0  0  0  0  0
   45.5806   14.7597    2.1713 C   0  0  0  0  0  0  0  0  0  0  0  0
   46.8271   13.6335    2.5339 S   0  0  0  0  0  0  0  0  0  0  0  0
   46.4580   12.6289    1.1888 C   0  0  0  0  0  0  0  0  0  0  0  0
   45.3650   13.1281    0.5140 C   0  0  0  0  0  0  0  0  0  0  0  0
   44.5970   12.3990   -1.0636 Br  0  0  0  0  0  0  0  0  0  0  0  0
   47.2827   11.4382    0.9451 C   0  0  0  0  0  0  0  0  0  0  0  0
   48.3175   11.4646    0.0042 C   0  0  0  0  0  0  0  0  0  0  0  0
   49.1201   10.3417   -0.1875 C   0  0  0  0  0  0  0  0  0  0  0  0
   48.8725    9.1686    0.5342 C   0  0  0  0  0  0  0  0  0  0  0  0
   47.8052    9.0817    1.4307 C   0  0  0  0  0  0  0  0  0  0  0  0
   47.0499   10.2462    1.6543 C   0  0  0  0  0  0  0  0  0  0  0  0
   47.5290    7.9508    2.2011 N   0  0  0  0  0  0  0  0  0  0  0  0
   46.5919    7.7099    2.3827 H   0  0  0  0  0  0  0  0  0  0  0  0
   48.6071    7.1096    2.7485 C   0  0  0  0  0  0  0  0  0  0  0  0
   49.8760    7.9630    2.8973 C   0  0  0  0  0  0  0  0  0  0  0  0
   50.6144    7.7046    4.2069 C   0  0  0  0  0  0  0  0  0  0  0  0
   50.5969    6.2663    4.4979 N   0  0  0  0  0  0  0  0  0  0  0  0
   49.2714    5.6413    4.6728 C   0  0  0  0  0  0  0  0  0  0  0  0
   48.1650    6.5169    4.0895 C   0  0  0  0  0  0  0  0  0  0  0  0
   51.9366    5.5523    5.2338 S   0  0  0  0  0  0  0  0  0  0  0  0
   51.4987    5.1388    6.5536 O   0  0  0  0  0  0  0  0  0  0  0  0
   53.0556    6.4632    5.0925 O   0  0  0  0  0  0  0  0  0  0  0  0
   52.2469    4.0417    4.2996 C   0  0  0  0  0  0  0  0  0  0  0  0
   53.1868    4.2494    3.1432 C   0  0  0  0  0  0  0  0  0  0  0  0
   54.4441    3.6281    3.1196 C   0  0  0  0  0  0  0  0  0  0  0  0
   55.3055    3.8079    2.0361 C   0  0  0  0  0  0  0  0  0  0  0  0
   54.9185    4.5999    0.9585 C   0  0  0  0  0  0  0  0  0  0  0  0
   53.6661    5.2091    0.9602 C   0  0  0  0  0  0  0  0  0  0  0  0
   52.8012    5.0305    2.0413 C   0  0  0  0  0  0  0  0  0  0  0  0
   45.5011   15.9477    2.9887 C   0  0  0  0  0  0  0  0  0  0  0  0
   46.1378   16.9851    2.8965 O   0  0  0  0  0  0  0  0  0  0  0  0
   44.5722   15.8512    3.9769 O   0  0  0  0  0  0  0  0  0  0  0  0
   44.0686   15.0668    4.0716 H   0  0  0  0  0  0  0  0  0  0  0  0
   43.7506   14.9661    0.6045 O   0  0  0  0  0  0  0  0  0  0  0  0
   44.1008   15.8318   -0.4736 C   0  0  0  0  0  0  0  0  0  0  0  0
   43.2551   15.4841   -1.7106 C   0  0  0  0  0  0  0  0  0  0  0  0
   43.7720   16.0285   -3.1536 N   0  0  0  0  0  0  0  0  0  0  0  0
   42.8279   15.5041   -4.2234 C   0  0  0  0  0  0  0  0  0  0  0  0
   45.1619   15.4074   -3.3768 C   0  0  0  0  0  0  0  0  0  0  0  0
   43.8134   17.5447   -2.9615 C   0  0  0  0  0  0  0  0  0  0  0  0
   44.5221   18.5302   -3.9367 N   0  0  0  0  0  0  0  0  0  0  0  0
   45.9483   18.8199   -3.4955 C   0  0  0  0  0  0  0  0  0  0  0  0
   43.7329   19.8504   -3.7568 C   0  0  0  0  0  0  0  0  0  0  0  0
   44.4103   18.0241   -5.3747 C   0  0  0  0  0  0  0  0  0  0  0  0
   43.7283   20.1508   -6.6575 C   0  0  0  0  0  0  0  0  0  0  0  0
   44.6363   18.9091   -6.5902 N   0  0  0  0  0  0  0  0  0  0  0  0
   46.0751   19.3223   -6.8876 C   0  0  0  0  0  0  0  0  0  0  0  0
   44.1957   18.0479   -7.8324 C   0  0  0  0  0  0  0  0  0  0  0  0
 46 47  1  0
 47 48  1  0
 47 49  1  0
 47 45  1  0
 45 42  1  0
 42 43  1  0
 42 44  1  0
 42 41  1  0
 41 38  1  0
 38 39  1  0
 38 40  1  0
 38 37  1  0
 37 36  1  0
 36 35  1  0
 35  1  1  0
  1  2  2  0
  2 31  1  0
 31 32  2  0
 31 33  1  0
  2  3  1  0
  3  4  1  0
  4  7  1  0
  7  8  2  0
  8  9  1  0
  9 10  2  0
 10 11  1  0
 11 13  1  0
 13 15  1  0
 15 16  1  0
 16 17  1  0
 17 18  1  0
 18 21  1  0
 21 22  2  0
 21 23  2  0
 21 24  1  0
 24 25  1  0
 25 26  2  0
 26 27  1  0
 27 28  2  0
 28 29  1  0
 29 30  2  0
 18 19  1  0
 19 20  1  0
 11 12  2  0
  4  5  2  0
  5  6  1  0
  5  1  1  0
 12  7  1  0
 20 15  1  0
 30 25  1  0
 33 34  1  0
 13 14  1  0
M  CHG 1  38   1
M  CHG 1  42   1
M  CHG 1  47   1
M  END
> <minimizedAffinity>
-6.85940

> <CNNscore>
0.2728351653

> <CNNaffinity>
6.9126477242

> <CNN_VS>
1.8860133886

> <CNNaffinity_variance>
0.1071967259

$$$$



 49 52  0  0  0  0  0  0  0  0999 V2000
   43.0742   10.3259   -3.0142 C   0  0  0  0  0  0  0  0  0  0  0  0
   42.9201    9.0239   -2.5764 C   0  0  0  0  0  0  0  0  0  0  0  0
   43.8809    8.7516   -1.1777 S   0  0  0  0  0  0  0  0  0  0  0  0
   44.3859   10.3914   -1.0740 C   0  0  0  0  0  0  0  0  0  0  0  0
   43.8654   11.1120   -2.1271 C   0  0  0  0  0  0  0  0  0  0  0  0
   44.0996   12.9728   -2.4320 Br  0  0  0  0  0  0  0  0  0  0  0  0
   45.2590   10.7960    0.0356 C   0  0  0  0  0  0  0  0  0  0  0  0
   44.8406   11.7573    0.9617 C   0  0  0  0  0  0  0  0  0  0  0  0
   45.6607   12.1018    2.0342 C   0  0  0  0  0  0  0  0  0  0  0  0
   46.9237   11.5147    2.1709 C   0  0  0  0  0  0  0  0  0  0  0  0
   47.4045   10.6036    1.2280 C   0  0  0  0  0  0  0  0  0  0  0  0
   46.5343   10.2239    0.1910 C   0  0  0  0  0  0  0  0  0  0  0  0
   48.6404    9.9624    1.3285 N   0  0  0  0  0  0  0  0  0  0  0  0
   49.4632   10.4743    1.1545 H   0  0  0  0  0  0  0  0  0  0  0  0
   48.7420    8.5378    1.6887 C   0  0  0  0  0  0  0  0  0  0  0  0
   50.1909    8.0736    1.4746 C   0  0  0  0  0  0  0  0  0  0  0  0
   50.7001    7.1802    2.6015 C   0  0  0  0  0  0  0  0  0  0  0  0
   49.6329    6.2596    3.0104 N   0  0  0  0  0  0  0  0  0  0  0  0
   48.3944    6.8699    3.5318 C   0  0  0  0  0  0  0  0  0  0  0  0
   48.2952    8.3423    3.1402 C   0  0  0  0  0  0  0  0  0  0  0  0
   50.0279    4.6893    3.4838 S   0  0  0  0  0  0  0  0  0  0  0  0
   51.2441    4.3473    2.7708 O   0  0  0  0  0  0  0  0  0  0  0  0
   48.8415    3.8703    3.3298 O   0  0  0  0  0  0  0  0  0  0  0  0
   50.4724    4.8127    5.2267 C   0  0  0  0  0  0  0  0  0  0  0  0
   51.0750    3.5455    5.7699 C   0  0  0  0  0  0  0  0  0  0  0  0
   50.2600    2.4719    6.1580 C   0  0  0  0  0  0  0  0  0  0  0  0
   50.8237    1.2910    6.6435 C   0  0  0  0  0  0  0  0  0  0  0  0
   52.2068    1.1625    6.7368 C   0  0  0  0  0  0  0  0  0  0  0  0
   53.0292    2.2137    6.3388 C   0  0  0  0  0  0  0  0  0  0  0  0
   52.4693    3.3959    5.8514 C   0  0  0  0  0  0  0  0  0  0  0  0
   42.1318    7.9173   -3.0659 C   0  0  0  0  0  0  0  0  0  0  0  0
   40.9194    7.8307   -3.1780 O   0  0  0  0  0  0  0  0  0  0  0  0
   42.8886    6.8541   -3.4477 O   0  0  0  0  0  0  0  0  0  0  0  0
   43.8218    6.8923   -3.3729 H   0  0  0  0  0  0  0  0  0  0  0  0
   42.4719   10.8303   -4.1199 O   0  0  0  0  0  0  0  0  0  0  0  0
   41.1993   11.4011   -3.8213 C   0  0  0  0  0  0  0  0  0  0  0  0
   40.1580   10.9012   -4.8372 C   0  0  0  0  0  0  0  0  0  0  0  0
   38.8305   11.8130   -5.0657 N   0  0  0  0  0  0  0  0  0  0  0  0
   37.7641   10.9434   -5.7117 C   0  0  0  0  0  0  0  0  0  0  0  0
   39.2314   12.9184   -6.0582 C   0  0  0  0  0  0  0  0  0  0  0  0
   38.5245   12.3433   -3.6647 C   0  0  0  0  0  0  0  0  0  0  0  0
   37.1327   12.8795   -3.2179 N   0  0  0  0  0  0  0  0  0  0  0  0
   36.1579   11.7430   -2.9524 C   0  0  0  0  0  0  0  0  0  0  0  0
   36.6083   13.6203   -4.4727 C   0  0  0  0  0  0  0  0  0  0  0  0
   37.2897   13.8465   -2.0444 C   0  0  0  0  0  0  0  0  0  0  0  0
   38.9693   15.5249   -3.0422 C   0  0  0  0  0  0  0  0  0  0  0  0
   37.6914   15.3032   -2.2123 N   0  0  0  0  0  0  0  0  0  0  0  0
   36.6097   16.2691   -2.6880 C   0  0  0  0  0  0  0  0  0  0  0  0
   38.0811   15.8066   -0.7722 C   0  0  0  0  0  0  0  0  0  0  0  0
 46 47  1  0
 47 48  1  0
 47 49  1  0
 47 45  1  0
 45 42  1  0
 42 43  1  0
 42 44  1  0
 42 41  1  0
 41 38  1  0
 38 39  1  0
 38 40  1  0
 38 37  1  0
 37 36  1  0
 36 35  1  0
 35  1  1  0
  1  2  2  0
  2 31  1  0
 31 32  2  0
 31 33  1  0
  2  3  1  0
  3  4  1  0
  4  7  1  0
  7  8  2  0
  8  9  1  0
  9 10  2  0
 10 11  1  0
 11 13  1  0
 13 15  1  0
 15 16  1  0
 16 17  1  0
 17 18  1  0
 18 21  1  0
 21 22  2  0
 21 23  2  0
 21 24  1  0
 24 25  1  0
 25 26  2  0
 26 27  1  0
 27 28  2  0
 28 29  1  0
 29 30  2  0
 18 19  1  0
 19 20  1  0
 11 12  2  0
  4  5  2  0
  5  6  1  0
  5  1  1  0
 12  7  1  0
 20 15  1  0
 30 25  1  0
 33 34  1  0
 13 14  1  0
M  CHG 1  38   1
M  CHG 1  42   1
M  CHG 1  47   1
M  END
> <minimizedAffinity>
-6.89638

> <CNNscore>
0.2051047832

> <CNNaffinity>
5.5668005943

> <CNN_VS>
1.1417773962

> <CNNaffinity_variance>
0.9976647496

$$$$



 49 52  0  0  0  0  0  0  0  0999 V2000
   44.6106   14.3797    0.7629 C   0  0  0  0  0  0  0  0  0  0  0  0
   45.0742   14.7865    1.9999 C   0  0  0  0  0  0  0  0  0  0  0  0
   46.2901   13.7091    2.5605 S   0  0  0  0  0  0  0  0  0  0  0  0
   46.2987   12.7919    1.1067 C   0  0  0  0  0  0  0  0  0  0  0  0
   45.3463   13.2781    0.2374 C   0  0  0  0  0  0  0  0  0  0  0  0
   44.9974   12.6303   -1.5144 Br  0  0  0  0  0  0  0  0  0  0  0  0
   47.2415   11.6730    0.9794 C   0  0  0  0  0  0  0  0  0  0  0  0
   48.2341   11.6819   -0.0063 C   0  0  0  0  0  0  0  0  0  0  0  0
   49.1492   10.6344   -0.0898 C   0  0  0  0  0  0  0  0  0  0  0  0
   49.0582    9.5490    0.7888 C   0  0  0  0  0  0  0  0  0  0  0  0
   48.0386    9.4710    1.7399 C   0  0  0  0  0  0  0  0  0  0  0  0
   47.1668   10.5689    1.8475 C   0  0  0  0  0  0  0  0  0  0  0  0
   47.9162    8.4308    2.6628 N   0  0  0  0  0  0  0  0  0  0  0  0
   47.0235    8.0651    2.8595 H   0  0  0  0  0  0  0  0  0  0  0  0
   49.0915    7.8677    3.3492 C   0  0  0  0  0  0  0  0  0  0  0  0
   48.6308    7.1937    4.6508 C   0  0  0  0  0  0  0  0  0  0  0  0
   49.3158    5.8535    4.8993 C   0  0  0  0  0  0  0  0  0  0  0  0
   50.7315    5.9559    4.5265 N   0  0  0  0  0  0  0  0  0  0  0  0
   51.0241    6.2830    3.1173 C   0  0  0  0  0  0  0  0  0  0  0  0
   49.8021    6.8779    2.4218 C   0  0  0  0  0  0  0  0  0  0  0  0
   51.8887    5.1191    5.4246 S   0  0  0  0  0  0  0  0  0  0  0  0
   51.3930    5.0837    6.7875 O   0  0  0  0  0  0  0  0  0  0  0  0
   53.1816    5.7090    5.1375 O   0  0  0  0  0  0  0  0  0  0  0  0
   51.8333    3.4234    4.8144 C   0  0  0  0  0  0  0  0  0  0  0  0
   50.7346    2.6093    5.4421 C   0  0  0  0  0  0  0  0  0  0  0  0
   49.6603    2.1390    4.6726 C   0  0  0  0  0  0  0  0  0  0  0  0
   48.6530    1.3680    5.2548 C   0  0  0  0  0  0  0  0  0  0  0  0
   48.7110    1.0473    6.6083 C   0  0  0  0  0  0  0  0  0  0  0  0
   49.7806    1.4928    7.3811 C   0  0  0  0  0  0  0  0  0  0  0  0
   50.7908    2.2629    6.8023 C   0  0  0  0  0  0  0  0  0  0  0  0
   44.7312   15.9012    2.8516 C   0  0  0  0  0  0  0  0  0  0  0  0
   44.6449   15.9373    4.0687 O   0  0  0  0  0  0  0  0  0  0  0  0
   44.4869   17.0445    2.1573 O   0  0  0  0  0  0  0  0  0  0  0  0
   44.5458   17.0464    1.2222 H   0  0  0  0  0  0  0  0  0  0  0  0
   43.6213   15.0079    0.0799 O   0  0  0  0  0  0  0  0  0  0  0  0
   44.1326   15.8133   -0.9804 C   0  0  0  0  0  0  0  0  0  0  0  0
   42.9862   16.2106   -1.9260 C   0  0  0  0  0  0  0  0  0  0  0  0
   43.2946   16.2156   -3.5231 N   0  0  0  0  0  0  0  0  0  0  0  0
   42.4825   15.1030   -4.1658 C   0  0  0  0  0  0  0  0  0  0  0  0
   44.7895   15.8844   -3.6753 C   0  0  0  0  0  0  0  0  0  0  0  0
   42.9485   17.6447   -3.9420 C   0  0  0  0  0  0  0  0  0  0  0  0
   42.8790   18.1297   -5.4200 N   0  0  0  0  0  0  0  0  0  0  0  0
   42.5076   19.6018   -5.5054 C   0  0  0  0  0  0  0  0  0  0  0  0
   41.6806   17.3424   -6.0051 C   0  0  0  0  0  0  0  0  0  0  0  0
   44.1712   17.7741   -6.1551 C   0  0  0  0  0  0  0  0  0  0  0  0
   45.5216   19.7222   -7.1628 C   0  0  0  0  0  0  0  0  0  0  0  0
   45.4301   18.6241   -6.0873 N   0  0  0  0  0  0  0  0  0  0  0  0
   45.7907   19.2199   -4.7293 C   0  0  0  0  0  0  0  0  0  0  0  0
   46.6196   17.6524   -6.4337 C   0  0  0  0  0  0  0  0  0  0  0  0
 46 47  1  0
 47 48  1  0
 47 49  1  0
 47 45  1  0
 45 42  1  0
 42 43  1  0
 42 44  1  0
 42 41  1  0
 41 38  1  0
 38 39  1  0
 38 40  1  0
 38 37  1  0
 37 36  1  0
 36 35  1  0
 35  1  1  0
  1  2  2  0
  2 31  1  0
 31 32  2  0
 31 33  1  0
  2  3  1  0
  3  4  1  0
  4  7  1  0
  7  8  2  0
  8  9  1  0
  9 10  2  0
 10 11  1  0
 11 13  1  0
 13 15  1  0
 15 16  1  0
 16 17  1  0
 17 18  1  0
 18 21  1  0
 21 22  2  0
 21 23  2  0
 21 24  1  0
 24 25  1  0
 25 26  2  0
 26 27  1  0
 27 28  2  0
 28 29  1  0
 29 30  2  0
 18 19  1  0
 19 20  1  0
 11 12  2  0
  4  5  2  0
  5  6  1  0
  5  1  1  0
 12  7  1  0
 20 15  1  0
 30 25  1  0
 33 34  1  0
 13 14  1  0
M  CHG 1  38   1
M  CHG 1  42   1
M  CHG 1  47   1
M  END
> <minimizedAffinity>
-7.33841

> <CNNscore>
0.1767892241

> <CNNaffinity>
6.5724773407

> <CNN_VS>
1.1619431973

> <CNNaffinity_variance>
0.2346754223

$$$$



 49 52  0  0  0  0  0  0  0  0999 V2000
   44.5749   14.3119    0.4681 C   0  0  0  0  0  0  0  0  0  0  0  0
   45.1312   14.5820    1.7043 C   0  0  0  0  0  0  0  0  0  0  0  0
   45.9065   13.1791    2.3243 S   0  0  0  0  0  0  0  0  0  0  0  0
   45.6264   12.2627    0.8972 C   0  0  0  0  0  0  0  0  0  0  0  0
   44.9048   13.0100   -0.0083 C   0  0  0  0  0  0  0  0  0  0  0  0
   44.3826   12.4568   -1.7495 Br  0  0  0  0  0  0  0  0  0  0  0  0
   46.1401   10.8887    0.8242 C   0  0  0  0  0  0  0  0  0  0  0  0
   45.3964    9.8784    0.2052 C   0  0  0  0  0  0  0  0  0  0  0  0
   45.9132    8.5883    0.1049 C   0  0  0  0  0  0  0  0  0  0  0  0
   47.1640    8.2866    0.6552 C   0  0  0  0  0  0  0  0  0  0  0  0
   47.9044    9.2512    1.3420 C   0  0  0  0  0  0  0  0  0  0  0  0
   47.3920   10.5602    1.3744 C   0  0  0  0  0  0  0  0  0  0  0  0
   49.1699    9.0180    1.8832 N   0  0  0  0  0  0  0  0  0  0  0  0
   49.8637    9.7115    1.7998 H   0  0  0  0  0  0  0  0  0  0  0  0
   49.4913    7.7586    2.5760 C   0  0  0  0  0  0  0  0  0  0  0  0
   51.0149    7.6612    2.7480 C   0  0  0  0  0  0  0  0  0  0  0  0
   51.4247    7.1496    4.1254 C   0  0  0  0  0  0  0  0  0  0  0  0
   50.5182    6.0692    4.5311 N   0  0  0  0  0  0  0  0  0  0  0  0
   49.0890    6.4154    4.6578 C   0  0  0  0  0  0  0  0  0  0  0  0
   48.7670    7.7152    3.9244 C   0  0  0  0  0  0  0  0  0  0  0  0
   51.1222    4.7689    5.4201 S   0  0  0  0  0  0  0  0  0  0  0  0
   50.0727    3.7675    5.4333 O   0  0  0  0  0  0  0  0  0  0  0  0
   51.6428    5.2916    6.6683 O   0  0  0  0  0  0  0  0  0  0  0  0
   52.4648    4.0918    4.4252 C   0  0  0  0  0  0  0  0  0  0  0  0
   52.9633    2.7672    4.9358 C   0  0  0  0  0  0  0  0  0  0  0  0
   53.6267    1.8727    4.0830 C   0  0  0  0  0  0  0  0  0  0  0  0
   54.1046    0.6532    4.5650 C   0  0  0  0  0  0  0  0  0  0  0  0
   53.9368    0.3163    5.9054 C   0  0  0  0  0  0  0  0  0  0  0  0
   53.2953    1.2021    6.7678 C   0  0  0  0  0  0  0  0  0  0  0  0
   52.8173    2.4234    6.2899 C   0  0  0  0  0  0  0  0  0  0  0  0
   45.1710   15.7758    2.5160 C   0  0  0  0  0  0  0  0  0  0  0  0
   45.5071   15.8978    3.6832 O   0  0  0  0  0  0  0  0  0  0  0  0
   44.7784   16.8896    1.8421 O   0  0  0  0  0  0  0  0  0  0  0  0
   44.5151   16.8260    0.9451 H   0  0  0  0  0  0  0  0  0  0  0  0
   43.8637   15.2116   -0.2561 O   0  0  0  0  0  0  0  0  0  0  0  0
   44.2459   15.2127   -1.6303 C   0  0  0  0  0  0  0  0  0  0  0  0
   44.0037   16.6073   -2.2325 C   0  0  0  0  0  0  0  0  0  0  0  0
   43.3538   16.6821   -3.7217 N   0  0  0  0  0  0  0  0  0  0  0  0
   42.0642   17.4823   -3.6360 C   0  0  0  0  0  0  0  0  0  0  0  0
   43.0097   15.2352   -4.1159 C   0  0  0  0  0  0  0  0  0  0  0  0
   44.4781   17.2850   -4.5645 C   0  0  0  0  0  0  0  0  0  0  0  0
   44.9151   18.7780   -4.4992 N   0  0  0  0  0  0  0  0  0  0  0  0
   46.0169   18.9906   -3.4729 C   0  0  0  0  0  0  0  0  0  0  0  0
   43.6607   19.5004   -3.9488 C   0  0  0  0  0  0  0  0  0  0  0  0
   45.2646   19.2889   -5.8968 C   0  0  0  0  0  0  0  0  0  0  0  0
   45.7582   19.0939   -8.4171 C   0  0  0  0  0  0  0  0  0  0  0  0
   45.2635   18.4035   -7.1328 N   0  0  0  0  0  0  0  0  0  0  0  0
   45.9334   17.0379   -7.0067 C   0  0  0  0  0  0  0  0  0  0  0  0
   43.7498   18.0877   -7.4295 C   0  0  0  0  0  0  0  0  0  0  0  0
 46 47  1  0
 47 48  1  0
 47 49  1  0
 47 45  1  0
 45 42  1  0
 42 43  1  0
 42 44  1  0
 42 41  1  0
 41 38  1  0
 38 39  1  0
 38 40  1  0
 38 37  1  0
 37 36  1  0
 36 35  1  0
 35  1  1  0
  1  2  2  0
  2 31  1  0
 31 32  2  0
 31 33  1  0
  2  3  1  0
  3  4  1  0
  4  7  1  0
  7  8  2  0
  8  9  1  0
  9 10  2  0
 10 11  1  0
 11 13  1  0
 13 15  1  0
 15 16  1  0
 16 17  1  0
 17 18  1  0
 18 21  1  0
 21 22  2  0
 21 23  2  0
 21 24  1  0
 24 25  1  0
 25 26  2  0
 26 27  1  0
 27 28  2  0
 28 29  1  0
 29 30  2  0
 18 19  1  0
 19 20  1  0
 11 12  2  0
  4  5  2  0
  5  6  1  0
  5  1  1  0
 12  7  1  0
 20 15  1  0
 30 25  1  0
 33 34  1  0
 13 14  1  0
M  CHG 1  38   1
M  CHG 1  42   1
M  CHG 1  47   1
M  END
> <minimizedAffinity>
-7.01853

> <CNNscore>
0.1613801718

> <CNNaffinity>
6.4663414955

> <CNN_VS>
1.0435392857

> <CNNaffinity_variance>
0.1442893445

$$$$



 49 52  0  0  0  0  0  0  0  0999 V2000
   44.0271   15.0302   -0.1916 C   0  0  0  0  0  0  0  0  0  0  0  0
   44.5411   15.2165    1.0780 C   0  0  0  0  0  0  0  0  0  0  0  0
   45.2498   13.7590    1.6498 S   0  0  0  0  0  0  0  0  0  0  0  0
   45.0005   12.9292    0.1652 C   0  0  0  0  0  0  0  0  0  0  0  0
   44.3378   13.7459   -0.7253 C   0  0  0  0  0  0  0  0  0  0  0  0
   43.8699   13.3030   -2.5128 Br  0  0  0  0  0  0  0  0  0  0  0  0
   45.4765   11.5457    0.0371 C   0  0  0  0  0  0  0  0  0  0  0  0
   44.5742   10.4921   -0.1441 C   0  0  0  0  0  0  0  0  0  0  0  0
   45.0407    9.1892   -0.3067 C   0  0  0  0  0  0  0  0  0  0  0  0
   46.4132    8.9216   -0.2531 C   0  0  0  0  0  0  0  0  0  0  0  0
   47.3396    9.9365   -0.0039 C   0  0  0  0  0  0  0  0  0  0  0  0
   46.8506   11.2512    0.0928 C   0  0  0  0  0  0  0  0  0  0  0  0
   48.7206    9.7357    0.0288 N   0  0  0  0  0  0  0  0  0  0  0  0
   49.2810   10.1321   -0.6770 H   0  0  0  0  0  0  0  0  0  0  0  0
   49.3590    8.9446    1.0947 C   0  0  0  0  0  0  0  0  0  0  0  0
   48.4851    9.0147    2.3564 C   0  0  0  0  0  0  0  0  0  0  0  0
   48.3511    7.6681    3.0606 C   0  0  0  0  0  0  0  0  0  0  0  0
   49.6467    6.9791    3.0402 N   0  0  0  0  0  0  0  0  0  0  0  0
   50.2100    6.6656    1.7125 C   0  0  0  0  0  0  0  0  0  0  0  0
   49.5492    7.5016    0.6192 C   0  0  0  0  0  0  0  0  0  0  0  0
   50.1066    6.0374    4.3621 S   0  0  0  0  0  0  0  0  0  0  0  0
   49.0851    6.2355    5.3730 O   0  0  0  0  0  0  0  0  0  0  0  0
   51.4922    6.3425    4.6607 O   0  0  0  0  0  0  0  0  0  0  0  0
   49.9552    4.3284    3.8078 C   0  0  0  0  0  0  0  0  0  0  0  0
   49.9814    3.3392    4.9412 C   0  0  0  0  0  0  0  0  0  0  0  0
   50.8783    3.4940    6.0085 C   0  0  0  0  0  0  0  0  0  0  0  0
   50.8865    2.5848    7.0675 C   0  0  0  0  0  0  0  0  0  0  0  0
   49.9927    1.5174    7.0803 C   0  0  0  0  0  0  0  0  0  0  0  0
   49.0846    1.3609    6.0359 C   0  0  0  0  0  0  0  0  0  0  0  0
   49.0724    2.2689    4.9757 C   0  0  0  0  0  0  0  0  0  0  0  0
   44.5831   16.3634    1.9545 C   0  0  0  0  0  0  0  0  0  0  0  0
   45.2005   16.5083    2.9976 O   0  0  0  0  0  0  0  0  0  0  0  0
   43.8212   17.3987    1.5113 O   0  0  0  0  0  0  0  0  0  0  0  0
   43.3364   17.3159    0.7138 H   0  0  0  0  0  0  0  0  0  0  0  0
   43.3720   15.9891   -0.8925 O   0  0  0  0  0  0  0  0  0  0  0  0
   44.2314   16.6591   -1.8126 C   0  0  0  0  0  0  0  0  0  0  0  0
   43.4573   16.9799   -3.1025 C   0  0  0  0  0  0  0  0  0  0  0  0
   44.0221   18.1828   -4.0406 N   0  0  0  0  0  0  0  0  0  0  0  0
   45.2190   17.6565   -4.8160 C   0  0  0  0  0  0  0  0  0  0  0  0
   44.5030   19.2873   -3.0835 C   0  0  0  0  0  0  0  0  0  0  0  0
   42.7990   18.5890   -4.8633 C   0  0  0  0  0  0  0  0  0  0  0  0
   42.5983   18.2321   -6.3655 N   0  0  0  0  0  0  0  0  0  0  0  0
   41.4161   17.2959   -6.5616 C   0  0  0  0  0  0  0  0  0  0  0  0
   43.8656   17.4145   -6.7176 C   0  0  0  0  0  0  0  0  0  0  0  0
   42.5247   19.5060   -7.2071 C   0  0  0  0  0  0  0  0  0  0  0  0
   44.6945   20.8167   -6.7511 C   0  0  0  0  0  0  0  0  0  0  0  0
   43.7495   20.1903   -7.7930 N   0  0  0  0  0  0  0  0  0  0  0  0
   44.5717   19.3930   -8.8017 C   0  0  0  0  0  0  0  0  0  0  0  0
   43.2018   21.4257   -8.6010 C   0  0  0  0  0  0  0  0  0  0  0  0
 46 47  1  0
 47 48  1  0
 47 49  1  0
 47 45  1  0
 45 42  1  0
 42 43  1  0
 42 44  1  0
 42 41  1  0
 41 38  1  0
 38 39  1  0
 38 40  1  0
 38 37  1  0
 37 36  1  0
 36 35  1  0
 35  1  1  0
  1  2  2  0
  2 31  1  0
 31 32  2  0
 31 33  1  0
  2  3  1  0
  3  4  1  0
  4  7  1  0
  7  8  2  0
  8  9  1  0
  9 10  2  0
 10 11  1  0
 11 13  1  0
 13 15  1  0
 15 16  1  0
 16 17  1  0
 17 18  1  0
 18 21  1  0
 21 22  2  0
 21 23  2  0
 21 24  1  0
 24 25  1  0
 25 26  2  0
 26 27  1  0
 27 28  2  0
 28 29  1  0
 29 30  2  0
 18 19  1  0
 19 20  1  0
 11 12  2  0
  4  5  2  0
  5  6  1  0
  5  1  1  0
 12  7  1  0
 20 15  1  0
 30 25  1  0
 33 34  1  0
 13 14  1  0
M  CHG 1  38   1
M  CHG 1  42   1
M  CHG 1  47   1
M  END
> <minimizedAffinity>
-6.76981

> <CNNscore>
0.1556408852

> <CNNaffinity>
6.2384896278

> <CNN_VS>
0.9709640741

> <CNNaffinity_variance>
0.3174897730

$$$$



 49 52  0  0  0  0  0  0  0  0999 V2000
   44.9323   14.0271    1.0119 C   0  0  0  0  0  0  0  0  0  0  0  0
   45.4960   14.4434    2.2034 C   0  0  0  0  0  0  0  0  0  0  0  0
   46.7373   13.3561    2.6834 S   0  0  0  0  0  0  0  0  0  0  0  0
   46.6208   12.4199    1.2464 C   0  0  0  0  0  0  0  0  0  0  0  0
   45.6104   12.9083    0.4467 C   0  0  0  0  0  0  0  0  0  0  0  0
   45.1179   12.2426   -1.2634 Br  0  0  0  0  0  0  0  0  0  0  0  0
   47.5360   11.2861    1.0623 C   0  0  0  0  0  0  0  0  0  0  0  0
   48.5001   11.3016    0.0488 C   0  0  0  0  0  0  0  0  0  0  0  0
   49.3903   10.2385   -0.0889 C   0  0  0  0  0  0  0  0  0  0  0  0
   49.3016    9.1318    0.7631 C   0  0  0  0  0  0  0  0  0  0  0  0
   48.3080    9.0487    1.7409 C   0  0  0  0  0  0  0  0  0  0  0  0
   47.4629   10.1607    1.9026 C   0  0  0  0  0  0  0  0  0  0  0  0
   48.1902    7.9866    2.6392 N   0  0  0  0  0  0  0  0  0  0  0  0
   47.3068    7.5782    2.7875 H   0  0  0  0  0  0  0  0  0  0  0  0
   49.3567    7.4629    3.3702 C   0  0  0  0  0  0  0  0  0  0  0  0
   48.8964    6.9657    4.7491 C   0  0  0  0  0  0  0  0  0  0  0  0
   49.5359    5.6385    5.1448 C   0  0  0  0  0  0  0  0  0  0  0  0
   50.9470    5.6407    4.7418 N   0  0  0  0  0  0  0  0  0  0  0  0
   51.2244    5.7876    3.2997 C   0  0  0  0  0  0  0  0  0  0  0  0
   50.0122    6.3436    2.5564 C   0  0  0  0  0  0  0  0  0  0  0  0
   52.0894    4.8711    5.7158 S   0  0  0  0  0  0  0  0  0  0  0  0
   51.5139    4.8172    7.0463 O   0  0  0  0  0  0  0  0  0  0  0  0
   53.3648    5.5269    5.5025 O   0  0  0  0  0  0  0  0  0  0  0  0
   52.1602    3.1715    5.1182 C   0  0  0  0  0  0  0  0  0  0  0  0
   50.8289    2.4728    5.1769 C   0  0  0  0  0  0  0  0  0  0  0  0
   50.1162    2.1863    4.0033 C   0  0  0  0  0  0  0  0  0  0  0  0
   48.8906    1.5210    4.0607 C   0  0  0  0  0  0  0  0  0  0  0  0
   48.3670    1.1233    5.2878 C   0  0  0  0  0  0  0  0  0  0  0  0
   49.0718    1.3855    6.4601 C   0  0  0  0  0  0  0  0  0  0  0  0
   50.2986    2.0494    6.4068 C   0  0  0  0  0  0  0  0  0  0  0  0
   45.2350   15.5740    3.0632 C   0  0  0  0  0  0  0  0  0  0  0  0
   45.0046   15.5879    4.2619 O   0  0  0  0  0  0  0  0  0  0  0  0
   45.2679   16.7621    2.4029 O   0  0  0  0  0  0  0  0  0  0  0  0
   45.4425   16.7820    1.4825 H   0  0  0  0  0  0  0  0  0  0  0  0
   43.9014   14.6604    0.3988 O   0  0  0  0  0  0  0  0  0  0  0  0
   44.2095   14.9974   -0.9525 C   0  0  0  0  0  0  0  0  0  0  0  0
   43.6206   16.3785   -1.2873 C   0  0  0  0  0  0  0  0  0  0  0  0
   43.5305   16.7986   -2.8561 N   0  0  0  0  0  0  0  0  0  0  0  0
   44.3077   15.7739   -3.6662 C   0  0  0  0  0  0  0  0  0  0  0  0
   44.2355   18.1607   -2.9796 C   0  0  0  0  0  0  0  0  0  0  0  0
   42.0251   16.8741   -3.1124 C   0  0  0  0  0  0  0  0  0  0  0  0
   41.1583   15.6717   -3.5890 N   0  0  0  0  0  0  0  0  0  0  0  0
   41.9682   14.3855   -3.6341 C   0  0  0  0  0  0  0  0  0  0  0  0
   40.8205   16.0266   -5.0581 C   0  0  0  0  0  0  0  0  0  0  0  0
   39.8847   15.5715   -2.7496 C   0  0  0  0  0  0  0  0  0  0  0  0
   37.5211   14.7417   -2.1506 C   0  0  0  0  0  0  0  0  0  0  0  0
   38.6502   14.8042   -3.1957 N   0  0  0  0  0  0  0  0  0  0  0  0
   38.0583   15.1740   -4.5530 C   0  0  0  0  0  0  0  0  0  0  0  0
   39.1112   13.3064   -3.3477 C   0  0  0  0  0  0  0  0  0  0  0  0
 46 47  1  0
 47 48  1  0
 47 49  1  0
 47 45  1  0
 45 42  1  0
 42 43  1  0
 42 44  1  0
 42 41  1  0
 41 38  1  0
 38 39  1  0
 38 40  1  0
 38 37  1  0
 37 36  1  0
 36 35  1  0
 35  1  1  0
  1  2  2  0
  2 31  1  0
 31 32  2  0
 31 33  1  0
  2  3  1  0
  3  4  1  0
  4  7  1  0
  7  8  2  0
  8  9  1  0
  9 10  2  0
 10 11  1  0
 11 13  1  0
 13 15  1  0
 15 16  1  0
 16 17  1  0
 17 18  1  0
 18 21  1  0
 21 22  2  0
 21 23  2  0
 21 24  1  0
 24 25  1  0
 25 26  2  0
 26 27  1  0
 27 28  2  0
 28 29  1  0
 29 30  2  0
 18 19  1  0
 19 20  1  0
 11 12  2  0
  4  5  2  0
  5  6  1  0
  5  1  1  0
 12  7  1  0
 20 15  1  0
 30 25  1  0
 33 34  1  0
 13 14  1  0
M  CHG 1  38   1
M  CHG 1  42   1
M  CHG 1  47   1
M  END
> <minimizedAffinity>
-7.33603

> <CNNscore>
0.1495833695

> <CNNaffinity>
6.4072356224

> <CNN_VS>
0.9584158659

> <CNNaffinity_variance>
0.4377346933

$$$$



 49 52  0  0  0  0  0  0  0  0999 V2000
   44.0288   15.1669   -0.1279 C   0  0  0  0  0  0  0  0  0  0  0  0
   44.5212   15.3651    1.1483 C   0  0  0  0  0  0  0  0  0  0  0  0
   45.2179   13.9124    1.7466 S   0  0  0  0  0  0  0  0  0  0  0  0
   44.9929   13.0683    0.2662 C   0  0  0  0  0  0  0  0  0  0  0  0
   44.3468   13.8770   -0.6436 C   0  0  0  0  0  0  0  0  0  0  0  0
   43.9089   13.4170   -2.4343 Br  0  0  0  0  0  0  0  0  0  0  0  0
   45.4690   11.6830    0.1600 C   0  0  0  0  0  0  0  0  0  0  0  0
   44.5660   10.6254    0.0083 C   0  0  0  0  0  0  0  0  0  0  0  0
   45.0322    9.3200   -0.1340 C   0  0  0  0  0  0  0  0  0  0  0  0
   46.4054    9.0546   -0.0891 C   0  0  0  0  0  0  0  0  0  0  0  0
   47.3332   10.0749    0.1311 C   0  0  0  0  0  0  0  0  0  0  0  0
   46.8439   11.3908    0.2074 C   0  0  0  0  0  0  0  0  0  0  0  0
   48.7148    9.8759    0.1536 N   0  0  0  0  0  0  0  0  0  0  0  0
   49.2667   10.2532   -0.5691 H   0  0  0  0  0  0  0  0  0  0  0  0
   49.3659    9.1147    1.2334 C   0  0  0  0  0  0  0  0  0  0  0  0
   48.3817    8.9736    2.4049 C   0  0  0  0  0  0  0  0  0  0  0  0
   48.3876    7.5775    3.0195 C   0  0  0  0  0  0  0  0  0  0  0  0
   49.7680    7.0843    3.0900 N   0  0  0  0  0  0  0  0  0  0  0  0
   50.4884    6.9448    1.8095 C   0  0  0  0  0  0  0  0  0  0  0  0
   49.8109    7.7491    0.7025 C   0  0  0  0  0  0  0  0  0  0  0  0
   50.2429    6.1315    4.3987 S   0  0  0  0  0  0  0  0  0  0  0  0
   49.1949    6.2616    5.3933 O   0  0  0  0  0  0  0  0  0  0  0  0
   51.6082    6.4881    4.7317 O   0  0  0  0  0  0  0  0  0  0  0  0
   50.1756    4.4315    3.8019 C   0  0  0  0  0  0  0  0  0  0  0  0
   50.0807    3.4224    4.9140 C   0  0  0  0  0  0  0  0  0  0  0  0
   49.1246    2.3969    4.8732 C   0  0  0  0  0  0  0  0  0  0  0  0
   49.0523    1.4515    5.8974 C   0  0  0  0  0  0  0  0  0  0  0  0
   49.9400    1.5107    6.9683 C   0  0  0  0  0  0  0  0  0  0  0  0
   50.9059    2.5130    7.0136 C   0  0  0  0  0  0  0  0  0  0  0  0
   50.9824    3.4596    5.9905 C   0  0  0  0  0  0  0  0  0  0  0  0
   44.5499   16.5206    2.0141 C   0  0  0  0  0  0  0  0  0  0  0  0
   44.4659   17.7019    1.7182 O   0  0  0  0  0  0  0  0  0  0  0  0
   44.6833   16.1967    3.3279 O   0  0  0  0  0  0  0  0  0  0  0  0
   44.7501   15.2980    3.5844 H   0  0  0  0  0  0  0  0  0  0  0  0
   43.3872   16.1197   -0.8494 O   0  0  0  0  0  0  0  0  0  0  0  0
   44.2579   16.7632   -1.7779 C   0  0  0  0  0  0  0  0  0  0  0  0
   43.4645   17.1746   -3.0299 C   0  0  0  0  0  0  0  0  0  0  0  0
   44.1590   18.2382   -4.0459 N   0  0  0  0  0  0  0  0  0  0  0  0
   43.9648   19.6339   -3.4758 C   0  0  0  0  0  0  0  0  0  0  0  0
   43.3856   18.1367   -5.3722 C   0  0  0  0  0  0  0  0  0  0  0  0
   45.5993   17.7355   -4.1483 C   0  0  0  0  0  0  0  0  0  0  0  0
   46.6409   18.2706   -5.1744 N   0  0  0  0  0  0  0  0  0  0  0  0
   46.2093   19.6060   -5.7601 C   0  0  0  0  0  0  0  0  0  0  0  0
   46.5723   17.2438   -6.3317 C   0  0  0  0  0  0  0  0  0  0  0  0
   48.0363   18.2910   -4.5506 C   0  0  0  0  0  0  0  0  0  0  0  0
   50.0308   17.1803   -3.3581 C   0  0  0  0  0  0  0  0  0  0  0  0
   48.8964   17.0474   -4.3907 N   0  0  0  0  0  0  0  0  0  0  0  0
   48.1672   15.7253   -4.1684 C   0  0  0  0  0  0  0  0  0  0  0  0
   49.6493   16.8707   -5.7622 C   0  0  0  0  0  0  0  0  0  0  0  0
 46 47  1  0
 47 48  1  0
 47 49  1  0
 47 45  1  0
 45 42  1  0
 42 43  1  0
 42 44  1  0
 42 41  1  0
 41 38  1  0
 38 39  1  0
 38 40  1  0
 38 37  1  0
 37 36  1  0
 36 35  1  0
 35  1  1  0
  1  2  2  0
  2 31  1  0
 31 32  2  0
 31 33  1  0
  2  3  1  0
  3  4  1  0
  4  7  1  0
  7  8  2  0
  8  9  1  0
  9 10  2  0
 10 11  1  0
 11 13  1  0
 13 15  1  0
 15 16  1  0
 16 17  1  0
 17 18  1  0
 18 21  1  0
 21 22  2  0
 21 23  2  0
 21 24  1  0
 24 25  1  0
 25 26  2  0
 26 27  1  0
 27 28  2  0
 28 29  1  0
 29 30  2  0
 18 19  1  0
 19 20  1  0
 11 12  2  0
  4  5  2  0
  5  6  1  0
  5  1  1  0
 12  7  1  0
 20 15  1  0
 30 25  1  0
 33 34  1  0
 13 14  1  0
M  CHG 1  38   1
M  CHG 1  42   1
M  CHG 1  47   1
M  END
> <minimizedAffinity>
-6.87672

> <CNNscore>
0.1476891637

> <CNNaffinity>
6.2053885460

> <CNN_VS>
0.9164686203

> <CNNaffinity_variance>
0.6035771966

$$$$



 49 52  0  0  0  0  0  0  0  0999 V2000
   45.1687   10.1662   -0.5466 C   0  0  0  0  0  0  0  0  0  0  0  0
   44.3031    9.7432   -1.5378 C   0  0  0  0  0  0  0  0  0  0  0  0
   43.8447   11.0698   -2.5297 S   0  0  0  0  0  0  0  0  0  0  0  0
   44.9001   12.1684   -1.7334 C   0  0  0  0  0  0  0  0  0  0  0  0
   45.5455   11.5326   -0.6949 C   0  0  0  0  0  0  0  0  0  0  0  0
   46.8428   12.3080    0.4566 Br  0  0  0  0  0  0  0  0  0  0  0  0
   44.9725   13.5553   -2.2113 C   0  0  0  0  0  0  0  0  0  0  0  0
   44.0601   14.5157   -1.7619 C   0  0  0  0  0  0  0  0  0  0  0  0
   44.1652   15.8376   -2.1899 C   0  0  0  0  0  0  0  0  0  0  0  0
   45.1621   16.2049   -3.1008 C   0  0  0  0  0  0  0  0  0  0  0  0
   46.0469   15.2604   -3.6256 C   0  0  0  0  0  0  0  0  0  0  0  0
   45.9622   13.9472   -3.1304 C   0  0  0  0  0  0  0  0  0  0  0  0
   47.0800   15.5727   -4.5109 N   0  0  0  0  0  0  0  0  0  0  0  0
   46.9171   15.5135   -5.4800 H   0  0  0  0  0  0  0  0  0  0  0  0
   48.4082   15.9889   -4.0289 C   0  0  0  0  0  0  0  0  0  0  0  0
   49.4815   15.3853   -4.9477 C   0  0  0  0  0  0  0  0  0  0  0  0
   50.5974   16.3701   -5.2827 C   0  0  0  0  0  0  0  0  0  0  0  0
   50.9359   17.1457   -4.0838 N   0  0  0  0  0  0  0  0  0  0  0  0
   49.8583   17.9681   -3.5000 C   0  0  0  0  0  0  0  0  0  0  0  0
   48.4869   17.5178   -3.9973 C   0  0  0  0  0  0  0  0  0  0  0  0
   52.5395   17.5923   -3.8098 S   0  0  0  0  0  0  0  0  0  0  0  0
   52.6778   18.9385   -4.3324 O   0  0  0  0  0  0  0  0  0  0  0  0
   53.3861   16.5280   -4.3122 O   0  0  0  0  0  0  0  0  0  0  0  0
   52.7016   17.7183   -2.0185 C   0  0  0  0  0  0  0  0  0  0  0  0
   53.4750   16.5762   -1.4174 C   0  0  0  0  0  0  0  0  0  0  0  0
   52.8462   15.3556   -1.1306 C   0  0  0  0  0  0  0  0  0  0  0  0
   53.5713   14.2922   -0.5907 C   0  0  0  0  0  0  0  0  0  0  0  0
   54.9341   14.4296   -0.3414 C   0  0  0  0  0  0  0  0  0  0  0  0
   55.5755   15.6299   -0.6374 C   0  0  0  0  0  0  0  0  0  0  0  0
   54.8541   16.6953   -1.1787 C   0  0  0  0  0  0  0  0  0  0  0  0
   43.7518    8.4490   -1.8640 C   0  0  0  0  0  0  0  0  0  0  0  0
   42.8214    7.8582   -1.3393 O   0  0  0  0  0  0  0  0  0  0  0  0
   44.3842    7.8502   -2.9082 O   0  0  0  0  0  0  0  0  0  0  0  0
   45.1017    8.2803   -3.3303 H   0  0  0  0  0  0  0  0  0  0  0  0
   45.6752    9.3544    0.4148 O   0  0  0  0  0  0  0  0  0  0  0  0
   46.9445    8.8180    0.0465 C   0  0  0  0  0  0  0  0  0  0  0  0
   47.7035    8.3745    1.3088 C   0  0  0  0  0  0  0  0  0  0  0  0
   49.0181    7.4380    1.1071 N   0  0  0  0  0  0  0  0  0  0  0  0
   50.1697    8.3268    0.6663 C   0  0  0  0  0  0  0  0  0  0  0  0
   48.6831    6.4639   -0.0359 C   0  0  0  0  0  0  0  0  0  0  0  0
   49.1673    6.7473    2.4630 C   0  0  0  0  0  0  0  0  0  0  0  0
   50.5344    6.3730    3.1074 N   0  0  0  0  0  0  0  0  0  0  0  0
   51.3310    7.6131    3.4816 C   0  0  0  0  0  0  0  0  0  0  0  0
   51.3066    5.6904    1.9515 C   0  0  0  0  0  0  0  0  0  0  0  0
   50.3241    5.3997    4.2672 C   0  0  0  0  0  0  0  0  0  0  0  0
   52.8712    5.1591    4.5639 C   0  0  0  0  0  0  0  0  0  0  0  0
   51.4650    4.6815    4.9703 N   0  0  0  0  0  0  0  0  0  0  0  0
   51.3881    4.5831    6.4914 C   0  0  0  0  0  0  0  0  0  0  0  0
   51.4078    3.1920    4.4632 C   0  0  0  0  0  0  0  0  0  0  0  0
 46 47  1  0
 47 48  1  0
 47 49  1  0
 47 45  1  0
 45 42  1  0
 42 43  1  0
 42 44  1  0
 42 41  1  0
 41 38  1  0
 38 39  1  0
 38 40  1  0
 38 37  1  0
 37 36  1  0
 36 35  1  0
 35  1  1  0
  1  2  2  0
  2 31  1  0
 31 32  2  0
 31 33  1  0
  2  3  1  0
  3  4  1  0
  4  7  1  0
  7  8  2  0
  8  9  1  0
  9 10  2  0
 10 11  1  0
 11 13  1  0
 13 15  1  0
 15 16  1  0
 16 17  1  0
 17 18  1  0
 18 21  1  0
 21 22  2  0
 21 23  2  0
 21 24  1  0
 24 25  1  0
 25 26  2  0
 26 27  1  0
 27 28  2  0
 28 29  1  0
 29 30  2  0
 18 19  1  0
 19 20  1  0
 11 12  2  0
  4  5  2  0
  5  6  1  0
  5  1  1  0
 12  7  1  0
 20 15  1  0
 30 25  1  0
 33 34  1  0
 13 14  1  0
M  CHG 1  38   1
M  CHG 1  42   1
M  CHG 1  47   1
M  END
> <minimizedAffinity>
-5.98419

> <CNNscore>
0.1356395632

> <CNNaffinity>
5.1670398712

> <CNN_VS>
0.7008550167

> <CNNaffinity_variance>
1.2358131409

$$$$



 49 52  0  0  0  0  0  0  0  0999 V2000
   44.1136   15.1645   -0.0475 C   0  0  0  0  0  0  0  0  0  0  0  0
   44.5107   15.4317    1.2492 C   0  0  0  0  0  0  0  0  0  0  0  0
   45.1316   14.0076    1.9840 S   0  0  0  0  0  0  0  0  0  0  0  0
   45.0043   13.0794    0.5427 C   0  0  0  0  0  0  0  0  0  0  0  0
   44.4453   13.8414   -0.4603 C   0  0  0  0  0  0  0  0  0  0  0  0
   44.1368   13.2811   -2.2494 Br  0  0  0  0  0  0  0  0  0  0  0  0
   45.4605   11.6834    0.5553 C   0  0  0  0  0  0  0  0  0  0  0  0
   44.7265   10.6846   -0.0932 C   0  0  0  0  0  0  0  0  0  0  0  0
   45.1917    9.3713   -0.1102 C   0  0  0  0  0  0  0  0  0  0  0  0
   46.3777    9.0365    0.5529 C   0  0  0  0  0  0  0  0  0  0  0  0
   47.1007    9.9921    1.2701 C   0  0  0  0  0  0  0  0  0  0  0  0
   46.6464   11.3216    1.2192 C   0  0  0  0  0  0  0  0  0  0  0  0
   48.3052    9.7246    1.9232 N   0  0  0  0  0  0  0  0  0  0  0  0
   48.8369   10.4738    2.2772 H   0  0  0  0  0  0  0  0  0  0  0  0
   48.7991    8.3476    2.0949 C   0  0  0  0  0  0  0  0  0  0  0  0
   50.0919    8.1787    1.2821 C   0  0  0  0  0  0  0  0  0  0  0  0
   51.1681    7.4019    2.0341 C   0  0  0  0  0  0  0  0  0  0  0  0
   50.5452    6.2882    2.7589 N   0  0  0  0  0  0  0  0  0  0  0  0
   49.5400    6.6415    3.7802 C   0  0  0  0  0  0  0  0  0  0  0  0
   49.0269    8.0658    3.5827 C   0  0  0  0  0  0  0  0  0  0  0  0
   51.3740    4.8261    2.9047 S   0  0  0  0  0  0  0  0  0  0  0  0
   52.5001    4.9086    1.9939 O   0  0  0  0  0  0  0  0  0  0  0  0
   50.4067    3.7549    2.7681 O   0  0  0  0  0  0  0  0  0  0  0  0
   52.0612    4.8301    4.5716 C   0  0  0  0  0  0  0  0  0  0  0  0
   51.8097    3.5453    5.3132 C   0  0  0  0  0  0  0  0  0  0  0  0
   50.5583    3.2823    5.8896 C   0  0  0  0  0  0  0  0  0  0  0  0
   50.3231    2.0811    6.5603 C   0  0  0  0  0  0  0  0  0  0  0  0
   51.3291    1.1233    6.6541 C   0  0  0  0  0  0  0  0  0  0  0  0
   52.5713    1.3633    6.0716 C   0  0  0  0  0  0  0  0  0  0  0  0
   52.8100    2.5628    5.3987 C   0  0  0  0  0  0  0  0  0  0  0  0
   44.4953   16.6366    2.0452 C   0  0  0  0  0  0  0  0  0  0  0  0
   44.7364   16.7725    3.2341 O   0  0  0  0  0  0  0  0  0  0  0  0
   44.1691   17.7437    1.3265 O   0  0  0  0  0  0  0  0  0  0  0  0
   43.9790   17.6694    0.4120 H   0  0  0  0  0  0  0  0  0  0  0  0
   43.5474   16.0814   -0.8712 O   0  0  0  0  0  0  0  0  0  0  0  0
   44.2804   16.2333   -2.0854 C   0  0  0  0  0  0  0  0  0  0  0  0
   44.2181   17.6995   -2.5461 C   0  0  0  0  0  0  0  0  0  0  0  0
   43.4442   18.0185   -3.9408 N   0  0  0  0  0  0  0  0  0  0  0  0
   43.3194   19.5272   -4.0788 C   0  0  0  0  0  0  0  0  0  0  0  0
   42.0341   17.4193   -3.7991 C   0  0  0  0  0  0  0  0  0  0  0  0
   44.2999   17.3044   -4.9874 C   0  0  0  0  0  0  0  0  0  0  0  0
   45.6568   17.8468   -5.5249 N   0  0  0  0  0  0  0  0  0  0  0  0
   45.5773   19.3330   -5.8369 C   0  0  0  0  0  0  0  0  0  0  0  0
   45.8247   17.1239   -6.8842 C   0  0  0  0  0  0  0  0  0  0  0  0
   46.7912   17.4750   -4.5702 C   0  0  0  0  0  0  0  0  0  0  0  0
   49.2357   17.5039   -3.7594 C   0  0  0  0  0  0  0  0  0  0  0  0
   48.1011   18.2430   -4.4925 N   0  0  0  0  0  0  0  0  0  0  0  0
   48.6408   18.8247   -5.7962 C   0  0  0  0  0  0  0  0  0  0  0  0
   47.8092   19.4925   -3.5801 C   0  0  0  0  0  0  0  0  0  0  0  0
 46 47  1  0
 47 48  1  0
 47 49  1  0
 47 45  1  0
 45 42  1  0
 42 43  1  0
 42 44  1  0
 42 41  1  0
 41 38  1  0
 38 39  1  0
 38 40  1  0
 38 37  1  0
 37 36  1  0
 36 35  1  0
 35  1  1  0
  1  2  2  0
  2 31  1  0
 31 32  2  0
 31 33  1  0
  2  3  1  0
  3  4  1  0
  4  7  1  0
  7  8  2  0
  8  9  1  0
  9 10  2  0
 10 11  1  0
 11 13  1  0
 13 15  1  0
 15 16  1  0
 16 17  1  0
 17 18  1  0
 18 21  1  0
 21 22  2  0
 21 23  2  0
 21 24  1  0
 24 25  1  0
 25 26  2  0
 26 27  1  0
 27 28  2  0
 28 29  1  0
 29 30  2  0
 18 19  1  0
 19 20  1  0
 11 12  2  0
  4  5  2  0
  5  6  1  0
  5  1  1  0
 12  7  1  0
 20 15  1  0
 30 25  1  0
 33 34  1  0
 13 14  1  0
M  CHG 1  38   1
M  CHG 1  42   1
M  CHG 1  47   1
M  END
> <minimizedAffinity>
-6.91352

> <CNNscore>
0.1101371944

> <CNNaffinity>
5.6665177345

> <CNN_VS>
0.6240943670

> <CNNaffinity_variance>
1.1963181496

$$$$
