


 13 13  0  0  0  0  0  0  0  0999 V2000
   15.5281    3.8847   15.9800 C   0  0  0  0  0  0  0  0  0  0  0  0
   16.6350    3.8573   15.1252 C   0  0  0  0  0  0  0  0  0  0  0  0
   16.9896    5.0095   14.4205 C   0  0  0  0  0  0  0  0  0  0  0  0
   16.2408    6.1788   14.5683 C   0  0  0  0  0  0  0  0  0  0  0  0
   15.1341    6.1968   15.4183 C   0  0  0  0  0  0  0  0  0  0  0  0
   14.7826    5.0470   16.1204 C   0  0  0  0  0  0  0  0  0  0  0  0
   13.6944    5.0801   16.9014 F   0  0  0  0  0  0  0  0  0  0  0  0
   15.6032    1.1626   15.9221 N   0  0  0  0  0  0  0  0  0  0  0  0
   15.0789    2.4404   16.8774 S   0  0  0  0  0  0  0  0  0  0  0  0
   13.6388    2.3959   16.9489 O   0  0  0  0  0  0  0  0  0  0  0  0
   15.9129    2.3780   18.0579 O   0  0  0  0  0  0  0  0  0  0  0  0
   15.3762    0.2800   16.3804 H   0  0  0  0  0  0  0  0  0  0  0  0
   16.6126    1.2279   15.7911 H   0  0  0  0  0  0  0  0  0  0  0  0
  8  9  1  0
  9 10  2  0
  9 11  2  0
  9  1  1  0
  1  2  2  0
  2  3  1  0
  3  4  2  0
  4  5  1  0
  5  6  2  0
  6  7  1  0
  6  1  1  0
  8 12  1  0
  8 13  1  0
M  END
> <minimizedAffinity>
-6.79828

> <CNNscore>
0.9742933512

> <CNNaffinity>
6.9344964027

> <CNN_VS>
6.7562336922

> <CNNaffinity_variance>
1.6766042709

$$$$



 13 13  0  0  0  0  0  0  0  0999 V2000
   15.6555    3.9104   16.0672 C   0  0  0  0  0  0  0  0  0  0  0  0
   14.7415    4.9310   15.7846 C   0  0  0  0  0  0  0  0  0  0  0  0
   15.1784    6.0853   15.1314 C   0  0  0  0  0  0  0  0  0  0  0  0
   16.5196    6.2180   14.7662 C   0  0  0  0  0  0  0  0  0  0  0  0
   17.4268    5.1980   15.0568 C   0  0  0  0  0  0  0  0  0  0  0  0
   16.9890    4.0478   15.7078 C   0  0  0  0  0  0  0  0  0  0  0  0
   17.8870    3.0997   16.0079 F   0  0  0  0  0  0  0  0  0  0  0  0
   15.5920    1.1941   15.8762 N   0  0  0  0  0  0  0  0  0  0  0  0
   15.1125    2.4499   16.8827 S   0  0  0  0  0  0  0  0  0  0  0  0
   13.6707    2.4776   16.9229 O   0  0  0  0  0  0  0  0  0  0  0  0
   15.9151    2.2868   18.0753 O   0  0  0  0  0  0  0  0  0  0  0  0
   15.3096    0.3035   16.2855 H   0  0  0  0  0  0  0  0  0  0  0  0
   16.6062    1.2127   15.7690 H   0  0  0  0  0  0  0  0  0  0  0  0
  8  9  1  0
  9 10  2  0
  9 11  2  0
  9  1  1  0
  1  2  2  0
  2  3  1  0
  3  4  2  0
  4  5  1  0
  5  6  2  0
  6  7  1  0
  6  1  1  0
  8 12  1  0
  8 13  1  0
M  END
> <minimizedAffinity>
-7.17467

> <CNNscore>
0.9707993269

> <CNNaffinity>
6.7138729095

> <CNN_VS>
6.5178232193

> <CNNaffinity_variance>
1.4564279318

$$$$



 13 13  0  0  0  0  0  0  0  0999 V2000
   16.7741    4.6536   15.1431 C   0  0  0  0  0  0  0  0  0  0  0  0
   18.0662    5.1847   15.0703 C   0  0  0  0  0  0  0  0  0  0  0  0
   18.2481    6.4948   14.6225 C   0  0  0  0  0  0  0  0  0  0  0  0
   17.1458    7.2662   14.2484 C   0  0  0  0  0  0  0  0  0  0  0  0
   15.8603    6.7274   14.3181 C   0  0  0  0  0  0  0  0  0  0  0  0
   15.6812    5.4211   14.7652 C   0  0  0  0  0  0  0  0  0  0  0  0
   14.4405    4.9155   14.7878 F   0  0  0  0  0  0  0  0  0  0  0  0
   16.4999    2.0722   14.3186 N   0  0  0  0  0  0  0  0  0  0  0  0
   16.5352    3.0071   15.7131 S   0  0  0  0  0  0  0  0  0  0  0  0
   15.2374    2.9415   16.3396 O   0  0  0  0  0  0  0  0  0  0  0  0
   17.7434    2.5973   16.3952 O   0  0  0  0  0  0  0  0  0  0  0  0
   16.3630    1.0929   14.5691 H   0  0  0  0  0  0  0  0  0  0  0  0
   17.3827    2.1748   13.8180 H   0  0  0  0  0  0  0  0  0  0  0  0
  8  9  1  0
  9 10  2  0
  9 11  2  0
  9  1  1  0
  1  2  2  0
  2  3  1  0
  3  4  2  0
  4  5  1  0
  5  6  2  0
  6  7  1  0
  6  1  1  0
  8 12  1  0
  8 13  1  0
M  END
> <minimizedAffinity>
-5.78199

> <CNNscore>
0.9092209935

> <CNNaffinity>
6.2618999481

> <CNN_VS>
5.6934509277

> <CNNaffinity_variance>
1.1763316393

$$$$



 13 13  0  0  0  0  0  0  0  0999 V2000
   15.3656    4.2845   15.8764 C   0  0  0  0  0  0  0  0  0  0  0  0
   14.8378    5.5649   16.0728 C   0  0  0  0  0  0  0  0  0  0  0  0
   15.0451    6.5510   15.1061 C   0  0  0  0  0  0  0  0  0  0  0  0
   15.7767    6.2585   13.9533 C   0  0  0  0  0  0  0  0  0  0  0  0
   16.3053    4.9803   13.7671 C   0  0  0  0  0  0  0  0  0  0  0  0
   16.0971    3.9985   14.7321 C   0  0  0  0  0  0  0  0  0  0  0  0
   16.6463    2.7905   14.5466 F   0  0  0  0  0  0  0  0  0  0  0  0
   14.8455    3.8716   18.5180 N   0  0  0  0  0  0  0  0  0  0  0  0
   15.1029    3.0343   17.0852 S   0  0  0  0  0  0  0  0  0  0  0  0
   16.3256    2.2791   17.2112 O   0  0  0  0  0  0  0  0  0  0  0  0
   13.8324    2.4044   16.7988 O   0  0  0  0  0  0  0  0  0  0  0  0
   14.6836    3.2078   19.2753 H   0  0  0  0  0  0  0  0  0  0  0  0
   14.0307    4.4768   18.4164 H   0  0  0  0  0  0  0  0  0  0  0  0
  8  9  1  0
  9 10  2  0
  9 11  2  0
  9  1  1  0
  1  2  2  0
  2  3  1  0
  3  4  2  0
  4  5  1  0
  5  6  2  0
  6  7  1  0
  6  1  1  0
  8 12  1  0
  8 13  1  0
M  END
> <minimizedAffinity>
-5.70537

> <CNNscore>
0.8932447433

> <CNNaffinity>
5.7330341339

> <CNN_VS>
5.1210026741

> <CNNaffinity_variance>
0.3751384020

$$$$



 13 13  0  0  0  0  0  0  0  0999 V2000
   16.5455    3.4119   14.2949 C   0  0  0  0  0  0  0  0  0  0  0  0
   16.3997    4.7778   14.0309 C   0  0  0  0  0  0  0  0  0  0  0  0
   16.4825    5.2375   12.7149 C   0  0  0  0  0  0  0  0  0  0  0  0
   16.7118    4.3376   11.6721 C   0  0  0  0  0  0  0  0  0  0  0  0
   16.8623    2.9771   11.9440 C   0  0  0  0  0  0  0  0  0  0  0  0
   16.7789    2.5208   13.2568 C   0  0  0  0  0  0  0  0  0  0  0  0
   16.9636    1.2152   13.4947 F   0  0  0  0  0  0  0  0  0  0  0  0
   15.5611    1.3936   15.8364 N   0  0  0  0  0  0  0  0  0  0  0  0
   16.4350    2.8231   15.9485 S   0  0  0  0  0  0  0  0  0  0  0  0
   15.6581    3.7751   16.7043 O   0  0  0  0  0  0  0  0  0  0  0  0
   17.7592    2.4087   16.3581 O   0  0  0  0  0  0  0  0  0  0  0  0
   15.4536    0.9870   16.7657 H   0  0  0  0  0  0  0  0  0  0  0  0
   16.0580    0.7376   15.2337 H   0  0  0  0  0  0  0  0  0  0  0  0
  8  9  1  0
  9 10  2  0
  9 11  2  0
  9  1  1  0
  1  2  2  0
  2  3  1  0
  3  4  2  0
  4  5  1  0
  5  6  2  0
  6  7  1  0
  6  1  1  0
  8 12  1  0
  8 13  1  0
M  END
> <minimizedAffinity>
-5.66757

> <CNNscore>
0.8248071074

> <CNNaffinity>
5.6484107971

> <CNN_VS>
4.6588492393

> <CNNaffinity_variance>
0.4061793387

$$$$



 13 13  0  0  0  0  0  0  0  0999 V2000
   15.7655    3.9176   15.5695 C   0  0  0  0  0  0  0  0  0  0  0  0
   15.8798    4.8693   14.5508 C   0  0  0  0  0  0  0  0  0  0  0  0
   15.2208    6.0941   14.6754 C   0  0  0  0  0  0  0  0  0  0  0  0
   14.4517    6.3631   15.8095 C   0  0  0  0  0  0  0  0  0  0  0  0
   14.3375    5.4062   16.8190 C   0  0  0  0  0  0  0  0  0  0  0  0
   14.9958    4.1858   16.6929 C   0  0  0  0  0  0  0  0  0  0  0  0
   14.8401    3.2705   17.6589 F   0  0  0  0  0  0  0  0  0  0  0  0
   15.4716    1.2322   15.9180 N   0  0  0  0  0  0  0  0  0  0  0  0
   16.5984    2.3754   15.4243 S   0  0  0  0  0  0  0  0  0  0  0  0
   17.6918    2.3746   16.3654 O   0  0  0  0  0  0  0  0  0  0  0  0
   16.7921    2.1102   14.0154 O   0  0  0  0  0  0  0  0  0  0  0  0
   15.8845    0.3013   15.8613 H   0  0  0  0  0  0  0  0  0  0  0  0
   14.6525    1.2784   15.3118 H   0  0  0  0  0  0  0  0  0  0  0  0
  8  9  1  0
  9 10  2  0
  9 11  2  0
  9  1  1  0
  1  2  2  0
  2  3  1  0
  3  4  2  0
  4  5  1  0
  5  6  2  0
  6  7  1  0
  6  1  1  0
  8 12  1  0
  8 13  1  0
M  END
> <minimizedAffinity>
-6.53065

> <CNNscore>
0.8187778592

> <CNNaffinity>
5.9954009056

> <CNN_VS>
4.9089016914

> <CNNaffinity_variance>
1.1107608080

$$$$



 13 13  0  0  0  0  0  0  0  0999 V2000
   22.6691   12.7894   23.8232 C   0  0  0  0  0  0  0  0  0  0  0  0
   22.1369   13.5276   22.7608 C   0  0  0  0  0  0  0  0  0  0  0  0
   22.9966   14.2087   21.8966 C   0  0  0  0  0  0  0  0  0  0  0  0
   24.3776   14.1534   22.0956 C   0  0  0  0  0  0  0  0  0  0  0  0
   24.9009   13.4197   23.1612 C   0  0  0  0  0  0  0  0  0  0  0  0
   24.0419   12.7409   24.0215 C   0  0  0  0  0  0  0  0  0  0  0  0
   24.5675   12.0743   25.0581 F   0  0  0  0  0  0  0  0  0  0  0  0
   20.1894   11.6803   24.0239 N   0  0  0  0  0  0  0  0  0  0  0  0
   21.5941   11.9222   24.9119 S   0  0  0  0  0  0  0  0  0  0  0  0
   21.2895   12.7956   26.0190 O   0  0  0  0  0  0  0  0  0  0  0  0
   22.1370   10.5948   25.1025 O   0  0  0  0  0  0  0  0  0  0  0  0
   19.5092   11.1775   24.5938 H   0  0  0  0  0  0  0  0  0  0  0  0
   20.4044   11.1339   23.1898 H   0  0  0  0  0  0  0  0  0  0  0  0
  8  9  1  0
  9 10  2  0
  9 11  2  0
  9  1  1  0
  1  2  2  0
  2  3  1  0
  3  4  2  0
  4  5  1  0
  5  6  2  0
  6  7  1  0
  6  1  1  0
  8 12  1  0
  8 13  1  0
M  END
> <minimizedAffinity>
-3.89790

> <CNNscore>
0.8157693148

> <CNNaffinity>
3.7459037304

> <CNN_VS>
3.0557932854

> <CNNaffinity_variance>
0.8106915355

$$$$



 13 13  0  0  0  0  0  0  0  0999 V2000
   21.9729   13.4777   24.2343 C   0  0  0  0  0  0  0  0  0  0  0  0
   22.2827   13.4344   22.8710 C   0  0  0  0  0  0  0  0  0  0  0  0
   22.9830   14.4936   22.2899 C   0  0  0  0  0  0  0  0  0  0  0  0
   23.3679   15.5883   23.0667 C   0  0  0  0  0  0  0  0  0  0  0  0
   23.0500   15.6271   24.4251 C   0  0  0  0  0  0  0  0  0  0  0  0
   22.3520   14.5697   25.0025 C   0  0  0  0  0  0  0  0  0  0  0  0
   22.0272   14.6485   26.3000 F   0  0  0  0  0  0  0  0  0  0  0  0
   19.5294   12.2849   24.3929 N   0  0  0  0  0  0  0  0  0  0  0  0
   21.0979   12.1446   24.9761 S   0  0  0  0  0  0  0  0  0  0  0  0
   21.0771   12.3695   26.4009 O   0  0  0  0  0  0  0  0  0  0  0  0
   21.5931   10.9154   24.3957 O   0  0  0  0  0  0  0  0  0  0  0  0
   18.9538   11.5382   24.7823 H   0  0  0  0  0  0  0  0  0  0  0  0
   19.5371   12.2127   23.3755 H   0  0  0  0  0  0  0  0  0  0  0  0
  8  9  1  0
  9 10  2  0
  9 11  2  0
  9  1  1  0
  1  2  2  0
  2  3  1  0
  3  4  2  0
  4  5  1  0
  5  6  2  0
  6  7  1  0
  6  1  1  0
  8 12  1  0
  8 13  1  0
M  END
> <minimizedAffinity>
-4.32994

> <CNNscore>
0.7895411849

> <CNNaffinity>
3.9607658386

> <CNN_VS>
3.1271877289

> <CNNaffinity_variance>
0.8354763389

$$$$



 13 13  0  0  0  0  0  0  0  0999 V2000
   15.8348    3.9592   15.5769 C   0  0  0  0  0  0  0  0  0  0  0  0
   14.8372    4.1638   16.5358 C   0  0  0  0  0  0  0  0  0  0  0  0
   14.2228    5.4139   16.6343 C   0  0  0  0  0  0  0  0  0  0  0  0
   14.6055    6.4513   15.7816 C   0  0  0  0  0  0  0  0  0  0  0  0
   15.6058    6.2413   14.8313 C   0  0  0  0  0  0  0  0  0  0  0  0
   16.2169    4.9939   14.7345 C   0  0  0  0  0  0  0  0  0  0  0  0
   17.1997    4.8292   13.8389 F   0  0  0  0  0  0  0  0  0  0  0  0
   15.4865    1.3016   16.0616 N   0  0  0  0  0  0  0  0  0  0  0  0
   16.6087    2.3857   15.4407 S   0  0  0  0  0  0  0  0  0  0  0  0
   17.7662    2.3878   16.3016 O   0  0  0  0  0  0  0  0  0  0  0  0
   16.6929    2.0564   14.0344 O   0  0  0  0  0  0  0  0  0  0  0  0
   15.8663    0.3560   16.0166 H   0  0  0  0  0  0  0  0  0  0  0  0
   14.6278    1.3496   15.5132 H   0  0  0  0  0  0  0  0  0  0  0  0
  8  9  1  0
  9 10  2  0
  9 11  2  0
  9  1  1  0
  1  2  2  0
  2  3  1  0
  3  4  2  0
  4  5  1  0
  5  6  2  0
  6  7  1  0
  6  1  1  0
  8 12  1  0
  8 13  1  0
M  END
> <minimizedAffinity>
-6.43556

> <CNNscore>
0.7803405523

> <CNNaffinity>
5.7775940895

> <CNN_VS>
4.5084910393

> <CNNaffinity_variance>
0.7035491467

$$$$
