


 19 20  0  0  0  0  0  0  0  0999 V2000
  -16.3488   11.8833   32.7141 C   0  0  0  0  0  0  0  0  0  0  0  0
  -15.0633   11.8474   31.8639 C   0  0  0  0  0  0  0  0  0  0  0  0
  -15.3605   12.2553   30.5065 O   0  0  0  0  0  0  0  0  0  0  0  0
  -14.6424   10.3671   31.8287 C   0  0  0  0  0  0  0  0  0  0  0  0
  -14.1309   10.0124   30.5439 O   0  0  0  0  0  0  0  0  0  0  0  0
  -15.9090    9.5853   32.2550 C   0  0  0  0  0  0  0  0  0  0  0  0
  -16.2651    8.4351   31.3182 C   0  0  0  0  0  0  0  0  0  0  0  0
  -16.9787   10.6020   32.3176 N   0  0  0  0  0  0  0  0  0  0  0  0
  -18.1316   10.2054   33.1120 C   0  0  0  0  0  0  0  0  0  0  0  0
  -16.0427   11.6737   30.1361 H   0  0  0  0  0  0  0  0  0  0  0  0
  -14.8040   10.1885   29.8680 H   0  0  0  0  0  0  0  0  0  0  0  0
  -15.6699   12.5497   36.9667 C   0  0  0  0  0  0  0  0  0  0  0  0
  -16.9055   12.8687   36.4044 C   0  0  0  0  0  0  0  0  0  0  0  0
  -17.1532   12.6634   35.0418 C   0  0  0  0  0  0  0  0  0  0  0  0
  -16.1650   12.1306   34.2055 C   0  0  0  0  0  0  0  0  0  0  0  0
  -14.9223   11.8148   34.7871 C   0  0  0  0  0  0  0  0  0  0  0  0
  -14.6756   12.0204   36.1504 C   0  0  0  0  0  0  0  0  0  0  0  0
  -16.7801   13.0214   39.0139 C   0  0  0  0  0  0  0  0  0  0  0  0
  -15.5666   12.8018   38.3059 O   0  0  0  0  0  0  0  0  0  0  0  0
 18 19  1  0
 19 12  1  0
 12 13  2  0
 13 14  1  0
 14 15  2  0
  1 15  1  0
  1  2  1  0
  2  3  1  0
  2  4  1  0
  4  5  1  0
  4  6  1  0
  6  7  1  0
  6  8  1  0
  8  9  1  0
 15 16  1  0
 16 17  2  0
 17 12  1  0
  8  1  1  0
  3 10  1  0
  5 11  1  0
M  END
> <minimizedAffinity>
-6.51111

> <CNNscore>
0.8668784499

> <CNNaffinity>
5.6615829468

> <CNN_VS>
4.9079041481

> <CNNaffinity_variance>
0.1745560318

$$$$



 19 20  0  0  0  0  0  0  0  0999 V2000
  -16.3004   12.2424   32.3044 C   0  0  0  0  0  0  0  0  0  0  0  0
  -15.5146   11.5714   31.1603 C   0  0  0  0  0  0  0  0  0  0  0  0
  -16.2828   11.6337   29.9343 O   0  0  0  0  0  0  0  0  0  0  0  0
  -15.3944   10.0913   31.5654 C   0  0  0  0  0  0  0  0  0  0  0  0
  -15.5341    9.2383   30.4292 O   0  0  0  0  0  0  0  0  0  0  0  0
  -16.4742    9.8907   32.6568 C   0  0  0  0  0  0  0  0  0  0  0  0
  -17.3722    8.6810   32.4174 C   0  0  0  0  0  0  0  0  0  0  0  0
  -17.2377   11.1550   32.6713 N   0  0  0  0  0  0  0  0  0  0  0  0
  -17.9989   11.3772   33.8914 C   0  0  0  0  0  0  0  0  0  0  0  0
  -17.1421   11.2044   30.0690 H   0  0  0  0  0  0  0  0  0  0  0  0
  -16.3900    9.4037   30.0039 H   0  0  0  0  0  0  0  0  0  0  0  0
  -13.8064   13.8782   35.4816 C   0  0  0  0  0  0  0  0  0  0  0  0
  -15.0557   14.4411   35.2227 C   0  0  0  0  0  0  0  0  0  0  0  0
  -15.8796   13.9352   34.2101 C   0  0  0  0  0  0  0  0  0  0  0  0
  -15.4706   12.8480   33.4287 C   0  0  0  0  0  0  0  0  0  0  0  0
  -14.2063   12.2912   33.7008 C   0  0  0  0  0  0  0  0  0  0  0  0
  -13.3830   12.7978   34.7142 C   0  0  0  0  0  0  0  0  0  0  0  0
  -12.3596   15.6339   36.1673 C   0  0  0  0  0  0  0  0  0  0  0  0
  -13.1089   14.4711   36.4964 O   0  0  0  0  0  0  0  0  0  0  0  0
 18 19  1  0
 19 12  1  0
 12 13  2  0
 13 14  1  0
 14 15  2  0
  1 15  1  0
  1  2  1  0
  2  3  1  0
  2  4  1  0
  4  5  1  0
  4  6  1  0
  6  7  1  0
  6  8  1  0
  8  9  1  0
 15 16  1  0
 16 17  2  0
 17 12  1  0
  8  1  1  0
  3 10  1  0
  5 11  1  0
M  END
> <minimizedAffinity>
-7.15008

> <CNNscore>
0.8372079730

> <CNNaffinity>
5.9004578590

> <CNN_VS>
4.9399104118

> <CNNaffinity_variance>
0.2879079282

$$$$



 19 20  0  0  0  0  0  0  0  0999 V2000
  -15.5458   12.8366   35.2285 C   0  0  0  0  0  0  0  0  0  0  0  0
  -14.1896   12.8204   35.9614 C   0  0  0  0  0  0  0  0  0  0  0  0
  -14.3706   13.2296   37.3387 O   0  0  0  0  0  0  0  0  0  0  0  0
  -13.3375   13.8935   35.2600 C   0  0  0  0  0  0  0  0  0  0  0  0
  -12.5391   14.6081   36.2034 O   0  0  0  0  0  0  0  0  0  0  0  0
  -14.3571   14.7664   34.4883 C   0  0  0  0  0  0  0  0  0  0  0  0
  -14.1870   16.2639   34.7251 C   0  0  0  0  0  0  0  0  0  0  0  0
  -15.6810   14.2814   34.9286 N   0  0  0  0  0  0  0  0  0  0  0  0
  -16.7717   14.6293   34.0303 C   0  0  0  0  0  0  0  0  0  0  0  0
  -14.7726   14.1120   37.3637 H   0  0  0  0  0  0  0  0  0  0  0  0
  -13.1136   15.0156   36.8703 H   0  0  0  0  0  0  0  0  0  0  0  0
  -15.8153   10.1038   31.8449 C   0  0  0  0  0  0  0  0  0  0  0  0
  -16.8885   10.2208   32.7276 C   0  0  0  0  0  0  0  0  0  0  0  0
  -16.8314   11.0922   33.8220 C   0  0  0  0  0  0  0  0  0  0  0  0
  -15.6930   11.8716   34.0597 C   0  0  0  0  0  0  0  0  0  0  0  0
  -14.6171   11.7416   33.1607 C   0  0  0  0  0  0  0  0  0  0  0  0
  -14.6753   10.8698   32.0662 C   0  0  0  0  0  0  0  0  0  0  0  0
  -16.4005    7.8985   31.1814 C   0  0  0  0  0  0  0  0  0  0  0  0
  -16.0071    9.2170   30.8228 O   0  0  0  0  0  0  0  0  0  0  0  0
 18 19  1  0
 19 12  1  0
 12 13  2  0
 13 14  1  0
 14 15  2  0
  1 15  1  0
  1  2  1  0
  2  3  1  0
  2  4  1  0
  4  5  1  0
  4  6  1  0
  6  7  1  0
  6  8  1  0
  8  9  1  0
 15 16  1  0
 16 17  2  0
 17 12  1  0
  8  1  1  0
  3 10  1  0
  5 11  1  0
M  END
> <minimizedAffinity>
-5.91333

> <CNNscore>
0.6325747371

> <CNNaffinity>
4.4168381691

> <CNN_VS>
2.7939803600

> <CNNaffinity_variance>
0.1457163095

$$$$



 19 20  0  0  0  0  0  0  0  0999 V2000
  -17.6439   14.8795   34.7125 C   0  0  0  0  0  0  0  0  0  0  0  0
  -16.9650   14.0540   33.6015 C   0  0  0  0  0  0  0  0  0  0  0  0
  -17.7568   12.8769   33.3106 O   0  0  0  0  0  0  0  0  0  0  0  0
  -15.6289   13.5846   34.2050 C   0  0  0  0  0  0  0  0  0  0  0  0
  -15.3242   12.2515   33.7952 O   0  0  0  0  0  0  0  0  0  0  0  0
  -15.7999   13.7647   35.7332 C   0  0  0  0  0  0  0  0  0  0  0  0
  -15.4123   12.5319   36.5440 C   0  0  0  0  0  0  0  0  0  0  0  0
  -17.2206   14.1251   35.9157 N   0  0  0  0  0  0  0  0  0  0  0  0
  -17.5130   14.7700   37.1870 C   0  0  0  0  0  0  0  0  0  0  0  0
  -17.8670   12.3532   34.1196 H   0  0  0  0  0  0  0  0  0  0  0  0
  -16.0432   11.6583   34.0639 H   0  0  0  0  0  0  0  0  0  0  0  0
  -16.7025   19.1341   34.6780 C   0  0  0  0  0  0  0  0  0  0  0  0
  -18.0334   18.7192   34.6464 C   0  0  0  0  0  0  0  0  0  0  0  0
  -18.3661   17.3593   34.6589 C   0  0  0  0  0  0  0  0  0  0  0  0
  -17.3693   16.3774   34.7040 C   0  0  0  0  0  0  0  0  0  0  0  0
  -16.0303   16.8115   34.7341 C   0  0  0  0  0  0  0  0  0  0  0  0
  -15.6985   18.1722   34.7218 C   0  0  0  0  0  0  0  0  0  0  0  0
  -15.2374   20.9621   34.2803 C   0  0  0  0  0  0  0  0  0  0  0  0
  -16.5231   20.4889   34.6608 O   0  0  0  0  0  0  0  0  0  0  0  0
 18 19  1  0
 19 12  1  0
 12 13  2  0
 13 14  1  0
 14 15  2  0
  1 15  1  0
  1  2  1  0
  2  3  1  0
  2  4  1  0
  4  5  1  0
  4  6  1  0
  6  7  1  0
  6  8  1  0
  8  9  1  0
 15 16  1  0
 16 17  2  0
 17 12  1  0
  8  1  1  0
  3 10  1  0
  5 11  1  0
M  END
> <minimizedAffinity>
-4.31254

> <CNNscore>
0.4736495018

> <CNNaffinity>
3.5060055256

> <CNN_VS>
1.6606178284

> <CNNaffinity_variance>
0.2280716300

$$$$



 19 20  0  0  0  0  0  0  0  0999 V2000
  -20.8783   13.5242   36.1053 C   0  0  0  0  0  0  0  0  0  0  0  0
  -22.2043   13.6709   36.8778 C   0  0  0  0  0  0  0  0  0  0  0  0
  -22.3113   12.6247   37.8734 O   0  0  0  0  0  0  0  0  0  0  0  0
  -23.3099   13.4398   35.8320 C   0  0  0  0  0  0  0  0  0  0  0  0
  -24.3951   12.6999   36.3916 O   0  0  0  0  0  0  0  0  0  0  0  0
  -22.5962   12.7400   34.6497 C   0  0  0  0  0  0  0  0  0  0  0  0
  -23.3061   11.4807   34.1622 C   0  0  0  0  0  0  0  0  0  0  0  0
  -21.2346   12.4533   35.1451 N   0  0  0  0  0  0  0  0  0  0  0  0
  -20.2571   12.2114   34.0945 C   0  0  0  0  0  0  0  0  0  0  0  0
  -22.2513   11.7588   37.4402 H   0  0  0  0  0  0  0  0  0  0  0  0
  -24.0677   11.8520   36.7302 H   0  0  0  0  0  0  0  0  0  0  0  0
  -19.0639   17.1025   34.4043 C   0  0  0  0  0  0  0  0  0  0  0  0
  -20.3672   17.1545   34.8975 C   0  0  0  0  0  0  0  0  0  0  0  0
  -20.9752   16.0217   35.4517 C   0  0  0  0  0  0  0  0  0  0  0  0
  -20.2893   14.8035   35.5262 C   0  0  0  0  0  0  0  0  0  0  0  0
  -18.9748   14.7660   35.0230 C   0  0  0  0  0  0  0  0  0  0  0  0
  -18.3675   15.9000   34.4690 C   0  0  0  0  0  0  0  0  0  0  0  0
  -19.5448   19.3252   33.7156 C   0  0  0  0  0  0  0  0  0  0  0  0
  -18.5967   18.2802   33.8920 O   0  0  0  0  0  0  0  0  0  0  0  0
 18 19  1  0
 19 12  1  0
 12 13  2  0
 13 14  1  0
 14 15  2  0
  1 15  1  0
  1  2  1  0
  2  3  1  0
  2  4  1  0
  4  5  1  0
  4  6  1  0
  6  7  1  0
  6  8  1  0
  8  9  1  0
 15 16  1  0
 16 17  2  0
 17 12  1  0
  8  1  1  0
  3 10  1  0
  5 11  1  0
M  END
> <minimizedAffinity>
-4.65663

> <CNNscore>
0.4513592720

> <CNNaffinity>
3.5837385654

> <CNN_VS>
1.6175535917

> <CNNaffinity_variance>
0.2088967115

$$$$



 19 20  0  0  0  0  0  0  0  0999 V2000
  -20.6662   11.7375   38.1781 C   0  0  0  0  0  0  0  0  0  0  0  0
  -19.4904   11.1121   37.4014 C   0  0  0  0  0  0  0  0  0  0  0  0
  -18.2470   11.7327   37.8090 O   0  0  0  0  0  0  0  0  0  0  0  0
  -19.7382   11.4792   35.9272 C   0  0  0  0  0  0  0  0  0  0  0  0
  -18.5117   11.7887   35.2653 O   0  0  0  0  0  0  0  0  0  0  0  0
  -20.7552   12.6456   35.9753 C   0  0  0  0  0  0  0  0  0  0  0  0
  -20.3492   13.8498   35.1313 C   0  0  0  0  0  0  0  0  0  0  0  0
  -20.8738   12.9861   37.4077 N   0  0  0  0  0  0  0  0  0  0  0  0
  -22.0778   13.7305   37.7453 C   0  0  0  0  0  0  0  0  0  0  0  0
  -18.2984   12.6894   37.6578 H   0  0  0  0  0  0  0  0  0  0  0  0
  -18.0711   12.5198   35.7260 H   0  0  0  0  0  0  0  0  0  0  0  0
  -24.1183    9.1205   38.6515 C   0  0  0  0  0  0  0  0  0  0  0  0
  -23.7489    9.9741   39.6905 C   0  0  0  0  0  0  0  0  0  0  0  0
  -22.6460   10.8276   39.5660 C   0  0  0  0  0  0  0  0  0  0  0  0
  -21.8831   10.8473   38.3925 C   0  0  0  0  0  0  0  0  0  0  0  0
  -22.2673    9.9790   37.3528 C   0  0  0  0  0  0  0  0  0  0  0  0
  -23.3709    9.1257   37.4782 C   0  0  0  0  0  0  0  0  0  0  0  0
  -25.3025    7.7698   40.2069 C   0  0  0  0  0  0  0  0  0  0  0  0
  -25.2127    8.3434   38.9089 O   0  0  0  0  0  0  0  0  0  0  0  0
 18 19  1  0
 19 12  1  0
 12 13  2  0
 13 14  1  0
 14 15  2  0
  1 15  1  0
  1  2  1  0
  2  3  1  0
  2  4  1  0
  4  5  1  0
  4  6  1  0
  6  7  1  0
  6  8  1  0
  8  9  1  0
 15 16  1  0
 16 17  2  0
 17 12  1  0
  8  1  1  0
  3 10  1  0
  5 11  1  0
M  END
> <minimizedAffinity>
-4.17308

> <CNNscore>
0.4271824360

> <CNNaffinity>
3.4824314117

> <CNN_VS>
1.4876335859

> <CNNaffinity_variance>
0.3757672310

$$$$



 19 20  0  0  0  0  0  0  0  0999 V2000
  -15.4047   15.1481   36.1515 C   0  0  0  0  0  0  0  0  0  0  0  0
  -15.9833   13.7781   36.5578 C   0  0  0  0  0  0  0  0  0  0  0  0
  -15.2359   13.2414   37.6761 O   0  0  0  0  0  0  0  0  0  0  0  0
  -15.7404   12.8606   35.3460 C   0  0  0  0  0  0  0  0  0  0  0  0
  -15.3775   11.5454   35.7663 O   0  0  0  0  0  0  0  0  0  0  0  0
  -14.6611   13.5888   34.5082 C   0  0  0  0  0  0  0  0  0  0  0  0
  -13.4887   12.6980   34.1091 C   0  0  0  0  0  0  0  0  0  0  0  0
  -14.2336   14.7265   35.3476 N   0  0  0  0  0  0  0  0  0  0  0  0
  -13.5692   15.7924   34.6126 C   0  0  0  0  0  0  0  0  0  0  0  0
  -14.2993   13.1692   37.4342 H   0  0  0  0  0  0  0  0  0  0  0  0
  -14.5826   11.5908   36.3204 H   0  0  0  0  0  0  0  0  0  0  0  0
  -18.2819   17.8201   34.2614 C   0  0  0  0  0  0  0  0  0  0  0  0
  -17.1265   18.3443   34.8401 C   0  0  0  0  0  0  0  0  0  0  0  0
  -16.1834   17.5101   35.4522 C   0  0  0  0  0  0  0  0  0  0  0  0
  -16.3751   16.1242   35.4996 C   0  0  0  0  0  0  0  0  0  0  0  0
  -17.5469   15.6097   34.9124 C   0  0  0  0  0  0  0  0  0  0  0  0
  -18.4896   16.4451   34.3001 C   0  0  0  0  0  0  0  0  0  0  0  0
  -20.2408   19.1488   34.4698 C   0  0  0  0  0  0  0  0  0  0  0  0
  -19.1144   18.7475   33.7004 O   0  0  0  0  0  0  0  0  0  0  0  0
 18 19  1  0
 19 12  1  0
 12 13  2  0
 13 14  1  0
 14 15  2  0
  1 15  1  0
  1  2  1  0
  2  3  1  0
  2  4  1  0
  4  5  1  0
  4  6  1  0
  6  7  1  0
  6  8  1  0
  8  9  1  0
 15 16  1  0
 16 17  2  0
 17 12  1  0
  8  1  1  0
  3 10  1  0
  5 11  1  0
M  END
> <minimizedAffinity>
-4.55127

> <CNNscore>
0.4207122922

> <CNNaffinity>
3.1044502258

> <CNN_VS>
1.3060803413

> <CNNaffinity_variance>
0.7672860026

$$$$



 19 20  0  0  0  0  0  0  0  0999 V2000
  -16.5012   10.8956   33.7329 C   0  0  0  0  0  0  0  0  0  0  0  0
  -17.1797    9.8228   32.8581 C   0  0  0  0  0  0  0  0  0  0  0  0
  -16.7600    8.5039   33.2843 O   0  0  0  0  0  0  0  0  0  0  0  0
  -16.6336   10.0540   31.4376 C   0  0  0  0  0  0  0  0  0  0  0  0
  -16.4073    8.8127   30.7695 O   0  0  0  0  0  0  0  0  0  0  0  0
  -15.3642   10.9177   31.6373 C   0  0  0  0  0  0  0  0  0  0  0  0
  -14.1365   10.3834   30.9060 C   0  0  0  0  0  0  0  0  0  0  0  0
  -15.1632   10.9633   33.0999 N   0  0  0  0  0  0  0  0  0  0  0  0
  -14.3179   12.0585   33.5511 C   0  0  0  0  0  0  0  0  0  0  0  0
  -15.7935    8.4396   33.2323 H   0  0  0  0  0  0  0  0  0  0  0  0
  -15.7870    8.2756   31.2867 H   0  0  0  0  0  0  0  0  0  0  0  0
  -18.7790   14.5719   34.2685 C   0  0  0  0  0  0  0  0  0  0  0  0
  -17.4707   14.6315   33.7895 C   0  0  0  0  0  0  0  0  0  0  0  0
  -16.7157   13.4670   33.6051 C   0  0  0  0  0  0  0  0  0  0  0  0
  -17.2552   12.2086   33.8970 C   0  0  0  0  0  0  0  0  0  0  0  0
  -18.5766   12.1644   34.3812 C   0  0  0  0  0  0  0  0  0  0  0  0
  -19.3311   13.3299   34.5650 C   0  0  0  0  0  0  0  0  0  0  0  0
  -20.6292   15.8021   35.1107 C   0  0  0  0  0  0  0  0  0  0  0  0
  -19.3977   15.7834   34.4002 O   0  0  0  0  0  0  0  0  0  0  0  0
 18 19  1  0
 19 12  1  0
 12 13  2  0
 13 14  1  0
 14 15  2  0
  1 15  1  0
  1  2  1  0
  2  3  1  0
  2  4  1  0
  4  5  1  0
  4  6  1  0
  6  7  1  0
  6  8  1  0
  8  9  1  0
 15 16  1  0
 16 17  2  0
 17 12  1  0
  8  1  1  0
  3 10  1  0
  5 11  1  0
M  END
> <minimizedAffinity>
-5.13325

> <CNNscore>
0.3913493752

> <CNNaffinity>
4.6094360352

> <CNN_VS>
1.8038998842

> <CNNaffinity_variance>
0.1500784755

$$$$



 19 20  0  0  0  0  0  0  0  0999 V2000
  -15.9489   15.1463   34.6652 C   0  0  0  0  0  0  0  0  0  0  0  0
  -14.4710   14.7686   34.4417 C   0  0  0  0  0  0  0  0  0  0  0  0
  -14.3858   13.4598   33.8277 O   0  0  0  0  0  0  0  0  0  0  0  0
  -13.8613   14.6673   35.8515 C   0  0  0  0  0  0  0  0  0  0  0  0
  -12.9333   13.5853   35.9296 O   0  0  0  0  0  0  0  0  0  0  0  0
  -15.0780   14.5411   36.8007 C   0  0  0  0  0  0  0  0  0  0  0  0
  -14.9652   13.3886   37.7939 C   0  0  0  0  0  0  0  0  0  0  0  0
  -16.2431   14.3905   35.9054 N   0  0  0  0  0  0  0  0  0  0  0  0
  -17.5197   14.6992   36.5320 C   0  0  0  0  0  0  0  0  0  0  0  0
  -14.8333   12.8089   34.3907 H   0  0  0  0  0  0  0  0  0  0  0  0
  -13.3813   12.7575   35.6950 H   0  0  0  0  0  0  0  0  0  0  0  0
  -16.7176   19.4357   34.6708 C   0  0  0  0  0  0  0  0  0  0  0  0
  -17.7856   18.5409   34.6139 C   0  0  0  0  0  0  0  0  0  0  0  0
  -17.5693   17.1576   34.6131 C   0  0  0  0  0  0  0  0  0  0  0  0
  -16.2720   16.6345   34.6698 C   0  0  0  0  0  0  0  0  0  0  0  0
  -15.2038   17.5501   34.7254 C   0  0  0  0  0  0  0  0  0  0  0  0
  -15.4214   18.9337   34.7264 C   0  0  0  0  0  0  0  0  0  0  0  0
  -17.7505   21.2324   33.5085 C   0  0  0  0  0  0  0  0  0  0  0  0
  -17.0734   20.7552   34.6642 O   0  0  0  0  0  0  0  0  0  0  0  0
 18 19  1  0
 19 12  1  0
 12 13  2  0
 13 14  1  0
 14 15  2  0
  1 15  1  0
  1  2  1  0
  2  3  1  0
  2  4  1  0
  4  5  1  0
  4  6  1  0
  6  7  1  0
  6  8  1  0
  8  9  1  0
 15 16  1  0
 16 17  2  0
 17 12  1  0
  8  1  1  0
  3 10  1  0
  5 11  1  0
M  END
> <minimizedAffinity>
-5.07244

> <CNNscore>
0.3740520477

> <CNNaffinity>
3.0528843403

> <CNN_VS>
1.1419376135

> <CNNaffinity_variance>
0.6036843657

$$$$
