


 18 20  0  0  0  0  0  0  0  0999 V2000
    8.0378   82.7320    3.6507 O   0  0  0  0  0  0  0  0  0  0  0  0
    7.9808   82.4003    2.4708 C   0  0  0  0  0  0  0  0  0  0  0  0
    9.0756   81.8758    1.8321 N   0  0  0  0  0  0  0  0  0  0  0  0
    9.0532   81.4934    0.5170 C   0  0  0  0  0  0  0  0  0  0  0  0
   10.6733   80.7861   -0.1951 Br  0  0  0  0  0  0  0  0  0  0  0  0
    8.0361   81.5689   -0.2811 N   0  0  0  0  0  0  0  0  0  0  0  0
    6.8690   82.0984    0.2997 C   0  0  0  0  0  0  0  0  0  0  0  0
    6.8413   82.4939    1.6071 C   0  0  0  0  0  0  0  0  0  0  0  0
    5.3405   83.0914    2.0722 S   0  0  0  0  0  0  0  0  0  0  0  0
    4.6665   82.8301    0.4915 C   0  0  0  0  0  0  0  0  0  0  0  0
    3.3454   83.1081    0.0628 C   0  0  0  0  0  0  0  0  0  0  0  0
    2.1652   83.7843    1.1256 Cl  0  0  0  0  0  0  0  0  0  0  0  0
    2.9685   82.8338   -1.2543 C   0  0  0  0  0  0  0  0  0  0  0  0
    3.8807   82.2911   -2.1436 C   0  0  0  0  0  0  0  0  0  0  0  0
    5.1808   82.0191   -1.7162 C   0  0  0  0  0  0  0  0  0  0  0  0
    6.3041   81.3477   -2.8218 Cl  0  0  0  0  0  0  0  0  0  0  0  0
    5.6211   82.2766   -0.3903 C   0  0  0  0  0  0  0  0  0  0  0  0
    9.9122   81.7697    2.3401 H   0  0  0  0  0  0  0  0  0  0  0  0
  1  2  2  0
  2  3  1  0
  3  4  1  0
  4  5  1  0
  4  6  2  0
  6  7  1  0
  7  8  2  0
  8  9  1  0
  9 10  1  0
 10 11  2  0
 11 12  1  0
 11 13  1  0
 13 14  2  0
 14 15  1  0
 15 16  1  0
 15 17  2  0
  8  2  1  0
 17 10  1  0
 17  7  1  0
  3 18  1  0
M  END
> <minimizedAffinity>
-8.07800

> <CNNscore>
0.8450523019

> <CNNaffinity>
6.8436646461

> <CNN_VS>
5.7832546234

> <CNNaffinity_variance>
0.1106987968

$$$$



 18 20  0  0  0  0  0  0  0  0999 V2000
   10.9463   80.7381    0.3505 O   0  0  0  0  0  0  0  0  0  0  0  0
    9.9846   80.8780   -0.3985 C   0  0  0  0  0  0  0  0  0  0  0  0
   10.0590   80.5103   -1.7179 N   0  0  0  0  0  0  0  0  0  0  0  0
    9.0088   80.6500   -2.5861 C   0  0  0  0  0  0  0  0  0  0  0  0
    9.3029   80.0825   -4.3816 Br  0  0  0  0  0  0  0  0  0  0  0  0
    7.8410   81.1302   -2.2982 N   0  0  0  0  0  0  0  0  0  0  0  0
    7.6826   81.5321   -0.9591 C   0  0  0  0  0  0  0  0  0  0  0  0
    8.7003   81.4129   -0.0555 C   0  0  0  0  0  0  0  0  0  0  0  0
    8.2742   81.9578    1.4767 S   0  0  0  0  0  0  0  0  0  0  0  0
    6.6699   82.3807    0.9585 C   0  0  0  0  0  0  0  0  0  0  0  0
    5.6330   82.9439    1.7423 C   0  0  0  0  0  0  0  0  0  0  0  0
    5.8484   83.3030    3.4168 Cl  0  0  0  0  0  0  0  0  0  0  0  0
    4.3939   83.2235    1.1606 C   0  0  0  0  0  0  0  0  0  0  0  0
    4.1739   82.9527   -0.1795 C   0  0  0  0  0  0  0  0  0  0  0  0
    5.1986   82.3978   -0.9470 C   0  0  0  0  0  0  0  0  0  0  0  0
    4.9195   82.0654   -2.6044 Cl  0  0  0  0  0  0  0  0  0  0  0  0
    6.4783   82.0924   -0.4109 C   0  0  0  0  0  0  0  0  0  0  0  0
   10.9023   80.1301   -2.0549 H   0  0  0  0  0  0  0  0  0  0  0  0
  1  2  2  0
  2  3  1  0
  3  4  1  0
  4  5  1  0
  4  6  2  0
  6  7  1  0
  7  8  2  0
  8  9  1  0
  9 10  1  0
 10 11  2  0
 11 12  1  0
 11 13  1  0
 13 14  2  0
 14 15  1  0
 15 16  1  0
 15 17  2  0
  8  2  1  0
 17 10  1  0
 17  7  1  0
  3 18  1  0
M  END
> <minimizedAffinity>
-7.94394

> <CNNscore>
0.8071733117

> <CNNaffinity>
7.0115733147

> <CNN_VS>
5.6595549583

> <CNNaffinity_variance>
0.0842536464

$$$$



 18 20  0  0  0  0  0  0  0  0999 V2000
    9.5957   81.4905   -0.6648 O   0  0  0  0  0  0  0  0  0  0  0  0
    8.4078   81.6636   -0.4114 C   0  0  0  0  0  0  0  0  0  0  0  0
    7.4746   81.7276   -1.4148 N   0  0  0  0  0  0  0  0  0  0  0  0
    6.1399   81.9194   -1.1739 C   0  0  0  0  0  0  0  0  0  0  0  0
    4.9966   81.9801   -2.6975 Br  0  0  0  0  0  0  0  0  0  0  0  0
    5.5885   82.0622   -0.0108 N   0  0  0  0  0  0  0  0  0  0  0  0
    6.4812   82.0085    1.0755 C   0  0  0  0  0  0  0  0  0  0  0  0
    7.8209   81.8192    0.8866 C   0  0  0  0  0  0  0  0  0  0  0  0
    8.6817   81.7911    2.3303 S   0  0  0  0  0  0  0  0  0  0  0  0
    7.2442   82.0387    3.2754 C   0  0  0  0  0  0  0  0  0  0  0  0
    7.1476   82.1358    4.6853 C   0  0  0  0  0  0  0  0  0  0  0  0
    8.5350   82.0124    5.7049 Cl  0  0  0  0  0  0  0  0  0  0  0  0
    5.9023   82.3372    5.2857 C   0  0  0  0  0  0  0  0  0  0  0  0
    4.7607   82.4425    4.5089 C   0  0  0  0  0  0  0  0  0  0  0  0
    4.8614   82.3460    3.1206 C   0  0  0  0  0  0  0  0  0  0  0  0
    3.4450   82.4772    2.1657 Cl  0  0  0  0  0  0  0  0  0  0  0  0
    6.0994   82.1417    2.4544 C   0  0  0  0  0  0  0  0  0  0  0  0
    7.7768   81.6316   -2.3468 H   0  0  0  0  0  0  0  0  0  0  0  0
  1  2  2  0
  2  3  1  0
  3  4  1  0
  4  5  1  0
  4  6  2  0
  6  7  1  0
  7  8  2  0
  8  9  1  0
  9 10  1  0
 10 11  2  0
 11 12  1  0
 11 13  1  0
 13 14  2  0
 14 15  1  0
 15 16  1  0
 15 17  2  0
  8  2  1  0
 17 10  1  0
 17  7  1  0
  3 18  1  0
M  END
> <minimizedAffinity>
-6.64266

> <CNNscore>
0.7381157279

> <CNNaffinity>
6.7117576599

> <CNN_VS>
4.9540538788

> <CNNaffinity_variance>
0.0150496988

$$$$



 18 20  0  0  0  0  0  0  0  0999 V2000
    6.5447   81.4095   -3.0179 O   0  0  0  0  0  0  0  0  0  0  0  0
    6.9675   81.5219   -1.8717 C   0  0  0  0  0  0  0  0  0  0  0  0
    8.2743   81.2332   -1.5706 N   0  0  0  0  0  0  0  0  0  0  0  0
    8.7849   81.3457   -0.3045 C   0  0  0  0  0  0  0  0  0  0  0  0
   10.6245   80.8998   -0.0822 Br  0  0  0  0  0  0  0  0  0  0  0  0
    8.1339   81.7256    0.7486 N   0  0  0  0  0  0  0  0  0  0  0  0
    6.7813   82.0415    0.5235 C   0  0  0  0  0  0  0  0  0  0  0  0
    6.2258   81.9450   -0.7210 C   0  0  0  0  0  0  0  0  0  0  0  0
    4.6005   82.3738   -0.7406 S   0  0  0  0  0  0  0  0  0  0  0  0
    4.5947   82.7100    0.9648 C   0  0  0  0  0  0  0  0  0  0  0  0
    3.5031   83.1547    1.7503 C   0  0  0  0  0  0  0  0  0  0  0  0
    1.9430   83.4358    1.0673 Cl  0  0  0  0  0  0  0  0  0  0  0  0
    3.6751   83.3774    3.1188 C   0  0  0  0  0  0  0  0  0  0  0  0
    4.9084   83.1655    3.7118 C   0  0  0  0  0  0  0  0  0  0  0  0
    5.9804   82.7275    2.9334 C   0  0  0  0  0  0  0  0  0  0  0  0
    7.5034   82.4674    3.6736 Cl  0  0  0  0  0  0  0  0  0  0  0  0
    5.8656   82.4843    1.5385 C   0  0  0  0  0  0  0  0  0  0  0  0
    8.8699   80.9326   -2.2945 H   0  0  0  0  0  0  0  0  0  0  0  0
  1  2  2  0
  2  3  1  0
  3  4  1  0
  4  5  1  0
  4  6  2  0
  6  7  1  0
  7  8  2  0
  8  9  1  0
  9 10  1  0
 10 11  2  0
 11 12  1  0
 11 13  1  0
 13 14  2  0
 14 15  1  0
 15 16  1  0
 15 17  2  0
  8  2  1  0
 17 10  1  0
 17  7  1  0
  3 18  1  0
M  END
> <minimizedAffinity>
-6.68984

> <CNNscore>
0.5984495878

> <CNNaffinity>
6.6650996208

> <CNN_VS>
3.9887261391

> <CNNaffinity_variance>
0.1374108791

$$$$



 18 20  0  0  0  0  0  0  0  0999 V2000
    9.7022   81.2327    1.4428 O   0  0  0  0  0  0  0  0  0  0  0  0
    8.6544   81.5822    1.9768 C   0  0  0  0  0  0  0  0  0  0  0  0
    8.5706   81.7263    3.3384 N   0  0  0  0  0  0  0  0  0  0  0  0
    7.4203   82.1144    3.9728 C   0  0  0  0  0  0  0  0  0  0  0  0
    7.4986   82.2590    5.8715 Br  0  0  0  0  0  0  0  0  0  0  0  0
    6.2912   82.3902    3.4017 N   0  0  0  0  0  0  0  0  0  0  0  0
    6.2936   82.2661    2.0001 C   0  0  0  0  0  0  0  0  0  0  0  0
    7.4157   81.8823    1.3218 C   0  0  0  0  0  0  0  0  0  0  0  0
    7.1744   81.8057   -0.3400 S   0  0  0  0  0  0  0  0  0  0  0  0
    5.5139   82.2981   -0.1939 C   0  0  0  0  0  0  0  0  0  0  0  0
    4.5745   82.4774   -1.2389 C   0  0  0  0  0  0  0  0  0  0  0  0
    4.9894   82.2119   -2.8933 Cl  0  0  0  0  0  0  0  0  0  0  0  0
    3.2703   82.8802   -0.9413 C   0  0  0  0  0  0  0  0  0  0  0  0
    2.8907   83.1054    0.3713 C   0  0  0  0  0  0  0  0  0  0  0  0
    3.8200   82.9274    1.3969 C   0  0  0  0  0  0  0  0  0  0  0  0
    3.3436   83.2077    3.0185 Cl  0  0  0  0  0  0  0  0  0  0  0  0
    5.1591   82.5193    1.1553 C   0  0  0  0  0  0  0  0  0  0  0  0
    9.3706   81.5432    3.8822 H   0  0  0  0  0  0  0  0  0  0  0  0
  1  2  2  0
  2  3  1  0
  3  4  1  0
  4  5  1  0
  4  6  2  0
  6  7  1  0
  7  8  2  0
  8  9  1  0
  9 10  1  0
 10 11  2  0
 11 12  1  0
 11 13  1  0
 13 14  2  0
 14 15  1  0
 15 16  1  0
 15 17  2  0
  8  2  1  0
 17 10  1  0
 17  7  1  0
  3 18  1  0
M  END
> <minimizedAffinity>
-7.52931

> <CNNscore>
0.5240823030

> <CNNaffinity>
6.6785750389

> <CNN_VS>
3.5001230240

> <CNNaffinity_variance>
0.0876794383

$$$$



 18 20  0  0  0  0  0  0  0  0999 V2000
    8.7132   80.7596    4.4401 O   0  0  0  0  0  0  0  0  0  0  0  0
    8.4507   81.0442    3.2759 C   0  0  0  0  0  0  0  0  0  0  0  0
    9.3902   80.9035    2.2864 N   0  0  0  0  0  0  0  0  0  0  0  0
    9.1370   81.2100    0.9756 C   0  0  0  0  0  0  0  0  0  0  0  0
   10.5684   80.9484   -0.2551 Br  0  0  0  0  0  0  0  0  0  0  0  0
    8.0190   81.6589    0.5004 N   0  0  0  0  0  0  0  0  0  0  0  0
    6.9997   81.8317    1.4549 C   0  0  0  0  0  0  0  0  0  0  0  0
    7.2035   81.5401    2.7740 C   0  0  0  0  0  0  0  0  0  0  0  0
    5.8432   81.8268    3.7191 S   0  0  0  0  0  0  0  0  0  0  0  0
    4.9171   82.3647    2.3501 C   0  0  0  0  0  0  0  0  0  0  0  0
    3.5720   82.8087    2.3422 C   0  0  0  0  0  0  0  0  0  0  0  0
    2.6251   82.8749    3.7839 Cl  0  0  0  0  0  0  0  0  0  0  0  0
    2.9778   83.2086    1.1425 C   0  0  0  0  0  0  0  0  0  0  0  0
    3.6977   83.1730   -0.0398 C   0  0  0  0  0  0  0  0  0  0  0  0
    5.0223   82.7347   -0.0264 C   0  0  0  0  0  0  0  0  0  0  0  0
    5.9071   82.6933   -1.4930 Cl  0  0  0  0  0  0  0  0  0  0  0  0
    5.6791   82.3163    1.1618 C   0  0  0  0  0  0  0  0  0  0  0  0
   10.2836   80.5682    2.5284 H   0  0  0  0  0  0  0  0  0  0  0  0
  1  2  2  0
  2  3  1  0
  3  4  1  0
  4  5  1  0
  4  6  2  0
  6  7  1  0
  7  8  2  0
  8  9  1  0
  9 10  1  0
 10 11  2  0
 11 12  1  0
 11 13  1  0
 13 14  2  0
 14 15  1  0
 15 16  1  0
 15 17  2  0
  8  2  1  0
 17 10  1  0
 17  7  1  0
  3 18  1  0
M  END
> <minimizedAffinity>
-7.31066

> <CNNscore>
0.4789699018

> <CNNaffinity>
6.6622238159

> <CNN_VS>
3.1910047531

> <CNNaffinity_variance>
0.1311792731

$$$$



 18 20  0  0  0  0  0  0  0  0999 V2000
    4.5528   82.1603   -2.7946 O   0  0  0  0  0  0  0  0  0  0  0  0
    5.4677   82.0517   -1.9844 C   0  0  0  0  0  0  0  0  0  0  0  0
    6.7190   81.6551   -2.3828 N   0  0  0  0  0  0  0  0  0  0  0  0
    7.7665   81.5217   -1.5103 C   0  0  0  0  0  0  0  0  0  0  0  0
    9.4298   80.9596   -2.2515 Br  0  0  0  0  0  0  0  0  0  0  0  0
    7.7282   81.7419   -0.2346 N   0  0  0  0  0  0  0  0  0  0  0  0
    6.4753   82.1542    0.2552 C   0  0  0  0  0  0  0  0  0  0  0  0
    5.4004   82.3017   -0.5751 C   0  0  0  0  0  0  0  0  0  0  0  0
    4.0167   82.8018    0.2381 S   0  0  0  0  0  0  0  0  0  0  0  0
    4.8413   82.8356    1.7679 C   0  0  0  0  0  0  0  0  0  0  0  0
    4.3004   83.1866    3.0292 C   0  0  0  0  0  0  0  0  0  0  0  0
    2.6492   83.6540    3.2151 Cl  0  0  0  0  0  0  0  0  0  0  0  0
    5.1114   83.1593    4.1665 C   0  0  0  0  0  0  0  0  0  0  0  0
    6.4425   82.7908    4.0671 C   0  0  0  0  0  0  0  0  0  0  0  0
    6.9703   82.4462    2.8222 C   0  0  0  0  0  0  0  0  0  0  0  0
    8.6179   81.9911    2.7064 Cl  0  0  0  0  0  0  0  0  0  0  0  0
    6.1947   82.4552    1.6320 C   0  0  0  0  0  0  0  0  0  0  0  0
    6.8704   81.4581   -3.3354 H   0  0  0  0  0  0  0  0  0  0  0  0
  1  2  2  0
  2  3  1  0
  3  4  1  0
  4  5  1  0
  4  6  2  0
  6  7  1  0
  7  8  2  0
  8  9  1  0
  9 10  1  0
 10 11  2  0
 11 12  1  0
 11 13  1  0
 13 14  2  0
 14 15  1  0
 15 16  1  0
 15 17  2  0
  8  2  1  0
 17 10  1  0
 17  7  1  0
  3 18  1  0
M  END
> <minimizedAffinity>
-7.52304

> <CNNscore>
0.4442809820

> <CNNaffinity>
6.3799114227

> <CNN_VS>
2.8344733715

> <CNNaffinity_variance>
0.5381567478

$$$$



 18 20  0  0  0  0  0  0  0  0999 V2000
    7.4701   82.6661    5.0027 O   0  0  0  0  0  0  0  0  0  0  0  0
    6.6182   82.7672    4.1256 C   0  0  0  0  0  0  0  0  0  0  0  0
    5.3326   83.1360    4.4304 N   0  0  0  0  0  0  0  0  0  0  0  0
    4.3528   83.2601    3.4812 C   0  0  0  0  0  0  0  0  0  0  0  0
    2.6269   83.7829    4.0977 Br  0  0  0  0  0  0  0  0  0  0  0  0
    4.4932   83.0555    2.2101 N   0  0  0  0  0  0  0  0  0  0  0  0
    5.7879   82.6723    1.8141 C   0  0  0  0  0  0  0  0  0  0  0  0
    6.7984   82.5349    2.7232 C   0  0  0  0  0  0  0  0  0  0  0  0
    8.2499   82.0700    2.0139 S   0  0  0  0  0  0  0  0  0  0  0  0
    7.5461   82.0387    0.4249 C   0  0  0  0  0  0  0  0  0  0  0  0
    8.1890   81.7126   -0.7945 C   0  0  0  0  0  0  0  0  0  0  0  0
    9.8583   81.2779   -0.8573 Cl  0  0  0  0  0  0  0  0  0  0  0  0
    7.4674   81.7380   -1.9906 C   0  0  0  0  0  0  0  0  0  0  0  0
    6.1257   82.0807   -1.9902 C   0  0  0  0  0  0  0  0  0  0  0  0
    5.4973   82.4011   -0.7863 C   0  0  0  0  0  0  0  0  0  0  0  0
    3.8371   82.8242   -0.7931 Cl  0  0  0  0  0  0  0  0  0  0  0  0
    6.1791   82.3925    0.4600 C   0  0  0  0  0  0  0  0  0  0  0  0
    5.1047   83.3191    5.3705 H   0  0  0  0  0  0  0  0  0  0  0  0
  1  2  2  0
  2  3  1  0
  3  4  1  0
  4  5  1  0
  4  6  2  0
  6  7  1  0
  7  8  2  0
  8  9  1  0
  9 10  1  0
 10 11  2  0
 11 12  1  0
 11 13  1  0
 13 14  2  0
 14 15  1  0
 15 16  1  0
 15 17  2  0
  8  2  1  0
 17 10  1  0
 17  7  1  0
  3 18  1  0
M  END
> <minimizedAffinity>
-8.22805

> <CNNscore>
0.4179778397

> <CNNaffinity>
6.3367195129

> <CNN_VS>
2.6486084461

> <CNNaffinity_variance>
0.3373936117

$$$$



 18 20  0  0  0  0  0  0  0  0999 V2000
    9.6631   81.4541    0.8115 O   0  0  0  0  0  0  0  0  0  0  0  0
    8.9351   81.2725    1.7822 C   0  0  0  0  0  0  0  0  0  0  0  0
    9.4141   80.6771    2.9213 N   0  0  0  0  0  0  0  0  0  0  0  0
    8.6345   80.4566    4.0258 C   0  0  0  0  0  0  0  0  0  0  0  0
    9.4784   79.6163    5.5137 Br  0  0  0  0  0  0  0  0  0  0  0  0
    7.3830   80.7660    4.1490 N   0  0  0  0  0  0  0  0  0  0  0  0
    6.8143   81.3832    3.0196 C   0  0  0  0  0  0  0  0  0  0  0  0
    7.5506   81.6245    1.8944 C   0  0  0  0  0  0  0  0  0  0  0  0
    6.6561   82.3689    0.6813 S   0  0  0  0  0  0  0  0  0  0  0  0
    5.2171   82.3896    1.6561 C   0  0  0  0  0  0  0  0  0  0  0  0
    3.9439   82.8980    1.2999 C   0  0  0  0  0  0  0  0  0  0  0  0
    3.6445   83.6054   -0.2458 Cl  0  0  0  0  0  0  0  0  0  0  0  0
    2.8882   82.8337    2.2128 C   0  0  0  0  0  0  0  0  0  0  0  0
    3.0803   82.2750    3.4652 C   0  0  0  0  0  0  0  0  0  0  0  0
    4.3365   81.7757    3.8110 C   0  0  0  0  0  0  0  0  0  0  0  0
    4.5670   81.0858    5.3622 Cl  0  0  0  0  0  0  0  0  0  0  0  0
    5.4465   81.8135    2.9252 C   0  0  0  0  0  0  0  0  0  0  0  0
   10.3575   80.3966    2.9461 H   0  0  0  0  0  0  0  0  0  0  0  0
  1  2  2  0
  2  3  1  0
  3  4  1  0
  4  5  1  0
  4  6  2  0
  6  7  1  0
  7  8  2  0
  8  9  1  0
  9 10  1  0
 10 11  2  0
 11 12  1  0
 11 13  1  0
 13 14  2  0
 14 15  1  0
 15 16  1  0
 15 17  2  0
  8  2  1  0
 17 10  1  0
 17  7  1  0
  3 18  1  0
M  END
> <minimizedAffinity>
-6.74190

> <CNNscore>
0.3941801786

> <CNNaffinity>
6.5133471489

> <CNN_VS>
2.5674324036

> <CNNaffinity_variance>
0.0994109586

$$$$
