


 27 28  0  0  0  0  0  0  0  0999 V2000
  -41.5998  -60.1823  -49.2172 C   0  0  0  0  0  0  0  0  0  0  0  0
  -41.2421  -58.8781  -48.7387 O   0  0  0  0  0  0  0  0  0  0  0  0
  -40.3410  -61.0791  -49.1396 C   0  0  0  0  0  0  0  0  0  0  0  0
  -39.1301  -60.5815  -49.9726 C   0  0  0  0  0  0  0  0  0  0  0  0
  -39.5706  -59.7897  -51.2180 C   0  0  0  0  0  0  0  0  0  0  0  0
  -38.6140  -60.0005  -52.2569 O   0  0  0  0  0  0  0  0  0  0  0  0
  -40.9445  -60.2556  -51.7090 C   0  0  0  0  0  0  0  0  0  0  0  0
  -41.2781  -59.5911  -52.9330 O   0  0  0  0  0  0  0  0  0  0  0  0
  -42.0549  -60.0304  -50.6785 C   0  0  0  0  0  0  0  0  0  0  0  0
  -40.9497  -58.9412  -47.8160 H   0  0  0  0  0  0  0  0  0  0  0  0
  -38.5740  -60.9453  -52.4728 H   0  0  0  0  0  0  0  0  0  0  0  0
  -41.3391  -58.6358  -52.7761 H   0  0  0  0  0  0  0  0  0  0  0  0
  -42.7036  -60.7958  -48.2859 C   0  0  0  0  0  0  0  0  0  0  0  0
  -43.3685  -58.6206  -47.1028 C   0  0  0  0  0  0  0  0  0  0  0  0
  -43.0223  -60.0928  -46.9352 N   0  0  0  0  0  0  0  0  0  0  0  0
  -41.8887  -60.2243  -45.9256 C   0  0  0  0  0  0  0  0  0  0  0  0
  -44.2560  -60.7898  -46.3437 C   0  0  0  0  0  0  0  0  0  0  0  0
  -38.1364  -59.7832  -49.0993 C   0  0  0  0  0  0  0  0  0  0  0  0
  -38.6996  -59.1671  -47.8140 C   0  0  0  0  0  0  0  0  0  0  0  0
  -38.6052  -60.0760  -46.5925 C   0  0  0  0  0  0  0  0  0  0  0  0
  -37.3392  -59.9264  -45.9501 O   0  0  0  0  0  0  0  0  0  0  0  0
  -37.0517  -60.6893  -44.8558 C   0  0  0  0  0  0  0  0  0  0  0  0
  -35.7226  -61.1195  -44.7863 C   0  0  0  0  0  0  0  0  0  0  0  0
  -35.2840  -61.9091  -43.7241 C   0  0  0  0  0  0  0  0  0  0  0  0
  -36.1739  -62.2705  -42.7166 C   0  0  0  0  0  0  0  0  0  0  0  0
  -37.5002  -61.8455  -42.7769 C   0  0  0  0  0  0  0  0  0  0  0  0
  -37.9400  -61.0615  -43.8470 C   0  0  0  0  0  0  0  0  0  0  0  0
 14 15  1  0
 15 16  1  0
 15 17  1  0
 15 13  1  0
 13  1  1  0
  1  2  1  0
  1  3  1  0
  3  4  1  0
  4 18  1  0
 18 19  1  0
 19 20  1  0
 20 21  1  0
 21 22  1  0
 22 23  2  0
 23 24  1  0
 24 25  2  0
 25 26  1  0
 26 27  2  0
  4  5  1  0
  5  6  1  0
  5  7  1  0
  7  8  1  0
  7  9  1  0
  9  1  1  0
 27 22  1  0
  2 10  1  0
  6 11  1  0
  8 12  1  0
M  CHG 1  15   1
M  END
> <minimizedAffinity>
-7.60258

> <CNNscore>
0.3158656359

> <CNNaffinity>
4.3800745010

> <CNN_VS>
1.3835150003

> <CNNaffinity_variance>
0.6581740975

$$$$



 27 28  0  0  0  0  0  0  0  0999 V2000
  -43.3694  -61.5923  -42.1604 C   0  0  0  0  0  0  0  0  0  0  0  0
  -43.0436  -62.2572  -40.9317 O   0  0  0  0  0  0  0  0  0  0  0  0
  -42.1432  -60.7487  -42.5843 C   0  0  0  0  0  0  0  0  0  0  0  0
  -41.7056  -59.6688  -41.5595 C   0  0  0  0  0  0  0  0  0  0  0  0
  -42.8926  -59.1413  -40.7320 C   0  0  0  0  0  0  0  0  0  0  0  0
  -42.6509  -57.7725  -40.4052 O   0  0  0  0  0  0  0  0  0  0  0  0
  -44.2007  -59.2373  -41.5229 C   0  0  0  0  0  0  0  0  0  0  0  0
  -45.2665  -58.6326  -40.7814 O   0  0  0  0  0  0  0  0  0  0  0  0
  -44.5748  -60.6773  -41.8859 C   0  0  0  0  0  0  0  0  0  0  0  0
  -42.2841  -62.8438  -41.0731 H   0  0  0  0  0  0  0  0  0  0  0  0
  -42.5710  -57.2544  -41.2213 H   0  0  0  0  0  0  0  0  0  0  0  0
  -45.3979  -59.1165  -39.9511 H   0  0  0  0  0  0  0  0  0  0  0  0
  -43.6451  -62.6611  -43.2757 C   0  0  0  0  0  0  0  0  0  0  0  0
  -42.5852  -64.2090  -45.0233 C   0  0  0  0  0  0  0  0  0  0  0  0
  -42.6325  -62.8010  -44.4485 N   0  0  0  0  0  0  0  0  0  0  0  0
  -41.2223  -62.3768  -44.0574 C   0  0  0  0  0  0  0  0  0  0  0  0
  -43.1070  -61.8638  -45.5685 C   0  0  0  0  0  0  0  0  0  0  0  0
  -40.5542  -60.1774  -40.6633 C   0  0  0  0  0  0  0  0  0  0  0  0
  -39.1318  -59.9607  -41.1911 C   0  0  0  0  0  0  0  0  0  0  0  0
  -38.2313  -61.1870  -41.0803 C   0  0  0  0  0  0  0  0  0  0  0  0
  -38.2448  -61.9332  -42.2973 O   0  0  0  0  0  0  0  0  0  0  0  0
  -37.4720  -61.5189  -43.3429 C   0  0  0  0  0  0  0  0  0  0  0  0
  -36.1311  -61.9073  -43.2577 C   0  0  0  0  0  0  0  0  0  0  0  0
  -35.2221  -61.5534  -44.2542 C   0  0  0  0  0  0  0  0  0  0  0  0
  -35.6512  -60.8106  -45.3503 C   0  0  0  0  0  0  0  0  0  0  0  0
  -36.9861  -60.4199  -45.4443 C   0  0  0  0  0  0  0  0  0  0  0  0
  -37.8935  -60.7680  -44.4401 C   0  0  0  0  0  0  0  0  0  0  0  0
 14 15  1  0
 15 16  1  0
 15 17  1  0
 15 13  1  0
 13  1  1  0
  1  2  1  0
  1  3  1  0
  3  4  1  0
  4 18  1  0
 18 19  1  0
 19 20  1  0
 20 21  1  0
 21 22  1  0
 22 23  2  0
 23 24  1  0
 24 25  2  0
 25 26  1  0
 26 27  2  0
  4  5  1  0
  5  6  1  0
  5  7  1  0
  7  8  1  0
  7  9  1  0
  9  1  1  0
 27 22  1  0
  2 10  1  0
  6 11  1  0
  8 12  1  0
M  CHG 1  15   1
M  END
> <minimizedAffinity>
-5.68146

> <CNNscore>
0.2637860477

> <CNNaffinity>
3.4681227207

> <CNN_VS>
0.9148423672

> <CNNaffinity_variance>
1.2289274931

$$$$



 27 28  0  0  0  0  0  0  0  0999 V2000
  -31.4256  -70.9659  -51.3679 C   0  0  0  0  0  0  0  0  0  0  0  0
  -31.0379  -70.6510  -52.7127 O   0  0  0  0  0  0  0  0  0  0  0  0
  -32.9522  -71.2195  -51.3602 C   0  0  0  0  0  0  0  0  0  0  0  0
  -33.8171  -70.0229  -51.8377 C   0  0  0  0  0  0  0  0  0  0  0  0
  -33.1488  -68.6686  -51.5356 C   0  0  0  0  0  0  0  0  0  0  0  0
  -34.1681  -67.7010  -51.2832 O   0  0  0  0  0  0  0  0  0  0  0  0
  -32.2425  -68.7646  -50.3046 C   0  0  0  0  0  0  0  0  0  0  0  0
  -31.7281  -67.4697  -49.9733 O   0  0  0  0  0  0  0  0  0  0  0  0
  -31.0844  -69.7493  -50.4910 C   0  0  0  0  0  0  0  0  0  0  0  0
  -31.2412  -71.4020  -53.2921 H   0  0  0  0  0  0  0  0  0  0  0  0
  -34.6951  -67.9786  -50.5177 H   0  0  0  0  0  0  0  0  0  0  0  0
  -31.1829  -67.1413  -50.7053 H   0  0  0  0  0  0  0  0  0  0  0  0
  -30.7025  -72.2811  -50.9101 C   0  0  0  0  0  0  0  0  0  0  0  0
  -28.4010  -71.2355  -51.3381 C   0  0  0  0  0  0  0  0  0  0  0  0
  -29.2255  -72.5143  -51.3394 N   0  0  0  0  0  0  0  0  0  0  0  0
  -29.1114  -73.1772  -52.7065 C   0  0  0  0  0  0  0  0  0  0  0  0
  -28.6003  -73.4643  -50.3076 C   0  0  0  0  0  0  0  0  0  0  0  0
  -34.1964  -70.1626  -53.3291 C   0  0  0  0  0  0  0  0  0  0  0  0
  -35.6471  -69.8336  -53.6981 C   0  0  0  0  0  0  0  0  0  0  0  0
  -36.6337  -69.9817  -52.5441 C   0  0  0  0  0  0  0  0  0  0  0  0
  -37.9739  -70.0431  -53.0321 O   0  0  0  0  0  0  0  0  0  0  0  0
  -38.9902  -70.3070  -52.1606 C   0  0  0  0  0  0  0  0  0  0  0  0
  -38.9200  -69.5926  -50.9602 C   0  0  0  0  0  0  0  0  0  0  0  0
  -39.8900  -69.7616  -49.9728 C   0  0  0  0  0  0  0  0  0  0  0  0
  -40.9445  -70.6455  -50.1825 C   0  0  0  0  0  0  0  0  0  0  0  0
  -41.0233  -71.3611  -51.3763 C   0  0  0  0  0  0  0  0  0  0  0  0
  -40.0453  -71.1969  -52.3610 C   0  0  0  0  0  0  0  0  0  0  0  0
 14 15  1  0
 15 16  1  0
 15 17  1  0
 15 13  1  0
 13  1  1  0
  1  2  1  0
  1  3  1  0
  3  4  1  0
  4 18  1  0
 18 19  1  0
 19 20  1  0
 20 21  1  0
 21 22  1  0
 22 23  2  0
 23 24  1  0
 24 25  2  0
 25 26  1  0
 26 27  2  0
  4  5  1  0
  5  6  1  0
  5  7  1  0
  7  8  1  0
  7  9  1  0
  9  1  1  0
 27 22  1  0
  2 10  1  0
  6 11  1  0
  8 12  1  0
M  CHG 1  15   1
M  END
> <minimizedAffinity>
-4.92502

> <CNNscore>
0.2599204779

> <CNNaffinity>
3.5641326904

> <CNN_VS>
0.9263910651

> <CNNaffinity_variance>
0.6430827975

$$$$



 27 28  0  0  0  0  0  0  0  0999 V2000
  -44.7996  -59.6611  -41.2141 C   0  0  0  0  0  0  0  0  0  0  0  0
  -43.8370  -59.1564  -42.1504 O   0  0  0  0  0  0  0  0  0  0  0  0
  -44.0314  -60.1753  -39.9730 C   0  0  0  0  0  0  0  0  0  0  0  0
  -43.0068  -61.3051  -40.2588 C   0  0  0  0  0  0  0  0  0  0  0  0
  -43.4258  -62.1768  -41.4574 C   0  0  0  0  0  0  0  0  0  0  0  0
  -42.9615  -63.5094  -41.2393 O   0  0  0  0  0  0  0  0  0  0  0  0
  -44.9493  -62.2032  -41.6129 C   0  0  0  0  0  0  0  0  0  0  0  0
  -45.3192  -63.1124  -42.6558 O   0  0  0  0  0  0  0  0  0  0  0  0
  -45.5448  -60.8209  -41.8961 C   0  0  0  0  0  0  0  0  0  0  0  0
  -43.3490  -58.4211  -41.7478 H   0  0  0  0  0  0  0  0  0  0  0  0
  -43.3607  -63.8622  -40.4287 H   0  0  0  0  0  0  0  0  0  0  0  0
  -44.9507  -62.8048  -43.4988 H   0  0  0  0  0  0  0  0  0  0  0  0
  -45.7489  -58.4964  -40.7619 C   0  0  0  0  0  0  0  0  0  0  0  0
  -47.1797  -56.4642  -41.3913 C   0  0  0  0  0  0  0  0  0  0  0  0
  -45.9201  -57.2625  -41.6938 N   0  0  0  0  0  0  0  0  0  0  0  0
  -45.9136  -57.6391  -43.1701 C   0  0  0  0  0  0  0  0  0  0  0  0
  -44.7198  -56.3380  -41.4437 C   0  0  0  0  0  0  0  0  0  0  0  0
  -41.5780  -60.7406  -40.4234 C   0  0  0  0  0  0  0  0  0  0  0  0
  -40.6603  -61.4807  -41.4027 C   0  0  0  0  0  0  0  0  0  0  0  0
  -39.6247  -60.5903  -42.0822 C   0  0  0  0  0  0  0  0  0  0  0  0
  -39.3196  -61.0792  -43.3883 O   0  0  0  0  0  0  0  0  0  0  0  0
  -38.0165  -61.1496  -43.7871 C   0  0  0  0  0  0  0  0  0  0  0  0
  -37.7504  -60.5099  -45.0021 C   0  0  0  0  0  0  0  0  0  0  0  0
  -36.4622  -60.5017  -45.5357 C   0  0  0  0  0  0  0  0  0  0  0  0
  -35.4257  -61.1308  -44.8521 C   0  0  0  0  0  0  0  0  0  0  0  0
  -35.6813  -61.7700  -43.6399 C   0  0  0  0  0  0  0  0  0  0  0  0
  -36.9749  -61.7847  -43.1112 C   0  0  0  0  0  0  0  0  0  0  0  0
 14 15  1  0
 15 16  1  0
 15 17  1  0
 15 13  1  0
 13  1  1  0
  1  2  1  0
  1  3  1  0
  3  4  1  0
  4 18  1  0
 18 19  1  0
 19 20  1  0
 20 21  1  0
 21 22  1  0
 22 23  2  0
 23 24  1  0
 24 25  2  0
 25 26  1  0
 26 27  2  0
  4  5  1  0
  5  6  1  0
  5  7  1  0
  7  8  1  0
  7  9  1  0
  9  1  1  0
 27 22  1  0
  2 10  1  0
  6 11  1  0
  8 12  1  0
M  CHG 1  15   1
M  END
> <minimizedAffinity>
-4.53337

> <CNNscore>
0.2280708700

> <CNNaffinity>
3.3051517010

> <CNN_VS>
0.7538087964

> <CNNaffinity_variance>
1.0292630196

$$$$



 27 28  0  0  0  0  0  0  0  0999 V2000
  -45.4475  -59.9652  -42.9242 C   0  0  0  0  0  0  0  0  0  0  0  0
  -45.3121  -59.1186  -44.0743 O   0  0  0  0  0  0  0  0  0  0  0  0
  -44.1756  -60.8413  -42.8262 C   0  0  0  0  0  0  0  0  0  0  0  0
  -43.9088  -61.7482  -44.0568 C   0  0  0  0  0  0  0  0  0  0  0  0
  -45.2130  -62.1666  -44.7610 C   0  0  0  0  0  0  0  0  0  0  0  0
  -45.0333  -63.4668  -45.3232 O   0  0  0  0  0  0  0  0  0  0  0  0
  -46.3820  -62.2126  -43.7725 C   0  0  0  0  0  0  0  0  0  0  0  0
  -47.5536  -62.7181  -44.4230 O   0  0  0  0  0  0  0  0  0  0  0  0
  -46.6865  -60.8497  -43.1438 C   0  0  0  0  0  0  0  0  0  0  0  0
  -44.5363  -58.5467  -43.9652 H   0  0  0  0  0  0  0  0  0  0  0  0
  -44.8310  -64.0996  -44.6164 H   0  0  0  0  0  0  0  0  0  0  0  0
  -47.8092  -62.1179  -45.1409 H   0  0  0  0  0  0  0  0  0  0  0  0
  -45.5402  -59.0800  -41.6319 C   0  0  0  0  0  0  0  0  0  0  0  0
  -45.0067  -56.8583  -42.7950 C   0  0  0  0  0  0  0  0  0  0  0  0
  -45.8873  -57.5707  -41.7789 N   0  0  0  0  0  0  0  0  0  0  0  0
  -45.8199  -56.8231  -40.4530 C   0  0  0  0  0  0  0  0  0  0  0  0
  -47.3339  -57.4877  -42.2873 C   0  0  0  0  0  0  0  0  0  0  0  0
  -42.9073  -61.0916  -45.0331 C   0  0  0  0  0  0  0  0  0  0  0  0
  -41.5908  -60.5929  -44.4274 C   0  0  0  0  0  0  0  0  0  0  0  0
  -40.3526  -61.3234  -44.9376 C   0  0  0  0  0  0  0  0  0  0  0  0
  -39.3027  -60.3982  -45.2201 O   0  0  0  0  0  0  0  0  0  0  0  0
  -38.0217  -60.7160  -44.8735 C   0  0  0  0  0  0  0  0  0  0  0  0
  -37.9056  -61.3935  -43.6555 C   0  0  0  0  0  0  0  0  0  0  0  0
  -36.6563  -61.7806  -43.1718 C   0  0  0  0  0  0  0  0  0  0  0  0
  -35.5103  -61.4968  -43.9091 C   0  0  0  0  0  0  0  0  0  0  0  0
  -35.6165  -60.8228  -45.1248 C   0  0  0  0  0  0  0  0  0  0  0  0
  -36.8687  -60.4279  -45.6035 C   0  0  0  0  0  0  0  0  0  0  0  0
 14 15  1  0
 15 16  1  0
 15 17  1  0
 15 13  1  0
 13  1  1  0
  1  2  1  0
  1  3  1  0
  3  4  1  0
  4 18  1  0
 18 19  1  0
 19 20  1  0
 20 21  1  0
 21 22  1  0
 22 23  2  0
 23 24  1  0
 24 25  2  0
 25 26  1  0
 26 27  2  0
  4  5  1  0
  5  6  1  0
  5  7  1  0
  7  8  1  0
  7  9  1  0
  9  1  1  0
 27 22  1  0
  2 10  1  0
  6 11  1  0
  8 12  1  0
M  CHG 1  15   1
M  END
> <minimizedAffinity>
-4.65993

> <CNNscore>
0.2251825780

> <CNNaffinity>
3.2563934326

> <CNN_VS>
0.7332830429

> <CNNaffinity_variance>
1.1649594307

$$$$



 27 28  0  0  0  0  0  0  0  0999 V2000
  -44.2484  -61.2270  -45.1389 C   0  0  0  0  0  0  0  0  0  0  0  0
  -45.3180  -61.8913  -45.8263 O   0  0  0  0  0  0  0  0  0  0  0  0
  -44.5292  -59.7057  -45.1799 C   0  0  0  0  0  0  0  0  0  0  0  0
  -44.6317  -59.0968  -46.6034 C   0  0  0  0  0  0  0  0  0  0  0  0
  -43.7644  -59.8589  -47.6227 C   0  0  0  0  0  0  0  0  0  0  0  0
  -43.3008  -58.9371  -48.6098 O   0  0  0  0  0  0  0  0  0  0  0  0
  -42.5538  -60.5044  -46.9417 C   0  0  0  0  0  0  0  0  0  0  0  0
  -41.7013  -61.1037  -47.9242 O   0  0  0  0  0  0  0  0  0  0  0  0
  -42.9455  -61.5474  -45.8908 C   0  0  0  0  0  0  0  0  0  0  0  0
  -46.1563  -61.7077  -45.3741 H   0  0  0  0  0  0  0  0  0  0  0  0
  -42.7674  -58.2481  -48.1835 H   0  0  0  0  0  0  0  0  0  0  0  0
  -42.1827  -61.8105  -48.3821 H   0  0  0  0  0  0  0  0  0  0  0  0
  -44.2262  -61.6867  -43.6388 C   0  0  0  0  0  0  0  0  0  0  0  0
  -43.5929  -61.3494  -41.1774 C   0  0  0  0  0  0  0  0  0  0  0  0
  -43.4852  -60.8040  -42.5938 N   0  0  0  0  0  0  0  0  0  0  0  0
  -43.9628  -59.3572  -42.6063 C   0  0  0  0  0  0  0  0  0  0  0  0
  -41.9976  -60.8066  -42.9745 C   0  0  0  0  0  0  0  0  0  0  0  0
  -46.1027  -58.9844  -47.0628 C   0  0  0  0  0  0  0  0  0  0  0  0
  -46.4619  -59.6820  -48.3792 C   0  0  0  0  0  0  0  0  0  0  0  0
  -46.6909  -58.7293  -49.5483 C   0  0  0  0  0  0  0  0  0  0  0  0
  -47.8479  -57.9241  -49.3225 O   0  0  0  0  0  0  0  0  0  0  0  0
  -49.0680  -58.3796  -49.7300 C   0  0  0  0  0  0  0  0  0  0  0  0
  -49.2613  -58.3493  -51.1148 C   0  0  0  0  0  0  0  0  0  0  0  0
  -50.4619  -58.7827  -51.6763 C   0  0  0  0  0  0  0  0  0  0  0  0
  -51.4794  -59.2569  -50.8534 C   0  0  0  0  0  0  0  0  0  0  0  0
  -51.2954  -59.2918  -49.4720 C   0  0  0  0  0  0  0  0  0  0  0  0
  -50.0947  -58.8486  -48.9107 C   0  0  0  0  0  0  0  0  0  0  0  0
 14 15  1  0
 15 16  1  0
 15 17  1  0
 15 13  1  0
 13  1  1  0
  1  2  1  0
  1  3  1  0
  3  4  1  0
  4 18  1  0
 18 19  1  0
 19 20  1  0
 20 21  1  0
 21 22  1  0
 22 23  2  0
 23 24  1  0
 24 25  2  0
 25 26  1  0
 26 27  2  0
  4  5  1  0
  5  6  1  0
  5  7  1  0
  7  8  1  0
  7  9  1  0
  9  1  1  0
 27 22  1  0
  2 10  1  0
  6 11  1  0
  8 12  1  0
M  CHG 1  15   1
M  END
> <minimizedAffinity>
-4.22415

> <CNNscore>
0.2183659971

> <CNNaffinity>
3.6981887817

> <CNN_VS>
0.8075586557

> <CNNaffinity_variance>
0.2145163268

$$$$



 27 28  0  0  0  0  0  0  0  0999 V2000
  -36.4505  -70.8851  -51.4856 C   0  0  0  0  0  0  0  0  0  0  0  0
  -36.5376  -72.2783  -51.8162 O   0  0  0  0  0  0  0  0  0  0  0  0
  -36.9880  -70.7034  -50.0459 C   0  0  0  0  0  0  0  0  0  0  0  0
  -38.4582  -71.1523  -49.8343 C   0  0  0  0  0  0  0  0  0  0  0  0
  -39.3008  -70.9964  -51.1141 C   0  0  0  0  0  0  0  0  0  0  0  0
  -40.6456  -70.6918  -50.7429 O   0  0  0  0  0  0  0  0  0  0  0  0
  -38.7620  -69.8639  -51.9933 C   0  0  0  0  0  0  0  0  0  0  0  0
  -39.6294  -69.6597  -53.1145 O   0  0  0  0  0  0  0  0  0  0  0  0
  -37.3332  -70.1166  -52.4835 C   0  0  0  0  0  0  0  0  0  0  0  0
  -35.9893  -72.7912  -51.2020 H   0  0  0  0  0  0  0  0  0  0  0  0
  -40.6626  -69.8612  -50.2422 H   0  0  0  0  0  0  0  0  0  0  0  0
  -39.6472  -70.4617  -53.6598 H   0  0  0  0  0  0  0  0  0  0  0  0
  -34.9477  -70.4344  -51.5141 C   0  0  0  0  0  0  0  0  0  0  0  0
  -33.7746  -71.6524  -53.4412 C   0  0  0  0  0  0  0  0  0  0  0  0
  -34.2271  -70.3095  -52.8872 N   0  0  0  0  0  0  0  0  0  0  0  0
  -33.0324  -69.3652  -52.8371 C   0  0  0  0  0  0  0  0  0  0  0  0
  -35.2429  -69.7231  -53.8783 C   0  0  0  0  0  0  0  0  0  0  0  0
  -38.5321  -72.5858  -49.2623 C   0  0  0  0  0  0  0  0  0  0  0  0
  -39.1964  -72.7394  -47.8897 C   0  0  0  0  0  0  0  0  0  0  0  0
  -40.6965  -73.0099  -47.9490 C   0  0  0  0  0  0  0  0  0  0  0  0
  -41.4142  -71.8080  -48.2287 O   0  0  0  0  0  0  0  0  0  0  0  0
  -41.7609  -70.9825  -47.1989 C   0  0  0  0  0  0  0  0  0  0  0  0
  -41.8985  -69.6381  -47.5593 C   0  0  0  0  0  0  0  0  0  0  0  0
  -42.2474  -68.6781  -46.6100 C   0  0  0  0  0  0  0  0  0  0  0  0
  -42.4678  -69.0587  -45.2894 C   0  0  0  0  0  0  0  0  0  0  0  0
  -42.3340  -70.3966  -44.9211 C   0  0  0  0  0  0  0  0  0  0  0  0
  -41.9756  -71.3558  -45.8723 C   0  0  0  0  0  0  0  0  0  0  0  0
 14 15  1  0
 15 16  1  0
 15 17  1  0
 15 13  1  0
 13  1  1  0
  1  2  1  0
  1  3  1  0
  3  4  1  0
  4 18  1  0
 18 19  1  0
 19 20  1  0
 20 21  1  0
 21 22  1  0
 22 23  2  0
 23 24  1  0
 24 25  2  0
 25 26  1  0
 26 27  2  0
  4  5  1  0
  5  6  1  0
  5  7  1  0
  7  8  1  0
  7  9  1  0
  9  1  1  0
 27 22  1  0
  2 10  1  0
  6 11  1  0
  8 12  1  0
M  CHG 1  15   1
M  END
> <minimizedAffinity>
-4.54028

> <CNNscore>
0.2152140439

> <CNNaffinity>
3.5263302326

> <CNN_VS>
0.7589157820

> <CNNaffinity_variance>
0.4496900141

$$$$



 27 28  0  0  0  0  0  0  0  0999 V2000
  -44.2189  -63.7090  -43.8034 C   0  0  0  0  0  0  0  0  0  0  0  0
  -43.0363  -63.8899  -43.0117 O   0  0  0  0  0  0  0  0  0  0  0  0
  -43.7989  -63.0604  -45.1442 C   0  0  0  0  0  0  0  0  0  0  0  0
  -43.0974  -61.6824  -45.0137 C   0  0  0  0  0  0  0  0  0  0  0  0
  -43.5738  -60.9058  -43.7720 C   0  0  0  0  0  0  0  0  0  0  0  0
  -43.5299  -59.5081  -44.0611 O   0  0  0  0  0  0  0  0  0  0  0  0
  -45.0094  -61.2890  -43.4004 C   0  0  0  0  0  0  0  0  0  0  0  0
  -45.4706  -60.4697  -42.3200 O   0  0  0  0  0  0  0  0  0  0  0  0
  -45.1555  -62.7673  -43.0278 C   0  0  0  0  0  0  0  0  0  0  0  0
  -42.4237  -64.4814  -43.4761 H   0  0  0  0  0  0  0  0  0  0  0  0
  -44.1173  -59.3139  -44.8082 H   0  0  0  0  0  0  0  0  0  0  0  0
  -44.9204  -60.6274  -41.5368 H   0  0  0  0  0  0  0  0  0  0  0  0
  -44.8618  -65.1073  -44.1092 C   0  0  0  0  0  0  0  0  0  0  0  0
  -44.4967  -67.5277  -44.8719 C   0  0  0  0  0  0  0  0  0  0  0  0
  -43.9692  -66.3787  -44.0252 N   0  0  0  0  0  0  0  0  0  0  0  0
  -43.7763  -66.8645  -42.5940 C   0  0  0  0  0  0  0  0  0  0  0  0
  -42.5881  -65.9978  -44.5779 C   0  0  0  0  0  0  0  0  0  0  0  0
  -41.5596  -61.8281  -45.0521 C   0  0  0  0  0  0  0  0  0  0  0  0
  -40.8656  -62.0941  -43.7118 C   0  0  0  0  0  0  0  0  0  0  0  0
  -39.9565  -60.9620  -43.2440 C   0  0  0  0  0  0  0  0  0  0  0  0
  -39.1478  -60.4880  -44.3207 O   0  0  0  0  0  0  0  0  0  0  0  0
  -37.8284  -60.8334  -44.3667 C   0  0  0  0  0  0  0  0  0  0  0  0
  -37.3823  -61.5541  -43.2542 C   0  0  0  0  0  0  0  0  0  0  0  0
  -36.0555  -61.9731  -43.1619 C   0  0  0  0  0  0  0  0  0  0  0  0
  -35.1635  -61.6780  -44.1889 C   0  0  0  0  0  0  0  0  0  0  0  0
  -35.5994  -60.9611  -45.3022 C   0  0  0  0  0  0  0  0  0  0  0  0
  -36.9274  -60.5344  -45.3886 C   0  0  0  0  0  0  0  0  0  0  0  0
 14 15  1  0
 15 16  1  0
 15 17  1  0
 15 13  1  0
 13  1  1  0
  1  2  1  0
  1  3  1  0
  3  4  1  0
  4 18  1  0
 18 19  1  0
 19 20  1  0
 20 21  1  0
 21 22  1  0
 22 23  2  0
 23 24  1  0
 24 25  2  0
 25 26  1  0
 26 27  2  0
  4  5  1  0
  5  6  1  0
  5  7  1  0
  7  8  1  0
  7  9  1  0
  9  1  1  0
 27 22  1  0
  2 10  1  0
  6 11  1  0
  8 12  1  0
M  CHG 1  15   1
M  END
> <minimizedAffinity>
-5.49886

> <CNNscore>
0.1921551526

> <CNNaffinity>
3.2970988750

> <CNN_VS>
0.6335545182

> <CNNaffinity_variance>
1.1828624010

$$$$



 27 28  0  0  0  0  0  0  0  0999 V2000
  -43.4540  -60.8116  -44.8770 C   0  0  0  0  0  0  0  0  0  0  0  0
  -42.8109  -59.6341  -44.3692 O   0  0  0  0  0  0  0  0  0  0  0  0
  -42.4437  -61.5502  -45.7873 C   0  0  0  0  0  0  0  0  0  0  0  0
  -41.9308  -60.7273  -46.9988 C   0  0  0  0  0  0  0  0  0  0  0  0
  -42.9754  -59.7078  -47.4900 C   0  0  0  0  0  0  0  0  0  0  0  0
  -42.8283  -59.5447  -48.9009 O   0  0  0  0  0  0  0  0  0  0  0  0
  -44.3982  -60.1915  -47.1938 C   0  0  0  0  0  0  0  0  0  0  0  0
  -45.3512  -59.2875  -47.7645 O   0  0  0  0  0  0  0  0  0  0  0  0
  -44.6734  -60.3562  -45.6962 C   0  0  0  0  0  0  0  0  0  0  0  0
  -42.0350  -59.8896  -43.8461 H   0  0  0  0  0  0  0  0  0  0  0  0
  -42.9760  -60.3960  -49.3419 H   0  0  0  0  0  0  0  0  0  0  0  0
  -45.2546  -58.4141  -47.3539 H   0  0  0  0  0  0  0  0  0  0  0  0
  -43.8292  -61.7580  -43.6830 C   0  0  0  0  0  0  0  0  0  0  0  0
  -42.8013  -63.8822  -44.6853 C   0  0  0  0  0  0  0  0  0  0  0  0
  -43.9930  -63.2810  -43.9548 N   0  0  0  0  0  0  0  0  0  0  0  0
  -45.2646  -63.6035  -44.7299 C   0  0  0  0  0  0  0  0  0  0  0  0
  -44.0916  -63.9753  -42.5887 C   0  0  0  0  0  0  0  0  0  0  0  0
  -40.5706  -60.0618  -46.6915 C   0  0  0  0  0  0  0  0  0  0  0  0
  -39.5616  -60.0074  -47.8438 C   0  0  0  0  0  0  0  0  0  0  0  0
  -38.1114  -60.2040  -47.4134 C   0  0  0  0  0  0  0  0  0  0  0  0
  -37.8956  -59.6649  -46.1092 O   0  0  0  0  0  0  0  0  0  0  0  0
  -37.3173  -60.4461  -45.1514 C   0  0  0  0  0  0  0  0  0  0  0  0
  -35.9585  -60.7032  -45.3607 C   0  0  0  0  0  0  0  0  0  0  0  0
  -35.2358  -61.4895  -44.4640 C   0  0  0  0  0  0  0  0  0  0  0  0
  -35.8684  -62.0212  -43.3439 C   0  0  0  0  0  0  0  0  0  0  0  0
  -37.2222  -61.7693  -43.1266 C   0  0  0  0  0  0  0  0  0  0  0  0
  -37.9468  -60.9884  -44.0312 C   0  0  0  0  0  0  0  0  0  0  0  0
 14 15  1  0
 15 16  1  0
 15 17  1  0
 15 13  1  0
 13  1  1  0
  1  2  1  0
  1  3  1  0
  3  4  1  0
  4 18  1  0
 18 19  1  0
 19 20  1  0
 20 21  1  0
 21 22  1  0
 22 23  2  0
 23 24  1  0
 24 25  2  0
 25 26  1  0
 26 27  2  0
  4  5  1  0
  5  6  1  0
  5  7  1  0
  7  8  1  0
  7  9  1  0
  9  1  1  0
 27 22  1  0
  2 10  1  0
  6 11  1  0
  8 12  1  0
M  CHG 1  15   1
M  END
> <minimizedAffinity>
-6.79599

> <CNNscore>
0.1889368594

> <CNNaffinity>
3.4750137329

> <CNN_VS>
0.6565581560

> <CNNaffinity_variance>
1.2430672646

$$$$
