


 26 27  0  0  0  0  0  0  0  0999 V2000
    3.0956    5.0422    7.1847 N   0  0  0  0  0  0  0  0  0  0  0  0
    3.5562    5.9125    8.0035 C   0  0  0  0  0  0  0  0  0  0  0  0
    4.6128    6.7306    7.7224 O   0  0  0  0  0  0  0  0  0  0  0  0
    5.1199    7.2219    8.9777 C   0  0  0  0  0  0  0  0  0  0  0  0
    3.9365    7.1334    9.9254 C   0  0  0  0  0  0  0  0  0  0  0  0
    4.2941    6.7678   11.3595 C   0  0  0  0  0  0  0  0  0  0  0  0
    5.0550    7.8203   11.9647 O   0  0  0  0  0  0  0  0  0  0  0  0
    2.9814    6.5712   12.1362 C   0  0  0  0  0  0  0  0  0  0  0  0
    2.0045    5.5996   11.4204 C   0  0  0  0  0  0  0  0  0  0  0  0
    0.7461    6.2859   11.2356 O   0  0  0  0  0  0  0  0  0  0  0  0
    2.5264    5.0703   10.0591 C   0  0  0  0  0  0  0  0  0  0  0  0
    3.5096    4.0735   10.2672 O   0  0  0  0  0  0  0  0  0  0  0  0
    3.1069    6.1362    9.2740 N   0  0  0  0  0  0  0  0  0  0  0  0
    4.5354    8.6394   11.9589 H   0  0  0  0  0  0  0  0  0  0  0  0
    0.8812    7.0623   10.6700 H   0  0  0  0  0  0  0  0  0  0  0  0
    4.2610    4.4558   10.7469 H   0  0  0  0  0  0  0  0  0  0  0  0
    3.3357    6.1255   13.4630 O   0  0  0  0  0  0  0  0  0  0  0  0
    2.9655    4.7712   13.7030 C   0  0  0  0  0  0  0  0  0  0  0  0
    3.7231    4.9468    5.8662 C   0  0  0  0  0  0  0  0  0  0  0  0
    2.9275    5.7913    4.8726 C   0  0  0  0  0  0  0  0  0  0  0  0
    3.8278    6.3492    3.7699 C   0  0  0  0  0  0  0  0  0  0  0  0
    5.1731    5.6253    3.6594 C   0  0  0  0  0  0  0  0  0  0  0  0
    6.3996    6.5265    3.5057 C   0  0  0  0  0  0  0  0  0  0  0  0
    7.3037    6.2556    2.2978 C   0  0  0  0  0  0  0  0  0  0  0  0
    7.5102    7.7586    0.2390 C   0  0  0  0  0  0  0  0  0  0  0  0
    7.9384    7.5040    1.6763 C   0  0  0  0  0  0  0  0  0  0  0  0
 25 26  1  0
 26 24  1  0
 24 23  1  0
 23 22  1  0
 22 21  1  0
 21 20  1  0
 20 19  1  0
 19  1  1  0
  1  2  2  0
  2  3  1  0
  3  4  1  0
  5  4  1  0
  5  6  1  0
  6  7  1  0
  6  8  1  0
  8 17  1  0
 17 18  1  0
  8  9  1  0
  9 10  1  0
  9 11  1  0
 11 12  1  0
 11 13  1  0
 13  2  1  0
 13  5  1  0
  7 14  1  0
 10 15  1  0
 12 16  1  0
M  END
> <minimizedAffinity>
-7.12642

> <CNNscore>
0.3871460855

> <CNNaffinity>
5.1918168068

> <CNN_VS>
2.0099916458

> <CNNaffinity_variance>
0.0799092948

$$$$



 26 27  0  0  0  0  0  0  0  0999 V2000
    5.1353    5.6902    7.6480 N   0  0  0  0  0  0  0  0  0  0  0  0
    4.5555    5.3076    6.5722 C   0  0  0  0  0  0  0  0  0  0  0  0
    3.2112    5.4163    6.3578 O   0  0  0  0  0  0  0  0  0  0  0  0
    2.8722    4.5061    5.2943 C   0  0  0  0  0  0  0  0  0  0  0  0
    4.1646    4.3345    4.5157 C   0  0  0  0  0  0  0  0  0  0  0  0
    4.3844    2.9405    3.9442 C   0  0  0  0  0  0  0  0  0  0  0  0
    3.4113    2.6611    2.9302 O   0  0  0  0  0  0  0  0  0  0  0  0
    5.7932    2.9011    3.3288 C   0  0  0  0  0  0  0  0  0  0  0  0
    6.8869    3.4035    4.3095 C   0  0  0  0  0  0  0  0  0  0  0  0
    7.6095    4.4753    3.6631 O   0  0  0  0  0  0  0  0  0  0  0  0
    6.3349    3.8836    5.6772 C   0  0  0  0  0  0  0  0  0  0  0  0
    5.9938    2.7715    6.4837 O   0  0  0  0  0  0  0  0  0  0  0  0
    5.1599    4.7076    5.5042 N   0  0  0  0  0  0  0  0  0  0  0  0
    3.4863    3.3179    2.2203 H   0  0  0  0  0  0  0  0  0  0  0  0
    7.0017    5.2075    3.4748 H   0  0  0  0  0  0  0  0  0  0  0  0
    5.2989    2.2556    6.0457 H   0  0  0  0  0  0  0  0  0  0  0  0
    6.0247    1.5469    2.8846 O   0  0  0  0  0  0  0  0  0  0  0  0
    6.9137    0.8344    3.7395 C   0  0  0  0  0  0  0  0  0  0  0  0
    4.3083    6.3042    8.6874 C   0  0  0  0  0  0  0  0  0  0  0  0
    3.8573    5.2243    9.6691 C   0  0  0  0  0  0  0  0  0  0  0  0
    2.4028    5.4300   10.0935 C   0  0  0  0  0  0  0  0  0  0  0  0
    2.0410    6.8993   10.3305 C   0  0  0  0  0  0  0  0  0  0  0  0
    0.7041    7.1475   11.0315 C   0  0  0  0  0  0  0  0  0  0  0  0
    0.5265    6.5129   12.4156 C   0  0  0  0  0  0  0  0  0  0  0  0
    1.8837    5.5313   14.3480 C   0  0  0  0  0  0  0  0  0  0  0  0
    1.7259    6.6732   13.3555 C   0  0  0  0  0  0  0  0  0  0  0  0
 25 26  1  0
 26 24  1  0
 24 23  1  0
 23 22  1  0
 22 21  1  0
 21 20  1  0
 20 19  1  0
 19  1  1  0
  1  2  2  0
  2  3  1  0
  3  4  1  0
  5  4  1  0
  5  6  1  0
  6  7  1  0
  6  8  1  0
  8 17  1  0
 17 18  1  0
  8  9  1  0
  9 10  1  0
  9 11  1  0
 11 12  1  0
 11 13  1  0
 13  2  1  0
 13  5  1  0
  7 14  1  0
 10 15  1  0
 12 16  1  0
M  END
> <minimizedAffinity>
-7.82540

> <CNNscore>
0.2894985974

> <CNNaffinity>
5.0826249123

> <CNN_VS>
1.4714127779

> <CNNaffinity_variance>
0.1797782183

$$$$



 26 27  0  0  0  0  0  0  0  0999 V2000
    4.1785    6.5241    7.3704 N   0  0  0  0  0  0  0  0  0  0  0  0
    4.0141    5.6611    8.3021 C   0  0  0  0  0  0  0  0  0  0  0  0
    3.6510    4.3642    8.0764 O   0  0  0  0  0  0  0  0  0  0  0  0
    3.1321    3.8430    9.3147 C   0  0  0  0  0  0  0  0  0  0  0  0
    3.7799    4.7001   10.3879 C   0  0  0  0  0  0  0  0  0  0  0  0
    2.8960    4.9877   11.5939 C   0  0  0  0  0  0  0  0  0  0  0  0
    2.6408    3.7798   12.3212 O   0  0  0  0  0  0  0  0  0  0  0  0
    3.6426    5.9832   12.4976 C   0  0  0  0  0  0  0  0  0  0  0  0
    4.1459    7.2309   11.7226 C   0  0  0  0  0  0  0  0  0  0  0  0
    5.5703    7.3469   11.9379 O   0  0  0  0  0  0  0  0  0  0  0  0
    3.8392    7.1951   10.2026 C   0  0  0  0  0  0  0  0  0  0  0  0
    2.4740    7.4901    9.9729 O   0  0  0  0  0  0  0  0  0  0  0  0
    4.1322    5.8949    9.6429 N   0  0  0  0  0  0  0  0  0  0  0  0
    3.4813    3.3980   12.6190 H   0  0  0  0  0  0  0  0  0  0  0  0
    6.0159    6.5614   11.5840 H   0  0  0  0  0  0  0  0  0  0  0  0
    1.9213    6.8202   10.4049 H   0  0  0  0  0  0  0  0  0  0  0  0
    2.7511    6.3243   13.5809 O   0  0  0  0  0  0  0  0  0  0  0  0
    1.4462    6.6717   13.1278 C   0  0  0  0  0  0  0  0  0  0  0  0
    3.9944    6.0793    5.9885 C   0  0  0  0  0  0  0  0  0  0  0  0
    5.3587    5.9882    5.3076 C   0  0  0  0  0  0  0  0  0  0  0  0
    5.8977    4.5575    5.3301 C   0  0  0  0  0  0  0  0  0  0  0  0
    4.8662    3.5126    4.8942 C   0  0  0  0  0  0  0  0  0  0  0  0
    5.4362    2.2488    4.2475 C   0  0  0  0  0  0  0  0  0  0  0  0
    6.8954    2.3138    3.7825 C   0  0  0  0  0  0  0  0  0  0  0  0
    7.7073    4.0760    2.1164 C   0  0  0  0  0  0  0  0  0  0  0  0
    7.0855    2.7016    2.3124 C   0  0  0  0  0  0  0  0  0  0  0  0
 25 26  1  0
 26 24  1  0
 24 23  1  0
 23 22  1  0
 22 21  1  0
 21 20  1  0
 20 19  1  0
 19  1  1  0
  1  2  2  0
  2  3  1  0
  3  4  1  0
  5  4  1  0
  5  6  1  0
  6  7  1  0
  6  8  1  0
  8 17  1  0
 17 18  1  0
  8  9  1  0
  9 10  1  0
  9 11  1  0
 11 12  1  0
 11 13  1  0
 13  2  1  0
 13  5  1  0
  7 14  1  0
 10 15  1  0
 12 16  1  0
M  END
> <minimizedAffinity>
-6.51599

> <CNNscore>
0.2826356888

> <CNNaffinity>
5.2868552208

> <CNN_VS>
1.4942539930

> <CNNaffinity_variance>
0.1200306788

$$$$



 26 27  0  0  0  0  0  0  0  0999 V2000
    5.3772    6.9908    3.2518 N   0  0  0  0  0  0  0  0  0  0  0  0
    5.6769    6.3259    4.3044 C   0  0  0  0  0  0  0  0  0  0  0  0
    6.4084    6.8361    5.3385 O   0  0  0  0  0  0  0  0  0  0  0  0
    6.9192    5.7206    6.0930 C   0  0  0  0  0  0  0  0  0  0  0  0
    5.9495    4.5892    5.8004 C   0  0  0  0  0  0  0  0  0  0  0  0
    6.5868    3.2089    5.7168 C   0  0  0  0  0  0  0  0  0  0  0  0
    7.0907    2.8167    6.9996 O   0  0  0  0  0  0  0  0  0  0  0  0
    5.5021    2.2164    5.2659 C   0  0  0  0  0  0  0  0  0  0  0  0
    4.7552    2.6883    3.9891 C   0  0  0  0  0  0  0  0  0  0  0  0
    3.3405    2.7171    4.2831 O   0  0  0  0  0  0  0  0  0  0  0  0
    5.2174    4.0726    3.4638 C   0  0  0  0  0  0  0  0  0  0  0  0
    6.4626    3.9527    2.8015 O   0  0  0  0  0  0  0  0  0  0  0  0
    5.3585    5.0198    4.5466 N   0  0  0  0  0  0  0  0  0  0  0  0
    6.3634    2.7995    7.6412 H   0  0  0  0  0  0  0  0  0  0  0  0
    3.1710    3.3540    4.9948 H   0  0  0  0  0  0  0  0  0  0  0  0
    7.1316    3.6319    3.4264 H   0  0  0  0  0  0  0  0  0  0  0  0
    6.1446    0.9351    5.0922 O   0  0  0  0  0  0  0  0  0  0  0  0
    6.8735    0.8488    3.8715 C   0  0  0  0  0  0  0  0  0  0  0  0
    5.8217    8.3829    3.1747 C   0  0  0  0  0  0  0  0  0  0  0  0
    6.7775    8.5369    1.9932 C   0  0  0  0  0  0  0  0  0  0  0  0
    8.2365    8.4504    2.4423 C   0  0  0  0  0  0  0  0  0  0  0  0
    8.9032    7.1176    2.0886 C   0  0  0  0  0  0  0  0  0  0  0  0
    9.2641    6.2220    3.2752 C   0  0  0  0  0  0  0  0  0  0  0  0
   10.5054    6.6189    4.0823 C   0  0  0  0  0  0  0  0  0  0  0  0
   10.0076    7.8220    6.2834 C   0  0  0  0  0  0  0  0  0  0  0  0
   10.3479    6.5052    5.6022 C   0  0  0  0  0  0  0  0  0  0  0  0
 25 26  1  0
 26 24  1  0
 24 23  1  0
 23 22  1  0
 22 21  1  0
 21 20  1  0
 20 19  1  0
 19  1  1  0
  1  2  2  0
  2  3  1  0
  3  4  1  0
  5  4  1  0
  5  6  1  0
  6  7  1  0
  6  8  1  0
  8 17  1  0
 17 18  1  0
  8  9  1  0
  9 10  1  0
  9 11  1  0
 11 12  1  0
 11 13  1  0
 13  2  1  0
 13  5  1  0
  7 14  1  0
 10 15  1  0
 12 16  1  0
M  END
> <minimizedAffinity>
-5.88246

> <CNNscore>
0.2283298522

> <CNNaffinity>
4.1640191078

> <CNN_VS>
0.9507698417

> <CNNaffinity_variance>
0.7638290524

$$$$



 26 27  0  0  0  0  0  0  0  0999 V2000
    6.1545    5.7393    7.9302 N   0  0  0  0  0  0  0  0  0  0  0  0
    6.9588    6.6691    8.2886 C   0  0  0  0  0  0  0  0  0  0  0  0
    6.7803    7.4348    9.4052 O   0  0  0  0  0  0  0  0  0  0  0  0
    7.5807    8.6212    9.2433 C   0  0  0  0  0  0  0  0  0  0  0  0
    8.6783    8.2093    8.2781 C   0  0  0  0  0  0  0  0  0  0  0  0
    9.1185    9.2993    7.3104 C   0  0  0  0  0  0  0  0  0  0  0  0
    9.7611   10.3642    8.0219 O   0  0  0  0  0  0  0  0  0  0  0  0
   10.1113    8.6733    6.3167 C   0  0  0  0  0  0  0  0  0  0  0  0
    9.5623    7.3771    5.6615 C   0  0  0  0  0  0  0  0  0  0  0  0
   10.5155    6.3171    5.8994 O   0  0  0  0  0  0  0  0  0  0  0  0
    8.1603    6.9563    6.1746 C   0  0  0  0  0  0  0  0  0  0  0  0
    7.1626    7.7787    5.5987 O   0  0  0  0  0  0  0  0  0  0  0  0
    8.0777    7.0671    7.6135 N   0  0  0  0  0  0  0  0  0  0  0  0
   10.5347   10.0175    8.4933 H   0  0  0  0  0  0  0  0  0  0  0  0
   10.6030    6.1691    6.8540 H   0  0  0  0  0  0  0  0  0  0  0  0
    7.3123    8.7005    5.8610 H   0  0  0  0  0  0  0  0  0  0  0  0
   10.4389    9.6907    5.3460 O   0  0  0  0  0  0  0  0  0  0  0  0
   10.5072    9.1795    4.0183 C   0  0  0  0  0  0  0  0  0  0  0  0
    4.9991    5.4692    8.7866 C   0  0  0  0  0  0  0  0  0  0  0  0
    3.7660    6.1438    8.1884 C   0  0  0  0  0  0  0  0  0  0  0  0
    2.4762    5.5500    8.7557 C   0  0  0  0  0  0  0  0  0  0  0  0
    2.1633    6.0238   10.1782 C   0  0  0  0  0  0  0  0  0  0  0  0
    1.0436    7.0590   10.3003 C   0  0  0  0  0  0  0  0  0  0  0  0
    0.3384    7.1507   11.6582 C   0  0  0  0  0  0  0  0  0  0  0  0
    1.5802    6.7860   13.8639 C   0  0  0  0  0  0  0  0  0  0  0  0
    0.8282    6.1464   12.7066 C   0  0  0  0  0  0  0  0  0  0  0  0
 25 26  1  0
 26 24  1  0
 24 23  1  0
 23 22  1  0
 22 21  1  0
 21 20  1  0
 20 19  1  0
 19  1  1  0
  1  2  2  0
  2  3  1  0
  3  4  1  0
  5  4  1  0
  5  6  1  0
  6  7  1  0
  6  8  1  0
  8 17  1  0
 17 18  1  0
  8  9  1  0
  9 10  1  0
  9 11  1  0
 11 12  1  0
 11 13  1  0
 13  2  1  0
 13  5  1  0
  7 14  1  0
 10 15  1  0
 12 16  1  0
M  END
> <minimizedAffinity>
-6.04472

> <CNNscore>
0.2259347290

> <CNNaffinity>
4.1798262596

> <CNN_VS>
0.9443678856

> <CNNaffinity_variance>
0.5620664954

$$$$



 26 27  0  0  0  0  0  0  0  0999 V2000
    3.6582    5.2394    7.0255 N   0  0  0  0  0  0  0  0  0  0  0  0
    4.0010    6.1090    7.9008 C   0  0  0  0  0  0  0  0  0  0  0  0
    5.0113    7.0093    7.7173 O   0  0  0  0  0  0  0  0  0  0  0  0
    5.3998    7.4882    9.0188 C   0  0  0  0  0  0  0  0  0  0  0  0
    4.1676    7.2818    9.8821 C   0  0  0  0  0  0  0  0  0  0  0  0
    4.4581    6.8895   11.3244 C   0  0  0  0  0  0  0  0  0  0  0  0
    5.1002    7.9698   12.0126 O   0  0  0  0  0  0  0  0  0  0  0  0
    3.1160    6.5726   12.0051 C   0  0  0  0  0  0  0  0  0  0  0  0
    2.2601    5.5618   11.1949 C   0  0  0  0  0  0  0  0  0  0  0  0
    0.9696    6.1642   10.9488 O   0  0  0  0  0  0  0  0  0  0  0  0
    2.9052    5.1211    9.8549 C   0  0  0  0  0  0  0  0  0  0  0  0
    3.9428    4.1889   10.0958 O   0  0  0  0  0  0  0  0  0  0  0  0
    3.4561    6.2535    9.1451 N   0  0  0  0  0  0  0  0  0  0  0  0
    4.5240    8.7500   11.9987 H   0  0  0  0  0  0  0  0  0  0  0  0
    1.0841    6.9686   10.4189 H   0  0  0  0  0  0  0  0  0  0  0  0
    4.6322    4.6051   10.6366 H   0  0  0  0  0  0  0  0  0  0  0  0
    3.4158    6.1041   13.3375 O   0  0  0  0  0  0  0  0  0  0  0  0
    2.9238    4.7896   13.5797 C   0  0  0  0  0  0  0  0  0  0  0  0
    4.3743    5.2372    5.7493 C   0  0  0  0  0  0  0  0  0  0  0  0
    3.5806    6.0525    4.7303 C   0  0  0  0  0  0  0  0  0  0  0  0
    4.5037    6.7175    3.7087 C   0  0  0  0  0  0  0  0  0  0  0  0
    5.9913    6.5029    4.0039 C   0  0  0  0  0  0  0  0  0  0  0  0
    6.8518    6.0941    2.8070 C   0  0  0  0  0  0  0  0  0  0  0  0
    7.7777    4.8888    3.0069 C   0  0  0  0  0  0  0  0  0  0  0  0
    6.9089    2.4835    3.0084 C   0  0  0  0  0  0  0  0  0  0  0  0
    7.4135    3.6532    2.1771 C   0  0  0  0  0  0  0  0  0  0  0  0
 25 26  1  0
 26 24  1  0
 24 23  1  0
 23 22  1  0
 22 21  1  0
 21 20  1  0
 20 19  1  0
 19  1  1  0
  1  2  2  0
  2  3  1  0
  3  4  1  0
  5  4  1  0
  5  6  1  0
  6  7  1  0
  6  8  1  0
  8 17  1  0
 17 18  1  0
  8  9  1  0
  9 10  1  0
  9 11  1  0
 11 12  1  0
 11 13  1  0
 13  2  1  0
 13  5  1  0
  7 14  1  0
 10 15  1  0
 12 16  1  0
M  END
> <minimizedAffinity>
-6.80604

> <CNNscore>
0.2098650038

> <CNNaffinity>
4.8688797951

> <CNN_VS>
1.0218074322

> <CNNaffinity_variance>
0.1778531820

$$$$



 26 27  0  0  0  0  0  0  0  0999 V2000
    6.9079    8.2190    9.5870 N   0  0  0  0  0  0  0  0  0  0  0  0
    7.5994    8.7888    8.6721 C   0  0  0  0  0  0  0  0  0  0  0  0
    8.5176    8.1356    7.9007 O   0  0  0  0  0  0  0  0  0  0  0  0
    9.3881    9.1333    7.3340 C   0  0  0  0  0  0  0  0  0  0  0  0
    8.5557   10.4034    7.3278 C   0  0  0  0  0  0  0  0  0  0  0  0
    9.3391   11.6805    7.5994 C   0  0  0  0  0  0  0  0  0  0  0  0
   10.2502   11.9415    6.5248 O   0  0  0  0  0  0  0  0  0  0  0  0
    8.3308   12.8363    7.7100 C   0  0  0  0  0  0  0  0  0  0  0  0
    7.1801   12.5310    8.7067 C   0  0  0  0  0  0  0  0  0  0  0  0
    5.9264   12.6926    8.0061 O   0  0  0  0  0  0  0  0  0  0  0  0
    7.2553   11.1184    9.3429 C   0  0  0  0  0  0  0  0  0  0  0  0
    8.2544   11.0867   10.3451 O   0  0  0  0  0  0  0  0  0  0  0  0
    7.5650   10.1156    8.3489 N   0  0  0  0  0  0  0  0  0  0  0  0
    9.7545   12.0354    5.6963 H   0  0  0  0  0  0  0  0  0  0  0  0
    5.8803   12.0569    7.2749 H   0  0  0  0  0  0  0  0  0  0  0  0
    9.1174   11.2815    9.9475 H   0  0  0  0  0  0  0  0  0  0  0  0
    9.0778   14.0186    8.0691 O   0  0  0  0  0  0  0  0  0  0  0  0
    8.7231   15.1510    7.2813 C   0  0  0  0  0  0  0  0  0  0  0  0
    7.0970    6.7821    9.7899 C   0  0  0  0  0  0  0  0  0  0  0  0
    5.9562    6.2456   10.6525 C   0  0  0  0  0  0  0  0  0  0  0  0
    4.9771    7.3561   11.0344 C   0  0  0  0  0  0  0  0  0  0  0  0
    3.8864    7.5919    9.9853 C   0  0  0  0  0  0  0  0  0  0  0  0
    3.2286    6.3322    9.4191 C   0  0  0  0  0  0  0  0  0  0  0  0
    1.8349    5.9852    9.9550 C   0  0  0  0  0  0  0  0  0  0  0  0
    0.2840    7.0986   11.6566 C   0  0  0  0  0  0  0  0  0  0  0  0
    0.9575    7.1942   10.2960 C   0  0  0  0  0  0  0  0  0  0  0  0
 25 26  1  0
 26 24  1  0
 24 23  1  0
 23 22  1  0
 22 21  1  0
 21 20  1  0
 20 19  1  0
 19  1  1  0
  1  2  2  0
  2  3  1  0
  3  4  1  0
  5  4  1  0
  5  6  1  0
  6  7  1  0
  6  8  1  0
  8 17  1  0
 17 18  1  0
  8  9  1  0
  9 10  1  0
  9 11  1  0
 11 12  1  0
 11 13  1  0
 13  2  1  0
 13  5  1  0
  7 14  1  0
 10 15  1  0
 12 16  1  0
M  END
> <minimizedAffinity>
-5.95972

> <CNNscore>
0.2052910775

> <CNNaffinity>
4.2120203972

> <CNN_VS>
0.8646901846

> <CNNaffinity_variance>
0.6339637637

$$$$



 26 27  0  0  0  0  0  0  0  0999 V2000
    6.8888    5.9000    8.7901 N   0  0  0  0  0  0  0  0  0  0  0  0
    6.8726    4.9385    7.9446 C   0  0  0  0  0  0  0  0  0  0  0  0
    7.9547    4.5702    7.1973 O   0  0  0  0  0  0  0  0  0  0  0  0
    7.4635    3.8032    6.0815 C   0  0  0  0  0  0  0  0  0  0  0  0
    6.1357    3.2438    6.5612 C   0  0  0  0  0  0  0  0  0  0  0  0
    5.0606    3.1443    5.4876 C   0  0  0  0  0  0  0  0  0  0  0  0
    5.4313    2.1715    4.5031 O   0  0  0  0  0  0  0  0  0  0  0  0
    3.7526    2.7111    6.1704 C   0  0  0  0  0  0  0  0  0  0  0  0
    3.3971    3.5970    7.3950 C   0  0  0  0  0  0  0  0  0  0  0  0
    3.2317    2.7315    8.5405 O   0  0  0  0  0  0  0  0  0  0  0  0
    4.4480    4.6947    7.7054 C   0  0  0  0  0  0  0  0  0  0  0  0
    4.3267    5.7616    6.7832 O   0  0  0  0  0  0  0  0  0  0  0  0
    5.7913    4.1663    7.6275 N   0  0  0  0  0  0  0  0  0  0  0  0
    5.5448    1.3074    4.9290 H   0  0  0  0  0  0  0  0  0  0  0  0
    4.0665    2.2721    8.7219 H   0  0  0  0  0  0  0  0  0  0  0  0
    4.4935    5.4338    5.8856 H   0  0  0  0  0  0  0  0  0  0  0  0
    2.7220    2.7216    5.1592 O   0  0  0  0  0  0  0  0  0  0  0  0
    2.7118    3.9266    4.3999 C   0  0  0  0  0  0  0  0  0  0  0  0
    8.1489    6.6190    8.9815 C   0  0  0  0  0  0  0  0  0  0  0  0
    8.0435    7.9943    8.3252 C   0  0  0  0  0  0  0  0  0  0  0  0
    9.2764    8.3012    7.4746 C   0  0  0  0  0  0  0  0  0  0  0  0
    9.9043    9.6636    7.7841 C   0  0  0  0  0  0  0  0  0  0  0  0
   11.3842    9.8080    7.4245 C   0  0  0  0  0  0  0  0  0  0  0  0
   11.7075   10.1147    5.9578 C   0  0  0  0  0  0  0  0  0  0  0  0
   13.7506   10.3561    4.4386 C   0  0  0  0  0  0  0  0  0  0  0  0
   13.0640   10.7883    5.7253 C   0  0  0  0  0  0  0  0  0  0  0  0
 25 26  1  0
 26 24  1  0
 24 23  1  0
 23 22  1  0
 22 21  1  0
 21 20  1  0
 20 19  1  0
 19  1  1  0
  1  2  2  0
  2  3  1  0
  3  4  1  0
  5  4  1  0
  5  6  1  0
  6  7  1  0
  6  8  1  0
  8 17  1  0
 17 18  1  0
  8  9  1  0
  9 10  1  0
  9 11  1  0
 11 12  1  0
 11 13  1  0
 13  2  1  0
 13  5  1  0
  7 14  1  0
 10 15  1  0
 12 16  1  0
M  END
> <minimizedAffinity>
-6.37126

> <CNNscore>
0.2043942660

> <CNNaffinity>
4.6794056892

> <CNN_VS>
0.9564436674

> <CNNaffinity_variance>
0.0186862368

$$$$



 26 27  0  0  0  0  0  0  0  0999 V2000
    7.5522    5.9971    7.7215 N   0  0  0  0  0  0  0  0  0  0  0  0
    6.5533    5.2188    7.5310 C   0  0  0  0  0  0  0  0  0  0  0  0
    5.7832    4.7156    8.5403 O   0  0  0  0  0  0  0  0  0  0  0  0
    5.0849    3.5703    8.0159 C   0  0  0  0  0  0  0  0  0  0  0  0
    5.0256    3.8153    6.5184 C   0  0  0  0  0  0  0  0  0  0  0  0
    5.1437    2.5619    5.6621 C   0  0  0  0  0  0  0  0  0  0  0  0
    3.9978    1.7226    5.8507 O   0  0  0  0  0  0  0  0  0  0  0  0
    5.2207    3.0028    4.1909 C   0  0  0  0  0  0  0  0  0  0  0  0
    6.3073    4.0850    3.9484 C   0  0  0  0  0  0  0  0  0  0  0  0
    5.6736    5.2233    3.3229 O   0  0  0  0  0  0  0  0  0  0  0  0
    7.0511    4.5308    5.2345 C   0  0  0  0  0  0  0  0  0  0  0  0
    7.9897    3.5449    5.6223 O   0  0  0  0  0  0  0  0  0  0  0  0
    6.1253    4.7426    6.3243 N   0  0  0  0  0  0  0  0  0  0  0  0
    3.1961    2.2096    5.6036 H   0  0  0  0  0  0  0  0  0  0  0  0
    5.0010    5.5873    3.9196 H   0  0  0  0  0  0  0  0  0  0  0  0
    7.5257    2.7159    5.8179 H   0  0  0  0  0  0  0  0  0  0  0  0
    5.4357    1.8130    3.4017 O   0  0  0  0  0  0  0  0  0  0  0  0
    6.7970    1.3938    3.4023 C   0  0  0  0  0  0  0  0  0  0  0  0
    7.8599    6.3877    9.0978 C   0  0  0  0  0  0  0  0  0  0  0  0
    7.3529    7.8083    9.3386 C   0  0  0  0  0  0  0  0  0  0  0  0
    8.4731    8.8353    9.1696 C   0  0  0  0  0  0  0  0  0  0  0  0
    8.1125    9.9758    8.2128 C   0  0  0  0  0  0  0  0  0  0  0  0
    9.1327   10.2620    7.1094 C   0  0  0  0  0  0  0  0  0  0  0  0
   10.2850    9.2617    6.9633 C   0  0  0  0  0  0  0  0  0  0  0  0
   12.2553   10.6388    6.0906 C   0  0  0  0  0  0  0  0  0  0  0  0
   11.6764    9.8373    7.2466 C   0  0  0  0  0  0  0  0  0  0  0  0
 25 26  1  0
 26 24  1  0
 24 23  1  0
 23 22  1  0
 22 21  1  0
 21 20  1  0
 20 19  1  0
 19  1  1  0
  1  2  2  0
  2  3  1  0
  3  4  1  0
  5  4  1  0
  5  6  1  0
  6  7  1  0
  6  8  1  0
  8 17  1  0
 17 18  1  0
  8  9  1  0
  9 10  1  0
  9 11  1  0
 11 12  1  0
 11 13  1  0
 13  2  1  0
 13  5  1  0
  7 14  1  0
 10 15  1  0
 12 16  1  0
M  END
> <minimizedAffinity>
-6.45759

> <CNNscore>
0.2030000091

> <CNNaffinity>
4.5729069710

> <CNN_VS>
0.9283001423

> <CNNaffinity_variance>
0.1393232942

$$$$
