


 43 47  0  0  0  0  0  0  0  0999 V2000
   38.6219  -20.2149   27.9687 C   0  0  0  0  0  0  0  0  0  0  0  0
   39.7435  -20.9695   28.6342 C   0  0  0  0  0  0  0  0  0  0  0  0
   40.9784  -20.5416   28.8302 N   0  0  0  0  0  0  0  0  0  0  0  0
   41.6472  -21.5673   29.4723 C   0  0  0  0  0  0  0  0  0  0  0  0
   40.7952  -22.6299   29.6376 C   0  0  0  0  0  0  0  0  0  0  0  0
   40.8863  -24.1613   30.3580 Cl  0  0  0  0  0  0  0  0  0  0  0  0
   39.6040  -22.2586   29.0969 N   0  0  0  0  0  0  0  0  0  0  0  0
   38.7906  -22.8108   29.0456 H   0  0  0  0  0  0  0  0  0  0  0  0
   43.0244  -21.4427   29.9213 C   0  0  0  0  0  0  0  0  0  0  0  0
   43.8749  -20.5250   29.2046 C   0  0  0  0  0  0  0  0  0  0  0  0
   45.2299  -20.2773   29.5122 C   0  0  0  0  0  0  0  0  0  0  0  0
   45.6413  -21.0457   30.5953 C   0  0  0  0  0  0  0  0  0  0  0  0
   46.8933  -21.0524   31.1530 C   0  0  0  0  0  0  0  0  0  0  0  0
   48.0389  -20.3850   30.8810 N   0  0  0  0  0  0  0  0  0  0  0  0
   46.7938  -21.9442   32.1893 N   0  0  0  0  0  0  0  0  0  0  0  0
   45.5866  -22.5337   32.3179 N   0  0  0  0  0  0  0  0  0  0  0  0
   44.8402  -21.9855   31.3441 C   0  0  0  0  0  0  0  0  0  0  0  0
   43.4928  -22.2136   31.0137 C   0  0  0  0  0  0  0  0  0  0  0  0
   48.0728  -19.7518   30.1279 H   0  0  0  0  0  0  0  0  0  0  0  0
   48.8384  -20.5328   31.4363 H   0  0  0  0  0  0  0  0  0  0  0  0
   47.5458  -22.1397   32.7938 H   0  0  0  0  0  0  0  0  0  0  0  0
   39.2666  -17.8503   27.6667 C   0  0  0  0  0  0  0  0  0  0  0  0
   39.8500  -18.0883   26.6151 O   0  0  0  0  0  0  0  0  0  0  0  0
   38.7078  -18.8377   28.4542 N   0  0  0  0  0  0  0  0  0  0  0  0
   38.3646  -18.6130   29.3491 H   0  0  0  0  0  0  0  0  0  0  0  0
   36.4989  -14.8512   27.8524 C   0  0  0  0  0  0  0  0  0  0  0  0
   37.4234  -15.2550   26.6832 C   0  0  0  0  0  0  0  0  0  0  0  0
   38.8842  -15.4036   27.1028 C   0  0  0  0  0  0  0  0  0  0  0  0
   39.0674  -16.4390   28.2259 C   0  0  0  0  0  0  0  0  0  0  0  0
   37.9033  -16.4358   29.2337 C   0  0  0  0  0  0  0  0  0  0  0  0
   37.1388  -15.1159   29.2277 C   0  0  0  0  0  0  0  0  0  0  0  0
   37.0089  -12.4538   27.3252 N   0  0  0  0  0  0  0  0  0  0  0  0
   35.9755  -13.4076   27.7202 C   0  0  0  0  0  0  0  0  0  0  0  0
   36.6019  -11.5212   27.2552 H   0  0  0  0  0  0  0  0  0  0  0  0
   37.3943  -12.7254   26.4207 H   0  0  0  0  0  0  0  0  0  0  0  0
   38.6883  -20.3283   26.4264 C   0  0  0  0  0  0  0  0  0  0  0  0
   37.7966  -21.4191   25.8734 C   0  0  0  0  0  0  0  0  0  0  0  0
   38.2204  -22.7552   25.8539 C   0  0  0  0  0  0  0  0  0  0  0  0
   37.3788  -23.7549   25.3625 C   0  0  0  0  0  0  0  0  0  0  0  0
   36.1106  -23.4227   24.8867 C   0  0  0  0  0  0  0  0  0  0  0  0
   34.9719  -24.7785   24.2265 Br  0  0  0  0  0  0  0  0  0  0  0  0
   35.6767  -22.0995   24.8961 C   0  0  0  0  0  0  0  0  0  0  0  0
   36.5182  -21.1001   25.3889 C   0  0  0  0  0  0  0  0  0  0  0  0
 32 33  1  0
 26 33  1  0
 26 27  1  0
 27 28  1  0
 28 29  1  0
 29 22  1  0
 22 23  2  0
 22 24  1  0
 24  1  1  0
  1 36  1  0
 36 37  1  0
 37 38  2  0
 38 39  1  0
 39 40  2  0
 40 41  1  0
 40 42  1  0
 42 43  2  0
  1  2  1  0
  2  3  2  0
  3  4  1  0
  4  9  1  0
  9 10  1  0
 10 11  2  0
 11 12  1  0
 12 13  2  0
 13 14  1  0
 13 15  1  0
 15 16  1  0
 16 17  2  0
 17 18  1  0
  4  5  2  0
  5  6  1  0
  5  7  1  0
 29 30  1  0
 30 31  1  0
 31 26  1  0
 43 37  1  0
  7  2  1  0
 18  9  2  0
 17 12  1  0
 32 34  1  0
 32 35  1  0
 24 25  1  0
 14 19  1  0
 14 20  1  0
 15 21  1  0
  7  8  1  0
M  END
> <minimizedAffinity>
-10.32007

> <CNNscore>
0.6822821498

> <CNNaffinity>
8.0551366806

> <CNN_VS>
5.4958758354

> <CNNaffinity_variance>
0.0019627598

$$$$



 43 47  0  0  0  0  0  0  0  0999 V2000
   39.2240  -19.4429   28.0052 C   0  0  0  0  0  0  0  0  0  0  0  0
   38.2655  -19.8979   26.9353 C   0  0  0  0  0  0  0  0  0  0  0  0
   38.1855  -19.4407   25.6979 N   0  0  0  0  0  0  0  0  0  0  0  0
   37.1679  -20.1501   25.0872 C   0  0  0  0  0  0  0  0  0  0  0  0
   36.6220  -21.0271   25.9901 C   0  0  0  0  0  0  0  0  0  0  0  0
   35.4148  -22.2161   25.9534 Cl  0  0  0  0  0  0  0  0  0  0  0  0
   37.3023  -20.8567   27.1550 N   0  0  0  0  0  0  0  0  0  0  0  0
   37.1364  -21.3321   28.0011 H   0  0  0  0  0  0  0  0  0  0  0  0
   36.8250  -19.9759   23.6851 C   0  0  0  0  0  0  0  0  0  0  0  0
   36.3517  -18.6771   23.2748 C   0  0  0  0  0  0  0  0  0  0  0  0
   35.9849  -18.3350   21.9555 C   0  0  0  0  0  0  0  0  0  0  0  0
   36.1308  -19.4227   21.1020 C   0  0  0  0  0  0  0  0  0  0  0  0
   35.8619  -19.4379   19.7582 C   0  0  0  0  0  0  0  0  0  0  0  0
   35.4157  -18.5042   18.8858 N   0  0  0  0  0  0  0  0  0  0  0  0
   36.1787  -20.7131   19.3674 N   0  0  0  0  0  0  0  0  0  0  0  0
   36.5971  -21.5246   20.3612 N   0  0  0  0  0  0  0  0  0  0  0  0
   36.5895  -20.7455   21.4562 C   0  0  0  0  0  0  0  0  0  0  0  0
   36.9465  -21.0585   22.7795 C   0  0  0  0  0  0  0  0  0  0  0  0
   35.1979  -17.5981   19.2032 H   0  0  0  0  0  0  0  0  0  0  0  0
   35.3090  -18.7312   17.9338 H   0  0  0  0  0  0  0  0  0  0  0  0
   36.1064  -21.0140   18.4328 H   0  0  0  0  0  0  0  0  0  0  0  0
   40.7355  -20.8796   29.3280 C   0  0  0  0  0  0  0  0  0  0  0  0
   40.4499  -20.3079   30.3741 O   0  0  0  0  0  0  0  0  0  0  0  0
   40.2574  -20.4740   28.0973 N   0  0  0  0  0  0  0  0  0  0  0  0
   40.6148  -20.8821   27.2758 H   0  0  0  0  0  0  0  0  0  0  0  0
   40.5463  -24.9491   29.0245 C   0  0  0  0  0  0  0  0  0  0  0  0
   40.3166  -24.0509   30.2595 C   0  0  0  0  0  0  0  0  0  0  0  0
   41.4365  -23.0350   30.4737 C   0  0  0  0  0  0  0  0  0  0  0  0
   41.6342  -22.1169   29.2551 C   0  0  0  0  0  0  0  0  0  0  0  0
   41.4109  -22.8469   27.9179 C   0  0  0  0  0  0  0  0  0  0  0  0
   41.5807  -24.3570   28.0498 C   0  0  0  0  0  0  0  0  0  0  0  0
   40.0012  -27.3811   28.7530 N   0  0  0  0  0  0  0  0  0  0  0  0
   40.8713  -26.4065   29.4063 C   0  0  0  0  0  0  0  0  0  0  0  0
   40.2653  -28.3221   29.0448 H   0  0  0  0  0  0  0  0  0  0  0  0
   40.0985  -27.2991   27.7409 H   0  0  0  0  0  0  0  0  0  0  0  0
   39.7880  -18.0320   27.7096 C   0  0  0  0  0  0  0  0  0  0  0  0
   38.7753  -16.9299   27.9342 C   0  0  0  0  0  0  0  0  0  0  0  0
   39.0052  -15.6320   27.4572 C   0  0  0  0  0  0  0  0  0  0  0  0
   38.0523  -14.6302   27.6509 C   0  0  0  0  0  0  0  0  0  0  0  0
   36.8661  -14.9215   28.3241 C   0  0  0  0  0  0  0  0  0  0  0  0
   35.5761  -13.5648   28.5807 Br  0  0  0  0  0  0  0  0  0  0  0  0
   36.6247  -16.2051   28.8072 C   0  0  0  0  0  0  0  0  0  0  0  0
   37.5775  -17.2071   28.6120 C   0  0  0  0  0  0  0  0  0  0  0  0
 32 33  1  0
 26 33  1  0
 26 27  1  0
 27 28  1  0
 28 29  1  0
 29 22  1  0
 22 23  2  0
 22 24  1  0
 24  1  1  0
  1 36  1  0
 36 37  1  0
 37 38  2  0
 38 39  1  0
 39 40  2  0
 40 41  1  0
 40 42  1  0
 42 43  2  0
  1  2  1  0
  2  3  2  0
  3  4  1  0
  4  9  1  0
  9 10  1  0
 10 11  2  0
 11 12  1  0
 12 13  2  0
 13 14  1  0
 13 15  1  0
 15 16  1  0
 16 17  2  0
 17 18  1  0
  4  5  2  0
  5  6  1  0
  5  7  1  0
 29 30  1  0
 30 31  1  0
 31 26  1  0
 43 37  1  0
  7  2  1  0
 18  9  2  0
 17 12  1  0
 32 34  1  0
 32 35  1  0
 24 25  1  0
 14 19  1  0
 14 20  1  0
 15 21  1  0
  7  8  1  0
M  END
> <minimizedAffinity>
-9.09498

> <CNNscore>
0.6222209930

> <CNNaffinity>
7.8176631927

> <CNN_VS>
4.8643140793

> <CNNaffinity_variance>
0.0920676291

$$$$



 43 47  0  0  0  0  0  0  0  0999 V2000
   39.2447  -19.4722   27.8136 C   0  0  0  0  0  0  0  0  0  0  0  0
   38.4093  -20.2358   26.8189 C   0  0  0  0  0  0  0  0  0  0  0  0
   38.2605  -21.5472   26.7517 N   0  0  0  0  0  0  0  0  0  0  0  0
   37.4100  -21.7872   25.6883 C   0  0  0  0  0  0  0  0  0  0  0  0
   37.0689  -20.5942   25.1029 C   0  0  0  0  0  0  0  0  0  0  0  0
   36.0620  -20.1085   23.8291 Cl  0  0  0  0  0  0  0  0  0  0  0  0
   37.7097  -19.6216   25.8047 N   0  0  0  0  0  0  0  0  0  0  0  0
   37.6789  -18.6549   25.6211 H   0  0  0  0  0  0  0  0  0  0  0  0
   36.9496  -23.1218   25.3407 C   0  0  0  0  0  0  0  0  0  0  0  0
   37.8796  -24.2100   25.5141 C   0  0  0  0  0  0  0  0  0  0  0  0
   37.5943  -25.5637   25.2342 C   0  0  0  0  0  0  0  0  0  0  0  0
   36.2965  -25.7090   24.7574 C   0  0  0  0  0  0  0  0  0  0  0  0
   35.6974  -26.8852   24.3885 C   0  0  0  0  0  0  0  0  0  0  0  0
   36.1089  -28.1744   24.3663 N   0  0  0  0  0  0  0  0  0  0  0  0
   34.4321  -26.5139   24.0143 N   0  0  0  0  0  0  0  0  0  0  0  0
   34.1850  -25.1888   24.0826 N   0  0  0  0  0  0  0  0  0  0  0  0
   35.3262  -24.6587   24.5544 C   0  0  0  0  0  0  0  0  0  0  0  0
   35.6389  -23.3182   24.8401 C   0  0  0  0  0  0  0  0  0  0  0  0
   37.0257  -28.4034   24.6424 H   0  0  0  0  0  0  0  0  0  0  0  0
   35.4913  -28.8832   24.0740 H   0  0  0  0  0  0  0  0  0  0  0  0
   33.7550  -27.1643   23.7182 H   0  0  0  0  0  0  0  0  0  0  0  0
   40.6623  -20.4781   29.5676 C   0  0  0  0  0  0  0  0  0  0  0  0
   40.2248  -19.7232   30.4288 O   0  0  0  0  0  0  0  0  0  0  0  0
   40.3129  -20.3781   28.2352 N   0  0  0  0  0  0  0  0  0  0  0  0
   40.7864  -20.9208   27.5640 H   0  0  0  0  0  0  0  0  0  0  0  0
   41.3154  -24.4057   28.6528 C   0  0  0  0  0  0  0  0  0  0  0  0
   40.2956  -23.7889   29.6349 C   0  0  0  0  0  0  0  0  0  0  0  0
   40.9271  -22.7849   30.5967 C   0  0  0  0  0  0  0  0  0  0  0  0
   41.6275  -21.6301   29.8598 C   0  0  0  0  0  0  0  0  0  0  0  0
   42.3099  -22.0834   28.5562 C   0  0  0  0  0  0  0  0  0  0  0  0
   42.6104  -23.5789   28.5522 C   0  0  0  0  0  0  0  0  0  0  0  0
   40.4293  -26.6049   29.4674 N   0  0  0  0  0  0  0  0  0  0  0  0
   41.5936  -25.8928   28.9468 C   0  0  0  0  0  0  0  0  0  0  0  0
   40.6762  -27.5792   29.6410 H   0  0  0  0  0  0  0  0  0  0  0  0
   39.6718  -26.5625   28.7856 H   0  0  0  0  0  0  0  0  0  0  0  0
   39.7660  -18.1394   27.2237 C   0  0  0  0  0  0  0  0  0  0  0  0
   38.8247  -16.9781   27.4603 C   0  0  0  0  0  0  0  0  0  0  0  0
   38.3823  -16.6609   28.7521 C   0  0  0  0  0  0  0  0  0  0  0  0
   37.5325  -15.5727   28.9592 C   0  0  0  0  0  0  0  0  0  0  0  0
   37.1200  -14.7981   27.8754 C   0  0  0  0  0  0  0  0  0  0  0  0
   35.9737  -13.3230   28.1593 Br  0  0  0  0  0  0  0  0  0  0  0  0
   37.5480  -15.1026   26.5857 C   0  0  0  0  0  0  0  0  0  0  0  0
   38.3990  -16.1903   26.3791 C   0  0  0  0  0  0  0  0  0  0  0  0
 32 33  1  0
 26 33  1  0
 26 27  1  0
 27 28  1  0
 28 29  1  0
 29 22  1  0
 22 23  2  0
 22 24  1  0
 24  1  1  0
  1 36  1  0
 36 37  1  0
 37 38  2  0
 38 39  1  0
 39 40  2  0
 40 41  1  0
 40 42  1  0
 42 43  2  0
  1  2  1  0
  2  3  2  0
  3  4  1  0
  4  9  1  0
  9 10  1  0
 10 11  2  0
 11 12  1  0
 12 13  2  0
 13 14  1  0
 13 15  1  0
 15 16  1  0
 16 17  2  0
 17 18  1  0
  4  5  2  0
  5  6  1  0
  5  7  1  0
 29 30  1  0
 30 31  1  0
 31 26  1  0
 43 37  1  0
  7  2  1  0
 18  9  2  0
 17 12  1  0
 32 34  1  0
 32 35  1  0
 24 25  1  0
 14 19  1  0
 14 20  1  0
 15 21  1  0
  7  8  1  0
M  END
> <minimizedAffinity>
-9.15237

> <CNNscore>
0.5650497079

> <CNNaffinity>
7.5903658867

> <CNN_VS>
4.2889342308

> <CNNaffinity_variance>
0.0211341586

$$$$



 43 47  0  0  0  0  0  0  0  0999 V2000
   41.6177  -21.0856   29.3520 C   0  0  0  0  0  0  0  0  0  0  0  0
   40.3869  -20.3714   28.8566 C   0  0  0  0  0  0  0  0  0  0  0  0
   40.0901  -19.0949   29.0270 N   0  0  0  0  0  0  0  0  0  0  0  0
   38.8722  -18.8933   28.4043 C   0  0  0  0  0  0  0  0  0  0  0  0
   38.4316  -20.0803   27.8760 C   0  0  0  0  0  0  0  0  0  0  0  0
   37.0961  -20.5835   26.9618 Cl  0  0  0  0  0  0  0  0  0  0  0  0
   39.3769  -21.0112   28.1742 N   0  0  0  0  0  0  0  0  0  0  0  0
   39.3448  -21.9679   27.9442 H   0  0  0  0  0  0  0  0  0  0  0  0
   38.2454  -17.5844   28.3171 C   0  0  0  0  0  0  0  0  0  0  0  0
   38.9927  -16.5332   27.6723 C   0  0  0  0  0  0  0  0  0  0  0  0
   38.5315  -15.2110   27.4954 C   0  0  0  0  0  0  0  0  0  0  0  0
   37.2607  -15.0522   28.0363 C   0  0  0  0  0  0  0  0  0  0  0  0
   36.5217  -13.8980   28.0394 C   0  0  0  0  0  0  0  0  0  0  0  0
   36.7406  -12.6491   27.5659 N   0  0  0  0  0  0  0  0  0  0  0  0
   35.3517  -14.2509   28.6604 N   0  0  0  0  0  0  0  0  0  0  0  0
   35.2971  -15.5309   29.0848 N   0  0  0  0  0  0  0  0  0  0  0  0
   36.4700  -16.0621   28.7000 C   0  0  0  0  0  0  0  0  0  0  0  0
   36.9560  -17.3711   28.8637 C   0  0  0  0  0  0  0  0  0  0  0  0
   37.5939  -12.4323   27.1253 H   0  0  0  0  0  0  0  0  0  0  0  0
   36.0466  -11.9574   27.6621 H   0  0  0  0  0  0  0  0  0  0  0  0
   34.6077  -13.6187   28.7872 H   0  0  0  0  0  0  0  0  0  0  0  0
   40.7020  -23.3726   29.5228 C   0  0  0  0  0  0  0  0  0  0  0  0
   40.1611  -23.1331   30.5965 O   0  0  0  0  0  0  0  0  0  0  0  0
   41.5143  -22.4639   28.8734 N   0  0  0  0  0  0  0  0  0  0  0  0
   42.0278  -22.7460   28.0821 H   0  0  0  0  0  0  0  0  0  0  0  0
   42.5840  -26.9344   28.8446 C   0  0  0  0  0  0  0  0  0  0  0  0
   42.8692  -25.5472   28.2289 C   0  0  0  0  0  0  0  0  0  0  0  0
   41.6147  -24.8680   27.6841 C   0  0  0  0  0  0  0  0  0  0  0  0
   40.5312  -24.6901   28.7619 C   0  0  0  0  0  0  0  0  0  0  0  0
   40.4823  -25.8650   29.7558 C   0  0  0  0  0  0  0  0  0  0  0  0
   41.0941  -27.1365   29.1765 C   0  0  0  0  0  0  0  0  0  0  0  0
   42.7406  -29.4072   28.4620 N   0  0  0  0  0  0  0  0  0  0  0  0
   43.1542  -28.0866   27.9944 C   0  0  0  0  0  0  0  0  0  0  0  0
   43.1484  -30.1237   27.8614 H   0  0  0  0  0  0  0  0  0  0  0  0
   41.7234  -29.4758   28.4306 H   0  0  0  0  0  0  0  0  0  0  0  0
   42.9162  -20.3739   28.9008 C   0  0  0  0  0  0  0  0  0  0  0  0
   44.1269  -20.7780   29.7142 C   0  0  0  0  0  0  0  0  0  0  0  0
   45.4183  -20.4016   29.3198 C   0  0  0  0  0  0  0  0  0  0  0  0
   46.5245  -20.7612   30.0919 C   0  0  0  0  0  0  0  0  0  0  0  0
   46.3444  -21.5004   31.2606 C   0  0  0  0  0  0  0  0  0  0  0  0
   47.8431  -21.9818   32.3061 Br  0  0  0  0  0  0  0  0  0  0  0  0
   45.0682  -21.8851   31.6638 C   0  0  0  0  0  0  0  0  0  0  0  0
   43.9619  -21.5240   30.8920 C   0  0  0  0  0  0  0  0  0  0  0  0
 32 33  1  0
 26 33  1  0
 26 27  1  0
 27 28  1  0
 28 29  1  0
 29 22  1  0
 22 23  2  0
 22 24  1  0
 24  1  1  0
  1 36  1  0
 36 37  1  0
 37 38  2  0
 38 39  1  0
 39 40  2  0
 40 41  1  0
 40 42  1  0
 42 43  2  0
  1  2  1  0
  2  3  2  0
  3  4  1  0
  4  9  1  0
  9 10  1  0
 10 11  2  0
 11 12  1  0
 12 13  2  0
 13 14  1  0
 13 15  1  0
 15 16  1  0
 16 17  2  0
 17 18  1  0
  4  5  2  0
  5  6  1  0
  5  7  1  0
 29 30  1  0
 30 31  1  0
 31 26  1  0
 43 37  1  0
  7  2  1  0
 18  9  2  0
 17 12  1  0
 32 34  1  0
 32 35  1  0
 24 25  1  0
 14 19  1  0
 14 20  1  0
 15 21  1  0
  7  8  1  0
M  END
> <minimizedAffinity>
-10.41272

> <CNNscore>
0.5394968390

> <CNNaffinity>
7.4123978615

> <CNN_VS>
3.9989652634

> <CNNaffinity_variance>
0.2945177853

$$$$



 43 47  0  0  0  0  0  0  0  0999 V2000
   40.7027  -21.2424   28.3506 C   0  0  0  0  0  0  0  0  0  0  0  0
   40.4921  -22.6335   27.8113 C   0  0  0  0  0  0  0  0  0  0  0  0
   41.3695  -23.6218   27.8065 N   0  0  0  0  0  0  0  0  0  0  0  0
   40.7367  -24.6996   27.2153 C   0  0  0  0  0  0  0  0  0  0  0  0
   39.4682  -24.3320   26.8436 C   0  0  0  0  0  0  0  0  0  0  0  0
   38.1363  -25.1047   26.1353 Cl  0  0  0  0  0  0  0  0  0  0  0  0
   39.3213  -23.0293   27.2047 N   0  0  0  0  0  0  0  0  0  0  0  0
   38.5236  -22.4711   27.0589 H   0  0  0  0  0  0  0  0  0  0  0  0
   41.3652  -26.0049   27.0928 C   0  0  0  0  0  0  0  0  0  0  0  0
   41.3415  -26.8635   28.2510 C   0  0  0  0  0  0  0  0  0  0  0  0
   41.8955  -28.1607   28.3016 C   0  0  0  0  0  0  0  0  0  0  0  0
   42.4786  -28.4990   27.0857 C   0  0  0  0  0  0  0  0  0  0  0  0
   43.1069  -29.6809   26.7913 C   0  0  0  0  0  0  0  0  0  0  0  0
   43.3488  -30.8098   27.4978 N   0  0  0  0  0  0  0  0  0  0  0  0
   43.4880  -29.5408   25.4820 N   0  0  0  0  0  0  0  0  0  0  0  0
   43.1829  -28.3497   24.9256 N   0  0  0  0  0  0  0  0  0  0  0  0
   42.5414  -27.6798   25.8980 C   0  0  0  0  0  0  0  0  0  0  0  0
   41.9823  -26.3900   25.8771 C   0  0  0  0  0  0  0  0  0  0  0  0
   43.0601  -30.8741   28.4369 H   0  0  0  0  0  0  0  0  0  0  0  0
   43.8134  -31.5665   27.0727 H   0  0  0  0  0  0  0  0  0  0  0  0
   43.9492  -30.2549   24.9853 H   0  0  0  0  0  0  0  0  0  0  0  0
   39.3217  -19.2020   28.5174 C   0  0  0  0  0  0  0  0  0  0  0  0
   40.1556  -18.6301   29.2105 O   0  0  0  0  0  0  0  0  0  0  0  0
   39.4538  -20.5175   28.1179 N   0  0  0  0  0  0  0  0  0  0  0  0
   38.7015  -20.9707   27.6731 H   0  0  0  0  0  0  0  0  0  0  0  0
   37.7510  -15.5148   27.7261 C   0  0  0  0  0  0  0  0  0  0  0  0
   37.9209  -16.2324   29.0828 C   0  0  0  0  0  0  0  0  0  0  0  0
   37.3810  -17.6608   29.0729 C   0  0  0  0  0  0  0  0  0  0  0  0
   38.0490  -18.5309   27.9941 C   0  0  0  0  0  0  0  0  0  0  0  0
   38.3633  -17.7460   26.7073 C   0  0  0  0  0  0  0  0  0  0  0  0
   37.4987  -16.4972   26.5676 C   0  0  0  0  0  0  0  0  0  0  0  0
   37.2410  -13.0742   27.4629 N   0  0  0  0  0  0  0  0  0  0  0  0
   36.6964  -14.3921   27.7796 C   0  0  0  0  0  0  0  0  0  0  0  0
   36.4977  -12.3777   27.5150 H   0  0  0  0  0  0  0  0  0  0  0  0
   37.6312  -13.0852   26.5205 H   0  0  0  0  0  0  0  0  0  0  0  0
   41.1347  -21.2613   29.8370 C   0  0  0  0  0  0  0  0  0  0  0  0
   42.6369  -21.2238   30.0180 C   0  0  0  0  0  0  0  0  0  0  0  0
   43.2540  -21.9218   31.0654 C   0  0  0  0  0  0  0  0  0  0  0  0
   44.6427  -21.8977   31.2072 C   0  0  0  0  0  0  0  0  0  0  0  0
   45.4202  -21.1740   30.3035 C   0  0  0  0  0  0  0  0  0  0  0  0
   47.2998  -21.1470   30.4950 Br  0  0  0  0  0  0  0  0  0  0  0  0
   44.8217  -20.4725   29.2600 C   0  0  0  0  0  0  0  0  0  0  0  0
   43.4328  -20.4980   29.1177 C   0  0  0  0  0  0  0  0  0  0  0  0
 32 33  1  0
 26 33  1  0
 26 27  1  0
 27 28  1  0
 28 29  1  0
 29 22  1  0
 22 23  2  0
 22 24  1  0
 24  1  1  0
  1 36  1  0
 36 37  1  0
 37 38  2  0
 38 39  1  0
 39 40  2  0
 40 41  1  0
 40 42  1  0
 42 43  2  0
  1  2  1  0
  2  3  2  0
  3  4  1  0
  4  9  1  0
  9 10  1  0
 10 11  2  0
 11 12  1  0
 12 13  2  0
 13 14  1  0
 13 15  1  0
 15 16  1  0
 16 17  2  0
 17 18  1  0
  4  5  2  0
  5  6  1  0
  5  7  1  0
 29 30  1  0
 30 31  1  0
 31 26  1  0
 43 37  1  0
  7  2  1  0
 18  9  2  0
 17 12  1  0
 32 34  1  0
 32 35  1  0
 24 25  1  0
 14 19  1  0
 14 20  1  0
 15 21  1  0
  7  8  1  0
M  END
> <minimizedAffinity>
-8.28629

> <CNNscore>
0.5273225307

> <CNNaffinity>
7.5287413597

> <CNN_VS>
3.9700748920

> <CNNaffinity_variance>
0.0657608211

$$$$



 43 47  0  0  0  0  0  0  0  0999 V2000
   38.5532  -20.3669   27.0540 C   0  0  0  0  0  0  0  0  0  0  0  0
   39.3557  -21.2817   27.9426 C   0  0  0  0  0  0  0  0  0  0  0  0
   39.6654  -22.5444   27.7050 N   0  0  0  0  0  0  0  0  0  0  0  0
   40.4061  -22.9731   28.7909 C   0  0  0  0  0  0  0  0  0  0  0  0
   40.5157  -21.9490   29.6972 C   0  0  0  0  0  0  0  0  0  0  0  0
   41.2903  -21.7212   31.1874 Cl  0  0  0  0  0  0  0  0  0  0  0  0
   39.8423  -20.8918   29.1699 N   0  0  0  0  0  0  0  0  0  0  0  0
   39.7242  -20.0090   29.5893 H   0  0  0  0  0  0  0  0  0  0  0  0
   40.9918  -24.3018   28.8628 C   0  0  0  0  0  0  0  0  0  0  0  0
   40.0872  -25.4242   28.8959 C   0  0  0  0  0  0  0  0  0  0  0  0
   40.4860  -26.7768   28.9565 C   0  0  0  0  0  0  0  0  0  0  0  0
   41.8716  -26.8845   28.9909 C   0  0  0  0  0  0  0  0  0  0  0  0
   42.5909  -28.0495   29.0531 C   0  0  0  0  0  0  0  0  0  0  0  0
   42.2457  -29.3576   29.0926 N   0  0  0  0  0  0  0  0  0  0  0  0
   43.8981  -27.6371   29.0445 N   0  0  0  0  0  0  0  0  0  0  0  0
   44.0719  -26.2991   29.0156 N   0  0  0  0  0  0  0  0  0  0  0  0
   42.8250  -25.7999   28.9700 C   0  0  0  0  0  0  0  0  0  0  0  0
   42.3987  -24.4615   28.9112 C   0  0  0  0  0  0  0  0  0  0  0  0
   41.2957  -29.6161   29.0976 H   0  0  0  0  0  0  0  0  0  0  0  0
   42.9445  -30.0506   29.1163 H   0  0  0  0  0  0  0  0  0  0  0  0
   44.6530  -28.2691   29.0583 H   0  0  0  0  0  0  0  0  0  0  0  0
   39.6419  -18.2116   27.5715 C   0  0  0  0  0  0  0  0  0  0  0  0
   40.6977  -18.5602   27.0551 O   0  0  0  0  0  0  0  0  0  0  0  0
   38.5569  -19.0560   27.7028 N   0  0  0  0  0  0  0  0  0  0  0  0
   37.7799  -18.7733   28.2373 H   0  0  0  0  0  0  0  0  0  0  0  0
   36.7170  -15.3714   27.8296 C   0  0  0  0  0  0  0  0  0  0  0  0
   37.6098  -15.7463   26.6267 C   0  0  0  0  0  0  0  0  0  0  0  0
   39.0941  -15.8029   26.9813 C   0  0  0  0  0  0  0  0  0  0  0  0
   39.3870  -16.8027   28.1135 C   0  0  0  0  0  0  0  0  0  0  0  0
   38.2710  -16.8446   29.1735 C   0  0  0  0  0  0  0  0  0  0  0  0
   37.4321  -15.5707   29.1786 C   0  0  0  0  0  0  0  0  0  0  0  0
   37.1026  -12.9226   27.4552 N   0  0  0  0  0  0  0  0  0  0  0  0
   36.1057  -13.9630   27.6953 C   0  0  0  0  0  0  0  0  0  0  0  0
   36.6377  -12.0181   27.3760 H   0  0  0  0  0  0  0  0  0  0  0  0
   37.6031  -13.1246   26.5897 H   0  0  0  0  0  0  0  0  0  0  0  0
   39.1061  -20.3389   25.6085 C   0  0  0  0  0  0  0  0  0  0  0  0
   38.1106  -19.8005   24.6035 C   0  0  0  0  0  0  0  0  0  0  0  0
   38.3506  -18.5975   23.9253 C   0  0  0  0  0  0  0  0  0  0  0  0
   37.4351  -18.1239   22.9837 C   0  0  0  0  0  0  0  0  0  0  0  0
   36.2747  -18.8503   22.7175 C   0  0  0  0  0  0  0  0  0  0  0  0
   35.0396  -18.2093   21.4391 Br  0  0  0  0  0  0  0  0  0  0  0  0
   36.0203  -20.0452   23.3857 C   0  0  0  0  0  0  0  0  0  0  0  0
   36.9369  -20.5192   24.3265 C   0  0  0  0  0  0  0  0  0  0  0  0
 32 33  1  0
 26 33  1  0
 26 27  1  0
 27 28  1  0
 28 29  1  0
 29 22  1  0
 22 23  2  0
 22 24  1  0
 24  1  1  0
  1 36  1  0
 36 37  1  0
 37 38  2  0
 38 39  1  0
 39 40  2  0
 40 41  1  0
 40 42  1  0
 42 43  2  0
  1  2  1  0
  2  3  2  0
  3  4  1  0
  4  9  1  0
  9 10  1  0
 10 11  2  0
 11 12  1  0
 12 13  2  0
 13 14  1  0
 13 15  1  0
 15 16  1  0
 16 17  2  0
 17 18  1  0
  4  5  2  0
  5  6  1  0
  5  7  1  0
 29 30  1  0
 30 31  1  0
 31 26  1  0
 43 37  1  0
  7  2  1  0
 18  9  2  0
 17 12  1  0
 32 34  1  0
 32 35  1  0
 24 25  1  0
 14 19  1  0
 14 20  1  0
 15 21  1  0
  7  8  1  0
M  END
> <minimizedAffinity>
-8.73607

> <CNNscore>
0.4759674072

> <CNNaffinity>
7.5161380768

> <CNN_VS>
3.5774366856

> <CNNaffinity_variance>
0.0063015427

$$$$



 43 47  0  0  0  0  0  0  0  0999 V2000
   39.0731  -19.8947   27.3275 C   0  0  0  0  0  0  0  0  0  0  0  0
   40.0466  -20.7024   28.1463 C   0  0  0  0  0  0  0  0  0  0  0  0
   41.3230  -20.4300   28.3539 N   0  0  0  0  0  0  0  0  0  0  0  0
   41.8099  -21.4428   29.1593 C   0  0  0  0  0  0  0  0  0  0  0  0
   40.8055  -22.3425   29.4127 C   0  0  0  0  0  0  0  0  0  0  0  0
   40.6442  -23.7593   30.3287 Cl  0  0  0  0  0  0  0  0  0  0  0  0
   39.7024  -21.8841   28.7630 N   0  0  0  0  0  0  0  0  0  0  0  0
   38.8190  -22.3180   28.7382 H   0  0  0  0  0  0  0  0  0  0  0  0
   43.1731  -21.4537   29.6645 C   0  0  0  0  0  0  0  0  0  0  0  0
   43.3767  -21.9216   31.0131 C   0  0  0  0  0  0  0  0  0  0  0  0
   44.6313  -22.0053   31.6543 C   0  0  0  0  0  0  0  0  0  0  0  0
   45.6482  -21.5655   30.8144 C   0  0  0  0  0  0  0  0  0  0  0  0
   46.9831  -21.5121   31.1200 C   0  0  0  0  0  0  0  0  0  0  0  0
   47.7017  -21.8371   32.2200 N   0  0  0  0  0  0  0  0  0  0  0  0
   47.5699  -21.0351   29.9766 N   0  0  0  0  0  0  0  0  0  0  0  0
   46.7122  -20.7474   28.9751 N   0  0  0  0  0  0  0  0  0  0  0  0
   45.5043  -21.0785   29.4624 C   0  0  0  0  0  0  0  0  0  0  0  0
   44.2413  -21.0043   28.8495 C   0  0  0  0  0  0  0  0  0  0  0  0
   47.2454  -22.1768   33.0235 H   0  0  0  0  0  0  0  0  0  0  0  0
   48.6808  -21.7337   32.2166 H   0  0  0  0  0  0  0  0  0  0  0  0
   48.5430  -20.9118   29.8925 H   0  0  0  0  0  0  0  0  0  0  0  0
   39.5473  -17.4958   27.6716 C   0  0  0  0  0  0  0  0  0  0  0  0
   40.4475  -17.4998   26.8396 O   0  0  0  0  0  0  0  0  0  0  0  0
   38.8707  -18.6389   28.0497 N   0  0  0  0  0  0  0  0  0  0  0  0
   38.2474  -18.6084   28.8111 H   0  0  0  0  0  0  0  0  0  0  0  0
   36.3714  -14.9275   27.7537 C   0  0  0  0  0  0  0  0  0  0  0  0
   37.5281  -15.0168   26.7345 C   0  0  0  0  0  0  0  0  0  0  0  0
   38.9037  -15.0544   27.3965 C   0  0  0  0  0  0  0  0  0  0  0  0
   39.0490  -16.2314   28.3767 C   0  0  0  0  0  0  0  0  0  0  0  0
   37.7455  -16.5364   29.1373 C   0  0  0  0  0  0  0  0  0  0  0  0
   36.8045  -15.3365   29.1735 C   0  0  0  0  0  0  0  0  0  0  0  0
   36.5333  -12.4725   27.2720 N   0  0  0  0  0  0  0  0  0  0  0  0
   35.6679  -13.5564   27.7302 C   0  0  0  0  0  0  0  0  0  0  0  0
   36.0124  -11.5955   27.2789 H   0  0  0  0  0  0  0  0  0  0  0  0
   36.8532  -12.6705   26.3239 H   0  0  0  0  0  0  0  0  0  0  0  0
   39.5702  -19.6954   25.8751 C   0  0  0  0  0  0  0  0  0  0  0  0
   38.4455  -19.4515   24.8920 C   0  0  0  0  0  0  0  0  0  0  0  0
   37.3434  -20.3154   24.8293 C   0  0  0  0  0  0  0  0  0  0  0  0
   36.3017  -20.0658   23.9339 C   0  0  0  0  0  0  0  0  0  0  0  0
   36.3584  -18.9523   23.0962 C   0  0  0  0  0  0  0  0  0  0  0  0
   34.9447  -18.6143   21.8887 Br  0  0  0  0  0  0  0  0  0  0  0  0
   37.4482  -18.0867   23.1441 C   0  0  0  0  0  0  0  0  0  0  0  0
   38.4893  -18.3360   24.0407 C   0  0  0  0  0  0  0  0  0  0  0  0
 32 33  1  0
 26 33  1  0
 26 27  1  0
 27 28  1  0
 28 29  1  0
 29 22  1  0
 22 23  2  0
 22 24  1  0
 24  1  1  0
  1 36  1  0
 36 37  1  0
 37 38  2  0
 38 39  1  0
 39 40  2  0
 40 41  1  0
 40 42  1  0
 42 43  2  0
  1  2  1  0
  2  3  2  0
  3  4  1  0
  4  9  1  0
  9 10  1  0
 10 11  2  0
 11 12  1  0
 12 13  2  0
 13 14  1  0
 13 15  1  0
 15 16  1  0
 16 17  2  0
 17 18  1  0
  4  5  2  0
  5  6  1  0
  5  7  1  0
 29 30  1  0
 30 31  1  0
 31 26  1  0
 43 37  1  0
  7  2  1  0
 18  9  2  0
 17 12  1  0
 32 34  1  0
 32 35  1  0
 24 25  1  0
 14 19  1  0
 14 20  1  0
 15 21  1  0
  7  8  1  0
M  END
> <minimizedAffinity>
-8.69662

> <CNNscore>
0.4614608288

> <CNNaffinity>
7.8480000496

> <CNN_VS>
3.6215445995

> <CNNaffinity_variance>
0.1530987769

$$$$



 43 47  0  0  0  0  0  0  0  0999 V2000
   38.3042  -20.3417   27.5491 C   0  0  0  0  0  0  0  0  0  0  0  0
   39.2927  -21.2395   28.2470 C   0  0  0  0  0  0  0  0  0  0  0  0
   39.5157  -22.5176   27.9957 N   0  0  0  0  0  0  0  0  0  0  0  0
   40.5007  -22.9205   28.8784 C   0  0  0  0  0  0  0  0  0  0  0  0
   40.8490  -21.8640   29.6814 C   0  0  0  0  0  0  0  0  0  0  0  0
   41.9775  -21.5959   30.9172 Cl  0  0  0  0  0  0  0  0  0  0  0  0
   40.0784  -20.8129   29.2939 N   0  0  0  0  0  0  0  0  0  0  0  0
   40.0816  -19.9114   29.6897 H   0  0  0  0  0  0  0  0  0  0  0  0
   41.0680  -24.2590   28.8597 C   0  0  0  0  0  0  0  0  0  0  0  0
   42.5056  -24.3701   28.8747 C   0  0  0  0  0  0  0  0  0  0  0  0
   43.2179  -25.5886   28.8686 C   0  0  0  0  0  0  0  0  0  0  0  0
   42.3475  -26.6721   28.8356 C   0  0  0  0  0  0  0  0  0  0  0  0
   42.7038  -27.9954   28.8196 C   0  0  0  0  0  0  0  0  0  0  0  0
   43.8932  -28.6412   28.8345 N   0  0  0  0  0  0  0  0  0  0  0  0
   41.5074  -28.6645   28.8083 N   0  0  0  0  0  0  0  0  0  0  0  0
   40.4142  -27.8736   28.7818 N   0  0  0  0  0  0  0  0  0  0  0  0
   40.9043  -26.6227   28.8098 C   0  0  0  0  0  0  0  0  0  0  0  0
   40.2212  -25.3939   28.8146 C   0  0  0  0  0  0  0  0  0  0  0  0
   44.7326  -28.1268   28.8423 H   0  0  0  0  0  0  0  0  0  0  0  0
   43.9189  -29.6254   28.8376 H   0  0  0  0  0  0  0  0  0  0  0  0
   41.4501  -29.6473   28.8187 H   0  0  0  0  0  0  0  0  0  0  0  0
   39.2312  -18.0560   27.6707 C   0  0  0  0  0  0  0  0  0  0  0  0
   40.0189  -18.2695   26.7559 O   0  0  0  0  0  0  0  0  0  0  0  0
   38.4087  -19.0336   28.1954 N   0  0  0  0  0  0  0  0  0  0  0  0
   37.8888  -18.8487   29.0107 H   0  0  0  0  0  0  0  0  0  0  0  0
   36.5341  -15.0038   27.9848 C   0  0  0  0  0  0  0  0  0  0  0  0
   37.4923  -15.3437   26.8224 C   0  0  0  0  0  0  0  0  0  0  0  0
   38.9318  -15.5641   27.2821 C   0  0  0  0  0  0  0  0  0  0  0  0
   39.0461  -16.6861   28.3286 C   0  0  0  0  0  0  0  0  0  0  0  0
   37.8447  -16.7266   29.2908 C   0  0  0  0  0  0  0  0  0  0  0  0
   37.1141  -15.3893   29.3581 C   0  0  0  0  0  0  0  0  0  0  0  0
   37.0502  -12.6197   27.4057 N   0  0  0  0  0  0  0  0  0  0  0  0
   36.0523  -13.5404   27.9446 C   0  0  0  0  0  0  0  0  0  0  0  0
   36.6732  -11.6720   27.4052 H   0  0  0  0  0  0  0  0  0  0  0  0
   37.2845  -12.8929   26.4513 H   0  0  0  0  0  0  0  0  0  0  0  0
   38.5497  -20.2939   26.0214 C   0  0  0  0  0  0  0  0  0  0  0  0
   37.4769  -21.0062   25.2262 C   0  0  0  0  0  0  0  0  0  0  0  0
   36.9906  -22.2570   25.6313 C   0  0  0  0  0  0  0  0  0  0  0  0
   35.9843  -22.8925   24.9015 C   0  0  0  0  0  0  0  0  0  0  0  0
   35.4611  -22.2810   23.7626 C   0  0  0  0  0  0  0  0  0  0  0  0
   34.0958  -23.1413   22.7795 Br  0  0  0  0  0  0  0  0  0  0  0  0
   35.9362  -21.0402   23.3454 C   0  0  0  0  0  0  0  0  0  0  0  0
   36.9419  -20.4043   24.0763 C   0  0  0  0  0  0  0  0  0  0  0  0
 32 33  1  0
 26 33  1  0
 26 27  1  0
 27 28  1  0
 28 29  1  0
 29 22  1  0
 22 23  2  0
 22 24  1  0
 24  1  1  0
  1 36  1  0
 36 37  1  0
 37 38  2  0
 38 39  1  0
 39 40  2  0
 40 41  1  0
 40 42  1  0
 42 43  2  0
  1  2  1  0
  2  3  2  0
  3  4  1  0
  4  9  1  0
  9 10  1  0
 10 11  2  0
 11 12  1  0
 12 13  2  0
 13 14  1  0
 13 15  1  0
 15 16  1  0
 16 17  2  0
 17 18  1  0
  4  5  2  0
  5  6  1  0
  5  7  1  0
 29 30  1  0
 30 31  1  0
 31 26  1  0
 43 37  1  0
  7  2  1  0
 18  9  2  0
 17 12  1  0
 32 34  1  0
 32 35  1  0
 24 25  1  0
 14 19  1  0
 14 20  1  0
 15 21  1  0
  7  8  1  0
M  END
> <minimizedAffinity>
-9.66532

> <CNNscore>
0.4560355544

> <CNNaffinity>
7.4996867180

> <CNN_VS>
3.4201238155

> <CNNaffinity_variance>
0.0268517230

$$$$



 43 47  0  0  0  0  0  0  0  0999 V2000
   41.2851  -21.1017   28.0146 C   0  0  0  0  0  0  0  0  0  0  0  0
   40.6449  -19.8468   27.4799 C   0  0  0  0  0  0  0  0  0  0  0  0
   39.7492  -19.0925   28.0925 N   0  0  0  0  0  0  0  0  0  0  0  0
   39.4546  -18.0575   27.2244 C   0  0  0  0  0  0  0  0  0  0  0  0
   40.1744  -18.2180   26.0675 C   0  0  0  0  0  0  0  0  0  0  0  0
   40.3665  -17.3504   24.6242 Cl  0  0  0  0  0  0  0  0  0  0  0  0
   40.9101  -19.3509   26.2234 N   0  0  0  0  0  0  0  0  0  0  0  0
   41.5208  -19.7446   25.5591 H   0  0  0  0  0  0  0  0  0  0  0  0
   38.5525  -16.9734   27.5772 C   0  0  0  0  0  0  0  0  0  0  0  0
   38.9622  -15.6330   27.2383 C   0  0  0  0  0  0  0  0  0  0  0  0
   38.2055  -14.4706   27.4998 C   0  0  0  0  0  0  0  0  0  0  0  0
   37.0127  -14.7885   28.1393 C   0  0  0  0  0  0  0  0  0  0  0  0
   36.0474  -13.9009   28.5379 C   0  0  0  0  0  0  0  0  0  0  0  0
   35.9257  -12.5555   28.4539 N   0  0  0  0  0  0  0  0  0  0  0  0
   35.0739  -14.6911   29.0920 N   0  0  0  0  0  0  0  0  0  0  0  0
   35.3550  -16.0109   29.1098 N   0  0  0  0  0  0  0  0  0  0  0  0
   36.5545  -16.1065   28.5115 C   0  0  0  0  0  0  0  0  0  0  0  0
   37.3306  -17.2469   28.2399 C   0  0  0  0  0  0  0  0  0  0  0  0
   36.6461  -12.0204   28.0492 H   0  0  0  0  0  0  0  0  0  0  0  0
   35.1167  -12.1121   28.7977 H   0  0  0  0  0  0  0  0  0  0  0  0
   34.2335  -14.3236   29.4498 H   0  0  0  0  0  0  0  0  0  0  0  0
   43.7425  -21.2474   28.2101 C   0  0  0  0  0  0  0  0  0  0  0  0
   43.8001  -22.2023   27.4435 O   0  0  0  0  0  0  0  0  0  0  0  0
   42.5488  -20.6907   28.6257 N   0  0  0  0  0  0  0  0  0  0  0  0
   42.5485  -20.0119   29.3388 H   0  0  0  0  0  0  0  0  0  0  0  0
   47.0028  -21.9396   30.5723 C   0  0  0  0  0  0  0  0  0  0  0  0
   45.5335  -21.7001   30.9827 C   0  0  0  0  0  0  0  0  0  0  0  0
   44.9230  -20.4676   30.3192 C   0  0  0  0  0  0  0  0  0  0  0  0
   44.9755  -20.5439   28.7835 C   0  0  0  0  0  0  0  0  0  0  0  0
   46.2547  -21.2263   28.2652 C   0  0  0  0  0  0  0  0  0  0  0  0
   47.3862  -21.1830   29.2872 C   0  0  0  0  0  0  0  0  0  0  0  0
   47.8124  -22.5735   32.8588 N   0  0  0  0  0  0  0  0  0  0  0  0
   47.9896  -21.6697   31.7250 C   0  0  0  0  0  0  0  0  0  0  0  0
   48.4914  -22.3452   33.5850 H   0  0  0  0  0  0  0  0  0  0  0  0
   47.9536  -23.5359   32.5518 H   0  0  0  0  0  0  0  0  0  0  0  0
   40.3475  -21.8554   28.9889 C   0  0  0  0  0  0  0  0  0  0  0  0
   40.5189  -23.3581   28.9330 C   0  0  0  0  0  0  0  0  0  0  0  0
   40.3657  -24.1440   30.0836 C   0  0  0  0  0  0  0  0  0  0  0  0
   40.5036  -25.5315   30.0135 C   0  0  0  0  0  0  0  0  0  0  0  0
   40.7970  -26.1390   28.7929 C   0  0  0  0  0  0  0  0  0  0  0  0
   40.9783  -28.0176   28.7001 Br  0  0  0  0  0  0  0  0  0  0  0  0
   40.9557  -25.3716   27.6418 C   0  0  0  0  0  0  0  0  0  0  0  0
   40.8164  -23.9840   27.7121 C   0  0  0  0  0  0  0  0  0  0  0  0
 32 33  1  0
 26 33  1  0
 26 27  1  0
 27 28  1  0
 28 29  1  0
 29 22  1  0
 22 23  2  0
 22 24  1  0
 24  1  1  0
  1 36  1  0
 36 37  1  0
 37 38  2  0
 38 39  1  0
 39 40  2  0
 40 41  1  0
 40 42  1  0
 42 43  2  0
  1  2  1  0
  2  3  2  0
  3  4  1  0
  4  9  1  0
  9 10  1  0
 10 11  2  0
 11 12  1  0
 12 13  2  0
 13 14  1  0
 13 15  1  0
 15 16  1  0
 16 17  2  0
 17 18  1  0
  4  5  2  0
  5  6  1  0
  5  7  1  0
 29 30  1  0
 30 31  1  0
 31 26  1  0
 43 37  1  0
  7  2  1  0
 18  9  2  0
 17 12  1  0
 32 34  1  0
 32 35  1  0
 24 25  1  0
 14 19  1  0
 14 20  1  0
 15 21  1  0
  7  8  1  0
M  END
> <minimizedAffinity>
-9.47888

> <CNNscore>
0.4016507566

> <CNNaffinity>
7.3203310966

> <CNN_VS>
2.9402165413

> <CNNaffinity_variance>
0.2172968388

$$$$
