


 25 27  0  0  0  0  0  0  0  0999 V2000
   57.3567   -0.7647    3.0006 C   0  0  0  0  0  0  0  0  0  0  0  0
   56.2081   -1.7736    2.9324 C   0  0  0  0  0  0  0  0  0  0  0  0
   55.0065   -0.9849    3.4399 C   0  0  0  0  0  0  0  0  0  0  0  0
   55.5820    0.0161    4.3391 N   0  0  0  0  0  0  0  0  0  0  0  0
   55.1676    1.3173    4.2395 C   0  0  0  0  0  0  0  0  0  0  0  0
   53.9535    1.7328    4.1093 N   0  0  0  0  0  0  0  0  0  0  0  0
   56.2400    2.1611    4.2413 O   0  0  0  0  0  0  0  0  0  0  0  0
   57.4511    1.3946    4.4239 C   0  0  0  0  0  0  0  0  0  0  0  0
   57.0389   -0.0629    4.3306 C   0  0  0  0  0  0  0  0  0  0  0  0
   53.7342    3.1159    4.0195 C   0  0  0  0  0  0  0  0  0  0  0  0
   54.8260    3.9325    3.7042 C   0  0  0  0  0  0  0  0  0  0  0  0
   54.6784    5.3137    3.6013 C   0  0  0  0  0  0  0  0  0  0  0  0
   53.4266    5.9007    3.8117 C   0  0  0  0  0  0  0  0  0  0  0  0
   52.3187    5.0894    4.1101 C   0  0  0  0  0  0  0  0  0  0  0  0
   50.7670    5.8242    4.3898 Cl  0  0  0  0  0  0  0  0  0  0  0  0
   52.4553    3.6851    4.1935 C   0  0  0  0  0  0  0  0  0  0  0  0
   51.2697    2.8067    4.5064 C   0  0  0  0  0  0  0  0  0  0  0  0
   53.3223    7.3283    3.7126 C   0  0  0  0  0  0  0  0  0  0  0  0
   53.2251    8.4843    3.6723 N   0  0  0  0  0  0  0  0  0  0  0  0
   58.0781    1.6829    5.7756 C   0  0  0  0  0  0  0  0  0  0  0  0
   57.1155    1.8178    6.7199 F   0  0  0  0  0  0  0  0  0  0  0  0
   58.8751    0.6643    6.1706 F   0  0  0  0  0  0  0  0  0  0  0  0
   58.8146    2.8125    5.7809 F   0  0  0  0  0  0  0  0  0  0  0  0
   58.4417   -2.8511    3.3907 C   0  0  0  0  0  0  0  0  0  0  0  0
   58.5803   -1.4904    3.0096 O   0  0  0  0  0  0  0  0  0  0  0  0
 24 25  1  0
  1 25  1  0
  1  2  1  0
  2  3  1  0
  3  4  1  0
  4  5  1  0
  5  6  2  0
  6 10  1  0
 10 11  2  0
 11 12  1  0
 12 13  2  0
 13 18  1  0
 18 19  3  0
 13 14  1  0
 14 15  1  0
 14 16  2  0
 16 17  1  0
  5  7  1  0
  7  8  1  0
  8 20  1  0
 20 21  1  0
 20 22  1  0
 20 23  1  0
  8  9  1  0
  9  1  1  0
  9  4  1  0
 16 10  1  0
M  END
> <minimizedAffinity>
-9.46188

> <CNNscore>
0.9892193675

> <CNNaffinity>
8.2043485641

> <CNN_VS>
8.1159000397

> <CNNaffinity_variance>
0.2327653915

$$$$



 25 27  0  0  0  0  0  0  0  0999 V2000
   55.3115   -0.3791    4.1590 C   0  0  0  0  0  0  0  0  0  0  0  0
   56.7980   -0.1289    3.8958 C   0  0  0  0  0  0  0  0  0  0  0  0
   56.8510    1.3439    3.5067 C   0  0  0  0  0  0  0  0  0  0  0  0
   55.5368    1.6130    2.9216 N   0  0  0  0  0  0  0  0  0  0  0  0
   54.8564    2.7386    3.3021 C   0  0  0  0  0  0  0  0  0  0  0  0
   55.3428    3.9254    3.4387 N   0  0  0  0  0  0  0  0  0  0  0  0
   53.5557    2.4375    3.5841 O   0  0  0  0  0  0  0  0  0  0  0  0
   53.3190    1.0384    3.3117 C   0  0  0  0  0  0  0  0  0  0  0  0
   54.6805    0.4357    3.0187 C   0  0  0  0  0  0  0  0  0  0  0  0
   54.4767    4.9523    3.8441 C   0  0  0  0  0  0  0  0  0  0  0  0
   55.0266    6.2174    4.0797 C   0  0  0  0  0  0  0  0  0  0  0  0
   54.2238    7.2804    4.4863 C   0  0  0  0  0  0  0  0  0  0  0  0
   52.8492    7.0914    4.6616 C   0  0  0  0  0  0  0  0  0  0  0  0
   52.2823    5.8305    4.4095 C   0  0  0  0  0  0  0  0  0  0  0  0
   50.5753    5.5937    4.6467 Cl  0  0  0  0  0  0  0  0  0  0  0  0
   53.0864    4.7526    3.9744 C   0  0  0  0  0  0  0  0  0  0  0  0
   52.4846    3.3981    3.6951 C   0  0  0  0  0  0  0  0  0  0  0  0
   52.0616    8.2087    5.0976 C   0  0  0  0  0  0  0  0  0  0  0  0
   51.4432    9.1103    5.4876 N   0  0  0  0  0  0  0  0  0  0  0  0
   52.3950    0.8655    2.1202 C   0  0  0  0  0  0  0  0  0  0  0  0
   51.2536    1.5722    2.3055 F   0  0  0  0  0  0  0  0  0  0  0  0
   52.9668    1.3338    0.9877 F   0  0  0  0  0  0  0  0  0  0  0  0
   52.0479   -0.4203    1.9091 F   0  0  0  0  0  0  0  0  0  0  0  0
   55.9441   -2.4505    3.1633 C   0  0  0  0  0  0  0  0  0  0  0  0
   55.0772   -1.7792    4.0654 O   0  0  0  0  0  0  0  0  0  0  0  0
 24 25  1  0
  1 25  1  0
  1  2  1  0
  2  3  1  0
  3  4  1  0
  4  5  1  0
  5  6  2  0
  6 10  1  0
 10 11  2  0
 11 12  1  0
 12 13  2  0
 13 18  1  0
 18 19  3  0
 13 14  1  0
 14 15  1  0
 14 16  2  0
 16 17  1  0
  5  7  1  0
  7  8  1  0
  8 20  1  0
 20 21  1  0
 20 22  1  0
 20 23  1  0
  8  9  1  0
  9  1  1  0
  9  4  1  0
 16 10  1  0
M  END
> <minimizedAffinity>
-6.39717

> <CNNscore>
0.6287761927

> <CNNaffinity>
7.6052913666

> <CNN_VS>
4.7820262909

> <CNNaffinity_variance>
0.2711847126

$$$$



 25 27  0  0  0  0  0  0  0  0999 V2000
   58.0001    0.1987    5.6193 C   0  0  0  0  0  0  0  0  0  0  0  0
   59.0189    1.3248    5.8071 C   0  0  0  0  0  0  0  0  0  0  0  0
   58.3018    2.5532    5.2594 C   0  0  0  0  0  0  0  0  0  0  0  0
   57.3772    2.0185    4.2589 N   0  0  0  0  0  0  0  0  0  0  0  0
   56.0800    2.4567    4.2495 C   0  0  0  0  0  0  0  0  0  0  0  0
   55.6762    3.6757    4.3709 N   0  0  0  0  0  0  0  0  0  0  0  0
   55.2207    1.4019    4.1447 O   0  0  0  0  0  0  0  0  0  0  0  0
   55.9788    0.1801    4.0033 C   0  0  0  0  0  0  0  0  0  0  0  0
   57.4288    0.5606    4.2390 C   0  0  0  0  0  0  0  0  0  0  0  0
   54.2949    3.9208    4.3396 C   0  0  0  0  0  0  0  0  0  0  0  0
   53.4334    2.8399    4.5587 C   0  0  0  0  0  0  0  0  0  0  0  0
   52.0514    3.0131    4.5392 C   0  0  0  0  0  0  0  0  0  0  0  0
   51.5088    4.2798    4.3008 C   0  0  0  0  0  0  0  0  0  0  0  0
   52.3638    5.3765    4.0985 C   0  0  0  0  0  0  0  0  0  0  0  0
   51.6857    6.9472    3.7836 Cl  0  0  0  0  0  0  0  0  0  0  0  0
   53.7672    5.2136    4.1397 C   0  0  0  0  0  0  0  0  0  0  0  0
   54.6917    6.3868    3.9304 C   0  0  0  0  0  0  0  0  0  0  0  0
   50.0802    4.4107    4.2726 C   0  0  0  0  0  0  0  0  0  0  0  0
   48.9241    4.5127    4.2914 N   0  0  0  0  0  0  0  0  0  0  0  0
   55.8042   -0.4103    2.6160 C   0  0  0  0  0  0  0  0  0  0  0  0
   56.9014   -0.1633    1.8599 F   0  0  0  0  0  0  0  0  0  0  0  0
   55.6609   -1.7538    2.6723 F   0  0  0  0  0  0  0  0  0  0  0  0
   54.7377    0.0941    1.9628 F   0  0  0  0  0  0  0  0  0  0  0  0
   58.7916   -1.6793    4.3826 C   0  0  0  0  0  0  0  0  0  0  0  0
   58.7013   -1.0388    5.6466 O   0  0  0  0  0  0  0  0  0  0  0  0
 24 25  1  0
  1 25  1  0
  1  2  1  0
  2  3  1  0
  3  4  1  0
  4  5  1  0
  5  6  2  0
  6 10  1  0
 10 11  2  0
 11 12  1  0
 12 13  2  0
 13 18  1  0
 18 19  3  0
 13 14  1  0
 14 15  1  0
 14 16  2  0
 16 17  1  0
  5  7  1  0
  7  8  1  0
  8 20  1  0
 20 21  1  0
 20 22  1  0
 20 23  1  0
  8  9  1  0
  9  1  1  0
  9  4  1  0
 16 10  1  0
M  END
> <minimizedAffinity>
-5.55102

> <CNNscore>
0.4827499390

> <CNNaffinity>
7.5310363770

> <CNN_VS>
3.6356072426

> <CNNaffinity_variance>
0.1828250885

$$$$



 25 27  0  0  0  0  0  0  0  0999 V2000
   57.4488   -2.5974    3.3289 C   0  0  0  0  0  0  0  0  0  0  0  0
   58.2123   -2.5427    4.6540 C   0  0  0  0  0  0  0  0  0  0  0  0
   58.0010   -1.1107    5.1316 C   0  0  0  0  0  0  0  0  0  0  0  0
   57.8124   -0.3411    3.9011 N   0  0  0  0  0  0  0  0  0  0  0  0
   56.7838    0.5598    3.8303 C   0  0  0  0  0  0  0  0  0  0  0  0
   56.4359    1.4070    4.7385 N   0  0  0  0  0  0  0  0  0  0  0  0
   56.1042    0.4168    2.6556 O   0  0  0  0  0  0  0  0  0  0  0  0
   56.7511   -0.5924    1.8490 C   0  0  0  0  0  0  0  0  0  0  0  0
   57.8055   -1.2236    2.7393 C   0  0  0  0  0  0  0  0  0  0  0  0
   55.3438    2.2478    4.4748 C   0  0  0  0  0  0  0  0  0  0  0  0
   55.5824    3.6242    4.3923 C   0  0  0  0  0  0  0  0  0  0  0  0
   54.5429    4.5150    4.1353 C   0  0  0  0  0  0  0  0  0  0  0  0
   53.2413    4.0368    3.9536 C   0  0  0  0  0  0  0  0  0  0  0  0
   52.9924    2.6552    4.0150 C   0  0  0  0  0  0  0  0  0  0  0  0
   51.3692    2.0651    3.8073 Cl  0  0  0  0  0  0  0  0  0  0  0  0
   54.0455    1.7429    4.2524 C   0  0  0  0  0  0  0  0  0  0  0  0
   53.7879    0.2579    4.3129 C   0  0  0  0  0  0  0  0  0  0  0  0
   52.1973    4.9899    3.7078 C   0  0  0  0  0  0  0  0  0  0  0  0
   51.3253    5.7295    3.5081 N   0  0  0  0  0  0  0  0  0  0  0  0
   57.3943    0.0241    0.6202 C   0  0  0  0  0  0  0  0  0  0  0  0
   58.3552   -0.7974    0.1319 F   0  0  0  0  0  0  0  0  0  0  0  0
   56.4883    0.1992   -0.3683 F   0  0  0  0  0  0  0  0  0  0  0  0
   57.9689    1.2175    0.8731 F   0  0  0  0  0  0  0  0  0  0  0  0
   58.5905   -3.3215    1.3656 C   0  0  0  0  0  0  0  0  0  0  0  0
   57.9505   -3.6956    2.5766 O   0  0  0  0  0  0  0  0  0  0  0  0
 24 25  1  0
  1 25  1  0
  1  2  1  0
  2  3  1  0
  3  4  1  0
  4  5  1  0
  5  6  2  0
  6 10  1  0
 10 11  2  0
 11 12  1  0
 12 13  2  0
 13 18  1  0
 18 19  3  0
 13 14  1  0
 14 15  1  0
 14 16  2  0
 16 17  1  0
  5  7  1  0
  7  8  1  0
  8 20  1  0
 20 21  1  0
 20 22  1  0
 20 23  1  0
  8  9  1  0
  9  1  1  0
  9  4  1  0
 16 10  1  0
M  END
> <minimizedAffinity>
19.65215

> <CNNscore>
0.4570566118

> <CNNaffinity>
7.5182099342

> <CNN_VS>
3.4362475872

> <CNNaffinity_variance>
2.5209152699

$$$$



 25 27  0  0  0  0  0  0  0  0999 V2000
   53.6970    6.3401    3.8274 C   0  0  0  0  0  0  0  0  0  0  0  0
   55.1301    6.0047    4.2463 C   0  0  0  0  0  0  0  0  0  0  0  0
   55.2448    4.5102    3.9699 C   0  0  0  0  0  0  0  0  0  0  0  0
   53.8774    4.0083    4.1111 N   0  0  0  0  0  0  0  0  0  0  0  0
   53.3778    3.1599    3.1595 C   0  0  0  0  0  0  0  0  0  0  0  0
   53.9846    2.1537    2.6274 N   0  0  0  0  0  0  0  0  0  0  0  0
   52.1256    3.5499    2.7825 O   0  0  0  0  0  0  0  0  0  0  0  0
   51.7209    4.6884    3.5746 C   0  0  0  0  0  0  0  0  0  0  0  0
   52.9501    5.1069    4.3599 C   0  0  0  0  0  0  0  0  0  0  0  0
   53.2986    1.4045    1.6594 C   0  0  0  0  0  0  0  0  0  0  0  0
   53.7073    1.5266    0.3266 C   0  0  0  0  0  0  0  0  0  0  0  0
   53.0682    0.8129   -0.6845 C   0  0  0  0  0  0  0  0  0  0  0  0
   52.0052   -0.0409   -0.3731 C   0  0  0  0  0  0  0  0  0  0  0  0
   51.5982   -0.1867    0.9640 C   0  0  0  0  0  0  0  0  0  0  0  0
   50.2636   -1.2350    1.3458 Cl  0  0  0  0  0  0  0  0  0  0  0  0
   52.2565    0.5163    1.9985 C   0  0  0  0  0  0  0  0  0  0  0  0
   51.8302    0.3602    3.4369 C   0  0  0  0  0  0  0  0  0  0  0  0
   51.3641   -0.7444   -1.4468 C   0  0  0  0  0  0  0  0  0  0  0  0
   50.8776   -1.3035   -2.3402 N   0  0  0  0  0  0  0  0  0  0  0  0
   50.5894    4.3203    4.5169 C   0  0  0  0  0  0  0  0  0  0  0  0
   50.0676    3.1172    4.1755 F   0  0  0  0  0  0  0  0  0  0  0  0
   51.0319    4.2091    5.7899 F   0  0  0  0  0  0  0  0  0  0  0  0
   49.5839    5.2187    4.5037 F   0  0  0  0  0  0  0  0  0  0  0  0
   51.9782    7.5890    4.9084 C   0  0  0  0  0  0  0  0  0  0  0  0
   53.3260    7.5577    4.4627 O   0  0  0  0  0  0  0  0  0  0  0  0
 24 25  1  0
  1 25  1  0
  1  2  1  0
  2  3  1  0
  3  4  1  0
  4  5  1  0
  5  6  2  0
  6 10  1  0
 10 11  2  0
 11 12  1  0
 12 13  2  0
 13 18  1  0
 18 19  3  0
 13 14  1  0
 14 15  1  0
 14 16  2  0
 16 17  1  0
  5  7  1  0
  7  8  1  0
  8 20  1  0
 20 21  1  0
 20 22  1  0
 20 23  1  0
  8  9  1  0
  9  1  1  0
  9  4  1  0
 16 10  1  0
M  END
> <minimizedAffinity>
8.60827

> <CNNscore>
0.4261304140

> <CNNaffinity>
6.6670384407

> <CNN_VS>
2.8410277367

> <CNNaffinity_variance>
0.2456851006

$$$$



 25 27  0  0  0  0  0  0  0  0999 V2000
   57.3214    0.9021    6.1937 C   0  0  0  0  0  0  0  0  0  0  0  0
   58.5933    1.3670    5.4812 C   0  0  0  0  0  0  0  0  0  0  0  0
   58.1012    2.4685    4.5497 C   0  0  0  0  0  0  0  0  0  0  0  0
   56.7111    2.1102    4.2653 N   0  0  0  0  0  0  0  0  0  0  0  0
   55.7455    3.0783    4.3383 C   0  0  0  0  0  0  0  0  0  0  0  0
   55.8192    4.2785    3.8717 N   0  0  0  0  0  0  0  0  0  0  0  0
   54.6665    2.6243    5.0394 O   0  0  0  0  0  0  0  0  0  0  0  0
   54.8804    1.2428    5.4044 C   0  0  0  0  0  0  0  0  0  0  0  0
   56.3177    0.9315    5.0300 C   0  0  0  0  0  0  0  0  0  0  0  0
   54.7164    5.1271    4.0528 C   0  0  0  0  0  0  0  0  0  0  0  0
   54.9609    6.4336    4.4907 C   0  0  0  0  0  0  0  0  0  0  0  0
   53.9116    7.3270    4.6929 C   0  0  0  0  0  0  0  0  0  0  0  0
   52.5939    6.9231    4.4555 C   0  0  0  0  0  0  0  0  0  0  0  0
   52.3372    5.6198    3.9972 C   0  0  0  0  0  0  0  0  0  0  0  0
   50.6957    5.1146    3.7209 Cl  0  0  0  0  0  0  0  0  0  0  0  0
   53.3980    4.7145    3.7675 C   0  0  0  0  0  0  0  0  0  0  0  0
   53.1314    3.3161    3.2690 C   0  0  0  0  0  0  0  0  0  0  0  0
   51.5419    7.8696    4.6925 C   0  0  0  0  0  0  0  0  0  0  0  0
   50.6792    8.6313    4.8441 N   0  0  0  0  0  0  0  0  0  0  0  0
   53.9276    0.3291    4.6556 C   0  0  0  0  0  0  0  0  0  0  0  0
   54.2869    0.2440    3.3517 F   0  0  0  0  0  0  0  0  0  0  0  0
   53.9631   -0.9271    5.1551 F   0  0  0  0  0  0  0  0  0  0  0  0
   52.6495    0.7571    4.6985 F   0  0  0  0  0  0  0  0  0  0  0  0
   57.7232   -0.4339    8.1265 C   0  0  0  0  0  0  0  0  0  0  0  0
   57.5600   -0.3992    6.7165 O   0  0  0  0  0  0  0  0  0  0  0  0
 24 25  1  0
  1 25  1  0
  1  2  1  0
  2  3  1  0
  3  4  1  0
  4  5  1  0
  5  6  2  0
  6 10  1  0
 10 11  2  0
 11 12  1  0
 12 13  2  0
 13 18  1  0
 18 19  3  0
 13 14  1  0
 14 15  1  0
 14 16  2  0
 16 17  1  0
  5  7  1  0
  7  8  1  0
  8 20  1  0
 20 21  1  0
 20 22  1  0
 20 23  1  0
  8  9  1  0
  9  1  1  0
  9  4  1  0
 16 10  1  0
M  END
> <minimizedAffinity>
-2.67359

> <CNNscore>
0.4181800783

> <CNNaffinity>
7.4168152809

> <CNN_VS>
3.1015644073

> <CNNaffinity_variance>
0.4020624161

$$$$



 25 27  0  0  0  0  0  0  0  0999 V2000
   58.2391    1.0017    6.2378 C   0  0  0  0  0  0  0  0  0  0  0  0
   59.1502    2.2252    6.1166 C   0  0  0  0  0  0  0  0  0  0  0  0
   58.3127    3.2195    5.3208 C   0  0  0  0  0  0  0  0  0  0  0  0
   57.4277    2.3824    4.5098 N   0  0  0  0  0  0  0  0  0  0  0  0
   56.0950    2.6900    4.4448 C   0  0  0  0  0  0  0  0  0  0  0  0
   55.5803    3.8624    4.2895 N   0  0  0  0  0  0  0  0  0  0  0  0
   55.3373    1.5693    4.6240 O   0  0  0  0  0  0  0  0  0  0  0  0
   56.2048    0.4205    4.7475 C   0  0  0  0  0  0  0  0  0  0  0  0
   57.6159    0.9721    4.8331 C   0  0  0  0  0  0  0  0  0  0  0  0
   54.1817    3.9706    4.2520 C   0  0  0  0  0  0  0  0  0  0  0  0
   53.6244    5.2543    4.2534 C   0  0  0  0  0  0  0  0  0  0  0  0
   52.2435    5.4332    4.2195 C   0  0  0  0  0  0  0  0  0  0  0  0
   51.3952    4.3220    4.1811 C   0  0  0  0  0  0  0  0  0  0  0  0
   51.9434    3.0282    4.1599 C   0  0  0  0  0  0  0  0  0  0  0  0
   50.8853    1.6478    4.1312 Cl  0  0  0  0  0  0  0  0  0  0  0  0
   53.3440    2.8386    4.1707 C   0  0  0  0  0  0  0  0  0  0  0  0
   53.9404    1.4535    4.1412 C   0  0  0  0  0  0  0  0  0  0  0  0
   49.9789    4.5508    4.1640 C   0  0  0  0  0  0  0  0  0  0  0  0
   48.8302    4.7164    4.1871 N   0  0  0  0  0  0  0  0  0  0  0  0
   56.0659   -0.4969    3.5464 C   0  0  0  0  0  0  0  0  0  0  0  0
   57.1851   -1.2462    3.3968 F   0  0  0  0  0  0  0  0  0  0  0  0
   55.0358   -1.3581    3.7072 F   0  0  0  0  0  0  0  0  0  0  0  0
   55.8692    0.1754    2.3941 F   0  0  0  0  0  0  0  0  0  0  0  0
   60.4108    0.1945    6.7984 C   0  0  0  0  0  0  0  0  0  0  0  0
   59.0539   -0.1269    6.5309 O   0  0  0  0  0  0  0  0  0  0  0  0
 24 25  1  0
  1 25  1  0
  1  2  1  0
  2  3  1  0
  3  4  1  0
  4  5  1  0
  5  6  2  0
  6 10  1  0
 10 11  2  0
 11 12  1  0
 12 13  2  0
 13 18  1  0
 18 19  3  0
 13 14  1  0
 14 15  1  0
 14 16  2  0
 16 17  1  0
  5  7  1  0
  7  8  1  0
  8 20  1  0
 20 21  1  0
 20 22  1  0
 20 23  1  0
  8  9  1  0
  9  1  1  0
  9  4  1  0
 16 10  1  0
M  END
> <minimizedAffinity>
-3.98541

> <CNNscore>
0.4171018898

> <CNNaffinity>
7.1694245338

> <CNN_VS>
2.9903805256

> <CNNaffinity_variance>
0.0212439466

$$$$



 25 27  0  0  0  0  0  0  0  0999 V2000
   57.6107   -0.4806    3.9688 C   0  0  0  0  0  0  0  0  0  0  0  0
   58.1174   -0.3865    2.5279 C   0  0  0  0  0  0  0  0  0  0  0  0
   57.1596    0.6027    1.8741 C   0  0  0  0  0  0  0  0  0  0  0  0
   55.9143    0.4561    2.6288 N   0  0  0  0  0  0  0  0  0  0  0  0
   55.2519    1.5797    3.0453 C   0  0  0  0  0  0  0  0  0  0  0  0
   55.0281    2.6448    2.3532 N   0  0  0  0  0  0  0  0  0  0  0  0
   54.8840    1.4593    4.3538 O   0  0  0  0  0  0  0  0  0  0  0  0
   55.2551    0.1489    4.8361 C   0  0  0  0  0  0  0  0  0  0  0  0
   56.0914   -0.4778    3.7358 C   0  0  0  0  0  0  0  0  0  0  0  0
   54.3300    3.6967    2.9657 C   0  0  0  0  0  0  0  0  0  0  0  0
   54.9917    4.9205    3.1176 C   0  0  0  0  0  0  0  0  0  0  0  0
   54.3577    6.0051    3.7189 C   0  0  0  0  0  0  0  0  0  0  0  0
   53.0425    5.8800    4.1776 C   0  0  0  0  0  0  0  0  0  0  0  0
   52.3610    4.6621    4.0134 C   0  0  0  0  0  0  0  0  0  0  0  0
   50.7317    4.5038    4.6019 Cl  0  0  0  0  0  0  0  0  0  0  0  0
   52.9892    3.5638    3.3835 C   0  0  0  0  0  0  0  0  0  0  0  0
   52.2623    2.2553    3.1972 C   0  0  0  0  0  0  0  0  0  0  0  0
   52.4328    7.0167    4.8060 C   0  0  0  0  0  0  0  0  0  0  0  0
   51.9670    7.9610    5.2946 N   0  0  0  0  0  0  0  0  0  0  0  0
   54.0255   -0.6962    5.1141 C   0  0  0  0  0  0  0  0  0  0  0  0
   53.8987   -1.6634    4.1735 F   0  0  0  0  0  0  0  0  0  0  0  0
   54.1237   -1.3216    6.3091 F   0  0  0  0  0  0  0  0  0  0  0  0
   52.8849    0.0232    5.1145 F   0  0  0  0  0  0  0  0  0  0  0  0
   58.5822   -2.6209    3.5713 C   0  0  0  0  0  0  0  0  0  0  0  0
   58.1053   -1.6899    4.5315 O   0  0  0  0  0  0  0  0  0  0  0  0
 24 25  1  0
  1 25  1  0
  1  2  1  0
  2  3  1  0
  3  4  1  0
  4  5  1  0
  5  6  2  0
  6 10  1  0
 10 11  2  0
 11 12  1  0
 12 13  2  0
 13 18  1  0
 18 19  3  0
 13 14  1  0
 14 15  1  0
 14 16  2  0
 16 17  1  0
  5  7  1  0
  7  8  1  0
  8 20  1  0
 20 21  1  0
 20 22  1  0
 20 23  1  0
  8  9  1  0
  9  1  1  0
  9  4  1  0
 16 10  1  0
M  END
> <minimizedAffinity>
-2.23592

> <CNNscore>
0.4152912796

> <CNNaffinity>
7.4215011597

> <CNN_VS>
3.0820846558

> <CNNaffinity_variance>
0.7166901231

$$$$



 25 27  0  0  0  0  0  0  0  0999 V2000
   52.9914    6.2082    3.1808 C   0  0  0  0  0  0  0  0  0  0  0  0
   54.0379    7.1771    3.7356 C   0  0  0  0  0  0  0  0  0  0  0  0
   55.0561    6.2615    4.4050 C   0  0  0  0  0  0  0  0  0  0  0  0
   54.2820    5.0838    4.7996 N   0  0  0  0  0  0  0  0  0  0  0  0
   54.7835    3.8377    4.5338 C   0  0  0  0  0  0  0  0  0  0  0  0
   55.9971    3.4397    4.7135 N   0  0  0  0  0  0  0  0  0  0  0  0
   53.8205    3.0433    3.9826 O   0  0  0  0  0  0  0  0  0  0  0  0
   52.5718    3.7686    3.9356 C   0  0  0  0  0  0  0  0  0  0  0  0
   52.9040    5.1950    4.3332 C   0  0  0  0  0  0  0  0  0  0  0  0
   56.3160    2.1162    4.3732 C   0  0  0  0  0  0  0  0  0  0  0  0
   57.2627    1.4486    5.1584 C   0  0  0  0  0  0  0  0  0  0  0  0
   57.6268    0.1344    4.8745 C   0  0  0  0  0  0  0  0  0  0  0  0
   57.0425   -0.5353    3.7947 C   0  0  0  0  0  0  0  0  0  0  0  0
   56.0766    0.1181    3.0107 C   0  0  0  0  0  0  0  0  0  0  0  0
   55.3655   -0.7112    1.6569 Cl  0  0  0  0  0  0  0  0  0  0  0  0
   55.6847    1.4435    3.3061 C   0  0  0  0  0  0  0  0  0  0  0  0
   54.6437    2.1495    2.4736 C   0  0  0  0  0  0  0  0  0  0  0  0
   57.4584   -1.8822    3.5274 C   0  0  0  0  0  0  0  0  0  0  0  0
   57.8321   -2.9572    3.2988 N   0  0  0  0  0  0  0  0  0  0  0  0
   51.5602    3.1720    4.8970 C   0  0  0  0  0  0  0  0  0  0  0  0
   50.3002    3.4057    4.4565 F   0  0  0  0  0  0  0  0  0  0  0  0
   51.7029    1.8300    4.9838 F   0  0  0  0  0  0  0  0  0  0  0  0
   51.6574    3.6814    6.1418 F   0  0  0  0  0  0  0  0  0  0  0  0
   51.1933    7.4383    4.1482 C   0  0  0  0  0  0  0  0  0  0  0  0
   51.7894    6.9367    2.9612 O   0  0  0  0  0  0  0  0  0  0  0  0
 24 25  1  0
  1 25  1  0
  1  2  1  0
  2  3  1  0
  3  4  1  0
  4  5  1  0
  5  6  2  0
  6 10  1  0
 10 11  2  0
 11 12  1  0
 12 13  2  0
 13 18  1  0
 18 19  3  0
 13 14  1  0
 14 15  1  0
 14 16  2  0
 16 17  1  0
  5  7  1  0
  7  8  1  0
  8 20  1  0
 20 21  1  0
 20 22  1  0
 20 23  1  0
  8  9  1  0
  9  1  1  0
  9  4  1  0
 16 10  1  0
M  END
> <minimizedAffinity>
-4.02017

> <CNNscore>
0.3657568395

> <CNNaffinity>
7.3482413292

> <CNN_VS>
2.6876695156

> <CNNaffinity_variance>
0.1927220076

$$$$
