


 27 28  0  0  0  0  0  0  0  0999 V2000
   15.4192   20.5291   47.8966 C   0  0  0  0  0  0  0  0  0  0  0  0
   15.0430   21.8020   48.3402 C   0  0  0  0  0  0  0  0  0  0  0  0
   15.9971   22.7919   48.6591 C   0  0  0  0  0  0  0  0  0  0  0  0
   17.3643   22.4726   48.5451 C   0  0  0  0  0  0  0  0  0  0  0  0
   17.7409   21.1996   48.0643 C   0  0  0  0  0  0  0  0  0  0  0  0
   19.0633   20.8573   47.8884 O   0  0  0  0  0  0  0  0  0  0  0  0
   16.7834   20.2161   47.7519 C   0  0  0  0  0  0  0  0  0  0  0  0
   19.7377   21.4781   48.0827 H   0  0  0  0  0  0  0  0  0  0  0  0
   18.4606   23.4104   48.8909 C   0  0  0  0  0  0  0  0  0  0  0  0
   19.0534   23.4040   49.9580 O   0  0  0  0  0  0  0  0  0  0  0  0
   18.6892   24.3645   47.9768 O   0  0  0  0  0  0  0  0  0  0  0  0
   18.2252   24.3543   47.1628 H   0  0  0  0  0  0  0  0  0  0  0  0
   13.1657   19.7219   47.9014 C   0  0  0  0  0  0  0  0  0  0  0  0
   14.5348   19.5334   47.5698 O   0  0  0  0  0  0  0  0  0  0  0  0
   15.4700   24.1467   49.0837 C   0  0  0  0  0  0  0  0  0  0  0  0
   15.4897   24.3259   50.6058 C   0  0  0  0  0  0  0  0  0  0  0  0
   14.8658   25.6366   51.0171 C   0  0  0  0  0  0  0  0  0  0  0  0
   14.5907   25.8958   52.3663 C   0  0  0  0  0  0  0  0  0  0  0  0
   14.0321   27.1149   52.7524 C   0  0  0  0  0  0  0  0  0  0  0  0
   13.7477   28.0866   51.7946 C   0  0  0  0  0  0  0  0  0  0  0  0
   14.0226   27.8406   50.4506 C   0  0  0  0  0  0  0  0  0  0  0  0
   14.5812   26.6218   50.0625 C   0  0  0  0  0  0  0  0  0  0  0  0
   17.2144   18.8582   47.2277 C   0  0  0  0  0  0  0  0  0  0  0  0
   17.6116   18.9034   45.7735 C   0  0  0  0  0  0  0  0  0  0  0  0
   17.0484   18.2646   44.7287 C   0  0  0  0  0  0  0  0  0  0  0  0
   17.5934   18.4476   43.3364 C   0  0  0  0  0  0  0  0  0  0  0  0
   15.8761   17.3270   44.8127 C   0  0  0  0  0  0  0  0  0  0  0  0
 13 14  1  0
 14  1  1  0
  1  2  2  0
  2  3  1  0
  3 15  1  0
 15 16  1  0
 16 17  1  0
 17 18  2  0
 18 19  1  0
 19 20  2  0
 20 21  1  0
 21 22  2  0
  3  4  2  0
  4  9  1  0
  9 10  2  0
  9 11  1  0
  4  5  1  0
  5  6  1  0
  5  7  2  0
  7 23  1  0
 23 24  1  0
 24 25  2  0
 25 26  1  0
 25 27  1  0
  7  1  1  0
 22 17  1  0
 11 12  1  0
  6  8  1  0
M  END
> <minimizedAffinity>
-8.15831

> <CNNscore>
0.8957070112

> <CNNaffinity>
6.5130157471

> <CNN_VS>
5.8337540627

> <CNNaffinity_variance>
0.0207924340

$$$$



 27 28  0  0  0  0  0  0  0  0999 V2000
   17.9222   17.9766   45.3792 C   0  0  0  0  0  0  0  0  0  0  0  0
   17.5517   18.9148   46.3492 C   0  0  0  0  0  0  0  0  0  0  0  0
   18.4645   19.3857   47.3171 C   0  0  0  0  0  0  0  0  0  0  0  0
   19.7771   18.8744   47.3116 C   0  0  0  0  0  0  0  0  0  0  0  0
   20.1582   17.9543   46.3109 C   0  0  0  0  0  0  0  0  0  0  0  0
   21.4428   17.4638   46.2336 O   0  0  0  0  0  0  0  0  0  0  0  0
   19.2409   17.4863   45.3510 C   0  0  0  0  0  0  0  0  0  0  0  0
   22.0896   17.7453   46.8502 H   0  0  0  0  0  0  0  0  0  0  0  0
   20.8140   19.2573   48.3011 C   0  0  0  0  0  0  0  0  0  0  0  0
   21.3184   20.3669   48.3668 O   0  0  0  0  0  0  0  0  0  0  0  0
   21.2562   18.2486   49.0661 O   0  0  0  0  0  0  0  0  0  0  0  0
   20.8575   17.4030   49.0029 H   0  0  0  0  0  0  0  0  0  0  0  0
   15.7000   17.3598   44.7381 C   0  0  0  0  0  0  0  0  0  0  0  0
   17.0779   17.4894   44.4147 O   0  0  0  0  0  0  0  0  0  0  0  0
   17.9618   20.4353   48.2863 C   0  0  0  0  0  0  0  0  0  0  0  0
   17.5866   21.7437   47.5815 C   0  0  0  0  0  0  0  0  0  0  0  0
   16.8784   22.6927   48.5165 C   0  0  0  0  0  0  0  0  0  0  0  0
   17.6084   23.6340   49.2545 C   0  0  0  0  0  0  0  0  0  0  0  0
   16.9547   24.5264   50.1050 C   0  0  0  0  0  0  0  0  0  0  0  0
   15.5665   24.4890   50.2223 C   0  0  0  0  0  0  0  0  0  0  0  0
   14.8308   23.5601   49.4885 C   0  0  0  0  0  0  0  0  0  0  0  0
   15.4828   22.6665   48.6373 C   0  0  0  0  0  0  0  0  0  0  0  0
   19.6786   16.5040   44.2796 C   0  0  0  0  0  0  0  0  0  0  0  0
   20.8508   15.6618   44.7166 C   0  0  0  0  0  0  0  0  0  0  0  0
   21.7678   15.0369   43.9514 C   0  0  0  0  0  0  0  0  0  0  0  0
   22.8786   14.2412   44.5852 C   0  0  0  0  0  0  0  0  0  0  0  0
   21.7930   15.0403   42.4482 C   0  0  0  0  0  0  0  0  0  0  0  0
 13 14  1  0
 14  1  1  0
  1  2  2  0
  2  3  1  0
  3 15  1  0
 15 16  1  0
 16 17  1  0
 17 18  2  0
 18 19  1  0
 19 20  2  0
 20 21  1  0
 21 22  2  0
  3  4  2  0
  4  9  1  0
  9 10  2  0
  9 11  1  0
  4  5  1  0
  5  6  1  0
  5  7  2  0
  7 23  1  0
 23 24  1  0
 24 25  2  0
 25 26  1  0
 25 27  1  0
  7  1  1  0
 22 17  1  0
 11 12  1  0
  6  8  1  0
M  END
> <minimizedAffinity>
-7.60509

> <CNNscore>
0.6757899523

> <CNNaffinity>
6.1157264709

> <CNN_VS>
4.1329464912

> <CNNaffinity_variance>
0.0003325062

$$$$



 27 28  0  0  0  0  0  0  0  0999 V2000
   16.9385   24.0938   50.2206 C   0  0  0  0  0  0  0  0  0  0  0  0
   16.9145   23.1764   49.1640 C   0  0  0  0  0  0  0  0  0  0  0  0
   18.0527   22.9275   48.3676 C   0  0  0  0  0  0  0  0  0  0  0  0
   19.2350   23.6438   48.6381 C   0  0  0  0  0  0  0  0  0  0  0  0
   19.2670   24.5430   49.7262 C   0  0  0  0  0  0  0  0  0  0  0  0
   20.4130   25.2293   50.0611 O   0  0  0  0  0  0  0  0  0  0  0  0
   18.1263   24.7888   50.5137 C   0  0  0  0  0  0  0  0  0  0  0  0
   21.1982   25.0996   49.5666 H   0  0  0  0  0  0  0  0  0  0  0  0
   20.4822   23.5032   47.8470 C   0  0  0  0  0  0  0  0  0  0  0  0
   21.3498   22.6772   48.0813 O   0  0  0  0  0  0  0  0  0  0  0  0
   20.6538   24.4398   46.9028 O   0  0  0  0  0  0  0  0  0  0  0  0
   19.9773   25.0663   46.7359 H   0  0  0  0  0  0  0  0  0  0  0  0
   14.5821   24.4641   50.4214 C   0  0  0  0  0  0  0  0  0  0  0  0
   15.8644   24.3700   51.0271 O   0  0  0  0  0  0  0  0  0  0  0  0
   17.9197   21.8790   47.2829 C   0  0  0  0  0  0  0  0  0  0  0  0
   18.3537   20.4894   47.7626 C   0  0  0  0  0  0  0  0  0  0  0  0
   17.5039   19.4025   47.1520 C   0  0  0  0  0  0  0  0  0  0  0  0
   16.6427   18.6434   47.9554 C   0  0  0  0  0  0  0  0  0  0  0  0
   15.8407   17.6509   47.3907 C   0  0  0  0  0  0  0  0  0  0  0  0
   15.8891   17.4113   46.0187 C   0  0  0  0  0  0  0  0  0  0  0  0
   16.7385   18.1644   45.2101 C   0  0  0  0  0  0  0  0  0  0  0  0
   17.5415   19.1577   45.7730 C   0  0  0  0  0  0  0  0  0  0  0  0
   18.1897   25.7536   51.6840 C   0  0  0  0  0  0  0  0  0  0  0  0
   16.8231   26.0913   52.2250 C   0  0  0  0  0  0  0  0  0  0  0  0
   16.4845   26.4747   53.4720 C   0  0  0  0  0  0  0  0  0  0  0  0
   15.0494   26.7767   53.8162 C   0  0  0  0  0  0  0  0  0  0  0  0
   17.4394   26.6294   54.6230 C   0  0  0  0  0  0  0  0  0  0  0  0
 13 14  1  0
 14  1  1  0
  1  2  2  0
  2  3  1  0
  3 15  1  0
 15 16  1  0
 16 17  1  0
 17 18  2  0
 18 19  1  0
 19 20  2  0
 20 21  1  0
 21 22  2  0
  3  4  2  0
  4  9  1  0
  9 10  2  0
  9 11  1  0
  4  5  1  0
  5  6  1  0
  5  7  2  0
  7 23  1  0
 23 24  1  0
 24 25  2  0
 25 26  1  0
 25 27  1  0
  7  1  1  0
 22 17  1  0
 11 12  1  0
  6  8  1  0
M  END
> <minimizedAffinity>
-7.75410

> <CNNscore>
0.6586090326

> <CNNaffinity>
5.9673953056

> <CNN_VS>
3.9301805496

> <CNNaffinity_variance>
0.0029777701

$$$$



 27 28  0  0  0  0  0  0  0  0999 V2000
   15.5926   22.3151   48.4357 C   0  0  0  0  0  0  0  0  0  0  0  0
   15.1056   23.4416   49.1083 C   0  0  0  0  0  0  0  0  0  0  0  0
   15.9102   24.5782   49.3372 C   0  0  0  0  0  0  0  0  0  0  0  0
   17.2463   24.5598   48.8914 C   0  0  0  0  0  0  0  0  0  0  0  0
   17.7249   23.4365   48.1826 C   0  0  0  0  0  0  0  0  0  0  0  0
   19.0077   23.3915   47.6836 O   0  0  0  0  0  0  0  0  0  0  0  0
   16.9174   22.3048   47.9615 C   0  0  0  0  0  0  0  0  0  0  0  0
   19.5836   24.1205   47.8053 H   0  0  0  0  0  0  0  0  0  0  0  0
   18.2024   25.6731   49.1092 C   0  0  0  0  0  0  0  0  0  0  0  0
   18.1489   26.7432   48.5244 O   0  0  0  0  0  0  0  0  0  0  0  0
   19.2236   25.3808   49.9277 O   0  0  0  0  0  0  0  0  0  0  0  0
   19.2488   24.5545   50.3688 H   0  0  0  0  0  0  0  0  0  0  0  0
   14.2650   20.5149   49.2880 C   0  0  0  0  0  0  0  0  0  0  0  0
   14.8537   21.1879   48.1833 O   0  0  0  0  0  0  0  0  0  0  0  0
   15.2596   25.7548   50.0345 C   0  0  0  0  0  0  0  0  0  0  0  0
   14.6188   25.3566   51.3688 C   0  0  0  0  0  0  0  0  0  0  0  0
   15.4361   25.8397   52.5414 C   0  0  0  0  0  0  0  0  0  0  0  0
   16.8285   25.6835   52.5447 C   0  0  0  0  0  0  0  0  0  0  0  0
   17.5894   26.1471   53.6186 C   0  0  0  0  0  0  0  0  0  0  0  0
   16.9664   26.7743   54.6959 C   0  0  0  0  0  0  0  0  0  0  0  0
   15.5824   26.9393   54.6999 C   0  0  0  0  0  0  0  0  0  0  0  0
   14.8196   26.4762   53.6266 C   0  0  0  0  0  0  0  0  0  0  0  0
   17.4532   21.1134   47.1881 C   0  0  0  0  0  0  0  0  0  0  0  0
   18.7414   20.5847   47.7673 C   0  0  0  0  0  0  0  0  0  0  0  0
   19.2530   19.3407   47.6810 C   0  0  0  0  0  0  0  0  0  0  0  0
   20.5717   19.0094   48.3292 C   0  0  0  0  0  0  0  0  0  0  0  0
   18.6043   18.1812   46.9772 C   0  0  0  0  0  0  0  0  0  0  0  0
 13 14  1  0
 14  1  1  0
  1  2  2  0
  2  3  1  0
  3 15  1  0
 15 16  1  0
 16 17  1  0
 17 18  2  0
 18 19  1  0
 19 20  2  0
 20 21  1  0
 21 22  2  0
  3  4  2  0
  4  9  1  0
  9 10  2  0
  9 11  1  0
  4  5  1  0
  5  6  1  0
  5  7  2  0
  7 23  1  0
 23 24  1  0
 24 25  2  0
 25 26  1  0
 25 27  1  0
  7  1  1  0
 22 17  1  0
 11 12  1  0
  6  8  1  0
M  END
> <minimizedAffinity>
-7.91776

> <CNNscore>
0.6450719833

> <CNNaffinity>
6.0723423958

> <CNN_VS>
3.9170980453

> <CNNaffinity_variance>
0.0118440101

$$$$



 27 28  0  0  0  0  0  0  0  0999 V2000
   16.5796   20.3144   47.6663 C   0  0  0  0  0  0  0  0  0  0  0  0
   17.0688   21.5586   48.0799 C   0  0  0  0  0  0  0  0  0  0  0  0
   18.4491   21.7958   48.2543 C   0  0  0  0  0  0  0  0  0  0  0  0
   19.3497   20.7374   48.0241 C   0  0  0  0  0  0  0  0  0  0  0  0
   18.8568   19.4935   47.5735 C   0  0  0  0  0  0  0  0  0  0  0  0
   19.7012   18.4439   47.2873 O   0  0  0  0  0  0  0  0  0  0  0  0
   17.4781   19.2634   47.4056 C   0  0  0  0  0  0  0  0  0  0  0  0
   20.6274   18.5481   47.3837 H   0  0  0  0  0  0  0  0  0  0  0  0
   20.8169   20.8487   48.2141 C   0  0  0  0  0  0  0  0  0  0  0  0
   21.4813   21.8069   47.8531 O   0  0  0  0  0  0  0  0  0  0  0  0
   21.3999   19.7517   48.7190 O   0  0  0  0  0  0  0  0  0  0  0  0
   20.8747   19.0251   48.9913 H   0  0  0  0  0  0  0  0  0  0  0  0
   14.2939   20.9231   48.0336 C   0  0  0  0  0  0  0  0  0  0  0  0
   15.2511   20.0318   47.4775 O   0  0  0  0  0  0  0  0  0  0  0  0
   18.8627   23.1952   48.6596 C   0  0  0  0  0  0  0  0  0  0  0  0
   18.2925   23.5963   50.0246 C   0  0  0  0  0  0  0  0  0  0  0  0
   18.5128   25.0619   50.3075 C   0  0  0  0  0  0  0  0  0  0  0  0
   18.4748   25.9966   49.2643 C   0  0  0  0  0  0  0  0  0  0  0  0
   18.6583   27.3550   49.5253 C   0  0  0  0  0  0  0  0  0  0  0  0
   18.8770   27.7915   50.8306 C   0  0  0  0  0  0  0  0  0  0  0  0
   18.9114   26.8704   51.8760 C   0  0  0  0  0  0  0  0  0  0  0  0
   18.7281   25.5111   51.6170 C   0  0  0  0  0  0  0  0  0  0  0  0
   16.9746   17.9195   46.9108 C   0  0  0  0  0  0  0  0  0  0  0  0
   16.5745   17.9556   45.4572 C   0  0  0  0  0  0  0  0  0  0  0  0
   17.3198   17.6618   44.3732 C   0  0  0  0  0  0  0  0  0  0  0  0
   16.7286   17.7531   42.9908 C   0  0  0  0  0  0  0  0  0  0  0  0
   18.7630   17.2409   44.3991 C   0  0  0  0  0  0  0  0  0  0  0  0
 13 14  1  0
 14  1  1  0
  1  2  2  0
  2  3  1  0
  3 15  1  0
 15 16  1  0
 16 17  1  0
 17 18  2  0
 18 19  1  0
 19 20  2  0
 20 21  1  0
 21 22  2  0
  3  4  2  0
  4  9  1  0
  9 10  2  0
  9 11  1  0
  4  5  1  0
  5  6  1  0
  5  7  2  0
  7 23  1  0
 23 24  1  0
 24 25  2  0
 25 26  1  0
 25 27  1  0
  7  1  1  0
 22 17  1  0
 11 12  1  0
  6  8  1  0
M  END
> <minimizedAffinity>
-7.15209

> <CNNscore>
0.6444239020

> <CNNaffinity>
6.1588807106

> <CNN_VS>
3.9689300060

> <CNNaffinity_variance>
0.1428092569

$$$$



 27 28  0  0  0  0  0  0  0  0999 V2000
   16.1571   23.3359   49.5779 C   0  0  0  0  0  0  0  0  0  0  0  0
   17.1642   24.1247   50.1453 C   0  0  0  0  0  0  0  0  0  0  0  0
   18.4907   24.0988   49.6640 C   0  0  0  0  0  0  0  0  0  0  0  0
   18.8043   23.2350   48.5965 C   0  0  0  0  0  0  0  0  0  0  0  0
   17.7794   22.4662   48.0032 C   0  0  0  0  0  0  0  0  0  0  0  0
   18.0259   21.6446   46.9257 O   0  0  0  0  0  0  0  0  0  0  0  0
   16.4593   22.4945   48.4913 C   0  0  0  0  0  0  0  0  0  0  0  0
   18.8890   21.5915   46.5648 H   0  0  0  0  0  0  0  0  0  0  0  0
   20.1677   23.0858   48.0312 C   0  0  0  0  0  0  0  0  0  0  0  0
   20.7305   23.9441   47.3704 O   0  0  0  0  0  0  0  0  0  0  0  0
   20.7133   21.8726   48.2002 O   0  0  0  0  0  0  0  0  0  0  0  0
   20.2676   21.2254   48.7107 H   0  0  0  0  0  0  0  0  0  0  0  0
   14.3496   24.4935   50.6375 C   0  0  0  0  0  0  0  0  0  0  0  0
   14.8534   23.3258   50.0031 O   0  0  0  0  0  0  0  0  0  0  0  0
   19.4834   25.0308   50.3272 C   0  0  0  0  0  0  0  0  0  0  0  0
   18.9365   26.4557   50.4684 C   0  0  0  0  0  0  0  0  0  0  0  0
   18.5311   26.7547   51.8906 C   0  0  0  0  0  0  0  0  0  0  0  0
   18.5486   28.0717   52.3684 C   0  0  0  0  0  0  0  0  0  0  0  0
   18.1551   28.3542   53.6771 C   0  0  0  0  0  0  0  0  0  0  0  0
   17.7370   27.3243   54.5177 C   0  0  0  0  0  0  0  0  0  0  0  0
   17.7109   26.0116   54.0503 C   0  0  0  0  0  0  0  0  0  0  0  0
   18.1041   25.7270   52.7417 C   0  0  0  0  0  0  0  0  0  0  0  0
   15.3737   21.6652   47.8294 C   0  0  0  0  0  0  0  0  0  0  0  0
   15.7177   20.1975   47.7863 C   0  0  0  0  0  0  0  0  0  0  0  0
   14.9091   19.1389   47.9919 C   0  0  0  0  0  0  0  0  0  0  0  0
   15.4475   17.7353   47.8962 C   0  0  0  0  0  0  0  0  0  0  0  0
   13.4480   19.2156   48.3378 C   0  0  0  0  0  0  0  0  0  0  0  0
 13 14  1  0
 14  1  1  0
  1  2  2  0
  2  3  1  0
  3 15  1  0
 15 16  1  0
 16 17  1  0
 17 18  2  0
 18 19  1  0
 19 20  2  0
 20 21  1  0
 21 22  2  0
  3  4  2  0
  4  9  1  0
  9 10  2  0
  9 11  1  0
  4  5  1  0
  5  6  1  0
  5  7  2  0
  7 23  1  0
 23 24  1  0
 24 25  2  0
 25 26  1  0
 25 27  1  0
  7  1  1  0
 22 17  1  0
 11 12  1  0
  6  8  1  0
M  END
> <minimizedAffinity>
-7.35966

> <CNNscore>
0.6274117231

> <CNNaffinity>
6.0031151772

> <CNN_VS>
3.7664248943

> <CNNaffinity_variance>
0.0201957952

$$$$



 27 28  0  0  0  0  0  0  0  0999 V2000
   18.2042   18.6136   46.7775 C   0  0  0  0  0  0  0  0  0  0  0  0
   18.1779   19.8161   47.4930 C   0  0  0  0  0  0  0  0  0  0  0  0
   19.3452   20.3717   48.0591 C   0  0  0  0  0  0  0  0  0  0  0  0
   20.5622   19.6775   47.9128 C   0  0  0  0  0  0  0  0  0  0  0  0
   20.5924   18.4828   47.1611 C   0  0  0  0  0  0  0  0  0  0  0  0
   21.7660   17.7943   46.9481 O   0  0  0  0  0  0  0  0  0  0  0  0
   19.4231   17.9327   46.6027 C   0  0  0  0  0  0  0  0  0  0  0  0
   22.5710   18.1204   47.2997 H   0  0  0  0  0  0  0  0  0  0  0  0
   21.8467   20.1354   48.4971 C   0  0  0  0  0  0  0  0  0  0  0  0
   22.4022   21.1786   48.1919 O   0  0  0  0  0  0  0  0  0  0  0  0
   22.4321   19.2535   49.3205 O   0  0  0  0  0  0  0  0  0  0  0  0
   21.9914   18.4575   49.5443 H   0  0  0  0  0  0  0  0  0  0  0  0
   15.8195   18.4447   46.6569 C   0  0  0  0  0  0  0  0  0  0  0  0
   17.1022   18.0327   46.2043 O   0  0  0  0  0  0  0  0  0  0  0  0
   19.2014   21.7008   48.7709 C   0  0  0  0  0  0  0  0  0  0  0  0
   18.3742   22.7059   47.9616 C   0  0  0  0  0  0  0  0  0  0  0  0
   17.1938   23.2148   48.7516 C   0  0  0  0  0  0  0  0  0  0  0  0
   15.9126   22.6968   48.5205 C   0  0  0  0  0  0  0  0  0  0  0  0
   14.8220   23.1510   49.2632 C   0  0  0  0  0  0  0  0  0  0  0  0
   15.0028   24.1229   50.2455 C   0  0  0  0  0  0  0  0  0  0  0  0
   16.2741   24.6406   50.4867 C   0  0  0  0  0  0  0  0  0  0  0  0
   17.3663   24.1877   49.7449 C   0  0  0  0  0  0  0  0  0  0  0  0
   19.4843   16.6516   45.7907 C   0  0  0  0  0  0  0  0  0  0  0  0
   19.9723   16.8863   44.3831 C   0  0  0  0  0  0  0  0  0  0  0  0
   19.2526   17.1874   43.2839 C   0  0  0  0  0  0  0  0  0  0  0  0
   19.9340   17.3927   41.9562 C   0  0  0  0  0  0  0  0  0  0  0  0
   17.7572   17.3362   43.2380 C   0  0  0  0  0  0  0  0  0  0  0  0
 13 14  1  0
 14  1  1  0
  1  2  2  0
  2  3  1  0
  3 15  1  0
 15 16  1  0
 16 17  1  0
 17 18  2  0
 18 19  1  0
 19 20  2  0
 20 21  1  0
 21 22  2  0
  3  4  2  0
  4  9  1  0
  9 10  2  0
  9 11  1  0
  4  5  1  0
  5  6  1  0
  5  7  2  0
  7 23  1  0
 23 24  1  0
 24 25  2  0
 25 26  1  0
 25 27  1  0
  7  1  1  0
 22 17  1  0
 11 12  1  0
  6  8  1  0
M  END
> <minimizedAffinity>
-6.95539

> <CNNscore>
0.6124647856

> <CNNaffinity>
6.3793735504

> <CNN_VS>
3.9071416855

> <CNNaffinity_variance>
0.0715485439

$$$$



 27 28  0  0  0  0  0  0  0  0999 V2000
   16.5670   23.4636   49.4901 C   0  0  0  0  0  0  0  0  0  0  0  0
   17.6606   24.2388   49.8919 C   0  0  0  0  0  0  0  0  0  0  0  0
   18.9483   24.0498   49.3462 C   0  0  0  0  0  0  0  0  0  0  0  0
   19.1321   23.0350   48.3867 C   0  0  0  0  0  0  0  0  0  0  0  0
   18.0205   22.2776   47.9575 C   0  0  0  0  0  0  0  0  0  0  0  0
   18.1398   21.3085   46.9863 O   0  0  0  0  0  0  0  0  0  0  0  0
   16.7397   22.4695   48.5093 C   0  0  0  0  0  0  0  0  0  0  0  0
   18.9721   21.1436   46.5888 H   0  0  0  0  0  0  0  0  0  0  0  0
   20.4427   22.7105   47.7720 C   0  0  0  0  0  0  0  0  0  0  0  0
   20.9196   23.3125   46.8232 O   0  0  0  0  0  0  0  0  0  0  0  0
   21.0349   21.6129   48.2649 O   0  0  0  0  0  0  0  0  0  0  0  0
   20.6551   21.1630   48.9938 H   0  0  0  0  0  0  0  0  0  0  0  0
   14.7960   24.9263   50.1639 C   0  0  0  0  0  0  0  0  0  0  0  0
   15.2958   23.6081   49.9838 O   0  0  0  0  0  0  0  0  0  0  0  0
   20.0436   24.9799   49.8247 C   0  0  0  0  0  0  0  0  0  0  0  0
   21.0488   25.3113   48.7160 C   0  0  0  0  0  0  0  0  0  0  0  0
   20.6752   26.5808   47.9913 C   0  0  0  0  0  0  0  0  0  0  0  0
   21.5250   27.6941   48.0320 C   0  0  0  0  0  0  0  0  0  0  0  0
   21.1921   28.8630   47.3465 C   0  0  0  0  0  0  0  0  0  0  0  0
   20.0099   28.9281   46.6113 C   0  0  0  0  0  0  0  0  0  0  0  0
   19.1604   27.8244   46.5601 C   0  0  0  0  0  0  0  0  0  0  0  0
   19.4917   26.6543   47.2452 C   0  0  0  0  0  0  0  0  0  0  0  0
   15.5591   21.6482   48.0236 C   0  0  0  0  0  0  0  0  0  0  0  0
   15.8965   20.1852   47.8815 C   0  0  0  0  0  0  0  0  0  0  0  0
   15.0973   19.1165   48.0717 C   0  0  0  0  0  0  0  0  0  0  0  0
   15.6262   17.7205   47.8702 C   0  0  0  0  0  0  0  0  0  0  0  0
   13.6570   19.1736   48.4992 C   0  0  0  0  0  0  0  0  0  0  0  0
 13 14  1  0
 14  1  1  0
  1  2  2  0
  2  3  1  0
  3 15  1  0
 15 16  1  0
 16 17  1  0
 17 18  2  0
 18 19  1  0
 19 20  2  0
 20 21  1  0
 21 22  2  0
  3  4  2  0
  4  9  1  0
  9 10  2  0
  9 11  1  0
  4  5  1  0
  5  6  1  0
  5  7  2  0
  7 23  1  0
 23 24  1  0
 24 25  2  0
 25 26  1  0
 25 27  1  0
  7  1  1  0
 22 17  1  0
 11 12  1  0
  6  8  1  0
M  END
> <minimizedAffinity>
-6.82160

> <CNNscore>
0.6006339788

> <CNNaffinity>
5.5727705956

> <CNN_VS>
3.3471953869

> <CNNaffinity_variance>
0.0141390739

$$$$



 27 28  0  0  0  0  0  0  0  0999 V2000
   17.2460   21.7594   47.8805 C   0  0  0  0  0  0  0  0  0  0  0  0
   16.8561   20.4206   47.7624 C   0  0  0  0  0  0  0  0  0  0  0  0
   17.7968   19.3686   47.7549 C   0  0  0  0  0  0  0  0  0  0  0  0
   19.1658   19.6871   47.8473 C   0  0  0  0  0  0  0  0  0  0  0  0
   19.5546   21.0356   48.0013 C   0  0  0  0  0  0  0  0  0  0  0  0
   20.8768   21.3930   48.1455 O   0  0  0  0  0  0  0  0  0  0  0  0
   18.6106   22.0799   48.0042 C   0  0  0  0  0  0  0  0  0  0  0  0
   21.5426   20.7337   48.1498 H   0  0  0  0  0  0  0  0  0  0  0  0
   20.2510   18.6763   47.8070 C   0  0  0  0  0  0  0  0  0  0  0  0
   20.4263   17.8993   46.8821 O   0  0  0  0  0  0  0  0  0  0  0  0
   20.9777   18.5913   48.9308 O   0  0  0  0  0  0  0  0  0  0  0  0
   20.8300   19.1960   49.6311 H   0  0  0  0  0  0  0  0  0  0  0  0
   15.2093   22.7100   48.7038 C   0  0  0  0  0  0  0  0  0  0  0  0
   16.3747   22.8181   47.8976 O   0  0  0  0  0  0  0  0  0  0  0  0
   17.2531   17.9576   47.6690 C   0  0  0  0  0  0  0  0  0  0  0  0
   15.9983   17.8717   46.7930 C   0  0  0  0  0  0  0  0  0  0  0  0
   16.3499   17.6537   45.3421 C   0  0  0  0  0  0  0  0  0  0  0  0
   15.3899   17.1602   44.4487 C   0  0  0  0  0  0  0  0  0  0  0  0
   15.7058   16.9763   43.1020 C   0  0  0  0  0  0  0  0  0  0  0  0
   16.9817   17.2878   42.6358 C   0  0  0  0  0  0  0  0  0  0  0  0
   17.9422   17.7843   43.5153 C   0  0  0  0  0  0  0  0  0  0  0  0
   17.6280   17.9689   44.8627 C   0  0  0  0  0  0  0  0  0  0  0  0
   19.0541   23.5209   48.1808 C   0  0  0  0  0  0  0  0  0  0  0  0
   19.0990   23.9347   49.6303 C   0  0  0  0  0  0  0  0  0  0  0  0
   18.3789   24.8879   50.2545 C   0  0  0  0  0  0  0  0  0  0  0  0
   18.5669   25.1478   51.7262 C   0  0  0  0  0  0  0  0  0  0  0  0
   17.3599   25.7770   49.5975 C   0  0  0  0  0  0  0  0  0  0  0  0
 13 14  1  0
 14  1  1  0
  1  2  2  0
  2  3  1  0
  3 15  1  0
 15 16  1  0
 16 17  1  0
 17 18  2  0
 18 19  1  0
 19 20  2  0
 20 21  1  0
 21 22  2  0
  3  4  2  0
  4  9  1  0
  9 10  2  0
  9 11  1  0
  4  5  1  0
  5  6  1  0
  5  7  2  0
  7 23  1  0
 23 24  1  0
 24 25  2  0
 25 26  1  0
 25 27  1  0
  7  1  1  0
 22 17  1  0
 11 12  1  0
  6  8  1  0
M  END
> <minimizedAffinity>
-8.27943

> <CNNscore>
0.5526592731

> <CNNaffinity>
5.9751949310

> <CNN_VS>
3.3022468090

> <CNNaffinity_variance>
0.0385348685

$$$$
