


 21 21  0  0  0  0  0  0  0  0999 V2000
    8.1426   -8.4800   17.5297 C   0  0  0  0  0  0  0  0  0  0  0  0
    9.0103   -8.5842   18.7995 C   0  0  0  0  0  0  0  0  0  0  0  0
    8.5351   -7.5562   19.7421 N   0  0  0  0  0  0  0  0  0  0  0  0
    7.3334   -6.9501   19.1549 C   0  0  0  0  0  0  0  0  0  0  0  0
    7.5588   -7.0511   17.6300 C   0  0  0  0  0  0  0  0  0  0  0  0
    9.2547   -6.8459   19.8763 H   0  0  0  0  0  0  0  0  0  0  0  0
   10.0000   -9.4190   16.1319 C   0  0  0  0  0  0  0  0  0  0  0  0
    8.7503   -8.9274   16.2100 C   0  0  0  0  0  0  0  0  0  0  0  0
    7.9484   -8.7222   14.9526 C   0  0  0  0  0  0  0  0  0  0  0  0
    7.0102   -5.5359   19.6728 C   0  0  0  0  0  0  0  0  0  0  0  0
    5.5432   -5.2286   20.1244 C   0  0  0  0  0  0  0  0  0  0  0  0
    5.6053   -4.8989   21.6338 C   0  0  0  0  0  0  0  0  0  0  0  0
    4.6363   -6.4599   19.9491 C   0  0  0  0  0  0  0  0  0  0  0  0
    4.9786   -4.0174   19.3287 C   0  0  0  0  0  0  0  0  0  0  0  0
    3.9838   -3.1257   20.0828 C   0  0  0  0  0  0  0  0  0  0  0  0
    3.8001   -1.7885   19.3781 C   0  0  0  0  0  0  0  0  0  0  0  0
    8.3964   -5.9276   16.9870 C   0  0  0  0  0  0  0  0  0  0  0  0
    9.8474   -5.8526   17.3818 C   0  0  0  0  0  0  0  0  0  0  0  0
   10.2888   -5.5770   18.4854 O   0  0  0  0  0  0  0  0  0  0  0  0
   10.6846   -6.1101   16.3603 O   0  0  0  0  0  0  0  0  0  0  0  0
   10.3408   -6.3214   15.5146 H   0  0  0  0  0  0  0  0  0  0  0  0
  7  8  2  0
  8  9  1  0
  1  8  1  0
  1  2  1  0
  2  3  1  0
  3  4  1  0
  4 10  1  0
 10 11  1  0
 11 12  1  0
 11 13  1  0
 11 14  1  0
 14 15  1  0
 15 16  1  0
  4  5  1  0
  5 17  1  0
 17 18  1  0
 18 19  2  0
 18 20  1  0
  5  1  1  0
  3  6  1  0
 20 21  1  0
M  END
> <minimizedAffinity>
-4.19426

> <CNNscore>
0.2420097142

> <CNNaffinity>
4.4947619438

> <CNN_VS>
1.0877760649

> <CNNaffinity_variance>
0.3766997159

$$$$



 21 21  0  0  0  0  0  0  0  0999 V2000
   19.9488   -5.8783   24.6199 C   0  0  0  0  0  0  0  0  0  0  0  0
   20.5216   -7.2691   24.9572 C   0  0  0  0  0  0  0  0  0  0  0  0
   21.3623   -7.6855   23.8210 N   0  0  0  0  0  0  0  0  0  0  0  0
   21.4371   -6.5479   22.8955 C   0  0  0  0  0  0  0  0  0  0  0  0
   20.0908   -5.8134   23.0809 C   0  0  0  0  0  0  0  0  0  0  0  0
   20.9440   -8.4896   23.3532 H   0  0  0  0  0  0  0  0  0  0  0  0
   17.9619   -4.3703   24.8710 C   0  0  0  0  0  0  0  0  0  0  0  0
   18.6218   -5.4807   25.2461 C   0  0  0  0  0  0  0  0  0  0  0  0
   18.0921   -6.3174   26.3799 C   0  0  0  0  0  0  0  0  0  0  0  0
   21.7777   -6.9256   21.4416 C   0  0  0  0  0  0  0  0  0  0  0  0
   22.7123   -5.9704   20.6265 C   0  0  0  0  0  0  0  0  0  0  0  0
   21.8493   -5.3681   19.4937 C   0  0  0  0  0  0  0  0  0  0  0  0
   23.8701   -6.7466   19.9735 C   0  0  0  0  0  0  0  0  0  0  0  0
   23.2618   -4.8427   21.5460 C   0  0  0  0  0  0  0  0  0  0  0  0
   23.0359   -3.4074   21.0537 C   0  0  0  0  0  0  0  0  0  0  0  0
   24.3451   -2.7619   20.6207 C   0  0  0  0  0  0  0  0  0  0  0  0
   18.8995   -6.3535   22.2646 C   0  0  0  0  0  0  0  0  0  0  0  0
   18.4009   -7.7286   22.6211 C   0  0  0  0  0  0  0  0  0  0  0  0
   18.9625   -8.7882   22.3959 O   0  0  0  0  0  0  0  0  0  0  0  0
   17.2017   -7.7117   23.2313 O   0  0  0  0  0  0  0  0  0  0  0  0
   16.7745   -6.8954   23.4021 H   0  0  0  0  0  0  0  0  0  0  0  0
  7  8  2  0
  8  9  1  0
  1  8  1  0
  1  2  1  0
  2  3  1  0
  3  4  1  0
  4 10  1  0
 10 11  1  0
 11 12  1  0
 11 13  1  0
 11 14  1  0
 14 15  1  0
 15 16  1  0
  4  5  1  0
  5 17  1  0
 17 18  1  0
 18 19  2  0
 18 20  1  0
  5  1  1  0
  3  6  1  0
 20 21  1  0
M  END
> <minimizedAffinity>
-4.28710

> <CNNscore>
0.1820470989

> <CNNaffinity>
3.3110246658

> <CNN_VS>
0.6027624607

> <CNNaffinity_variance>
1.0041691065

$$$$



 21 21  0  0  0  0  0  0  0  0999 V2000
   18.4969   -5.9021   21.9786 C   0  0  0  0  0  0  0  0  0  0  0  0
   18.0122   -6.8511   23.0924 C   0  0  0  0  0  0  0  0  0  0  0  0
   16.5652   -7.0518   22.8999 N   0  0  0  0  0  0  0  0  0  0  0  0
   16.1982   -6.3909   21.6410 C   0  0  0  0  0  0  0  0  0  0  0  0
   17.1894   -5.2119   21.5236 C   0  0  0  0  0  0  0  0  0  0  0  0
   16.0487   -6.6372   23.6757 H   0  0  0  0  0  0  0  0  0  0  0  0
   20.3346   -4.3453   21.2826 C   0  0  0  0  0  0  0  0  0  0  0  0
   19.7174   -5.0392   22.2557 C   0  0  0  0  0  0  0  0  0  0  0  0
   20.2913   -5.0459   23.6474 C   0  0  0  0  0  0  0  0  0  0  0  0
   14.7113   -6.0047   21.5294 C   0  0  0  0  0  0  0  0  0  0  0  0
   13.6833   -7.1178   21.1361 C   0  0  0  0  0  0  0  0  0  0  0  0
   13.0213   -6.6614   19.8155 C   0  0  0  0  0  0  0  0  0  0  0  0
   12.5748   -7.2526   22.1956 C   0  0  0  0  0  0  0  0  0  0  0  0
   14.4130   -8.4763   20.9344 C   0  0  0  0  0  0  0  0  0  0  0  0
   13.7396   -9.6994   21.5700 C   0  0  0  0  0  0  0  0  0  0  0  0
   14.5972  -10.2821   22.6850 C   0  0  0  0  0  0  0  0  0  0  0  0
   16.8063   -3.9197   22.2724 C   0  0  0  0  0  0  0  0  0  0  0  0
   16.4892   -2.7147   21.4272 C   0  0  0  0  0  0  0  0  0  0  0  0
   15.7313   -2.6739   20.4719 O   0  0  0  0  0  0  0  0  0  0  0  0
   17.1582   -1.6121   21.8111 O   0  0  0  0  0  0  0  0  0  0  0  0
   17.7391   -1.6484   22.5454 H   0  0  0  0  0  0  0  0  0  0  0  0
  7  8  2  0
  8  9  1  0
  1  8  1  0
  1  2  1  0
  2  3  1  0
  3  4  1  0
  4 10  1  0
 10 11  1  0
 11 12  1  0
 11 13  1  0
 11 14  1  0
 14 15  1  0
 15 16  1  0
  4  5  1  0
  5 17  1  0
 17 18  1  0
 18 19  2  0
 18 20  1  0
  5  1  1  0
  3  6  1  0
 20 21  1  0
M  END
> <minimizedAffinity>
-4.70941

> <CNNscore>
0.1780855954

> <CNNaffinity>
3.7226531506

> <CNN_VS>
0.6629508734

> <CNNaffinity_variance>
0.5650596619

$$$$



 21 21  0  0  0  0  0  0  0  0999 V2000
   19.5061   -7.6682   26.0458 C   0  0  0  0  0  0  0  0  0  0  0  0
   20.3860   -8.8855   25.6992 C   0  0  0  0  0  0  0  0  0  0  0  0
   20.9925   -8.6282   24.3812 N   0  0  0  0  0  0  0  0  0  0  0  0
   20.6361   -7.2559   23.9989 C   0  0  0  0  0  0  0  0  0  0  0  0
   19.2625   -7.0169   24.6641 C   0  0  0  0  0  0  0  0  0  0  0  0
   20.6281   -9.2881   23.6941 H   0  0  0  0  0  0  0  0  0  0  0  0
   17.6022   -6.8580   27.4613 C   0  0  0  0  0  0  0  0  0  0  0  0
   18.3174   -7.8850   26.9684 C   0  0  0  0  0  0  0  0  0  0  0  0
   18.0032   -9.2913   27.4039 C   0  0  0  0  0  0  0  0  0  0  0  0
   20.6827   -6.9797   22.4843 C   0  0  0  0  0  0  0  0  0  0  0  0
   20.9398   -5.5117   22.0055 C   0  0  0  0  0  0  0  0  0  0  0  0
   21.4895   -5.6069   20.5635 C   0  0  0  0  0  0  0  0  0  0  0  0
   22.0090   -4.8219   22.8717 C   0  0  0  0  0  0  0  0  0  0  0  0
   19.6136   -4.6995   22.0265 C   0  0  0  0  0  0  0  0  0  0  0  0
   19.0767   -4.2582   20.6589 C   0  0  0  0  0  0  0  0  0  0  0  0
   17.9177   -3.2826   20.8117 C   0  0  0  0  0  0  0  0  0  0  0  0
   18.0295   -7.5164   23.8847 C   0  0  0  0  0  0  0  0  0  0  0  0
   17.9725   -8.9890   23.5769 C   0  0  0  0  0  0  0  0  0  0  0  0
   17.4408   -9.8546   24.2528 O   0  0  0  0  0  0  0  0  0  0  0  0
   18.6075   -9.3128   22.4355 O   0  0  0  0  0  0  0  0  0  0  0  0
   19.0143   -8.6446   21.9199 H   0  0  0  0  0  0  0  0  0  0  0  0
  7  8  2  0
  8  9  1  0
  1  8  1  0
  1  2  1  0
  2  3  1  0
  3  4  1  0
  4 10  1  0
 10 11  1  0
 11 12  1  0
 11 13  1  0
 11 14  1  0
 14 15  1  0
 15 16  1  0
  4  5  1  0
  5 17  1  0
 17 18  1  0
 18 19  2  0
 18 20  1  0
  5  1  1  0
  3  6  1  0
 20 21  1  0
M  END
> <minimizedAffinity>
-4.52900

> <CNNscore>
0.1599848121

> <CNNaffinity>
3.1253776550

> <CNN_VS>
0.5000129342

> <CNNaffinity_variance>
1.3433879614

$$$$



 21 21  0  0  0  0  0  0  0  0999 V2000
   22.6261   12.9677   12.8426 C   0  0  0  0  0  0  0  0  0  0  0  0
   21.1591   12.6551   12.4873 C   0  0  0  0  0  0  0  0  0  0  0  0
   20.7701   11.4524   13.2444 N   0  0  0  0  0  0  0  0  0  0  0  0
   21.8839   11.1258   14.1440 C   0  0  0  0  0  0  0  0  0  0  0  0
   23.1409   11.6164   13.3919 C   0  0  0  0  0  0  0  0  0  0  0  0
   20.5991   10.6768   12.6043 H   0  0  0  0  0  0  0  0  0  0  0  0
   24.6180   14.3211   12.1456 C   0  0  0  0  0  0  0  0  0  0  0  0
   23.4693   13.7045   11.8144 C   0  0  0  0  0  0  0  0  0  0  0  0
   22.9412   13.8136   10.4089 C   0  0  0  0  0  0  0  0  0  0  0  0
   21.9303    9.6550   14.5990 C   0  0  0  0  0  0  0  0  0  0  0  0
   21.5363    9.3231   16.0772 C   0  0  0  0  0  0  0  0  0  0  0  0
   19.9965    9.1844   16.1037 C   0  0  0  0  0  0  0  0  0  0  0  0
   21.9214   10.4706   17.0281 C   0  0  0  0  0  0  0  0  0  0  0  0
   22.2071    7.9938   16.5267 C   0  0  0  0  0  0  0  0  0  0  0  0
   21.2509    6.8605   16.9199 C   0  0  0  0  0  0  0  0  0  0  0  0
   21.3053    5.7204   15.9122 C   0  0  0  0  0  0  0  0  0  0  0  0
   23.7400   10.6448   12.3554 C   0  0  0  0  0  0  0  0  0  0  0  0
   25.2130   10.3550   12.4694 C   0  0  0  0  0  0  0  0  0  0  0  0
   25.8575    9.5768   11.7855 O   0  0  0  0  0  0  0  0  0  0  0  0
   25.8102   11.0464   13.4573 O   0  0  0  0  0  0  0  0  0  0  0  0
   25.3110   11.6429   13.9799 H   0  0  0  0  0  0  0  0  0  0  0  0
  7  8  2  0
  8  9  1  0
  1  8  1  0
  1  2  1  0
  2  3  1  0
  3  4  1  0
  4 10  1  0
 10 11  1  0
 11 12  1  0
 11 13  1  0
 11 14  1  0
 14 15  1  0
 15 16  1  0
  4  5  1  0
  5 17  1  0
 17 18  1  0
 18 19  2  0
 18 20  1  0
  5  1  1  0
  3  6  1  0
 20 21  1  0
M  END
> <minimizedAffinity>
-4.41202

> <CNNscore>
0.1479049921

> <CNNaffinity>
3.6156589985

> <CNN_VS>
0.5347740054

> <CNNaffinity_variance>
0.6803342700

$$$$



 21 21  0  0  0  0  0  0  0  0999 V2000
   19.8988   -5.3846   24.1270 C   0  0  0  0  0  0  0  0  0  0  0  0
   20.3303   -6.8614   24.2220 C   0  0  0  0  0  0  0  0  0  0  0  0
   21.2262   -7.1316   23.0838 N   0  0  0  0  0  0  0  0  0  0  0  0
   21.4666   -5.8512   22.4062 C   0  0  0  0  0  0  0  0  0  0  0  0
   20.1719   -5.0426   22.6433 C   0  0  0  0  0  0  0  0  0  0  0  0
   20.7856   -7.7897   22.4410 H   0  0  0  0  0  0  0  0  0  0  0  0
   17.8891   -3.8987   24.3228 C   0  0  0  0  0  0  0  0  0  0  0  0
   18.5603   -4.9907   24.7307 C   0  0  0  0  0  0  0  0  0  0  0  0
   18.0308   -5.8074   25.8790 C   0  0  0  0  0  0  0  0  0  0  0  0
   21.8949   -5.9765   20.9320 C   0  0  0  0  0  0  0  0  0  0  0  0
   23.3090   -5.4444   20.5225 C   0  0  0  0  0  0  0  0  0  0  0  0
   23.0785   -4.1220   19.7551 C   0  0  0  0  0  0  0  0  0  0  0  0
   24.0186   -6.4232   19.5697 C   0  0  0  0  0  0  0  0  0  0  0  0
   24.1754   -5.1912   21.7890 C   0  0  0  0  0  0  0  0  0  0  0  0
   24.8788   -3.8297   21.8581 C   0  0  0  0  0  0  0  0  0  0  0  0
   26.3676   -3.9644   21.5687 C   0  0  0  0  0  0  0  0  0  0  0  0
   19.0129   -5.3044   21.6607 C   0  0  0  0  0  0  0  0  0  0  0  0
   18.5725   -4.1450   20.8071 C   0  0  0  0  0  0  0  0  0  0  0  0
   17.4241   -3.7912   20.5952 O   0  0  0  0  0  0  0  0  0  0  0  0
   19.6011   -3.4896   20.2387 O   0  0  0  0  0  0  0  0  0  0  0  0
   20.4812   -3.7651   20.4045 H   0  0  0  0  0  0  0  0  0  0  0  0
  7  8  2  0
  8  9  1  0
  1  8  1  0
  1  2  1  0
  2  3  1  0
  3  4  1  0
  4 10  1  0
 10 11  1  0
 11 12  1  0
 11 13  1  0
 11 14  1  0
 14 15  1  0
 15 16  1  0
  4  5  1  0
  5 17  1  0
 17 18  1  0
 18 19  2  0
 18 20  1  0
  5  1  1  0
  3  6  1  0
 20 21  1  0
M  END
> <minimizedAffinity>
-4.66959

> <CNNscore>
0.1477487981

> <CNNaffinity>
3.8916339874

> <CNN_VS>
0.5749842525

> <CNNaffinity_variance>
0.3065330684

$$$$



 21 21  0  0  0  0  0  0  0  0999 V2000
    7.2788   -6.4461   17.5136 C   0  0  0  0  0  0  0  0  0  0  0  0
    7.5310   -5.1164   18.2515 C   0  0  0  0  0  0  0  0  0  0  0  0
    8.8481   -5.2189   18.9041 N   0  0  0  0  0  0  0  0  0  0  0  0
    9.4536   -6.4827   18.4653 C   0  0  0  0  0  0  0  0  0  0  0  0
    8.2502   -7.4201   18.2210 C   0  0  0  0  0  0  0  0  0  0  0  0
    8.7367   -5.2183   19.9180 H   0  0  0  0  0  0  0  0  0  0  0  0
    5.5272   -8.0037   16.6243 C   0  0  0  0  0  0  0  0  0  0  0  0
    5.8384   -6.8823   17.2987 C   0  0  0  0  0  0  0  0  0  0  0  0
    4.7408   -5.9732   17.7833 C   0  0  0  0  0  0  0  0  0  0  0  0
   10.5311   -7.0407   19.4140 C   0  0  0  0  0  0  0  0  0  0  0  0
   11.9659   -7.2923   18.8408 C   0  0  0  0  0  0  0  0  0  0  0  0
   12.6449   -8.3142   19.7817 C   0  0  0  0  0  0  0  0  0  0  0  0
   12.8079   -6.0038   18.8601 C   0  0  0  0  0  0  0  0  0  0  0  0
   11.8753   -7.8631   17.3970 C   0  0  0  0  0  0  0  0  0  0  0  0
   11.7722   -9.3897   17.2855 C   0  0  0  0  0  0  0  0  0  0  0  0
   10.5471   -9.8009   16.4802 C   0  0  0  0  0  0  0  0  0  0  0  0
    7.6952   -8.1562   19.4569 C   0  0  0  0  0  0  0  0  0  0  0  0
    7.1999   -7.2989   20.5911 C   0  0  0  0  0  0  0  0  0  0  0  0
    7.8845   -6.6866   21.3944 O   0  0  0  0  0  0  0  0  0  0  0  0
    5.8575   -7.2649   20.6775 O   0  0  0  0  0  0  0  0  0  0  0  0
    5.3360   -7.7368   20.0583 H   0  0  0  0  0  0  0  0  0  0  0  0
  7  8  2  0
  8  9  1  0
  1  8  1  0
  1  2  1  0
  2  3  1  0
  3  4  1  0
  4 10  1  0
 10 11  1  0
 11 12  1  0
 11 13  1  0
 11 14  1  0
 14 15  1  0
 15 16  1  0
  4  5  1  0
  5 17  1  0
 17 18  1  0
 18 19  2  0
 18 20  1  0
  5  1  1  0
  3  6  1  0
 20 21  1  0
M  END
> <minimizedAffinity>
-4.28279

> <CNNscore>
0.1461982429

> <CNNaffinity>
3.7334930897

> <CNN_VS>
0.5458301306

> <CNNaffinity_variance>
0.4925577343

$$$$



 21 21  0  0  0  0  0  0  0  0999 V2000
   19.8274   -5.1420   23.5336 C   0  0  0  0  0  0  0  0  0  0  0  0
   20.4240   -6.4707   24.0381 C   0  0  0  0  0  0  0  0  0  0  0  0
   21.8389   -6.5010   23.6279 N   0  0  0  0  0  0  0  0  0  0  0  0
   22.1488   -5.1923   23.0384 C   0  0  0  0  0  0  0  0  0  0  0  0
   20.8137   -4.7255   22.4171 C   0  0  0  0  0  0  0  0  0  0  0  0
   21.9872   -7.2385   22.9390 H   0  0  0  0  0  0  0  0  0  0  0  0
   17.6445   -3.9389   23.2633 C   0  0  0  0  0  0  0  0  0  0  0  0
   18.3359   -5.0926   23.2434 C   0  0  0  0  0  0  0  0  0  0  0  0
   17.6123   -6.3933   23.0188 C   0  0  0  0  0  0  0  0  0  0  0  0
   23.3505   -5.1916   22.0748 C   0  0  0  0  0  0  0  0  0  0  0  0
   24.4608   -4.1063   22.2745 C   0  0  0  0  0  0  0  0  0  0  0  0
   23.9633   -2.8283   21.5605 C   0  0  0  0  0  0  0  0  0  0  0  0
   25.7824   -4.5320   21.6101 C   0  0  0  0  0  0  0  0  0  0  0  0
   24.6762   -3.8305   23.7899 C   0  0  0  0  0  0  0  0  0  0  0  0
   24.3990   -2.3953   24.2555 C   0  0  0  0  0  0  0  0  0  0  0  0
   25.6752   -1.7158   24.7332 C   0  0  0  0  0  0  0  0  0  0  0  0
   20.4986   -5.2489   21.0015 C   0  0  0  0  0  0  0  0  0  0  0  0
   19.8909   -4.2672   20.0351 C   0  0  0  0  0  0  0  0  0  0  0  0
   19.4523   -3.1600   20.3007 O   0  0  0  0  0  0  0  0  0  0  0  0
   19.8436   -4.7319   18.7732 O   0  0  0  0  0  0  0  0  0  0  0  0
   20.1817   -5.5828   18.5742 H   0  0  0  0  0  0  0  0  0  0  0  0
  7  8  2  0
  8  9  1  0
  1  8  1  0
  1  2  1  0
  2  3  1  0
  3  4  1  0
  4 10  1  0
 10 11  1  0
 11 12  1  0
 11 13  1  0
 11 14  1  0
 14 15  1  0
 15 16  1  0
  4  5  1  0
  5 17  1  0
 17 18  1  0
 18 19  2  0
 18 20  1  0
  5  1  1  0
  3  6  1  0
 20 21  1  0
M  END
> <minimizedAffinity>
-5.09824

> <CNNscore>
0.1424060315

> <CNNaffinity>
3.2753937244

> <CNN_VS>
0.4664358199

> <CNNaffinity_variance>
1.0531185865

$$$$



 21 21  0  0  0  0  0  0  0  0999 V2000
   10.1916   -6.7541   18.7342 C   0  0  0  0  0  0  0  0  0  0  0  0
   10.3154   -5.3257   18.1682 C   0  0  0  0  0  0  0  0  0  0  0  0
    8.9899   -4.6919   18.2806 N   0  0  0  0  0  0  0  0  0  0  0  0
    8.1260   -5.6194   19.0222 C   0  0  0  0  0  0  0  0  0  0  0  0
    8.6695   -7.0201   18.6629 C   0  0  0  0  0  0  0  0  0  0  0  0
    8.6040   -4.5219   17.3519 H   0  0  0  0  0  0  0  0  0  0  0  0
   11.0226   -9.1121   18.5494 C   0  0  0  0  0  0  0  0  0  0  0  0
   11.1421   -7.8169   18.2068 C   0  0  0  0  0  0  0  0  0  0  0  0
   12.2982   -7.3743   17.3503 C   0  0  0  0  0  0  0  0  0  0  0  0
    6.6177   -5.4243   18.7786 C   0  0  0  0  0  0  0  0  0  0  0  0
    5.6686   -5.3536   20.0214 C   0  0  0  0  0  0  0  0  0  0  0  0
    4.6873   -6.5419   19.8963 C   0  0  0  0  0  0  0  0  0  0  0  0
    4.8395   -4.0567   20.0169 C   0  0  0  0  0  0  0  0  0  0  0  0
    6.4935   -5.4691   21.3348 C   0  0  0  0  0  0  0  0  0  0  0  0
    6.3465   -6.7880   22.1044 C   0  0  0  0  0  0  0  0  0  0  0  0
    6.0941   -6.5359   23.5847 C   0  0  0  0  0  0  0  0  0  0  0  0
    8.1481   -7.6397   17.3508 C   0  0  0  0  0  0  0  0  0  0  0  0
    8.4512   -6.8913   16.0801 C   0  0  0  0  0  0  0  0  0  0  0  0
    9.4595   -6.9891   15.3998 O   0  0  0  0  0  0  0  0  0  0  0  0
    7.4757   -6.0335   15.7292 O   0  0  0  0  0  0  0  0  0  0  0  0
    6.7033   -5.9620   16.2548 H   0  0  0  0  0  0  0  0  0  0  0  0
  7  8  2  0
  8  9  1  0
  1  8  1  0
  1  2  1  0
  2  3  1  0
  3  4  1  0
  4 10  1  0
 10 11  1  0
 11 12  1  0
 11 13  1  0
 11 14  1  0
 14 15  1  0
 15 16  1  0
  4  5  1  0
  5 17  1  0
 17 18  1  0
 18 19  2  0
 18 20  1  0
  5  1  1  0
  3  6  1  0
 20 21  1  0
M  END
> <minimizedAffinity>
-4.45527

> <CNNscore>
0.1422111392

> <CNNaffinity>
4.0394263268

> <CNN_VS>
0.5744514465

> <CNNaffinity_variance>
0.3567453325

$$$$
