


 31 34  0  0  0  0  0  0  0  0999 V2000
   13.6646   -2.4110   11.4091 C   0  0  0  0  0  0  0  0  0  0  0  0
   12.7433   -1.4529   11.1457 N   0  0  0  0  0  0  0  0  0  0  0  0
   13.0475   -0.4582   10.2920 C   0  0  0  0  0  0  0  0  0  0  0  0
   14.1908   -0.2693    9.6293 N   0  0  0  0  0  0  0  0  0  0  0  0
   15.0831   -1.2230    9.9223 C   0  0  0  0  0  0  0  0  0  0  0  0
   16.3236   -1.2500    9.3699 O   0  0  0  0  0  0  0  0  0  0  0  0
   16.9874   -2.3331    9.8741 C   0  0  0  0  0  0  0  0  0  0  0  0
   16.1554   -3.0175   10.7508 C   0  0  0  0  0  0  0  0  0  0  0  0
   14.9179   -2.2979   10.7817 C   0  0  0  0  0  0  0  0  0  0  0  0
   18.3590   -2.4830    9.3893 C   0  0  0  0  0  0  0  0  0  0  0  0
   19.1426   -3.5708    9.8027 C   0  0  0  0  0  0  0  0  0  0  0  0
   20.4614   -3.7279    9.3553 C   0  0  0  0  0  0  0  0  0  0  0  0
   21.0185   -2.7977    8.4808 C   0  0  0  0  0  0  0  0  0  0  0  0
   20.2443   -1.7164    8.0582 C   0  0  0  0  0  0  0  0  0  0  0  0
   18.9269   -1.5605    8.5035 C   0  0  0  0  0  0  0  0  0  0  0  0
   22.2864   -2.8288    7.9707 O   0  0  0  0  0  0  0  0  0  0  0  0
   22.6550   -1.7655    7.1013 C   0  0  0  0  0  0  0  0  0  0  0  0
   16.5217   -4.2353   11.4470 C   0  0  0  0  0  0  0  0  0  0  0  0
   16.4368   -5.4682   10.7946 C   0  0  0  0  0  0  0  0  0  0  0  0
   16.8006   -6.6390   11.4639 C   0  0  0  0  0  0  0  0  0  0  0  0
   17.2502   -6.5955   12.7860 C   0  0  0  0  0  0  0  0  0  0  0  0
   17.3381   -5.3646   13.4366 C   0  0  0  0  0  0  0  0  0  0  0  0
   16.9776   -4.1883   12.7690 C   0  0  0  0  0  0  0  0  0  0  0  0
   17.5705   -7.8126   13.3198 O   0  0  0  0  0  0  0  0  0  0  0  0
   17.5777   -7.9120   14.7385 C   0  0  0  0  0  0  0  0  0  0  0  0
   13.3563   -3.4491   12.2877 N   0  0  0  0  0  0  0  0  0  0  0  0
   13.5525   -4.3871   12.0623 H   0  0  0  0  0  0  0  0  0  0  0  0
   12.7300   -3.0862   13.5565 C   0  0  0  0  0  0  0  0  0  0  0  0
   11.2255   -3.3726   13.5668 C   0  0  0  0  0  0  0  0  0  0  0  0
    9.1087   -2.3363   13.6024 C   0  0  0  0  0  0  0  0  0  0  0  0
   10.5136   -2.1343   13.6813 O   0  0  0  0  0  0  0  0  0  0  0  0
 30 31  1  0
 31 29  1  0
 29 28  1  0
 28 26  1  0
 26  1  1  0
  1  2  2  0
  2  3  1  0
  3  4  2  0
  4  5  1  0
  5  6  1  0
  6  7  1  0
  7 10  1  0
 10 11  2  0
 11 12  1  0
 12 13  2  0
 13 16  1  0
 16 17  1  0
 13 14  1  0
 14 15  2  0
  7  8  2  0
  8 18  1  0
 18 19  2  0
 19 20  1  0
 20 21  2  0
 21 24  1  0
 24 25  1  0
 21 22  1  0
 22 23  2  0
  8  9  1  0
  9  1  1  0
  9  5  2  0
 15 10  1  0
 23 18  1  0
 26 27  1  0
M  END
> <minimizedAffinity>
-7.92465

> <CNNscore>
0.8928650618

> <CNNaffinity>
7.0818405151

> <CNN_VS>
6.3231277466

> <CNNaffinity_variance>
0.0261052940

$$$$



 31 34  0  0  0  0  0  0  0  0999 V2000
   13.7297   -2.5347   11.4339 C   0  0  0  0  0  0  0  0  0  0  0  0
   12.7791   -1.5968   11.2045 N   0  0  0  0  0  0  0  0  0  0  0  0
   13.0421   -0.5785   10.3650 C   0  0  0  0  0  0  0  0  0  0  0  0
   14.1685   -0.3468    9.6870 N   0  0  0  0  0  0  0  0  0  0  0  0
   15.0906   -1.2816    9.9466 C   0  0  0  0  0  0  0  0  0  0  0  0
   16.3216   -1.2651    9.3731 O   0  0  0  0  0  0  0  0  0  0  0  0
   17.0224   -2.3394    9.8452 C   0  0  0  0  0  0  0  0  0  0  0  0
   16.2240   -3.0620   10.7225 C   0  0  0  0  0  0  0  0  0  0  0  0
   14.9686   -2.3764   10.7879 C   0  0  0  0  0  0  0  0  0  0  0  0
   18.3889   -2.4435    9.3347 C   0  0  0  0  0  0  0  0  0  0  0  0
   19.2049   -3.5224    9.7066 C   0  0  0  0  0  0  0  0  0  0  0  0
   20.5193   -3.6360    9.2342 C   0  0  0  0  0  0  0  0  0  0  0  0
   21.0396   -2.6701    8.3757 C   0  0  0  0  0  0  0  0  0  0  0  0
   20.2330   -1.5973    7.9942 C   0  0  0  0  0  0  0  0  0  0  0  0
   18.9199   -1.4849    8.4645 C   0  0  0  0  0  0  0  0  0  0  0  0
   22.2992   -2.6574    7.8447 O   0  0  0  0  0  0  0  0  0  0  0  0
   22.4209   -2.2405    6.4905 C   0  0  0  0  0  0  0  0  0  0  0  0
   16.6342   -4.2824   11.3889 C   0  0  0  0  0  0  0  0  0  0  0  0
   17.1630   -4.2315   12.6814 C   0  0  0  0  0  0  0  0  0  0  0  0
   17.5474   -5.4097   13.3257 C   0  0  0  0  0  0  0  0  0  0  0  0
   17.4112   -6.6474   12.6919 C   0  0  0  0  0  0  0  0  0  0  0  0
   16.8804   -6.6990   11.4028 C   0  0  0  0  0  0  0  0  0  0  0  0
   16.4909   -5.5212   10.7544 C   0  0  0  0  0  0  0  0  0  0  0  0
   17.8273   -7.7172   13.4343 O   0  0  0  0  0  0  0  0  0  0  0  0
   19.0283   -8.3583   13.0233 C   0  0  0  0  0  0  0  0  0  0  0  0
   13.4642   -3.5970   12.2975 N   0  0  0  0  0  0  0  0  0  0  0  0
   14.1744   -4.0023   12.8456 H   0  0  0  0  0  0  0  0  0  0  0  0
   12.0878   -4.0830   12.3546 C   0  0  0  0  0  0  0  0  0  0  0  0
   11.5415   -4.1196   13.7849 C   0  0  0  0  0  0  0  0  0  0  0  0
   12.0962   -6.3683   13.3471 C   0  0  0  0  0  0  0  0  0  0  0  0
   11.8044   -5.4082   14.3539 O   0  0  0  0  0  0  0  0  0  0  0  0
 30 31  1  0
 31 29  1  0
 29 28  1  0
 28 26  1  0
 26  1  1  0
  1  2  2  0
  2  3  1  0
  3  4  2  0
  4  5  1  0
  5  6  1  0
  6  7  1  0
  7 10  1  0
 10 11  2  0
 11 12  1  0
 12 13  2  0
 13 16  1  0
 16 17  1  0
 13 14  1  0
 14 15  2  0
  7  8  2  0
  8 18  1  0
 18 19  2  0
 19 20  1  0
 20 21  2  0
 21 24  1  0
 24 25  1  0
 21 22  1  0
 22 23  2  0
  8  9  1  0
  9  1  1  0
  9  5  2  0
 15 10  1  0
 23 18  1  0
 26 27  1  0
M  END
> <minimizedAffinity>
-8.03081

> <CNNscore>
0.8367403746

> <CNNaffinity>
7.0670146942

> <CNN_VS>
5.9132566452

> <CNNaffinity_variance>
0.0476517044

$$$$



 31 34  0  0  0  0  0  0  0  0999 V2000
   17.3313   -1.9170    9.2322 C   0  0  0  0  0  0  0  0  0  0  0  0
   16.7952   -0.8880    8.5325 N   0  0  0  0  0  0  0  0  0  0  0  0
   15.5678   -0.4380    8.8518 C   0  0  0  0  0  0  0  0  0  0  0  0
   14.7569   -0.8846    9.8136 N   0  0  0  0  0  0  0  0  0  0  0  0
   15.3092   -1.9087   10.4753 C   0  0  0  0  0  0  0  0  0  0  0  0
   14.6779   -2.5331   11.5031 O   0  0  0  0  0  0  0  0  0  0  0  0
   15.4941   -3.5312   11.9567 C   0  0  0  0  0  0  0  0  0  0  0  0
   16.6706   -3.5369   11.2185 C   0  0  0  0  0  0  0  0  0  0  0  0
   16.5519   -2.4826   10.2569 C   0  0  0  0  0  0  0  0  0  0  0  0
   14.9358   -4.3183   13.0556 C   0  0  0  0  0  0  0  0  0  0  0  0
   14.1711   -5.4642   12.7904 C   0  0  0  0  0  0  0  0  0  0  0  0
   13.6213   -6.2273   13.8293 C   0  0  0  0  0  0  0  0  0  0  0  0
   13.8316   -5.8570   15.1557 C   0  0  0  0  0  0  0  0  0  0  0  0
   14.5971   -4.7229   15.4295 C   0  0  0  0  0  0  0  0  0  0  0  0
   15.1476   -3.9620   14.3922 C   0  0  0  0  0  0  0  0  0  0  0  0
   13.3544   -6.5066   16.2598 O   0  0  0  0  0  0  0  0  0  0  0  0
   14.3192   -7.0536   17.1499 C   0  0  0  0  0  0  0  0  0  0  0  0
   17.7777   -4.4445   11.4470 C   0  0  0  0  0  0  0  0  0  0  0  0
   19.0454   -3.9412   11.7511 C   0  0  0  0  0  0  0  0  0  0  0  0
   20.1081   -4.8179   11.9816 C   0  0  0  0  0  0  0  0  0  0  0  0
   19.9213   -6.2007   11.9108 C   0  0  0  0  0  0  0  0  0  0  0  0
   18.6553   -6.7037   11.6103 C   0  0  0  0  0  0  0  0  0  0  0  0
   17.5866   -5.8291   11.3816 C   0  0  0  0  0  0  0  0  0  0  0  0
   21.0440   -6.9412   12.1559 O   0  0  0  0  0  0  0  0  0  0  0  0
   22.2820   -6.2420   12.1893 C   0  0  0  0  0  0  0  0  0  0  0  0
   18.6051   -2.3861    8.9127 N   0  0  0  0  0  0  0  0  0  0  0  0
   18.8407   -3.3371    9.0092 H   0  0  0  0  0  0  0  0  0  0  0  0
   19.5752   -1.4070    8.4287 C   0  0  0  0  0  0  0  0  0  0  0  0
   20.7874   -2.0667    7.7647 C   0  0  0  0  0  0  0  0  0  0  0  0
   21.8066   -4.1692    7.4539 C   0  0  0  0  0  0  0  0  0  0  0  0
   20.9265   -3.4022    8.2650 O   0  0  0  0  0  0  0  0  0  0  0  0
 30 31  1  0
 31 29  1  0
 29 28  1  0
 28 26  1  0
 26  1  1  0
  1  2  2  0
  2  3  1  0
  3  4  2  0
  4  5  1  0
  5  6  1  0
  6  7  1  0
  7 10  1  0
 10 11  2  0
 11 12  1  0
 12 13  2  0
 13 16  1  0
 16 17  1  0
 13 14  1  0
 14 15  2  0
  7  8  2  0
  8 18  1  0
 18 19  2  0
 19 20  1  0
 20 21  2  0
 21 24  1  0
 24 25  1  0
 21 22  1  0
 22 23  2  0
  8  9  1  0
  9  1  1  0
  9  5  2  0
 15 10  1  0
 23 18  1  0
 26 27  1  0
M  END
> <minimizedAffinity>
-6.97607

> <CNNscore>
0.6374119520

> <CNNaffinity>
6.7969136238

> <CNN_VS>
4.3324341774

> <CNNaffinity_variance>
0.0341313668

$$$$



 31 34  0  0  0  0  0  0  0  0999 V2000
   17.4374   -2.9264   10.2022 C   0  0  0  0  0  0  0  0  0  0  0  0
   17.9429   -2.2685    9.1310 N   0  0  0  0  0  0  0  0  0  0  0  0
   17.1990   -1.3288    8.5191 C   0  0  0  0  0  0  0  0  0  0  0  0
   15.9651   -0.9285    8.8340 N   0  0  0  0  0  0  0  0  0  0  0  0
   15.4899   -1.6069    9.8854 C   0  0  0  0  0  0  0  0  0  0  0  0
   14.2532   -1.3774   10.3979 O   0  0  0  0  0  0  0  0  0  0  0  0
   14.0670   -2.2291   11.4506 C   0  0  0  0  0  0  0  0  0  0  0  0
   15.2060   -3.0049   11.6237 C   0  0  0  0  0  0  0  0  0  0  0  0
   16.1312   -2.6006   10.6083 C   0  0  0  0  0  0  0  0  0  0  0  0
   12.7589   -2.1192   12.0951 C   0  0  0  0  0  0  0  0  0  0  0  0
   12.0618   -3.2720   12.4865 C   0  0  0  0  0  0  0  0  0  0  0  0
   10.8040   -3.1879   13.0986 C   0  0  0  0  0  0  0  0  0  0  0  0
   10.2225   -1.9439   13.3334 C   0  0  0  0  0  0  0  0  0  0  0  0
   10.9117   -0.7913   12.9545 C   0  0  0  0  0  0  0  0  0  0  0  0
   12.1684   -0.8753   12.3449 C   0  0  0  0  0  0  0  0  0  0  0  0
    9.0070   -1.7191   13.9171 O   0  0  0  0  0  0  0  0  0  0  0  0
    8.4821   -0.4010   13.8200 C   0  0  0  0  0  0  0  0  0  0  0  0
   15.3719   -3.9964   12.6683 C   0  0  0  0  0  0  0  0  0  0  0  0
   15.1856   -5.3519   12.3841 C   0  0  0  0  0  0  0  0  0  0  0  0
   15.3567   -6.3063   13.3896 C   0  0  0  0  0  0  0  0  0  0  0  0
   15.7127   -5.9227   14.6851 C   0  0  0  0  0  0  0  0  0  0  0  0
   15.9018   -4.5700   14.9685 C   0  0  0  0  0  0  0  0  0  0  0  0
   15.7346   -3.6102   13.9633 C   0  0  0  0  0  0  0  0  0  0  0  0
   15.8448   -6.9565   15.5698 O   0  0  0  0  0  0  0  0  0  0  0  0
   14.7847   -7.9033   15.6171 C   0  0  0  0  0  0  0  0  0  0  0  0
   18.2032   -3.8974   10.8466 N   0  0  0  0  0  0  0  0  0  0  0  0
   18.0430   -4.8577   10.7000 H   0  0  0  0  0  0  0  0  0  0  0  0
   19.2532   -3.4300   11.7482 C   0  0  0  0  0  0  0  0  0  0  0  0
   20.6171   -3.3398   11.0575 C   0  0  0  0  0  0  0  0  0  0  0  0
   22.4540   -4.2839   12.1934 C   0  0  0  0  0  0  0  0  0  0  0  0
   21.6314   -3.1337   12.0484 O   0  0  0  0  0  0  0  0  0  0  0  0
 30 31  1  0
 31 29  1  0
 29 28  1  0
 28 26  1  0
 26  1  1  0
  1  2  2  0
  2  3  1  0
  3  4  2  0
  4  5  1  0
  5  6  1  0
  6  7  1  0
  7 10  1  0
 10 11  2  0
 11 12  1  0
 12 13  2  0
 13 16  1  0
 16 17  1  0
 13 14  1  0
 14 15  2  0
  7  8  2  0
  8 18  1  0
 18 19  2  0
 19 20  1  0
 20 21  2  0
 21 24  1  0
 24 25  1  0
 21 22  1  0
 22 23  2  0
  8  9  1  0
  9  1  1  0
  9  5  2  0
 15 10  1  0
 23 18  1  0
 26 27  1  0
M  END
> <minimizedAffinity>
-8.32450

> <CNNscore>
0.5681210160

> <CNNaffinity>
6.6590027809

> <CNN_VS>
3.7831194401

> <CNNaffinity_variance>
0.0301491227

$$$$



 31 34  0  0  0  0  0  0  0  0999 V2000
   17.1725   -2.9677   10.5181 C   0  0  0  0  0  0  0  0  0  0  0  0
   17.6878   -2.4470    9.3783 N   0  0  0  0  0  0  0  0  0  0  0  0
   16.9448   -1.6009    8.6414 C   0  0  0  0  0  0  0  0  0  0  0  0
   15.7031   -1.1764    8.8861 N   0  0  0  0  0  0  0  0  0  0  0  0
   15.2186   -1.7196   10.0093 C   0  0  0  0  0  0  0  0  0  0  0  0
   13.9727   -1.4392   10.4718 O   0  0  0  0  0  0  0  0  0  0  0  0
   13.7786   -2.1513   11.6222 C   0  0  0  0  0  0  0  0  0  0  0  0
   14.9215   -2.8868   11.9083 C   0  0  0  0  0  0  0  0  0  0  0  0
   15.8578   -2.6061   10.8619 C   0  0  0  0  0  0  0  0  0  0  0  0
   12.4604   -1.9733   12.2300 C   0  0  0  0  0  0  0  0  0  0  0  0
   11.6880   -3.0884   12.5881 C   0  0  0  0  0  0  0  0  0  0  0  0
   10.4195   -2.9387   13.1647 C   0  0  0  0  0  0  0  0  0  0  0  0
    9.9027   -1.6660   13.3967 C   0  0  0  0  0  0  0  0  0  0  0  0
   10.6668   -0.5509   13.0508 C   0  0  0  0  0  0  0  0  0  0  0  0
   11.9342   -0.7004   12.4767 C   0  0  0  0  0  0  0  0  0  0  0  0
    8.6852   -1.3781   13.9476 O   0  0  0  0  0  0  0  0  0  0  0  0
    8.3137   -0.0065   14.0028 C   0  0  0  0  0  0  0  0  0  0  0  0
   15.0808   -3.7349   13.0733 C   0  0  0  0  0  0  0  0  0  0  0  0
   15.9713   -3.3726   14.0874 C   0  0  0  0  0  0  0  0  0  0  0  0
   16.1150   -4.1857   15.2141 C   0  0  0  0  0  0  0  0  0  0  0  0
   15.3770   -5.3651   15.3424 C   0  0  0  0  0  0  0  0  0  0  0  0
   14.4855   -5.7255   14.3317 C   0  0  0  0  0  0  0  0  0  0  0  0
   14.3359   -4.9123   13.2023 C   0  0  0  0  0  0  0  0  0  0  0  0
   15.6162   -6.0653   16.4919 O   0  0  0  0  0  0  0  0  0  0  0  0
   14.5393   -6.8337   17.0139 C   0  0  0  0  0  0  0  0  0  0  0  0
   17.9371   -3.8404   11.2915 N   0  0  0  0  0  0  0  0  0  0  0  0
   18.2519   -3.5883   12.1896 H   0  0  0  0  0  0  0  0  0  0  0  0
   18.2515   -5.1445   10.7132 C   0  0  0  0  0  0  0  0  0  0  0  0
   17.7530   -6.3029   11.5821 C   0  0  0  0  0  0  0  0  0  0  0  0
   15.9489   -7.7865   11.8985 C   0  0  0  0  0  0  0  0  0  0  0  0
   16.4529   -6.7017   11.1304 O   0  0  0  0  0  0  0  0  0  0  0  0
 30 31  1  0
 31 29  1  0
 29 28  1  0
 28 26  1  0
 26  1  1  0
  1  2  2  0
  2  3  1  0
  3  4  2  0
  4  5  1  0
  5  6  1  0
  6  7  1  0
  7 10  1  0
 10 11  2  0
 11 12  1  0
 12 13  2  0
 13 16  1  0
 16 17  1  0
 13 14  1  0
 14 15  2  0
  7  8  2  0
  8 18  1  0
 18 19  2  0
 19 20  1  0
 20 21  2  0
 21 24  1  0
 24 25  1  0
 21 22  1  0
 22 23  2  0
  8  9  1  0
  9  1  1  0
  9  5  2  0
 15 10  1  0
 23 18  1  0
 26 27  1  0
M  END
> <minimizedAffinity>
-7.98520

> <CNNscore>
0.5336066484

> <CNNaffinity>
6.6258454323

> <CNN_VS>
3.5355951786

> <CNNaffinity_variance>
0.0505324341

$$$$



 31 34  0  0  0  0  0  0  0  0999 V2000
   14.9658   -1.5655   10.0378 C   0  0  0  0  0  0  0  0  0  0  0  0
   14.0839   -0.6269    9.6171 N   0  0  0  0  0  0  0  0  0  0  0  0
   12.8976   -0.5057   10.2408 C   0  0  0  0  0  0  0  0  0  0  0  0
   12.4391   -1.2172   11.2730 N   0  0  0  0  0  0  0  0  0  0  0  0
   13.3266   -2.1438   11.6543 C   0  0  0  0  0  0  0  0  0  0  0  0
   13.0906   -2.9921   12.6884 O   0  0  0  0  0  0  0  0  0  0  0  0
   14.1760   -3.8126   12.8183 C   0  0  0  0  0  0  0  0  0  0  0  0
   15.1264   -3.4756   11.8631 C   0  0  0  0  0  0  0  0  0  0  0  0
   14.5761   -2.3909   11.1075 C   0  0  0  0  0  0  0  0  0  0  0  0
   14.0592   -4.8083   13.8830 C   0  0  0  0  0  0  0  0  0  0  0  0
   13.8159   -6.1545   13.5718 C   0  0  0  0  0  0  0  0  0  0  0  0
   13.6932   -7.1221   14.5780 C   0  0  0  0  0  0  0  0  0  0  0  0
   13.8161   -6.7579   15.9170 C   0  0  0  0  0  0  0  0  0  0  0  0
   14.0655   -5.4226   16.2360 C   0  0  0  0  0  0  0  0  0  0  0  0
   14.1898   -4.4567   15.2312 C   0  0  0  0  0  0  0  0  0  0  0  0
   13.7171   -7.5954   16.9929 O   0  0  0  0  0  0  0  0  0  0  0  0
   14.1725   -8.9303   16.8115 C   0  0  0  0  0  0  0  0  0  0  0  0
   16.4182   -4.1197   11.7288 C   0  0  0  0  0  0  0  0  0  0  0  0
   17.4905   -3.7136   12.5276 C   0  0  0  0  0  0  0  0  0  0  0  0
   18.7312   -4.3431   12.4041 C   0  0  0  0  0  0  0  0  0  0  0  0
   18.9179   -5.3796   11.4859 C   0  0  0  0  0  0  0  0  0  0  0  0
   17.8469   -5.7875   10.6904 C   0  0  0  0  0  0  0  0  0  0  0  0
   16.6008   -5.1617   10.8129 C   0  0  0  0  0  0  0  0  0  0  0  0
   20.1799   -5.9047   11.4673 O   0  0  0  0  0  0  0  0  0  0  0  0
   21.2403   -5.0208   11.1251 C   0  0  0  0  0  0  0  0  0  0  0  0
   16.2001   -1.6944    9.4018 N   0  0  0  0  0  0  0  0  0  0  0  0
   16.4222   -2.4925    8.8698 H   0  0  0  0  0  0  0  0  0  0  0  0
   17.1497   -0.5955    9.5581 C   0  0  0  0  0  0  0  0  0  0  0  0
   18.3305   -0.9692   10.4589 C   0  0  0  0  0  0  0  0  0  0  0  0
   19.5822   -1.5955    8.5623 C   0  0  0  0  0  0  0  0  0  0  0  0
   19.0890   -2.0094    9.8297 O   0  0  0  0  0  0  0  0  0  0  0  0
 30 31  1  0
 31 29  1  0
 29 28  1  0
 28 26  1  0
 26  1  1  0
  1  2  2  0
  2  3  1  0
  3  4  2  0
  4  5  1  0
  5  6  1  0
  6  7  1  0
  7 10  1  0
 10 11  2  0
 11 12  1  0
 12 13  2  0
 13 16  1  0
 16 17  1  0
 13 14  1  0
 14 15  2  0
  7  8  2  0
  8 18  1  0
 18 19  2  0
 19 20  1  0
 20 21  2  0
 21 24  1  0
 24 25  1  0
 21 22  1  0
 22 23  2  0
  8  9  1  0
  9  1  1  0
  9  5  2  0
 15 10  1  0
 23 18  1  0
 26 27  1  0
M  END
> <minimizedAffinity>
-7.27625

> <CNNscore>
0.3900922835

> <CNNaffinity>
6.8188080788

> <CNN_VS>
2.6599643230

> <CNNaffinity_variance>
0.0368054993

$$$$



 31 34  0  0  0  0  0  0  0  0999 V2000
   15.4200   -2.0327   10.3129 C   0  0  0  0  0  0  0  0  0  0  0  0
   15.2230   -1.0854    9.3643 N   0  0  0  0  0  0  0  0  0  0  0  0
   16.2647   -0.6606    8.6260 C   0  0  0  0  0  0  0  0  0  0  0  0
   17.5360   -1.0613    8.6974 N   0  0  0  0  0  0  0  0  0  0  0  0
   17.6993   -1.9850    9.6522 C   0  0  0  0  0  0  0  0  0  0  0  0
   18.9059   -2.5502    9.9158 O   0  0  0  0  0  0  0  0  0  0  0  0
   18.7411   -3.4399   10.9403 C   0  0  0  0  0  0  0  0  0  0  0  0
   17.4076   -3.4551   11.3286 C   0  0  0  0  0  0  0  0  0  0  0  0
   16.7300   -2.5113   10.4916 C   0  0  0  0  0  0  0  0  0  0  0  0
   19.9685   -4.1154   11.3597 C   0  0  0  0  0  0  0  0  0  0  0  0
   20.0046   -5.5129   11.4770 C   0  0  0  0  0  0  0  0  0  0  0  0
   21.1688   -6.1781   11.8846 C   0  0  0  0  0  0  0  0  0  0  0  0
   22.3214   -5.4533   12.1791 C   0  0  0  0  0  0  0  0  0  0  0  0
   22.2973   -4.0633   12.0581 C   0  0  0  0  0  0  0  0  0  0  0  0
   21.1354   -3.3994   11.6493 C   0  0  0  0  0  0  0  0  0  0  0  0
   23.5183   -5.9725   12.5873 O   0  0  0  0  0  0  0  0  0  0  0  0
   23.4711   -6.9987   13.5706 C   0  0  0  0  0  0  0  0  0  0  0  0
   16.8664   -4.3064   12.3698 C   0  0  0  0  0  0  0  0  0  0  0  0
   17.0219   -3.9555   13.7135 C   0  0  0  0  0  0  0  0  0  0  0  0
   16.4901   -4.7716   14.7146 C   0  0  0  0  0  0  0  0  0  0  0  0
   15.8009   -5.9429   14.3900 C   0  0  0  0  0  0  0  0  0  0  0  0
   15.6426   -6.2919   13.0486 C   0  0  0  0  0  0  0  0  0  0  0  0
   16.1712   -5.4755   12.0419 C   0  0  0  0  0  0  0  0  0  0  0  0
   15.3354   -6.6473   15.4651 O   0  0  0  0  0  0  0  0  0  0  0  0
   14.0033   -7.1387   15.3854 C   0  0  0  0  0  0  0  0  0  0  0  0
   14.3454   -2.4836   11.0788 N   0  0  0  0  0  0  0  0  0  0  0  0
   14.4176   -3.2896   11.6395 H   0  0  0  0  0  0  0  0  0  0  0  0
   13.1080   -1.7099   11.0140 C   0  0  0  0  0  0  0  0  0  0  0  0
   12.3484   -1.7131   12.3438 C   0  0  0  0  0  0  0  0  0  0  0  0
   10.7405   -2.9855   13.5065 C   0  0  0  0  0  0  0  0  0  0  0  0
   11.8132   -3.0222   12.5745 O   0  0  0  0  0  0  0  0  0  0  0  0
 30 31  1  0
 31 29  1  0
 29 28  1  0
 28 26  1  0
 26  1  1  0
  1  2  2  0
  2  3  1  0
  3  4  2  0
  4  5  1  0
  5  6  1  0
  6  7  1  0
  7 10  1  0
 10 11  2  0
 11 12  1  0
 12 13  2  0
 13 16  1  0
 16 17  1  0
 13 14  1  0
 14 15  2  0
  7  8  2  0
  8 18  1  0
 18 19  2  0
 19 20  1  0
 20 21  2  0
 21 24  1  0
 24 25  1  0
 21 22  1  0
 22 23  2  0
  8  9  1  0
  9  1  1  0
  9  5  2  0
 15 10  1  0
 23 18  1  0
 26 27  1  0
M  END
> <minimizedAffinity>
-7.19196

> <CNNscore>
0.3679759800

> <CNNaffinity>
6.3781337738

> <CNN_VS>
2.3470001221

> <CNNaffinity_variance>
0.0163849238

$$$$



 31 34  0  0  0  0  0  0  0  0999 V2000
   17.4124   -2.6936   10.8599 C   0  0  0  0  0  0  0  0  0  0  0  0
   16.2935   -1.9800   10.5862 N   0  0  0  0  0  0  0  0  0  0  0  0
   16.2551   -1.2037    9.4876 C   0  0  0  0  0  0  0  0  0  0  0  0
   17.2149   -1.0259    8.5771 N   0  0  0  0  0  0  0  0  0  0  0  0
   18.3099   -1.7319    8.8840 C   0  0  0  0  0  0  0  0  0  0  0  0
   19.4234   -1.7180    8.1065 O   0  0  0  0  0  0  0  0  0  0  0  0
   20.3572   -2.5270    8.6910 C   0  0  0  0  0  0  0  0  0  0  0  0
   19.8293   -3.0780    9.8515 C   0  0  0  0  0  0  0  0  0  0  0  0
   18.4990   -2.5631    9.9770 C   0  0  0  0  0  0  0  0  0  0  0  0
   21.6324   -2.5941    7.9781 C   0  0  0  0  0  0  0  0  0  0  0  0
   22.5061   -1.4965    7.9824 C   0  0  0  0  0  0  0  0  0  0  0  0
   23.7290   -1.5385    7.2991 C   0  0  0  0  0  0  0  0  0  0  0  0
   24.1007   -2.6852    6.6008 C   0  0  0  0  0  0  0  0  0  0  0  0
   23.2415   -3.7847    6.5971 C   0  0  0  0  0  0  0  0  0  0  0  0
   22.0213   -3.7434    7.2808 C   0  0  0  0  0  0  0  0  0  0  0  0
   25.2576   -2.8595    5.8939 O   0  0  0  0  0  0  0  0  0  0  0  0
   26.4410   -3.0940    6.6468 C   0  0  0  0  0  0  0  0  0  0  0  0
   20.5329   -4.0100   10.7106 C   0  0  0  0  0  0  0  0  0  0  0  0
   20.0687   -5.3204   10.8520 C   0  0  0  0  0  0  0  0  0  0  0  0
   20.7545   -6.2197   11.6718 C   0  0  0  0  0  0  0  0  0  0  0  0
   21.9056   -5.8251   12.3585 C   0  0  0  0  0  0  0  0  0  0  0  0
   22.3712   -4.5180   12.2151 C   0  0  0  0  0  0  0  0  0  0  0  0
   21.6889   -3.6141   11.3923 C   0  0  0  0  0  0  0  0  0  0  0  0
   22.4753   -6.8028   13.1256 O   0  0  0  0  0  0  0  0  0  0  0  0
   23.6360   -6.4461   13.8659 C   0  0  0  0  0  0  0  0  0  0  0  0
   17.4593   -3.5056   11.9925 N   0  0  0  0  0  0  0  0  0  0  0  0
   18.2199   -4.1076   12.1610 H   0  0  0  0  0  0  0  0  0  0  0  0
   16.3325   -3.4256   12.9187 C   0  0  0  0  0  0  0  0  0  0  0  0
   15.4961   -4.7085   12.9313 C   0  0  0  0  0  0  0  0  0  0  0  0
   13.5167   -3.7715   12.0596 C   0  0  0  0  0  0  0  0  0  0  0  0
   14.1278   -4.3732   13.1932 O   0  0  0  0  0  0  0  0  0  0  0  0
 30 31  1  0
 31 29  1  0
 29 28  1  0
 28 26  1  0
 26  1  1  0
  1  2  2  0
  2  3  1  0
  3  4  2  0
  4  5  1  0
  5  6  1  0
  6  7  1  0
  7 10  1  0
 10 11  2  0
 11 12  1  0
 12 13  2  0
 13 16  1  0
 16 17  1  0
 13 14  1  0
 14 15  2  0
  7  8  2  0
  8 18  1  0
 18 19  2  0
 19 20  1  0
 20 21  2  0
 21 24  1  0
 24 25  1  0
 21 22  1  0
 22 23  2  0
  8  9  1  0
  9  1  1  0
  9  5  2  0
 15 10  1  0
 23 18  1  0
 26 27  1  0
M  END
> <minimizedAffinity>
-5.73637

> <CNNscore>
0.3505752683

> <CNNaffinity>
6.1611924171

> <CNN_VS>
2.1599617004

> <CNNaffinity_variance>
0.0562083833

$$$$



 31 34  0  0  0  0  0  0  0  0999 V2000
   18.8100   -3.5697   10.6527 C   0  0  0  0  0  0  0  0  0  0  0  0
   19.3367   -2.8160    9.6575 N   0  0  0  0  0  0  0  0  0  0  0  0
   18.5675   -1.8981    9.0436 C   0  0  0  0  0  0  0  0  0  0  0  0
   17.2881   -1.6066    9.2885 N   0  0  0  0  0  0  0  0  0  0  0  0
   16.7945   -2.3774   10.2651 C   0  0  0  0  0  0  0  0  0  0  0  0
   15.5116   -2.2676   10.6975 O   0  0  0  0  0  0  0  0  0  0  0  0
   15.3187   -3.1903   11.6873 C   0  0  0  0  0  0  0  0  0  0  0  0
   16.4986   -3.8910   11.9016 C   0  0  0  0  0  0  0  0  0  0  0  0
   17.4581   -3.3628   10.9792 C   0  0  0  0  0  0  0  0  0  0  0  0
   13.9648   -3.2124   12.2397 C   0  0  0  0  0  0  0  0  0  0  0  0
   12.8729   -3.5547   11.4279 C   0  0  0  0  0  0  0  0  0  0  0  0
   11.5672   -3.5743   11.9367 C   0  0  0  0  0  0  0  0  0  0  0  0
   11.3322   -3.2541   13.2719 C   0  0  0  0  0  0  0  0  0  0  0  0
   12.4129   -2.9196   14.0889 C   0  0  0  0  0  0  0  0  0  0  0  0
   13.7167   -2.9018   13.5814 C   0  0  0  0  0  0  0  0  0  0  0  0
   10.1151   -3.2320   13.8938 O   0  0  0  0  0  0  0  0  0  0  0  0
    9.1852   -2.2516   13.4503 C   0  0  0  0  0  0  0  0  0  0  0  0
   16.6670   -4.9271   12.9016 C   0  0  0  0  0  0  0  0  0  0  0  0
   16.9680   -4.5841   14.2224 C   0  0  0  0  0  0  0  0  0  0  0  0
   17.1189   -5.5835   15.1865 C   0  0  0  0  0  0  0  0  0  0  0  0
   16.9736   -6.9310   14.8470 C   0  0  0  0  0  0  0  0  0  0  0  0
   16.6700   -7.2737   13.5293 C   0  0  0  0  0  0  0  0  0  0  0  0
   16.5147   -6.2754   12.5604 C   0  0  0  0  0  0  0  0  0  0  0  0
   17.1494   -7.8028   15.8852 O   0  0  0  0  0  0  0  0  0  0  0  0
   18.3414   -7.6637   16.6483 C   0  0  0  0  0  0  0  0  0  0  0  0
   19.6011   -4.5190   11.2989 N   0  0  0  0  0  0  0  0  0  0  0  0
   19.2309   -5.1053   11.9978 H   0  0  0  0  0  0  0  0  0  0  0  0
   21.0023   -4.6070   10.8952 C   0  0  0  0  0  0  0  0  0  0  0  0
   21.9421   -3.9376   11.9022 C   0  0  0  0  0  0  0  0  0  0  0  0
   23.4728   -3.9418   10.1097 C   0  0  0  0  0  0  0  0  0  0  0  0
   22.9359   -3.1901   11.1902 O   0  0  0  0  0  0  0  0  0  0  0  0
 30 31  1  0
 31 29  1  0
 29 28  1  0
 28 26  1  0
 26  1  1  0
  1  2  2  0
  2  3  1  0
  3  4  2  0
  4  5  1  0
  5  6  1  0
  6  7  1  0
  7 10  1  0
 10 11  2  0
 11 12  1  0
 12 13  2  0
 13 16  1  0
 16 17  1  0
 13 14  1  0
 14 15  2  0
  7  8  2  0
  8 18  1  0
 18 19  2  0
 19 20  1  0
 20 21  2  0
 21 24  1  0
 24 25  1  0
 21 22  1  0
 22 23  2  0
  8  9  1  0
  9  1  1  0
  9  5  2  0
 15 10  1  0
 23 18  1  0
 26 27  1  0
M  END
> <minimizedAffinity>
-7.19468

> <CNNscore>
0.3426042199

> <CNNaffinity>
6.5440554619

> <CNN_VS>
2.2420210838

> <CNNaffinity_variance>
0.0315832794

$$$$
