


 26 27  0  0  0  0  0  0  0  0999 V2000
   59.2058   78.0200   -5.0941 O   0  0  0  0  0  0  0  0  0  0  0  0
   59.6275   76.8861   -4.8608 C   0  0  0  0  0  0  0  0  0  0  0  0
   61.1044   76.6347   -4.6235 C   0  0  0  0  0  0  0  0  0  0  0  0
   61.9799   77.0397   -5.8076 C   0  0  0  0  0  0  0  0  0  0  0  0
   61.7323   76.1843   -7.0561 C   0  0  0  0  0  0  0  0  0  0  0  0
   60.8994   76.9196   -8.1135 C   0  0  0  0  0  0  0  0  0  0  0  0
   60.4504   75.9947   -9.2483 C   0  0  0  0  0  0  0  0  0  0  0  0
   59.2734   75.1522   -8.8392 C   0  0  0  0  0  0  0  0  0  0  0  0
   59.3215   73.8250   -8.6447 C   0  0  0  0  0  0  0  0  0  0  0  0
   58.1879   72.9198   -8.2253 C   0  0  0  0  0  0  0  0  0  0  0  0
   56.8275   73.5676   -7.9484 C   0  0  0  0  0  0  0  0  0  0  0  0
   56.8698   74.2640   -6.6883 O   0  0  0  0  0  0  0  0  0  0  0  0
   56.2365   75.4582   -6.6473 C   0  0  0  0  0  0  0  0  0  0  0  0
   55.6353   76.0023   -7.5616 O   0  0  0  0  0  0  0  0  0  0  0  0
   56.1880   75.9738   -5.2600 C   0  0  0  0  0  0  0  0  0  0  0  0
   54.9285   76.4316   -4.8205 C   0  0  0  0  0  0  0  0  0  0  0  0
   53.8280   76.5014   -5.6369 O   0  0  0  0  0  0  0  0  0  0  0  0
   54.7310   76.8391   -3.5070 C   0  0  0  0  0  0  0  0  0  0  0  0
   55.7997   76.8147   -2.6257 C   0  0  0  0  0  0  0  0  0  0  0  0
   55.5543   77.2152   -1.3397 O   0  0  0  0  0  0  0  0  0  0  0  0
   57.0727   76.4065   -3.0496 C   0  0  0  0  0  0  0  0  0  0  0  0
   58.3499   76.4071   -1.8712 Cl  0  0  0  0  0  0  0  0  0  0  0  0
   57.3004   75.9970   -4.3840 C   0  0  0  0  0  0  0  0  0  0  0  0
   58.7100   75.6706   -4.8394 C   0  0  0  0  0  0  0  0  0  0  0  0
   53.8935   76.2413   -6.5347 H   0  0  0  0  0  0  0  0  0  0  0  0
   54.6919   77.4821   -1.0886 H   0  0  0  0  0  0  0  0  0  0  0  0
  1  2  2  0
  2  3  1  0
  3  4  1  0
  4  5  1  0
  5  6  1  0
  6  7  1  0
  7  8  1  0
  8  9  2  0
  9 10  1  0
 10 11  1  0
 11 12  1  0
 12 13  1  0
 13 14  2  0
 13 15  1  0
 15 16  2  0
 16 17  1  0
 16 18  1  0
 18 19  2  0
 19 20  1  0
 19 21  1  0
 21 22  1  0
 21 23  2  0
 23 24  1  0
 24  2  1  0
 23 15  1  0
 17 25  1  0
 20 26  1  0
M  END
> <minimizedAffinity>
-6.96366

> <CNNscore>
0.6918928027

> <CNNaffinity>
5.7246246338

> <CNN_VS>
3.9608266354

> <CNNaffinity_variance>
0.0505786724

$$$$



 26 27  0  0  0  0  0  0  0  0999 V2000
   58.0604   74.3701   -5.5644 O   0  0  0  0  0  0  0  0  0  0  0  0
   58.5808   75.2720   -6.2230 C   0  0  0  0  0  0  0  0  0  0  0  0
   59.1216   75.0107   -7.6159 C   0  0  0  0  0  0  0  0  0  0  0  0
   60.2202   73.9501   -7.6438 C   0  0  0  0  0  0  0  0  0  0  0  0
   61.4941   74.3873   -6.9104 C   0  0  0  0  0  0  0  0  0  0  0  0
   61.6347   73.7230   -5.5352 C   0  0  0  0  0  0  0  0  0  0  0  0
   62.7689   74.3328   -4.7066 C   0  0  0  0  0  0  0  0  0  0  0  0
   62.3565   75.6392   -4.0856 C   0  0  0  0  0  0  0  0  0  0  0  0
   62.8435   76.8373   -4.4449 C   0  0  0  0  0  0  0  0  0  0  0  0
   62.4702   78.1851   -3.8755 C   0  0  0  0  0  0  0  0  0  0  0  0
   61.3901   78.2224   -2.7897 C   0  0  0  0  0  0  0  0  0  0  0  0
   60.0967   78.0045   -3.3849 O   0  0  0  0  0  0  0  0  0  0  0  0
   59.2462   77.2177   -2.6874 C   0  0  0  0  0  0  0  0  0  0  0  0
   59.4596   76.6782   -1.6118 O   0  0  0  0  0  0  0  0  0  0  0  0
   57.9002   77.2317   -3.3045 C   0  0  0  0  0  0  0  0  0  0  0  0
   56.8231   77.4484   -2.4201 C   0  0  0  0  0  0  0  0  0  0  0  0
   56.9754   77.5405   -1.0597 O   0  0  0  0  0  0  0  0  0  0  0  0
   55.5240   77.5889   -2.8917 C   0  0  0  0  0  0  0  0  0  0  0  0
   55.2866   77.4901   -4.2531 C   0  0  0  0  0  0  0  0  0  0  0  0
   53.9923   77.6459   -4.6715 O   0  0  0  0  0  0  0  0  0  0  0  0
   56.3338   77.2302   -5.1491 C   0  0  0  0  0  0  0  0  0  0  0  0
   55.9383   77.1262   -6.8380 Cl  0  0  0  0  0  0  0  0  0  0  0  0
   57.6628   77.0734   -4.6916 C   0  0  0  0  0  0  0  0  0  0  0  0
   58.7528   76.6809   -5.6708 C   0  0  0  0  0  0  0  0  0  0  0  0
   57.8263   77.4547   -0.6766 H   0  0  0  0  0  0  0  0  0  0  0  0
   53.3156   77.8188   -4.0468 H   0  0  0  0  0  0  0  0  0  0  0  0
  1  2  2  0
  2  3  1  0
  3  4  1  0
  4  5  1  0
  5  6  1  0
  6  7  1  0
  7  8  1  0
  8  9  2  0
  9 10  1  0
 10 11  1  0
 11 12  1  0
 12 13  1  0
 13 14  2  0
 13 15  1  0
 15 16  2  0
 16 17  1  0
 16 18  1  0
 18 19  2  0
 19 20  1  0
 19 21  1  0
 21 22  1  0
 21 23  2  0
 23 24  1  0
 24  2  1  0
 23 15  1  0
 17 25  1  0
 20 26  1  0
M  END
> <minimizedAffinity>
-6.58375

> <CNNscore>
0.4346757829

> <CNNaffinity>
5.1721825600

> <CNN_VS>
2.2482225895

> <CNNaffinity_variance>
0.0124483453

$$$$



 26 27  0  0  0  0  0  0  0  0999 V2000
   59.9078   77.4281   -1.9109 O   0  0  0  0  0  0  0  0  0  0  0  0
   59.7462   76.2069   -1.9347 C   0  0  0  0  0  0  0  0  0  0  0  0
   60.2510   75.3294   -0.8051 C   0  0  0  0  0  0  0  0  0  0  0  0
   61.7613   75.4256   -0.5995 C   0  0  0  0  0  0  0  0  0  0  0  0
   62.5637   74.8722   -1.7835 C   0  0  0  0  0  0  0  0  0  0  0  0
   63.1555   75.9833   -2.6596 C   0  0  0  0  0  0  0  0  0  0  0  0
   63.7488   75.4433   -3.9639 C   0  0  0  0  0  0  0  0  0  0  0  0
   62.6765   75.1508   -4.9774 C   0  0  0  0  0  0  0  0  0  0  0  0
   62.3293   73.9185   -5.3804 C   0  0  0  0  0  0  0  0  0  0  0  0
   61.2604   73.5502   -6.3814 C   0  0  0  0  0  0  0  0  0  0  0  0
   60.4394   74.6892   -6.9945 C   0  0  0  0  0  0  0  0  0  0  0  0
   59.4988   75.1859   -6.0232 O   0  0  0  0  0  0  0  0  0  0  0  0
   59.3301   76.5273   -5.9910 C   0  0  0  0  0  0  0  0  0  0  0  0
   59.8876   77.3548   -6.6966 O   0  0  0  0  0  0  0  0  0  0  0  0
   58.2076   76.8888   -5.0953 C   0  0  0  0  0  0  0  0  0  0  0  0
   57.2698   77.7992   -5.6254 C   0  0  0  0  0  0  0  0  0  0  0  0
   57.4186   78.4041   -6.8478 O   0  0  0  0  0  0  0  0  0  0  0  0
   56.1182   78.1335   -4.9240 C   0  0  0  0  0  0  0  0  0  0  0  0
   55.9053   77.5773   -3.6731 C   0  0  0  0  0  0  0  0  0  0  0  0
   54.7516   77.9282   -3.0248 O   0  0  0  0  0  0  0  0  0  0  0  0
   56.8442   76.7044   -3.1045 C   0  0  0  0  0  0  0  0  0  0  0  0
   56.4882   76.0553   -1.5324 Cl  0  0  0  0  0  0  0  0  0  0  0  0
   58.0287   76.3572   -3.7950 C   0  0  0  0  0  0  0  0  0  0  0  0
   59.0761   75.5024   -3.1070 C   0  0  0  0  0  0  0  0  0  0  0  0
   58.1737   78.2218   -7.3719 H   0  0  0  0  0  0  0  0  0  0  0  0
   54.1446   78.5141   -3.4326 H   0  0  0  0  0  0  0  0  0  0  0  0
  1  2  2  0
  2  3  1  0
  3  4  1  0
  4  5  1  0
  5  6  1  0
  6  7  1  0
  7  8  1  0
  8  9  2  0
  9 10  1  0
 10 11  1  0
 11 12  1  0
 12 13  1  0
 13 14  2  0
 13 15  1  0
 15 16  2  0
 16 17  1  0
 16 18  1  0
 18 19  2  0
 19 20  1  0
 19 21  1  0
 21 22  1  0
 21 23  2  0
 23 24  1  0
 24  2  1  0
 23 15  1  0
 17 25  1  0
 20 26  1  0
M  END
> <minimizedAffinity>
-7.17489

> <CNNscore>
0.4296394289

> <CNNaffinity>
5.4611315727

> <CNN_VS>
2.3463175297

> <CNNaffinity_variance>
0.0807488561

$$$$



 26 27  0  0  0  0  0  0  0  0999 V2000
   58.5000   74.3988   -3.7592 O   0  0  0  0  0  0  0  0  0  0  0  0
   58.7459   75.6055   -3.7960 C   0  0  0  0  0  0  0  0  0  0  0  0
   59.7009   76.2394   -2.8026 C   0  0  0  0  0  0  0  0  0  0  0  0
   59.2561   76.0707   -1.3512 C   0  0  0  0  0  0  0  0  0  0  0  0
   57.9574   76.8210   -1.0314 C   0  0  0  0  0  0  0  0  0  0  0  0
   56.7462   75.8840   -0.9460 C   0  0  0  0  0  0  0  0  0  0  0  0
   55.4221   76.6490   -0.8659 C   0  0  0  0  0  0  0  0  0  0  0  0
   54.9952   77.1543   -2.2168 C   0  0  0  0  0  0  0  0  0  0  0  0
   54.9776   78.4486   -2.5719 C   0  0  0  0  0  0  0  0  0  0  0  0
   54.5730   79.0258   -3.9073 C   0  0  0  0  0  0  0  0  0  0  0  0
   54.1675   78.0441   -5.0114 C   0  0  0  0  0  0  0  0  0  0  0  0
   55.3405   77.3932   -5.5359 O   0  0  0  0  0  0  0  0  0  0  0  0
   55.2166   76.0746   -5.8093 C   0  0  0  0  0  0  0  0  0  0  0  0
   54.2193   75.3842   -5.6601 O   0  0  0  0  0  0  0  0  0  0  0  0
   56.4179   75.5750   -6.5165 C   0  0  0  0  0  0  0  0  0  0  0  0
   56.1722   74.8045   -7.6720 C   0  0  0  0  0  0  0  0  0  0  0  0
   54.9132   74.4406   -8.0783 O   0  0  0  0  0  0  0  0  0  0  0  0
   57.2152   74.3694   -8.4800 C   0  0  0  0  0  0  0  0  0  0  0  0
   58.5177   74.6815   -8.1258 C   0  0  0  0  0  0  0  0  0  0  0  0
   59.5112   74.2403   -8.9582 O   0  0  0  0  0  0  0  0  0  0  0  0
   58.7913   75.4079   -6.9577 C   0  0  0  0  0  0  0  0  0  0  0  0
   60.4561   75.7532   -6.5983 Cl  0  0  0  0  0  0  0  0  0  0  0  0
   57.7469   75.8528   -6.1142 C   0  0  0  0  0  0  0  0  0  0  0  0
   58.0808   76.5361   -4.8018 C   0  0  0  0  0  0  0  0  0  0  0  0
   54.1656   74.7020   -7.5776 H   0  0  0  0  0  0  0  0  0  0  0  0
   59.2945   73.7572   -9.7313 H   0  0  0  0  0  0  0  0  0  0  0  0
  1  2  2  0
  2  3  1  0
  3  4  1  0
  4  5  1  0
  5  6  1  0
  6  7  1  0
  7  8  1  0
  8  9  2  0
  9 10  1  0
 10 11  1  0
 11 12  1  0
 12 13  1  0
 13 14  2  0
 13 15  1  0
 15 16  2  0
 16 17  1  0
 16 18  1  0
 18 19  2  0
 19 20  1  0
 19 21  1  0
 21 22  1  0
 21 23  2  0
 23 24  1  0
 24  2  1  0
 23 15  1  0
 17 25  1  0
 20 26  1  0
M  END
> <minimizedAffinity>
-8.03655

> <CNNscore>
0.3598877788

> <CNNaffinity>
5.3769745827

> <CNN_VS>
1.9351074696

> <CNNaffinity_variance>
0.0936178938

$$$$



 26 27  0  0  0  0  0  0  0  0999 V2000
   58.5167   74.2057   -6.6286 O   0  0  0  0  0  0  0  0  0  0  0  0
   58.5223   75.0867   -7.4898 C   0  0  0  0  0  0  0  0  0  0  0  0
   58.7503   74.7499   -8.9511 C   0  0  0  0  0  0  0  0  0  0  0  0
   60.0956   74.0741   -9.2084 C   0  0  0  0  0  0  0  0  0  0  0  0
   61.2911   74.9927   -8.9277 C   0  0  0  0  0  0  0  0  0  0  0  0
   61.9869   74.6590   -7.6022 C   0  0  0  0  0  0  0  0  0  0  0  0
   63.0218   75.7155   -7.2053 C   0  0  0  0  0  0  0  0  0  0  0  0
   62.3670   76.9315   -6.6095 C   0  0  0  0  0  0  0  0  0  0  0  0
   62.3184   78.1345   -7.2029 C   0  0  0  0  0  0  0  0  0  0  0  0
   61.6723   79.3917   -6.6715 C   0  0  0  0  0  0  0  0  0  0  0  0
   60.9521   79.3037   -5.3222 C   0  0  0  0  0  0  0  0  0  0  0  0
   59.7003   78.6100   -5.4853 O   0  0  0  0  0  0  0  0  0  0  0  0
   59.3663   77.7466   -4.4995 C   0  0  0  0  0  0  0  0  0  0  0  0
   60.0111   77.4975   -3.4917 O   0  0  0  0  0  0  0  0  0  0  0  0
   57.9837   77.2511   -4.6886 C   0  0  0  0  0  0  0  0  0  0  0  0
   57.1556   77.2960   -3.5478 C   0  0  0  0  0  0  0  0  0  0  0  0
   57.6055   77.6728   -2.3076 O   0  0  0  0  0  0  0  0  0  0  0  0
   55.8099   76.9592   -3.6237 C   0  0  0  0  0  0  0  0  0  0  0  0
   55.2847   76.5508   -4.8390 C   0  0  0  0  0  0  0  0  0  0  0  0
   53.9518   76.2394   -4.8671 O   0  0  0  0  0  0  0  0  0  0  0  0
   56.0972   76.4544   -5.9780 C   0  0  0  0  0  0  0  0  0  0  0  0
   55.3478   75.9354   -7.4574 Cl  0  0  0  0  0  0  0  0  0  0  0  0
   57.4719   76.7822   -5.9229 C   0  0  0  0  0  0  0  0  0  0  0  0
   58.3467   76.5591   -7.1419 C   0  0  0  0  0  0  0  0  0  0  0  0
   58.5034   77.9125   -2.1879 H   0  0  0  0  0  0  0  0  0  0  0  0
   53.4366   76.3146   -4.0880 H   0  0  0  0  0  0  0  0  0  0  0  0
  1  2  2  0
  2  3  1  0
  3  4  1  0
  4  5  1  0
  5  6  1  0
  6  7  1  0
  7  8  1  0
  8  9  2  0
  9 10  1  0
 10 11  1  0
 11 12  1  0
 12 13  1  0
 13 14  2  0
 13 15  1  0
 15 16  2  0
 16 17  1  0
 16 18  1  0
 18 19  2  0
 19 20  1  0
 19 21  1  0
 21 22  1  0
 21 23  2  0
 23 24  1  0
 24  2  1  0
 23 15  1  0
 17 25  1  0
 20 26  1  0
M  END
> <minimizedAffinity>
-6.61585

> <CNNscore>
0.3016390204

> <CNNaffinity>
4.8818159103

> <CNN_VS>
1.4725462198

> <CNNaffinity_variance>
0.3357883394

$$$$



 26 27  0  0  0  0  0  0  0  0999 V2000
   58.9536   74.7894   -2.5534 O   0  0  0  0  0  0  0  0  0  0  0  0
   58.9743   75.9640   -2.1822 C   0  0  0  0  0  0  0  0  0  0  0  0
   57.7329   76.6270   -1.6164 C   0  0  0  0  0  0  0  0  0  0  0  0
   56.5625   76.6457   -2.5975 C   0  0  0  0  0  0  0  0  0  0  0  0
   56.8274   77.5193   -3.8297 C   0  0  0  0  0  0  0  0  0  0  0  0
   57.1576   76.6884   -5.0759 C   0  0  0  0  0  0  0  0  0  0  0  0
   57.6535   77.5532   -6.2383 C   0  0  0  0  0  0  0  0  0  0  0  0
   59.0951   77.9433   -6.0588 C   0  0  0  0  0  0  0  0  0  0  0  0
   59.5168   79.1907   -5.7983 C   0  0  0  0  0  0  0  0  0  0  0  0
   60.9404   79.6520   -5.5964 C   0  0  0  0  0  0  0  0  0  0  0  0
   62.0449   78.5920   -5.6536 C   0  0  0  0  0  0  0  0  0  0  0  0
   62.0239   77.8046   -4.4476 O   0  0  0  0  0  0  0  0  0  0  0  0
   62.2328   76.4772   -4.6005 C   0  0  0  0  0  0  0  0  0  0  0  0
   62.4377   75.8819   -5.6479 O   0  0  0  0  0  0  0  0  0  0  0  0
   62.3787   75.8185   -3.2823 C   0  0  0  0  0  0  0  0  0  0  0  0
   63.4826   74.9506   -3.1502 C   0  0  0  0  0  0  0  0  0  0  0  0
   64.3222   74.6399   -4.1899 O   0  0  0  0  0  0  0  0  0  0  0  0
   63.7873   74.3570   -1.9317 C   0  0  0  0  0  0  0  0  0  0  0  0
   62.9750   74.6077   -0.8377 C   0  0  0  0  0  0  0  0  0  0  0  0
   63.3210   74.0090    0.3439 O   0  0  0  0  0  0  0  0  0  0  0  0
   61.8456   75.4311   -0.9539 C   0  0  0  0  0  0  0  0  0  0  0  0
   60.8894   75.6886    0.4741 Cl  0  0  0  0  0  0  0  0  0  0  0  0
   61.5095   76.0383   -2.1861 C   0  0  0  0  0  0  0  0  0  0  0  0
   60.2211   76.8298   -2.3068 C   0  0  0  0  0  0  0  0  0  0  0  0
   64.1724   75.0071   -5.0388 H   0  0  0  0  0  0  0  0  0  0  0  0
   64.0823   73.4644    0.3879 H   0  0  0  0  0  0  0  0  0  0  0  0
  1  2  2  0
  2  3  1  0
  3  4  1  0
  4  5  1  0
  5  6  1  0
  6  7  1  0
  7  8  1  0
  8  9  2  0
  9 10  1  0
 10 11  1  0
 11 12  1  0
 12 13  1  0
 13 14  2  0
 13 15  1  0
 15 16  2  0
 16 17  1  0
 16 18  1  0
 18 19  2  0
 19 20  1  0
 19 21  1  0
 21 22  1  0
 21 23  2  0
 23 24  1  0
 24  2  1  0
 23 15  1  0
 17 25  1  0
 20 26  1  0
M  END
> <minimizedAffinity>
-7.75507

> <CNNscore>
0.2443528920

> <CNNaffinity>
4.9591979980

> <CNN_VS>
1.2117943764

> <CNNaffinity_variance>
0.4323958457

$$$$



 26 27  0  0  0  0  0  0  0  0999 V2000
   59.5942   74.9626   -3.4975 O   0  0  0  0  0  0  0  0  0  0  0  0
   59.5454   76.1232   -3.0872 C   0  0  0  0  0  0  0  0  0  0  0  0
   58.2175   76.8352   -2.9117 C   0  0  0  0  0  0  0  0  0  0  0  0
   57.4193   76.9447   -4.2092 C   0  0  0  0  0  0  0  0  0  0  0  0
   58.0965   77.8380   -5.2558 C   0  0  0  0  0  0  0  0  0  0  0  0
   58.7690   77.0268   -6.3704 C   0  0  0  0  0  0  0  0  0  0  0  0
   59.6426   77.8969   -7.2784 C   0  0  0  0  0  0  0  0  0  0  0  0
   60.9684   78.2038   -6.6376 C   0  0  0  0  0  0  0  0  0  0  0  0
   61.3377   79.4189   -6.2029 C   0  0  0  0  0  0  0  0  0  0  0  0
   62.6424   79.7974   -5.5435 C   0  0  0  0  0  0  0  0  0  0  0  0
   63.6630   78.6817   -5.2971 C   0  0  0  0  0  0  0  0  0  0  0  0
   63.2289   77.8623   -4.1950 O   0  0  0  0  0  0  0  0  0  0  0  0
   63.4198   76.5306   -4.3330 C   0  0  0  0  0  0  0  0  0  0  0  0
   63.9205   75.9555   -5.2880 O   0  0  0  0  0  0  0  0  0  0  0  0
   63.1138   75.8274   -3.0662 C   0  0  0  0  0  0  0  0  0  0  0  0
   64.0820   74.8982   -2.6321 C   0  0  0  0  0  0  0  0  0  0  0  0
   65.1935   74.5730   -3.3677 O   0  0  0  0  0  0  0  0  0  0  0  0
   63.9606   74.2543   -1.4071 C   0  0  0  0  0  0  0  0  0  0  0  0
   62.8553   74.5167   -0.6141 C   0  0  0  0  0  0  0  0  0  0  0  0
   62.7846   73.8665    0.5887 O   0  0  0  0  0  0  0  0  0  0  0  0
   61.8560   75.4023   -1.0430 C   0  0  0  0  0  0  0  0  0  0  0  0
   60.5089   75.6694    0.0217 Cl  0  0  0  0  0  0  0  0  0  0  0  0
   61.9525   76.0618   -2.2903 C   0  0  0  0  0  0  0  0  0  0  0  0
   60.8026   76.9243   -2.7750 C   0  0  0  0  0  0  0  0  0  0  0  0
   65.3354   74.9719   -4.2036 H   0  0  0  0  0  0  0  0  0  0  0  0
   63.4695   73.2810    0.8457 H   0  0  0  0  0  0  0  0  0  0  0  0
  1  2  2  0
  2  3  1  0
  3  4  1  0
  4  5  1  0
  5  6  1  0
  6  7  1  0
  7  8  1  0
  8  9  2  0
  9 10  1  0
 10 11  1  0
 11 12  1  0
 12 13  1  0
 13 14  2  0
 13 15  1  0
 15 16  2  0
 16 17  1  0
 16 18  1  0
 18 19  2  0
 19 20  1  0
 19 21  1  0
 21 22  1  0
 21 23  2  0
 23 24  1  0
 24  2  1  0
 23 15  1  0
 17 25  1  0
 20 26  1  0
M  END
> <minimizedAffinity>
-7.06853

> <CNNscore>
0.2196610868

> <CNNaffinity>
4.8727478981

> <CNN_VS>
1.0703531504

> <CNNaffinity_variance>
0.2646365464

$$$$



 26 27  0  0  0  0  0  0  0  0999 V2000
   60.2865   77.1235   -5.3733 O   0  0  0  0  0  0  0  0  0  0  0  0
   60.5375   75.9211   -5.2776 C   0  0  0  0  0  0  0  0  0  0  0  0
   61.9690   75.4195   -5.2714 C   0  0  0  0  0  0  0  0  0  0  0  0
   62.7380   75.7837   -6.5398 C   0  0  0  0  0  0  0  0  0  0  0  0
   62.1886   75.0916   -7.7932 C   0  0  0  0  0  0  0  0  0  0  0  0
   61.3608   76.0396   -8.6698 C   0  0  0  0  0  0  0  0  0  0  0  0
   60.6178   75.3010   -9.7866 C   0  0  0  0  0  0  0  0  0  0  0  0
   59.3792   74.6224   -9.2690 C   0  0  0  0  0  0  0  0  0  0  0  0
   59.2276   73.2924   -9.1706 C   0  0  0  0  0  0  0  0  0  0  0  0
   58.0222   72.5444   -8.6533 C   0  0  0  0  0  0  0  0  0  0  0  0
   56.8387   73.3723   -8.1424 C   0  0  0  0  0  0  0  0  0  0  0  0
   57.1622   73.9394   -6.8585 O   0  0  0  0  0  0  0  0  0  0  0  0
   56.7503   75.2103   -6.6491 C   0  0  0  0  0  0  0  0  0  0  0  0
   56.1353   75.9212   -7.4301 O   0  0  0  0  0  0  0  0  0  0  0  0
   56.9712   75.6029   -5.2384 C   0  0  0  0  0  0  0  0  0  0  0  0
   55.8754   76.2135   -4.5938 C   0  0  0  0  0  0  0  0  0  0  0  0
   54.7054   76.5281   -5.2377 O   0  0  0  0  0  0  0  0  0  0  0  0
   55.9228   76.5297   -3.2418 C   0  0  0  0  0  0  0  0  0  0  0  0
   57.0779   76.2591   -2.5263 C   0  0  0  0  0  0  0  0  0  0  0  0
   57.0738   76.5784   -1.1950 O   0  0  0  0  0  0  0  0  0  0  0  0
   58.1973   75.6937   -3.1541 C   0  0  0  0  0  0  0  0  0  0  0  0
   59.5992   75.3886   -2.1736 Cl  0  0  0  0  0  0  0  0  0  0  0  0
   58.1763   75.3726   -4.5313 C   0  0  0  0  0  0  0  0  0  0  0  0
   59.4389   74.8688   -5.2044 C   0  0  0  0  0  0  0  0  0  0  0  0
   54.6082   76.3410   -6.1507 H   0  0  0  0  0  0  0  0  0  0  0  0
   56.3091   76.9551   -0.8059 H   0  0  0  0  0  0  0  0  0  0  0  0
  1  2  2  0
  2  3  1  0
  3  4  1  0
  4  5  1  0
  5  6  1  0
  6  7  1  0
  7  8  1  0
  8  9  2  0
  9 10  1  0
 10 11  1  0
 11 12  1  0
 12 13  1  0
 13 14  2  0
 13 15  1  0
 15 16  2  0
 16 17  1  0
 16 18  1  0
 18 19  2  0
 19 20  1  0
 19 21  1  0
 21 22  1  0
 21 23  2  0
 23 24  1  0
 24  2  1  0
 23 15  1  0
 17 25  1  0
 20 26  1  0
M  END
> <minimizedAffinity>
-6.48979

> <CNNscore>
0.1984089166

> <CNNaffinity>
4.7993922234

> <CNN_VS>
0.9522421956

> <CNNaffinity_variance>
0.1369653940

$$$$



 26 27  0  0  0  0  0  0  0  0999 V2000
   58.3965   78.5958   -7.0431 O   0  0  0  0  0  0  0  0  0  0  0  0
   59.0566   78.1124   -6.1219 C   0  0  0  0  0  0  0  0  0  0  0  0
   60.0460   78.9571   -5.3420 C   0  0  0  0  0  0  0  0  0  0  0  0
   61.1476   79.5521   -6.2167 C   0  0  0  0  0  0  0  0  0  0  0  0
   62.0762   78.4892   -6.8165 C   0  0  0  0  0  0  0  0  0  0  0  0
   61.7850   78.2273   -8.2994 C   0  0  0  0  0  0  0  0  0  0  0  0
   62.5408   77.0082   -8.8353 C   0  0  0  0  0  0  0  0  0  0  0  0
   61.8726   75.7233   -8.4288 C   0  0  0  0  0  0  0  0  0  0  0  0
   62.3846   74.8467   -7.5507 C   0  0  0  0  0  0  0  0  0  0  0  0
   61.7681   73.5478   -7.0892 C   0  0  0  0  0  0  0  0  0  0  0  0
   60.3866   73.1821   -7.6412 C   0  0  0  0  0  0  0  0  0  0  0  0
   59.3812   73.9985   -7.0109 O   0  0  0  0  0  0  0  0  0  0  0  0
   58.3913   74.4489   -7.8148 C   0  0  0  0  0  0  0  0  0  0  0  0
   58.2620   74.2349   -9.0110 O   0  0  0  0  0  0  0  0  0  0  0  0
   57.3309   75.1051   -7.0162 C   0  0  0  0  0  0  0  0  0  0  0  0
   56.0097   74.7065   -7.3074 C   0  0  0  0  0  0  0  0  0  0  0  0
   55.6926   73.8462   -8.3280 O   0  0  0  0  0  0  0  0  0  0  0  0
   54.9376   75.1702   -6.5552 C   0  0  0  0  0  0  0  0  0  0  0  0
   55.1755   76.0571   -5.5177 C   0  0  0  0  0  0  0  0  0  0  0  0
   54.0893   76.4779   -4.7982 O   0  0  0  0  0  0  0  0  0  0  0  0
   56.4748   76.5037   -5.2366 C   0  0  0  0  0  0  0  0  0  0  0  0
   56.6739   77.6137   -3.9144 Cl  0  0  0  0  0  0  0  0  0  0  0  0
   57.5806   76.0537   -5.9948 C   0  0  0  0  0  0  0  0  0  0  0  0
   58.9555   76.6416   -5.7396 C   0  0  0  0  0  0  0  0  0  0  0  0
   56.3695   73.4968   -8.8736 H   0  0  0  0  0  0  0  0  0  0  0  0
   53.2341   76.1602   -5.0119 H   0  0  0  0  0  0  0  0  0  0  0  0
  1  2  2  0
  2  3  1  0
  3  4  1  0
  4  5  1  0
  5  6  1  0
  6  7  1  0
  7  8  1  0
  8  9  2  0
  9 10  1  0
 10 11  1  0
 11 12  1  0
 12 13  1  0
 13 14  2  0
 13 15  1  0
 15 16  2  0
 16 17  1  0
 16 18  1  0
 18 19  2  0
 19 20  1  0
 19 21  1  0
 21 22  1  0
 21 23  2  0
 23 24  1  0
 24  2  1  0
 23 15  1  0
 17 25  1  0
 20 26  1  0
M  END
> <minimizedAffinity>
-6.53327

> <CNNscore>
0.1977733374

> <CNNaffinity>
4.4402503967

> <CNN_VS>
0.8781631589

> <CNNaffinity_variance>
0.2163329124

$$$$
