


 13 13  0  0  0  0  0  0  0  0999 V2000
   45.2980   19.2637   51.3885 C   0  0  0  0  0  0  0  0  0  0  0  0
   44.3678   19.5092   50.3676 C   0  0  0  0  0  0  0  0  0  0  0  0
   44.4461   20.6782   49.6063 C   0  0  0  0  0  0  0  0  0  0  0  0
   45.4515   21.6073   49.8616 C   0  0  0  0  0  0  0  0  0  0  0  0
   45.5441   23.0465   48.9267 Cl  0  0  0  0  0  0  0  0  0  0  0  0
   46.3817   21.3759   50.8719 C   0  0  0  0  0  0  0  0  0  0  0  0
   46.3059   20.2078   51.6349 C   0  0  0  0  0  0  0  0  0  0  0  0
   45.1978   18.0178   52.2286 C   0  0  0  0  0  0  0  0  0  0  0  0
   46.9496   18.0179   53.9699 N   0  0  0  0  0  0  0  0  0  0  0  0
   45.5200   18.3162   53.6911 C   0  0  0  0  0  0  0  0  0  0  0  0
   47.1545   18.2203   54.9484 H   0  0  0  0  0  0  0  0  0  0  0  0
   47.5403   18.5960   53.3722 H   0  0  0  0  0  0  0  0  0  0  0  0
   47.1346   17.0329   53.7804 H   0  0  0  0  0  0  0  0  0  0  0  0
  9 10  1  0
 10  8  1  0
  8  1  1  0
  1  2  2  0
  2  3  1  0
  3  4  2  0
  4  5  1  0
  4  6  1  0
  6  7  2  0
  7  1  1  0
  9 11  1  0
  9 12  1  0
  9 13  1  0
M  CHG 1   9   1
M  END
> <minimizedAffinity>
-4.80945

> <CNNscore>
0.9286192060

> <CNNaffinity>
4.1446595192

> <CNN_VS>
3.8488104343

> <CNNaffinity_variance>
0.3175365925

$$$$



 13 13  0  0  0  0  0  0  0  0999 V2000
   45.2504   20.5016   51.3603 C   0  0  0  0  0  0  0  0  0  0  0  0
   45.2271   21.5916   52.2429 C   0  0  0  0  0  0  0  0  0  0  0  0
   44.4774   22.7309   51.9390 C   0  0  0  0  0  0  0  0  0  0  0  0
   43.7495   22.7877   50.7532 C   0  0  0  0  0  0  0  0  0  0  0  0
   42.8310   24.1913   50.3794 Cl  0  0  0  0  0  0  0  0  0  0  0  0
   43.7636   21.7124   49.8683 C   0  0  0  0  0  0  0  0  0  0  0  0
   44.5123   20.5718   50.1694 C   0  0  0  0  0  0  0  0  0  0  0  0
   46.0805   19.2844   51.6728 C   0  0  0  0  0  0  0  0  0  0  0  0
   46.6311   18.2181   53.8316 N   0  0  0  0  0  0  0  0  0  0  0  0
   45.5289   18.5427   52.8881 C   0  0  0  0  0  0  0  0  0  0  0  0
   46.2527   17.7233   54.6392 H   0  0  0  0  0  0  0  0  0  0  0  0
   47.0792   19.0807   54.1407 H   0  0  0  0  0  0  0  0  0  0  0  0
   47.3177   17.6277   53.3621 H   0  0  0  0  0  0  0  0  0  0  0  0
  9 10  1  0
 10  8  1  0
  8  1  1  0
  1  2  2  0
  2  3  1  0
  3  4  2  0
  4  5  1  0
  4  6  1  0
  6  7  2  0
  7  1  1  0
  9 11  1  0
  9 12  1  0
  9 13  1  0
M  CHG 1   9   1
M  END
> <minimizedAffinity>
-4.68279

> <CNNscore>
0.8990331888

> <CNNaffinity>
4.0908770561

> <CNN_VS>
3.6778342724

> <CNNaffinity_variance>
0.3207068741

$$$$



 13 13  0  0  0  0  0  0  0  0999 V2000
   45.3597   20.1578   51.0276 C   0  0  0  0  0  0  0  0  0  0  0  0
   46.5260   20.8275   51.4262 C   0  0  0  0  0  0  0  0  0  0  0  0
   46.8207   22.0959   50.9196 C   0  0  0  0  0  0  0  0  0  0  0  0
   45.9539   22.7003   50.0126 C   0  0  0  0  0  0  0  0  0  0  0  0
   46.3198   24.2589   49.3878 Cl  0  0  0  0  0  0  0  0  0  0  0  0
   44.7923   22.0467   49.6089 C   0  0  0  0  0  0  0  0  0  0  0  0
   44.4950   20.7782   50.1136 C   0  0  0  0  0  0  0  0  0  0  0  0
   45.0550   18.7788   51.5507 C   0  0  0  0  0  0  0  0  0  0  0  0
   45.9468   17.1927   53.2210 N   0  0  0  0  0  0  0  0  0  0  0  0
   45.5668   18.6097   52.9794 C   0  0  0  0  0  0  0  0  0  0  0  0
   46.2871   17.0903   54.1771 H   0  0  0  0  0  0  0  0  0  0  0  0
   46.6817   16.9216   52.5677 H   0  0  0  0  0  0  0  0  0  0  0  0
   45.1323   16.5942   53.0840 H   0  0  0  0  0  0  0  0  0  0  0  0
  9 10  1  0
 10  8  1  0
  8  1  1  0
  1  2  2  0
  2  3  1  0
  3  4  2  0
  4  5  1  0
  4  6  1  0
  6  7  2  0
  7  1  1  0
  9 11  1  0
  9 12  1  0
  9 13  1  0
M  CHG 1   9   1
M  END
> <minimizedAffinity>
-4.82480

> <CNNscore>
0.8914970160

> <CNNaffinity>
4.3278832436

> <CNN_VS>
3.8582949638

> <CNNaffinity_variance>
0.2119466066

$$$$



 13 13  0  0  0  0  0  0  0  0999 V2000
   45.0664   20.4769   51.1913 C   0  0  0  0  0  0  0  0  0  0  0  0
   44.3318   20.7426   50.0262 C   0  0  0  0  0  0  0  0  0  0  0  0
   43.7015   21.9778   49.8546 C   0  0  0  0  0  0  0  0  0  0  0  0
   43.8004   22.9517   50.8450 C   0  0  0  0  0  0  0  0  0  0  0  0
   43.0214   24.4690   50.6337 Cl  0  0  0  0  0  0  0  0  0  0  0  0
   44.5268   22.7011   52.0064 C   0  0  0  0  0  0  0  0  0  0  0  0
   45.1582   21.4669   52.1809 C   0  0  0  0  0  0  0  0  0  0  0  0
   45.7225   19.1359   51.3905 C   0  0  0  0  0  0  0  0  0  0  0  0
   45.7000   17.2611   52.9983 N   0  0  0  0  0  0  0  0  0  0  0  0
   45.7257   18.7417   52.8657 C   0  0  0  0  0  0  0  0  0  0  0  0
   45.7024   17.0082   53.9865 H   0  0  0  0  0  0  0  0  0  0  0  0
   46.5227   16.8647   52.5439 H   0  0  0  0  0  0  0  0  0  0  0  0
   44.8574   16.8946   52.5556 H   0  0  0  0  0  0  0  0  0  0  0  0
  9 10  1  0
 10  8  1  0
  8  1  1  0
  1  2  2  0
  2  3  1  0
  3  4  2  0
  4  5  1  0
  4  6  1  0
  6  7  2  0
  7  1  1  0
  9 11  1  0
  9 12  1  0
  9 13  1  0
M  CHG 1   9   1
M  END
> <minimizedAffinity>
-4.72346

> <CNNscore>
0.8864979148

> <CNNaffinity>
3.9707469940

> <CNN_VS>
3.5200588703

> <CNNaffinity_variance>
0.3144538403

$$$$



 13 13  0  0  0  0  0  0  0  0999 V2000
   37.0678   29.6161   42.6187 C   0  0  0  0  0  0  0  0  0  0  0  0
   36.7160   28.3348   43.0685 C   0  0  0  0  0  0  0  0  0  0  0  0
   35.3773   28.0117   43.3047 C   0  0  0  0  0  0  0  0  0  0  0  0
   34.3849   28.9658   43.0946 C   0  0  0  0  0  0  0  0  0  0  0  0
   32.7392   28.5677   43.3892 Cl  0  0  0  0  0  0  0  0  0  0  0  0
   34.7203   30.2414   42.6478 C   0  0  0  0  0  0  0  0  0  0  0  0
   36.0582   30.5675   42.4108 C   0  0  0  0  0  0  0  0  0  0  0  0
   38.5127   29.9747   42.3909 C   0  0  0  0  0  0  0  0  0  0  0  0
   40.1865   28.1908   42.0491 N   0  0  0  0  0  0  0  0  0  0  0  0
   39.4400   28.9705   43.0715 C   0  0  0  0  0  0  0  0  0  0  0  0
   40.8025   27.5235   42.5134 H   0  0  0  0  0  0  0  0  0  0  0  0
   40.7429   28.8258   41.4767 H   0  0  0  0  0  0  0  0  0  0  0  0
   39.5263   27.6883   41.4558 H   0  0  0  0  0  0  0  0  0  0  0  0
  9 10  1  0
 10  8  1  0
  8  1  1  0
  1  2  2  0
  2  3  1  0
  3  4  2  0
  4  5  1  0
  4  6  1  0
  6  7  2  0
  7  1  1  0
  9 11  1  0
  9 12  1  0
  9 13  1  0
M  CHG 1   9   1
M  END
> <minimizedAffinity>
-3.27967

> <CNNscore>
0.8457894325

> <CNNaffinity>
3.4035813808

> <CNN_VS>
2.8787131310

> <CNNaffinity_variance>
0.3478598595

$$$$



 13 13  0  0  0  0  0  0  0  0999 V2000
   39.2018   25.4790   54.2002 C   0  0  0  0  0  0  0  0  0  0  0  0
   40.4013   25.0718   53.5977 C   0  0  0  0  0  0  0  0  0  0  0  0
   40.7887   25.6031   52.3648 C   0  0  0  0  0  0  0  0  0  0  0  0
   39.9804   26.5413   51.7278 C   0  0  0  0  0  0  0  0  0  0  0  0
   40.4568   27.1910   50.2097 Cl  0  0  0  0  0  0  0  0  0  0  0  0
   38.7873   26.9546   52.3151 C   0  0  0  0  0  0  0  0  0  0  0  0
   38.3971   26.4251   53.5479 C   0  0  0  0  0  0  0  0  0  0  0  0
   38.7688   24.8862   55.5152 C   0  0  0  0  0  0  0  0  0  0  0  0
   36.4034   25.1235   56.1855 N   0  0  0  0  0  0  0  0  0  0  0  0
   37.3652   24.2937   55.4130 C   0  0  0  0  0  0  0  0  0  0  0  0
   35.4696   24.7197   56.1110 H   0  0  0  0  0  0  0  0  0  0  0  0
   36.3946   26.0719   55.8101 H   0  0  0  0  0  0  0  0  0  0  0  0
   36.6859   25.1482   57.1652 H   0  0  0  0  0  0  0  0  0  0  0  0
  9 10  1  0
 10  8  1  0
  8  1  1  0
  1  2  2  0
  2  3  1  0
  3  4  2  0
  4  5  1  0
  4  6  1  0
  6  7  2  0
  7  1  1  0
  9 11  1  0
  9 12  1  0
  9 13  1  0
M  CHG 1   9   1
M  END
> <minimizedAffinity>
-3.89695

> <CNNscore>
0.7045038939

> <CNNaffinity>
3.0044574738

> <CNN_VS>
2.1166520119

> <CNNaffinity_variance>
0.7229692340

$$$$



 13 13  0  0  0  0  0  0  0  0999 V2000
   44.6053   21.3202   51.1472 C   0  0  0  0  0  0  0  0  0  0  0  0
   45.2298   21.8218   52.2988 C   0  0  0  0  0  0  0  0  0  0  0  0
   45.1155   23.1737   52.6327 C   0  0  0  0  0  0  0  0  0  0  0  0
   44.3793   24.0305   51.8184 C   0  0  0  0  0  0  0  0  0  0  0  0
   44.2429   25.6939   52.2287 Cl  0  0  0  0  0  0  0  0  0  0  0  0
   43.7539   23.5456   50.6725 C   0  0  0  0  0  0  0  0  0  0  0  0
   43.8664   22.1942   50.3360 C   0  0  0  0  0  0  0  0  0  0  0  0
   44.7511   19.8693   50.7706 C   0  0  0  0  0  0  0  0  0  0  0  0
   45.5036   17.9920   52.1884 N   0  0  0  0  0  0  0  0  0  0  0  0
   45.9363   19.2326   51.4927 C   0  0  0  0  0  0  0  0  0  0  0  0
   46.3017   17.5747   52.6672 H   0  0  0  0  0  0  0  0  0  0  0  0
   45.1330   17.3310   51.5057 H   0  0  0  0  0  0  0  0  0  0  0  0
   44.7791   18.2192   52.8696 H   0  0  0  0  0  0  0  0  0  0  0  0
  9 10  1  0
 10  8  1  0
  8  1  1  0
  1  2  2  0
  2  3  1  0
  3  4  2  0
  4  5  1  0
  4  6  1  0
  6  7  2  0
  7  1  1  0
  9 11  1  0
  9 12  1  0
  9 13  1  0
M  CHG 1   9   1
M  END
> <minimizedAffinity>
-3.90229

> <CNNscore>
0.6592766643

> <CNNaffinity>
3.6156663895

> <CNN_VS>
2.3837244511

> <CNNaffinity_variance>
0.2968762219

$$$$



 13 13  0  0  0  0  0  0  0  0999 V2000
   45.4951   20.8541   50.2102 C   0  0  0  0  0  0  0  0  0  0  0  0
   44.6477   19.7381   50.1456 C   0  0  0  0  0  0  0  0  0  0  0  0
   44.6762   18.7701   51.1528 C   0  0  0  0  0  0  0  0  0  0  0  0
   45.5510   18.9109   52.2271 C   0  0  0  0  0  0  0  0  0  0  0  0
   45.5872   17.7173   53.4632 Cl  0  0  0  0  0  0  0  0  0  0  0  0
   46.3973   20.0142   52.3037 C   0  0  0  0  0  0  0  0  0  0  0  0
   46.3712   20.9838   51.2980 C   0  0  0  0  0  0  0  0  0  0  0  0
   45.4859   21.8837   49.1110 C   0  0  0  0  0  0  0  0  0  0  0  0
   43.1507   22.6841   49.0270 N   0  0  0  0  0  0  0  0  0  0  0  0
   44.5350   23.0312   49.4437 C   0  0  0  0  0  0  0  0  0  0  0  0
   42.5238   23.4563   49.2533 H   0  0  0  0  0  0  0  0  0  0  0  0
   42.8476   21.8444   49.5203 H   0  0  0  0  0  0  0  0  0  0  0  0
   43.1310   22.5137   48.0216 H   0  0  0  0  0  0  0  0  0  0  0  0
  9 10  1  0
 10  8  1  0
  8  1  1  0
  1  2  2  0
  2  3  1  0
  3  4  2  0
  4  5  1  0
  4  6  1  0
  6  7  2  0
  7  1  1  0
  9 11  1  0
  9 12  1  0
  9 13  1  0
M  CHG 1   9   1
M  END
> <minimizedAffinity>
-5.00278

> <CNNscore>
0.6390427351

> <CNNaffinity>
3.8973407745

> <CNN_VS>
2.4905672073

> <CNNaffinity_variance>
0.3493935764

$$$$



 13 13  0  0  0  0  0  0  0  0999 V2000
   45.5197   20.8418   50.1962 C   0  0  0  0  0  0  0  0  0  0  0  0
   46.3976   20.9652   51.2833 C   0  0  0  0  0  0  0  0  0  0  0  0
   46.4135   19.9985   52.2920 C   0  0  0  0  0  0  0  0  0  0  0  0
   45.5528   18.9061   52.2208 C   0  0  0  0  0  0  0  0  0  0  0  0
   45.5711   17.7198   53.4643 Cl  0  0  0  0  0  0  0  0  0  0  0  0
   44.6765   18.7711   51.1469 C   0  0  0  0  0  0  0  0  0  0  0  0
   44.6583   19.7363   50.1367 C   0  0  0  0  0  0  0  0  0  0  0  0
   45.4813   21.8976   49.1228 C   0  0  0  0  0  0  0  0  0  0  0  0
   43.1388   22.6752   49.0293 N   0  0  0  0  0  0  0  0  0  0  0  0
   44.5103   23.0172   49.4905 C   0  0  0  0  0  0  0  0  0  0  0  0
   42.4983   23.4285   49.2794 H   0  0  0  0  0  0  0  0  0  0  0  0
   42.8361   21.8093   49.4755 H   0  0  0  0  0  0  0  0  0  0  0  0
   43.1412   22.5530   48.0167 H   0  0  0  0  0  0  0  0  0  0  0  0
  9 10  1  0
 10  8  1  0
  8  1  1  0
  1  2  2  0
  2  3  1  0
  3  4  2  0
  4  5  1  0
  4  6  1  0
  6  7  2  0
  7  1  1  0
  9 11  1  0
  9 12  1  0
  9 13  1  0
M  CHG 1   9   1
M  END
> <minimizedAffinity>
-5.01348

> <CNNscore>
0.6302372217

> <CNNaffinity>
3.8891890049

> <CNN_VS>
2.4511115551

> <CNNaffinity_variance>
0.3572869301

$$$$
