


 26 28  0  0  0  0  0  0  0  0999 V2000
   37.3647   -1.5552   12.2925 C   0  0  0  0  0  0  0  0  0  0  0  0
   37.9586   -1.2955   13.5810 O   0  0  0  0  0  0  0  0  0  0  0  0
   37.5599    0.0273   13.9862 C   0  0  0  0  0  0  0  0  0  0  0  0
   37.2273    0.7819   12.7052 C   0  0  0  0  0  0  0  0  0  0  0  0
   36.3647    1.8871   12.9499 O   0  0  0  0  0  0  0  0  0  0  0  0
   36.5627   -0.3029   11.8782 C   0  0  0  0  0  0  0  0  0  0  0  0
   36.6618   -0.0185   10.4813 O   0  0  0  0  0  0  0  0  0  0  0  0
   35.5577    1.5763   13.3893 H   0  0  0  0  0  0  0  0  0  0  0  0
   37.5945    0.0932   10.2395 H   0  0  0  0  0  0  0  0  0  0  0  0
   34.2331   -6.0652   12.2914 O   0  0  0  0  0  0  0  0  0  0  0  0
   34.9531   -5.0742   12.3039 C   0  0  0  0  0  0  0  0  0  0  0  0
   34.6558   -3.9429   11.5892 N   0  0  0  0  0  0  0  0  0  0  0  0
   35.3849   -2.7816   11.5666 C   0  0  0  0  0  0  0  0  0  0  0  0
   34.9940   -1.8127   10.9181 O   0  0  0  0  0  0  0  0  0  0  0  0
   36.5518   -2.7774   12.3260 N   0  0  0  0  0  0  0  0  0  0  0  0
   36.9306   -3.8857   13.0660 C   0  0  0  0  0  0  0  0  0  0  0  0
   36.1999   -4.9999   13.0862 C   0  0  0  0  0  0  0  0  0  0  0  0
   36.5550   -6.0827   13.8015 F   0  0  0  0  0  0  0  0  0  0  0  0
   33.8399   -3.9664   11.0389 H   0  0  0  0  0  0  0  0  0  0  0  0
   38.6820    0.6956   14.8009 C   0  0  0  0  0  0  0  0  0  0  0  0
   38.8534    0.1279   16.1534 N   0  0  0  0  0  0  0  0  0  0  0  0
   39.7743    0.9086   17.0011 C   0  0  0  0  0  0  0  0  0  0  0  0
   39.2157    2.2537   17.4734 C   0  0  0  0  0  0  0  0  0  0  0  0
   37.8621    2.0851   18.1544 C   0  0  0  0  0  0  0  0  0  0  0  0
   36.9113    1.2713   17.2840 C   0  0  0  0  0  0  0  0  0  0  0  0
   37.5583   -0.0418   16.8375 C   0  0  0  0  0  0  0  0  0  0  0  0
 10 11  2  0
 11 12  1  0
 12 13  1  0
 13 14  2  0
 13 15  1  0
  1 15  1  0
  1  2  1  0
  2  3  1  0
  3 20  1  0
 20 21  1  0
 21 22  1  0
 22 23  1  0
 23 24  1  0
 24 25  1  0
 25 26  1  0
  3  4  1  0
  4  5  1  0
  4  6  1  0
  6  7  1  0
 15 16  1  0
 16 17  2  0
 17 18  1  0
 17 11  1  0
  6  1  1  0
 26 21  1  0
 12 19  1  0
  5  8  1  0
  7  9  1  0
M  END
> <minimizedAffinity>
-7.01736

> <CNNscore>
0.9097039104

> <CNNaffinity>
4.6599411964

> <CNN_VS>
4.2391667366

> <CNNaffinity_variance>
0.2533619106

$$$$



 26 28  0  0  0  0  0  0  0  0999 V2000
   38.2479    0.1005   13.7699 C   0  0  0  0  0  0  0  0  0  0  0  0
   37.5096    0.6478   14.8816 O   0  0  0  0  0  0  0  0  0  0  0  0
   37.5818    2.0827   14.7889 C   0  0  0  0  0  0  0  0  0  0  0  0
   38.8366    2.3939   13.9830 C   0  0  0  0  0  0  0  0  0  0  0  0
   38.7784    3.6860   13.3893 O   0  0  0  0  0  0  0  0  0  0  0  0
   38.8198    1.2793   12.9535 C   0  0  0  0  0  0  0  0  0  0  0  0
   40.1332    1.0211   12.4531 O   0  0  0  0  0  0  0  0  0  0  0  0
   37.9848    3.7518   12.8354 H   0  0  0  0  0  0  0  0  0  0  0  0
   40.7262    0.8147   13.1925 H   0  0  0  0  0  0  0  0  0  0  0  0
   35.0957   -3.1526   10.6670 O   0  0  0  0  0  0  0  0  0  0  0  0
   35.8085   -2.4502   11.3734 C   0  0  0  0  0  0  0  0  0  0  0  0
   36.0732   -1.1390   11.0740 N   0  0  0  0  0  0  0  0  0  0  0  0
   36.8323   -0.2730   11.8187 C   0  0  0  0  0  0  0  0  0  0  0  0
   36.9643    0.8986   11.4697 O   0  0  0  0  0  0  0  0  0  0  0  0
   37.4056   -0.8000   12.9728 N   0  0  0  0  0  0  0  0  0  0  0  0
   37.1984   -2.1200   13.3389 C   0  0  0  0  0  0  0  0  0  0  0  0
   36.4448   -2.9414   12.6088 C   0  0  0  0  0  0  0  0  0  0  0  0
   36.2339   -4.2247   12.9533 F   0  0  0  0  0  0  0  0  0  0  0  0
   35.6803   -0.7845   10.2438 H   0  0  0  0  0  0  0  0  0  0  0  0
   37.6033    2.7069   16.1958 C   0  0  0  0  0  0  0  0  0  0  0  0
   38.5518    2.0547   17.1208 N   0  0  0  0  0  0  0  0  0  0  0  0
   39.4666    3.0039   17.7831 C   0  0  0  0  0  0  0  0  0  0  0  0
   38.8052    3.8866   18.8450 C   0  0  0  0  0  0  0  0  0  0  0  0
   38.0534    3.0495   19.8739 C   0  0  0  0  0  0  0  0  0  0  0  0
   37.1137    2.0619   19.1918 C   0  0  0  0  0  0  0  0  0  0  0  0
   37.8503    1.2411   18.1308 C   0  0  0  0  0  0  0  0  0  0  0  0
 10 11  2  0
 11 12  1  0
 12 13  1  0
 13 14  2  0
 13 15  1  0
  1 15  1  0
  1  2  1  0
  2  3  1  0
  3 20  1  0
 20 21  1  0
 21 22  1  0
 22 23  1  0
 23 24  1  0
 24 25  1  0
 25 26  1  0
  3  4  1  0
  4  5  1  0
  4  6  1  0
  6  7  1  0
 15 16  1  0
 16 17  2  0
 17 18  1  0
 17 11  1  0
  6  1  1  0
 26 21  1  0
 12 19  1  0
  5  8  1  0
  7  9  1  0
M  END
> <minimizedAffinity>
-6.19234

> <CNNscore>
0.7382301092

> <CNNaffinity>
4.5614466667

> <CNN_VS>
3.3673973083

> <CNNaffinity_variance>
0.1933109313

$$$$



 26 28  0  0  0  0  0  0  0  0999 V2000
   36.4994   -3.3853   13.4410 C   0  0  0  0  0  0  0  0  0  0  0  0
   35.9412   -2.0816   13.1777 O   0  0  0  0  0  0  0  0  0  0  0  0
   36.8762   -1.3663   12.3489 C   0  0  0  0  0  0  0  0  0  0  0  0
   38.2388   -1.9991   12.6019 C   0  0  0  0  0  0  0  0  0  0  0  0
   39.1416   -1.7604   11.5279 O   0  0  0  0  0  0  0  0  0  0  0  0
   37.8716   -3.4650   12.7384 C   0  0  0  0  0  0  0  0  0  0  0  0
   38.8477   -4.1706   13.5073 O   0  0  0  0  0  0  0  0  0  0  0  0
   38.7545   -2.0885   10.7011 H   0  0  0  0  0  0  0  0  0  0  0  0
   38.9459   -3.7454   14.3737 H   0  0  0  0  0  0  0  0  0  0  0  0
   33.0368   -7.2875   11.7293 O   0  0  0  0  0  0  0  0  0  0  0  0
   33.8183   -6.4346   12.1322 C   0  0  0  0  0  0  0  0  0  0  0  0
   34.1371   -5.3248   11.3936 N   0  0  0  0  0  0  0  0  0  0  0  0
   34.9752   -4.3085   11.7751 C   0  0  0  0  0  0  0  0  0  0  0  0
   35.1520   -3.3376   11.0416 O   0  0  0  0  0  0  0  0  0  0  0  0
   35.5740   -4.4464   13.0245 N   0  0  0  0  0  0  0  0  0  0  0  0
   35.3152   -5.5456   13.8272 C   0  0  0  0  0  0  0  0  0  0  0  0
   34.4856   -6.5154   13.4439 C   0  0  0  0  0  0  0  0  0  0  0  0
   34.2241   -7.5873   14.2137 F   0  0  0  0  0  0  0  0  0  0  0  0
   33.7245   -5.2499   10.5029 H   0  0  0  0  0  0  0  0  0  0  0  0
   36.8423    0.1361   12.6821 C   0  0  0  0  0  0  0  0  0  0  0  0
   38.0368    0.6105   13.4094 N   0  0  0  0  0  0  0  0  0  0  0  0
   38.6512    1.8072   12.8038 C   0  0  0  0  0  0  0  0  0  0  0  0
   37.8442    3.0956   12.9851 C   0  0  0  0  0  0  0  0  0  0  0  0
   37.5105    3.3404   14.4525 C   0  0  0  0  0  0  0  0  0  0  0  0
   36.8832    2.1024   15.0830 C   0  0  0  0  0  0  0  0  0  0  0  0
   37.7409    0.8599   14.8322 C   0  0  0  0  0  0  0  0  0  0  0  0
 10 11  2  0
 11 12  1  0
 12 13  1  0
 13 14  2  0
 13 15  1  0
  1 15  1  0
  1  2  1  0
  2  3  1  0
  3 20  1  0
 20 21  1  0
 21 22  1  0
 22 23  1  0
 23 24  1  0
 24 25  1  0
 25 26  1  0
  3  4  1  0
  4  5  1  0
  4  6  1  0
  6  7  1  0
 15 16  1  0
 16 17  2  0
 17 18  1  0
 17 11  1  0
  6  1  1  0
 26 21  1  0
 12 19  1  0
  5  8  1  0
  7  9  1  0
M  END
> <minimizedAffinity>
-6.58680

> <CNNscore>
0.7313062549

> <CNNaffinity>
4.3081879616

> <CNN_VS>
3.1506047249

> <CNNaffinity_variance>
0.2503793538

$$$$



 26 28  0  0  0  0  0  0  0  0999 V2000
   38.3842   -0.5222   14.2331 C   0  0  0  0  0  0  0  0  0  0  0  0
   38.9492   -1.4468   15.1851 O   0  0  0  0  0  0  0  0  0  0  0  0
   38.6541   -0.9497   16.5036 C   0  0  0  0  0  0  0  0  0  0  0  0
   38.4389    0.5511   16.3536 C   0  0  0  0  0  0  0  0  0  0  0  0
   37.6689    1.0858   17.4244 O   0  0  0  0  0  0  0  0  0  0  0  0
   37.7128    0.6216   15.0231 C   0  0  0  0  0  0  0  0  0  0  0  0
   37.8900    1.8988   14.4072 O   0  0  0  0  0  0  0  0  0  0  0  0
   36.8213    0.6171   17.4787 H   0  0  0  0  0  0  0  0  0  0  0  0
   38.8374    2.0806   14.3064 H   0  0  0  0  0  0  0  0  0  0  0  0
   35.0019   -2.9900   10.6810 O   0  0  0  0  0  0  0  0  0  0  0  0
   35.7560   -2.4632   11.4900 C   0  0  0  0  0  0  0  0  0  0  0  0
   36.4470   -1.3136   11.2074 N   0  0  0  0  0  0  0  0  0  0  0  0
   37.2866   -0.6407   12.0578 C   0  0  0  0  0  0  0  0  0  0  0  0
   37.8201    0.4095   11.7054 O   0  0  0  0  0  0  0  0  0  0  0  0
   37.4655   -1.2087   13.3164 N   0  0  0  0  0  0  0  0  0  0  0  0
   36.8142   -2.3775   13.6756 C   0  0  0  0  0  0  0  0  0  0  0  0
   35.9905   -3.0081   12.8392 C   0  0  0  0  0  0  0  0  0  0  0  0
   35.3505   -4.1427   13.1754 F   0  0  0  0  0  0  0  0  0  0  0  0
   36.3292   -0.9341   10.3067 H   0  0  0  0  0  0  0  0  0  0  0  0
   39.7991   -1.2966   17.4722 C   0  0  0  0  0  0  0  0  0  0  0  0
   39.8962   -0.3837   18.6289 N   0  0  0  0  0  0  0  0  0  0  0  0
   39.5635   -1.0308   19.9122 C   0  0  0  0  0  0  0  0  0  0  0  0
   40.6168   -2.0217   20.4150 C   0  0  0  0  0  0  0  0  0  0  0  0
   41.9994   -1.3816   20.4722 C   0  0  0  0  0  0  0  0  0  0  0  0
   42.3421   -0.7048   19.1500 C   0  0  0  0  0  0  0  0  0  0  0  0
   41.2266    0.2466   18.7110 C   0  0  0  0  0  0  0  0  0  0  0  0
 10 11  2  0
 11 12  1  0
 12 13  1  0
 13 14  2  0
 13 15  1  0
  1 15  1  0
  1  2  1  0
  2  3  1  0
  3 20  1  0
 20 21  1  0
 21 22  1  0
 22 23  1  0
 23 24  1  0
 24 25  1  0
 25 26  1  0
  3  4  1  0
  4  5  1  0
  4  6  1  0
  6  7  1  0
 15 16  1  0
 16 17  2  0
 17 18  1  0
 17 11  1  0
  6  1  1  0
 26 21  1  0
 12 19  1  0
  5  8  1  0
  7  9  1  0
M  END
> <minimizedAffinity>
-5.68273

> <CNNscore>
0.6721015573

> <CNNaffinity>
4.4206500053

> <CNN_VS>
2.9711258411

> <CNNaffinity_variance>
0.1845269948

$$$$



 26 28  0  0  0  0  0  0  0  0999 V2000
   36.3133   -3.6439   13.7180 C   0  0  0  0  0  0  0  0  0  0  0  0
   36.5900   -2.6526   12.7074 O   0  0  0  0  0  0  0  0  0  0  0  0
   38.0200   -2.5560   12.5715 C   0  0  0  0  0  0  0  0  0  0  0  0
   38.6061   -3.0403   13.8917 C   0  0  0  0  0  0  0  0  0  0  0  0
   39.9536   -3.4742   13.7460 O   0  0  0  0  0  0  0  0  0  0  0  0
   37.6638   -4.1765   14.2430 C   0  0  0  0  0  0  0  0  0  0  0  0
   37.6537   -4.4201   15.6510 O   0  0  0  0  0  0  0  0  0  0  0  0
   39.9983   -4.1690   13.0706 H   0  0  0  0  0  0  0  0  0  0  0  0
   37.4178   -3.6038   16.1187 H   0  0  0  0  0  0  0  0  0  0  0  0
   33.0371   -7.5105   11.6055 O   0  0  0  0  0  0  0  0  0  0  0  0
   33.7788   -6.6675   12.0952 C   0  0  0  0  0  0  0  0  0  0  0  0
   34.0046   -5.4542   11.4985 N   0  0  0  0  0  0  0  0  0  0  0  0
   34.7921   -4.4431   11.9866 C   0  0  0  0  0  0  0  0  0  0  0  0
   34.8847   -3.3772   11.3806 O   0  0  0  0  0  0  0  0  0  0  0  0
   35.4402   -4.7004   13.1917 N   0  0  0  0  0  0  0  0  0  0  0  0
   35.2758   -5.9074   13.8516 C   0  0  0  0  0  0  0  0  0  0  0  0
   34.4939   -6.8718   13.3676 C   0  0  0  0  0  0  0  0  0  0  0  0
   34.3241   -8.0478   13.9987 F   0  0  0  0  0  0  0  0  0  0  0  0
   33.5582   -5.2930   10.6360 H   0  0  0  0  0  0  0  0  0  0  0  0
   38.4262   -1.1110   12.2300 C   0  0  0  0  0  0  0  0  0  0  0  0
   38.9451   -0.3509   13.3849 N   0  0  0  0  0  0  0  0  0  0  0  0
   40.2659    0.2574   13.1368 C   0  0  0  0  0  0  0  0  0  0  0  0
   40.2459    1.4463   12.1722 C   0  0  0  0  0  0  0  0  0  0  0  0
   39.2363    2.5010   12.6111 C   0  0  0  0  0  0  0  0  0  0  0  0
   37.8726    1.8735   12.8764 C   0  0  0  0  0  0  0  0  0  0  0  0
   37.9891    0.6805   13.8279 C   0  0  0  0  0  0  0  0  0  0  0  0
 10 11  2  0
 11 12  1  0
 12 13  1  0
 13 14  2  0
 13 15  1  0
  1 15  1  0
  1  2  1  0
  2  3  1  0
  3 20  1  0
 20 21  1  0
 21 22  1  0
 22 23  1  0
 23 24  1  0
 24 25  1  0
 25 26  1  0
  3  4  1  0
  4  5  1  0
  4  6  1  0
  6  7  1  0
 15 16  1  0
 16 17  2  0
 17 18  1  0
 17 11  1  0
  6  1  1  0
 26 21  1  0
 12 19  1  0
  5  8  1  0
  7  9  1  0
M  END
> <minimizedAffinity>
-6.42204

> <CNNscore>
0.6541087031

> <CNNaffinity>
4.2744560242

> <CNN_VS>
2.7959589958

> <CNNaffinity_variance>
0.2244715244

$$$$



 26 28  0  0  0  0  0  0  0  0999 V2000
   38.0326   -2.0553   13.2662 C   0  0  0  0  0  0  0  0  0  0  0  0
   37.6685   -1.3324   14.4601 O   0  0  0  0  0  0  0  0  0  0  0  0
   37.7352    0.0732   14.1562 C   0  0  0  0  0  0  0  0  0  0  0  0
   38.6985    0.2093   12.9839 C   0  0  0  0  0  0  0  0  0  0  0  0
   38.4890    1.4186   12.2633 O   0  0  0  0  0  0  0  0  0  0  0  0
   38.3564   -1.0220   12.1659 C   0  0  0  0  0  0  0  0  0  0  0  0
   39.4565   -1.4152   11.3429 O   0  0  0  0  0  0  0  0  0  0  0  0
   37.5678    1.4602   11.9624 H   0  0  0  0  0  0  0  0  0  0  0  0
   40.2389   -1.5615   11.8973 H   0  0  0  0  0  0  0  0  0  0  0  0
   34.0202   -5.4681   11.7171 O   0  0  0  0  0  0  0  0  0  0  0  0
   34.9311   -4.7295   12.0711 C   0  0  0  0  0  0  0  0  0  0  0  0
   34.9832   -3.4069   11.7147 N   0  0  0  0  0  0  0  0  0  0  0  0
   35.9445   -2.5026   12.0871 C   0  0  0  0  0  0  0  0  0  0  0  0
   35.8620   -1.3262   11.7390 O   0  0  0  0  0  0  0  0  0  0  0  0
   36.9755   -2.9984   12.8807 N   0  0  0  0  0  0  0  0  0  0  0  0
   37.0040   -4.3268   13.2731 C   0  0  0  0  0  0  0  0  0  0  0  0
   36.0517   -5.1863   12.9124 C   0  0  0  0  0  0  0  0  0  0  0  0
   36.0661   -6.4782   13.2875 F   0  0  0  0  0  0  0  0  0  0  0  0
   34.2603   -3.0739   11.1351 H   0  0  0  0  0  0  0  0  0  0  0  0
   38.1856    0.8656   15.3966 C   0  0  0  0  0  0  0  0  0  0  0  0
   37.1121    1.6763   16.0060 N   0  0  0  0  0  0  0  0  0  0  0  0
   36.8022    1.2847   17.3942 C   0  0  0  0  0  0  0  0  0  0  0  0
   37.8764    1.6668   18.4161 C   0  0  0  0  0  0  0  0  0  0  0  0
   38.2190    3.1501   18.3341 C   0  0  0  0  0  0  0  0  0  0  0  0
   38.5313    3.5592   16.8991 C   0  0  0  0  0  0  0  0  0  0  0  0
   37.4200    3.1169   15.9443 C   0  0  0  0  0  0  0  0  0  0  0  0
 10 11  2  0
 11 12  1  0
 12 13  1  0
 13 14  2  0
 13 15  1  0
  1 15  1  0
  1  2  1  0
  2  3  1  0
  3 20  1  0
 20 21  1  0
 21 22  1  0
 22 23  1  0
 23 24  1  0
 24 25  1  0
 25 26  1  0
  3  4  1  0
  4  5  1  0
  4  6  1  0
  6  7  1  0
 15 16  1  0
 16 17  2  0
 17 18  1  0
 17 11  1  0
  6  1  1  0
 26 21  1  0
 12 19  1  0
  5  8  1  0
  7  9  1  0
M  END
> <minimizedAffinity>
-6.26133

> <CNNscore>
0.6190091372

> <CNNaffinity>
4.5447578430

> <CNN_VS>
2.8132467270

> <CNNaffinity_variance>
0.0901798233

$$$$



 26 28  0  0  0  0  0  0  0  0999 V2000
   38.0850   -2.9919   15.1597 C   0  0  0  0  0  0  0  0  0  0  0  0
   37.6337   -2.0493   16.1539 O   0  0  0  0  0  0  0  0  0  0  0  0
   38.7448   -1.1937   16.4796 C   0  0  0  0  0  0  0  0  0  0  0  0
   40.0028   -1.9812   16.1354 C   0  0  0  0  0  0  0  0  0  0  0  0
   41.1215   -1.1272   15.9242 O   0  0  0  0  0  0  0  0  0  0  0  0
   39.5732   -2.7009   14.8706 C   0  0  0  0  0  0  0  0  0  0  0  0
   40.3410   -3.8891   14.6686 O   0  0  0  0  0  0  0  0  0  0  0  0
   40.9117   -0.4860   15.2272 H   0  0  0  0  0  0  0  0  0  0  0  0
   40.2630   -4.4609   15.4482 H   0  0  0  0  0  0  0  0  0  0  0  0
   34.8629   -2.9231   10.7144 O   0  0  0  0  0  0  0  0  0  0  0  0
   35.5832   -2.9096   11.7052 C   0  0  0  0  0  0  0  0  0  0  0  0
   35.7488   -4.0095   12.5063 N   0  0  0  0  0  0  0  0  0  0  0  0
   36.5539   -4.0942   13.6134 C   0  0  0  0  0  0  0  0  0  0  0  0
   36.6552   -5.1526   14.2309 O   0  0  0  0  0  0  0  0  0  0  0  0
   37.2407   -2.9338   13.9599 N   0  0  0  0  0  0  0  0  0  0  0  0
   37.1169   -1.7753   13.2102 C   0  0  0  0  0  0  0  0  0  0  0  0
   36.3404   -1.7182   12.1288 C   0  0  0  0  0  0  0  0  0  0  0  0
   36.2122   -0.6006   11.3909 F   0  0  0  0  0  0  0  0  0  0  0  0
   35.2406   -4.8169   12.2635 H   0  0  0  0  0  0  0  0  0  0  0  0
   38.6830   -0.7812   17.9613 C   0  0  0  0  0  0  0  0  0  0  0  0
   39.4907    0.4134   18.2798 N   0  0  0  0  0  0  0  0  0  0  0  0
   39.2356    1.5486   17.3728 C   0  0  0  0  0  0  0  0  0  0  0  0
   37.8782    2.2281   17.5730 C   0  0  0  0  0  0  0  0  0  0  0  0
   37.6708    2.6377   19.0268 C   0  0  0  0  0  0  0  0  0  0  0  0
   37.9422    1.4686   19.9668 C   0  0  0  0  0  0  0  0  0  0  0  0
   39.3054    0.8346   19.6806 C   0  0  0  0  0  0  0  0  0  0  0  0
 10 11  2  0
 11 12  1  0
 12 13  1  0
 13 14  2  0
 13 15  1  0
  1 15  1  0
  1  2  1  0
  2  3  1  0
  3 20  1  0
 20 21  1  0
 21 22  1  0
 22 23  1  0
 23 24  1  0
 24 25  1  0
 25 26  1  0
  3  4  1  0
  4  5  1  0
  4  6  1  0
  6  7  1  0
 15 16  1  0
 16 17  2  0
 17 18  1  0
 17 11  1  0
  6  1  1  0
 26 21  1  0
 12 19  1  0
  5  8  1  0
  7  9  1  0
M  END
> <minimizedAffinity>
-5.48483

> <CNNscore>
0.6136099100

> <CNNaffinity>
4.4699444771

> <CNN_VS>
2.7428021431

> <CNNaffinity_variance>
0.1746016592

$$$$



 26 28  0  0  0  0  0  0  0  0999 V2000
   37.6734    0.0928   13.2079 C   0  0  0  0  0  0  0  0  0  0  0  0
   38.4139   -0.2247   14.4043 O   0  0  0  0  0  0  0  0  0  0  0  0
   38.0539    0.7414   15.4092 C   0  0  0  0  0  0  0  0  0  0  0  0
   37.5642    1.9732   14.6583 C   0  0  0  0  0  0  0  0  0  0  0  0
   36.7264    2.7897   15.4687 O   0  0  0  0  0  0  0  0  0  0  0  0
   36.8162    1.3434   13.4980 C   0  0  0  0  0  0  0  0  0  0  0  0
   36.7457    2.2372   12.3853 O   0  0  0  0  0  0  0  0  0  0  0  0
   35.9804    2.2631   15.7959 H   0  0  0  0  0  0  0  0  0  0  0  0
   37.6419    2.5050   12.1284 H   0  0  0  0  0  0  0  0  0  0  0  0
   34.7167   -4.1550   11.3744 O   0  0  0  0  0  0  0  0  0  0  0  0
   35.3853   -3.2235   11.8057 C   0  0  0  0  0  0  0  0  0  0  0  0
   35.6573   -2.1079   11.0571 N   0  0  0  0  0  0  0  0  0  0  0  0
   36.3689   -1.0091   11.4659 C   0  0  0  0  0  0  0  0  0  0  0  0
   36.5120   -0.0449   10.7164 O   0  0  0  0  0  0  0  0  0  0  0  0
   36.8818   -1.0595   12.7593 N   0  0  0  0  0  0  0  0  0  0  0  0
   36.6637   -2.1573   13.5757 C   0  0  0  0  0  0  0  0  0  0  0  0
   35.9564   -3.2091   13.1643 C   0  0  0  0  0  0  0  0  0  0  0  0
   35.7356   -4.2808   13.9470 F   0  0  0  0  0  0  0  0  0  0  0  0
   35.3079   -2.0940   10.1368 H   0  0  0  0  0  0  0  0  0  0  0  0
   39.2585    1.0354   16.3212 C   0  0  0  0  0  0  0  0  0  0  0  0
   38.9539    1.9663   17.4264 N   0  0  0  0  0  0  0  0  0  0  0  0
   38.0810    1.3784   18.4602 C   0  0  0  0  0  0  0  0  0  0  0  0
   38.7587    0.3219   19.3371 C   0  0  0  0  0  0  0  0  0  0  0  0
   40.0473    0.8548   19.9535 C   0  0  0  0  0  0  0  0  0  0  0  0
   40.9474    1.4707   18.8884 C   0  0  0  0  0  0  0  0  0  0  0  0
   40.1841    2.4941   18.0445 C   0  0  0  0  0  0  0  0  0  0  0  0
 10 11  2  0
 11 12  1  0
 12 13  1  0
 13 14  2  0
 13 15  1  0
  1 15  1  0
  1  2  1  0
  2  3  1  0
  3 20  1  0
 20 21  1  0
 21 22  1  0
 22 23  1  0
 23 24  1  0
 24 25  1  0
 25 26  1  0
  3  4  1  0
  4  5  1  0
  4  6  1  0
  6  7  1  0
 15 16  1  0
 16 17  2  0
 17 18  1  0
 17 11  1  0
  6  1  1  0
 26 21  1  0
 12 19  1  0
  5  8  1  0
  7  9  1  0
M  END
> <minimizedAffinity>
-6.02670

> <CNNscore>
0.5884928703

> <CNNaffinity>
4.4441227913

> <CNN_VS>
2.6153345108

> <CNNaffinity_variance>
0.2117664218

$$$$



 26 28  0  0  0  0  0  0  0  0999 V2000
   37.0414   -3.6160   13.0787 C   0  0  0  0  0  0  0  0  0  0  0  0
   37.5715   -3.6238   14.4201 O   0  0  0  0  0  0  0  0  0  0  0  0
   37.5318   -2.2716   14.9126 C   0  0  0  0  0  0  0  0  0  0  0  0
   37.5388   -1.3714   13.6835 C   0  0  0  0  0  0  0  0  0  0  0  0
   37.0080   -0.0819   13.9679 O   0  0  0  0  0  0  0  0  0  0  0  0
   36.6671   -2.1608   12.7247 C   0  0  0  0  0  0  0  0  0  0  0  0
   36.9627   -1.8272   11.3669 O   0  0  0  0  0  0  0  0  0  0  0  0
   36.1113   -0.1732   14.3263 H   0  0  0  0  0  0  0  0  0  0  0  0
   37.9059   -1.9753   11.1956 H   0  0  0  0  0  0  0  0  0  0  0  0
   32.7959   -7.0426   12.4611 O   0  0  0  0  0  0  0  0  0  0  0  0
   33.7549   -6.2966   12.6177 C   0  0  0  0  0  0  0  0  0  0  0  0
   34.0100   -5.2441   11.7774 N   0  0  0  0  0  0  0  0  0  0  0  0
   35.0382   -4.3439   11.8922 C   0  0  0  0  0  0  0  0  0  0  0  0
   35.1410   -3.4104   11.0984 O   0  0  0  0  0  0  0  0  0  0  0  0
   35.9151   -4.5494   12.9539 N   0  0  0  0  0  0  0  0  0  0  0  0
   35.7353   -5.5988   13.8405 C   0  0  0  0  0  0  0  0  0  0  0  0
   34.7206   -6.4542   13.7199 C   0  0  0  0  0  0  0  0  0  0  0  0
   34.5332   -7.4763   14.5744 F   0  0  0  0  0  0  0  0  0  0  0  0
   33.3956   -5.1227   11.0178 H   0  0  0  0  0  0  0  0  0  0  0  0
   38.7230   -2.0116   15.8521 C   0  0  0  0  0  0  0  0  0  0  0  0
   38.3268   -1.6170   17.2189 N   0  0  0  0  0  0  0  0  0  0  0  0
   39.3647   -1.8945   18.2299 C   0  0  0  0  0  0  0  0  0  0  0  0
   40.5850   -0.9727   18.1561 C   0  0  0  0  0  0  0  0  0  0  0  0
   40.1752    0.4954   18.1876 C   0  0  0  0  0  0  0  0  0  0  0  0
   39.0966    0.7829   17.1494 C   0  0  0  0  0  0  0  0  0  0  0  0
   37.9294   -0.1984   17.2792 C   0  0  0  0  0  0  0  0  0  0  0  0
 10 11  2  0
 11 12  1  0
 12 13  1  0
 13 14  2  0
 13 15  1  0
  1 15  1  0
  1  2  1  0
  2  3  1  0
  3 20  1  0
 20 21  1  0
 21 22  1  0
 22 23  1  0
 23 24  1  0
 24 25  1  0
 25 26  1  0
  3  4  1  0
  4  5  1  0
  4  6  1  0
  6  7  1  0
 15 16  1  0
 16 17  2  0
 17 18  1  0
 17 11  1  0
  6  1  1  0
 26 21  1  0
 12 19  1  0
  5  8  1  0
  7  9  1  0
M  END
> <minimizedAffinity>
-6.62466

> <CNNscore>
0.5820765495

> <CNNaffinity>
4.1557202339

> <CNN_VS>
2.4189472198

> <CNNaffinity_variance>
0.3895256519

$$$$
