


 41 44  0  0  0  0  0  0  0  0999 V2000
   45.7800   11.6932    0.9505 C   0  0  0  0  0  0  0  0  0  0  0  0
   44.7593   10.8959    0.4303 C   0  0  0  0  0  0  0  0  0  0  0  0
   45.0239    9.5755    0.0828 C   0  0  0  0  0  0  0  0  0  0  0  0
   46.3066    9.0430    0.2609 C   0  0  0  0  0  0  0  0  0  0  0  0
   47.3441    9.7994    0.8078 C   0  0  0  0  0  0  0  0  0  0  0  0
   47.0608   11.1413    1.1186 C   0  0  0  0  0  0  0  0  0  0  0  0
   45.4948   15.1884    2.3284 C   0  0  0  0  0  0  0  0  0  0  0  0
   44.6644   15.4259    1.2462 C   0  0  0  0  0  0  0  0  0  0  0  0
   44.5721   14.0404    0.2318 S   0  0  0  0  0  0  0  0  0  0  0  0
   45.5179   13.0896    1.2961 C   0  0  0  0  0  0  0  0  0  0  0  0
   45.9179   13.8271    2.3885 C   0  0  0  0  0  0  0  0  0  0  0  0
   46.8931   13.1169    3.8534 Br  0  0  0  0  0  0  0  0  0  0  0  0
   43.9258   16.6025    0.8471 C   0  0  0  0  0  0  0  0  0  0  0  0
   43.2259   16.7567   -0.1453 O   0  0  0  0  0  0  0  0  0  0  0  0
   44.0326   17.6113    1.7404 O   0  0  0  0  0  0  0  0  0  0  0  0
   44.5651   17.5063    2.5042 H   0  0  0  0  0  0  0  0  0  0  0  0
   45.7583   16.1467    3.2533 O   0  0  0  0  0  0  0  0  0  0  0  0
   47.1097   16.5944    3.2248 C   0  0  0  0  0  0  0  0  0  0  0  0
   46.9857   17.7649    5.4011 O   0  0  0  0  0  0  0  0  0  0  0  0
   47.6256   17.3067    4.4701 C   0  0  0  0  0  0  0  0  0  0  0  0
   48.9751   17.4135    4.4617 O   0  0  0  0  0  0  0  0  0  0  0  0
   49.4684   17.0619    3.7469 H   0  0  0  0  0  0  0  0  0  0  0  0
   48.6562    9.3598    0.9493 N   0  0  0  0  0  0  0  0  0  0  0  0
   49.2682    9.5504    0.2020 H   0  0  0  0  0  0  0  0  0  0  0  0
   49.2230    8.6417    2.0959 C   0  0  0  0  0  0  0  0  0  0  0  0
   50.6451    8.1226    1.8571 C   0  0  0  0  0  0  0  0  0  0  0  0
   50.8231    6.6577    2.2429 C   0  0  0  0  0  0  0  0  0  0  0  0
   50.2308    6.3608    3.5575 N   0  0  0  0  0  0  0  0  0  0  0  0
   48.9357    6.9701    3.9068 C   0  0  0  0  0  0  0  0  0  0  0  0
   48.2749    7.6051    2.6899 C   0  0  0  0  0  0  0  0  0  0  0  0
   51.1881    5.7115    4.7895 S   0  0  0  0  0  0  0  0  0  0  0  0
   52.3653    6.5477    4.8965 O   0  0  0  0  0  0  0  0  0  0  0  0
   50.3185    5.4756    5.9224 O   0  0  0  0  0  0  0  0  0  0  0  0
   51.6638    4.1285    4.0768 C   0  0  0  0  0  0  0  0  0  0  0  0
   50.5752    3.1190    4.3408 C   0  0  0  0  0  0  0  0  0  0  0  0
   49.4785    3.0069    3.4730 C   0  0  0  0  0  0  0  0  0  0  0  0
   48.4764    2.0624    3.7135 C   0  0  0  0  0  0  0  0  0  0  0  0
   48.5662    1.2225    4.8199 C   0  0  0  0  0  0  0  0  0  0  0  0
   47.3339    0.0575    5.1142 Cl  0  0  0  0  0  0  0  0  0  0  0  0
   49.6518    1.3180    5.6877 C   0  0  0  0  0  0  0  0  0  0  0  0
   50.6538    2.2623    5.4488 C   0  0  0  0  0  0  0  0  0  0  0  0
 19 20  2  0
 20 21  1  0
 20 18  1  0
 18 17  1  0
 17  7  1  0
  7  8  2  0
  8 13  1  0
 13 14  2  0
 13 15  1  0
  8  9  1  0
  9 10  1  0
 10  1  1  0
  1  2  2  0
  2  3  1  0
  3  4  2  0
  4  5  1  0
  5 23  1  0
 23 25  1  0
 25 26  1  0
 26 27  1  0
 27 28  1  0
 28 31  1  0
 31 32  2  0
 31 33  2  0
 31 34  1  0
 34 35  1  0
 35 36  2  0
 36 37  1  0
 37 38  2  0
 38 39  1  0
 38 40  1  0
 40 41  2  0
 28 29  1  0
 29 30  1  0
  5  6  2  0
 10 11  2  0
 11 12  1  0
 11  7  1  0
  6  1  1  0
 30 25  1  0
 41 35  1  0
 21 22  1  0
 15 16  1  0
 23 24  1  0
M  END
> <minimizedAffinity>
-8.54970

> <CNNscore>
0.9135965705

> <CNNaffinity>
7.0882058144

> <CNN_VS>
6.4757604599

> <CNNaffinity_variance>
0.0012919750

$$$$



 41 44  0  0  0  0  0  0  0  0999 V2000
   45.9101   11.7932    0.7462 C   0  0  0  0  0  0  0  0  0  0  0  0
   44.8903   10.8666    0.5238 C   0  0  0  0  0  0  0  0  0  0  0  0
   45.2076    9.5760    0.1139 C   0  0  0  0  0  0  0  0  0  0  0  0
   46.5448    9.2026   -0.0676 C   0  0  0  0  0  0  0  0  0  0  0  0
   47.5929   10.0914    0.1758 C   0  0  0  0  0  0  0  0  0  0  0  0
   47.2451   11.4000    0.5556 C   0  0  0  0  0  0  0  0  0  0  0  0
   45.4550   15.2007    2.2885 C   0  0  0  0  0  0  0  0  0  0  0  0
   44.6439   15.4618    1.1972 C   0  0  0  0  0  0  0  0  0  0  0  0
   44.6309   14.1272    0.1129 S   0  0  0  0  0  0  0  0  0  0  0  0
   45.5855   13.1594    1.1538 C   0  0  0  0  0  0  0  0  0  0  0  0
   45.9288   13.8548    2.2922 C   0  0  0  0  0  0  0  0  0  0  0  0
   46.8933   13.1079    3.7459 Br  0  0  0  0  0  0  0  0  0  0  0  0
   43.8707   16.6288    0.8373 C   0  0  0  0  0  0  0  0  0  0  0  0
   43.1108   16.7704   -0.1119 O   0  0  0  0  0  0  0  0  0  0  0  0
   44.0207   17.6436    1.7174 O   0  0  0  0  0  0  0  0  0  0  0  0
   44.5992   17.5482    2.4484 H   0  0  0  0  0  0  0  0  0  0  0  0
   45.6578   16.1199    3.2669 O   0  0  0  0  0  0  0  0  0  0  0  0
   46.9851   16.6353    3.2832 C   0  0  0  0  0  0  0  0  0  0  0  0
   46.7721   17.6447    5.5320 O   0  0  0  0  0  0  0  0  0  0  0  0
   47.4413   17.3222    4.5655 C   0  0  0  0  0  0  0  0  0  0  0  0
   48.7695   17.5832    4.5472 O   0  0  0  0  0  0  0  0  0  0  0  0
   49.2854   17.3360    3.8051 H   0  0  0  0  0  0  0  0  0  0  0  0
   48.9370    9.8125   -0.0488 N   0  0  0  0  0  0  0  0  0  0  0  0
   49.3698    9.1920    0.5812 H   0  0  0  0  0  0  0  0  0  0  0  0
   49.7767   10.3465   -1.1265 C   0  0  0  0  0  0  0  0  0  0  0  0
   51.2646   10.0130   -0.9722 C   0  0  0  0  0  0  0  0  0  0  0  0
   52.1734   11.2260   -1.1432 C   0  0  0  0  0  0  0  0  0  0  0  0
   51.8018   12.0282   -2.3202 N   0  0  0  0  0  0  0  0  0  0  0  0
   50.3735   12.2425   -2.6114 C   0  0  0  0  0  0  0  0  0  0  0  0
   49.4980   11.8126   -1.4412 C   0  0  0  0  0  0  0  0  0  0  0  0
   52.9376   12.3222   -3.5366 S   0  0  0  0  0  0  0  0  0  0  0  0
   53.3187   11.0355   -4.0801 O   0  0  0  0  0  0  0  0  0  0  0  0
   52.3984   13.3715   -4.3755 O   0  0  0  0  0  0  0  0  0  0  0  0
   54.3167   12.9823   -2.5867 C   0  0  0  0  0  0  0  0  0  0  0  0
   54.0815   14.4488   -2.3253 C   0  0  0  0  0  0  0  0  0  0  0  0
   54.8184   15.4246   -3.0133 C   0  0  0  0  0  0  0  0  0  0  0  0
   54.5905   16.7835   -2.7778 C   0  0  0  0  0  0  0  0  0  0  0  0
   53.6230   17.1750   -1.8568 C   0  0  0  0  0  0  0  0  0  0  0  0
   53.3403   18.8483   -1.5691 Cl  0  0  0  0  0  0  0  0  0  0  0  0
   52.8794   16.2180   -1.1698 C   0  0  0  0  0  0  0  0  0  0  0  0
   53.1068   14.8592   -1.4038 C   0  0  0  0  0  0  0  0  0  0  0  0
 19 20  2  0
 20 21  1  0
 20 18  1  0
 18 17  1  0
 17  7  1  0
  7  8  2  0
  8 13  1  0
 13 14  2  0
 13 15  1  0
  8  9  1  0
  9 10  1  0
 10  1  1  0
  1  2  2  0
  2  3  1  0
  3  4  2  0
  4  5  1  0
  5 23  1  0
 23 25  1  0
 25 26  1  0
 26 27  1  0
 27 28  1  0
 28 31  1  0
 31 32  2  0
 31 33  2  0
 31 34  1  0
 34 35  1  0
 35 36  2  0
 36 37  1  0
 37 38  2  0
 38 39  1  0
 38 40  1  0
 40 41  2  0
 28 29  1  0
 29 30  1  0
  5  6  2  0
 10 11  2  0
 11 12  1  0
 11  7  1  0
  6  1  1  0
 30 25  1  0
 41 35  1  0
 21 22  1  0
 15 16  1  0
 23 24  1  0
M  END
> <minimizedAffinity>
-6.97410

> <CNNscore>
0.7140889764

> <CNNaffinity>
7.0545177460

> <CNN_VS>
5.0375533104

> <CNNaffinity_variance>
0.0089723291

$$$$



 41 44  0  0  0  0  0  0  0  0999 V2000
   44.8020   13.0982    0.0931 C   0  0  0  0  0  0  0  0  0  0  0  0
   44.3354   13.4880   -1.1632 C   0  0  0  0  0  0  0  0  0  0  0  0
   44.1356   12.5312   -2.1527 C   0  0  0  0  0  0  0  0  0  0  0  0
   44.3929   11.1803   -1.8894 C   0  0  0  0  0  0  0  0  0  0  0  0
   44.8295   10.7486   -0.6362 C   0  0  0  0  0  0  0  0  0  0  0  0
   45.0572   11.7385    0.3365 C   0  0  0  0  0  0  0  0  0  0  0  0
   45.8454   15.2725    2.9880 C   0  0  0  0  0  0  0  0  0  0  0  0
   44.9173   16.1755    2.4978 C   0  0  0  0  0  0  0  0  0  0  0  0
   44.2155   15.5979    1.0380 S   0  0  0  0  0  0  0  0  0  0  0  0
   45.0384   14.0994    1.1322 C   0  0  0  0  0  0  0  0  0  0  0  0
   45.8532   14.0563    2.2421 C   0  0  0  0  0  0  0  0  0  0  0  0
   46.8566   12.5337    2.7676 Br  0  0  0  0  0  0  0  0  0  0  0  0
   44.4911   17.4682    2.9839 C   0  0  0  0  0  0  0  0  0  0  0  0
   44.1646   18.4520    2.3327 O   0  0  0  0  0  0  0  0  0  0  0  0
   44.4318   17.5227    4.3332 O   0  0  0  0  0  0  0  0  0  0  0  0
   44.6788   16.7767    4.8435 H   0  0  0  0  0  0  0  0  0  0  0  0
   46.5632   15.5222    4.1131 O   0  0  0  0  0  0  0  0  0  0  0  0
   47.6888   16.3634    3.8828 C   0  0  0  0  0  0  0  0  0  0  0  0
   48.7532   18.3827    4.8372 O   0  0  0  0  0  0  0  0  0  0  0  0
   47.8407   17.5754    4.7950 C   0  0  0  0  0  0  0  0  0  0  0  0
   46.7933   17.6962    5.6440 O   0  0  0  0  0  0  0  0  0  0  0  0
   46.0911   17.0766    5.6129 H   0  0  0  0  0  0  0  0  0  0  0  0
   45.1701    9.4366   -0.3241 N   0  0  0  0  0  0  0  0  0  0  0  0
   44.4258    8.8004   -0.2212 H   0  0  0  0  0  0  0  0  0  0  0  0
   46.5226    8.9021   -0.1324 C   0  0  0  0  0  0  0  0  0  0  0  0
   46.8641    8.5975    1.3303 C   0  0  0  0  0  0  0  0  0  0  0  0
   48.2085    9.1714    1.7658 C   0  0  0  0  0  0  0  0  0  0  0  0
   49.2659    8.9018    0.7778 N   0  0  0  0  0  0  0  0  0  0  0  0
   48.9452    9.0188   -0.6554 C   0  0  0  0  0  0  0  0  0  0  0  0
   47.5971    9.6953   -0.8690 C   0  0  0  0  0  0  0  0  0  0  0  0
   50.6610    8.0666    1.2382 S   0  0  0  0  0  0  0  0  0  0  0  0
   51.5443    8.0526    0.0910 O   0  0  0  0  0  0  0  0  0  0  0  0
   51.0797    8.6107    2.5126 O   0  0  0  0  0  0  0  0  0  0  0  0
   50.0160    6.4057    1.4940 C   0  0  0  0  0  0  0  0  0  0  0  0
   50.4308    5.9178    2.8593 C   0  0  0  0  0  0  0  0  0  0  0  0
   49.4877    5.7924    3.8905 C   0  0  0  0  0  0  0  0  0  0  0  0
   49.8725    5.3289    5.1520 C   0  0  0  0  0  0  0  0  0  0  0  0
   51.2003    4.9849    5.3890 C   0  0  0  0  0  0  0  0  0  0  0  0
   51.6733    4.4113    6.9414 Cl  0  0  0  0  0  0  0  0  0  0  0  0
   52.1472    5.0988    4.3737 C   0  0  0  0  0  0  0  0  0  0  0  0
   51.7640    5.5627    3.1124 C   0  0  0  0  0  0  0  0  0  0  0  0
 19 20  2  0
 20 21  1  0
 20 18  1  0
 18 17  1  0
 17  7  1  0
  7  8  2  0
  8 13  1  0
 13 14  2  0
 13 15  1  0
  8  9  1  0
  9 10  1  0
 10  1  1  0
  1  2  2  0
  2  3  1  0
  3  4  2  0
  4  5  1  0
  5 23  1  0
 23 25  1  0
 25 26  1  0
 26 27  1  0
 27 28  1  0
 28 31  1  0
 31 32  2  0
 31 33  2  0
 31 34  1  0
 34 35  1  0
 35 36  2  0
 36 37  1  0
 37 38  2  0
 38 39  1  0
 38 40  1  0
 40 41  2  0
 28 29  1  0
 29 30  1  0
  5  6  2  0
 10 11  2  0
 11 12  1  0
 11  7  1  0
  6  1  1  0
 30 25  1  0
 41 35  1  0
 21 22  1  0
 15 16  1  0
 23 24  1  0
M  END
> <minimizedAffinity>
-9.47046

> <CNNscore>
0.6965865493

> <CNNaffinity>
6.8035874367

> <CNN_VS>
4.7392873764

> <CNNaffinity_variance>
0.2134526968

$$$$



 41 44  0  0  0  0  0  0  0  0999 V2000
   45.5433   11.8464   -0.2545 C   0  0  0  0  0  0  0  0  0  0  0  0
   44.5292   11.3960   -1.1011 C   0  0  0  0  0  0  0  0  0  0  0  0
   44.7172   10.2381   -1.8482 C   0  0  0  0  0  0  0  0  0  0  0  0
   45.9152    9.5204   -1.7471 C   0  0  0  0  0  0  0  0  0  0  0  0
   46.9390    9.9217   -0.8878 C   0  0  0  0  0  0  0  0  0  0  0  0
   46.7390   11.1140   -0.1694 C   0  0  0  0  0  0  0  0  0  0  0  0
   45.4644   14.7403    2.1571 C   0  0  0  0  0  0  0  0  0  0  0  0
   44.6546   15.3549    1.2171 C   0  0  0  0  0  0  0  0  0  0  0  0
   44.4829   14.3672   -0.1801 S   0  0  0  0  0  0  0  0  0  0  0  0
   45.3648   13.0757    0.5167 C   0  0  0  0  0  0  0  0  0  0  0  0
   45.8041   13.4069    1.7796 C   0  0  0  0  0  0  0  0  0  0  0  0
   46.7281   12.2154    2.9319 Br  0  0  0  0  0  0  0  0  0  0  0  0
   43.9904   16.6386    1.2195 C   0  0  0  0  0  0  0  0  0  0  0  0
   44.0496   17.5202    2.0667 O   0  0  0  0  0  0  0  0  0  0  0  0
   43.2562   16.8463    0.1037 O   0  0  0  0  0  0  0  0  0  0  0  0
   43.2025   16.1796   -0.5525 H   0  0  0  0  0  0  0  0  0  0  0  0
   45.7815   15.3413    3.3324 O   0  0  0  0  0  0  0  0  0  0  0  0
   46.8244   16.3025    3.2052 C   0  0  0  0  0  0  0  0  0  0  0  0
   47.3108   17.3329    5.4014 O   0  0  0  0  0  0  0  0  0  0  0  0
   46.8823   17.3997    4.2620 C   0  0  0  0  0  0  0  0  0  0  0  0
   46.3638   18.5631    3.8035 O   0  0  0  0  0  0  0  0  0  0  0  0
   46.0340   18.6162    2.9280 H   0  0  0  0  0  0  0  0  0  0  0  0
   48.1789    9.2993   -0.7870 N   0  0  0  0  0  0  0  0  0  0  0  0
   48.8252    9.4848   -1.5061 H   0  0  0  0  0  0  0  0  0  0  0  0
   48.6237    8.3952    0.2791 C   0  0  0  0  0  0  0  0  0  0  0  0
   47.4986    7.9496    1.2196 C   0  0  0  0  0  0  0  0  0  0  0  0
   47.8538    8.1002    2.6953 C   0  0  0  0  0  0  0  0  0  0  0  0
   49.1984    7.5796    2.9918 N   0  0  0  0  0  0  0  0  0  0  0  0
   50.2873    7.8384    2.0337 C   0  0  0  0  0  0  0  0  0  0  0  0
   49.8794    8.8781    0.9976 C   0  0  0  0  0  0  0  0  0  0  0  0
   49.3991    6.3649    4.1495 S   0  0  0  0  0  0  0  0  0  0  0  0
   48.6879    6.7899    5.3368 O   0  0  0  0  0  0  0  0  0  0  0  0
   49.1057    5.1059    3.4982 O   0  0  0  0  0  0  0  0  0  0  0  0
   51.1682    6.4617    4.4671 C   0  0  0  0  0  0  0  0  0  0  0  0
   51.6246    5.1830    5.1234 C   0  0  0  0  0  0  0  0  0  0  0  0
   50.6971    4.3141    5.7177 C   0  0  0  0  0  0  0  0  0  0  0  0
   51.1213    3.1237    6.3152 C   0  0  0  0  0  0  0  0  0  0  0  0
   52.4734    2.7931    6.3191 C   0  0  0  0  0  0  0  0  0  0  0  0
   52.9952    1.3259    7.0522 Cl  0  0  0  0  0  0  0  0  0  0  0  0
   53.4057    3.6430    5.7283 C   0  0  0  0  0  0  0  0  0  0  0  0
   52.9831    4.8336    5.1313 C   0  0  0  0  0  0  0  0  0  0  0  0
 19 20  2  0
 20 21  1  0
 20 18  1  0
 18 17  1  0
 17  7  1  0
  7  8  2  0
  8 13  1  0
 13 14  2  0
 13 15  1  0
  8  9  1  0
  9 10  1  0
 10  1  1  0
  1  2  2  0
  2  3  1  0
  3  4  2  0
  4  5  1  0
  5 23  1  0
 23 25  1  0
 25 26  1  0
 26 27  1  0
 27 28  1  0
 28 31  1  0
 31 32  2  0
 31 33  2  0
 31 34  1  0
 34 35  1  0
 35 36  2  0
 36 37  1  0
 37 38  2  0
 38 39  1  0
 38 40  1  0
 40 41  2  0
 28 29  1  0
 29 30  1  0
  5  6  2  0
 10 11  2  0
 11 12  1  0
 11  7  1  0
  6  1  1  0
 30 25  1  0
 41 35  1  0
 21 22  1  0
 15 16  1  0
 23 24  1  0
M  END
> <minimizedAffinity>
-8.54754

> <CNNscore>
0.6913349032

> <CNNaffinity>
6.7483062744

> <CNN_VS>
4.6653394699

> <CNNaffinity_variance>
0.0103385998

$$$$



 41 44  0  0  0  0  0  0  0  0999 V2000
   45.4778   12.2555    0.2241 C   0  0  0  0  0  0  0  0  0  0  0  0
   44.3936   11.9421   -0.5970 C   0  0  0  0  0  0  0  0  0  0  0  0
   44.4589   10.8324   -1.4328 C   0  0  0  0  0  0  0  0  0  0  0  0
   45.6036   10.0262   -1.4463 C   0  0  0  0  0  0  0  0  0  0  0  0
   46.6944   10.2891   -0.6164 C   0  0  0  0  0  0  0  0  0  0  0  0
   46.6184   11.4360    0.1938 C   0  0  0  0  0  0  0  0  0  0  0  0
   45.7685   14.9805    2.8100 C   0  0  0  0  0  0  0  0  0  0  0  0
   44.8773   15.6774    2.0118 C   0  0  0  0  0  0  0  0  0  0  0  0
   44.5154   14.7912    0.5832 S   0  0  0  0  0  0  0  0  0  0  0  0
   45.4285   13.4339    1.0884 C   0  0  0  0  0  0  0  0  0  0  0  0
   46.0194   13.6677    2.3106 C   0  0  0  0  0  0  0  0  0  0  0  0
   47.0295   12.3782    3.2688 Br  0  0  0  0  0  0  0  0  0  0  0  0
   44.2598   16.9741    2.1739 C   0  0  0  0  0  0  0  0  0  0  0  0
   44.5825   17.8766    2.9354 O   0  0  0  0  0  0  0  0  0  0  0  0
   43.2252   17.1670    1.3256 O   0  0  0  0  0  0  0  0  0  0  0  0
   42.9680   16.4844    0.7376 H   0  0  0  0  0  0  0  0  0  0  0  0
   46.2370   15.4924    3.9769 O   0  0  0  0  0  0  0  0  0  0  0  0
   47.3919   16.3076    3.8060 C   0  0  0  0  0  0  0  0  0  0  0  0
   48.5826   18.0827    5.0521 O   0  0  0  0  0  0  0  0  0  0  0  0
   47.5658   17.4681    4.7792 C   0  0  0  0  0  0  0  0  0  0  0  0
   46.3992   17.7911    5.3852 O   0  0  0  0  0  0  0  0  0  0  0  0
   45.6167   17.3197    5.1767 H   0  0  0  0  0  0  0  0  0  0  0  0
   47.8878    9.5747   -0.6258 N   0  0  0  0  0  0  0  0  0  0  0  0
   48.2674    9.3617   -1.5089 H   0  0  0  0  0  0  0  0  0  0  0  0
   48.6399    9.1056    0.5430 C   0  0  0  0  0  0  0  0  0  0  0  0
   50.1606    9.1604    0.3609 C   0  0  0  0  0  0  0  0  0  0  0  0
   50.8603    7.8636    0.7549 C   0  0  0  0  0  0  0  0  0  0  0  0
   50.3746    7.3486    2.0456 N   0  0  0  0  0  0  0  0  0  0  0  0
   48.9336    7.4235    2.3431 C   0  0  0  0  0  0  0  0  0  0  0  0
   48.1283    7.7813    1.1004 C   0  0  0  0  0  0  0  0  0  0  0  0
   51.4594    7.0883    3.3150 S   0  0  0  0  0  0  0  0  0  0  0  0
   52.4214    6.1086    2.8558 O   0  0  0  0  0  0  0  0  0  0  0  0
   51.8714    8.3906    3.7943 O   0  0  0  0  0  0  0  0  0  0  0  0
   50.3930    6.3217    4.5459 C   0  0  0  0  0  0  0  0  0  0  0  0
   51.0796    5.1011    5.1052 C   0  0  0  0  0  0  0  0  0  0  0  0
   52.4471    5.1305    5.4178 C   0  0  0  0  0  0  0  0  0  0  0  0
   53.0788    4.0014    5.9470 C   0  0  0  0  0  0  0  0  0  0  0  0
   52.3475    2.8383    6.1703 C   0  0  0  0  0  0  0  0  0  0  0  0
   53.1248    1.4491    6.8248 Cl  0  0  0  0  0  0  0  0  0  0  0  0
   50.9878    2.7953    5.8701 C   0  0  0  0  0  0  0  0  0  0  0  0
   50.3552    3.9231    5.3404 C   0  0  0  0  0  0  0  0  0  0  0  0
 19 20  2  0
 20 21  1  0
 20 18  1  0
 18 17  1  0
 17  7  1  0
  7  8  2  0
  8 13  1  0
 13 14  2  0
 13 15  1  0
  8  9  1  0
  9 10  1  0
 10  1  1  0
  1  2  2  0
  2  3  1  0
  3  4  2  0
  4  5  1  0
  5 23  1  0
 23 25  1  0
 25 26  1  0
 26 27  1  0
 27 28  1  0
 28 31  1  0
 31 32  2  0
 31 33  2  0
 31 34  1  0
 34 35  1  0
 35 36  2  0
 36 37  1  0
 37 38  2  0
 38 39  1  0
 38 40  1  0
 40 41  2  0
 28 29  1  0
 29 30  1  0
  5  6  2  0
 10 11  2  0
 11 12  1  0
 11  7  1  0
  6  1  1  0
 30 25  1  0
 41 35  1  0
 21 22  1  0
 15 16  1  0
 23 24  1  0
M  END
> <minimizedAffinity>
-9.03262

> <CNNscore>
0.6799434423

> <CNNaffinity>
6.7192978859

> <CNN_VS>
4.5687427521

> <CNNaffinity_variance>
0.1247040257

$$$$



 41 44  0  0  0  0  0  0  0  0999 V2000
   44.7848   12.9548    0.1862 C   0  0  0  0  0  0  0  0  0  0  0  0
   44.7556   11.6121    0.5661 C   0  0  0  0  0  0  0  0  0  0  0  0
   44.4858   10.6320   -0.3830 C   0  0  0  0  0  0  0  0  0  0  0  0
   44.2521   10.9875   -1.7170 C   0  0  0  0  0  0  0  0  0  0  0  0
   44.3045   12.3162   -2.1407 C   0  0  0  0  0  0  0  0  0  0  0  0
   44.5447   13.2913   -1.1563 C   0  0  0  0  0  0  0  0  0  0  0  0
   45.8865   15.2341    2.9769 C   0  0  0  0  0  0  0  0  0  0  0  0
   44.9566   16.1235    2.4655 C   0  0  0  0  0  0  0  0  0  0  0  0
   44.2288   15.4937    1.0405 S   0  0  0  0  0  0  0  0  0  0  0  0
   45.0435   13.9945    1.1813 C   0  0  0  0  0  0  0  0  0  0  0  0
   45.8750   13.9894    2.2795 C   0  0  0  0  0  0  0  0  0  0  0  0
   46.8767   12.4817    2.8495 Br  0  0  0  0  0  0  0  0  0  0  0  0
   44.5462   17.4374    2.9066 C   0  0  0  0  0  0  0  0  0  0  0  0
   44.2227   18.3991    2.2219 O   0  0  0  0  0  0  0  0  0  0  0  0
   44.4993   17.5426    4.2533 O   0  0  0  0  0  0  0  0  0  0  0  0
   44.7443   16.8140    4.7890 H   0  0  0  0  0  0  0  0  0  0  0  0
   46.6231   15.5230    4.0802 O   0  0  0  0  0  0  0  0  0  0  0  0
   47.6874   16.4323    3.8194 C   0  0  0  0  0  0  0  0  0  0  0  0
   48.7436   18.4241    4.8385 O   0  0  0  0  0  0  0  0  0  0  0  0
   47.8436   17.6038    4.7824 C   0  0  0  0  0  0  0  0  0  0  0  0
   46.8170   17.6674    5.6626 O   0  0  0  0  0  0  0  0  0  0  0  0
   46.1244   17.0377    5.6209 H   0  0  0  0  0  0  0  0  0  0  0  0
   44.0161   12.7486   -3.4310 N   0  0  0  0  0  0  0  0  0  0  0  0
   43.1402   12.4887   -3.7977 H   0  0  0  0  0  0  0  0  0  0  0  0
   44.8811   13.5515   -4.3021 C   0  0  0  0  0  0  0  0  0  0  0  0
   46.3405   13.6102   -3.8378 C   0  0  0  0  0  0  0  0  0  0  0  0
   46.9039   15.0272   -3.8035 C   0  0  0  0  0  0  0  0  0  0  0  0
   46.5764   15.7774   -5.0270 N   0  0  0  0  0  0  0  0  0  0  0  0
   45.2330   15.6284   -5.6132 C   0  0  0  0  0  0  0  0  0  0  0  0
   44.2874   14.9105   -4.6585 C   0  0  0  0  0  0  0  0  0  0  0  0
   47.8129   16.4356   -5.9724 S   0  0  0  0  0  0  0  0  0  0  0  0
   49.0112   15.6723   -5.6934 O   0  0  0  0  0  0  0  0  0  0  0  0
   47.2933   16.5692   -7.3168 O   0  0  0  0  0  0  0  0  0  0  0  0
   47.9860   18.0734   -5.2459 C   0  0  0  0  0  0  0  0  0  0  0  0
   46.6183   18.6156   -4.9147 C   0  0  0  0  0  0  0  0  0  0  0  0
   45.7907   19.1319   -5.9232 C   0  0  0  0  0  0  0  0  0  0  0  0
   44.5188   19.6233   -5.6154 C   0  0  0  0  0  0  0  0  0  0  0  0
   44.0653   19.5983   -4.2996 C   0  0  0  0  0  0  0  0  0  0  0  0
   42.4980   20.2007   -3.9213 Cl  0  0  0  0  0  0  0  0  0  0  0  0
   44.8733   19.0839   -3.2881 C   0  0  0  0  0  0  0  0  0  0  0  0
   46.1453   18.5930   -3.5943 C   0  0  0  0  0  0  0  0  0  0  0  0
 19 20  2  0
 20 21  1  0
 20 18  1  0
 18 17  1  0
 17  7  1  0
  7  8  2  0
  8 13  1  0
 13 14  2  0
 13 15  1  0
  8  9  1  0
  9 10  1  0
 10  1  1  0
  1  2  2  0
  2  3  1  0
  3  4  2  0
  4  5  1  0
  5 23  1  0
 23 25  1  0
 25 26  1  0
 26 27  1  0
 27 28  1  0
 28 31  1  0
 31 32  2  0
 31 33  2  0
 31 34  1  0
 34 35  1  0
 35 36  2  0
 36 37  1  0
 37 38  2  0
 38 39  1  0
 38 40  1  0
 40 41  2  0
 28 29  1  0
 29 30  1  0
  5  6  2  0
 10 11  2  0
 11 12  1  0
 11  7  1  0
  6  1  1  0
 30 25  1  0
 41 35  1  0
 21 22  1  0
 15 16  1  0
 23 24  1  0
M  END
> <minimizedAffinity>
-8.24887

> <CNNscore>
0.6625647545

> <CNNaffinity>
6.7602639198

> <CNN_VS>
4.4791126251

> <CNNaffinity_variance>
0.1275582016

$$$$



 41 44  0  0  0  0  0  0  0  0999 V2000
   45.9044   11.8759    1.2686 C   0  0  0  0  0  0  0  0  0  0  0  0
   45.0050   11.0957    0.5404 C   0  0  0  0  0  0  0  0  0  0  0  0
   45.3144    9.7701    0.2555 C   0  0  0  0  0  0  0  0  0  0  0  0
   46.5194    9.2154    0.7037 C   0  0  0  0  0  0  0  0  0  0  0  0
   47.4288    9.9545    1.4616 C   0  0  0  0  0  0  0  0  0  0  0  0
   47.1093   11.3018    1.7067 C   0  0  0  0  0  0  0  0  0  0  0  0
   45.5026   15.4154    2.4966 C   0  0  0  0  0  0  0  0  0  0  0  0
   44.6839   15.5854    1.3931 C   0  0  0  0  0  0  0  0  0  0  0  0
   44.6455   14.1576    0.4355 S   0  0  0  0  0  0  0  0  0  0  0  0
   45.5991   13.2775    1.5523 C   0  0  0  0  0  0  0  0  0  0  0  0
   45.9613   14.0698    2.6193 C   0  0  0  0  0  0  0  0  0  0  0  0
   46.9313   13.4472    4.1269 Br  0  0  0  0  0  0  0  0  0  0  0  0
   43.9205   16.7239    0.9346 C   0  0  0  0  0  0  0  0  0  0  0  0
   43.2476   16.8242   -0.0831 O   0  0  0  0  0  0  0  0  0  0  0  0
   43.9661   17.7625    1.7984 O   0  0  0  0  0  0  0  0  0  0  0  0
   44.4773   17.6988    2.5811 H   0  0  0  0  0  0  0  0  0  0  0  0
   45.7252   16.4175    3.3851 O   0  0  0  0  0  0  0  0  0  0  0  0
   47.0614   16.9085    3.3507 C   0  0  0  0  0  0  0  0  0  0  0  0
   48.7601   17.7837    4.9223 O   0  0  0  0  0  0  0  0  0  0  0  0
   47.6050   17.5160    4.6390 C   0  0  0  0  0  0  0  0  0  0  0  0
   46.6188   17.7495    5.5364 O   0  0  0  0  0  0  0  0  0  0  0  0
   45.7304   17.5444    5.3202 H   0  0  0  0  0  0  0  0  0  0  0  0
   48.6719    9.4919    1.8805 N   0  0  0  0  0  0  0  0  0  0  0  0
   49.4401   10.0869    1.7220 H   0  0  0  0  0  0  0  0  0  0  0  0
   48.9576    8.2100    2.5338 C   0  0  0  0  0  0  0  0  0  0  0  0
   49.7290    8.3471    3.8509 C   0  0  0  0  0  0  0  0  0  0  0  0
   50.9348    7.4174    3.9410 C   0  0  0  0  0  0  0  0  0  0  0  0
   50.6037    6.0471    3.5168 N   0  0  0  0  0  0  0  0  0  0  0  0
   49.7254    5.8579    2.3492 C   0  0  0  0  0  0  0  0  0  0  0  0
   49.5292    7.1612    1.5853 C   0  0  0  0  0  0  0  0  0  0  0  0
   50.8501    4.7516    4.5736 S   0  0  0  0  0  0  0  0  0  0  0  0
   50.3851    5.1746    5.8779 O   0  0  0  0  0  0  0  0  0  0  0  0
   50.3222    3.5696    3.9256 O   0  0  0  0  0  0  0  0  0  0  0  0
   52.6470    4.6502    4.6030 C   0  0  0  0  0  0  0  0  0  0  0  0
   53.0582    3.2405    4.9463 C   0  0  0  0  0  0  0  0  0  0  0  0
   52.8791    2.7399    6.2447 C   0  0  0  0  0  0  0  0  0  0  0  0
   53.2504    1.4290    6.5576 C   0  0  0  0  0  0  0  0  0  0  0  0
   53.7990    0.6102    5.5747 C   0  0  0  0  0  0  0  0  0  0  0  0
   54.2533   -1.0047    5.9594 Cl  0  0  0  0  0  0  0  0  0  0  0  0
   53.9781    1.0912    4.2796 C   0  0  0  0  0  0  0  0  0  0  0  0
   53.6080    2.4016    3.9656 C   0  0  0  0  0  0  0  0  0  0  0  0
 19 20  2  0
 20 21  1  0
 20 18  1  0
 18 17  1  0
 17  7  1  0
  7  8  2  0
  8 13  1  0
 13 14  2  0
 13 15  1  0
  8  9  1  0
  9 10  1  0
 10  1  1  0
  1  2  2  0
  2  3  1  0
  3  4  2  0
  4  5  1  0
  5 23  1  0
 23 25  1  0
 25 26  1  0
 26 27  1  0
 27 28  1  0
 28 31  1  0
 31 32  2  0
 31 33  2  0
 31 34  1  0
 34 35  1  0
 35 36  2  0
 36 37  1  0
 37 38  2  0
 38 39  1  0
 38 40  1  0
 40 41  2  0
 28 29  1  0
 29 30  1  0
  5  6  2  0
 10 11  2  0
 11 12  1  0
 11  7  1  0
  6  1  1  0
 30 25  1  0
 41 35  1  0
 21 22  1  0
 15 16  1  0
 23 24  1  0
M  END
> <minimizedAffinity>
-8.73441

> <CNNscore>
0.6417432427

> <CNNaffinity>
6.7392363548

> <CNN_VS>
4.3248596191

> <CNNaffinity_variance>
0.0102967601

$$$$



 41 44  0  0  0  0  0  0  0  0999 V2000
   45.6919   10.9934    0.5285 C   0  0  0  0  0  0  0  0  0  0  0  0
   44.4774   10.4098    0.1646 C   0  0  0  0  0  0  0  0  0  0  0  0
   44.4686    9.1688   -0.4632 C   0  0  0  0  0  0  0  0  0  0  0  0
   45.6717    8.5014   -0.7228 C   0  0  0  0  0  0  0  0  0  0  0  0
   46.9033    9.0382   -0.3451 C   0  0  0  0  0  0  0  0  0  0  0  0
   46.8883   10.3092    0.2565 C   0  0  0  0  0  0  0  0  0  0  0  0
   45.4048   14.5709    1.6755 C   0  0  0  0  0  0  0  0  0  0  0  0
   46.1265   14.1556    2.7817 C   0  0  0  0  0  0  0  0  0  0  0  0
   46.4201   12.4624    2.7186 S   0  0  0  0  0  0  0  0  0  0  0  0
   45.7131   12.3086    1.1669 C   0  0  0  0  0  0  0  0  0  0  0  0
   45.2382   13.5227    0.7219 C   0  0  0  0  0  0  0  0  0  0  0  0
   44.4777   13.8043   -0.9938 Br  0  0  0  0  0  0  0  0  0  0  0  0
   46.6204   14.8819    3.9296 C   0  0  0  0  0  0  0  0  0  0  0  0
   46.3581   14.6995    5.1113 O   0  0  0  0  0  0  0  0  0  0  0  0
   47.5057   15.8463    3.5932 O   0  0  0  0  0  0  0  0  0  0  0  0
   47.7153   15.9963    2.6923 H   0  0  0  0  0  0  0  0  0  0  0  0
   45.0161   15.8620    1.5169 O   0  0  0  0  0  0  0  0  0  0  0  0
   44.3393   16.3858    2.6550 C   0  0  0  0  0  0  0  0  0  0  0  0
   45.5653   18.1996    3.8077 O   0  0  0  0  0  0  0  0  0  0  0  0
   44.6810   17.8147    3.0620 C   0  0  0  0  0  0  0  0  0  0  0  0
   43.8441   18.7112    2.4889 O   0  0  0  0  0  0  0  0  0  0  0  0
   43.1638   18.4171    1.9155 H   0  0  0  0  0  0  0  0  0  0  0  0
   48.1386    8.4662   -0.6311 N   0  0  0  0  0  0  0  0  0  0  0  0
   48.6357    8.8472   -1.3907 H   0  0  0  0  0  0  0  0  0  0  0  0
   48.7776    7.3544    0.0811 C   0  0  0  0  0  0  0  0  0  0  0  0
   48.9618    6.0972   -0.7759 C   0  0  0  0  0  0  0  0  0  0  0  0
   48.4777    4.8247   -0.0884 C   0  0  0  0  0  0  0  0  0  0  0  0
   48.9473    4.7411    1.3043 N   0  0  0  0  0  0  0  0  0  0  0  0
   48.9478    5.9626    2.1281 C   0  0  0  0  0  0  0  0  0  0  0  0
   48.1707    7.0865    1.4545 C   0  0  0  0  0  0  0  0  0  0  0  0
   49.8606    3.4126    1.8109 S   0  0  0  0  0  0  0  0  0  0  0  0
   51.1524    3.5157    1.1652 O   0  0  0  0  0  0  0  0  0  0  0  0
   49.7353    3.3362    3.2510 O   0  0  0  0  0  0  0  0  0  0  0  0
   48.9492    2.0482    1.0706 C   0  0  0  0  0  0  0  0  0  0  0  0
   48.3511    1.2003    2.1648 C   0  0  0  0  0  0  0  0  0  0  0  0
   48.9581   -0.0054    2.5474 C   0  0  0  0  0  0  0  0  0  0  0  0
   48.4081   -0.7839    3.5699 C   0  0  0  0  0  0  0  0  0  0  0  0
   47.2513   -0.3606    4.2181 C   0  0  0  0  0  0  0  0  0  0  0  0
   46.5760   -1.3179    5.4792 Cl  0  0  0  0  0  0  0  0  0  0  0  0
   46.6401    0.8368    3.8532 C   0  0  0  0  0  0  0  0  0  0  0  0
   47.1884    1.6157    2.8308 C   0  0  0  0  0  0  0  0  0  0  0  0
 19 20  2  0
 20 21  1  0
 20 18  1  0
 18 17  1  0
 17  7  1  0
  7  8  2  0
  8 13  1  0
 13 14  2  0
 13 15  1  0
  8  9  1  0
  9 10  1  0
 10  1  1  0
  1  2  2  0
  2  3  1  0
  3  4  2  0
  4  5  1  0
  5 23  1  0
 23 25  1  0
 25 26  1  0
 26 27  1  0
 27 28  1  0
 28 31  1  0
 31 32  2  0
 31 33  2  0
 31 34  1  0
 34 35  1  0
 35 36  2  0
 36 37  1  0
 37 38  2  0
 38 39  1  0
 38 40  1  0
 40 41  2  0
 28 29  1  0
 29 30  1  0
  5  6  2  0
 10 11  2  0
 11 12  1  0
 11  7  1  0
  6  1  1  0
 30 25  1  0
 41 35  1  0
 21 22  1  0
 15 16  1  0
 23 24  1  0
M  END
> <minimizedAffinity>
-6.73637

> <CNNscore>
0.6048120260

> <CNNaffinity>
6.4169883728

> <CNN_VS>
3.8810718060

> <CNNaffinity_variance>
0.0110982461

$$$$



 41 44  0  0  0  0  0  0  0  0999 V2000
   44.7958   12.9993    0.3010 C   0  0  0  0  0  0  0  0  0  0  0  0
   44.7944   11.6490    0.6540 C   0  0  0  0  0  0  0  0  0  0  0  0
   44.5218   10.6839   -0.3096 C   0  0  0  0  0  0  0  0  0  0  0  0
   44.2576   11.0623   -1.6315 C   0  0  0  0  0  0  0  0  0  0  0  0
   44.2816   12.3998   -2.0291 C   0  0  0  0  0  0  0  0  0  0  0  0
   44.5253   13.3587   -1.0298 C   0  0  0  0  0  0  0  0  0  0  0  0
   45.9072   15.2347    3.1231 C   0  0  0  0  0  0  0  0  0  0  0  0
   44.9715   16.1296    2.6325 C   0  0  0  0  0  0  0  0  0  0  0  0
   44.2371   15.5217    1.2013 S   0  0  0  0  0  0  0  0  0  0  0  0
   45.0573   14.0229    1.3119 C   0  0  0  0  0  0  0  0  0  0  0  0
   45.8954   14.0019    2.4049 C   0  0  0  0  0  0  0  0  0  0  0  0
   46.9051   12.4880    2.9434 Br  0  0  0  0  0  0  0  0  0  0  0  0
   44.5596   17.4345    3.0981 C   0  0  0  0  0  0  0  0  0  0  0  0
   44.3429   18.4411    2.4360 O   0  0  0  0  0  0  0  0  0  0  0  0
   44.3726   17.4739    4.4362 O   0  0  0  0  0  0  0  0  0  0  0  0
   44.5348   16.7104    4.9546 H   0  0  0  0  0  0  0  0  0  0  0  0
   46.6494   15.5072    4.2268 O   0  0  0  0  0  0  0  0  0  0  0  0
   47.7280   16.4002    3.9685 C   0  0  0  0  0  0  0  0  0  0  0  0
   48.7145   18.4718    4.8942 O   0  0  0  0  0  0  0  0  0  0  0  0
   47.8339   17.6293    4.8642 C   0  0  0  0  0  0  0  0  0  0  0  0
   46.7836   17.7208    5.7133 O   0  0  0  0  0  0  0  0  0  0  0  0
   46.1058   17.0742    5.6915 H   0  0  0  0  0  0  0  0  0  0  0  0
   43.9623   12.8533   -3.3048 N   0  0  0  0  0  0  0  0  0  0  0  0
   43.2712   12.3490   -3.7919 H   0  0  0  0  0  0  0  0  0  0  0  0
   44.5480   14.0047   -3.9998 C   0  0  0  0  0  0  0  0  0  0  0  0
   44.5601   15.2892   -3.1637 C   0  0  0  0  0  0  0  0  0  0  0  0
   44.0138   16.4998   -3.9137 C   0  0  0  0  0  0  0  0  0  0  0  0
   44.5694   16.5993   -5.2733 N   0  0  0  0  0  0  0  0  0  0  0  0
   44.7354   15.3677   -6.0645 C   0  0  0  0  0  0  0  0  0  0  0  0
   44.0163   14.1910   -5.4171 C   0  0  0  0  0  0  0  0  0  0  0  0
   45.3942   17.9951   -5.7501 S   0  0  0  0  0  0  0  0  0  0  0  0
   44.9777   18.2913   -7.1047 O   0  0  0  0  0  0  0  0  0  0  0  0
   45.2464   18.9607   -4.6817 O   0  0  0  0  0  0  0  0  0  0  0  0
   47.0969   17.4120   -5.7810 C   0  0  0  0  0  0  0  0  0  0  0  0
   47.9973   18.4816   -5.2159 C   0  0  0  0  0  0  0  0  0  0  0  0
   48.3098   19.6238   -5.9683 C   0  0  0  0  0  0  0  0  0  0  0  0
   49.1354   20.6194   -5.4378 C   0  0  0  0  0  0  0  0  0  0  0  0
   49.6501   20.4811   -4.1520 C   0  0  0  0  0  0  0  0  0  0  0  0
   50.6641   21.7085   -3.4978 Cl  0  0  0  0  0  0  0  0  0  0  0  0
   49.3444   19.3553   -3.3905 C   0  0  0  0  0  0  0  0  0  0  0  0
   48.5199   18.3590   -3.9199 C   0  0  0  0  0  0  0  0  0  0  0  0
 19 20  2  0
 20 21  1  0
 20 18  1  0
 18 17  1  0
 17  7  1  0
  7  8  2  0
  8 13  1  0
 13 14  2  0
 13 15  1  0
  8  9  1  0
  9 10  1  0
 10  1  1  0
  1  2  2  0
  2  3  1  0
  3  4  2  0
  4  5  1  0
  5 23  1  0
 23 25  1  0
 25 26  1  0
 26 27  1  0
 27 28  1  0
 28 31  1  0
 31 32  2  0
 31 33  2  0
 31 34  1  0
 34 35  1  0
 35 36  2  0
 36 37  1  0
 37 38  2  0
 38 39  1  0
 38 40  1  0
 40 41  2  0
 28 29  1  0
 29 30  1  0
  5  6  2  0
 10 11  2  0
 11 12  1  0
 11  7  1  0
  6  1  1  0
 30 25  1  0
 41 35  1  0
 21 22  1  0
 15 16  1  0
 23 24  1  0
M  END
> <minimizedAffinity>
-8.11358

> <CNNscore>
0.5995808840

> <CNNaffinity>
6.5251979828

> <CNN_VS>
3.9123840332

> <CNNaffinity_variance>
0.2947495282

$$$$
