


 17 17  0  0  0  0  0  0  0  0999 V2000
   -1.5950   14.2739   16.4732 C   0  0  0  0  0  0  0  0  0  0  0  0
   -0.9186   13.6737   17.5444 C   0  0  0  0  0  0  0  0  0  0  0  0
   -0.4393   14.4468   18.6088 C   0  0  0  0  0  0  0  0  0  0  0  0
   -0.5878   15.8373   18.6153 C   0  0  0  0  0  0  0  0  0  0  0  0
   -0.2243   16.5560   19.7609 N   0  0  0  0  0  0  0  0  0  0  0  0
   -1.3018   16.4284   17.5604 C   0  0  0  0  0  0  0  0  0  0  0  0
   -1.5891   18.1325   17.5312 Cl  0  0  0  0  0  0  0  0  0  0  0  0
   -1.7841   15.6624   16.4930 C   0  0  0  0  0  0  0  0  0  0  0  0
    0.2763   16.1115   20.4827 H   0  0  0  0  0  0  0  0  0  0  0  0
   -0.4695   17.5059   19.8445 H   0  0  0  0  0  0  0  0  0  0  0  0
   -2.9852   13.9929   14.5317 N   0  0  0  0  0  0  0  0  0  0  0  0
   -2.1135   13.4640   15.3624 C   0  0  0  0  0  0  0  0  0  0  0  0
   -1.6941   12.2257   15.2172 N   0  0  0  0  0  0  0  0  0  0  0  0
   -3.3392   13.4591   13.7840 H   0  0  0  0  0  0  0  0  0  0  0  0
   -3.2837   14.9225   14.6576 H   0  0  0  0  0  0  0  0  0  0  0  0
   -2.0351   11.6742   14.4763 H   0  0  0  0  0  0  0  0  0  0  0  0
   -1.0392   11.8505   15.8493 H   0  0  0  0  0  0  0  0  0  0  0  0
 11 12  1  0
 12 13  2  0
 12  1  1  0
  1  2  2  0
  2  3  1  0
  3  4  2  0
  4  5  1  0
  4  6  1  0
  6  7  1  0
  6  8  2  0
  8  1  1  0
 11 14  1  0
 11 15  1  0
 13 16  1  0
 13 17  1  0
  5  9  1  0
  5 10  1  0
M  CHG 1  13   1
M  END
> <minimizedAffinity>
-6.80805

> <CNNscore>
0.9514802098

> <CNNaffinity>
4.3914160728

> <CNN_VS>
4.1783456802

> <CNNaffinity_variance>
0.3833702505

$$$$



 17 17  0  0  0  0  0  0  0  0999 V2000
   -1.4696   14.0509   16.6816 C   0  0  0  0  0  0  0  0  0  0  0  0
   -0.7332   13.8974   17.8645 C   0  0  0  0  0  0  0  0  0  0  0  0
   -0.7790   14.8752   18.8656 C   0  0  0  0  0  0  0  0  0  0  0  0
   -1.5273   16.0447   18.6987 C   0  0  0  0  0  0  0  0  0  0  0  0
   -1.6618   16.9274   19.7775 N   0  0  0  0  0  0  0  0  0  0  0  0
   -2.2951   16.1742   17.5301 C   0  0  0  0  0  0  0  0  0  0  0  0
   -3.3011   17.5573   17.2805 Cl  0  0  0  0  0  0  0  0  0  0  0  0
   -2.2547   15.2012   16.5250 C   0  0  0  0  0  0  0  0  0  0  0  0
   -1.1079   16.8086   20.5828 H   0  0  0  0  0  0  0  0  0  0  0  0
   -2.3102   17.6667   19.7308 H   0  0  0  0  0  0  0  0  0  0  0  0
   -2.3224   13.0585   14.6644 N   0  0  0  0  0  0  0  0  0  0  0  0
   -1.4367   13.0193   15.6359 C   0  0  0  0  0  0  0  0  0  0  0  0
   -0.5201   12.0773   15.6886 N   0  0  0  0  0  0  0  0  0  0  0  0
   -2.3095   12.3723   13.9586 H   0  0  0  0  0  0  0  0  0  0  0  0
   -2.9983   13.7740   14.6431 H   0  0  0  0  0  0  0  0  0  0  0  0
   -0.4891   11.3813   14.9930 H   0  0  0  0  0  0  0  0  0  0  0  0
    0.1348   12.0684   16.4235 H   0  0  0  0  0  0  0  0  0  0  0  0
 11 12  1  0
 12 13  2  0
 12  1  1  0
  1  2  2  0
  2  3  1  0
  3  4  2  0
  4  5  1  0
  4  6  1  0
  6  7  1  0
  6  8  2  0
  8  1  1  0
 11 14  1  0
 11 15  1  0
 13 16  1  0
 13 17  1  0
  5  9  1  0
  5 10  1  0
M  CHG 1  13   1
M  END
> <minimizedAffinity>
-6.29282

> <CNNscore>
0.9505870938

> <CNNaffinity>
4.3869194984

> <CNN_VS>
4.1701488495

> <CNNaffinity_variance>
0.2867619693

$$$$



 17 17  0  0  0  0  0  0  0  0999 V2000
   -1.1477   15.2470   18.1615 C   0  0  0  0  0  0  0  0  0  0  0  0
   -2.2202   15.4742   17.2879 C   0  0  0  0  0  0  0  0  0  0  0  0
   -2.4875   14.5851   16.2398 C   0  0  0  0  0  0  0  0  0  0  0  0
   -1.6735   13.4710   16.0129 C   0  0  0  0  0  0  0  0  0  0  0  0
   -2.0573   12.5318   15.0477 N   0  0  0  0  0  0  0  0  0  0  0  0
   -0.6258   13.2260   16.9154 C   0  0  0  0  0  0  0  0  0  0  0  0
    0.3819   11.8322   16.7448 Cl  0  0  0  0  0  0  0  0  0  0  0  0
   -0.3524   14.1099   17.9655 C   0  0  0  0  0  0  0  0  0  0  0  0
   -2.7964   12.7349   14.4298 H   0  0  0  0  0  0  0  0  0  0  0  0
   -1.5881   11.6684   14.9870 H   0  0  0  0  0  0  0  0  0  0  0  0
   -1.8597   16.8763   19.7801 N   0  0  0  0  0  0  0  0  0  0  0  0
   -0.8740   16.1691   19.2722 C   0  0  0  0  0  0  0  0  0  0  0  0
    0.3512   16.2680   19.7405 N   0  0  0  0  0  0  0  0  0  0  0  0
   -1.6874   17.4971   20.5245 H   0  0  0  0  0  0  0  0  0  0  0  0
   -2.7697   16.7849   19.4158 H   0  0  0  0  0  0  0  0  0  0  0  0
    0.5457   16.8827   20.4845 H   0  0  0  0  0  0  0  0  0  0  0  0
    1.0738   15.7274   19.3470 H   0  0  0  0  0  0  0  0  0  0  0  0
 11 12  1  0
 12 13  2  0
 12  1  1  0
  1  2  2  0
  2  3  1  0
  3  4  2  0
  4  5  1  0
  4  6  1  0
  6  7  1  0
  6  8  2  0
  8  1  1  0
 11 14  1  0
 11 15  1  0
 13 16  1  0
 13 17  1  0
  5  9  1  0
  5 10  1  0
M  CHG 1  13   1
M  END
> <minimizedAffinity>
-6.01257

> <CNNscore>
0.8050435781

> <CNNaffinity>
4.1882033348

> <CNN_VS>
3.3716862202

> <CNNaffinity_variance>
0.3386281729

$$$$



 17 17  0  0  0  0  0  0  0  0999 V2000
   -1.9238   14.2522   16.3049 C   0  0  0  0  0  0  0  0  0  0  0  0
   -2.5740   15.4642   16.5762 C   0  0  0  0  0  0  0  0  0  0  0  0
   -2.3453   16.1429   17.7793 C   0  0  0  0  0  0  0  0  0  0  0  0
   -1.4948   15.6149   18.7557 C   0  0  0  0  0  0  0  0  0  0  0  0
   -1.1818   16.3908   19.8786 N   0  0  0  0  0  0  0  0  0  0  0  0
   -0.8149   14.4219   18.4615 C   0  0  0  0  0  0  0  0  0  0  0  0
    0.3067   13.7416   19.5870 Cl  0  0  0  0  0  0  0  0  0  0  0  0
   -1.0380   13.7377   17.2613 C   0  0  0  0  0  0  0  0  0  0  0  0
   -1.6780   17.2224   20.0562 H   0  0  0  0  0  0  0  0  0  0  0  0
   -0.4656   16.1048   20.4905 H   0  0  0  0  0  0  0  0  0  0  0  0
   -1.8515   12.2672   14.9501 N   0  0  0  0  0  0  0  0  0  0  0  0
   -2.1489   13.5453   15.0367 C   0  0  0  0  0  0  0  0  0  0  0  0
   -2.6468   14.2029   14.0120 N   0  0  0  0  0  0  0  0  0  0  0  0
   -1.9983   11.7837   14.1051 H   0  0  0  0  0  0  0  0  0  0  0  0
   -1.4820   11.7938   15.7303 H   0  0  0  0  0  0  0  0  0  0  0  0
   -2.8016   13.7389   13.1576 H   0  0  0  0  0  0  0  0  0  0  0  0
   -2.8646   15.1590   14.0995 H   0  0  0  0  0  0  0  0  0  0  0  0
 11 12  1  0
 12 13  2  0
 12  1  1  0
  1  2  2  0
  2  3  1  0
  3  4  2  0
  4  5  1  0
  4  6  1  0
  6  7  1  0
  6  8  2  0
  8  1  1  0
 11 14  1  0
 11 15  1  0
 13 16  1  0
 13 17  1  0
  5  9  1  0
  5 10  1  0
M  CHG 1  13   1
M  END
> <minimizedAffinity>
-5.78749

> <CNNscore>
0.8006000519

> <CNNaffinity>
4.1005897522

> <CNN_VS>
3.2829322815

> <CNNaffinity_variance>
0.6684158444

$$$$



 17 17  0  0  0  0  0  0  0  0999 V2000
    7.2819   20.8210   12.3844 C   0  0  0  0  0  0  0  0  0  0  0  0
    6.7927   21.9375   11.6923 C   0  0  0  0  0  0  0  0  0  0  0  0
    5.5463   22.4876   12.0154 C   0  0  0  0  0  0  0  0  0  0  0  0
    4.7415   21.9187   13.0074 C   0  0  0  0  0  0  0  0  0  0  0  0
    3.5712   22.5811   13.3983 N   0  0  0  0  0  0  0  0  0  0  0  0
    5.2541   20.8259   13.7252 C   0  0  0  0  0  0  0  0  0  0  0  0
    4.3507   20.1106   15.0133 Cl  0  0  0  0  0  0  0  0  0  0  0  0
    6.4990   20.2706   13.4082 C   0  0  0  0  0  0  0  0  0  0  0  0
    3.2385   23.3442   12.8728 H   0  0  0  0  0  0  0  0  0  0  0  0
    3.0811   22.2835   14.1986 H   0  0  0  0  0  0  0  0  0  0  0  0
    8.8086   18.9679   12.2554 N   0  0  0  0  0  0  0  0  0  0  0  0
    8.5964   20.2509   12.0591 C   0  0  0  0  0  0  0  0  0  0  0  0
    9.5361   21.0334   11.5742 N   0  0  0  0  0  0  0  0  0  0  0  0
    9.6856   18.5755   12.0409 H   0  0  0  0  0  0  0  0  0  0  0  0
    8.0904   18.3999   12.6170 H   0  0  0  0  0  0  0  0  0  0  0  0
   10.4204   20.6618   11.3528 H   0  0  0  0  0  0  0  0  0  0  0  0
    9.3549   21.9908   11.4328 H   0  0  0  0  0  0  0  0  0  0  0  0
 11 12  1  0
 12 13  2  0
 12  1  1  0
  1  2  2  0
  2  3  1  0
  3  4  2  0
  4  5  1  0
  4  6  1  0
  6  7  1  0
  6  8  2  0
  8  1  1  0
 11 14  1  0
 11 15  1  0
 13 16  1  0
 13 17  1  0
  5  9  1  0
  5 10  1  0
M  CHG 1  13   1
M  END
> <minimizedAffinity>
-4.57540

> <CNNscore>
0.7948214412

> <CNNaffinity>
3.4439046383

> <CNN_VS>
2.7372891903

> <CNNaffinity_variance>
0.5707383156

$$$$



 17 17  0  0  0  0  0  0  0  0999 V2000
   -1.5138   17.0634   19.1982 C   0  0  0  0  0  0  0  0  0  0  0  0
   -1.8407   17.7829   18.0404 C   0  0  0  0  0  0  0  0  0  0  0  0
   -2.0622   17.1202   16.8271 C   0  0  0  0  0  0  0  0  0  0  0  0
   -1.9272   15.7320   16.7277 C   0  0  0  0  0  0  0  0  0  0  0  0
   -2.2964   15.0950   15.5365 N   0  0  0  0  0  0  0  0  0  0  0  0
   -1.6400   15.0126   17.8991 C   0  0  0  0  0  0  0  0  0  0  0  0
   -1.5263   13.2881   17.8735 Cl  0  0  0  0  0  0  0  0  0  0  0  0
   -1.4175   15.6677   19.1156 C   0  0  0  0  0  0  0  0  0  0  0  0
   -2.4912   15.6289   14.7326 H   0  0  0  0  0  0  0  0  0  0  0  0
   -2.3611   14.1132   15.5029 H   0  0  0  0  0  0  0  0  0  0  0  0
   -0.2551   17.4335   21.2132 N   0  0  0  0  0  0  0  0  0  0  0  0
   -1.2966   17.7539   20.4768 C   0  0  0  0  0  0  0  0  0  0  0  0
   -2.1459   18.6824   20.8601 N   0  0  0  0  0  0  0  0  0  0  0  0
   -0.1000   17.8898   22.0716 H   0  0  0  0  0  0  0  0  0  0  0  0
    0.3694   16.7372   20.9060 H   0  0  0  0  0  0  0  0  0  0  0  0
   -2.0099   19.1513   21.7150 H   0  0  0  0  0  0  0  0  0  0  0  0
   -2.9177   18.9083   20.2922 H   0  0  0  0  0  0  0  0  0  0  0  0
 11 12  1  0
 12 13  2  0
 12  1  1  0
  1  2  2  0
  2  3  1  0
  3  4  2  0
  4  5  1  0
  4  6  1  0
  6  7  1  0
  6  8  2  0
  8  1  1  0
 11 14  1  0
 11 15  1  0
 13 16  1  0
 13 17  1  0
  5  9  1  0
  5 10  1  0
M  CHG 1  13   1
M  END
> <minimizedAffinity>
-5.01075

> <CNNscore>
0.7799995542

> <CNNaffinity>
4.1799120903

> <CNN_VS>
3.2603294849

> <CNNaffinity_variance>
0.0950631872

$$$$



 17 17  0  0  0  0  0  0  0  0999 V2000
   -1.4561   14.3999   17.0129 C   0  0  0  0  0  0  0  0  0  0  0  0
   -2.6165   15.1205   16.6978 C   0  0  0  0  0  0  0  0  0  0  0  0
   -2.8815   16.3505   17.3120 C   0  0  0  0  0  0  0  0  0  0  0  0
   -2.0193   16.8745   18.2802 C   0  0  0  0  0  0  0  0  0  0  0  0
   -2.2439   18.1695   18.7635 N   0  0  0  0  0  0  0  0  0  0  0  0
   -0.8383   16.1688   18.5617 C   0  0  0  0  0  0  0  0  0  0  0  0
    0.3127   16.7850   19.6944 Cl  0  0  0  0  0  0  0  0  0  0  0  0
   -0.5663   14.9389   17.9519 C   0  0  0  0  0  0  0  0  0  0  0  0
   -3.0831   18.6368   18.5476 H   0  0  0  0  0  0  0  0  0  0  0  0
   -1.5627   18.6126   19.3193 H   0  0  0  0  0  0  0  0  0  0  0  0
   -1.9819   12.6695   15.4284 N   0  0  0  0  0  0  0  0  0  0  0  0
   -1.1666   13.1166   16.3585 C   0  0  0  0  0  0  0  0  0  0  0  0
   -0.0956   12.4399   16.7125 N   0  0  0  0  0  0  0  0  0  0  0  0
   -1.7974   11.8109   14.9834 H   0  0  0  0  0  0  0  0  0  0  0  0
   -2.7766   13.1934   15.1771 H   0  0  0  0  0  0  0  0  0  0  0  0
    0.1078   11.5790   16.2804 H   0  0  0  0  0  0  0  0  0  0  0  0
    0.5026   12.7944   17.4094 H   0  0  0  0  0  0  0  0  0  0  0  0
 11 12  1  0
 12 13  2  0
 12  1  1  0
  1  2  2  0
  2  3  1  0
  3  4  2  0
  4  5  1  0
  4  6  1  0
  6  7  1  0
  6  8  2  0
  8  1  1  0
 11 14  1  0
 11 15  1  0
 13 16  1  0
 13 17  1  0
  5  9  1  0
  5 10  1  0
M  CHG 1  13   1
M  END
> <minimizedAffinity>
-5.50137

> <CNNscore>
0.7610061169

> <CNNaffinity>
4.3949527740

> <CNN_VS>
3.3445858955

> <CNNaffinity_variance>
0.0442450494

$$$$



 17 17  0  0  0  0  0  0  0  0999 V2000
    6.6753   20.4195   12.9348 C   0  0  0  0  0  0  0  0  0  0  0  0
    6.4322   19.9721   14.2409 C   0  0  0  0  0  0  0  0  0  0  0  0
    5.1716   20.1352   14.8280 C   0  0  0  0  0  0  0  0  0  0  0  0
    4.1351   20.7794   14.1452 C   0  0  0  0  0  0  0  0  0  0  0  0
    2.8534   20.7942   14.7092 N   0  0  0  0  0  0  0  0  0  0  0  0
    4.3719   21.1885   12.8228 C   0  0  0  0  0  0  0  0  0  0  0  0
    3.1210   21.9289   11.8878 Cl  0  0  0  0  0  0  0  0  0  0  0  0
    5.6291   21.0290   12.2291 C   0  0  0  0  0  0  0  0  0  0  0  0
    2.7216   20.5008   15.6396 H   0  0  0  0  0  0  0  0  0  0  0  0
    2.0841   21.0980   14.1752 H   0  0  0  0  0  0  0  0  0  0  0  0
    8.5617   19.0507   12.3441 N   0  0  0  0  0  0  0  0  0  0  0  0
    7.9922   20.2356   12.3096 C   0  0  0  0  0  0  0  0  0  0  0  0
    8.5759   21.2586   11.7240 N   0  0  0  0  0  0  0  0  0  0  0  0
    9.4439   18.9163   11.9283 H   0  0  0  0  0  0  0  0  0  0  0  0
    8.1059   18.2980   12.7857 H   0  0  0  0  0  0  0  0  0  0  0  0
    9.4583   21.1464   11.3020 H   0  0  0  0  0  0  0  0  0  0  0  0
    8.1305   22.1364   11.7077 H   0  0  0  0  0  0  0  0  0  0  0  0
 11 12  1  0
 12 13  2  0
 12  1  1  0
  1  2  2  0
  2  3  1  0
  3  4  2  0
  4  5  1  0
  4  6  1  0
  6  7  1  0
  6  8  2  0
  8  1  1  0
 11 14  1  0
 11 15  1  0
 13 16  1  0
 13 17  1  0
  5  9  1  0
  5 10  1  0
M  CHG 1  13   1
M  END
> <minimizedAffinity>
-4.99308

> <CNNscore>
0.7290233970

> <CNNaffinity>
3.3184080124

> <CNN_VS>
2.4191970825

> <CNNaffinity_variance>
0.6258956790

$$$$



 17 17  0  0  0  0  0  0  0  0999 V2000
   -1.9470   15.8137   17.6002 C   0  0  0  0  0  0  0  0  0  0  0  0
   -1.0817   15.1926   18.5116 C   0  0  0  0  0  0  0  0  0  0  0  0
   -0.4747   13.9700   18.1997 C   0  0  0  0  0  0  0  0  0  0  0  0
   -0.7424   13.3185   16.9917 C   0  0  0  0  0  0  0  0  0  0  0  0
   -0.0076   12.1743   16.6571 N   0  0  0  0  0  0  0  0  0  0  0  0
   -1.5774   13.9648   16.0658 C   0  0  0  0  0  0  0  0  0  0  0  0
   -1.9013   13.2582   14.5220 Cl  0  0  0  0  0  0  0  0  0  0  0  0
   -2.1877   15.1868   16.3701 C   0  0  0  0  0  0  0  0  0  0  0  0
    0.5688   11.7452   17.3301 H   0  0  0  0  0  0  0  0  0  0  0  0
   -0.0674   11.7990   15.7489 H   0  0  0  0  0  0  0  0  0  0  0  0
   -3.4001   17.6491   17.0519 N   0  0  0  0  0  0  0  0  0  0  0  0
   -2.5732   17.1044   17.9174 C   0  0  0  0  0  0  0  0  0  0  0  0
   -2.2978   17.6901   19.0625 N   0  0  0  0  0  0  0  0  0  0  0  0
   -3.8252   18.5138   17.2542 H   0  0  0  0  0  0  0  0  0  0  0  0
   -3.5940   17.1923   16.2016 H   0  0  0  0  0  0  0  0  0  0  0  0
   -2.7118   18.5552   19.2851 H   0  0  0  0  0  0  0  0  0  0  0  0
   -1.6777   17.2634   19.6971 H   0  0  0  0  0  0  0  0  0  0  0  0
 11 12  1  0
 12 13  2  0
 12  1  1  0
  1  2  2  0
  2  3  1  0
  3  4  2  0
  4  5  1  0
  4  6  1  0
  6  7  1  0
  6  8  2  0
  8  1  1  0
 11 14  1  0
 11 15  1  0
 13 16  1  0
 13 17  1  0
  5  9  1  0
  5 10  1  0
M  CHG 1  13   1
M  END
> <minimizedAffinity>
-5.66679

> <CNNscore>
0.6990991831

> <CNNaffinity>
4.5402350426

> <CNN_VS>
3.1740746498

> <CNNaffinity_variance>
0.2132163197

$$$$
