


 21 21  0  0  0  0  0  0  0  0999 V2000
   45.7494   13.4161    2.1691 O   0  0  0  0  0  0  0  0  0  0  0  0
   45.3794   14.7061    2.3575 C   0  0  0  0  0  0  0  0  0  0  0  0
   44.7466   15.5267    1.3832 C   0  0  0  0  0  0  0  0  0  0  0  0
   44.2556   14.9162   -0.3367 Br  0  0  0  0  0  0  0  0  0  0  0  0
   44.5391   16.8091    1.8226 C   0  0  0  0  0  0  0  0  0  0  0  0
   45.1300   17.0274    3.4110 S   0  0  0  0  0  0  0  0  0  0  0  0
   45.6926   15.4006    3.5133 C   0  0  0  0  0  0  0  0  0  0  0  0
   46.3641   14.9038    4.6980 C   0  0  0  0  0  0  0  0  0  0  0  0
   46.7229   13.7604    4.9383 O   0  0  0  0  0  0  0  0  0  0  0  0
   46.5820   15.8644    5.6264 O   0  0  0  0  0  0  0  0  0  0  0  0
   46.3137   16.7466    5.4596 H   0  0  0  0  0  0  0  0  0  0  0  0
   44.7183   12.6585    1.5196 C   0  0  0  0  0  0  0  0  0  0  0  0
   45.1752   11.1981    1.4888 C   0  0  0  0  0  0  0  0  0  0  0  0
   45.6294   10.6439    0.0976 C   0  0  0  0  0  0  0  0  0  0  0  0
   45.8527    9.1244    0.2188 C   0  0  0  0  0  0  0  0  0  0  0  0
   46.9776   11.3113   -0.2173 C   0  0  0  0  0  0  0  0  0  0  0  0
   44.5233   10.9867   -0.9546 C   0  0  0  0  0  0  0  0  0  0  0  0
   43.0301   10.5874   -3.0298 C   0  0  0  0  0  0  0  0  0  0  0  0
   43.9736    9.9632   -1.9979 C   0  0  0  0  0  0  0  0  0  0  0  0
   45.1977    9.4053   -2.7648 C   0  0  0  0  0  0  0  0  0  0  0  0
   43.2850    8.7603   -1.3322 C   0  0  0  0  0  0  0  0  0  0  0  0
 18 19  1  0
 19 20  1  0
 19 21  1  0
 19 17  1  0
 17 14  1  0
 14 15  1  0
 14 16  1  0
 14 13  1  0
 13 12  1  0
 12  1  1  0
  1  2  1  0
  2  3  1  0
  3  4  1  0
  3  5  2  0
  5  6  1  0
  6  7  1  0
  7  8  1  0
  8  9  2  0
  8 10  1  0
  7  2  2  0
 10 11  1  0
M  END
> <minimizedAffinity>
-5.82086

> <CNNscore>
0.5618565679

> <CNNaffinity>
5.2510604858

> <CNN_VS>
2.9503428936

> <CNNaffinity_variance>
0.1888501197

$$$$



 21 21  0  0  0  0  0  0  0  0999 V2000
   44.1603   15.1216    1.6234 O   0  0  0  0  0  0  0  0  0  0  0  0
   45.2229   14.7139    2.3590 C   0  0  0  0  0  0  0  0  0  0  0  0
   45.6821   13.3715    2.4595 C   0  0  0  0  0  0  0  0  0  0  0  0
   44.9076   11.9294    1.5150 Br  0  0  0  0  0  0  0  0  0  0  0  0
   46.7405   13.2352    3.3208 C   0  0  0  0  0  0  0  0  0  0  0  0
   47.1673   14.7320    4.0261 S   0  0  0  0  0  0  0  0  0  0  0  0
   45.9137   15.5748    3.1945 C   0  0  0  0  0  0  0  0  0  0  0  0
   45.7031   16.9967    3.3812 C   0  0  0  0  0  0  0  0  0  0  0  0
   46.4485   17.8064    3.9128 O   0  0  0  0  0  0  0  0  0  0  0  0
   44.5113   17.4238    2.9025 O   0  0  0  0  0  0  0  0  0  0  0  0
   43.9269   16.8174    2.4917 H   0  0  0  0  0  0  0  0  0  0  0  0
   44.3960   14.9602    0.2172 C   0  0  0  0  0  0  0  0  0  0  0  0
   44.0393   16.2851   -0.4608 C   0  0  0  0  0  0  0  0  0  0  0  0
   44.1564   16.3182   -2.0210 C   0  0  0  0  0  0  0  0  0  0  0  0
   42.7483   16.1640   -2.6267 C   0  0  0  0  0  0  0  0  0  0  0  0
   44.9958   15.0941   -2.4201 C   0  0  0  0  0  0  0  0  0  0  0  0
   44.8230   17.6715   -2.4366 C   0  0  0  0  0  0  0  0  0  0  0  0
   46.2821   18.7781   -4.2646 C   0  0  0  0  0  0  0  0  0  0  0  0
   44.9212   18.1708   -3.9128 C   0  0  0  0  0  0  0  0  0  0  0  0
   44.7170   16.9316   -4.8186 C   0  0  0  0  0  0  0  0  0  0  0  0
   43.8054   19.1666   -4.2702 C   0  0  0  0  0  0  0  0  0  0  0  0
 18 19  1  0
 19 20  1  0
 19 21  1  0
 19 17  1  0
 17 14  1  0
 14 15  1  0
 14 16  1  0
 14 13  1  0
 13 12  1  0
 12  1  1  0
  1  2  1  0
  2  3  1  0
  3  4  1  0
  3  5  2  0
  5  6  1  0
  6  7  1  0
  7  8  1  0
  8  9  2  0
  8 10  1  0
  7  2  2  0
 10 11  1  0
M  END
> <minimizedAffinity>
-6.14981

> <CNNscore>
0.5566658974

> <CNNaffinity>
5.4482302666

> <CNN_VS>
3.0328440666

> <CNNaffinity_variance>
0.0218131468

$$$$



 21 21  0  0  0  0  0  0  0  0999 V2000
   44.0134   15.2655    2.0032 O   0  0  0  0  0  0  0  0  0  0  0  0
   45.1006   14.7399    2.6183 C   0  0  0  0  0  0  0  0  0  0  0  0
   45.6100   13.4297    2.4017 C   0  0  0  0  0  0  0  0  0  0  0  0
   44.8754   12.2170    1.1521 Br  0  0  0  0  0  0  0  0  0  0  0  0
   46.6848   13.1386    3.2021 C   0  0  0  0  0  0  0  0  0  0  0  0
   47.0665   14.4464    4.2336 S   0  0  0  0  0  0  0  0  0  0  0  0
   45.7712   15.4097    3.6273 C   0  0  0  0  0  0  0  0  0  0  0  0
   45.5114   16.7402    4.1404 C   0  0  0  0  0  0  0  0  0  0  0  0
   46.2134   17.7361    4.0446 O   0  0  0  0  0  0  0  0  0  0  0  0
   44.3404   16.8301    4.8131 O   0  0  0  0  0  0  0  0  0  0  0  0
   43.7891   16.0770    4.8968 H   0  0  0  0  0  0  0  0  0  0  0  0
   44.3818   16.0825    0.8827 C   0  0  0  0  0  0  0  0  0  0  0  0
   44.1300   15.2610   -0.3839 C   0  0  0  0  0  0  0  0  0  0  0  0
   44.2148   16.0365   -1.7405 C   0  0  0  0  0  0  0  0  0  0  0  0
   45.1281   15.2530   -2.7026 C   0  0  0  0  0  0  0  0  0  0  0  0
   44.8793   17.3869   -1.4287 C   0  0  0  0  0  0  0  0  0  0  0  0
   42.7661   16.1915   -2.3111 C   0  0  0  0  0  0  0  0  0  0  0  0
   42.7580   15.6016   -4.8304 C   0  0  0  0  0  0  0  0  0  0  0  0
   42.4547   16.6610   -3.7673 C   0  0  0  0  0  0  0  0  0  0  0  0
   40.9360   16.9575   -3.8265 C   0  0  0  0  0  0  0  0  0  0  0  0
   43.1739   17.9717   -4.1271 C   0  0  0  0  0  0  0  0  0  0  0  0
 18 19  1  0
 19 20  1  0
 19 21  1  0
 19 17  1  0
 17 14  1  0
 14 15  1  0
 14 16  1  0
 14 13  1  0
 13 12  1  0
 12  1  1  0
  1  2  1  0
  2  3  1  0
  3  4  1  0
  3  5  2  0
  5  6  1  0
  6  7  1  0
  7  8  1  0
  8  9  2  0
  8 10  1  0
  7  2  2  0
 10 11  1  0
M  END
> <minimizedAffinity>
-6.33870

> <CNNscore>
0.5377479196

> <CNNaffinity>
5.2177882195

> <CNN_VS>
2.8058547974

> <CNNaffinity_variance>
0.0486257114

$$$$



 21 21  0  0  0  0  0  0  0  0999 V2000
   44.0622   14.8431    1.3539 O   0  0  0  0  0  0  0  0  0  0  0  0
   45.0448   14.3955    2.1728 C   0  0  0  0  0  0  0  0  0  0  0  0
   45.6685   13.1204    2.0818 C   0  0  0  0  0  0  0  0  0  0  0  0
   45.2622   11.8524    0.7407 Br  0  0  0  0  0  0  0  0  0  0  0  0
   46.5891   12.9074    3.0757 C   0  0  0  0  0  0  0  0  0  0  0  0
   46.6848   14.2451    4.1345 S   0  0  0  0  0  0  0  0  0  0  0  0
   45.4686   15.1158    3.2764 C   0  0  0  0  0  0  0  0  0  0  0  0
   45.0322   16.4299    3.7050 C   0  0  0  0  0  0  0  0  0  0  0  0
   45.1174   17.4880    3.0992 O   0  0  0  0  0  0  0  0  0  0  0  0
   44.4838   16.4293    4.9425 O   0  0  0  0  0  0  0  0  0  0  0  0
   44.4102   15.6277    5.4220 H   0  0  0  0  0  0  0  0  0  0  0  0
   44.5799   15.2545    0.0805 C   0  0  0  0  0  0  0  0  0  0  0  0
   43.4909   16.0783   -0.6108 C   0  0  0  0  0  0  0  0  0  0  0  0
   43.2436   15.7677   -2.1245 C   0  0  0  0  0  0  0  0  0  0  0  0
   43.8479   16.9060   -2.9687 C   0  0  0  0  0  0  0  0  0  0  0  0
   41.7198   15.7679   -2.3251 C   0  0  0  0  0  0  0  0  0  0  0  0
   43.8985   14.3862   -2.4576 C   0  0  0  0  0  0  0  0  0  0  0  0
   44.8796   12.8850   -4.3228 C   0  0  0  0  0  0  0  0  0  0  0  0
   43.6391   13.6021   -3.7827 C   0  0  0  0  0  0  0  0  0  0  0  0
   42.5793   12.5197   -3.4618 C   0  0  0  0  0  0  0  0  0  0  0  0
   43.0398   14.4931   -4.8833 C   0  0  0  0  0  0  0  0  0  0  0  0
 18 19  1  0
 19 20  1  0
 19 21  1  0
 19 17  1  0
 17 14  1  0
 14 15  1  0
 14 16  1  0
 14 13  1  0
 13 12  1  0
 12  1  1  0
  1  2  1  0
  2  3  1  0
  3  4  1  0
  3  5  2  0
  5  6  1  0
  6  7  1  0
  7  8  1  0
  8  9  2  0
  8 10  1  0
  7  2  2  0
 10 11  1  0
M  END
> <minimizedAffinity>
-5.38521

> <CNNscore>
0.4938991666

> <CNNaffinity>
5.3269467354

> <CNN_VS>
2.6309745312

> <CNNaffinity_variance>
0.1489643604

$$$$



 21 21  0  0  0  0  0  0  0  0999 V2000
   50.9507    8.4242    2.6114 O   0  0  0  0  0  0  0  0  0  0  0  0
   50.4555    7.2943    3.1723 C   0  0  0  0  0  0  0  0  0  0  0  0
   49.1641    6.7539    2.9210 C   0  0  0  0  0  0  0  0  0  0  0  0
   47.9383    7.5050    1.6943 Br  0  0  0  0  0  0  0  0  0  0  0  0
   48.9014    5.6354    3.6698 C   0  0  0  0  0  0  0  0  0  0  0  0
   50.2126    5.2494    4.6954 S   0  0  0  0  0  0  0  0  0  0  0  0
   51.1386    6.6006    4.1565 C   0  0  0  0  0  0  0  0  0  0  0  0
   52.4560    6.8791    4.6930 C   0  0  0  0  0  0  0  0  0  0  0  0
   53.3192    6.0806    5.0261 O   0  0  0  0  0  0  0  0  0  0  0  0
   52.7016    8.2025    4.8360 O   0  0  0  0  0  0  0  0  0  0  0  0
   52.0516    8.8294    4.5859 H   0  0  0  0  0  0  0  0  0  0  0  0
   51.5896    8.1560    1.3549 C   0  0  0  0  0  0  0  0  0  0  0  0
   52.5610    9.3067    1.0815 C   0  0  0  0  0  0  0  0  0  0  0  0
   52.2288   10.2161   -0.1479 C   0  0  0  0  0  0  0  0  0  0  0  0
   50.7138   10.1478   -0.4194 C   0  0  0  0  0  0  0  0  0  0  0  0
   52.9676    9.6082   -1.3507 C   0  0  0  0  0  0  0  0  0  0  0  0
   52.6960   11.6737    0.1767 C   0  0  0  0  0  0  0  0  0  0  0  0
   54.0064   12.4165   -1.9272 C   0  0  0  0  0  0  0  0  0  0  0  0
   52.9197   12.7733   -0.9092 C   0  0  0  0  0  0  0  0  0  0  0  0
   51.5861   12.9152   -1.6833 C   0  0  0  0  0  0  0  0  0  0  0  0
   53.2217   14.1504   -0.2954 C   0  0  0  0  0  0  0  0  0  0  0  0
 18 19  1  0
 19 20  1  0
 19 21  1  0
 19 17  1  0
 17 14  1  0
 14 15  1  0
 14 16  1  0
 14 13  1  0
 13 12  1  0
 12  1  1  0
  1  2  1  0
  2  3  1  0
  3  4  1  0
  3  5  2  0
  5  6  1  0
  6  7  1  0
  7  8  1  0
  8  9  2  0
  8 10  1  0
  7  2  2  0
 10 11  1  0
M  END
> <minimizedAffinity>
-4.79135

> <CNNscore>
0.4279892147

> <CNNaffinity>
4.6150574684

> <CNN_VS>
1.9751948118

> <CNNaffinity_variance>
0.2908998132

$$$$



 21 21  0  0  0  0  0  0  0  0999 V2000
   52.7999    8.4067    1.7068 O   0  0  0  0  0  0  0  0  0  0  0  0
   51.6663    7.9054    2.2547 C   0  0  0  0  0  0  0  0  0  0  0  0
   50.4218    7.7693    1.5798 C   0  0  0  0  0  0  0  0  0  0  0  0
   50.1660    8.2146   -0.2390 Br  0  0  0  0  0  0  0  0  0  0  0  0
   49.4268    7.2887    2.3920 C   0  0  0  0  0  0  0  0  0  0  0  0
   49.9941    7.0207    3.9814 S   0  0  0  0  0  0  0  0  0  0  0  0
   51.5818    7.5722    3.5957 C   0  0  0  0  0  0  0  0  0  0  0  0
   52.6316    7.6184    4.5941 C   0  0  0  0  0  0  0  0  0  0  0  0
   53.1252    8.6024    5.1250 O   0  0  0  0  0  0  0  0  0  0  0  0
   53.0965    6.3929    4.9320 O   0  0  0  0  0  0  0  0  0  0  0  0
   52.7302    5.6271    4.5353 H   0  0  0  0  0  0  0  0  0  0  0  0
   52.8531    9.8365    1.8143 C   0  0  0  0  0  0  0  0  0  0  0  0
   54.2865   10.2658    1.4929 C   0  0  0  0  0  0  0  0  0  0  0  0
   54.4858   11.0797    0.1712 C   0  0  0  0  0  0  0  0  0  0  0  0
   54.6877   10.0915   -0.9933 C   0  0  0  0  0  0  0  0  0  0  0  0
   55.7782   11.8918    0.3513 C   0  0  0  0  0  0  0  0  0  0  0  0
   53.2273   11.9839   -0.0453 C   0  0  0  0  0  0  0  0  0  0  0  0
   51.7582   13.2025   -1.7923 C   0  0  0  0  0  0  0  0  0  0  0  0
   53.1381   13.0966   -1.1371 C   0  0  0  0  0  0  0  0  0  0  0  0
   53.4201   14.4435   -0.4270 C   0  0  0  0  0  0  0  0  0  0  0  0
   54.2134   12.9382   -2.2247 C   0  0  0  0  0  0  0  0  0  0  0  0
 18 19  1  0
 19 20  1  0
 19 21  1  0
 19 17  1  0
 17 14  1  0
 14 15  1  0
 14 16  1  0
 14 13  1  0
 13 12  1  0
 12  1  1  0
  1  2  1  0
  2  3  1  0
  3  4  1  0
  3  5  2  0
  5  6  1  0
  6  7  1  0
  7  8  1  0
  8  9  2  0
  8 10  1  0
  7  2  2  0
 10 11  1  0
M  END
> <minimizedAffinity>
-4.80848

> <CNNscore>
0.4004717469

> <CNNaffinity>
4.5957169533

> <CNN_VS>
1.8404548168

> <CNNaffinity_variance>
0.1756272912

$$$$



 21 21  0  0  0  0  0  0  0  0999 V2000
   50.9731    8.3942    2.6108 O   0  0  0  0  0  0  0  0  0  0  0  0
   50.4397    7.2951    3.1973 C   0  0  0  0  0  0  0  0  0  0  0  0
   49.1238    6.8043    2.9722 C   0  0  0  0  0  0  0  0  0  0  0  0
   47.9131    7.5852    1.7491 Br  0  0  0  0  0  0  0  0  0  0  0  0
   48.8259    5.7101    3.7432 C   0  0  0  0  0  0  0  0  0  0  0  0
   50.1341    5.2872    4.7579 S   0  0  0  0  0  0  0  0  0  0  0  0
   51.1072    6.5900    4.1841 C   0  0  0  0  0  0  0  0  0  0  0  0
   52.4423    6.8227    4.6984 C   0  0  0  0  0  0  0  0  0  0  0  0
   53.2861    5.9948    5.0088 O   0  0  0  0  0  0  0  0  0  0  0  0
   52.7316    8.1365    4.8480 O   0  0  0  0  0  0  0  0  0  0  0  0
   52.0970    8.7854    4.6153 H   0  0  0  0  0  0  0  0  0  0  0  0
   51.4845    8.1013    1.3026 C   0  0  0  0  0  0  0  0  0  0  0  0
   52.0235    9.4096    0.7194 C   0  0  0  0  0  0  0  0  0  0  0  0
   51.4393    9.8428   -0.6662 C   0  0  0  0  0  0  0  0  0  0  0  0
   52.0535   11.1995   -1.0604 C   0  0  0  0  0  0  0  0  0  0  0  0
   49.9280   10.0329   -0.4607 C   0  0  0  0  0  0  0  0  0  0  0  0
   51.7729    8.7278   -1.7121 C   0  0  0  0  0  0  0  0  0  0  0  0
   52.9843    9.6402   -3.8086 C   0  0  0  0  0  0  0  0  0  0  0  0
   51.7335    8.9503   -3.2572 C   0  0  0  0  0  0  0  0  0  0  0  0
   51.6506    7.5480   -3.9089 C   0  0  0  0  0  0  0  0  0  0  0  0
   50.4806    9.7200   -3.7068 C   0  0  0  0  0  0  0  0  0  0  0  0
 18 19  1  0
 19 20  1  0
 19 21  1  0
 19 17  1  0
 17 14  1  0
 14 15  1  0
 14 16  1  0
 14 13  1  0
 13 12  1  0
 12  1  1  0
  1  2  1  0
  2  3  1  0
  3  4  1  0
  3  5  2  0
  5  6  1  0
  6  7  1  0
  7  8  1  0
  8  9  2  0
  8 10  1  0
  7  2  2  0
 10 11  1  0
M  END
> <minimizedAffinity>
-3.97590

> <CNNscore>
0.3650964499

> <CNNaffinity>
4.6179432869

> <CNN_VS>
1.6859947443

> <CNNaffinity_variance>
0.3233197331

$$$$



 21 21  0  0  0  0  0  0  0  0999 V2000
   50.0743    7.8688    2.9006 O   0  0  0  0  0  0  0  0  0  0  0  0
   50.6899    6.8505    3.5491 C   0  0  0  0  0  0  0  0  0  0  0  0
   50.1390    5.5542    3.7469 C   0  0  0  0  0  0  0  0  0  0  0  0
   48.4583    5.0191    3.0682 Br  0  0  0  0  0  0  0  0  0  0  0  0
   50.9539    4.7383    4.4891 C   0  0  0  0  0  0  0  0  0  0  0  0
   52.3806    5.5488    4.9660 S   0  0  0  0  0  0  0  0  0  0  0  0
   51.9027    7.0158    4.1958 C   0  0  0  0  0  0  0  0  0  0  0  0
   52.7336    8.2025    4.2434 C   0  0  0  0  0  0  0  0  0  0  0  0
   53.4317    8.5982    5.1652 O   0  0  0  0  0  0  0  0  0  0  0  0
   52.6798    8.9337    3.1056 O   0  0  0  0  0  0  0  0  0  0  0  0
   52.1500    8.6460    2.3884 H   0  0  0  0  0  0  0  0  0  0  0  0
   50.0386    7.6497    1.4830 C   0  0  0  0  0  0  0  0  0  0  0  0
   49.7756    9.0029    0.8181 C   0  0  0  0  0  0  0  0  0  0  0  0
   48.2781    9.3527    0.5284 C   0  0  0  0  0  0  0  0  0  0  0  0
   47.5398    9.5191    1.8703 C   0  0  0  0  0  0  0  0  0  0  0  0
   47.6835    8.1420   -0.2085 C   0  0  0  0  0  0  0  0  0  0  0  0
   48.2343   10.6631   -0.3256 C   0  0  0  0  0  0  0  0  0  0  0  0
   49.7261    9.8073   -2.2588 C   0  0  0  0  0  0  0  0  0  0  0  0
   48.5608   10.7134   -1.8517 C   0  0  0  0  0  0  0  0  0  0  0  0
   47.2992   10.2109   -2.5958 C   0  0  0  0  0  0  0  0  0  0  0  0
   48.8242   12.1448   -2.3479 C   0  0  0  0  0  0  0  0  0  0  0  0
 18 19  1  0
 19 20  1  0
 19 21  1  0
 19 17  1  0
 17 14  1  0
 14 15  1  0
 14 16  1  0
 14 13  1  0
 13 12  1  0
 12  1  1  0
  1  2  1  0
  2  3  1  0
  3  4  1  0
  3  5  2  0
  5  6  1  0
  6  7  1  0
  7  8  1  0
  8  9  2  0
  8 10  1  0
  7  2  2  0
 10 11  1  0
M  END
> <minimizedAffinity>
-4.10006

> <CNNscore>
0.3496556282

> <CNNaffinity>
4.6845498085

> <CNN_VS>
1.6379791498

> <CNNaffinity_variance>
0.0102402661

$$$$



 21 21  0  0  0  0  0  0  0  0999 V2000
   49.6542    6.2845    3.6466 O   0  0  0  0  0  0  0  0  0  0  0  0
   50.3572    5.1655    3.3465 C   0  0  0  0  0  0  0  0  0  0  0  0
   49.9421    4.1588    2.4315 C   0  0  0  0  0  0  0  0  0  0  0  0
   48.3460    4.2571    1.4242 Br  0  0  0  0  0  0  0  0  0  0  0  0
   50.8193    3.1068    2.3652 C   0  0  0  0  0  0  0  0  0  0  0  0
   52.1389    3.3271    3.4282 S   0  0  0  0  0  0  0  0  0  0  0  0
   51.5283    4.8329    4.0056 C   0  0  0  0  0  0  0  0  0  0  0  0
   52.2270    5.5946    5.0218 C   0  0  0  0  0  0  0  0  0  0  0  0
   52.9450    6.5722    4.8716 O   0  0  0  0  0  0  0  0  0  0  0  0
   52.0378    5.1103    6.2715 O   0  0  0  0  0  0  0  0  0  0  0  0
   51.4907    4.3616    6.4060 H   0  0  0  0  0  0  0  0  0  0  0  0
   49.7486    7.2653    2.6035 C   0  0  0  0  0  0  0  0  0  0  0  0
   48.5052    8.1527    2.6971 C   0  0  0  0  0  0  0  0  0  0  0  0
   48.0698    8.8760    1.3794 C   0  0  0  0  0  0  0  0  0  0  0  0
   47.2560    7.8905    0.5192 C   0  0  0  0  0  0  0  0  0  0  0  0
   49.3638    9.2260    0.6276 C   0  0  0  0  0  0  0  0  0  0  0  0
   47.2322   10.1402    1.7647 C   0  0  0  0  0  0  0  0  0  0  0  0
   45.5367   12.0623    1.4096 C   0  0  0  0  0  0  0  0  0  0  0  0
   46.2116   10.8284    0.8041 C   0  0  0  0  0  0  0  0  0  0  0  0
   47.0113   11.2976   -0.4362 C   0  0  0  0  0  0  0  0  0  0  0  0
   45.1381    9.8533    0.2932 C   0  0  0  0  0  0  0  0  0  0  0  0
 18 19  1  0
 19 20  1  0
 19 21  1  0
 19 17  1  0
 17 14  1  0
 14 15  1  0
 14 16  1  0
 14 13  1  0
 13 12  1  0
 12  1  1  0
  1  2  1  0
  2  3  1  0
  3  4  1  0
  3  5  2  0
  5  6  1  0
  6  7  1  0
  7  8  1  0
  8  9  2  0
  8 10  1  0
  7  2  2  0
 10 11  1  0
M  END
> <minimizedAffinity>
-4.75901

> <CNNscore>
0.3453900218

> <CNNaffinity>
4.5273089409

> <CNN_VS>
1.5636873245

> <CNNaffinity_variance>
0.1414418221

$$$$
