


 38 41  0  0  0  0  0  0  0  0999 V2000
   20.5303  -30.6577    9.9084 C   0  0  0  0  0  0  0  0  0  0  0  0
   20.1706  -29.5737   10.6172 C   0  0  0  0  0  0  0  0  0  0  0  0
   20.0268  -29.4481   12.1111 C   0  0  0  0  0  0  0  0  0  0  0  0
   18.6246  -29.1835   12.3557 O   0  0  0  0  0  0  0  0  0  0  0  0
   18.0892  -30.2892   13.1045 C   0  0  0  0  0  0  0  0  0  0  0  0
   19.1046  -31.4320   13.0516 C   0  0  0  0  0  0  0  0  0  0  0  0
   19.0832  -32.2606   14.2201 O   0  0  0  0  0  0  0  0  0  0  0  0
   20.4028  -30.6489   12.9884 C   0  0  0  0  0  0  0  0  0  0  0  0
   20.7542  -30.2081   14.3132 O   0  0  0  0  0  0  0  0  0  0  0  0
   19.2370  -31.7143   15.0067 H   0  0  0  0  0  0  0  0  0  0  0  0
   20.0201  -29.6978   14.6895 H   0  0  0  0  0  0  0  0  0  0  0  0
   16.7743  -30.6192   12.5921 N   0  0  0  0  0  0  0  0  0  0  0  0
   16.5325  -31.2151   11.3800 C   0  0  0  0  0  0  0  0  0  0  0  0
   15.2475  -31.3889   11.1590 N   0  0  0  0  0  0  0  0  0  0  0  0
   14.6314  -30.8983   12.2831 C   0  0  0  0  0  0  0  0  0  0  0  0
   13.2975  -30.8060   12.6588 C   0  0  0  0  0  0  0  0  0  0  0  0
   12.9786  -30.2531   13.8585 N   0  0  0  0  0  0  0  0  0  0  0  0
   13.9888  -29.8089   14.6375 C   0  0  0  0  0  0  0  0  0  0  0  0
   15.3104  -29.8282   14.3760 N   0  0  0  0  0  0  0  0  0  0  0  0
   15.5618  -30.4017   13.1853 C   0  0  0  0  0  0  0  0  0  0  0  0
   20.5963  -30.6991    8.4136 C   0  0  0  0  0  0  0  0  0  0  0  0
   22.3256  -31.1448    6.2348 O   0  0  0  0  0  0  0  0  0  0  0  0
   22.4400  -30.1168    6.8917 C   0  0  0  0  0  0  0  0  0  0  0  0
   21.6909  -29.8569    8.0118 N   0  0  0  0  0  0  0  0  0  0  0  0
   21.9100  -29.0680    8.5584 H   0  0  0  0  0  0  0  0  0  0  0  0
   23.4389  -29.0817    6.4882 C   0  0  0  0  0  0  0  0  0  0  0  0
   24.4594  -29.4887    5.6084 C   0  0  0  0  0  0  0  0  0  0  0  0
   25.4412  -28.5736    5.2020 C   0  0  0  0  0  0  0  0  0  0  0  0
   25.4280  -27.2471    5.6552 C   0  0  0  0  0  0  0  0  0  0  0  0
   24.4054  -26.8497    6.5065 C   0  0  0  0  0  0  0  0  0  0  0  0
   24.3251  -25.5673    6.9836 O   0  0  0  0  0  0  0  0  0  0  0  0
   23.4198  -27.7502    6.9240 C   0  0  0  0  0  0  0  0  0  0  0  0
   22.4542  -27.2735    7.7762 O   0  0  0  0  0  0  0  0  0  0  0  0
   24.9650  -24.9318    6.7292 H   0  0  0  0  0  0  0  0  0  0  0  0
   22.4706  -26.3770    8.0483 H   0  0  0  0  0  0  0  0  0  0  0  0
   26.5006  -29.0117    4.2858 N   0  0  0  0  0  0  0  0  0  0  0  0
   27.1092  -28.1437    3.6468 O   0  0  0  0  0  0  0  0  0  0  0  0
   26.7223  -30.2274    4.2165 O   0  0  0  0  0  0  0  0  0  0  0  0
 22 23  2  0
 23 24  1  0
 24 21  1  0
 21  1  1  0
  1  2  2  0
  3  2  1  0
  3  4  1  0
  4  5  1  0
  5 12  1  0
 12 13  1  0
 13 14  2  0
 14 15  1  0
 15 16  2  0
 16 17  1  0
 17 18  2  0
 18 19  1  0
 19 20  2  0
  5  6  1  0
  6  7  1  0
  6  8  1  0
  8  9  1  0
 23 26  1  0
 26 27  2  0
 27 28  1  0
 28 36  1  0
 36 37  2  0
 36 38  1  0
 28 29  2  0
 29 30  1  0
 30 31  1  0
 30 32  2  0
 32 33  1  0
  8  3  1  0
 32 26  1  0
 20 12  1  0
 20 15  1  0
 24 25  1  0
  7 10  1  0
  9 11  1  0
 31 34  1  0
 33 35  1  0
M  CHG 1  36   1
M  CHG 1  38  -1
M  END
> <minimizedAffinity>
-11.21942

> <CNNscore>
0.9514344335

> <CNNaffinity>
7.1196002960

> <CNN_VS>
6.7738327980

> <CNNaffinity_variance>
0.0285081025

$$$$



 38 41  0  0  0  0  0  0  0  0999 V2000
   20.0138  -31.4642   12.7455 C   0  0  0  0  0  0  0  0  0  0  0  0
   20.6254  -32.0004   13.8157 C   0  0  0  0  0  0  0  0  0  0  0  0
   21.0805  -33.4232   14.0078 C   0  0  0  0  0  0  0  0  0  0  0  0
   20.8939  -34.0773   12.7299 O   0  0  0  0  0  0  0  0  0  0  0  0
   22.1883  -34.4720   12.2411 C   0  0  0  0  0  0  0  0  0  0  0  0
   23.2488  -33.7600   13.0826 C   0  0  0  0  0  0  0  0  0  0  0  0
   24.4623  -34.5100   13.2139 O   0  0  0  0  0  0  0  0  0  0  0  0
   22.5358  -33.6791   14.4197 C   0  0  0  0  0  0  0  0  0  0  0  0
   22.6479  -34.9468   15.0929 O   0  0  0  0  0  0  0  0  0  0  0  0
   24.2650  -35.3806   13.5933 H   0  0  0  0  0  0  0  0  0  0  0  0
   22.3028  -35.6490   14.5196 H   0  0  0  0  0  0  0  0  0  0  0  0
   22.2614  -34.2064   10.8182 N   0  0  0  0  0  0  0  0  0  0  0  0
   22.7238  -35.0927    9.8784 C   0  0  0  0  0  0  0  0  0  0  0  0
   22.6928  -34.5900    8.6632 N   0  0  0  0  0  0  0  0  0  0  0  0
   22.1736  -33.3292    8.8211 C   0  0  0  0  0  0  0  0  0  0  0  0
   21.8869  -32.3117    7.9204 C   0  0  0  0  0  0  0  0  0  0  0  0
   21.3722  -31.1403    8.3782 N   0  0  0  0  0  0  0  0  0  0  0  0
   21.1655  -31.0182    9.7074 C   0  0  0  0  0  0  0  0  0  0  0  0
   21.4183  -31.9218   10.6745 N   0  0  0  0  0  0  0  0  0  0  0  0
   21.9085  -33.0627   10.1572 C   0  0  0  0  0  0  0  0  0  0  0  0
   19.5514  -30.0426   12.6679 C   0  0  0  0  0  0  0  0  0  0  0  0
   17.5059  -31.0803   11.0324 O   0  0  0  0  0  0  0  0  0  0  0  0
   17.2216  -30.6279   12.1350 C   0  0  0  0  0  0  0  0  0  0  0  0
   18.1434  -30.0357   12.9615 N   0  0  0  0  0  0  0  0  0  0  0  0
   17.8306  -29.5915   13.7824 H   0  0  0  0  0  0  0  0  0  0  0  0
   15.8137  -30.6988   12.6295 C   0  0  0  0  0  0  0  0  0  0  0  0
   14.8905  -31.3966   11.8282 C   0  0  0  0  0  0  0  0  0  0  0  0
   13.5479  -31.4878   12.2226 C   0  0  0  0  0  0  0  0  0  0  0  0
   13.0995  -30.8951   13.4112 C   0  0  0  0  0  0  0  0  0  0  0  0
   14.0219  -30.2265   14.2053 C   0  0  0  0  0  0  0  0  0  0  0  0
   13.6565  -29.6292   15.3836 O   0  0  0  0  0  0  0  0  0  0  0  0
   15.3642  -30.1237   13.8255 C   0  0  0  0  0  0  0  0  0  0  0  0
   16.2033  -29.4335   14.6655 O   0  0  0  0  0  0  0  0  0  0  0  0
   12.7673  -29.6739   15.6755 H   0  0  0  0  0  0  0  0  0  0  0  0
   15.8701  -29.0610   15.4582 H   0  0  0  0  0  0  0  0  0  0  0  0
   12.5956  -32.2169   11.3769 N   0  0  0  0  0  0  0  0  0  0  0  0
   12.0433  -33.2162   11.8551 O   0  0  0  0  0  0  0  0  0  0  0  0
   12.4005  -31.7783   10.2360 O   0  0  0  0  0  0  0  0  0  0  0  0
 22 23  2  0
 23 24  1  0
 24 21  1  0
 21  1  1  0
  1  2  2  0
  3  2  1  0
  3  4  1  0
  4  5  1  0
  5 12  1  0
 12 13  1  0
 13 14  2  0
 14 15  1  0
 15 16  2  0
 16 17  1  0
 17 18  2  0
 18 19  1  0
 19 20  2  0
  5  6  1  0
  6  7  1  0
  6  8  1  0
  8  9  1  0
 23 26  1  0
 26 27  2  0
 27 28  1  0
 28 36  1  0
 36 37  2  0
 36 38  1  0
 28 29  2  0
 29 30  1  0
 30 31  1  0
 30 32  2  0
 32 33  1  0
  8  3  1  0
 32 26  1  0
 20 12  1  0
 20 15  1  0
 24 25  1  0
  7 10  1  0
  9 11  1  0
 31 34  1  0
 33 35  1  0
M  CHG 1  36   1
M  CHG 1  38  -1
M  END
> <minimizedAffinity>
-9.38768

> <CNNscore>
0.4695985615

> <CNNaffinity>
6.6322307587

> <CNN_VS>
3.1144859791

> <CNNaffinity_variance>
0.0780211613

$$$$



 38 41  0  0  0  0  0  0  0  0999 V2000
   20.2126  -31.5409   13.9768 C   0  0  0  0  0  0  0  0  0  0  0  0
   21.3830  -32.1752   13.7907 C   0  0  0  0  0  0  0  0  0  0  0  0
   22.0393  -33.1926   14.6865 C   0  0  0  0  0  0  0  0  0  0  0  0
   21.2727  -34.4111   14.5342 O   0  0  0  0  0  0  0  0  0  0  0  0
   22.1337  -35.4065   13.9527 C   0  0  0  0  0  0  0  0  0  0  0  0
   23.3844  -34.7006   13.4265 C   0  0  0  0  0  0  0  0  0  0  0  0
   24.5569  -35.5227   13.4696 O   0  0  0  0  0  0  0  0  0  0  0  0
   23.5044  -33.5643   14.4251 C   0  0  0  0  0  0  0  0  0  0  0  0
   24.1166  -34.0575   15.6313 O   0  0  0  0  0  0  0  0  0  0  0  0
   24.7041  -35.8285   14.3783 H   0  0  0  0  0  0  0  0  0  0  0  0
   23.6050  -34.8090   15.9697 H   0  0  0  0  0  0  0  0  0  0  0  0
   21.3924  -36.1541   12.9567 N   0  0  0  0  0  0  0  0  0  0  0  0
   21.3245  -35.8316   11.6248 C   0  0  0  0  0  0  0  0  0  0  0  0
   20.5723  -36.6717   10.9475 N   0  0  0  0  0  0  0  0  0  0  0  0
   20.1473  -37.5867   11.8782 C   0  0  0  0  0  0  0  0  0  0  0  0
   19.3417  -38.7143   11.7872 C   0  0  0  0  0  0  0  0  0  0  0  0
   19.0816  -39.4410   12.9057 N   0  0  0  0  0  0  0  0  0  0  0  0
   19.6231  -39.0227   14.0704 C   0  0  0  0  0  0  0  0  0  0  0  0
   20.4006  -37.9435   14.2854 N   0  0  0  0  0  0  0  0  0  0  0  0
   20.6353  -37.2778   13.1402 C   0  0  0  0  0  0  0  0  0  0  0  0
   19.6644  -30.5019   13.0491 C   0  0  0  0  0  0  0  0  0  0  0  0
   17.6284  -31.0543   11.1821 O   0  0  0  0  0  0  0  0  0  0  0  0
   17.3254  -30.7772   12.3365 C   0  0  0  0  0  0  0  0  0  0  0  0
   18.2483  -30.4216   13.2879 N   0  0  0  0  0  0  0  0  0  0  0  0
   17.9306  -30.1011   14.1629 H   0  0  0  0  0  0  0  0  0  0  0  0
   15.8928  -30.8083   12.7590 C   0  0  0  0  0  0  0  0  0  0  0  0
   15.0157  -31.5897   11.9836 C   0  0  0  0  0  0  0  0  0  0  0  0
   13.6538  -31.6506   12.3123 C   0  0  0  0  0  0  0  0  0  0  0  0
   13.1405  -30.9447   13.4093 C   0  0  0  0  0  0  0  0  0  0  0  0
   14.0172  -30.1930   14.1805 C   0  0  0  0  0  0  0  0  0  0  0  0
   13.5874  -29.4830   15.2712 O   0  0  0  0  0  0  0  0  0  0  0  0
   15.3780  -30.1191   13.8651 C   0  0  0  0  0  0  0  0  0  0  0  0
   16.1690  -29.3420   14.6753 O   0  0  0  0  0  0  0  0  0  0  0  0
   12.6837  -29.5046   15.5178 H   0  0  0  0  0  0  0  0  0  0  0  0
   15.7926  -28.8942   15.4073 H   0  0  0  0  0  0  0  0  0  0  0  0
   12.7502  -32.4678   11.4943 N   0  0  0  0  0  0  0  0  0  0  0  0
   12.2099  -33.4450   12.0284 O   0  0  0  0  0  0  0  0  0  0  0  0
   12.5809  -32.1204   10.3184 O   0  0  0  0  0  0  0  0  0  0  0  0
 22 23  2  0
 23 24  1  0
 24 21  1  0
 21  1  1  0
  1  2  2  0
  3  2  1  0
  3  4  1  0
  4  5  1  0
  5 12  1  0
 12 13  1  0
 13 14  2  0
 14 15  1  0
 15 16  2  0
 16 17  1  0
 17 18  2  0
 18 19  1  0
 19 20  2  0
  5  6  1  0
  6  7  1  0
  6  8  1  0
  8  9  1  0
 23 26  1  0
 26 27  2  0
 27 28  1  0
 28 36  1  0
 36 37  2  0
 36 38  1  0
 28 29  2  0
 29 30  1  0
 30 31  1  0
 30 32  2  0
 32 33  1  0
  8  3  1  0
 32 26  1  0
 20 12  1  0
 20 15  1  0
 24 25  1  0
  7 10  1  0
  9 11  1  0
 31 34  1  0
 33 35  1  0
M  CHG 1  36   1
M  CHG 1  38  -1
M  END
> <minimizedAffinity>
-9.31044

> <CNNscore>
0.3433168530

> <CNNaffinity>
6.5114631653

> <CNN_VS>
2.2354950905

> <CNNaffinity_variance>
0.0389156491

$$$$



 38 41  0  0  0  0  0  0  0  0999 V2000
   20.3123  -30.0208    9.6330 C   0  0  0  0  0  0  0  0  0  0  0  0
   19.5214  -30.6888   10.4905 C   0  0  0  0  0  0  0  0  0  0  0  0
   19.0917  -30.2724   11.8726 C   0  0  0  0  0  0  0  0  0  0  0  0
   18.6773  -31.4863   12.5438 O   0  0  0  0  0  0  0  0  0  0  0  0
   19.5685  -31.7062   13.6517 C   0  0  0  0  0  0  0  0  0  0  0  0
   20.7735  -30.7797   13.4805 C   0  0  0  0  0  0  0  0  0  0  0  0
   21.3501  -30.3676   14.7255 O   0  0  0  0  0  0  0  0  0  0  0  0
   20.1202  -29.5975   12.7889 C   0  0  0  0  0  0  0  0  0  0  0  0
   19.4539  -28.7835   13.7720 O   0  0  0  0  0  0  0  0  0  0  0  0
   20.6722  -29.9358   15.2686 H   0  0  0  0  0  0  0  0  0  0  0  0
   18.8245  -29.3283   14.2700 H   0  0  0  0  0  0  0  0  0  0  0  0
   19.8918  -33.1168   13.7302 N   0  0  0  0  0  0  0  0  0  0  0  0
   19.4360  -33.9723   14.7011 C   0  0  0  0  0  0  0  0  0  0  0  0
   19.8937  -35.1951   14.5412 N   0  0  0  0  0  0  0  0  0  0  0  0
   20.6671  -35.1320   13.4090 C   0  0  0  0  0  0  0  0  0  0  0  0
   21.4064  -36.0861   12.7220 C   0  0  0  0  0  0  0  0  0  0  0  0
   22.0943  -35.7225   11.6078 N   0  0  0  0  0  0  0  0  0  0  0  0
   22.0290  -34.4306   11.2191 C   0  0  0  0  0  0  0  0  0  0  0  0
   21.3644  -33.4176   11.8087 N   0  0  0  0  0  0  0  0  0  0  0  0
   20.6913  -33.8440   12.8927 C   0  0  0  0  0  0  0  0  0  0  0  0
   20.7265  -30.5430    8.2927 C   0  0  0  0  0  0  0  0  0  0  0  0
   22.6769  -31.2699    6.3944 O   0  0  0  0  0  0  0  0  0  0  0  0
   22.6760  -30.1320    6.8488 C   0  0  0  0  0  0  0  0  0  0  0  0
   21.8109  -29.7187    7.8306 N   0  0  0  0  0  0  0  0  0  0  0  0
   21.9366  -28.8286    8.2320 H   0  0  0  0  0  0  0  0  0  0  0  0
   23.6557  -29.1255    6.3399 C   0  0  0  0  0  0  0  0  0  0  0  0
   24.6820  -29.6009    5.5022 C   0  0  0  0  0  0  0  0  0  0  0  0
   25.6467  -28.7144    5.0024 C   0  0  0  0  0  0  0  0  0  0  0  0
   25.6106  -27.3494    5.3199 C   0  0  0  0  0  0  0  0  0  0  0  0
   24.5824  -26.8863    6.1302 C   0  0  0  0  0  0  0  0  0  0  0  0
   24.4800  -25.5640    6.4762 O   0  0  0  0  0  0  0  0  0  0  0  0
   23.6136  -27.7573    6.6395 C   0  0  0  0  0  0  0  0  0  0  0  0
   22.6409  -27.2143    7.4426 O   0  0  0  0  0  0  0  0  0  0  0  0
   25.1080  -24.9462    6.1570 H   0  0  0  0  0  0  0  0  0  0  0  0
   22.6418  -26.2948    7.6231 H   0  0  0  0  0  0  0  0  0  0  0  0
   26.7123  -29.2238    4.1315 N   0  0  0  0  0  0  0  0  0  0  0  0
   26.8646  -30.4501    4.0591 O   0  0  0  0  0  0  0  0  0  0  0  0
   27.3888  -28.3891    3.5170 O   0  0  0  0  0  0  0  0  0  0  0  0
 22 23  2  0
 23 24  1  0
 24 21  1  0
 21  1  1  0
  1  2  2  0
  3  2  1  0
  3  4  1  0
  4  5  1  0
  5 12  1  0
 12 13  1  0
 13 14  2  0
 14 15  1  0
 15 16  2  0
 16 17  1  0
 17 18  2  0
 18 19  1  0
 19 20  2  0
  5  6  1  0
  6  7  1  0
  6  8  1  0
  8  9  1  0
 23 26  1  0
 26 27  2  0
 27 28  1  0
 28 36  1  0
 36 37  2  0
 36 38  1  0
 28 29  2  0
 29 30  1  0
 30 31  1  0
 30 32  2  0
 32 33  1  0
  8  3  1  0
 32 26  1  0
 20 12  1  0
 20 15  1  0
 24 25  1  0
  7 10  1  0
  9 11  1  0
 31 34  1  0
 33 35  1  0
M  CHG 1  36   1
M  CHG 1  38  -1
M  END
> <minimizedAffinity>
-9.32448

> <CNNscore>
0.3204449117

> <CNNaffinity>
6.2470951080

> <CNN_VS>
2.0018498898

> <CNNaffinity_variance>
0.0113566285

$$$$



 38 41  0  0  0  0  0  0  0  0999 V2000
   20.0338  -31.9801   13.8518 C   0  0  0  0  0  0  0  0  0  0  0  0
   21.3074  -32.3958   13.9620 C   0  0  0  0  0  0  0  0  0  0  0  0
   21.8245  -33.6253   14.6614 C   0  0  0  0  0  0  0  0  0  0  0  0
   21.3773  -34.7519   13.8699 O   0  0  0  0  0  0  0  0  0  0  0  0
   22.5418  -35.4177   13.3495 C   0  0  0  0  0  0  0  0  0  0  0  0
   23.7448  -34.4954   13.5540 C   0  0  0  0  0  0  0  0  0  0  0  0
   24.9738  -35.2054   13.7484 O   0  0  0  0  0  0  0  0  0  0  0  0
   23.3399  -33.7887   14.8344 C   0  0  0  0  0  0  0  0  0  0  0  0
   23.6244  -34.6441   15.9570 O   0  0  0  0  0  0  0  0  0  0  0  0
   24.8833  -35.8077   14.5034 H   0  0  0  0  0  0  0  0  0  0  0  0
   23.1777  -35.4965   15.8353 H   0  0  0  0  0  0  0  0  0  0  0  0
   22.2960  -35.8012   11.9736 N   0  0  0  0  0  0  0  0  0  0  0  0
   22.1160  -37.0903   11.5397 C   0  0  0  0  0  0  0  0  0  0  0  0
   21.9233  -37.1551   10.2401 N   0  0  0  0  0  0  0  0  0  0  0  0
   21.9651  -35.8502    9.8164 C   0  0  0  0  0  0  0  0  0  0  0  0
   21.8223  -35.2636    8.5656 C   0  0  0  0  0  0  0  0  0  0  0  0
   21.9214  -33.9136    8.4463 N   0  0  0  0  0  0  0  0  0  0  0  0
   22.1625  -33.1968    9.5655 C   0  0  0  0  0  0  0  0  0  0  0  0
   22.3356  -33.6509   10.8222 N   0  0  0  0  0  0  0  0  0  0  0  0
   22.2087  -34.9890   10.8771 C   0  0  0  0  0  0  0  0  0  0  0  0
   19.6212  -30.7097   13.1762 C   0  0  0  0  0  0  0  0  0  0  0  0
   17.6077  -31.0961   11.2441 O   0  0  0  0  0  0  0  0  0  0  0  0
   17.2901  -30.8348   12.3983 C   0  0  0  0  0  0  0  0  0  0  0  0
   18.2058  -30.5576   13.3822 N   0  0  0  0  0  0  0  0  0  0  0  0
   17.8833  -30.2442   14.2580 H   0  0  0  0  0  0  0  0  0  0  0  0
   15.8473  -30.7979   12.7843 C   0  0  0  0  0  0  0  0  0  0  0  0
   14.9513  -31.5192   11.9731 C   0  0  0  0  0  0  0  0  0  0  0  0
   13.5800  -31.5141   12.2665 C   0  0  0  0  0  0  0  0  0  0  0  0
   13.0758  -30.8009   13.3629 C   0  0  0  0  0  0  0  0  0  0  0  0
   13.9701  -30.1092   14.1693 C   0  0  0  0  0  0  0  0  0  0  0  0
   13.5495  -29.3960   15.2616 O   0  0  0  0  0  0  0  0  0  0  0  0
   15.3406  -30.1014   13.8894 C   0  0  0  0  0  0  0  0  0  0  0  0
   16.1496  -29.3804   14.7331 O   0  0  0  0  0  0  0  0  0  0  0  0
   12.6398  -29.3744   15.4851 H   0  0  0  0  0  0  0  0  0  0  0  0
   15.7781  -28.9259   15.4635 H   0  0  0  0  0  0  0  0  0  0  0  0
   12.6566  -32.2691   11.4115 N   0  0  0  0  0  0  0  0  0  0  0  0
   12.2013  -31.7030   10.4093 O   0  0  0  0  0  0  0  0  0  0  0  0
   12.3973  -33.4320   11.7466 O   0  0  0  0  0  0  0  0  0  0  0  0
 22 23  2  0
 23 24  1  0
 24 21  1  0
 21  1  1  0
  1  2  2  0
  3  2  1  0
  3  4  1  0
  4  5  1  0
  5 12  1  0
 12 13  1  0
 13 14  2  0
 14 15  1  0
 15 16  2  0
 16 17  1  0
 17 18  2  0
 18 19  1  0
 19 20  2  0
  5  6  1  0
  6  7  1  0
  6  8  1  0
  8  9  1  0
 23 26  1  0
 26 27  2  0
 27 28  1  0
 28 36  1  0
 36 37  2  0
 36 38  1  0
 28 29  2  0
 29 30  1  0
 30 31  1  0
 30 32  2  0
 32 33  1  0
  8  3  1  0
 32 26  1  0
 20 12  1  0
 20 15  1  0
 24 25  1  0
  7 10  1  0
  9 11  1  0
 31 34  1  0
 33 35  1  0
M  CHG 1  36   1
M  CHG 1  38  -1
M  END
> <minimizedAffinity>
-9.56915

> <CNNscore>
0.3133861721

> <CNNaffinity>
6.1218719482

> <CNN_VS>
1.9185099602

> <CNNaffinity_variance>
0.0441305637

$$$$



 38 41  0  0  0  0  0  0  0  0999 V2000
   19.9749  -31.2082   13.5440 C   0  0  0  0  0  0  0  0  0  0  0  0
   21.2288  -31.6753   13.4148 C   0  0  0  0  0  0  0  0  0  0  0  0
   21.7996  -32.9610   13.9527 C   0  0  0  0  0  0  0  0  0  0  0  0
   21.8367  -33.8794   12.8342 O   0  0  0  0  0  0  0  0  0  0  0  0
   23.2141  -34.2003   12.5700 C   0  0  0  0  0  0  0  0  0  0  0  0
   24.0869  -33.2052   13.3366 C   0  0  0  0  0  0  0  0  0  0  0  0
   25.3456  -33.7552   13.7436 O   0  0  0  0  0  0  0  0  0  0  0  0
   23.2127  -32.9439   14.5491 C   0  0  0  0  0  0  0  0  0  0  0  0
   23.3709  -34.0241   15.4878 O   0  0  0  0  0  0  0  0  0  0  0  0
   25.1933  -34.5481   14.2812 H   0  0  0  0  0  0  0  0  0  0  0  0
   23.1710  -34.8657   15.0490 H   0  0  0  0  0  0  0  0  0  0  0  0
   23.4315  -34.2226   11.1373 N   0  0  0  0  0  0  0  0  0  0  0  0
   22.5784  -33.6851   10.2068 C   0  0  0  0  0  0  0  0  0  0  0  0
   23.0121  -33.8566    8.9768 N   0  0  0  0  0  0  0  0  0  0  0  0
   24.2052  -34.5204    9.1178 C   0  0  0  0  0  0  0  0  0  0  0  0
   25.1415  -34.9754    8.1984 C   0  0  0  0  0  0  0  0  0  0  0  0
   26.2522  -35.6213    8.6407 N   0  0  0  0  0  0  0  0  0  0  0  0
   26.3921  -35.7968    9.9727 C   0  0  0  0  0  0  0  0  0  0  0  0
   25.5500  -35.4183   10.9540 N   0  0  0  0  0  0  0  0  0  0  0  0
   24.4818  -34.7707   10.4546 C   0  0  0  0  0  0  0  0  0  0  0  0
   19.5129  -29.8869   13.0138 C   0  0  0  0  0  0  0  0  0  0  0  0
   17.6910  -31.6021   11.7197 O   0  0  0  0  0  0  0  0  0  0  0  0
   17.2721  -30.7769   12.5227 C   0  0  0  0  0  0  0  0  0  0  0  0
   18.0804  -29.8547   13.1388 N   0  0  0  0  0  0  0  0  0  0  0  0
   17.6660  -29.1478   13.6845 H   0  0  0  0  0  0  0  0  0  0  0  0
   15.8176  -30.7385   12.8619 C   0  0  0  0  0  0  0  0  0  0  0  0
   14.9394  -31.3968   11.9807 C   0  0  0  0  0  0  0  0  0  0  0  0
   13.5592  -31.3861   12.2281 C   0  0  0  0  0  0  0  0  0  0  0  0
   13.0282  -30.7293   13.3470 C   0  0  0  0  0  0  0  0  0  0  0  0
   13.9044  -30.1003   14.2217 C   0  0  0  0  0  0  0  0  0  0  0  0
   13.4572  -29.4447   15.3392 O   0  0  0  0  0  0  0  0  0  0  0  0
   15.2836  -30.0989   13.9884 C   0  0  0  0  0  0  0  0  0  0  0  0
   16.0737  -29.4415   14.8992 O   0  0  0  0  0  0  0  0  0  0  0  0
   12.5408  -29.4211   15.5332 H   0  0  0  0  0  0  0  0  0  0  0  0
   15.6842  -29.0239   15.6421 H   0  0  0  0  0  0  0  0  0  0  0  0
   12.6546  -32.0749   11.3002 N   0  0  0  0  0  0  0  0  0  0  0  0
   12.1895  -31.4249   10.3551 O   0  0  0  0  0  0  0  0  0  0  0  0
   12.4199  -33.2700   11.5208 O   0  0  0  0  0  0  0  0  0  0  0  0
 22 23  2  0
 23 24  1  0
 24 21  1  0
 21  1  1  0
  1  2  2  0
  3  2  1  0
  3  4  1  0
  4  5  1  0
  5 12  1  0
 12 13  1  0
 13 14  2  0
 14 15  1  0
 15 16  2  0
 16 17  1  0
 17 18  2  0
 18 19  1  0
 19 20  2  0
  5  6  1  0
  6  7  1  0
  6  8  1  0
  8  9  1  0
 23 26  1  0
 26 27  2  0
 27 28  1  0
 28 36  1  0
 36 37  2  0
 36 38  1  0
 28 29  2  0
 29 30  1  0
 30 31  1  0
 30 32  2  0
 32 33  1  0
  8  3  1  0
 32 26  1  0
 20 12  1  0
 20 15  1  0
 24 25  1  0
  7 10  1  0
  9 11  1  0
 31 34  1  0
 33 35  1  0
M  CHG 1  36   1
M  CHG 1  38  -1
M  END
> <minimizedAffinity>
-8.80397

> <CNNscore>
0.3040324450

> <CNNaffinity>
6.5047173500

> <CNN_VS>
1.9776451588

> <CNNaffinity_variance>
0.3408332765

$$$$



 38 41  0  0  0  0  0  0  0  0999 V2000
   20.4310  -30.1505    9.2694 C   0  0  0  0  0  0  0  0  0  0  0  0
   20.3736  -30.8171   10.4354 C   0  0  0  0  0  0  0  0  0  0  0  0
   20.2481  -30.2478   11.8241 C   0  0  0  0  0  0  0  0  0  0  0  0
   18.9093  -29.7041   11.9125 O   0  0  0  0  0  0  0  0  0  0  0  0
   18.1940  -30.4491   12.9142 C   0  0  0  0  0  0  0  0  0  0  0  0
   19.0038  -31.7058   13.2371 C   0  0  0  0  0  0  0  0  0  0  0  0
   18.8403  -32.1508   14.5890 O   0  0  0  0  0  0  0  0  0  0  0  0
   20.4150  -31.1912   13.0220 C   0  0  0  0  0  0  0  0  0  0  0  0
   20.8311  -30.4515   14.1851 O   0  0  0  0  0  0  0  0  0  0  0  0
   19.0809  -31.4341   15.1967 H   0  0  0  0  0  0  0  0  0  0  0  0
   20.1916  -29.7446   14.3646 H   0  0  0  0  0  0  0  0  0  0  0  0
   16.8440  -30.6977   12.4492 N   0  0  0  0  0  0  0  0  0  0  0  0
   16.5225  -31.2424   11.2317 C   0  0  0  0  0  0  0  0  0  0  0  0
   15.2223  -31.3459   11.0610 N   0  0  0  0  0  0  0  0  0  0  0  0
   14.6788  -30.8614   12.2246 C   0  0  0  0  0  0  0  0  0  0  0  0
   13.3679  -30.7156   12.6597 C   0  0  0  0  0  0  0  0  0  0  0  0
   13.1273  -30.1859   13.8878 N   0  0  0  0  0  0  0  0  0  0  0  0
   14.1900  -29.8167   14.6354 C   0  0  0  0  0  0  0  0  0  0  0  0
   15.4970  -29.8925   14.3169 N   0  0  0  0  0  0  0  0  0  0  0  0
   15.6696  -30.4398   13.1002 C   0  0  0  0  0  0  0  0  0  0  0  0
   20.6079  -30.8064    7.9356 C   0  0  0  0  0  0  0  0  0  0  0  0
   22.3035  -32.3267    6.2773 O   0  0  0  0  0  0  0  0  0  0  0  0
   22.6170  -31.1775    6.5642 C   0  0  0  0  0  0  0  0  0  0  0  0
   21.8883  -30.3956    7.4251 N   0  0  0  0  0  0  0  0  0  0  0  0
   22.2540  -29.5246    7.7023 H   0  0  0  0  0  0  0  0  0  0  0  0
   23.8491  -30.5718    5.9753 C   0  0  0  0  0  0  0  0  0  0  0  0
   23.9686  -29.1712    6.0474 C   0  0  0  0  0  0  0  0  0  0  0  0
   25.0909  -28.5339    5.4990 C   0  0  0  0  0  0  0  0  0  0  0  0
   26.1093  -29.2684    4.8757 C   0  0  0  0  0  0  0  0  0  0  0  0
   25.9924  -30.6513    4.8278 C   0  0  0  0  0  0  0  0  0  0  0  0
   26.9523  -31.4338    4.2406 O   0  0  0  0  0  0  0  0  0  0  0  0
   24.8783  -31.3028    5.3673 C   0  0  0  0  0  0  0  0  0  0  0  0
   24.8404  -32.6717    5.2639 O   0  0  0  0  0  0  0  0  0  0  0  0
   27.7150  -31.0382    3.8667 H   0  0  0  0  0  0  0  0  0  0  0  0
   25.5457  -33.1301    4.8510 H   0  0  0  0  0  0  0  0  0  0  0  0
   25.2019  -27.0728    5.5796 N   0  0  0  0  0  0  0  0  0  0  0  0
   25.8275  -26.4893    4.6849 O   0  0  0  0  0  0  0  0  0  0  0  0
   24.6536  -26.5154    6.5390 O   0  0  0  0  0  0  0  0  0  0  0  0
 22 23  2  0
 23 24  1  0
 24 21  1  0
 21  1  1  0
  1  2  2  0
  3  2  1  0
  3  4  1  0
  4  5  1  0
  5 12  1  0
 12 13  1  0
 13 14  2  0
 14 15  1  0
 15 16  2  0
 16 17  1  0
 17 18  2  0
 18 19  1  0
 19 20  2  0
  5  6  1  0
  6  7  1  0
  6  8  1  0
  8  9  1  0
 23 26  1  0
 26 27  2  0
 27 28  1  0
 28 36  1  0
 36 37  2  0
 36 38  1  0
 28 29  2  0
 29 30  1  0
 30 31  1  0
 30 32  2  0
 32 33  1  0
  8  3  1  0
 32 26  1  0
 20 12  1  0
 20 15  1  0
 24 25  1  0
  7 10  1  0
  9 11  1  0
 31 34  1  0
 33 35  1  0
M  CHG 1  36   1
M  CHG 1  38  -1
M  END
> <minimizedAffinity>
-9.50468

> <CNNscore>
0.2888340950

> <CNNaffinity>
5.8293471336

> <CNN_VS>
1.6837141514

> <CNNaffinity_variance>
0.0911987647

$$$$



 38 41  0  0  0  0  0  0  0  0999 V2000
   19.9104  -32.3786   13.5343 C   0  0  0  0  0  0  0  0  0  0  0  0
   20.8134  -33.1152   12.8642 C   0  0  0  0  0  0  0  0  0  0  0  0
   21.2266  -34.5396   13.1259 C   0  0  0  0  0  0  0  0  0  0  0  0
   22.4349  -34.7517   12.3575 O   0  0  0  0  0  0  0  0  0  0  0  0
   23.5070  -35.0129   13.2808 C   0  0  0  0  0  0  0  0  0  0  0  0
   23.0258  -34.6360   14.6830 C   0  0  0  0  0  0  0  0  0  0  0  0
   23.6242  -35.4270   15.7167 O   0  0  0  0  0  0  0  0  0  0  0  0
   21.5475  -34.9579   14.5664 C   0  0  0  0  0  0  0  0  0  0  0  0
   21.3582  -36.3761   14.7278 O   0  0  0  0  0  0  0  0  0  0  0  0
   23.4514  -36.3661   15.5463 H   0  0  0  0  0  0  0  0  0  0  0  0
   21.9030  -36.8507   14.0807 H   0  0  0  0  0  0  0  0  0  0  0  0
   24.6976  -34.3152   12.8380 N   0  0  0  0  0  0  0  0  0  0  0  0
   24.8484  -32.9515   12.8278 C   0  0  0  0  0  0  0  0  0  0  0  0
   26.0238  -32.5847   12.3647 N   0  0  0  0  0  0  0  0  0  0  0  0
   26.6675  -33.7623   12.0769 C   0  0  0  0  0  0  0  0  0  0  0  0
   27.9304  -34.0435   11.5719 C   0  0  0  0  0  0  0  0  0  0  0  0
   28.3001  -35.3371   11.3809 N   0  0  0  0  0  0  0  0  0  0  0  0
   27.4067  -36.3015   11.6913 C   0  0  0  0  0  0  0  0  0  0  0  0
   26.1553  -36.1530   12.1684 N   0  0  0  0  0  0  0  0  0  0  0  0
   25.8562  -34.8543   12.3518 C   0  0  0  0  0  0  0  0  0  0  0  0
   19.6029  -30.9460   13.2287 C   0  0  0  0  0  0  0  0  0  0  0  0
   17.5997  -31.0602   11.2512 O   0  0  0  0  0  0  0  0  0  0  0  0
   17.2784  -30.9015   12.4229 C   0  0  0  0  0  0  0  0  0  0  0  0
   18.1921  -30.7590   13.4369 N   0  0  0  0  0  0  0  0  0  0  0  0
   17.8712  -30.5208   14.3367 H   0  0  0  0  0  0  0  0  0  0  0  0
   15.8335  -30.8457   12.7986 C   0  0  0  0  0  0  0  0  0  0  0  0
   14.9341  -31.5568   11.9823 C   0  0  0  0  0  0  0  0  0  0  0  0
   13.5610  -31.5340   12.2659 C   0  0  0  0  0  0  0  0  0  0  0  0
   13.0581  -30.8127   13.3577 C   0  0  0  0  0  0  0  0  0  0  0  0
   13.9554  -30.1311   14.1694 C   0  0  0  0  0  0  0  0  0  0  0  0
   13.5363  -29.4110   15.2576 O   0  0  0  0  0  0  0  0  0  0  0  0
   15.3279  -30.1411   13.8991 C   0  0  0  0  0  0  0  0  0  0  0  0
   16.1400  -29.4291   14.7475 O   0  0  0  0  0  0  0  0  0  0  0  0
   12.6254  -29.3775   15.4747 H   0  0  0  0  0  0  0  0  0  0  0  0
   15.7692  -28.9688   15.4745 H   0  0  0  0  0  0  0  0  0  0  0  0
   12.6342  -32.2785   11.4055 N   0  0  0  0  0  0  0  0  0  0  0  0
   12.2177  -31.7196   10.3826 O   0  0  0  0  0  0  0  0  0  0  0  0
   12.3329  -33.4262   11.7575 O   0  0  0  0  0  0  0  0  0  0  0  0
 22 23  2  0
 23 24  1  0
 24 21  1  0
 21  1  1  0
  1  2  2  0
  3  2  1  0
  3  4  1  0
  4  5  1  0
  5 12  1  0
 12 13  1  0
 13 14  2  0
 14 15  1  0
 15 16  2  0
 16 17  1  0
 17 18  2  0
 18 19  1  0
 19 20  2  0
  5  6  1  0
  6  7  1  0
  6  8  1  0
  8  9  1  0
 23 26  1  0
 26 27  2  0
 27 28  1  0
 28 36  1  0
 36 37  2  0
 36 38  1  0
 28 29  2  0
 29 30  1  0
 30 31  1  0
 30 32  2  0
 32 33  1  0
  8  3  1  0
 32 26  1  0
 20 12  1  0
 20 15  1  0
 24 25  1  0
  7 10  1  0
  9 11  1  0
 31 34  1  0
 33 35  1  0
M  CHG 1  36   1
M  CHG 1  38  -1
M  END
> <minimizedAffinity>
-9.63623

> <CNNscore>
0.2852148414

> <CNNaffinity>
5.9484200478

> <CNN_VS>
1.6965776682

> <CNNaffinity_variance>
0.0693858266

$$$$



 38 41  0  0  0  0  0  0  0  0999 V2000
   20.5249  -30.2468   10.1980 C   0  0  0  0  0  0  0  0  0  0  0  0
   20.2332  -29.2842   11.0897 C   0  0  0  0  0  0  0  0  0  0  0  0
   20.0299  -29.4266   12.5752 C   0  0  0  0  0  0  0  0  0  0  0  0
   18.6148  -29.2256   12.8049 O   0  0  0  0  0  0  0  0  0  0  0  0
   18.0717  -30.4525   13.3244 C   0  0  0  0  0  0  0  0  0  0  0  0
   19.1094  -31.5561   13.1124 C   0  0  0  0  0  0  0  0  0  0  0  0
   19.0587  -32.5786   14.1146 O   0  0  0  0  0  0  0  0  0  0  0  0
   20.3943  -30.7593   13.2416 C   0  0  0  0  0  0  0  0  0  0  0  0
   20.6865  -30.5559   14.6366 O   0  0  0  0  0  0  0  0  0  0  0  0
   19.1720  -32.1785   14.9909 H   0  0  0  0  0  0  0  0  0  0  0  0
   19.9292  -30.1288   15.0666 H   0  0  0  0  0  0  0  0  0  0  0  0
   16.7838  -30.7017   12.7084 N   0  0  0  0  0  0  0  0  0  0  0  0
   16.6035  -31.2499   11.4636 C   0  0  0  0  0  0  0  0  0  0  0  0
   15.3313  -31.3530   11.1452 N   0  0  0  0  0  0  0  0  0  0  0  0
   14.6584  -30.8645   12.2373 C   0  0  0  0  0  0  0  0  0  0  0  0
   13.3065  -30.7164   12.5187 C   0  0  0  0  0  0  0  0  0  0  0  0
   12.9271  -30.1827   13.7095 N   0  0  0  0  0  0  0  0  0  0  0  0
   13.8974  -29.8119   14.5730 C   0  0  0  0  0  0  0  0  0  0  0  0
   15.2322  -29.8896   14.4068 N   0  0  0  0  0  0  0  0  0  0  0  0
   15.5427  -30.4408   13.2195 C   0  0  0  0  0  0  0  0  0  0  0  0
   20.6586  -30.0141    8.7254 C   0  0  0  0  0  0  0  0  0  0  0  0
   20.1782  -31.1730    6.2031 O   0  0  0  0  0  0  0  0  0  0  0  0
   21.0829  -31.6121    6.9030 C   0  0  0  0  0  0  0  0  0  0  0  0
   21.3351  -31.1569    8.1729 N   0  0  0  0  0  0  0  0  0  0  0  0
   22.0010  -31.6281    8.7240 H   0  0  0  0  0  0  0  0  0  0  0  0
   21.9651  -32.7007    6.3848 C   0  0  0  0  0  0  0  0  0  0  0  0
   22.7951  -33.3483    7.3190 C   0  0  0  0  0  0  0  0  0  0  0  0
   23.6618  -34.3676    6.8991 C   0  0  0  0  0  0  0  0  0  0  0  0
   23.7194  -34.7624    5.5551 C   0  0  0  0  0  0  0  0  0  0  0  0
   22.8818  -34.1318    4.6446 C   0  0  0  0  0  0  0  0  0  0  0  0
   22.8791  -34.4705    3.3165 O   0  0  0  0  0  0  0  0  0  0  0  0
   22.0134  -33.1113    5.0460 C   0  0  0  0  0  0  0  0  0  0  0  0
   21.2305  -32.5352    4.0758 O   0  0  0  0  0  0  0  0  0  0  0  0
   23.4454  -35.1488    3.0048 H   0  0  0  0  0  0  0  0  0  0  0  0
   21.2875  -32.8338    3.1894 H   0  0  0  0  0  0  0  0  0  0  0  0
   24.5231  -35.0333    7.8833 N   0  0  0  0  0  0  0  0  0  0  0  0
   24.0838  -36.0432    8.4482 O   0  0  0  0  0  0  0  0  0  0  0  0
   25.6420  -34.5423    8.0804 O   0  0  0  0  0  0  0  0  0  0  0  0
 22 23  2  0
 23 24  1  0
 24 21  1  0
 21  1  1  0
  1  2  2  0
  3  2  1  0
  3  4  1  0
  4  5  1  0
  5 12  1  0
 12 13  1  0
 13 14  2  0
 14 15  1  0
 15 16  2  0
 16 17  1  0
 17 18  2  0
 18 19  1  0
 19 20  2  0
  5  6  1  0
  6  7  1  0
  6  8  1  0
  8  9  1  0
 23 26  1  0
 26 27  2  0
 27 28  1  0
 28 36  1  0
 36 37  2  0
 36 38  1  0
 28 29  2  0
 29 30  1  0
 30 31  1  0
 30 32  2  0
 32 33  1  0
  8  3  1  0
 32 26  1  0
 20 12  1  0
 20 15  1  0
 24 25  1  0
  7 10  1  0
  9 11  1  0
 31 34  1  0
 33 35  1  0
M  CHG 1  36   1
M  CHG 1  38  -1
M  END
> <minimizedAffinity>
-8.37347

> <CNNscore>
0.2627109885

> <CNNaffinity>
5.9002776146

> <CNN_VS>
1.5500677824

> <CNNaffinity_variance>
0.2193245888

$$$$
