


 36 39  0  0  0  0  0  0  0  0999 V2000
   23.6758    7.1751   13.3311 C   0  0  0  0  0  0  0  0  0  0  0  0
   23.8768    7.1870   14.7862 N   0  0  0  0  0  0  0  0  0  0  0  0
   22.8666    6.8650   15.6593 C   0  0  0  0  0  0  0  0  0  0  0  0
   21.6780    6.8233   15.4169 O   0  0  0  0  0  0  0  0  0  0  0  0
   23.4852    6.6260   16.9627 C   0  0  0  0  0  0  0  0  0  0  0  0
   22.9241    6.2773   18.1740 C   0  0  0  0  0  0  0  0  0  0  0  0
   23.7947    6.1311   19.2629 C   0  0  0  0  0  0  0  0  0  0  0  0
   25.1889    6.3371   19.1161 C   0  0  0  0  0  0  0  0  0  0  0  0
   25.7293    6.6879   17.8681 C   0  0  0  0  0  0  0  0  0  0  0  0
   24.8485    6.8186   16.8143 C   0  0  0  0  0  0  0  0  0  0  0  0
   25.0883    7.1851   15.4199 C   0  0  0  0  0  0  0  0  0  0  0  0
   26.1450    7.5567   14.9457 O   0  0  0  0  0  0  0  0  0  0  0  0
   26.1274    6.2110   20.2577 C   0  0  0  0  0  0  0  0  0  0  0  0
   27.2333    5.7102   20.1859 O   0  0  0  0  0  0  0  0  0  0  0  0
   25.6323    6.7176   21.3944 O   0  0  0  0  0  0  0  0  0  0  0  0
   24.7745    7.0944   21.4048 H   0  0  0  0  0  0  0  0  0  0  0  0
   22.4204    6.4038   12.8097 C   0  0  0  0  0  0  0  0  0  0  0  0
   22.6625    5.1373   11.8472 N   0  0  0  0  0  0  0  0  0  0  0  0
   23.2466    5.7772   10.5702 C   0  0  0  0  0  0  0  0  0  0  0  0
   23.7196    4.2485   12.4682 C   0  0  0  0  0  0  0  0  0  0  0  0
   21.3212    4.4891   11.5876 C   0  0  0  0  0  0  0  0  0  0  0  0
   19.4287    3.6934   10.0236 C   0  0  0  0  0  0  0  0  0  0  0  0
   20.5955    4.6312   10.2604 N   0  0  0  0  0  0  0  0  0  0  0  0
   20.1673    6.0664    9.9503 C   0  0  0  0  0  0  0  0  0  0  0  0
   21.6597    4.2703    9.1749 C   0  0  0  0  0  0  0  0  0  0  0  0
   23.6470    8.6525   12.8359 C   0  0  0  0  0  0  0  0  0  0  0  0
   22.2544    9.2471   12.8441 C   0  0  0  0  0  0  0  0  0  0  0  0
   21.4543    9.0106   11.7100 C   0  0  0  0  0  0  0  0  0  0  0  0
   20.1368    9.4475   11.6654 C   0  0  0  0  0  0  0  0  0  0  0  0
   19.5947   10.1203   12.7547 C   0  0  0  0  0  0  0  0  0  0  0  0
   20.3647   10.3845   13.8957 C   0  0  0  0  0  0  0  0  0  0  0  0
   19.7887   11.0728   14.9751 C   0  0  0  0  0  0  0  0  0  0  0  0
   20.5300   11.3695   16.1156 C   0  0  0  0  0  0  0  0  0  0  0  0
   21.8612   10.9870   16.1883 C   0  0  0  0  0  0  0  0  0  0  0  0
   22.4491   10.2986   15.1240 C   0  0  0  0  0  0  0  0  0  0  0  0
   21.7198    9.9673   13.9541 C   0  0  0  0  0  0  0  0  0  0  0  0
 22 23  1  0
 23 24  1  0
 23 25  1  0
 23 21  1  0
 21 18  1  0
 18 19  1  0
 18 20  1  0
 18 17  1  0
  1 17  1  0
  1 26  1  0
 26 27  1  0
 27 28  2  0
 28 29  1  0
 29 30  2  0
 30 31  1  0
 31 32  2  0
 32 33  1  0
 33 34  2  0
 34 35  1  0
 35 36  2  0
  1  2  1  0
  2  3  1  0
  3  4  2  0
  3  5  1  0
  5  6  2  0
  6  7  1  0
  7  8  2  0
  8 13  1  0
 13 14  2  0
 13 15  1  0
  8  9  1  0
  9 10  2  0
 10 11  1  0
 11 12  2  0
 36 27  1  0
 11  2  1  0
 36 31  1  0
 10  5  1  0
 15 16  1  0
M  CHG 1  18   1
M  CHG 1  23   1
M  END
> <minimizedAffinity>
-7.75084

> <CNNscore>
0.4176186025

> <CNNaffinity>
5.2235159874

> <CNN_VS>
2.1814374924

> <CNNaffinity_variance>
0.6126241088

$$$$



 36 39  0  0  0  0  0  0  0  0999 V2000
   22.7009    7.2332   12.6995 C   0  0  0  0  0  0  0  0  0  0  0  0
   23.2720    7.0558   14.0411 N   0  0  0  0  0  0  0  0  0  0  0  0
   24.3533    7.7860   14.4702 C   0  0  0  0  0  0  0  0  0  0  0  0
   25.1317    8.4115   13.7802 O   0  0  0  0  0  0  0  0  0  0  0  0
   24.4269    7.6319   15.9225 C   0  0  0  0  0  0  0  0  0  0  0  0
   25.3191    8.1512   16.8379 C   0  0  0  0  0  0  0  0  0  0  0  0
   25.1296    7.8039   18.1827 C   0  0  0  0  0  0  0  0  0  0  0  0
   24.0660    6.9537   18.5745 C   0  0  0  0  0  0  0  0  0  0  0  0
   23.1722    6.4444   17.6182 C   0  0  0  0  0  0  0  0  0  0  0  0
   23.3808    6.8085   16.3040 C   0  0  0  0  0  0  0  0  0  0  0  0
   22.6524    6.4385   15.0920 C   0  0  0  0  0  0  0  0  0  0  0  0
   21.7529    5.6234   15.0145 O   0  0  0  0  0  0  0  0  0  0  0  0
   23.8583    6.5532   19.9875 C   0  0  0  0  0  0  0  0  0  0  0  0
   22.7872    6.2188   20.4565 O   0  0  0  0  0  0  0  0  0  0  0  0
   24.9867    6.5900   20.7081 O   0  0  0  0  0  0  0  0  0  0  0  0
   25.7909    6.8540   20.3061 H   0  0  0  0  0  0  0  0  0  0  0  0
   21.7657    6.0910   12.1862 C   0  0  0  0  0  0  0  0  0  0  0  0
   22.4062    4.9688   11.2273 N   0  0  0  0  0  0  0  0  0  0  0  0
   23.4144    5.7710   10.3779 C   0  0  0  0  0  0  0  0  0  0  0  0
   23.1734    3.9798   12.0798 C   0  0  0  0  0  0  0  0  0  0  0  0
   21.2936    4.3911   10.3818 C   0  0  0  0  0  0  0  0  0  0  0  0
   20.5853    6.7332    9.5607 C   0  0  0  0  0  0  0  0  0  0  0  0
   20.2433    5.2650    9.7171 N   0  0  0  0  0  0  0  0  0  0  0  0
   19.7471    4.7117    8.3804 C   0  0  0  0  0  0  0  0  0  0  0  0
   19.0086    5.2143   10.6731 C   0  0  0  0  0  0  0  0  0  0  0  0
   21.9517    8.5994   12.6707 C   0  0  0  0  0  0  0  0  0  0  0  0
   20.8257    8.6726   13.6807 C   0  0  0  0  0  0  0  0  0  0  0  0
   19.6702    7.9182   13.4018 C   0  0  0  0  0  0  0  0  0  0  0  0
   18.6219    7.8606   14.3109 C   0  0  0  0  0  0  0  0  0  0  0  0
   18.7136    8.5484   15.5157 C   0  0  0  0  0  0  0  0  0  0  0  0
   19.8431    9.3195   15.8223 C   0  0  0  0  0  0  0  0  0  0  0  0
   19.9003   10.0077   17.0445 C   0  0  0  0  0  0  0  0  0  0  0  0
   20.9981   10.7985   17.3728 C   0  0  0  0  0  0  0  0  0  0  0  0
   22.0514   10.9170   16.4781 C   0  0  0  0  0  0  0  0  0  0  0  0
   22.0117   10.2363   15.2586 C   0  0  0  0  0  0  0  0  0  0  0  0
   20.9165    9.4110   14.8985 C   0  0  0  0  0  0  0  0  0  0  0  0
 22 23  1  0
 23 24  1  0
 23 25  1  0
 23 21  1  0
 21 18  1  0
 18 19  1  0
 18 20  1  0
 18 17  1  0
  1 17  1  0
  1 26  1  0
 26 27  1  0
 27 28  2  0
 28 29  1  0
 29 30  2  0
 30 31  1  0
 31 32  2  0
 32 33  1  0
 33 34  2  0
 34 35  1  0
 35 36  2  0
  1  2  1  0
  2  3  1  0
  3  4  2  0
  3  5  1  0
  5  6  2  0
  6  7  1  0
  7  8  2  0
  8 13  1  0
 13 14  2  0
 13 15  1  0
  8  9  1  0
  9 10  2  0
 10 11  1  0
 11 12  2  0
 36 27  1  0
 11  2  1  0
 36 31  1  0
 10  5  1  0
 15 16  1  0
M  CHG 1  18   1
M  CHG 1  23   1
M  END
> <minimizedAffinity>
-7.27870

> <CNNscore>
0.3612218201

> <CNNaffinity>
5.2088451385

> <CNN_VS>
1.8815485239

> <CNNaffinity_variance>
0.4201613367

$$$$



 36 39  0  0  0  0  0  0  0  0999 V2000
   23.1673    5.8011   13.8322 C   0  0  0  0  0  0  0  0  0  0  0  0
   23.9994    6.1841   14.9805 N   0  0  0  0  0  0  0  0  0  0  0  0
   24.1807    7.4979   15.3372 C   0  0  0  0  0  0  0  0  0  0  0  0
   23.9626    8.4767   14.6532 O   0  0  0  0  0  0  0  0  0  0  0  0
   24.7371    7.5032   16.6895 C   0  0  0  0  0  0  0  0  0  0  0  0
   25.1036    8.5525   17.5071 C   0  0  0  0  0  0  0  0  0  0  0  0
   25.6269    8.2285   18.7666 C   0  0  0  0  0  0  0  0  0  0  0  0
   25.7715    6.8785   19.1721 C   0  0  0  0  0  0  0  0  0  0  0  0
   25.3853    5.8330   18.3174 C   0  0  0  0  0  0  0  0  0  0  0  0
   24.8684    6.1832   17.0872 C   0  0  0  0  0  0  0  0  0  0  0  0
   24.4013    5.3465   15.9836 C   0  0  0  0  0  0  0  0  0  0  0  0
   24.4861    4.1350   15.9141 O   0  0  0  0  0  0  0  0  0  0  0  0
   26.3437    6.5098   20.4899 C   0  0  0  0  0  0  0  0  0  0  0  0
   27.4728    6.0893   20.6554 O   0  0  0  0  0  0  0  0  0  0  0  0
   25.4826    6.6945   21.4991 O   0  0  0  0  0  0  0  0  0  0  0  0
   24.6214    7.0208   21.3263 H   0  0  0  0  0  0  0  0  0  0  0  0
   22.1490    6.8725   13.3243 C   0  0  0  0  0  0  0  0  0  0  0  0
   20.6744    6.8728   13.9680 N   0  0  0  0  0  0  0  0  0  0  0  0
   19.7580    6.6973   12.7388 C   0  0  0  0  0  0  0  0  0  0  0  0
   20.5299    5.6541   14.8551 C   0  0  0  0  0  0  0  0  0  0  0  0
   20.4621    8.2105   14.6405 C   0  0  0  0  0  0  0  0  0  0  0  0
   21.2751   10.6503   14.4234 C   0  0  0  0  0  0  0  0  0  0  0  0
   20.4426    9.5151   13.8620 N   0  0  0  0  0  0  0  0  0  0  0  0
   20.7533    9.3420   12.3744 C   0  0  0  0  0  0  0  0  0  0  0  0
   18.9596   10.0028   13.9238 C   0  0  0  0  0  0  0  0  0  0  0  0
   24.1144    5.3637   12.6744 C   0  0  0  0  0  0  0  0  0  0  0  0
   23.5689    5.7141   11.3059 C   0  0  0  0  0  0  0  0  0  0  0  0
   24.2241    6.7435   10.6037 C   0  0  0  0  0  0  0  0  0  0  0  0
   23.8442    7.0755    9.3098 C   0  0  0  0  0  0  0  0  0  0  0  0
   22.8098    6.3802    8.6936 C   0  0  0  0  0  0  0  0  0  0  0  0
   22.1265    5.3578    9.3661 C   0  0  0  0  0  0  0  0  0  0  0  0
   21.0816    4.6808    8.7175 C   0  0  0  0  0  0  0  0  0  0  0  0
   20.3686    3.6739    9.3625 C   0  0  0  0  0  0  0  0  0  0  0  0
   20.6875    3.3355   10.6693 C   0  0  0  0  0  0  0  0  0  0  0  0
   21.7266    3.9974   11.3283 C   0  0  0  0  0  0  0  0  0  0  0  0
   22.4827    5.0171   10.6968 C   0  0  0  0  0  0  0  0  0  0  0  0
 22 23  1  0
 23 24  1  0
 23 25  1  0
 23 21  1  0
 21 18  1  0
 18 19  1  0
 18 20  1  0
 18 17  1  0
  1 17  1  0
  1 26  1  0
 26 27  1  0
 27 28  2  0
 28 29  1  0
 29 30  2  0
 30 31  1  0
 31 32  2  0
 32 33  1  0
 33 34  2  0
 34 35  1  0
 35 36  2  0
  1  2  1  0
  2  3  1  0
  3  4  2  0
  3  5  1  0
  5  6  2  0
  6  7  1  0
  7  8  2  0
  8 13  1  0
 13 14  2  0
 13 15  1  0
  8  9  1  0
  9 10  2  0
 10 11  1  0
 11 12  2  0
 36 27  1  0
 11  2  1  0
 36 31  1  0
 10  5  1  0
 15 16  1  0
M  CHG 1  18   1
M  CHG 1  23   1
M  END
> <minimizedAffinity>
-8.22398

> <CNNscore>
0.3308722377

> <CNNaffinity>
5.4892249107

> <CNN_VS>
1.8162320852

> <CNNaffinity_variance>
0.2582469881

$$$$



 36 39  0  0  0  0  0  0  0  0999 V2000
   21.9322    6.9028   13.0372 C   0  0  0  0  0  0  0  0  0  0  0  0
   22.6304    6.5687   14.2856 N   0  0  0  0  0  0  0  0  0  0  0  0
   23.9783    6.7820   14.4409 C   0  0  0  0  0  0  0  0  0  0  0  0
   24.7932    6.9717   13.5616 O   0  0  0  0  0  0  0  0  0  0  0  0
   24.2659    6.6897   15.8716 C   0  0  0  0  0  0  0  0  0  0  0  0
   25.4543    6.8210   16.5604 C   0  0  0  0  0  0  0  0  0  0  0  0
   25.4069    6.6627   17.9524 C   0  0  0  0  0  0  0  0  0  0  0  0
   24.1866    6.3779   18.6139 C   0  0  0  0  0  0  0  0  0  0  0  0
   22.9930    6.2540   17.8841 C   0  0  0  0  0  0  0  0  0  0  0  0
   23.0704    6.4209   16.5167 C   0  0  0  0  0  0  0  0  0  0  0  0
   22.0310    6.3373   15.4925 C   0  0  0  0  0  0  0  0  0  0  0  0
   20.8787    5.9880   15.6644 O   0  0  0  0  0  0  0  0  0  0  0  0
   24.1145    6.1833   20.0826 C   0  0  0  0  0  0  0  0  0  0  0  0
   25.0352    5.7825   20.7686 O   0  0  0  0  0  0  0  0  0  0  0  0
   22.9171    6.5040   20.5899 O   0  0  0  0  0  0  0  0  0  0  0  0
   22.2352    6.8091   20.0243 H   0  0  0  0  0  0  0  0  0  0  0  0
   22.7837    7.6080   11.9324 C   0  0  0  0  0  0  0  0  0  0  0  0
   22.9589    6.8532   10.5223 N   0  0  0  0  0  0  0  0  0  0  0  0
   24.2211    7.5134    9.9286 C   0  0  0  0  0  0  0  0  0  0  0  0
   23.2574    5.3921   10.7855 C   0  0  0  0  0  0  0  0  0  0  0  0
   21.7304    7.1384    9.6879 C   0  0  0  0  0  0  0  0  0  0  0  0
   22.3148    7.7996    7.2626 C   0  0  0  0  0  0  0  0  0  0  0  0
   21.6625    6.8092    8.2062 N   0  0  0  0  0  0  0  0  0  0  0  0
   22.1423    5.3956    7.8732 C   0  0  0  0  0  0  0  0  0  0  0  0
   20.1400    6.8256    7.8559 C   0  0  0  0  0  0  0  0  0  0  0  0
   21.2943    5.5961   12.4764 C   0  0  0  0  0  0  0  0  0  0  0  0
   19.8450    5.7757   12.0758 C   0  0  0  0  0  0  0  0  0  0  0  0
   19.1187    6.7784   12.7460 C   0  0  0  0  0  0  0  0  0  0  0  0
   17.8089    7.0683   12.3869 C   0  0  0  0  0  0  0  0  0  0  0  0
   17.2059    6.3675   11.3485 C   0  0  0  0  0  0  0  0  0  0  0  0
   17.8937    5.3541   10.6668 C   0  0  0  0  0  0  0  0  0  0  0  0
   17.2529    4.6608    9.6280 C   0  0  0  0  0  0  0  0  0  0  0  0
   17.8993    3.6353    8.9431 C   0  0  0  0  0  0  0  0  0  0  0  0
   19.1947    3.2851    9.2939 C   0  0  0  0  0  0  0  0  0  0  0  0
   19.8480    3.9671   10.3235 C   0  0  0  0  0  0  0  0  0  0  0  0
   19.2251    5.0257   11.0319 C   0  0  0  0  0  0  0  0  0  0  0  0
 22 23  1  0
 23 24  1  0
 23 25  1  0
 23 21  1  0
 21 18  1  0
 18 19  1  0
 18 20  1  0
 18 17  1  0
  1 17  1  0
  1 26  1  0
 26 27  1  0
 27 28  2  0
 28 29  1  0
 29 30  2  0
 30 31  1  0
 31 32  2  0
 32 33  1  0
 33 34  2  0
 34 35  1  0
 35 36  2  0
  1  2  1  0
  2  3  1  0
  3  4  2  0
  3  5  1  0
  5  6  2  0
  6  7  1  0
  7  8  2  0
  8 13  1  0
 13 14  2  0
 13 15  1  0
  8  9  1  0
  9 10  2  0
 10 11  1  0
 11 12  2  0
 36 27  1  0
 11  2  1  0
 36 31  1  0
 10  5  1  0
 15 16  1  0
M  CHG 1  18   1
M  CHG 1  23   1
M  END
> <minimizedAffinity>
-7.70539

> <CNNscore>
0.3270882666

> <CNNaffinity>
5.7073998451

> <CNN_VS>
1.8668235540

> <CNNaffinity_variance>
0.1616402119

$$$$



 36 39  0  0  0  0  0  0  0  0999 V2000
   20.1710    9.4908   16.6731 C   0  0  0  0  0  0  0  0  0  0  0  0
   21.3462    8.6736   17.0029 N   0  0  0  0  0  0  0  0  0  0  0  0
   22.6225    9.0911   16.7146 C   0  0  0  0  0  0  0  0  0  0  0  0
   22.9461    9.9687   15.9410 O   0  0  0  0  0  0  0  0  0  0  0  0
   23.5352    8.2437   17.4809 C   0  0  0  0  0  0  0  0  0  0  0  0
   24.9132    8.2401   17.5519 C   0  0  0  0  0  0  0  0  0  0  0  0
   25.5077    7.2791   18.3814 C   0  0  0  0  0  0  0  0  0  0  0  0
   24.7190    6.3542   19.1094 C   0  0  0  0  0  0  0  0  0  0  0  0
   23.3177    6.3865   19.0183 C   0  0  0  0  0  0  0  0  0  0  0  0
   22.7617    7.3470   18.1988 C   0  0  0  0  0  0  0  0  0  0  0  0
   21.3626    7.6249   17.8800 C   0  0  0  0  0  0  0  0  0  0  0  0
   20.4022    6.9596   18.2187 O   0  0  0  0  0  0  0  0  0  0  0  0
   25.3249    5.3136   19.9755 C   0  0  0  0  0  0  0  0  0  0  0  0
   24.7075    4.6484   20.7849 O   0  0  0  0  0  0  0  0  0  0  0  0
   26.6408    5.1705   19.7708 O   0  0  0  0  0  0  0  0  0  0  0  0
   27.0771    5.7046   19.1364 H   0  0  0  0  0  0  0  0  0  0  0  0
   19.1493    8.8649   15.6695 C   0  0  0  0  0  0  0  0  0  0  0  0
   19.4217    9.0657   14.0964 N   0  0  0  0  0  0  0  0  0  0  0  0
   18.0071    8.9840   13.4851 C   0  0  0  0  0  0  0  0  0  0  0  0
   19.9649   10.4610   13.8702 C   0  0  0  0  0  0  0  0  0  0  0  0
   20.3021    7.9284   13.6294 C   0  0  0  0  0  0  0  0  0  0  0  0
   21.0072    5.7157   14.7552 C   0  0  0  0  0  0  0  0  0  0  0  0
   19.9816    6.4757   13.9382 N   0  0  0  0  0  0  0  0  0  0  0  0
   18.5932    6.2739   14.5472 C   0  0  0  0  0  0  0  0  0  0  0  0
   19.9335    5.7658   12.5472 C   0  0  0  0  0  0  0  0  0  0  0  0
   19.4571    9.8694   18.0057 C   0  0  0  0  0  0  0  0  0  0  0  0
   19.9265   11.1954   18.5667 C   0  0  0  0  0  0  0  0  0  0  0  0
   20.6063   12.0556   17.6835 C   0  0  0  0  0  0  0  0  0  0  0  0
   21.0001   13.3243   18.0884 C   0  0  0  0  0  0  0  0  0  0  0  0
   20.7148   13.7574   19.3784 C   0  0  0  0  0  0  0  0  0  0  0  0
   20.0506   12.9241   20.2890 C   0  0  0  0  0  0  0  0  0  0  0  0
   19.7847   13.3898   21.5864 C   0  0  0  0  0  0  0  0  0  0  0  0
   19.1448   12.5818   22.5224 C   0  0  0  0  0  0  0  0  0  0  0  0
   18.7684   11.2930   22.1743 C   0  0  0  0  0  0  0  0  0  0  0  0
   19.0229   10.8151   20.8863 C   0  0  0  0  0  0  0  0  0  0  0  0
   19.6591   11.6156   19.9040 C   0  0  0  0  0  0  0  0  0  0  0  0
 22 23  1  0
 23 24  1  0
 23 25  1  0
 23 21  1  0
 21 18  1  0
 18 19  1  0
 18 20  1  0
 18 17  1  0
  1 17  1  0
  1 26  1  0
 26 27  1  0
 27 28  2  0
 28 29  1  0
 29 30  2  0
 30 31  1  0
 31 32  2  0
 32 33  1  0
 33 34  2  0
 34 35  1  0
 35 36  2  0
  1  2  1  0
  2  3  1  0
  3  4  2  0
  3  5  1  0
  5  6  2  0
  6  7  1  0
  7  8  2  0
  8 13  1  0
 13 14  2  0
 13 15  1  0
  8  9  1  0
  9 10  2  0
 10 11  1  0
 11 12  2  0
 36 27  1  0
 11  2  1  0
 36 31  1  0
 10  5  1  0
 15 16  1  0
M  CHG 1  18   1
M  CHG 1  23   1
M  END
> <minimizedAffinity>
-6.91589

> <CNNscore>
0.3083012700

> <CNNaffinity>
4.7634205818

> <CNN_VS>
1.4685685635

> <CNNaffinity_variance>
0.3399025500

$$$$



 36 39  0  0  0  0  0  0  0  0999 V2000
   22.9872    6.4254   12.5786 C   0  0  0  0  0  0  0  0  0  0  0  0
   23.2179    6.5256   14.0259 N   0  0  0  0  0  0  0  0  0  0  0  0
   22.2149    6.8753   14.8965 C   0  0  0  0  0  0  0  0  0  0  0  0
   21.1598    7.4073   14.6187 O   0  0  0  0  0  0  0  0  0  0  0  0
   22.6739    6.5309   16.2415 C   0  0  0  0  0  0  0  0  0  0  0  0
   22.0568    6.6757   17.4670 C   0  0  0  0  0  0  0  0  0  0  0  0
   22.7725    6.2551   18.5966 C   0  0  0  0  0  0  0  0  0  0  0  0
   24.0740    5.7084   18.4746 C   0  0  0  0  0  0  0  0  0  0  0  0
   24.6732    5.5708   17.2117 C   0  0  0  0  0  0  0  0  0  0  0  0
   23.9420    5.9880   16.1187 C   0  0  0  0  0  0  0  0  0  0  0  0
   24.2845    5.9964   14.6978 C   0  0  0  0  0  0  0  0  0  0  0  0
   25.3668    5.7180   14.2176 O   0  0  0  0  0  0  0  0  0  0  0  0
   24.8604    5.2775   19.6561 C   0  0  0  0  0  0  0  0  0  0  0  0
   24.4268    5.2341   20.7915 O   0  0  0  0  0  0  0  0  0  0  0  0
   26.1153    4.9282   19.3443 O   0  0  0  0  0  0  0  0  0  0  0  0
   26.4081    4.9770   18.4556 H   0  0  0  0  0  0  0  0  0  0  0  0
   21.7258    5.6184   12.1307 C   0  0  0  0  0  0  0  0  0  0  0  0
   21.9590    4.2431   11.3287 N   0  0  0  0  0  0  0  0  0  0  0  0
   22.6217    4.7133   10.0168 C   0  0  0  0  0  0  0  0  0  0  0  0
   22.9531    3.3953   12.0943 C   0  0  0  0  0  0  0  0  0  0  0  0
   20.6057    3.6156   11.0809 C   0  0  0  0  0  0  0  0  0  0  0  0
   18.6752    5.2860   10.7014 C   0  0  0  0  0  0  0  0  0  0  0  0
   19.5921    4.2247   10.1270 N   0  0  0  0  0  0  0  0  0  0  0  0
   20.2109    4.7357    8.8249 C   0  0  0  0  0  0  0  0  0  0  0  0
   18.6637    3.0394    9.7098 C   0  0  0  0  0  0  0  0  0  0  0  0
   22.9396    7.8702   11.9963 C   0  0  0  0  0  0  0  0  0  0  0  0
   23.0504    7.8981   10.4863 C   0  0  0  0  0  0  0  0  0  0  0  0
   24.3238    7.6562    9.9367 C   0  0  0  0  0  0  0  0  0  0  0  0
   24.5025    7.5815    8.5615 C   0  0  0  0  0  0  0  0  0  0  0  0
   23.4120    7.7391    7.7135 C   0  0  0  0  0  0  0  0  0  0  0  0
   22.1317    7.9935    8.2241 C   0  0  0  0  0  0  0  0  0  0  0  0
   21.0535    8.1552    7.3398 C   0  0  0  0  0  0  0  0  0  0  0  0
   19.7724    8.4285    7.8115 C   0  0  0  0  0  0  0  0  0  0  0  0
   19.5544    8.5509    9.1758 C   0  0  0  0  0  0  0  0  0  0  0  0
   20.6160    8.3899   10.0698 C   0  0  0  0  0  0  0  0  0  0  0  0
   21.9300    8.0965    9.6250 C   0  0  0  0  0  0  0  0  0  0  0  0
 22 23  1  0
 23 24  1  0
 23 25  1  0
 23 21  1  0
 21 18  1  0
 18 19  1  0
 18 20  1  0
 18 17  1  0
  1 17  1  0
  1 26  1  0
 26 27  1  0
 27 28  2  0
 28 29  1  0
 29 30  2  0
 30 31  1  0
 31 32  2  0
 32 33  1  0
 33 34  2  0
 34 35  1  0
 35 36  2  0
  1  2  1  0
  2  3  1  0
  3  4  2  0
  3  5  1  0
  5  6  2  0
  6  7  1  0
  7  8  2  0
  8 13  1  0
 13 14  2  0
 13 15  1  0
  8  9  1  0
  9 10  2  0
 10 11  1  0
 11 12  2  0
 36 27  1  0
 11  2  1  0
 36 31  1  0
 10  5  1  0
 15 16  1  0
M  CHG 1  18   1
M  CHG 1  23   1
M  END
> <minimizedAffinity>
-8.06705

> <CNNscore>
0.2868463695

> <CNNaffinity>
4.7268729210

> <CNN_VS>
1.3558863401

> <CNNaffinity_variance>
1.1916049719

$$$$



 36 39  0  0  0  0  0  0  0  0999 V2000
   21.0007    6.7268   13.4218 C   0  0  0  0  0  0  0  0  0  0  0  0
   21.9747    6.4533   14.4868 N   0  0  0  0  0  0  0  0  0  0  0  0
   23.2596    6.9354   14.4341 C   0  0  0  0  0  0  0  0  0  0  0  0
   23.8400    7.3612   13.4568 O   0  0  0  0  0  0  0  0  0  0  0  0
   23.8261    6.7962   15.7751 C   0  0  0  0  0  0  0  0  0  0  0  0
   25.0748    7.1233   16.2623 C   0  0  0  0  0  0  0  0  0  0  0  0
   25.3244    6.8516   17.6147 C   0  0  0  0  0  0  0  0  0  0  0  0
   24.3312    6.2639   18.4368 C   0  0  0  0  0  0  0  0  0  0  0  0
   23.0681    5.9460   17.9111 C   0  0  0  0  0  0  0  0  0  0  0  0
   22.8505    6.2306   16.5788 C   0  0  0  0  0  0  0  0  0  0  0  0
   21.6722    6.0074   15.7434 C   0  0  0  0  0  0  0  0  0  0  0  0
   20.6639    5.4090   16.0674 O   0  0  0  0  0  0  0  0  0  0  0  0
   24.5786    5.9456   19.8643 C   0  0  0  0  0  0  0  0  0  0  0  0
   25.4172    5.1573   20.2571 O   0  0  0  0  0  0  0  0  0  0  0  0
   23.7786    6.6282   20.6938 O   0  0  0  0  0  0  0  0  0  0  0  0
   23.1456    7.2261   20.3478 H   0  0  0  0  0  0  0  0  0  0  0  0
   20.4430    5.4845   12.6547 C   0  0  0  0  0  0  0  0  0  0  0  0
   20.2123    5.6219   11.0683 N   0  0  0  0  0  0  0  0  0  0  0  0
   20.4974    4.1965   10.5503 C   0  0  0  0  0  0  0  0  0  0  0  0
   18.7548    5.9448   10.8141 C   0  0  0  0  0  0  0  0  0  0  0  0
   21.2146    6.6228   10.5389 C   0  0  0  0  0  0  0  0  0  0  0  0
   23.5959    7.3128    9.8220 C   0  0  0  0  0  0  0  0  0  0  0  0
   22.5801    6.2055   10.0197 N   0  0  0  0  0  0  0  0  0  0  0  0
   23.2152    5.0678   10.8206 C   0  0  0  0  0  0  0  0  0  0  0  0
   22.3111    5.6149    8.5985 C   0  0  0  0  0  0  0  0  0  0  0  0
   19.8307    7.5517   14.0381 C   0  0  0  0  0  0  0  0  0  0  0  0
   19.9317    9.0315   13.7330 C   0  0  0  0  0  0  0  0  0  0  0  0
   19.3457    9.4755   12.5322 C   0  0  0  0  0  0  0  0  0  0  0  0
   19.3184   10.8263   12.2111 C   0  0  0  0  0  0  0  0  0  0  0  0
   19.8684   11.7559   13.0866 C   0  0  0  0  0  0  0  0  0  0  0  0
   20.4711   11.3498   14.2851 C   0  0  0  0  0  0  0  0  0  0  0  0
   21.0237   12.3137   15.1431 C   0  0  0  0  0  0  0  0  0  0  0  0
   21.6474   11.9441   16.3317 C   0  0  0  0  0  0  0  0  0  0  0  0
   21.7328   10.6028   16.6744 C   0  0  0  0  0  0  0  0  0  0  0  0
   21.1854    9.6310   15.8330 C   0  0  0  0  0  0  0  0  0  0  0  0
   20.5305    9.9728   14.6229 C   0  0  0  0  0  0  0  0  0  0  0  0
 22 23  1  0
 23 24  1  0
 23 25  1  0
 23 21  1  0
 21 18  1  0
 18 19  1  0
 18 20  1  0
 18 17  1  0
  1 17  1  0
  1 26  1  0
 26 27  1  0
 27 28  2  0
 28 29  1  0
 29 30  2  0
 30 31  1  0
 31 32  2  0
 32 33  1  0
 33 34  2  0
 34 35  1  0
 35 36  2  0
  1  2  1  0
  2  3  1  0
  3  4  2  0
  3  5  1  0
  5  6  2  0
  6  7  1  0
  7  8  2  0
  8 13  1  0
 13 14  2  0
 13 15  1  0
  8  9  1  0
  9 10  2  0
 10 11  1  0
 11 12  2  0
 36 27  1  0
 11  2  1  0
 36 31  1  0
 10  5  1  0
 15 16  1  0
M  CHG 1  18   1
M  CHG 1  23   1
M  END
> <minimizedAffinity>
-6.84139

> <CNNscore>
0.2628231645

> <CNNaffinity>
5.5040493011

> <CNN_VS>
1.4465916157

> <CNNaffinity_variance>
0.0780018866

$$$$



 36 39  0  0  0  0  0  0  0  0999 V2000
   22.5234    6.7491   14.0015 C   0  0  0  0  0  0  0  0  0  0  0  0
   23.0205    6.8733   15.3782 N   0  0  0  0  0  0  0  0  0  0  0  0
   22.1956    6.7066   16.4637 C   0  0  0  0  0  0  0  0  0  0  0  0
   20.9822    6.7338   16.4692 O   0  0  0  0  0  0  0  0  0  0  0  0
   23.0552    6.5367   17.6344 C   0  0  0  0  0  0  0  0  0  0  0  0
   22.7373    6.3391   18.9625 C   0  0  0  0  0  0  0  0  0  0  0  0
   23.8041    6.2234   19.8645 C   0  0  0  0  0  0  0  0  0  0  0  0
   25.1474    6.3096   19.4218 C   0  0  0  0  0  0  0  0  0  0  0  0
   25.4377    6.5077   18.0619 C   0  0  0  0  0  0  0  0  0  0  0  0
   24.3673    6.6117   17.1978 C   0  0  0  0  0  0  0  0  0  0  0  0
   24.3346    6.8354   15.7538 C   0  0  0  0  0  0  0  0  0  0  0  0
   25.2899    7.0828   15.0428 O   0  0  0  0  0  0  0  0  0  0  0  0
   26.2926    6.2135   20.3595 C   0  0  0  0  0  0  0  0  0  0  0  0
   26.4361    6.9142   21.3430 O   0  0  0  0  0  0  0  0  0  0  0  0
   27.1657    5.2579   20.0152 O   0  0  0  0  0  0  0  0  0  0  0  0
   27.0160    4.7407   19.2484 H   0  0  0  0  0  0  0  0  0  0  0  0
   22.0456    8.0688   13.3139 C   0  0  0  0  0  0  0  0  0  0  0  0
   20.4756    8.2263   12.9988 N   0  0  0  0  0  0  0  0  0  0  0  0
   20.4502    8.4862   11.4778 C   0  0  0  0  0  0  0  0  0  0  0  0
   19.7885    6.9052   13.2738 C   0  0  0  0  0  0  0  0  0  0  0  0
   19.9627    9.4150   13.7803 C   0  0  0  0  0  0  0  0  0  0  0  0
   18.0732   10.8681   14.7698 C   0  0  0  0  0  0  0  0  0  0  0  0
   18.5061    9.8450   13.7388 N   0  0  0  0  0  0  0  0  0  0  0  0
   18.0415   10.2910   12.3515 C   0  0  0  0  0  0  0  0  0  0  0  0
   17.6911    8.5501   14.0547 C   0  0  0  0  0  0  0  0  0  0  0  0
   23.6336    6.0657   13.1475 C   0  0  0  0  0  0  0  0  0  0  0  0
   23.3836    6.1823   11.6585 C   0  0  0  0  0  0  0  0  0  0  0  0
   24.1678    7.1142   10.9522 C   0  0  0  0  0  0  0  0  0  0  0  0
   24.0644    7.2299    9.5722 C   0  0  0  0  0  0  0  0  0  0  0  0
   23.1825    6.4122    8.8745 C   0  0  0  0  0  0  0  0  0  0  0  0
   22.3769    5.4818    9.5451 C   0  0  0  0  0  0  0  0  0  0  0  0
   21.4916    4.6768    8.8111 C   0  0  0  0  0  0  0  0  0  0  0  0
   20.6627    3.7563    9.4468 C   0  0  0  0  0  0  0  0  0  0  0  0
   20.7038    3.6341   10.8278 C   0  0  0  0  0  0  0  0  0  0  0  0
   21.5814    4.4256   11.5730 C   0  0  0  0  0  0  0  0  0  0  0  0
   22.4496    5.3622   10.9573 C   0  0  0  0  0  0  0  0  0  0  0  0
 22 23  1  0
 23 24  1  0
 23 25  1  0
 23 21  1  0
 21 18  1  0
 18 19  1  0
 18 20  1  0
 18 17  1  0
  1 17  1  0
  1 26  1  0
 26 27  1  0
 27 28  2  0
 28 29  1  0
 29 30  2  0
 30 31  1  0
 31 32  2  0
 32 33  1  0
 33 34  2  0
 34 35  1  0
 35 36  2  0
  1  2  1  0
  2  3  1  0
  3  4  2  0
  3  5  1  0
  5  6  2  0
  6  7  1  0
  7  8  2  0
  8 13  1  0
 13 14  2  0
 13 15  1  0
  8  9  1  0
  9 10  2  0
 10 11  1  0
 11 12  2  0
 36 27  1  0
 11  2  1  0
 36 31  1  0
 10  5  1  0
 15 16  1  0
M  CHG 1  18   1
M  CHG 1  23   1
M  END
> <minimizedAffinity>
-7.85380

> <CNNscore>
0.2533147335

> <CNNaffinity>
5.4283409119

> <CNN_VS>
1.3750786781

> <CNNaffinity_variance>
0.0900259390

$$$$



 36 39  0  0  0  0  0  0  0  0999 V2000
   23.1451    6.9513   13.2240 C   0  0  0  0  0  0  0  0  0  0  0  0
   23.8177    7.0177   14.5282 N   0  0  0  0  0  0  0  0  0  0  0  0
   23.7455    8.1347   15.3241 C   0  0  0  0  0  0  0  0  0  0  0  0
   23.4103    9.2513   14.9861 O   0  0  0  0  0  0  0  0  0  0  0  0
   24.1979    7.7418   16.6580 C   0  0  0  0  0  0  0  0  0  0  0  0
   24.3213    8.4775   17.8188 C   0  0  0  0  0  0  0  0  0  0  0  0
   24.8041    7.8076   18.9516 C   0  0  0  0  0  0  0  0  0  0  0  0
   25.1501    6.4347   18.8960 C   0  0  0  0  0  0  0  0  0  0  0  0
   25.0093    5.7127   17.6994 C   0  0  0  0  0  0  0  0  0  0  0  0
   24.5262    6.3975   16.6035 C   0  0  0  0  0  0  0  0  0  0  0  0
   24.2871    5.9452   15.2344 C   0  0  0  0  0  0  0  0  0  0  0  0
   24.5834    4.8590   14.7741 O   0  0  0  0  0  0  0  0  0  0  0  0
   25.6847    5.7095   20.0743 C   0  0  0  0  0  0  0  0  0  0  0  0
   25.0795    5.5531   21.1175 O   0  0  0  0  0  0  0  0  0  0  0  0
   26.9184    5.2292   19.8716 O   0  0  0  0  0  0  0  0  0  0  0  0
   27.3483    5.3731   19.0516 H   0  0  0  0  0  0  0  0  0  0  0  0
   22.6822    8.3125   12.6111 C   0  0  0  0  0  0  0  0  0  0  0  0
   21.1102    8.5170   12.3357 N   0  0  0  0  0  0  0  0  0  0  0  0
   20.8217    9.8934   12.9712 C   0  0  0  0  0  0  0  0  0  0  0  0
   20.8867    8.6194   10.8415 C   0  0  0  0  0  0  0  0  0  0  0  0
   20.3672    7.4054   13.0419 C   0  0  0  0  0  0  0  0  0  0  0  0
   18.0080    8.2284   12.3954 C   0  0  0  0  0  0  0  0  0  0  0  0
   18.9222    7.0639   12.7198 N   0  0  0  0  0  0  0  0  0  0  0  0
   18.7757    5.9857   11.6449 C   0  0  0  0  0  0  0  0  0  0  0  0
   18.3538    6.4273   14.0285 C   0  0  0  0  0  0  0  0  0  0  0  0
   24.0875    6.2046   12.2325 C   0  0  0  0  0  0  0  0  0  0  0  0
   23.3505    5.6353   11.0384 C   0  0  0  0  0  0  0  0  0  0  0  0
   22.5807    4.4771   11.2582 C   0  0  0  0  0  0  0  0  0  0  0  0
   21.8069    3.9338   10.2410 C   0  0  0  0  0  0  0  0  0  0  0  0
   21.7830    4.5421    8.9909 C   0  0  0  0  0  0  0  0  0  0  0  0
   22.5460    5.6889    8.7318 C   0  0  0  0  0  0  0  0  0  0  0  0
   22.5049    6.2738    7.4563 C   0  0  0  0  0  0  0  0  0  0  0  0
   23.2651    7.4016    7.1585 C   0  0  0  0  0  0  0  0  0  0  0  0
   24.0829    7.9555    8.1322 C   0  0  0  0  0  0  0  0  0  0  0  0
   24.1331    7.3875    9.4077 C   0  0  0  0  0  0  0  0  0  0  0  0
   23.3615    6.2482    9.7497 C   0  0  0  0  0  0  0  0  0  0  0  0
 22 23  1  0
 23 24  1  0
 23 25  1  0
 23 21  1  0
 21 18  1  0
 18 19  1  0
 18 20  1  0
 18 17  1  0
  1 17  1  0
  1 26  1  0
 26 27  1  0
 27 28  2  0
 28 29  1  0
 29 30  2  0
 30 31  1  0
 31 32  2  0
 32 33  1  0
 33 34  2  0
 34 35  1  0
 35 36  2  0
  1  2  1  0
  2  3  1  0
  3  4  2  0
  3  5  1  0
  5  6  2  0
  6  7  1  0
  7  8  2  0
  8 13  1  0
 13 14  2  0
 13 15  1  0
  8  9  1  0
  9 10  2  0
 10 11  1  0
 11 12  2  0
 36 27  1  0
 11  2  1  0
 36 31  1  0
 10  5  1  0
 15 16  1  0
M  CHG 1  18   1
M  CHG 1  23   1
M  END
> <minimizedAffinity>
-9.21291

> <CNNscore>
0.2429935038

> <CNNaffinity>
4.9489922523

> <CNN_VS>
1.2025729418

> <CNNaffinity_variance>
0.9137114882

$$$$
