


 17 19  0  0  0  0  0  0  0  0999 V2000
   22.1384   34.9310   43.7246 O   0  0  0  0  0  0  0  0  0  0  0  0
   22.9824   35.5046   43.0565 C   0  0  0  0  0  0  0  0  0  0  0  0
   24.3140   35.6550   43.4278 N   0  0  0  0  0  0  0  0  0  0  0  0
   25.0342   36.3559   42.4763 C   0  0  0  0  0  0  0  0  0  0  0  0
   26.3698   36.6894   42.5209 C   0  0  0  0  0  0  0  0  0  0  0  0
   26.8715   37.4055   41.4391 C   0  0  0  0  0  0  0  0  0  0  0  0
   28.1646   37.7562   41.4302 F   0  0  0  0  0  0  0  0  0  0  0  0
   26.0595   37.7714   40.3555 C   0  0  0  0  0  0  0  0  0  0  0  0
   24.7063   37.4208   40.3347 C   0  0  0  0  0  0  0  0  0  0  0  0
   24.2024   36.7058   41.4107 C   0  0  0  0  0  0  0  0  0  0  0  0
   22.8043   36.1890   41.6807 C   0  0  0  0  0  0  0  0  0  0  0  0
   21.7427   37.2869   41.7220 C   0  0  0  0  0  0  0  0  0  0  0  0
   21.0131   37.1316   40.3988 C   0  0  0  0  0  0  0  0  0  0  0  0
   20.9973   35.6900   40.1844 N   0  0  0  0  0  0  0  0  0  0  0  0
   22.3081   35.1913   40.6271 C   0  0  0  0  0  0  0  0  0  0  0  0
   24.6973   35.3057   44.2647 H   0  0  0  0  0  0  0  0  0  0  0  0
   20.8558   35.4816   39.1960 H   0  0  0  0  0  0  0  0  0  0  0  0
  1  2  2  0
  2  3  1  0
  3  4  1  0
  4  5  2  0
  5  6  1  0
  6  7  1  0
  6  8  2  0
  8  9  1  0
  9 10  2  0
 10 11  1  0
 11 12  1  0
 12 13  1  0
 13 14  1  0
 14 15  1  0
 11  2  1  0
 10  4  1  0
 15 11  1  0
  3 16  1  0
 14 17  1  0
M  END
> <minimizedAffinity>
-7.10729

> <CNNscore>
0.9828531742

> <CNNaffinity>
5.0732688904

> <CNN_VS>
4.9862785339

> <CNNaffinity_variance>
0.4080599248

$$$$



 17 19  0  0  0  0  0  0  0  0999 V2000
   21.4834   34.2806   41.5237 O   0  0  0  0  0  0  0  0  0  0  0  0
   22.5595   34.8549   41.5288 C   0  0  0  0  0  0  0  0  0  0  0  0
   22.9910   35.7303   40.5383 N   0  0  0  0  0  0  0  0  0  0  0  0
   24.2558   36.2235   40.8073 C   0  0  0  0  0  0  0  0  0  0  0  0
   24.9872   37.1039   40.0412 C   0  0  0  0  0  0  0  0  0  0  0  0
   26.2454   37.4533   40.5207 C   0  0  0  0  0  0  0  0  0  0  0  0
   27.0000   38.3066   39.8153 F   0  0  0  0  0  0  0  0  0  0  0  0
   26.7467   36.9359   41.7241 C   0  0  0  0  0  0  0  0  0  0  0  0
   25.9841   36.0433   42.4832 C   0  0  0  0  0  0  0  0  0  0  0  0
   24.7287   35.6933   42.0094 C   0  0  0  0  0  0  0  0  0  0  0  0
   23.6816   34.7650   42.5896 C   0  0  0  0  0  0  0  0  0  0  0  0
   24.1729   33.3311   42.7815 C   0  0  0  0  0  0  0  0  0  0  0  0
   24.3900   33.2230   44.2809 C   0  0  0  0  0  0  0  0  0  0  0  0
   23.3108   34.0265   44.8413 N   0  0  0  0  0  0  0  0  0  0  0  0
   23.1746   35.2028   43.9691 C   0  0  0  0  0  0  0  0  0  0  0  0
   22.4619   35.9698   39.7433 H   0  0  0  0  0  0  0  0  0  0  0  0
   23.5431   34.3164   45.7912 H   0  0  0  0  0  0  0  0  0  0  0  0
  1  2  2  0
  2  3  1  0
  3  4  1  0
  4  5  2  0
  5  6  1  0
  6  7  1  0
  6  8  2  0
  8  9  1  0
  9 10  2  0
 10 11  1  0
 11 12  1  0
 12 13  1  0
 13 14  1  0
 14 15  1  0
 11  2  1  0
 10  4  1  0
 15 11  1  0
  3 16  1  0
 14 17  1  0
M  END
> <minimizedAffinity>
-6.61241

> <CNNscore>
0.7945768833

> <CNNaffinity>
4.3259549141

> <CNN_VS>
3.4373037815

> <CNNaffinity_variance>
0.4317436218

$$$$



 17 19  0  0  0  0  0  0  0  0999 V2000
   24.6602   34.6371   44.1462 O   0  0  0  0  0  0  0  0  0  0  0  0
   25.3945   34.5210   43.1793 C   0  0  0  0  0  0  0  0  0  0  0  0
   26.2280   33.4321   42.9481 N   0  0  0  0  0  0  0  0  0  0  0  0
   26.9497   33.5803   41.7766 C   0  0  0  0  0  0  0  0  0  0  0  0
   27.8682   32.7012   41.2469 C   0  0  0  0  0  0  0  0  0  0  0  0
   28.4717   33.0738   40.0503 C   0  0  0  0  0  0  0  0  0  0  0  0
   29.3731   32.2559   39.4903 F   0  0  0  0  0  0  0  0  0  0  0  0
   28.1623   34.2843   39.4129 C   0  0  0  0  0  0  0  0  0  0  0  0
   27.2262   35.1596   39.9717 C   0  0  0  0  0  0  0  0  0  0  0  0
   26.6213   34.7914   41.1640 C   0  0  0  0  0  0  0  0  0  0  0  0
   25.5875   35.5104   42.0060 C   0  0  0  0  0  0  0  0  0  0  0  0
   26.0405   36.8874   42.4885 C   0  0  0  0  0  0  0  0  0  0  0  0
   25.2697   37.8505   41.6021 C   0  0  0  0  0  0  0  0  0  0  0  0
   23.9811   37.1935   41.4233 N   0  0  0  0  0  0  0  0  0  0  0  0
   24.2656   35.7589   41.2692 C   0  0  0  0  0  0  0  0  0  0  0  0
   26.2962   32.6518   43.5445 H   0  0  0  0  0  0  0  0  0  0  0  0
   23.5146   37.5523   40.5902 H   0  0  0  0  0  0  0  0  0  0  0  0
  1  2  2  0
  2  3  1  0
  3  4  1  0
  4  5  2  0
  5  6  1  0
  6  7  1  0
  6  8  2  0
  8  9  1  0
  9 10  2  0
 10 11  1  0
 11 12  1  0
 12 13  1  0
 13 14  1  0
 14 15  1  0
 11  2  1  0
 10  4  1  0
 15 11  1  0
  3 16  1  0
 14 17  1  0
M  END
> <minimizedAffinity>
-5.90464

> <CNNscore>
0.6877299547

> <CNNaffinity>
4.3437113762

> <CNN_VS>
2.9873003960

> <CNNaffinity_variance>
0.3009493053

$$$$



 17 19  0  0  0  0  0  0  0  0999 V2000
   22.0775   35.3211   40.2247 O   0  0  0  0  0  0  0  0  0  0  0  0
   23.1852   35.4735   40.7118 C   0  0  0  0  0  0  0  0  0  0  0  0
   24.3041   35.9046   40.0075 N   0  0  0  0  0  0  0  0  0  0  0  0
   25.4229   35.9759   40.8190 C   0  0  0  0  0  0  0  0  0  0  0  0
   26.6949   36.3570   40.4529 C   0  0  0  0  0  0  0  0  0  0  0  0
   27.6625   36.3457   41.4522 C   0  0  0  0  0  0  0  0  0  0  0  0
   28.9170   36.7075   41.1516 F   0  0  0  0  0  0  0  0  0  0  0  0
   27.3604   35.9651   42.7680 C   0  0  0  0  0  0  0  0  0  0  0  0
   26.0611   35.5821   43.1137 C   0  0  0  0  0  0  0  0  0  0  0  0
   25.0932   35.5931   42.1208 C   0  0  0  0  0  0  0  0  0  0  0  0
   23.6220   35.2366   42.1767 C   0  0  0  0  0  0  0  0  0  0  0  0
   23.3563   33.8010   42.6270 C   0  0  0  0  0  0  0  0  0  0  0  0
   22.8678   33.9573   44.0568 C   0  0  0  0  0  0  0  0  0  0  0  0
   22.0862   35.1869   44.0184 N   0  0  0  0  0  0  0  0  0  0  0  0
   22.8172   36.1149   43.1425 C   0  0  0  0  0  0  0  0  0  0  0  0
   24.3007   36.1312   39.0495 H   0  0  0  0  0  0  0  0  0  0  0  0
   22.0003   35.5799   44.9557 H   0  0  0  0  0  0  0  0  0  0  0  0
  1  2  2  0
  2  3  1  0
  3  4  1  0
  4  5  2  0
  5  6  1  0
  6  7  1  0
  6  8  2  0
  8  9  1  0
  9 10  2  0
 10 11  1  0
 11 12  1  0
 12 13  1  0
 13 14  1  0
 14 15  1  0
 11  2  1  0
 10  4  1  0
 15 11  1  0
  3 16  1  0
 14 17  1  0
M  END
> <minimizedAffinity>
-6.57885

> <CNNscore>
0.6012367606

> <CNNaffinity>
4.2233772278

> <CNN_VS>
2.5392496586

> <CNNaffinity_variance>
0.3838751614

$$$$



 17 19  0  0  0  0  0  0  0  0999 V2000
   20.8485   33.0978   43.1515 O   0  0  0  0  0  0  0  0  0  0  0  0
   21.4220   34.0420   42.6346 C   0  0  0  0  0  0  0  0  0  0  0  0
   22.7508   34.0294   42.2246 N   0  0  0  0  0  0  0  0  0  0  0  0
   23.1297   35.2443   41.6807 C   0  0  0  0  0  0  0  0  0  0  0  0
   24.3676   35.5840   41.1815 C   0  0  0  0  0  0  0  0  0  0  0  0
   24.5087   36.8764   40.6870 C   0  0  0  0  0  0  0  0  0  0  0  0
   25.6919   37.2604   40.1892 F   0  0  0  0  0  0  0  0  0  0  0  0
   23.4448   37.7904   40.6955 C   0  0  0  0  0  0  0  0  0  0  0  0
   22.1978   37.4206   41.2082 C   0  0  0  0  0  0  0  0  0  0  0  0
   22.0525   36.1327   41.7011 C   0  0  0  0  0  0  0  0  0  0  0  0
   20.8508   35.4432   42.3136 C   0  0  0  0  0  0  0  0  0  0  0  0
   20.3145   36.1413   43.5623 C   0  0  0  0  0  0  0  0  0  0  0  0
   19.0520   36.8309   43.0745 C   0  0  0  0  0  0  0  0  0  0  0  0
   18.5043   35.8932   42.1024 N   0  0  0  0  0  0  0  0  0  0  0  0
   19.6517   35.3467   41.3624 C   0  0  0  0  0  0  0  0  0  0  0  0
   23.3485   33.2518   42.3107 H   0  0  0  0  0  0  0  0  0  0  0  0
   17.8706   36.3755   41.4651 H   0  0  0  0  0  0  0  0  0  0  0  0
  1  2  2  0
  2  3  1  0
  3  4  1  0
  4  5  2  0
  5  6  1  0
  6  7  1  0
  6  8  2  0
  8  9  1  0
  9 10  2  0
 10 11  1  0
 11 12  1  0
 12 13  1  0
 13 14  1  0
 14 15  1  0
 11  2  1  0
 10  4  1  0
 15 11  1  0
  3 16  1  0
 14 17  1  0
M  END
> <minimizedAffinity>
-6.39864

> <CNNscore>
0.5884369612

> <CNNaffinity>
4.4775767326

> <CNN_VS>
2.6347715855

> <CNNaffinity_variance>
0.3868494928

$$$$



 17 19  0  0  0  0  0  0  0  0999 V2000
   19.3659   35.6261   40.8378 O   0  0  0  0  0  0  0  0  0  0  0  0
   20.4998   35.9246   41.1736 C   0  0  0  0  0  0  0  0  0  0  0  0
   21.3919   36.6442   40.3862 N   0  0  0  0  0  0  0  0  0  0  0  0
   22.6063   36.8256   41.0247 C   0  0  0  0  0  0  0  0  0  0  0  0
   23.7138   37.4838   40.5376 C   0  0  0  0  0  0  0  0  0  0  0  0
   24.8276   37.5328   41.3694 C   0  0  0  0  0  0  0  0  0  0  0  0
   25.9328   38.1606   40.9458 F   0  0  0  0  0  0  0  0  0  0  0  0
   24.8257   36.9416   42.6414 C   0  0  0  0  0  0  0  0  0  0  0  0
   23.6883   36.2790   43.1124 C   0  0  0  0  0  0  0  0  0  0  0  0
   22.5754   36.2289   42.2868 C   0  0  0  0  0  0  0  0  0  0  0  0
   21.2167   35.5953   42.5041 C   0  0  0  0  0  0  0  0  0  0  0  0
   21.2768   34.0909   42.7636 C   0  0  0  0  0  0  0  0  0  0  0  0
   21.0237   33.9731   44.2567 C   0  0  0  0  0  0  0  0  0  0  0  0
   20.0527   35.0270   44.5229 N   0  0  0  0  0  0  0  0  0  0  0  0
   20.4556   36.1782   43.7011 C   0  0  0  0  0  0  0  0  0  0  0  0
   21.1851   36.9830   39.4852 H   0  0  0  0  0  0  0  0  0  0  0  0
   20.0657   35.2773   45.5116 H   0  0  0  0  0  0  0  0  0  0  0  0
  1  2  2  0
  2  3  1  0
  3  4  1  0
  4  5  2  0
  5  6  1  0
  6  7  1  0
  6  8  2  0
  8  9  1  0
  9 10  2  0
 10 11  1  0
 11 12  1  0
 12 13  1  0
 13 14  1  0
 14 15  1  0
 11  2  1  0
 10  4  1  0
 15 11  1  0
  3 16  1  0
 14 17  1  0
M  END
> <minimizedAffinity>
-6.53916

> <CNNscore>
0.5788853168

> <CNNaffinity>
4.2501125336

> <CNN_VS>
2.4603276253

> <CNNaffinity_variance>
0.3346606195

$$$$



 17 19  0  0  0  0  0  0  0  0999 V2000
   21.9594   38.0938   39.9912 O   0  0  0  0  0  0  0  0  0  0  0  0
   21.3722   37.4069   40.8103 C   0  0  0  0  0  0  0  0  0  0  0  0
   20.0300   37.5517   41.1438 N   0  0  0  0  0  0  0  0  0  0  0  0
   19.6415   36.6387   42.1086 C   0  0  0  0  0  0  0  0  0  0  0  0
   18.3922   36.5030   42.6725 C   0  0  0  0  0  0  0  0  0  0  0  0
   18.2447   35.5070   43.6322 C   0  0  0  0  0  0  0  0  0  0  0  0
   17.0504   35.3309   44.2135 F   0  0  0  0  0  0  0  0  0  0  0  0
   19.3137   34.6808   44.0091 C   0  0  0  0  0  0  0  0  0  0  0  0
   20.5723   34.8392   43.4215 C   0  0  0  0  0  0  0  0  0  0  0  0
   20.7234   35.8302   42.4634 C   0  0  0  0  0  0  0  0  0  0  0  0
   21.9387   36.2451   41.6600 C   0  0  0  0  0  0  0  0  0  0  0  0
   23.1196   36.6902   42.5212 C   0  0  0  0  0  0  0  0  0  0  0  0
   24.0817   35.5172   42.4461 C   0  0  0  0  0  0  0  0  0  0  0  0
   23.9265   35.0349   41.0794 N   0  0  0  0  0  0  0  0  0  0  0  0
   22.4921   35.1268   40.7684 C   0  0  0  0  0  0  0  0  0  0  0  0
   19.4299   38.2213   40.7429 H   0  0  0  0  0  0  0  0  0  0  0  0
   24.2418   34.0675   41.0086 H   0  0  0  0  0  0  0  0  0  0  0  0
  1  2  2  0
  2  3  1  0
  3  4  1  0
  4  5  2  0
  5  6  1  0
  6  7  1  0
  6  8  2  0
  8  9  1  0
  9 10  2  0
 10 11  1  0
 11 12  1  0
 12 13  1  0
 13 14  1  0
 14 15  1  0
 11  2  1  0
 10  4  1  0
 15 11  1  0
  3 16  1  0
 14 17  1  0
M  END
> <minimizedAffinity>
-6.65483

> <CNNscore>
0.5730071664

> <CNNaffinity>
4.3565239906

> <CNN_VS>
2.4963195324

> <CNNaffinity_variance>
0.2626070082

$$$$



 17 19  0  0  0  0  0  0  0  0999 V2000
   26.4797   31.0033   43.0439 O   0  0  0  0  0  0  0  0  0  0  0  0
   26.6407   32.1801   42.7670 C   0  0  0  0  0  0  0  0  0  0  0  0
   25.8994   33.2258   43.3063 N   0  0  0  0  0  0  0  0  0  0  0  0
   26.2996   34.4503   42.8006 C   0  0  0  0  0  0  0  0  0  0  0  0
   25.7818   35.6888   43.1091 C   0  0  0  0  0  0  0  0  0  0  0  0
   26.3509   36.7822   42.4646 C   0  0  0  0  0  0  0  0  0  0  0  0
   25.8857   38.0109   42.7274 F   0  0  0  0  0  0  0  0  0  0  0  0
   27.4000   36.6336   41.5456 C   0  0  0  0  0  0  0  0  0  0  0  0
   27.9077   35.3651   41.2496 C   0  0  0  0  0  0  0  0  0  0  0  0
   27.3439   34.2724   41.8908 C   0  0  0  0  0  0  0  0  0  0  0  0
   27.6649   32.7958   41.7848 C   0  0  0  0  0  0  0  0  0  0  0  0
   27.5100   32.2350   40.3721 C   0  0  0  0  0  0  0  0  0  0  0  0
   28.9413   32.0778   39.8887 C   0  0  0  0  0  0  0  0  0  0  0  0
   29.6636   31.6685   41.0866 N   0  0  0  0  0  0  0  0  0  0  0  0
   29.1016   32.4522   42.1969 C   0  0  0  0  0  0  0  0  0  0  0  0
   25.1786   33.1094   43.9666 H   0  0  0  0  0  0  0  0  0  0  0  0
   30.6590   31.8661   40.9835 H   0  0  0  0  0  0  0  0  0  0  0  0
  1  2  2  0
  2  3  1  0
  3  4  1  0
  4  5  2  0
  5  6  1  0
  6  7  1  0
  6  8  2  0
  8  9  1  0
  9 10  2  0
 10 11  1  0
 11 12  1  0
 12 13  1  0
 13 14  1  0
 14 15  1  0
 11  2  1  0
 10  4  1  0
 15 11  1  0
  3 16  1  0
 14 17  1  0
M  END
> <minimizedAffinity>
-5.66130

> <CNNscore>
0.5551637411

> <CNNaffinity>
4.2445735931

> <CNN_VS>
2.3564333916

> <CNNaffinity_variance>
0.2157896757

$$$$



 17 19  0  0  0  0  0  0  0  0999 V2000
   24.8269   36.4492   39.6040 O   0  0  0  0  0  0  0  0  0  0  0  0
   24.5237   35.8241   40.6064 C   0  0  0  0  0  0  0  0  0  0  0  0
   25.3954   35.0111   41.3227 N   0  0  0  0  0  0  0  0  0  0  0  0
   24.7704   34.4232   42.4086 C   0  0  0  0  0  0  0  0  0  0  0  0
   25.3294   33.5603   43.3251 C   0  0  0  0  0  0  0  0  0  0  0  0
   24.4941   33.0947   44.3353 C   0  0  0  0  0  0  0  0  0  0  0  0
   24.9858   32.2527   45.2541 F   0  0  0  0  0  0  0  0  0  0  0  0
   23.1488   33.4829   44.4183 C   0  0  0  0  0  0  0  0  0  0  0  0
   22.6055   34.3601   43.4750 C   0  0  0  0  0  0  0  0  0  0  0  0
   23.4351   34.8275   42.4670 C   0  0  0  0  0  0  0  0  0  0  0  0
   23.1500   35.7695   41.3154 C   0  0  0  0  0  0  0  0  0  0  0  0
   22.0445   35.2788   40.3820 C   0  0  0  0  0  0  0  0  0  0  0  0
   20.8546   36.1505   40.7445 C   0  0  0  0  0  0  0  0  0  0  0  0
   21.4563   37.4451   41.0384 N   0  0  0  0  0  0  0  0  0  0  0  0
   22.7041   37.1662   41.7651 C   0  0  0  0  0  0  0  0  0  0  0  0
   26.3408   34.8710   41.0865 H   0  0  0  0  0  0  0  0  0  0  0  0
   20.8282   38.0031   41.6168 H   0  0  0  0  0  0  0  0  0  0  0  0
  1  2  2  0
  2  3  1  0
  3  4  1  0
  4  5  2  0
  5  6  1  0
  6  7  1  0
  6  8  2  0
  8  9  1  0
  9 10  2  0
 10 11  1  0
 11 12  1  0
 12 13  1  0
 13 14  1  0
 14 15  1  0
 11  2  1  0
 10  4  1  0
 15 11  1  0
  3 16  1  0
 14 17  1  0
M  END
> <minimizedAffinity>
-5.49215

> <CNNscore>
0.4997766614

> <CNNaffinity>
4.1198406219

> <CNN_VS>
2.0590002537

> <CNNaffinity_variance>
0.1945702285

$$$$
