


 20 20  0  0  0  0  0  0  0  0999 V2000
   20.9243   61.3695   29.0196 C   0  0  0  0  0  0  0  0  0  0  0  0
   19.6761   62.1235   28.8819 N   0  0  0  0  0  0  0  0  0  0  0  0
   18.7088   61.7234   27.9803 C   0  0  0  0  0  0  0  0  0  0  0  0
   17.5633   62.3925   27.8474 C   0  0  0  0  0  0  0  0  0  0  0  0
   16.6126   62.0219   26.9715 F   0  0  0  0  0  0  0  0  0  0  0  0
   17.3083   63.5878   28.6752 C   0  0  0  0  0  0  0  0  0  0  0  0
   16.2862   64.2546   28.5814 O   0  0  0  0  0  0  0  0  0  0  0  0
   18.3112   63.9041   29.5566 N   0  0  0  0  0  0  0  0  0  0  0  0
   19.5016   63.2416   29.6986 C   0  0  0  0  0  0  0  0  0  0  0  0
   20.3654   63.6241   30.4856 O   0  0  0  0  0  0  0  0  0  0  0  0
   18.1609   64.6808   30.1425 H   0  0  0  0  0  0  0  0  0  0  0  0
   21.8689   61.5563   27.8075 C   0  0  0  0  0  0  0  0  0  0  0  0
   21.4726   60.6833   26.6806 N   0  0  0  0  0  0  0  0  0  0  0  0
   21.5707   59.7062   26.9566 H   0  0  0  0  0  0  0  0  0  0  0  0
   22.0724   60.8716   25.8774 H   0  0  0  0  0  0  0  0  0  0  0  0
   23.3822   61.4667   28.1775 C   0  0  0  0  0  0  0  0  0  0  0  0
   24.3926   59.7383   29.6411 C   0  0  0  0  0  0  0  0  0  0  0  0
   23.7838   61.1499   29.6414 N   0  0  0  0  0  0  0  0  0  0  0  0
   22.5926   61.1392   30.5926 C   0  0  0  0  0  0  0  0  0  0  0  0
   24.8448   62.1022   30.1706 C   0  0  0  0  0  0  0  0  0  0  0  0
 17 18  1  0
 18 19  1  0
 18 20  1  0
 18 16  1  0
 16 12  1  0
 12 13  1  0
 12  1  1  0
  1  2  1  0
  2  3  1  0
  3  4  2  0
  4  5  1  0
  4  6  1  0
  6  7  2  0
  6  8  1  0
  8  9  1  0
  9 10  2  0
  9  2  1  0
 13 14  1  0
 13 15  1  0
  8 11  1  0
M  CHG 1  18   1
M  END
> <minimizedAffinity>
-4.85153

> <CNNscore>
0.4398017526

> <CNNaffinity>
5.3306069374

> <CNN_VS>
2.3444101810

> <CNNaffinity_variance>
0.1942585558

$$$$



 20 20  0  0  0  0  0  0  0  0999 V2000
   18.7362   66.9375   18.0173 C   0  0  0  0  0  0  0  0  0  0  0  0
   17.8427   66.0982   18.8188 N   0  0  0  0  0  0  0  0  0  0  0  0
   16.6013   65.7314   18.3357 C   0  0  0  0  0  0  0  0  0  0  0  0
   15.7783   64.9612   19.0477 C   0  0  0  0  0  0  0  0  0  0  0  0
   14.5644   64.5986   18.5970 F   0  0  0  0  0  0  0  0  0  0  0  0
   16.1887   64.4813   20.3821 C   0  0  0  0  0  0  0  0  0  0  0  0
   15.4673   63.7911   21.0902 O   0  0  0  0  0  0  0  0  0  0  0  0
   17.4422   64.8757   20.7768 N   0  0  0  0  0  0  0  0  0  0  0  0
   18.2972   65.6789   20.0699 C   0  0  0  0  0  0  0  0  0  0  0  0
   19.3882   66.0202   20.5229 O   0  0  0  0  0  0  0  0  0  0  0  0
   17.7569   64.5504   21.6511 H   0  0  0  0  0  0  0  0  0  0  0  0
   18.6883   68.4269   18.4365 C   0  0  0  0  0  0  0  0  0  0  0  0
   19.7300   68.7339   19.4413 N   0  0  0  0  0  0  0  0  0  0  0  0
   19.5476   68.2034   20.2932 H   0  0  0  0  0  0  0  0  0  0  0  0
   19.7152   69.7317   19.6524 H   0  0  0  0  0  0  0  0  0  0  0  0
   17.2607   68.9168   18.8328 C   0  0  0  0  0  0  0  0  0  0  0  0
   15.6116   70.1921   20.1762 C   0  0  0  0  0  0  0  0  0  0  0  0
   17.0784   69.7334   20.1384 N   0  0  0  0  0  0  0  0  0  0  0  0
   17.9538   70.9806   20.1834 C   0  0  0  0  0  0  0  0  0  0  0  0
   17.3252   68.8972   21.3845 C   0  0  0  0  0  0  0  0  0  0  0  0
 17 18  1  0
 18 19  1  0
 18 20  1  0
 18 16  1  0
 16 12  1  0
 12 13  1  0
 12  1  1  0
  1  2  1  0
  2  3  1  0
  3  4  2  0
  4  5  1  0
  4  6  1  0
  6  7  2  0
  6  8  1  0
  8  9  1  0
  9 10  2  0
  9  2  1  0
 13 14  1  0
 13 15  1  0
  8 11  1  0
M  CHG 1  18   1
M  END
> <minimizedAffinity>
-5.04275

> <CNNscore>
0.4134290814

> <CNNaffinity>
4.1074099541

> <CNN_VS>
1.6981227398

> <CNNaffinity_variance>
0.5041627884

$$$$



 20 20  0  0  0  0  0  0  0  0999 V2000
   14.8202   67.7960   18.2370 C   0  0  0  0  0  0  0  0  0  0  0  0
   15.8881   67.3450   19.1322 N   0  0  0  0  0  0  0  0  0  0  0  0
   16.3960   66.0641   19.0313 C   0  0  0  0  0  0  0  0  0  0  0  0
   17.3737   65.6390   19.8319 C   0  0  0  0  0  0  0  0  0  0  0  0
   17.8768   64.3945   19.7527 F   0  0  0  0  0  0  0  0  0  0  0  0
   17.9365   66.5453   20.8522 C   0  0  0  0  0  0  0  0  0  0  0  0
   18.8184   66.2040   21.6294 O   0  0  0  0  0  0  0  0  0  0  0  0
   17.3889   67.8032   20.8719 N   0  0  0  0  0  0  0  0  0  0  0  0
   16.3742   68.2560   20.0711 C   0  0  0  0  0  0  0  0  0  0  0  0
   15.9128   69.3895   20.1894 O   0  0  0  0  0  0  0  0  0  0  0  0
   17.7606   68.4408   21.5234 H   0  0  0  0  0  0  0  0  0  0  0  0
   15.1792   67.6116   16.7426 C   0  0  0  0  0  0  0  0  0  0  0  0
   14.9434   68.8561   15.9779 N   0  0  0  0  0  0  0  0  0  0  0  0
   13.9490   69.0824   15.9950 H   0  0  0  0  0  0  0  0  0  0  0  0
   15.2456   68.7244   15.0126 H   0  0  0  0  0  0  0  0  0  0  0  0
   14.5391   66.3416   16.1003 C   0  0  0  0  0  0  0  0  0  0  0  0
   13.3598   64.2221   16.6177 C   0  0  0  0  0  0  0  0  0  0  0  0
   13.2463   65.7518   16.7213 N   0  0  0  0  0  0  0  0  0  0  0  0
   11.9857   66.1732   15.9749 C   0  0  0  0  0  0  0  0  0  0  0  0
   13.1009   66.0978   18.1950 C   0  0  0  0  0  0  0  0  0  0  0  0
 17 18  1  0
 18 19  1  0
 18 20  1  0
 18 16  1  0
 16 12  1  0
 12 13  1  0
 12  1  1  0
  1  2  1  0
  2  3  1  0
  3  4  2  0
  4  5  1  0
  4  6  1  0
  6  7  2  0
  6  8  1  0
  8  9  1  0
  9 10  2  0
  9  2  1  0
 13 14  1  0
 13 15  1  0
  8 11  1  0
M  CHG 1  18   1
M  END
> <minimizedAffinity>
-4.04048

> <CNNscore>
0.3539470732

> <CNNaffinity>
4.1996665001

> <CNN_VS>
1.4864596128

> <CNNaffinity_variance>
0.1599913090

$$$$



 20 20  0  0  0  0  0  0  0  0999 V2000
   17.9399   68.1563   19.6386 C   0  0  0  0  0  0  0  0  0  0  0  0
   17.1682   66.9326   19.8674 N   0  0  0  0  0  0  0  0  0  0  0  0
   15.9191   66.7724   19.2992 C   0  0  0  0  0  0  0  0  0  0  0  0
   15.2062   65.6621   19.4897 C   0  0  0  0  0  0  0  0  0  0  0  0
   13.9866   65.4903   18.9499 F   0  0  0  0  0  0  0  0  0  0  0  0
   15.7503   64.5712   20.3222 C   0  0  0  0  0  0  0  0  0  0  0  0
   15.1329   63.5393   20.5507 O   0  0  0  0  0  0  0  0  0  0  0  0
   17.0028   64.8039   20.8318 N   0  0  0  0  0  0  0  0  0  0  0  0
   17.7459   65.9420   20.6629 C   0  0  0  0  0  0  0  0  0  0  0  0
   18.8447   66.0829   21.1963 O   0  0  0  0  0  0  0  0  0  0  0  0
   17.4056   64.0846   21.3699 H   0  0  0  0  0  0  0  0  0  0  0  0
   17.4859   69.3244   20.5473 C   0  0  0  0  0  0  0  0  0  0  0  0
   17.1959   68.8534   21.9196 N   0  0  0  0  0  0  0  0  0  0  0  0
   16.4107   68.2027   21.8969 H   0  0  0  0  0  0  0  0  0  0  0  0
   16.9595   69.6510   22.5099 H   0  0  0  0  0  0  0  0  0  0  0  0
   16.3517   70.1953   19.9226 C   0  0  0  0  0  0  0  0  0  0  0  0
   17.3280   71.9053   18.4148 C   0  0  0  0  0  0  0  0  0  0  0  0
   16.5806   71.7187   19.7453 N   0  0  0  0  0  0  0  0  0  0  0  0
   17.4442   72.3196   20.8485 C   0  0  0  0  0  0  0  0  0  0  0  0
   15.2758   72.4934   19.6460 C   0  0  0  0  0  0  0  0  0  0  0  0
 17 18  1  0
 18 19  1  0
 18 20  1  0
 18 16  1  0
 16 12  1  0
 12 13  1  0
 12  1  1  0
  1  2  1  0
  2  3  1  0
  3  4  2  0
  4  5  1  0
  4  6  1  0
  6  7  2  0
  6  8  1  0
  8  9  1  0
  9 10  2  0
  9  2  1  0
 13 14  1  0
 13 15  1  0
  8 11  1  0
M  CHG 1  18   1
M  END
> <minimizedAffinity>
-4.58071

> <CNNscore>
0.2639806867

> <CNNaffinity>
3.5025227070

> <CNN_VS>
0.9245983362

> <CNNaffinity_variance>
0.8046345115

$$$$



 20 20  0  0  0  0  0  0  0  0999 V2000
   16.7764   70.2220   19.3701 C   0  0  0  0  0  0  0  0  0  0  0  0
   16.9430   68.7797   19.5638 N   0  0  0  0  0  0  0  0  0  0  0  0
   18.1935   68.2419   19.8003 C   0  0  0  0  0  0  0  0  0  0  0  0
   18.3630   66.9328   19.9871 C   0  0  0  0  0  0  0  0  0  0  0  0
   19.5726   66.3902   20.2127 F   0  0  0  0  0  0  0  0  0  0  0  0
   17.1990   66.0260   19.9444 C   0  0  0  0  0  0  0  0  0  0  0  0
   17.2960   64.8141   20.0863 O   0  0  0  0  0  0  0  0  0  0  0  0
   15.9939   66.6438   19.7236 N   0  0  0  0  0  0  0  0  0  0  0  0
   15.7984   67.9829   19.5130 C   0  0  0  0  0  0  0  0  0  0  0  0
   14.6838   68.4452   19.2767 O   0  0  0  0  0  0  0  0  0  0  0  0
   15.1939   66.0700   19.7158 H   0  0  0  0  0  0  0  0  0  0  0  0
   16.5741   70.9817   20.7036 C   0  0  0  0  0  0  0  0  0  0  0  0
   15.1367   71.1525   21.0096 N   0  0  0  0  0  0  0  0  0  0  0  0
   14.7035   71.7355   20.2935 H   0  0  0  0  0  0  0  0  0  0  0  0
   15.0338   71.5999   21.9205 H   0  0  0  0  0  0  0  0  0  0  0  0
   17.4045   72.2993   20.8020 C   0  0  0  0  0  0  0  0  0  0  0  0
   16.5040   72.9754   23.0117 C   0  0  0  0  0  0  0  0  0  0  0  0
   16.8285   73.4963   21.6021 N   0  0  0  0  0  0  0  0  0  0  0  0
   15.5377   74.0424   21.0027 C   0  0  0  0  0  0  0  0  0  0  0  0
   17.8329   74.6278   21.7560 C   0  0  0  0  0  0  0  0  0  0  0  0
 17 18  1  0
 18 19  1  0
 18 20  1  0
 18 16  1  0
 16 12  1  0
 12 13  1  0
 12  1  1  0
  1  2  1  0
  2  3  1  0
  3  4  2  0
  4  5  1  0
  4  6  1  0
  6  7  2  0
  6  8  1  0
  8  9  1  0
  9 10  2  0
  9  2  1  0
 13 14  1  0
 13 15  1  0
  8 11  1  0
M  CHG 1  18   1
M  END
> <minimizedAffinity>
-4.25084

> <CNNscore>
0.1660829782

> <CNNaffinity>
3.2668750286

> <CNN_VS>
0.5425723195

> <CNNaffinity_variance>
1.5424661636

$$$$



 20 20  0  0  0  0  0  0  0  0999 V2000
   17.9743   53.7966   36.6842 C   0  0  0  0  0  0  0  0  0  0  0  0
   18.5210   54.6267   35.6084 N   0  0  0  0  0  0  0  0  0  0  0  0
   18.9948   55.8974   35.8723 C   0  0  0  0  0  0  0  0  0  0  0  0
   19.5035   56.6638   34.9073 C   0  0  0  0  0  0  0  0  0  0  0  0
   19.9640   57.9049   35.1435 F   0  0  0  0  0  0  0  0  0  0  0  0
   19.5695   56.1572   33.5223 C   0  0  0  0  0  0  0  0  0  0  0  0
   20.0047   56.8229   32.5919 O   0  0  0  0  0  0  0  0  0  0  0  0
   19.0960   54.8807   33.3515 N   0  0  0  0  0  0  0  0  0  0  0  0
   18.5548   54.0822   34.3238 C   0  0  0  0  0  0  0  0  0  0  0  0
   18.1119   52.9635   34.0705 O   0  0  0  0  0  0  0  0  0  0  0  0
   19.1505   54.5031   32.4440 H   0  0  0  0  0  0  0  0  0  0  0  0
   18.4935   52.3392   36.6334 C   0  0  0  0  0  0  0  0  0  0  0  0
   17.3833   51.3822   36.4311 N   0  0  0  0  0  0  0  0  0  0  0  0
   16.7515   51.4204   37.2310 H   0  0  0  0  0  0  0  0  0  0  0  0
   17.7600   50.4387   36.3402 H   0  0  0  0  0  0  0  0  0  0  0  0
   19.4384   51.9728   37.8200 C   0  0  0  0  0  0  0  0  0  0  0  0
   19.3884   53.6284   39.6658 C   0  0  0  0  0  0  0  0  0  0  0  0
   18.9510   52.2078   39.2732 N   0  0  0  0  0  0  0  0  0  0  0  0
   19.5763   51.2396   40.2709 C   0  0  0  0  0  0  0  0  0  0  0  0
   17.4362   52.1493   39.3933 C   0  0  0  0  0  0  0  0  0  0  0  0
 17 18  1  0
 18 19  1  0
 18 20  1  0
 18 16  1  0
 16 12  1  0
 12 13  1  0
 12  1  1  0
  1  2  1  0
  2  3  1  0
  3  4  2  0
  4  5  1  0
  4  6  1  0
  6  7  2  0
  6  8  1  0
  8  9  1  0
  9 10  2  0
  9  2  1  0
 13 14  1  0
 13 15  1  0
  8 11  1  0
M  CHG 1  18   1
M  END
> <minimizedAffinity>
-4.12820

> <CNNscore>
0.1644470394

> <CNNaffinity>
3.2479419708

> <CNN_VS>
0.5341144204

> <CNNaffinity_variance>
1.0336822271

$$$$



 20 20  0  0  0  0  0  0  0  0999 V2000
   18.4049   55.1582   35.9031 C   0  0  0  0  0  0  0  0  0  0  0  0
   19.3317   55.8206   34.9824 N   0  0  0  0  0  0  0  0  0  0  0  0
   18.9728   56.0509   33.6683 C   0  0  0  0  0  0  0  0  0  0  0  0
   19.8001   56.6598   32.8185 C   0  0  0  0  0  0  0  0  0  0  0  0
   19.4711   56.8875   31.5347 F   0  0  0  0  0  0  0  0  0  0  0  0
   21.1310   57.1042   33.2771 C   0  0  0  0  0  0  0  0  0  0  0  0
   21.9409   57.6476   32.5374 O   0  0  0  0  0  0  0  0  0  0  0  0
   21.3991   56.8538   34.5992 N   0  0  0  0  0  0  0  0  0  0  0  0
   20.5720   56.2160   35.4853 C   0  0  0  0  0  0  0  0  0  0  0  0
   20.9142   55.9931   36.6450 O   0  0  0  0  0  0  0  0  0  0  0  0
   22.2685   57.1617   34.9437 H   0  0  0  0  0  0  0  0  0  0  0  0
   18.5472   53.6168   35.8838 C   0  0  0  0  0  0  0  0  0  0  0  0
   17.9318   53.0376   34.6694 N   0  0  0  0  0  0  0  0  0  0  0  0
   16.9283   53.2201   34.6767 H   0  0  0  0  0  0  0  0  0  0  0  0
   18.0941   52.0308   34.6531 H   0  0  0  0  0  0  0  0  0  0  0  0
   18.0956   52.9329   37.2117 C   0  0  0  0  0  0  0  0  0  0  0  0
   20.5077   52.5464   37.6393 C   0  0  0  0  0  0  0  0  0  0  0  0
   19.1421   52.6918   38.3304 N   0  0  0  0  0  0  0  0  0  0  0  0
   18.8835   51.4117   39.1166 C   0  0  0  0  0  0  0  0  0  0  0  0
   19.2426   53.8648   39.2929 C   0  0  0  0  0  0  0  0  0  0  0  0
 17 18  1  0
 18 19  1  0
 18 20  1  0
 18 16  1  0
 16 12  1  0
 12 13  1  0
 12  1  1  0
  1  2  1  0
  2  3  1  0
  3  4  2  0
  4  5  1  0
  4  6  1  0
  6  7  2  0
  6  8  1  0
  8  9  1  0
  9 10  2  0
  9  2  1  0
 13 14  1  0
 13 15  1  0
  8 11  1  0
M  CHG 1  18   1
M  END
> <minimizedAffinity>
-4.66900

> <CNNscore>
0.1514815241

> <CNNaffinity>
2.9032785892

> <CNN_VS>
0.4397930801

> <CNNaffinity_variance>
1.8873395920

$$$$



 20 20  0  0  0  0  0  0  0  0999 V2000
   23.7388   57.9099   37.9881 C   0  0  0  0  0  0  0  0  0  0  0  0
   25.1830   58.0460   38.1906 N   0  0  0  0  0  0  0  0  0  0  0  0
   26.0048   58.4382   37.1515 C   0  0  0  0  0  0  0  0  0  0  0  0
   27.3202   58.5754   37.3196 C   0  0  0  0  0  0  0  0  0  0  0  0
   28.1368   58.9504   36.3191 F   0  0  0  0  0  0  0  0  0  0  0  0
   27.9261   58.3073   38.6387 C   0  0  0  0  0  0  0  0  0  0  0  0
   29.1291   58.3945   38.8468 O   0  0  0  0  0  0  0  0  0  0  0  0
   27.0376   57.9418   39.6183 N   0  0  0  0  0  0  0  0  0  0  0  0
   25.6864   57.7789   39.4646 C   0  0  0  0  0  0  0  0  0  0  0  0
   24.9701   57.4032   40.3906 O   0  0  0  0  0  0  0  0  0  0  0  0
   27.4063   57.7815   40.5170 H   0  0  0  0  0  0  0  0  0  0  0  0
   23.3900   57.0050   36.7815 C   0  0  0  0  0  0  0  0  0  0  0  0
   22.1688   57.4782   36.0930 N   0  0  0  0  0  0  0  0  0  0  0  0
   21.3727   57.4089   36.7269 H   0  0  0  0  0  0  0  0  0  0  0  0
   21.9984   56.9021   35.2688 H   0  0  0  0  0  0  0  0  0  0  0  0
   23.3736   55.4836   37.1280 C   0  0  0  0  0  0  0  0  0  0  0  0
   22.5933   53.4639   38.3374 C   0  0  0  0  0  0  0  0  0  0  0  0
   22.2351   54.9250   38.0205 N   0  0  0  0  0  0  0  0  0  0  0  0
   20.8803   54.9274   37.3217 C   0  0  0  0  0  0  0  0  0  0  0  0
   22.1220   55.6628   39.3455 C   0  0  0  0  0  0  0  0  0  0  0  0
 17 18  1  0
 18 19  1  0
 18 20  1  0
 18 16  1  0
 16 12  1  0
 12 13  1  0
 12  1  1  0
  1  2  1  0
  2  3  1  0
  3  4  2  0
  4  5  1  0
  4  6  1  0
  6  7  2  0
  6  8  1  0
  8  9  1  0
  9 10  2  0
  9  2  1  0
 13 14  1  0
 13 15  1  0
  8 11  1  0
M  CHG 1  18   1
M  END
> <minimizedAffinity>
-4.99444

> <CNNscore>
0.1492690444

> <CNNaffinity>
3.6651833057

> <CNN_VS>
0.5470983982

> <CNNaffinity_variance>
0.8263414502

$$$$



 20 20  0  0  0  0  0  0  0  0999 V2000
   18.0943   69.0534   18.7343 C   0  0  0  0  0  0  0  0  0  0  0  0
   17.8701   70.1969   19.6217 N   0  0  0  0  0  0  0  0  0  0  0  0
   18.4510   71.4209   19.3517 C   0  0  0  0  0  0  0  0  0  0  0  0
   18.2514   72.4748   20.1435 C   0  0  0  0  0  0  0  0  0  0  0  0
   18.8127   73.6723   19.9004 F   0  0  0  0  0  0  0  0  0  0  0  0
   17.3928   72.3468   21.3374 C   0  0  0  0  0  0  0  0  0  0  0  0
   17.1913   73.2723   22.1127 O   0  0  0  0  0  0  0  0  0  0  0  0
   16.8409   71.1040   21.5208 N   0  0  0  0  0  0  0  0  0  0  0  0
   17.0448   70.0041   20.7306 C   0  0  0  0  0  0  0  0  0  0  0  0
   16.5436   68.9135   20.9971 O   0  0  0  0  0  0  0  0  0  0  0  0
   16.2414   70.9924   22.2937 H   0  0  0  0  0  0  0  0  0  0  0  0
   18.3668   67.7422   19.5109 C   0  0  0  0  0  0  0  0  0  0  0  0
   19.6949   67.7723   20.1625 N   0  0  0  0  0  0  0  0  0  0  0  0
   20.4223   67.8248   19.4494 H   0  0  0  0  0  0  0  0  0  0  0  0
   19.8215   66.9246   20.7155 H   0  0  0  0  0  0  0  0  0  0  0  0
   18.1014   66.4541   18.6710 C   0  0  0  0  0  0  0  0  0  0  0  0
   15.6470   66.3158   18.9993 C   0  0  0  0  0  0  0  0  0  0  0  0
   16.9495   65.5041   19.0899 N   0  0  0  0  0  0  0  0  0  0  0  0
   17.0850   65.0065   20.5244 C   0  0  0  0  0  0  0  0  0  0  0  0
   16.8095   64.3144   18.1531 C   0  0  0  0  0  0  0  0  0  0  0  0
 17 18  1  0
 18 19  1  0
 18 20  1  0
 18 16  1  0
 16 12  1  0
 12 13  1  0
 12  1  1  0
  1  2  1  0
  2  3  1  0
  3  4  2  0
  4  5  1  0
  4  6  1  0
  6  7  2  0
  6  8  1  0
  8  9  1  0
  9 10  2  0
  9  2  1  0
 13 14  1  0
 13 15  1  0
  8 11  1  0
M  CHG 1  18   1
M  END
> <minimizedAffinity>
-4.45007

> <CNNscore>
0.1479339153

> <CNNaffinity>
3.6255462170

> <CNN_VS>
0.5363412499

> <CNNaffinity_variance>
0.6002356410

$$$$
