


 21 22  0  0  0  0  0  0  0  0999 V2000
   31.2039   69.2061   16.8879 C   0  0  0  0  0  0  0  0  0  0  0  0
   30.1624   68.7545   17.9474 C   0  0  0  0  0  0  0  0  0  0  0  0
   30.6741   67.5639   18.8147 C   0  0  0  0  0  0  0  0  0  0  0  0
   32.0574   67.7811   19.2292 N   0  0  0  0  0  0  0  0  0  0  0  0
   32.6458   67.2954   20.3728 C   0  0  0  0  0  0  0  0  0  0  0  0
   32.1487   66.6534   21.2712 O   0  0  0  0  0  0  0  0  0  0  0  0
   34.1287   67.7477   20.2735 C   0  0  0  0  0  0  0  0  0  0  0  0
   35.0193   67.4928   21.0526 O   0  0  0  0  0  0  0  0  0  0  0  0
   34.2185   68.4688   19.1035 N   0  0  0  0  0  0  0  0  0  0  0  0
   33.0405   68.2785   18.3065 C   0  0  0  0  0  0  0  0  0  0  0  0
   32.5571   69.5401   17.5764 C   0  0  0  0  0  0  0  0  0  0  0  0
   34.9829   69.0350   18.8498 H   0  0  0  0  0  0  0  0  0  0  0  0
   30.4961   66.1906   18.1431 C   0  0  0  0  0  0  0  0  0  0  0  0
   30.2758   65.1794   19.1209 O   0  0  0  0  0  0  0  0  0  0  0  0
   31.0401   65.1334   19.7164 H   0  0  0  0  0  0  0  0  0  0  0  0
   30.4855   68.2929   14.7959 C   0  0  0  0  0  0  0  0  0  0  0  0
   31.3459   68.1530   15.9190 O   0  0  0  0  0  0  0  0  0  0  0  0
   29.9040   69.9097   18.7759 O   0  0  0  0  0  0  0  0  0  0  0  0
   29.8940   71.1289   18.0402 C   0  0  0  0  0  0  0  0  0  0  0  0
   33.5685   69.9493   16.6358 O   0  0  0  0  0  0  0  0  0  0  0  0
   33.2494   71.1765   15.9898 C   0  0  0  0  0  0  0  0  0  0  0  0
 16 17  1  0
  1 17  1  0
  1  2  1  0
  2 18  1  0
 18 19  1  0
  2  3  1  0
  3 13  1  0
 13 14  1  0
  3  4  1  0
  4  5  1  0
  5  6  2  0
  5  7  1  0
  7  8  2  0
  7  9  1  0
 10  9  1  0
 10 11  1  0
 11 20  1  0
 20 21  1  0
 11  1  1  0
 10  4  1  0
 14 15  1  0
  9 12  1  0
M  END
> <minimizedAffinity>
-4.58497

> <CNNscore>
0.2895083129

> <CNNaffinity>
4.1008744240

> <CNN_VS>
1.1872372627

> <CNNaffinity_variance>
0.5294669271

$$$$



 21 22  0  0  0  0  0  0  0  0999 V2000
   25.9004   66.1939   12.6431 C   0  0  0  0  0  0  0  0  0  0  0  0
   26.3023   64.7302   12.9704 C   0  0  0  0  0  0  0  0  0  0  0  0
   25.3978   63.6884   12.2439 C   0  0  0  0  0  0  0  0  0  0  0  0
   25.1840   64.0694   10.8505 N   0  0  0  0  0  0  0  0  0  0  0  0
   24.9450   63.2107    9.8037 C   0  0  0  0  0  0  0  0  0  0  0  0
   24.9140   62.0002    9.8038 O   0  0  0  0  0  0  0  0  0  0  0  0
   24.7096   64.1392    8.5807 C   0  0  0  0  0  0  0  0  0  0  0  0
   24.4184   63.7989    7.4562 O   0  0  0  0  0  0  0  0  0  0  0  0
   24.8720   65.4227    9.0532 N   0  0  0  0  0  0  0  0  0  0  0  0
   24.8923   65.4291   10.4880 C   0  0  0  0  0  0  0  0  0  0  0  0
   25.8945   66.4159   11.1045 C   0  0  0  0  0  0  0  0  0  0  0  0
   24.9614   66.2229    8.4866 H   0  0  0  0  0  0  0  0  0  0  0  0
   24.0651   63.4194   12.9654 C   0  0  0  0  0  0  0  0  0  0  0  0
   24.1495   63.8040   14.3337 O   0  0  0  0  0  0  0  0  0  0  0  0
   24.8454   63.2895   14.7718 H   0  0  0  0  0  0  0  0  0  0  0  0
   24.6307   67.4083   14.2678 C   0  0  0  0  0  0  0  0  0  0  0  0
   24.6082   66.4459   13.2216 O   0  0  0  0  0  0  0  0  0  0  0  0
   27.6773   64.5867   12.5503 O   0  0  0  0  0  0  0  0  0  0  0  0
   28.1894   63.2757   12.7660 C   0  0  0  0  0  0  0  0  0  0  0  0
   25.5106   67.7561   10.7418 O   0  0  0  0  0  0  0  0  0  0  0  0
   26.4417   68.7325   11.1941 C   0  0  0  0  0  0  0  0  0  0  0  0
 16 17  1  0
  1 17  1  0
  1  2  1  0
  2 18  1  0
 18 19  1  0
  2  3  1  0
  3 13  1  0
 13 14  1  0
  3  4  1  0
  4  5  1  0
  5  6  2  0
  5  7  1  0
  7  8  2  0
  7  9  1  0
 10  9  1  0
 10 11  1  0
 11 20  1  0
 20 21  1  0
 11  1  1  0
 10  4  1  0
 14 15  1  0
  9 12  1  0
M  END
> <minimizedAffinity>
-4.90895

> <CNNscore>
0.2563101947

> <CNNaffinity>
4.0015921593

> <CNN_VS>
1.0256488323

> <CNNaffinity_variance>
0.0293872058

$$$$



 21 22  0  0  0  0  0  0  0  0999 V2000
   27.0142   63.5022   11.2746 C   0  0  0  0  0  0  0  0  0  0  0  0
   25.5875   63.1242   10.7917 C   0  0  0  0  0  0  0  0  0  0  0  0
   24.5230   64.1923   11.1883 C   0  0  0  0  0  0  0  0  0  0  0  0
   25.0221   65.5411   10.9351 N   0  0  0  0  0  0  0  0  0  0  0  0
   24.2585   66.6438   10.6336 C   0  0  0  0  0  0  0  0  0  0  0  0
   23.0613   66.7188   10.4682 O   0  0  0  0  0  0  0  0  0  0  0  0
   25.2761   67.8147   10.5501 C   0  0  0  0  0  0  0  0  0  0  0  0
   25.0251   68.9819   10.3510 O   0  0  0  0  0  0  0  0  0  0  0  0
   26.5109   67.2494   10.7797 N   0  0  0  0  0  0  0  0  0  0  0  0
   26.3641   65.9153   11.2873 C   0  0  0  0  0  0  0  0  0  0  0  0
   27.3991   64.9149   10.7522 C   0  0  0  0  0  0  0  0  0  0  0  0
   27.3726   67.6974   10.6183 H   0  0  0  0  0  0  0  0  0  0  0  0
   24.0080   64.0436   12.6311 C   0  0  0  0  0  0  0  0  0  0  0  0
   24.2890   62.7407   13.1316 O   0  0  0  0  0  0  0  0  0  0  0  0
   23.8462   62.0790   12.5776 H   0  0  0  0  0  0  0  0  0  0  0  0
   28.1661   62.7642   13.2380 C   0  0  0  0  0  0  0  0  0  0  0  0
   27.0334   63.4431   12.7113 O   0  0  0  0  0  0  0  0  0  0  0  0
   25.6687   63.0000    9.3545 O   0  0  0  0  0  0  0  0  0  0  0  0
   24.4164   62.6875    8.7530 C   0  0  0  0  0  0  0  0  0  0  0  0
   28.7100   65.3252   11.1859 O   0  0  0  0  0  0  0  0  0  0  0  0
   29.6231   65.4695   10.1040 C   0  0  0  0  0  0  0  0  0  0  0  0
 16 17  1  0
  1 17  1  0
  1  2  1  0
  2 18  1  0
 18 19  1  0
  2  3  1  0
  3 13  1  0
 13 14  1  0
  3  4  1  0
  4  5  1  0
  5  6  2  0
  5  7  1  0
  7  8  2  0
  7  9  1  0
 10  9  1  0
 10 11  1  0
 11 20  1  0
 20 21  1  0
 11  1  1  0
 10  4  1  0
 14 15  1  0
  9 12  1  0
M  END
> <minimizedAffinity>
-5.29978

> <CNNscore>
0.1982080340

> <CNNaffinity>
3.2790651321

> <CNN_VS>
0.6499370337

> <CNNaffinity_variance>
0.5805919766

$$$$



 21 22  0  0  0  0  0  0  0  0999 V2000
   28.0193   65.0953   10.4121 C   0  0  0  0  0  0  0  0  0  0  0  0
   28.2499   65.4471   11.9068 C   0  0  0  0  0  0  0  0  0  0  0  0
   27.8128   66.9042   12.2492 C   0  0  0  0  0  0  0  0  0  0  0  0
   26.5231   67.2158   11.6392 N   0  0  0  0  0  0  0  0  0  0  0  0
   25.5946   68.1085   12.1198 C   0  0  0  0  0  0  0  0  0  0  0  0
   25.6232   68.7623   13.1386 O   0  0  0  0  0  0  0  0  0  0  0  0
   24.4656   68.1127   11.0527 C   0  0  0  0  0  0  0  0  0  0  0  0
   23.4677   68.7978   11.0541 O   0  0  0  0  0  0  0  0  0  0  0  0
   24.8551   67.1999   10.0976 N   0  0  0  0  0  0  0  0  0  0  0  0
   26.2305   66.8360   10.2845 C   0  0  0  0  0  0  0  0  0  0  0  0
   26.5362   65.3538   10.0242 C   0  0  0  0  0  0  0  0  0  0  0  0
   24.2722   66.8469    9.3871 H   0  0  0  0  0  0  0  0  0  0  0  0
   28.8724   67.9642   11.8993 C   0  0  0  0  0  0  0  0  0  0  0  0
   30.1020   67.6802   12.5587 O   0  0  0  0  0  0  0  0  0  0  0  0
   29.9637   67.6893   13.5187 H   0  0  0  0  0  0  0  0  0  0  0  0
   30.2338   65.3444    9.5402 C   0  0  0  0  0  0  0  0  0  0  0  0
   28.9217   65.8860    9.6193 O   0  0  0  0  0  0  0  0  0  0  0  0
   27.4757   64.4943   12.6687 O   0  0  0  0  0  0  0  0  0  0  0  0
   28.1966   63.3019   12.9621 C   0  0  0  0  0  0  0  0  0  0  0  0
   26.2687   65.0599    8.6396 O   0  0  0  0  0  0  0  0  0  0  0  0
   26.5141   66.1730    7.7876 C   0  0  0  0  0  0  0  0  0  0  0  0
 16 17  1  0
  1 17  1  0
  1  2  1  0
  2 18  1  0
 18 19  1  0
  2  3  1  0
  3 13  1  0
 13 14  1  0
  3  4  1  0
  4  5  1  0
  5  6  2  0
  5  7  1  0
  7  8  2  0
  7  9  1  0
 10  9  1  0
 10 11  1  0
 11 20  1  0
 20 21  1  0
 11  1  1  0
 10  4  1  0
 14 15  1  0
  9 12  1  0
M  END
> <minimizedAffinity>
-4.53723

> <CNNscore>
0.1456909180

> <CNNaffinity>
2.5602495670

> <CNN_VS>
0.3730051219

> <CNNaffinity_variance>
1.5364732742

$$$$



 21 22  0  0  0  0  0  0  0  0999 V2000
   28.7234   66.5256    9.1623 C   0  0  0  0  0  0  0  0  0  0  0  0
   27.3196   67.0061    9.6203 C   0  0  0  0  0  0  0  0  0  0  0  0
   26.4274   65.8342   10.1321 C   0  0  0  0  0  0  0  0  0  0  0  0
   27.1900   64.9438   11.0028 N   0  0  0  0  0  0  0  0  0  0  0  0
   26.6809   64.1824   12.0281 C   0  0  0  0  0  0  0  0  0  0  0  0
   25.5457   64.1292   12.4459 O   0  0  0  0  0  0  0  0  0  0  0  0
   27.8970   63.3730   12.5567 C   0  0  0  0  0  0  0  0  0  0  0  0
   27.8880   62.5383   13.4332 O   0  0  0  0  0  0  0  0  0  0  0  0
   28.9723   63.7831   11.7999 N   0  0  0  0  0  0  0  0  0  0  0  0
   28.5260   64.5374   10.6637 C   0  0  0  0  0  0  0  0  0  0  0  0
   29.4181   65.7354   10.3067 C   0  0  0  0  0  0  0  0  0  0  0  0
   29.9140   63.5866   12.0090 H   0  0  0  0  0  0  0  0  0  0  0  0
   25.7260   65.0555    9.0049 C   0  0  0  0  0  0  0  0  0  0  0  0
   25.7148   63.6608    9.2911 O   0  0  0  0  0  0  0  0  0  0  0  0
   26.6267   63.3387    9.3657 H   0  0  0  0  0  0  0  0  0  0  0  0
   28.9435   66.3811    6.7838 C   0  0  0  0  0  0  0  0  0  0  0  0
   28.5603   65.7196    7.9825 O   0  0  0  0  0  0  0  0  0  0  0  0
   27.5474   67.9668   10.6753 O   0  0  0  0  0  0  0  0  0  0  0  0
   26.3500   68.5953   11.1213 C   0  0  0  0  0  0  0  0  0  0  0  0
   30.7206   65.2493    9.9298 O   0  0  0  0  0  0  0  0  0  0  0  0
   31.5820   66.2882    9.4784 C   0  0  0  0  0  0  0  0  0  0  0  0
 16 17  1  0
  1 17  1  0
  1  2  1  0
  2 18  1  0
 18 19  1  0
  2  3  1  0
  3 13  1  0
 13 14  1  0
  3  4  1  0
  4  5  1  0
  5  6  2  0
  5  7  1  0
  7  8  2  0
  7  9  1  0
 10  9  1  0
 10 11  1  0
 11 20  1  0
 20 21  1  0
 11  1  1  0
 10  4  1  0
 14 15  1  0
  9 12  1  0
M  END
> <minimizedAffinity>
-6.01112

> <CNNscore>
0.1278580874

> <CNNaffinity>
3.7001514435

> <CNN_VS>
0.4730942845

> <CNNaffinity_variance>
1.0212627649

$$$$



 21 22  0  0  0  0  0  0  0  0999 V2000
   26.7997   65.7358    9.8783 C   0  0  0  0  0  0  0  0  0  0  0  0
   26.3066   65.2952    8.4733 C   0  0  0  0  0  0  0  0  0  0  0  0
   24.7944   64.9149    8.4658 C   0  0  0  0  0  0  0  0  0  0  0  0
   24.0104   65.8909    9.2176 N   0  0  0  0  0  0  0  0  0  0  0  0
   22.6927   66.2145    8.9962 C   0  0  0  0  0  0  0  0  0  0  0  0
   21.9452   65.8140    8.1317 O   0  0  0  0  0  0  0  0  0  0  0  0
   22.3435   67.2282   10.1204 C   0  0  0  0  0  0  0  0  0  0  0  0
   21.2654   67.7373   10.3298 O   0  0  0  0  0  0  0  0  0  0  0  0
   23.5055   67.3983   10.8399 N   0  0  0  0  0  0  0  0  0  0  0  0
   24.4659   66.3931   10.4846 C   0  0  0  0  0  0  0  0  0  0  0  0
   25.9154   66.8957   10.4162 C   0  0  0  0  0  0  0  0  0  0  0  0
   23.6560   68.1091   11.5042 H   0  0  0  0  0  0  0  0  0  0  0  0
   24.5173   63.4792    8.9462 C   0  0  0  0  0  0  0  0  0  0  0  0
   24.1620   62.6436    7.8495 O   0  0  0  0  0  0  0  0  0  0  0  0
   23.3586   62.9871    7.4282 H   0  0  0  0  0  0  0  0  0  0  0  0
   28.0476   64.0721   11.0621 C   0  0  0  0  0  0  0  0  0  0  0  0
   26.7618   64.5911   10.7479 O   0  0  0  0  0  0  0  0  0  0  0  0
   26.5515   66.4136    7.5918 O   0  0  0  0  0  0  0  0  0  0  0  0
   27.8687   66.4154    7.0507 C   0  0  0  0  0  0  0  0  0  0  0  0
   26.3181   67.3338   11.7281 O   0  0  0  0  0  0  0  0  0  0  0  0
   25.6426   66.6363   12.7684 C   0  0  0  0  0  0  0  0  0  0  0  0
 16 17  1  0
  1 17  1  0
  1  2  1  0
  2 18  1  0
 18 19  1  0
  2  3  1  0
  3 13  1  0
 13 14  1  0
  3  4  1  0
  4  5  1  0
  5  6  2  0
  5  7  1  0
  7  8  2  0
  7  9  1  0
 10  9  1  0
 10 11  1  0
 11 20  1  0
 20 21  1  0
 11  1  1  0
 10  4  1  0
 14 15  1  0
  9 12  1  0
M  END
> <minimizedAffinity>
-5.12032

> <CNNscore>
0.1245317012

> <CNNaffinity>
2.9718205929

> <CNN_VS>
0.3700858653

> <CNNaffinity_variance>
0.8225399852

$$$$



 21 22  0  0  0  0  0  0  0  0999 V2000
   24.8580   65.8563   16.8838 C   0  0  0  0  0  0  0  0  0  0  0  0
   23.7434   65.4729   15.8729 C   0  0  0  0  0  0  0  0  0  0  0  0
   24.2870   65.3135   14.4202 C   0  0  0  0  0  0  0  0  0  0  0  0
   25.5380   64.5602   14.4143 N   0  0  0  0  0  0  0  0  0  0  0  0
   26.0054   63.7747   13.3874 C   0  0  0  0  0  0  0  0  0  0  0  0
   25.4764   63.5080   12.3314 O   0  0  0  0  0  0  0  0  0  0  0  0
   27.3989   63.2863   13.8702 C   0  0  0  0  0  0  0  0  0  0  0  0
   28.1836   62.6036   13.2510 O   0  0  0  0  0  0  0  0  0  0  0  0
   27.5614   63.8174   15.1306 N   0  0  0  0  0  0  0  0  0  0  0  0
   26.5671   64.8206   15.3831 C   0  0  0  0  0  0  0  0  0  0  0  0
   26.0186   64.8242   16.8174 C   0  0  0  0  0  0  0  0  0  0  0  0
   28.2610   63.5468   15.7682 H   0  0  0  0  0  0  0  0  0  0  0  0
   24.4287   66.6471   13.6650 C   0  0  0  0  0  0  0  0  0  0  0  0
   24.2630   66.4501   12.2647 O   0  0  0  0  0  0  0  0  0  0  0  0
   24.9441   65.8399   11.9412 H   0  0  0  0  0  0  0  0  0  0  0  0
   24.8990   68.1630   17.5195 C   0  0  0  0  0  0  0  0  0  0  0  0
   25.3101   67.1855   16.5725 O   0  0  0  0  0  0  0  0  0  0  0  0
   23.1843   64.2265   16.3437 O   0  0  0  0  0  0  0  0  0  0  0  0
   22.5072   64.3576   17.5895 C   0  0  0  0  0  0  0  0  0  0  0  0
   27.0915   65.1412   17.7248 O   0  0  0  0  0  0  0  0  0  0  0  0
   28.0112   66.0789   17.1771 C   0  0  0  0  0  0  0  0  0  0  0  0
 16 17  1  0
  1 17  1  0
  1  2  1  0
  2 18  1  0
 18 19  1  0
  2  3  1  0
  3 13  1  0
 13 14  1  0
  3  4  1  0
  4  5  1  0
  5  6  2  0
  5  7  1  0
  7  8  2  0
  7  9  1  0
 10  9  1  0
 10 11  1  0
 11 20  1  0
 20 21  1  0
 11  1  1  0
 10  4  1  0
 14 15  1  0
  9 12  1  0
M  END
> <minimizedAffinity>
-4.69471

> <CNNscore>
0.1217706501

> <CNNaffinity>
2.8173265457

> <CNN_VS>
0.3430676758

> <CNNaffinity_variance>
0.8595900536

$$$$



 21 22  0  0  0  0  0  0  0  0999 V2000
   26.3860   64.5091   10.7125 C   0  0  0  0  0  0  0  0  0  0  0  0
   25.9277   65.5758   11.7436 C   0  0  0  0  0  0  0  0  0  0  0  0
   25.1251   66.7371   11.0813 C   0  0  0  0  0  0  0  0  0  0  0  0
   24.1547   66.2160   10.1225 N   0  0  0  0  0  0  0  0  0  0  0  0
   22.9620   66.8055    9.7760 C   0  0  0  0  0  0  0  0  0  0  0  0
   22.4566   67.8154   10.2129 O   0  0  0  0  0  0  0  0  0  0  0  0
   22.3765   65.8854    8.6697 C   0  0  0  0  0  0  0  0  0  0  0  0
   21.3526   66.0587    8.0478 O   0  0  0  0  0  0  0  0  0  0  0  0
   23.2799   64.8554    8.5280 N   0  0  0  0  0  0  0  0  0  0  0  0
   24.5066   65.1691    9.2031 C   0  0  0  0  0  0  0  0  0  0  0  0
   25.1631   63.9766    9.9140 C   0  0  0  0  0  0  0  0  0  0  0  0
   23.1082   64.0216    8.0334 H   0  0  0  0  0  0  0  0  0  0  0  0
   26.0168   67.8203   10.4484 C   0  0  0  0  0  0  0  0  0  0  0  0
   25.4260   69.1069   10.5995 O   0  0  0  0  0  0  0  0  0  0  0  0
   24.5636   69.1208   10.1556 H   0  0  0  0  0  0  0  0  0  0  0  0
   28.6608   65.1945   10.4258 C   0  0  0  0  0  0  0  0  0  0  0  0
   27.3647   65.1107    9.8475 O   0  0  0  0  0  0  0  0  0  0  0  0
   25.1068   64.8782   12.7066 O   0  0  0  0  0  0  0  0  0  0  0  0
   25.8620   64.3124   13.7729 C   0  0  0  0  0  0  0  0  0  0  0  0
   25.5334   62.9938    8.9280 O   0  0  0  0  0  0  0  0  0  0  0  0
   25.5863   61.6762    9.4629 C   0  0  0  0  0  0  0  0  0  0  0  0
 16 17  1  0
  1 17  1  0
  1  2  1  0
  2 18  1  0
 18 19  1  0
  2  3  1  0
  3 13  1  0
 13 14  1  0
  3  4  1  0
  4  5  1  0
  5  6  2  0
  5  7  1  0
  7  8  2  0
  7  9  1  0
 10  9  1  0
 10 11  1  0
 11 20  1  0
 20 21  1  0
 11  1  1  0
 10  4  1  0
 14 15  1  0
  9 12  1  0
M  END
> <minimizedAffinity>
-5.60405

> <CNNscore>
0.1186199337

> <CNNaffinity>
3.7738826275

> <CNN_VS>
0.4476577044

> <CNNaffinity_variance>
0.1200576797

$$$$



 21 22  0  0  0  0  0  0  0  0999 V2000
   24.8513   65.7270   13.3470 C   0  0  0  0  0  0  0  0  0  0  0  0
   26.3929   65.8445   13.2015 C   0  0  0  0  0  0  0  0  0  0  0  0
   27.0548   64.4974   12.7787 C   0  0  0  0  0  0  0  0  0  0  0  0
   26.2898   63.8555   11.7132 N   0  0  0  0  0  0  0  0  0  0  0  0
   26.7933   63.0170   10.7471 C   0  0  0  0  0  0  0  0  0  0  0  0
   27.9412   62.6864   10.5488 O   0  0  0  0  0  0  0  0  0  0  0  0
   25.5490   62.5603    9.9369 C   0  0  0  0  0  0  0  0  0  0  0  0
   25.5304   61.7749    9.0160 O   0  0  0  0  0  0  0  0  0  0  0  0
   24.4770   63.2115   10.5059 N   0  0  0  0  0  0  0  0  0  0  0  0
   24.8548   63.7956   11.7609 C   0  0  0  0  0  0  0  0  0  0  0  0
   24.2308   65.1719   12.0341 C   0  0  0  0  0  0  0  0  0  0  0  0
   23.5783   63.2681   10.1077 H   0  0  0  0  0  0  0  0  0  0  0  0
   27.3002   63.5352   13.9546 C   0  0  0  0  0  0  0  0  0  0  0  0
   28.3186   62.5951   13.6287 O   0  0  0  0  0  0  0  0  0  0  0  0
   28.0435   62.0745   12.8579 H   0  0  0  0  0  0  0  0  0  0  0  0
   24.6232   65.5464   15.7222 C   0  0  0  0  0  0  0  0  0  0  0  0
   24.5690   64.8747   14.4703 O   0  0  0  0  0  0  0  0  0  0  0  0
   26.6265   66.8594   12.2000 O   0  0  0  0  0  0  0  0  0  0  0  0
   27.2683   68.0178   12.7233 C   0  0  0  0  0  0  0  0  0  0  0  0
   22.8003   65.0255   12.1189 O   0  0  0  0  0  0  0  0  0  0  0  0
   22.1214   66.2761   12.1080 C   0  0  0  0  0  0  0  0  0  0  0  0
 16 17  1  0
  1 17  1  0
  1  2  1  0
  2 18  1  0
 18 19  1  0
  2  3  1  0
  3 13  1  0
 13 14  1  0
  3  4  1  0
  4  5  1  0
  5  6  2  0
  5  7  1  0
  7  8  2  0
  7  9  1  0
 10  9  1  0
 10 11  1  0
 11 20  1  0
 20 21  1  0
 11  1  1  0
 10  4  1  0
 14 15  1  0
  9 12  1  0
M  END
> <minimizedAffinity>
-5.25020

> <CNNscore>
0.1141245961

> <CNNaffinity>
3.0742933750

> <CNN_VS>
0.3508524895

> <CNNaffinity_variance>
0.6288656592

$$$$
