


 26 29  0  0  0  0  0  0  0  0999 V2000
   -2.7476   48.5156   13.2560 O   0  0  0  0  0  0  0  0  0  0  0  0
   -2.4303   49.3285   12.3979 C   0  0  0  0  0  0  0  0  0  0  0  0
   -1.6839   49.0898   11.2565 N   0  0  0  0  0  0  0  0  0  0  0  0
   -1.4554   49.8760   10.7098 H   0  0  0  0  0  0  0  0  0  0  0  0
   -2.8312   50.7529   12.5904 C   0  0  0  0  0  0  0  0  0  0  0  0
   -1.9245   51.7558   12.1014 C   0  0  0  0  0  0  0  0  0  0  0  0
   -2.1625   53.1460   12.2043 C   0  0  0  0  0  0  0  0  0  0  0  0
   -3.3698   53.4638   12.8458 C   0  0  0  0  0  0  0  0  0  0  0  0
   -3.9171   54.6589   13.1186 N   0  0  0  0  0  0  0  0  0  0  0  0
   -5.0641   54.3762   13.7655 N   0  0  0  0  0  0  0  0  0  0  0  0
   -5.3118   53.0411   13.9186 C   0  0  0  0  0  0  0  0  0  0  0  0
   -4.2417   52.4240   13.3348 C   0  0  0  0  0  0  0  0  0  0  0  0
   -4.0473   51.0502   13.2530 C   0  0  0  0  0  0  0  0  0  0  0  0
   -5.6733   55.0734   14.1003 H   0  0  0  0  0  0  0  0  0  0  0  0
   -1.2144   47.8421   10.7907 C   0  0  0  0  0  0  0  0  0  0  0  0
   -2.0346   46.7322   10.5905 C   0  0  0  0  0  0  0  0  0  0  0  0
   -1.5013   45.5382   10.1028 C   0  0  0  0  0  0  0  0  0  0  0  0
   -0.1407   45.4433    9.8153 C   0  0  0  0  0  0  0  0  0  0  0  0
    0.7089   46.5377   10.0171 C   0  0  0  0  0  0  0  0  0  0  0  0
    0.1561   47.7376   10.4986 C   0  0  0  0  0  0  0  0  0  0  0  0
    2.1305   46.3996    9.7133 C   0  0  0  0  0  0  0  0  0  0  0  0
    2.8049   46.9831    8.7389 N   0  0  0  0  0  0  0  0  0  0  0  0
    4.1035   46.5477    8.8411 N   0  0  0  0  0  0  0  0  0  0  0  0
    4.2397   45.6990    9.8479 N   0  0  0  0  0  0  0  0  0  0  0  0
    3.0167   45.5983   10.3815 N   0  0  0  0  0  0  0  0  0  0  0  0
    2.7860   45.0265   11.1490 H   0  0  0  0  0  0  0  0  0  0  0  0
  1  2  2  0
  2  3  1  0
  3 15  1  0
 15 16  2  0
 16 17  1  0
 17 18  2  0
 18 19  1  0
 19 21  1  0
 21 22  2  0
 22 23  1  0
 23 24  2  0
 24 25  1  0
 19 20  2  0
  2  5  1  0
  5  6  1  0
  6  7  2  0
  7  8  1  0
  8  9  2  0
  9 10  1  0
 10 11  1  0
 11 12  2  0
 12 13  1  0
 20 15  1  0
 13  5  2  0
 25 21  1  0
 12  8  1  0
  3  4  1  0
 25 26  1  0
 10 14  1  0
M  END
> <minimizedAffinity>
-7.76651

> <CNNscore>
0.4698175490

> <CNNaffinity>
4.8852429390

> <CNN_VS>
2.2951729298

> <CNNaffinity_variance>
0.1080974862

$$$$



 26 29  0  0  0  0  0  0  0  0999 V2000
   -9.0286   55.6387   13.9728 O   0  0  0  0  0  0  0  0  0  0  0  0
   -8.5649   55.1806   12.9370 C   0  0  0  0  0  0  0  0  0  0  0  0
   -8.8697   55.5669   11.6429 N   0  0  0  0  0  0  0  0  0  0  0  0
   -8.4596   55.0392   10.9199 H   0  0  0  0  0  0  0  0  0  0  0  0
   -7.5985   54.0479   13.0351 C   0  0  0  0  0  0  0  0  0  0  0  0
   -6.5672   54.1569   14.0309 C   0  0  0  0  0  0  0  0  0  0  0  0
   -5.5806   53.1677   14.2503 C   0  0  0  0  0  0  0  0  0  0  0  0
   -5.6903   52.0637   13.3906 C   0  0  0  0  0  0  0  0  0  0  0  0
   -4.9417   50.9525   13.3081 N   0  0  0  0  0  0  0  0  0  0  0  0
   -5.4792   50.2458   12.2953 N   0  0  0  0  0  0  0  0  0  0  0  0
   -6.5665   50.8327   11.7119 C   0  0  0  0  0  0  0  0  0  0  0  0
   -6.7324   52.0043   12.3949 C   0  0  0  0  0  0  0  0  0  0  0  0
   -7.7200   52.9505   12.1479 C   0  0  0  0  0  0  0  0  0  0  0  0
   -5.1186   49.3786   11.9999 H   0  0  0  0  0  0  0  0  0  0  0  0
   -9.7043   56.6347   11.2463 C   0  0  0  0  0  0  0  0  0  0  0  0
   -9.3558   57.5684   10.2708 C   0  0  0  0  0  0  0  0  0  0  0  0
  -10.2453   58.5829    9.9138 C   0  0  0  0  0  0  0  0  0  0  0  0
  -11.4905   58.6744   10.5336 C   0  0  0  0  0  0  0  0  0  0  0  0
  -11.8630   57.7579   11.5243 C   0  0  0  0  0  0  0  0  0  0  0  0
  -10.9614   56.7346   11.8662 C   0  0  0  0  0  0  0  0  0  0  0  0
  -13.1719   57.8894   12.1583 C   0  0  0  0  0  0  0  0  0  0  0  0
  -14.1468   56.9984   12.1825 N   0  0  0  0  0  0  0  0  0  0  0  0
  -15.1831   57.5654   12.8831 N   0  0  0  0  0  0  0  0  0  0  0  0
  -14.8725   58.7902   13.2781 N   0  0  0  0  0  0  0  0  0  0  0  0
  -13.6320   58.9955   12.8206 N   0  0  0  0  0  0  0  0  0  0  0  0
  -13.1205   59.8277   12.9433 H   0  0  0  0  0  0  0  0  0  0  0  0
  1  2  2  0
  2  3  1  0
  3 15  1  0
 15 16  2  0
 16 17  1  0
 17 18  2  0
 18 19  1  0
 19 21  1  0
 21 22  2  0
 22 23  1  0
 23 24  2  0
 24 25  1  0
 19 20  2  0
  2  5  1  0
  5  6  1  0
  6  7  2  0
  7  8  1  0
  8  9  2  0
  9 10  1  0
 10 11  1  0
 11 12  2  0
 12 13  1  0
 20 15  1  0
 13  5  2  0
 25 21  1  0
 12  8  1  0
  3  4  1  0
 25 26  1  0
 10 14  1  0
M  END
> <minimizedAffinity>
-7.39089

> <CNNscore>
0.4254406095

> <CNNaffinity>
3.9925098419

> <CNN_VS>
1.6985758543

> <CNNaffinity_variance>
1.7845792770

$$$$



 26 29  0  0  0  0  0  0  0  0999 V2000
   -4.6304   48.7452    9.7945 O   0  0  0  0  0  0  0  0  0  0  0  0
   -4.1548   49.8707    9.7251 C   0  0  0  0  0  0  0  0  0  0  0  0
   -3.5126   50.4407    8.6391 N   0  0  0  0  0  0  0  0  0  0  0  0
   -3.1218   51.3332    8.7798 H   0  0  0  0  0  0  0  0  0  0  0  0
   -4.2097   50.7376   10.9385 C   0  0  0  0  0  0  0  0  0  0  0  0
   -5.3032   50.5182   11.8459 C   0  0  0  0  0  0  0  0  0  0  0  0
   -5.4922   51.2534   13.0391 C   0  0  0  0  0  0  0  0  0  0  0  0
   -4.5141   52.2366   13.2547 C   0  0  0  0  0  0  0  0  0  0  0  0
   -4.3729   53.1115   14.2631 N   0  0  0  0  0  0  0  0  0  0  0  0
   -3.2787   53.8310   13.9483 N   0  0  0  0  0  0  0  0  0  0  0  0
   -2.6749   53.4588   12.7804 C   0  0  0  0  0  0  0  0  0  0  0  0
   -3.4429   52.4320   12.3085 C   0  0  0  0  0  0  0  0  0  0  0  0
   -3.2198   51.7327   11.1283 C   0  0  0  0  0  0  0  0  0  0  0  0
   -2.9420   54.5640   14.5127 H   0  0  0  0  0  0  0  0  0  0  0  0
   -3.3569   49.8820    7.3515 C   0  0  0  0  0  0  0  0  0  0  0  0
   -2.8666   48.5972    7.1194 C   0  0  0  0  0  0  0  0  0  0  0  0
   -2.7648   48.1042    5.8177 C   0  0  0  0  0  0  0  0  0  0  0  0
   -3.1489   48.8950    4.7360 C   0  0  0  0  0  0  0  0  0  0  0  0
   -3.6340   50.1927    4.9379 C   0  0  0  0  0  0  0  0  0  0  0  0
   -3.7414   50.6724    6.2552 C   0  0  0  0  0  0  0  0  0  0  0  0
   -4.0189   50.9958    3.7807 C   0  0  0  0  0  0  0  0  0  0  0  0
   -4.9686   51.9118    3.7175 N   0  0  0  0  0  0  0  0  0  0  0  0
   -4.9704   52.3912    2.4304 N   0  0  0  0  0  0  0  0  0  0  0  0
   -4.0525   51.7807    1.6973 N   0  0  0  0  0  0  0  0  0  0  0  0
   -3.4706   50.9092    2.5294 N   0  0  0  0  0  0  0  0  0  0  0  0
   -2.7475   50.2908    2.2764 H   0  0  0  0  0  0  0  0  0  0  0  0
  1  2  2  0
  2  3  1  0
  3 15  1  0
 15 16  2  0
 16 17  1  0
 17 18  2  0
 18 19  1  0
 19 21  1  0
 21 22  2  0
 22 23  1  0
 23 24  2  0
 24 25  1  0
 19 20  2  0
  2  5  1  0
  5  6  1  0
  6  7  2  0
  7  8  1  0
  8  9  2  0
  9 10  1  0
 10 11  1  0
 11 12  2  0
 12 13  1  0
 20 15  1  0
 13  5  2  0
 25 21  1  0
 12  8  1  0
  3  4  1  0
 25 26  1  0
 10 14  1  0
M  END
> <minimizedAffinity>
-6.19709

> <CNNscore>
0.4006553590

> <CNNaffinity>
4.5474543571

> <CNN_VS>
1.8219619989

> <CNNaffinity_variance>
0.0733748376

$$$$



 26 29  0  0  0  0  0  0  0  0999 V2000
   -7.6080   53.1054   11.6625 O   0  0  0  0  0  0  0  0  0  0  0  0
   -6.6055   53.6784   11.2569 C   0  0  0  0  0  0  0  0  0  0  0  0
   -6.5415   54.6630   10.2857 N   0  0  0  0  0  0  0  0  0  0  0  0
   -5.6410   54.9636   10.0248 H   0  0  0  0  0  0  0  0  0  0  0  0
   -5.2824   53.2653   11.8097 C   0  0  0  0  0  0  0  0  0  0  0  0
   -4.5734   54.2381   12.5959 C   0  0  0  0  0  0  0  0  0  0  0  0
   -3.3129   53.9985   13.1906 C   0  0  0  0  0  0  0  0  0  0  0  0
   -2.8032   52.7168   12.9308 C   0  0  0  0  0  0  0  0  0  0  0  0
   -1.6535   52.1459   13.3238 N   0  0  0  0  0  0  0  0  0  0  0  0
   -1.6674   50.9187   12.7689 N   0  0  0  0  0  0  0  0  0  0  0  0
   -2.7880   50.6425   12.0374 C   0  0  0  0  0  0  0  0  0  0  0  0
   -3.5428   51.7781   12.1229 C   0  0  0  0  0  0  0  0  0  0  0  0
   -4.7815   51.9719   11.5230 C   0  0  0  0  0  0  0  0  0  0  0  0
   -0.9316   50.2744   12.8811 H   0  0  0  0  0  0  0  0  0  0  0  0
   -7.6264   55.2834    9.6283 C   0  0  0  0  0  0  0  0  0  0  0  0
   -7.9312   55.0855    8.2819 C   0  0  0  0  0  0  0  0  0  0  0  0
   -9.0367   55.7148    7.7076 C   0  0  0  0  0  0  0  0  0  0  0  0
   -9.8447   56.5518    8.4754 C   0  0  0  0  0  0  0  0  0  0  0  0
   -9.5565   56.7782    9.8267 C   0  0  0  0  0  0  0  0  0  0  0  0
   -8.4461   56.1291   10.3947 C   0  0  0  0  0  0  0  0  0  0  0  0
  -10.4198   57.6681   10.5982 C   0  0  0  0  0  0  0  0  0  0  0  0
  -11.1444   57.3640   11.6600 N   0  0  0  0  0  0  0  0  0  0  0  0
  -11.7950   58.5134   12.0368 N   0  0  0  0  0  0  0  0  0  0  0  0
  -11.4974   59.5138   11.2224 N   0  0  0  0  0  0  0  0  0  0  0  0
  -10.6548   58.9887   10.3253 N   0  0  0  0  0  0  0  0  0  0  0  0
  -10.2585   59.4841    9.5724 H   0  0  0  0  0  0  0  0  0  0  0  0
  1  2  2  0
  2  3  1  0
  3 15  1  0
 15 16  2  0
 16 17  1  0
 17 18  2  0
 18 19  1  0
 19 21  1  0
 21 22  2  0
 22 23  1  0
 23 24  2  0
 24 25  1  0
 19 20  2  0
  2  5  1  0
  5  6  1  0
  6  7  2  0
  7  8  1  0
  8  9  2  0
  9 10  1  0
 10 11  1  0
 11 12  2  0
 12 13  1  0
 20 15  1  0
 13  5  2  0
 25 21  1  0
 12  8  1  0
  3  4  1  0
 25 26  1  0
 10 14  1  0
M  END
> <minimizedAffinity>
-6.57608

> <CNNscore>
0.3803322613

> <CNNaffinity>
4.6496777534

> <CNN_VS>
1.7684224844

> <CNNaffinity_variance>
0.5260396004

$$$$



 26 29  0  0  0  0  0  0  0  0999 V2000
   -8.4603   55.9810   10.5151 O   0  0  0  0  0  0  0  0  0  0  0  0
   -7.5872   55.1268   10.4372 C   0  0  0  0  0  0  0  0  0  0  0  0
   -7.1050   54.5278    9.2859 N   0  0  0  0  0  0  0  0  0  0  0  0
   -6.4519   53.8017    9.4102 H   0  0  0  0  0  0  0  0  0  0  0  0
   -6.9856   54.6132   11.7025 C   0  0  0  0  0  0  0  0  0  0  0  0
   -7.0918   55.4561   12.8625 C   0  0  0  0  0  0  0  0  0  0  0  0
   -6.5773   55.1102   14.1335 C   0  0  0  0  0  0  0  0  0  0  0  0
   -5.9342   53.8629   14.1593 C   0  0  0  0  0  0  0  0  0  0  0  0
   -5.3350   53.2182   15.1730 N   0  0  0  0  0  0  0  0  0  0  0  0
   -4.8691   52.0764   14.6316 N   0  0  0  0  0  0  0  0  0  0  0  0
   -5.1494   51.9260   13.3028 C   0  0  0  0  0  0  0  0  0  0  0  0
   -5.8375   53.0575   12.9666 C   0  0  0  0  0  0  0  0  0  0  0  0
   -6.3293   53.3581   11.7019 C   0  0  0  0  0  0  0  0  0  0  0  0
   -4.3682   51.4059   15.1502 H   0  0  0  0  0  0  0  0  0  0  0  0
   -7.4474   54.8443    7.9530 C   0  0  0  0  0  0  0  0  0  0  0  0
   -8.4087   55.7929    7.6051 C   0  0  0  0  0  0  0  0  0  0  0  0
   -8.6750   56.0699    6.2634 C   0  0  0  0  0  0  0  0  0  0  0  0
   -7.9841   55.3962    5.2574 C   0  0  0  0  0  0  0  0  0  0  0  0
   -7.0218   54.4306    5.5767 C   0  0  0  0  0  0  0  0  0  0  0  0
   -6.7561   54.1696    6.9325 C   0  0  0  0  0  0  0  0  0  0  0  0
   -6.3239   53.7385    4.4969 C   0  0  0  0  0  0  0  0  0  0  0  0
   -6.3487   54.0275    3.2082 N   0  0  0  0  0  0  0  0  0  0  0  0
   -5.5521   53.1016    2.5800 N   0  0  0  0  0  0  0  0  0  0  0  0
   -5.0493   52.2415    3.4518 N   0  0  0  0  0  0  0  0  0  0  0  0
   -5.5353   52.6284    4.6370 N   0  0  0  0  0  0  0  0  0  0  0  0
   -5.3510   52.1767    5.4922 H   0  0  0  0  0  0  0  0  0  0  0  0
  1  2  2  0
  2  3  1  0
  3 15  1  0
 15 16  2  0
 16 17  1  0
 17 18  2  0
 18 19  1  0
 19 21  1  0
 21 22  2  0
 22 23  1  0
 23 24  2  0
 24 25  1  0
 19 20  2  0
  2  5  1  0
  5  6  1  0
  6  7  2  0
  7  8  1  0
  8  9  2  0
  9 10  1  0
 10 11  1  0
 11 12  2  0
 12 13  1  0
 20 15  1  0
 13  5  2  0
 25 21  1  0
 12  8  1  0
  3  4  1  0
 25 26  1  0
 10 14  1  0
M  END
> <minimizedAffinity>
-8.06705

> <CNNscore>
0.3741210401

> <CNNaffinity>
4.9268202782

> <CNN_VS>
1.8432271481

> <CNNaffinity_variance>
0.2901143134

$$$$



 26 29  0  0  0  0  0  0  0  0999 V2000
   -6.4780   55.5081    7.9538 O   0  0  0  0  0  0  0  0  0  0  0  0
   -7.5468   55.3686    7.3739 C   0  0  0  0  0  0  0  0  0  0  0  0
   -8.8138   55.4574    7.9247 N   0  0  0  0  0  0  0  0  0  0  0  0
   -9.5670   55.2415    7.3287 H   0  0  0  0  0  0  0  0  0  0  0  0
   -7.5238   55.0153    5.9243 C   0  0  0  0  0  0  0  0  0  0  0  0
   -6.5307   54.0654    5.5017 C   0  0  0  0  0  0  0  0  0  0  0  0
   -6.3834   53.6261    4.1656 C   0  0  0  0  0  0  0  0  0  0  0  0
   -7.2942   54.2168    3.2759 C   0  0  0  0  0  0  0  0  0  0  0  0
   -7.4482   54.0452    1.9534 N   0  0  0  0  0  0  0  0  0  0  0  0
   -8.4513   54.8758    1.6097 N   0  0  0  0  0  0  0  0  0  0  0  0
   -8.9837   55.5800    2.6527 C   0  0  0  0  0  0  0  0  0  0  0  0
   -8.2638   55.1777    3.7420 C   0  0  0  0  0  0  0  0  0  0  0  0
   -8.4432   55.6344    5.0424 C   0  0  0  0  0  0  0  0  0  0  0  0
   -8.7740   54.9678    0.6842 H   0  0  0  0  0  0  0  0  0  0  0  0
   -9.1441   55.8239    9.2479 C   0  0  0  0  0  0  0  0  0  0  0  0
   -8.6686   55.1578   10.3771 C   0  0  0  0  0  0  0  0  0  0  0  0
   -9.0193   55.5948   11.6554 C   0  0  0  0  0  0  0  0  0  0  0  0
   -9.8533   56.7003   11.8145 C   0  0  0  0  0  0  0  0  0  0  0  0
  -10.3550   57.3817   10.6990 C   0  0  0  0  0  0  0  0  0  0  0  0
   -9.9846   56.9371    9.4176 C   0  0  0  0  0  0  0  0  0  0  0  0
  -11.2330   58.5304   10.9034 C   0  0  0  0  0  0  0  0  0  0  0  0
  -11.9524   59.1645    9.9948 N   0  0  0  0  0  0  0  0  0  0  0  0
  -12.6076   60.1798   10.6476 N   0  0  0  0  0  0  0  0  0  0  0  0
  -12.2966   60.1929   11.9343 N   0  0  0  0  0  0  0  0  0  0  0  0
  -11.4374   59.1792   12.0914 N   0  0  0  0  0  0  0  0  0  0  0  0
  -11.0109   58.9337   12.9441 H   0  0  0  0  0  0  0  0  0  0  0  0
  1  2  2  0
  2  3  1  0
  3 15  1  0
 15 16  2  0
 16 17  1  0
 17 18  2  0
 18 19  1  0
 19 21  1  0
 21 22  2  0
 22 23  1  0
 23 24  2  0
 24 25  1  0
 19 20  2  0
  2  5  1  0
  5  6  1  0
  6  7  2  0
  7  8  1  0
  8  9  2  0
  9 10  1  0
 10 11  1  0
 11 12  2  0
 12 13  1  0
 20 15  1  0
 13  5  2  0
 25 21  1  0
 12  8  1  0
  3  4  1  0
 25 26  1  0
 10 14  1  0
M  END
> <minimizedAffinity>
-6.91553

> <CNNscore>
0.3658300340

> <CNNaffinity>
4.4385743141

> <CNN_VS>
1.6237637997

> <CNNaffinity_variance>
0.4406411946

$$$$



 26 29  0  0  0  0  0  0  0  0999 V2000
   -6.4452   55.2842    8.6752 O   0  0  0  0  0  0  0  0  0  0  0  0
   -7.3532   55.1847    7.8606 C   0  0  0  0  0  0  0  0  0  0  0  0
   -8.6974   55.4396    8.0729 N   0  0  0  0  0  0  0  0  0  0  0  0
   -9.3056   55.2347    7.3264 H   0  0  0  0  0  0  0  0  0  0  0  0
   -7.0239   54.6912    6.4914 C   0  0  0  0  0  0  0  0  0  0  0  0
   -7.3460   55.5598    5.3919 C   0  0  0  0  0  0  0  0  0  0  0  0
   -7.0933   55.2385    4.0380 C   0  0  0  0  0  0  0  0  0  0  0  0
   -6.5060   53.9762    3.8599 C   0  0  0  0  0  0  0  0  0  0  0  0
   -6.1317   53.3461    2.7352 N   0  0  0  0  0  0  0  0  0  0  0  0
   -5.6506   52.1572    3.1466 N   0  0  0  0  0  0  0  0  0  0  0  0
   -5.6725   51.9774    4.5010 C   0  0  0  0  0  0  0  0  0  0  0  0
   -6.2147   53.1313    4.9921 C   0  0  0  0  0  0  0  0  0  0  0  0
   -6.4445   53.4083    6.3346 C   0  0  0  0  0  0  0  0  0  0  0  0
   -5.3114   51.4747    2.5235 H   0  0  0  0  0  0  0  0  0  0  0  0
   -9.2915   55.9613    9.2430 C   0  0  0  0  0  0  0  0  0  0  0  0
   -8.9648   55.5390   10.5313 C   0  0  0  0  0  0  0  0  0  0  0  0
   -9.5776   56.1205   11.6422 C   0  0  0  0  0  0  0  0  0  0  0  0
  -10.5267   57.1273   11.4731 C   0  0  0  0  0  0  0  0  0  0  0  0
  -10.8829   57.5635   10.1912 C   0  0  0  0  0  0  0  0  0  0  0  0
  -10.2495   56.9765    9.0816 C   0  0  0  0  0  0  0  0  0  0  0  0
  -11.8872   58.6142   10.0515 C   0  0  0  0  0  0  0  0  0  0  0  0
  -11.8245   59.8524   10.5076 N   0  0  0  0  0  0  0  0  0  0  0  0
  -12.9980   60.4671   10.1450 N   0  0  0  0  0  0  0  0  0  0  0  0
  -13.7866   59.6306    9.4884 N   0  0  0  0  0  0  0  0  0  0  0  0
  -13.1045   58.4805    9.4396 N   0  0  0  0  0  0  0  0  0  0  0  0
  -13.4329   57.6520    9.0213 H   0  0  0  0  0  0  0  0  0  0  0  0
  1  2  2  0
  2  3  1  0
  3 15  1  0
 15 16  2  0
 16 17  1  0
 17 18  2  0
 18 19  1  0
 19 21  1  0
 21 22  2  0
 22 23  1  0
 23 24  2  0
 24 25  1  0
 19 20  2  0
  2  5  1  0
  5  6  1  0
  6  7  2  0
  7  8  1  0
  8  9  2  0
  9 10  1  0
 10 11  1  0
 11 12  2  0
 12 13  1  0
 20 15  1  0
 13  5  2  0
 25 21  1  0
 12  8  1  0
  3  4  1  0
 25 26  1  0
 10 14  1  0
M  END
> <minimizedAffinity>
-6.73394

> <CNNscore>
0.3647252321

> <CNNaffinity>
4.1435141563

> <CNN_VS>
1.5112441778

> <CNNaffinity_variance>
0.5795660019

$$$$



 26 29  0  0  0  0  0  0  0  0999 V2000
   -8.8406   55.3190   13.6570 O   0  0  0  0  0  0  0  0  0  0  0  0
   -8.8416   55.4157   12.4369 C   0  0  0  0  0  0  0  0  0  0  0  0
   -8.1151   54.6535   11.5380 N   0  0  0  0  0  0  0  0  0  0  0  0
   -8.1764   54.9158   10.5911 H   0  0  0  0  0  0  0  0  0  0  0  0
   -9.6657   56.4923   11.8136 C   0  0  0  0  0  0  0  0  0  0  0  0
   -9.2016   57.0242   10.5611 C   0  0  0  0  0  0  0  0  0  0  0  0
   -9.8718   58.0427    9.8446 C   0  0  0  0  0  0  0  0  0  0  0  0
  -11.0362   58.5033   10.4787 C   0  0  0  0  0  0  0  0  0  0  0  0
  -11.9129   59.4470   10.1005 N   0  0  0  0  0  0  0  0  0  0  0  0
  -12.8220   59.4945   11.0931 N   0  0  0  0  0  0  0  0  0  0  0  0
  -12.5966   58.6081   12.1082 C   0  0  0  0  0  0  0  0  0  0  0  0
  -11.4555   57.9510   11.7436 C   0  0  0  0  0  0  0  0  0  0  0  0
  -10.8292   56.9512   12.4783 C   0  0  0  0  0  0  0  0  0  0  0  0
  -13.5855   60.1161   11.0876 H   0  0  0  0  0  0  0  0  0  0  0  0
   -7.2958   53.5411   11.8306 C   0  0  0  0  0  0  0  0  0  0  0  0
   -7.7654   52.2295   11.8943 C   0  0  0  0  0  0  0  0  0  0  0  0
   -6.8889   51.1775   12.1646 C   0  0  0  0  0  0  0  0  0  0  0  0
   -5.5347   51.4299   12.3779 C   0  0  0  0  0  0  0  0  0  0  0  0
   -5.0369   52.7377   12.3313 C   0  0  0  0  0  0  0  0  0  0  0  0
   -5.9293   53.7865   12.0473 C   0  0  0  0  0  0  0  0  0  0  0  0
   -3.6142   52.9656   12.5683 C   0  0  0  0  0  0  0  0  0  0  0  0
   -3.0354   53.3297   13.6985 N   0  0  0  0  0  0  0  0  0  0  0  0
   -1.6902   53.4283   13.4398 N   0  0  0  0  0  0  0  0  0  0  0  0
   -1.4306   53.1466   12.1726 N   0  0  0  0  0  0  0  0  0  0  0  0
   -2.6221   52.8708   11.6299 N   0  0  0  0  0  0  0  0  0  0  0  0
   -2.7656   52.6325   10.6855 H   0  0  0  0  0  0  0  0  0  0  0  0
  1  2  2  0
  2  3  1  0
  3 15  1  0
 15 16  2  0
 16 17  1  0
 17 18  2  0
 18 19  1  0
 19 21  1  0
 21 22  2  0
 22 23  1  0
 23 24  2  0
 24 25  1  0
 19 20  2  0
  2  5  1  0
  5  6  1  0
  6  7  2  0
  7  8  1  0
  8  9  2  0
  9 10  1  0
 10 11  1  0
 11 12  2  0
 12 13  1  0
 20 15  1  0
 13  5  2  0
 25 21  1  0
 12  8  1  0
  3  4  1  0
 25 26  1  0
 10 14  1  0
M  END
> <minimizedAffinity>
-8.83708

> <CNNscore>
0.3484243155

> <CNNaffinity>
4.2806029320

> <CNN_VS>
1.4914661646

> <CNNaffinity_variance>
1.4897931814

$$$$



 26 29  0  0  0  0  0  0  0  0999 V2000
   -6.4535   55.4703    8.0423 O   0  0  0  0  0  0  0  0  0  0  0  0
   -7.5401   55.3875    7.4853 C   0  0  0  0  0  0  0  0  0  0  0  0
   -8.7896   55.4990    8.0711 N   0  0  0  0  0  0  0  0  0  0  0  0
   -9.5641   55.3299    7.4872 H   0  0  0  0  0  0  0  0  0  0  0  0
   -7.5646   55.0858    6.0241 C   0  0  0  0  0  0  0  0  0  0  0  0
   -6.5611   54.1829    5.5293 C   0  0  0  0  0  0  0  0  0  0  0  0
   -6.4542   53.7953    4.1735 C   0  0  0  0  0  0  0  0  0  0  0  0
   -7.4171   54.3877    3.3417 C   0  0  0  0  0  0  0  0  0  0  0  0
   -7.6187   54.2575    2.0209 N   0  0  0  0  0  0  0  0  0  0  0  0
   -8.6592   55.0676    1.7467 N   0  0  0  0  0  0  0  0  0  0  0  0
   -9.1704   55.7180    2.8343 C   0  0  0  0  0  0  0  0  0  0  0  0
   -8.3958   55.3008    3.8795 C   0  0  0  0  0  0  0  0  0  0  0  0
   -8.5367   55.7060    5.2015 C   0  0  0  0  0  0  0  0  0  0  0  0
   -9.0213   55.1817    0.8383 H   0  0  0  0  0  0  0  0  0  0  0  0
   -9.0749   55.8286    9.4142 C   0  0  0  0  0  0  0  0  0  0  0  0
  -10.2413   56.4755    9.8215 C   0  0  0  0  0  0  0  0  0  0  0  0
  -10.4647   56.7457   11.1724 C   0  0  0  0  0  0  0  0  0  0  0  0
   -9.5198   56.3745   12.1277 C   0  0  0  0  0  0  0  0  0  0  0  0
   -8.3344   55.7340   11.7470 C   0  0  0  0  0  0  0  0  0  0  0  0
   -8.1277   55.4583   10.3838 C   0  0  0  0  0  0  0  0  0  0  0  0
   -7.3632   55.3674   12.7739 C   0  0  0  0  0  0  0  0  0  0  0  0
   -7.5567   55.3082   14.0792 N   0  0  0  0  0  0  0  0  0  0  0  0
   -6.3614   54.9285   14.6392 N   0  0  0  0  0  0  0  0  0  0  0  0
   -5.4338   54.7665   13.7087 N   0  0  0  0  0  0  0  0  0  0  0  0
   -6.0501   55.0485   12.5549 N   0  0  0  0  0  0  0  0  0  0  0  0
   -5.6185   55.0294   11.6703 H   0  0  0  0  0  0  0  0  0  0  0  0
  1  2  2  0
  2  3  1  0
  3 15  1  0
 15 16  2  0
 16 17  1  0
 17 18  2  0
 18 19  1  0
 19 21  1  0
 21 22  2  0
 22 23  1  0
 23 24  2  0
 24 25  1  0
 19 20  2  0
  2  5  1  0
  5  6  1  0
  6  7  2  0
  7  8  1  0
  8  9  2  0
  9 10  1  0
 10 11  1  0
 11 12  2  0
 12 13  1  0
 20 15  1  0
 13  5  2  0
 25 21  1  0
 12  8  1  0
  3  4  1  0
 25 26  1  0
 10 14  1  0
M  END
> <minimizedAffinity>
-8.35224

> <CNNscore>
0.3408102989

> <CNNaffinity>
4.3946881294

> <CNN_VS>
1.4977549314

> <CNNaffinity_variance>
0.9908846021

$$$$
