


 53 55  0  0  0  0  0  0  0  0999 V2000
   41.6636   -4.0335   10.7100 N   0  0  0  0  0  0  0  0  0  0  0  0
   41.5811   -3.8832   12.0781 C   0  0  0  0  0  0  0  0  0  0  0  0
   42.5586   -3.9908   12.8158 O   0  0  0  0  0  0  0  0  0  0  0  0
   40.8389   -4.0305   10.1722 H   0  0  0  0  0  0  0  0  0  0  0  0
   40.2499   -3.5759   12.6799 C   0  0  0  0  0  0  0  0  0  0  0  0
   39.1675   -4.3849   12.2977 C   0  0  0  0  0  0  0  0  0  0  0  0
   37.8944   -4.1647   12.8330 C   0  0  0  0  0  0  0  0  0  0  0  0
   37.6975   -3.1570   13.7791 C   0  0  0  0  0  0  0  0  0  0  0  0
   38.7686   -2.3520   14.1615 C   0  0  0  0  0  0  0  0  0  0  0  0
   40.0372   -2.5442   13.6007 C   0  0  0  0  0  0  0  0  0  0  0  0
   36.7383   -5.0089   12.4463 C   0  0  0  0  0  0  0  0  0  0  0  0
   36.0054   -5.4638   13.3133 O   0  0  0  0  0  0  0  0  0  0  0  0
   36.5663   -5.2014   11.0971 N   0  0  0  0  0  0  0  0  0  0  0  0
   37.2081   -4.7934   10.4719 H   0  0  0  0  0  0  0  0  0  0  0  0
   35.4667   -5.9887   10.5629 C   0  0  0  0  0  0  0  0  0  0  0  0
   35.9284   -7.4084   10.2157 C   0  0  0  0  0  0  0  0  0  0  0  0
   34.8570   -5.2587    9.3769 C   0  0  0  0  0  0  0  0  0  0  0  0
   33.5288   -4.8010    9.3876 C   0  0  0  0  0  0  0  0  0  0  0  0
   32.9864   -4.1583    8.2710 C   0  0  0  0  0  0  0  0  0  0  0  0
   33.7611   -3.9741    7.1276 C   0  0  0  0  0  0  0  0  0  0  0  0
   35.0740   -4.4342    7.0945 C   0  0  0  0  0  0  0  0  0  0  0  0
   35.6175   -5.0765    8.2098 C   0  0  0  0  0  0  0  0  0  0  0  0
   38.5191   -1.3248   15.1377 N   0  0  0  0  0  0  0  0  0  0  0  0
   39.3426   -1.4138   16.3678 C   0  0  0  0  0  0  0  0  0  0  0  0
   36.8700   -0.9582   15.4308 S   0  0  0  0  0  0  0  0  0  0  0  0
   36.3800   -2.3349   16.4510 C   0  0  0  0  0  0  0  0  0  0  0  0
   36.7869    0.2624   16.2088 O   0  0  0  0  0  0  0  0  0  0  0  0
   36.1625   -1.0786   14.1727 O   0  0  0  0  0  0  0  0  0  0  0  0
   42.9666   -4.1986   10.0385 C   0  0  0  0  0  0  0  0  0  0  0  0
   42.9152   -5.4273    9.1090 C   0  0  0  0  0  0  0  0  0  0  0  0
   41.8940   -6.4582    9.5273 C   0  0  0  0  0  0  0  0  0  0  0  0
   42.0737   -7.1976   10.7043 C   0  0  0  0  0  0  0  0  0  0  0  0
   41.1324   -8.1520   11.0929 C   0  0  0  0  0  0  0  0  0  0  0  0
   40.0068   -8.3722   10.3025 C   0  0  0  0  0  0  0  0  0  0  0  0
   38.8488   -9.5551   10.7750 Cl  0  0  0  0  0  0  0  0  0  0  0  0
   39.8127   -7.6439    9.1298 C   0  0  0  0  0  0  0  0  0  0  0  0
   40.7536   -6.6874    8.7427 C   0  0  0  0  0  0  0  0  0  0  0  0
   43.3492   -2.8863    9.2976 C   0  0  0  0  0  0  0  0  0  0  0  0
   43.7897   -1.8495   10.2439 N   0  0  0  0  0  0  0  0  0  0  0  0
   43.1325   -1.0717   10.1840 H   0  0  0  0  0  0  0  0  0  0  0  0
   45.1562   -1.3097   10.0224 C   0  0  0  0  0  0  0  0  0  0  0  0
   45.4021    0.1700   10.4194 C   0  0  0  0  0  0  0  0  0  0  0  0
   44.4046    0.7810   11.4000 C   0  0  0  0  0  0  0  0  0  0  0  0
   46.7158    0.2785   10.9983 O   0  0  0  0  0  0  0  0  0  0  0  0
   46.7527   -0.2420   11.8160 H   0  0  0  0  0  0  0  0  0  0  0  0
   47.2039   -2.5754    9.5820 N   0  0  0  0  0  0  0  0  0  0  0  0
   46.2737   -2.2449   10.5528 C   0  0  0  0  0  0  0  0  0  0  0  0
   46.3500   -2.6640   11.7044 O   0  0  0  0  0  0  0  0  0  0  0  0
   47.0616   -2.2567    8.6615 H   0  0  0  0  0  0  0  0  0  0  0  0
   48.3775   -3.3716    9.8698 C   0  0  0  0  0  0  0  0  0  0  0  0
   49.7543   -2.3675    8.0245 C   0  0  0  0  0  0  0  0  0  0  0  0
   49.2155   -3.6696    8.6174 C   0  0  0  0  0  0  0  0  0  0  0  0
   50.3771   -4.6174    8.9244 C   0  0  0  0  0  0  0  0  0  0  0  0
 51 52  1  0
 52 53  1  0
 52 50  1  0
 50 46  1  0
 46 47  1  0
 47 48  2  0
 47 41  1  0
 41 39  1  0
 39 38  1  0
 29 38  1  0
 29 30  1  0
 30 31  1  0
 31 32  2  0
 32 33  1  0
 33 34  2  0
 34 35  1  0
 34 36  1  0
 36 37  2  0
 29  1  1  0
  1  2  1  0
  2  3  2  0
  2  5  1  0
  5  6  2  0
  6  7  1  0
  7 11  1  0
 11 12  2  0
 11 13  1  0
 13 15  1  0
 15 16  1  0
 15 17  1  0
 17 18  2  0
 18 19  1  0
 19 20  2  0
 20 21  1  0
 21 22  2  0
  7  8  2  0
  8  9  1  0
  9 23  1  0
 23 24  1  0
 23 25  1  0
 25 26  1  0
 25 27  2  0
 25 28  2  0
  9 10  2  0
 41 42  1  0
 42 43  1  0
 42 44  1  0
 37 31  1  0
 10  5  1  0
 22 17  1  0
 46 49  1  0
 39 40  1  0
  1  4  1  0
 13 14  1  0
 44 45  1  0
M  END
> <minimizedAffinity>
-12.12006

> <CNNscore>
0.9947111607

> <CNNaffinity>
8.8630733490

> <CNN_VS>
8.8161983490

> <CNNaffinity_variance>
1.9235588312

$$$$



 53 55  0  0  0  0  0  0  0  0999 V2000
   41.5984   -4.0718   10.5818 N   0  0  0  0  0  0  0  0  0  0  0  0
   41.5305   -3.9709   11.9553 C   0  0  0  0  0  0  0  0  0  0  0  0
   42.5118   -4.1249   12.6795 O   0  0  0  0  0  0  0  0  0  0  0  0
   40.7695   -4.0329   10.0521 H   0  0  0  0  0  0  0  0  0  0  0  0
   40.2108   -3.6603   12.5802 C   0  0  0  0  0  0  0  0  0  0  0  0
   39.1166   -4.4568   12.2051 C   0  0  0  0  0  0  0  0  0  0  0  0
   37.8532   -4.2330   12.7618 C   0  0  0  0  0  0  0  0  0  0  0  0
   37.6782   -3.2346   13.7219 C   0  0  0  0  0  0  0  0  0  0  0  0
   38.7610   -2.4421   14.0972 C   0  0  0  0  0  0  0  0  0  0  0  0
   40.0197   -2.6376   13.5155 C   0  0  0  0  0  0  0  0  0  0  0  0
   36.6851   -5.0640   12.3829 C   0  0  0  0  0  0  0  0  0  0  0  0
   35.9473   -5.5025   13.2543 O   0  0  0  0  0  0  0  0  0  0  0  0
   36.5084   -5.2640   11.0354 N   0  0  0  0  0  0  0  0  0  0  0  0
   37.1548   -4.8694   10.4063 H   0  0  0  0  0  0  0  0  0  0  0  0
   35.3972   -6.0399   10.5085 C   0  0  0  0  0  0  0  0  0  0  0  0
   35.8527   -7.4490   10.1133 C   0  0  0  0  0  0  0  0  0  0  0  0
   34.7568   -5.2811    9.3573 C   0  0  0  0  0  0  0  0  0  0  0  0
   33.4032   -4.9059    9.3750 C   0  0  0  0  0  0  0  0  0  0  0  0
   32.8345   -4.2340    8.2890 C   0  0  0  0  0  0  0  0  0  0  0  0
   33.6088   -3.9378    7.1691 C   0  0  0  0  0  0  0  0  0  0  0  0
   34.9476   -4.3149    7.1287 C   0  0  0  0  0  0  0  0  0  0  0  0
   35.5174   -4.9864    8.2134 C   0  0  0  0  0  0  0  0  0  0  0  0
   38.5340   -1.4241   15.0885 N   0  0  0  0  0  0  0  0  0  0  0  0
   39.3737   -1.5341   16.3058 C   0  0  0  0  0  0  0  0  0  0  0  0
   36.8923   -1.0470   15.4088 S   0  0  0  0  0  0  0  0  0  0  0  0
   36.3914   -2.4551   16.3798 C   0  0  0  0  0  0  0  0  0  0  0  0
   36.8317    0.1439   16.2334 O   0  0  0  0  0  0  0  0  0  0  0  0
   36.1736   -1.1099   14.1529 O   0  0  0  0  0  0  0  0  0  0  0  0
   42.8922   -4.2372    9.8928 C   0  0  0  0  0  0  0  0  0  0  0  0
   42.9236   -5.6017    9.1762 C   0  0  0  0  0  0  0  0  0  0  0  0
   41.8649   -6.5629    9.6617 C   0  0  0  0  0  0  0  0  0  0  0  0
   40.6888   -6.7546    8.9239 C   0  0  0  0  0  0  0  0  0  0  0  0
   39.7078   -7.6412    9.3706 C   0  0  0  0  0  0  0  0  0  0  0  0
   39.8994   -8.3389   10.5609 C   0  0  0  0  0  0  0  0  0  0  0  0
   38.6871   -9.4264   11.1186 Cl  0  0  0  0  0  0  0  0  0  0  0  0
   41.0644   -8.1606   11.3055 C   0  0  0  0  0  0  0  0  0  0  0  0
   42.0465   -7.2753   10.8568 C   0  0  0  0  0  0  0  0  0  0  0  0
   43.1380   -3.0373    8.9351 C   0  0  0  0  0  0  0  0  0  0  0  0
   44.3639   -2.3091    9.2974 N   0  0  0  0  0  0  0  0  0  0  0  0
   45.1497   -2.7730    8.8415 H   0  0  0  0  0  0  0  0  0  0  0  0
   44.6631   -2.2285   10.7507 C   0  0  0  0  0  0  0  0  0  0  0  0
   46.1408   -2.4312   11.1781 C   0  0  0  0  0  0  0  0  0  0  0  0
   47.1987   -1.8221   10.2616 C   0  0  0  0  0  0  0  0  0  0  0  0
   46.3197   -1.8736   12.4932 O   0  0  0  0  0  0  0  0  0  0  0  0
   46.1645   -0.9166   12.4625 H   0  0  0  0  0  0  0  0  0  0  0  0
   44.8884    0.0906   11.4991 N   0  0  0  0  0  0  0  0  0  0  0  0
   44.0267   -0.9912   11.4355 C   0  0  0  0  0  0  0  0  0  0  0  0
   42.8844   -0.9474   11.8837 O   0  0  0  0  0  0  0  0  0  0  0  0
   45.8115   -0.0193   11.1751 H   0  0  0  0  0  0  0  0  0  0  0  0
   44.4830    1.3768   12.0239 C   0  0  0  0  0  0  0  0  0  0  0  0
   46.9565    1.7461   11.7902 C   0  0  0  0  0  0  0  0  0  0  0  0
   45.6743    2.2443   12.4574 C   0  0  0  0  0  0  0  0  0  0  0  0
   45.4546    3.7202   12.1177 C   0  0  0  0  0  0  0  0  0  0  0  0
 51 52  1  0
 52 53  1  0
 52 50  1  0
 50 46  1  0
 46 47  1  0
 47 48  2  0
 47 41  1  0
 41 39  1  0
 39 38  1  0
 29 38  1  0
 29 30  1  0
 30 31  1  0
 31 32  2  0
 32 33  1  0
 33 34  2  0
 34 35  1  0
 34 36  1  0
 36 37  2  0
 29  1  1  0
  1  2  1  0
  2  3  2  0
  2  5  1  0
  5  6  2  0
  6  7  1  0
  7 11  1  0
 11 12  2  0
 11 13  1  0
 13 15  1  0
 15 16  1  0
 15 17  1  0
 17 18  2  0
 18 19  1  0
 19 20  2  0
 20 21  1  0
 21 22  2  0
  7  8  2  0
  8  9  1  0
  9 23  1  0
 23 24  1  0
 23 25  1  0
 25 26  1  0
 25 27  2  0
 25 28  2  0
  9 10  2  0
 41 42  1  0
 42 43  1  0
 42 44  1  0
 37 31  1  0
 10  5  1  0
 22 17  1  0
 46 49  1  0
 39 40  1  0
  1  4  1  0
 13 14  1  0
 44 45  1  0
M  END
> <minimizedAffinity>
-12.40627

> <CNNscore>
0.9934508801

> <CNNaffinity>
8.8471879959

> <CNN_VS>
8.7892465591

> <CNNaffinity_variance>
1.5619974136

$$$$



 53 55  0  0  0  0  0  0  0  0999 V2000
   36.4755   -5.5819   12.9787 N   0  0  0  0  0  0  0  0  0  0  0  0
   37.1063   -4.5489   12.3184 C   0  0  0  0  0  0  0  0  0  0  0  0
   36.8030   -4.2104   11.1762 O   0  0  0  0  0  0  0  0  0  0  0  0
   36.8157   -5.8759   13.8545 H   0  0  0  0  0  0  0  0  0  0  0  0
   38.1982   -3.8161   13.0251 C   0  0  0  0  0  0  0  0  0  0  0  0
   39.4712   -3.8278   12.4322 C   0  0  0  0  0  0  0  0  0  0  0  0
   40.5380   -3.1495   13.0305 C   0  0  0  0  0  0  0  0  0  0  0  0
   40.3358   -2.4264   14.2076 C   0  0  0  0  0  0  0  0  0  0  0  0
   39.0744   -2.4117   14.7993 C   0  0  0  0  0  0  0  0  0  0  0  0
   38.0119   -3.1198   14.2243 C   0  0  0  0  0  0  0  0  0  0  0  0
   41.8893   -3.1457   12.4201 C   0  0  0  0  0  0  0  0  0  0  0  0
   42.6574   -4.0701   12.6469 O   0  0  0  0  0  0  0  0  0  0  0  0
   42.1714   -2.0771   11.6044 N   0  0  0  0  0  0  0  0  0  0  0  0
   41.4882   -1.3794   11.4797 H   0  0  0  0  0  0  0  0  0  0  0  0
   43.4470   -1.9436   10.9192 C   0  0  0  0  0  0  0  0  0  0  0  0
   44.3205   -3.1830   11.1429 C   0  0  0  0  0  0  0  0  0  0  0  0
   44.1226   -0.6562   11.3633 C   0  0  0  0  0  0  0  0  0  0  0  0
   43.4082    0.3851   11.9788 C   0  0  0  0  0  0  0  0  0  0  0  0
   44.0511    1.5694   12.3503 C   0  0  0  0  0  0  0  0  0  0  0  0
   45.4127    1.7312   12.1026 C   0  0  0  0  0  0  0  0  0  0  0  0
   46.1327    0.7157   11.4807 C   0  0  0  0  0  0  0  0  0  0  0  0
   45.4915   -0.4687   11.1090 C   0  0  0  0  0  0  0  0  0  0  0  0
   38.9125   -1.6550   16.0123 N   0  0  0  0  0  0  0  0  0  0  0  0
   39.3580   -2.3446   17.2472 C   0  0  0  0  0  0  0  0  0  0  0  0
   37.4225   -0.8233   16.1801 S   0  0  0  0  0  0  0  0  0  0  0  0
   36.4110   -2.0681   16.9572 C   0  0  0  0  0  0  0  0  0  0  0  0
   37.5993    0.2854   17.0975 O   0  0  0  0  0  0  0  0  0  0  0  0
   36.8908   -0.6013   14.8513 O   0  0  0  0  0  0  0  0  0  0  0  0
   35.2993   -6.2542   12.3948 C   0  0  0  0  0  0  0  0  0  0  0  0
   35.6937   -6.9145   11.0588 C   0  0  0  0  0  0  0  0  0  0  0  0
   35.2704   -6.1214    9.8454 C   0  0  0  0  0  0  0  0  0  0  0  0
   34.0298   -5.4698    9.8214 C   0  0  0  0  0  0  0  0  0  0  0  0
   33.6351   -4.7371    8.7010 C   0  0  0  0  0  0  0  0  0  0  0  0
   34.4810   -4.6555    7.5973 C   0  0  0  0  0  0  0  0  0  0  0  0
   33.9928   -3.7597    6.2107 Cl  0  0  0  0  0  0  0  0  0  0  0  0
   35.7189   -5.2965    7.6062 C   0  0  0  0  0  0  0  0  0  0  0  0
   36.1142   -6.0274    8.7284 C   0  0  0  0  0  0  0  0  0  0  0  0
   34.7012   -7.2579   13.4205 C   0  0  0  0  0  0  0  0  0  0  0  0
   34.7241   -6.7040   14.7833 N   0  0  0  0  0  0  0  0  0  0  0  0
   35.6988   -6.5528   15.0432 H   0  0  0  0  0  0  0  0  0  0  0  0
   34.0974   -7.5463   15.8348 C   0  0  0  0  0  0  0  0  0  0  0  0
   32.5767   -7.8244   15.7013 C   0  0  0  0  0  0  0  0  0  0  0  0
   31.6878   -6.6099   15.4463 C   0  0  0  0  0  0  0  0  0  0  0  0
   32.3727   -8.7568   14.6236 O   0  0  0  0  0  0  0  0  0  0  0  0
   32.6594   -8.3541   13.7890 H   0  0  0  0  0  0  0  0  0  0  0  0
   34.3981   -9.5410   17.2204 N   0  0  0  0  0  0  0  0  0  0  0  0
   34.8982   -8.8395   16.1365 C   0  0  0  0  0  0  0  0  0  0  0  0
   35.8755   -9.2241   15.5004 O   0  0  0  0  0  0  0  0  0  0  0  0
   33.6474   -9.1564   17.7281 H   0  0  0  0  0  0  0  0  0  0  0  0
   34.9375  -10.8182   17.6348 C   0  0  0  0  0  0  0  0  0  0  0  0
   34.3360  -13.2498   17.8221 C   0  0  0  0  0  0  0  0  0  0  0  0
   33.8469  -11.8188   18.0463 C   0  0  0  0  0  0  0  0  0  0  0  0
   33.4328  -11.6371   19.5083 C   0  0  0  0  0  0  0  0  0  0  0  0
 51 52  1  0
 52 53  1  0
 52 50  1  0
 50 46  1  0
 46 47  1  0
 47 48  2  0
 47 41  1  0
 41 39  1  0
 39 38  1  0
 29 38  1  0
 29 30  1  0
 30 31  1  0
 31 32  2  0
 32 33  1  0
 33 34  2  0
 34 35  1  0
 34 36  1  0
 36 37  2  0
 29  1  1  0
  1  2  1  0
  2  3  2  0
  2  5  1  0
  5  6  2  0
  6  7  1  0
  7 11  1  0
 11 12  2  0
 11 13  1  0
 13 15  1  0
 15 16  1  0
 15 17  1  0
 17 18  2  0
 18 19  1  0
 19 20  2  0
 20 21  1  0
 21 22  2  0
  7  8  2  0
  8  9  1  0
  9 23  1  0
 23 24  1  0
 23 25  1  0
 25 26  1  0
 25 27  2  0
 25 28  2  0
  9 10  2  0
 41 42  1  0
 42 43  1  0
 42 44  1  0
 37 31  1  0
 10  5  1  0
 22 17  1  0
 46 49  1  0
 39 40  1  0
  1  4  1  0
 13 14  1  0
 44 45  1  0
M  END
> <minimizedAffinity>
-8.46016

> <CNNscore>
0.4090060294

> <CNNaffinity>
6.8770751953

> <CNN_VS>
2.8127651215

> <CNNaffinity_variance>
1.0203375816

$$$$



 53 55  0  0  0  0  0  0  0  0999 V2000
   36.6870   -5.8564   13.1557 N   0  0  0  0  0  0  0  0  0  0  0  0
   37.0672   -4.7321   12.4537 C   0  0  0  0  0  0  0  0  0  0  0  0
   36.5714   -4.4293   11.3704 O   0  0  0  0  0  0  0  0  0  0  0  0
   37.1778   -6.1064   13.9717 H   0  0  0  0  0  0  0  0  0  0  0  0
   38.1212   -3.8519   13.0394 C   0  0  0  0  0  0  0  0  0  0  0  0
   39.4049   -3.9196   12.4740 C   0  0  0  0  0  0  0  0  0  0  0  0
   40.4376   -3.1124   12.9617 C   0  0  0  0  0  0  0  0  0  0  0  0
   40.1899   -2.2071   13.9953 C   0  0  0  0  0  0  0  0  0  0  0  0
   38.9177   -2.1363   14.5591 C   0  0  0  0  0  0  0  0  0  0  0  0
   37.8898   -2.9687   14.0995 C   0  0  0  0  0  0  0  0  0  0  0  0
   41.7995   -3.1651   12.3774 C   0  0  0  0  0  0  0  0  0  0  0  0
   42.5358   -4.1043   12.6450 O   0  0  0  0  0  0  0  0  0  0  0  0
   42.1277   -2.1290   11.5374 N   0  0  0  0  0  0  0  0  0  0  0  0
   41.4676   -1.4157   11.3800 H   0  0  0  0  0  0  0  0  0  0  0  0
   43.4190   -2.0520   10.8733 C   0  0  0  0  0  0  0  0  0  0  0  0
   44.2704   -3.2870   11.1879 C   0  0  0  0  0  0  0  0  0  0  0  0
   44.1030   -0.7494   11.2558 C   0  0  0  0  0  0  0  0  0  0  0  0
   45.4837   -0.5555   11.0840 C   0  0  0  0  0  0  0  0  0  0  0  0
   46.0899    0.6429   11.4719 C   0  0  0  0  0  0  0  0  0  0  0  0
   45.3258    1.6574   12.0448 C   0  0  0  0  0  0  0  0  0  0  0  0
   43.9593    1.4767   12.2358 C   0  0  0  0  0  0  0  0  0  0  0  0
   43.3520    0.2796   11.8483 C   0  0  0  0  0  0  0  0  0  0  0  0
   38.7085   -1.1904   15.6231 N   0  0  0  0  0  0  0  0  0  0  0  0
   39.4430   -1.4831   16.8775 C   0  0  0  0  0  0  0  0  0  0  0  0
   37.0871   -0.6892   15.8682 S   0  0  0  0  0  0  0  0  0  0  0  0
   36.4624   -2.0085   16.8907 C   0  0  0  0  0  0  0  0  0  0  0  0
   37.0824    0.5445   16.6298 O   0  0  0  0  0  0  0  0  0  0  0  0
   36.4045   -0.7696   14.5932 O   0  0  0  0  0  0  0  0  0  0  0  0
   35.5574   -6.6909   12.7045 C   0  0  0  0  0  0  0  0  0  0  0  0
   34.2425   -6.1376   13.2886 C   0  0  0  0  0  0  0  0  0  0  0  0
   34.2378   -6.0593   14.7967 C   0  0  0  0  0  0  0  0  0  0  0  0
   34.4415   -7.2119   15.5674 C   0  0  0  0  0  0  0  0  0  0  0  0
   34.4365   -7.1430   16.9614 C   0  0  0  0  0  0  0  0  0  0  0  0
   34.2248   -5.9185   17.5906 C   0  0  0  0  0  0  0  0  0  0  0  0
   34.2094   -5.8323   19.3098 Cl  0  0  0  0  0  0  0  0  0  0  0  0
   34.0224   -4.7625   16.8382 C   0  0  0  0  0  0  0  0  0  0  0  0
   34.0299   -4.8316   15.4435 C   0  0  0  0  0  0  0  0  0  0  0  0
   35.5498   -6.7751   11.1520 C   0  0  0  0  0  0  0  0  0  0  0  0
   34.3668   -6.1063   10.5882 N   0  0  0  0  0  0  0  0  0  0  0  0
   33.5733   -6.7398   10.6854 H   0  0  0  0  0  0  0  0  0  0  0  0
   34.4650   -5.7148    9.1581 C   0  0  0  0  0  0  0  0  0  0  0  0
   33.8775   -4.3339    8.7638 C   0  0  0  0  0  0  0  0  0  0  0  0
   33.6005   -4.1170    7.2784 C   0  0  0  0  0  0  0  0  0  0  0  0
   32.6429   -4.1387    9.4779 O   0  0  0  0  0  0  0  0  0  0  0  0
   31.9988   -4.8084    9.1993 H   0  0  0  0  0  0  0  0  0  0  0  0
   36.6924   -6.7046    9.3766 N   0  0  0  0  0  0  0  0  0  0  0  0
   35.8800   -5.9335    8.5628 C   0  0  0  0  0  0  0  0  0  0  0  0
   36.2665   -5.4825    7.4881 O   0  0  0  0  0  0  0  0  0  0  0  0
   36.3489   -6.9919   10.2534 H   0  0  0  0  0  0  0  0  0  0  0  0
   38.0276   -7.1041    8.9869 C   0  0  0  0  0  0  0  0  0  0  0  0
   38.7192   -8.7468   10.7568 C   0  0  0  0  0  0  0  0  0  0  0  0
   38.9510   -7.3457   10.1905 C   0  0  0  0  0  0  0  0  0  0  0  0
   40.4254   -7.1763    9.8173 C   0  0  0  0  0  0  0  0  0  0  0  0
 51 52  1  0
 52 53  1  0
 52 50  1  0
 50 46  1  0
 46 47  1  0
 47 48  2  0
 47 41  1  0
 41 39  1  0
 39 38  1  0
 29 38  1  0
 29 30  1  0
 30 31  1  0
 31 32  2  0
 32 33  1  0
 33 34  2  0
 34 35  1  0
 34 36  1  0
 36 37  2  0
 29  1  1  0
  1  2  1  0
  2  3  2  0
  2  5  1  0
  5  6  2  0
  6  7  1  0
  7 11  1  0
 11 12  2  0
 11 13  1  0
 13 15  1  0
 15 16  1  0
 15 17  1  0
 17 18  2  0
 18 19  1  0
 19 20  2  0
 20 21  1  0
 21 22  2  0
  7  8  2  0
  8  9  1  0
  9 23  1  0
 23 24  1  0
 23 25  1  0
 25 26  1  0
 25 27  2  0
 25 28  2  0
  9 10  2  0
 41 42  1  0
 42 43  1  0
 42 44  1  0
 37 31  1  0
 10  5  1  0
 22 17  1  0
 46 49  1  0
 39 40  1  0
  1  4  1  0
 13 14  1  0
 44 45  1  0
M  END
> <minimizedAffinity>
-9.61491

> <CNNscore>
0.3557799459

> <CNNaffinity>
7.0612373352

> <CNN_VS>
2.5122466087

> <CNNaffinity_variance>
1.7566751242

$$$$



 53 55  0  0  0  0  0  0  0  0999 V2000
   41.5879   -3.8190   12.1921 N   0  0  0  0  0  0  0  0  0  0  0  0
   40.9671   -2.7022   12.7104 C   0  0  0  0  0  0  0  0  0  0  0  0
   41.5091   -1.5994   12.7439 O   0  0  0  0  0  0  0  0  0  0  0  0
   41.1500   -4.6972   12.2723 H   0  0  0  0  0  0  0  0  0  0  0  0
   39.5818   -2.8451   13.2481 C   0  0  0  0  0  0  0  0  0  0  0  0
   38.7615   -3.8241   12.6643 C   0  0  0  0  0  0  0  0  0  0  0  0
   37.4572   -4.0242   13.1278 C   0  0  0  0  0  0  0  0  0  0  0  0
   36.9719   -3.2721   14.1993 C   0  0  0  0  0  0  0  0  0  0  0  0
   37.7823   -2.2998   14.7818 C   0  0  0  0  0  0  0  0  0  0  0  0
   39.0758   -2.0699   14.2972 C   0  0  0  0  0  0  0  0  0  0  0  0
   36.5751   -5.0545   12.5284 C   0  0  0  0  0  0  0  0  0  0  0  0
   35.8071   -5.6826   13.2436 O   0  0  0  0  0  0  0  0  0  0  0  0
   36.6812   -5.2111   11.1679 N   0  0  0  0  0  0  0  0  0  0  0  0
   37.3286   -4.6580   10.6736 H   0  0  0  0  0  0  0  0  0  0  0  0
   35.8680   -6.1676   10.4343 C   0  0  0  0  0  0  0  0  0  0  0  0
   36.7407   -7.2611    9.8084 C   0  0  0  0  0  0  0  0  0  0  0  0
   35.0235   -5.4267    9.4101 C   0  0  0  0  0  0  0  0  0  0  0  0
   35.5804   -4.8802    8.2419 C   0  0  0  0  0  0  0  0  0  0  0  0
   34.7839   -4.1789    7.3321 C   0  0  0  0  0  0  0  0  0  0  0  0
   33.4242   -4.0070    7.5834 C   0  0  0  0  0  0  0  0  0  0  0  0
   32.8589   -4.5292    8.7427 C   0  0  0  0  0  0  0  0  0  0  0  0
   33.6537   -5.2305    9.6529 C   0  0  0  0  0  0  0  0  0  0  0  0
   37.2402   -1.5476   15.8821 N   0  0  0  0  0  0  0  0  0  0  0  0
   38.2377   -0.7954   16.6809 C   0  0  0  0  0  0  0  0  0  0  0  0
   36.0585   -2.3538   16.8273 S   0  0  0  0  0  0  0  0  0  0  0  0
   37.0628   -3.0552   18.1218 C   0  0  0  0  0  0  0  0  0  0  0  0
   35.1607   -1.3714   17.4025 O   0  0  0  0  0  0  0  0  0  0  0  0
   35.5396   -3.4525   16.0390 O   0  0  0  0  0  0  0  0  0  0  0  0
   42.8972   -3.7202   11.5197 C   0  0  0  0  0  0  0  0  0  0  0  0
   42.8388   -4.4582   10.1675 C   0  0  0  0  0  0  0  0  0  0  0  0
   42.0005   -5.7138   10.2009 C   0  0  0  0  0  0  0  0  0  0  0  0
   41.5611   -6.2410   11.4228 C   0  0  0  0  0  0  0  0  0  0  0  0
   40.7873   -7.4021   11.4571 C   0  0  0  0  0  0  0  0  0  0  0  0
   40.4517   -8.0425   10.2665 C   0  0  0  0  0  0  0  0  0  0  0  0
   39.5048   -9.4796   10.3065 Cl  0  0  0  0  0  0  0  0  0  0  0  0
   40.8796   -7.5299    9.0428 C   0  0  0  0  0  0  0  0  0  0  0  0
   41.6517   -6.3669    9.0090 C   0  0  0  0  0  0  0  0  0  0  0  0
   43.3105   -2.2275   11.3849 C   0  0  0  0  0  0  0  0  0  0  0  0
   44.6550   -1.9953   11.9353 N   0  0  0  0  0  0  0  0  0  0  0  0
   44.5513   -1.4685   12.8026 H   0  0  0  0  0  0  0  0  0  0  0  0
   45.5934   -1.2487   11.0579 C   0  0  0  0  0  0  0  0  0  0  0  0
   45.1512    0.1646   10.5945 C   0  0  0  0  0  0  0  0  0  0  0  0
   46.0584    1.3231   11.0006 C   0  0  0  0  0  0  0  0  0  0  0  0
   45.0468    0.1658    9.1587 O   0  0  0  0  0  0  0  0  0  0  0  0
   45.9209    0.0032    8.7708 H   0  0  0  0  0  0  0  0  0  0  0  0
   47.1288   -1.2029   12.9630 N   0  0  0  0  0  0  0  0  0  0  0  0
   47.0530   -1.2561   11.5816 C   0  0  0  0  0  0  0  0  0  0  0  0
   48.0532   -1.3025   10.8708 O   0  0  0  0  0  0  0  0  0  0  0  0
   46.2962   -1.1096   13.4800 H   0  0  0  0  0  0  0  0  0  0  0  0
   48.3860   -1.2793   13.6754 C   0  0  0  0  0  0  0  0  0  0  0  0
   49.2292   -3.0840   15.2055 C   0  0  0  0  0  0  0  0  0  0  0  0
   48.2449   -1.9230   15.0631 C   0  0  0  0  0  0  0  0  0  0  0  0
   48.4762   -0.9084   16.1852 C   0  0  0  0  0  0  0  0  0  0  0  0
 51 52  1  0
 52 53  1  0
 52 50  1  0
 50 46  1  0
 46 47  1  0
 47 48  2  0
 47 41  1  0
 41 39  1  0
 39 38  1  0
 29 38  1  0
 29 30  1  0
 30 31  1  0
 31 32  2  0
 32 33  1  0
 33 34  2  0
 34 35  1  0
 34 36  1  0
 36 37  2  0
 29  1  1  0
  1  2  1  0
  2  3  2  0
  2  5  1  0
  5  6  2  0
  6  7  1  0
  7 11  1  0
 11 12  2  0
 11 13  1  0
 13 15  1  0
 15 16  1  0
 15 17  1  0
 17 18  2  0
 18 19  1  0
 19 20  2  0
 20 21  1  0
 21 22  2  0
  7  8  2  0
  8  9  1  0
  9 23  1  0
 23 24  1  0
 23 25  1  0
 25 26  1  0
 25 27  2  0
 25 28  2  0
  9 10  2  0
 41 42  1  0
 42 43  1  0
 42 44  1  0
 37 31  1  0
 10  5  1  0
 22 17  1  0
 46 49  1  0
 39 40  1  0
  1  4  1  0
 13 14  1  0
 44 45  1  0
M  END
> <minimizedAffinity>
-10.79408

> <CNNscore>
0.2907458246

> <CNNaffinity>
7.5516185760

> <CNN_VS>
2.1956014633

> <CNNaffinity_variance>
0.7157337070

$$$$



 53 55  0  0  0  0  0  0  0  0999 V2000
   33.7742   -7.6653   13.5787 N   0  0  0  0  0  0  0  0  0  0  0  0
   34.6031   -6.5772   13.4050 C   0  0  0  0  0  0  0  0  0  0  0  0
   34.7195   -5.6924   14.2504 O   0  0  0  0  0  0  0  0  0  0  0  0
   33.6441   -8.2981   12.8358 H   0  0  0  0  0  0  0  0  0  0  0  0
   35.3884   -6.4775   12.1393 C   0  0  0  0  0  0  0  0  0  0  0  0
   36.7584   -6.7790   12.2052 C   0  0  0  0  0  0  0  0  0  0  0  0
   37.5528   -6.7217   11.0556 C   0  0  0  0  0  0  0  0  0  0  0  0
   36.9804   -6.3956    9.8247 C   0  0  0  0  0  0  0  0  0  0  0  0
   35.6214   -6.0961    9.7544 C   0  0  0  0  0  0  0  0  0  0  0  0
   34.8292   -6.1156   10.9089 C   0  0  0  0  0  0  0  0  0  0  0  0
   39.0005   -7.0393   11.1017 C   0  0  0  0  0  0  0  0  0  0  0  0
   39.4429   -7.7102   12.0237 O   0  0  0  0  0  0  0  0  0  0  0  0
   39.7502   -6.5545   10.0578 N   0  0  0  0  0  0  0  0  0  0  0  0
   39.3055   -6.0235    9.3580 H   0  0  0  0  0  0  0  0  0  0  0  0
   41.1795   -6.8003    9.9532 C   0  0  0  0  0  0  0  0  0  0  0  0
   41.6134   -7.9189   10.9070 C   0  0  0  0  0  0  0  0  0  0  0  0
   41.9307   -5.4996   10.1871 C   0  0  0  0  0  0  0  0  0  0  0  0
   42.6420   -4.8562    9.1606 C   0  0  0  0  0  0  0  0  0  0  0  0
   43.3475   -3.6759    9.4125 C   0  0  0  0  0  0  0  0  0  0  0  0
   43.3587   -3.1302   10.6945 C   0  0  0  0  0  0  0  0  0  0  0  0
   42.6715   -3.7622   11.7263 C   0  0  0  0  0  0  0  0  0  0  0  0
   41.9658   -4.9418   11.4760 C   0  0  0  0  0  0  0  0  0  0  0  0
   35.0748   -5.7637    8.4656 N   0  0  0  0  0  0  0  0  0  0  0  0
   36.0709   -5.6352    7.3747 C   0  0  0  0  0  0  0  0  0  0  0  0
   33.8737   -4.5401    8.4573 S   0  0  0  0  0  0  0  0  0  0  0  0
   33.8765   -4.0567    6.7418 C   0  0  0  0  0  0  0  0  0  0  0  0
   32.5908   -5.1329    8.7812 O   0  0  0  0  0  0  0  0  0  0  0  0
   34.3813   -3.4204    9.2231 O   0  0  0  0  0  0  0  0  0  0  0  0
   33.0792   -7.8974   14.8591 C   0  0  0  0  0  0  0  0  0  0  0  0
   34.0866   -8.4124   15.9061 C   0  0  0  0  0  0  0  0  0  0  0  0
   34.1050   -9.9168   16.0370 C   0  0  0  0  0  0  0  0  0  0  0  0
   35.3116  -10.6227   15.9375 C   0  0  0  0  0  0  0  0  0  0  0  0
   35.3317  -12.0132   16.0567 C   0  0  0  0  0  0  0  0  0  0  0  0
   34.1418  -12.7039   16.2741 C   0  0  0  0  0  0  0  0  0  0  0  0
   34.1627  -14.4197   16.4127 Cl  0  0  0  0  0  0  0  0  0  0  0  0
   32.9336  -12.0162   16.3771 C   0  0  0  0  0  0  0  0  0  0  0  0
   32.9144  -10.6249   16.2601 C   0  0  0  0  0  0  0  0  0  0  0  0
   32.3435   -6.6017   15.3032 C   0  0  0  0  0  0  0  0  0  0  0  0
   30.8850   -6.7476   15.1772 N   0  0  0  0  0  0  0  0  0  0  0  0
   30.4537   -5.8910   15.5243 H   0  0  0  0  0  0  0  0  0  0  0  0
   30.2832   -7.8908   15.9114 C   0  0  0  0  0  0  0  0  0  0  0  0
   29.5617   -7.5691   17.2468 C   0  0  0  0  0  0  0  0  0  0  0  0
   30.4193   -6.9453   18.3448 C   0  0  0  0  0  0  0  0  0  0  0  0
   28.4691   -6.6720   16.9745 O   0  0  0  0  0  0  0  0  0  0  0  0
   28.8168   -5.8332   16.6335 H   0  0  0  0  0  0  0  0  0  0  0  0
   29.0484   -9.9861   15.6396 N   0  0  0  0  0  0  0  0  0  0  0  0
   29.4348   -8.8186   15.0036 C   0  0  0  0  0  0  0  0  0  0  0  0
   29.1246   -8.5707   13.8417 O   0  0  0  0  0  0  0  0  0  0  0  0
   29.3735  -10.1581   16.5528 H   0  0  0  0  0  0  0  0  0  0  0  0
   28.1846  -10.9631   15.0123 C   0  0  0  0  0  0  0  0  0  0  0  0
   29.7259  -12.9026   14.5972 C   0  0  0  0  0  0  0  0  0  0  0  0
   28.5308  -12.4056   15.4110 C   0  0  0  0  0  0  0  0  0  0  0  0
   28.8384  -12.5229   16.9055 C   0  0  0  0  0  0  0  0  0  0  0  0
 51 52  1  0
 52 53  1  0
 52 50  1  0
 50 46  1  0
 46 47  1  0
 47 48  2  0
 47 41  1  0
 41 39  1  0
 39 38  1  0
 29 38  1  0
 29 30  1  0
 30 31  1  0
 31 32  2  0
 32 33  1  0
 33 34  2  0
 34 35  1  0
 34 36  1  0
 36 37  2  0
 29  1  1  0
  1  2  1  0
  2  3  2  0
  2  5  1  0
  5  6  2  0
  6  7  1  0
  7 11  1  0
 11 12  2  0
 11 13  1  0
 13 15  1  0
 15 16  1  0
 15 17  1  0
 17 18  2  0
 18 19  1  0
 19 20  2  0
 20 21  1  0
 21 22  2  0
  7  8  2  0
  8  9  1  0
  9 23  1  0
 23 24  1  0
 23 25  1  0
 25 26  1  0
 25 27  2  0
 25 28  2  0
  9 10  2  0
 41 42  1  0
 42 43  1  0
 42 44  1  0
 37 31  1  0
 10  5  1  0
 22 17  1  0
 46 49  1  0
 39 40  1  0
  1  4  1  0
 13 14  1  0
 44 45  1  0
M  END
> <minimizedAffinity>
-8.83081

> <CNNscore>
0.2204657346

> <CNNaffinity>
6.7663326263

> <CNN_VS>
1.4917445183

> <CNNaffinity_variance>
1.3106560707

$$$$



 53 55  0  0  0  0  0  0  0  0999 V2000
   34.3974   -8.0501   13.9537 N   0  0  0  0  0  0  0  0  0  0  0  0
   34.4311   -6.8164   13.3389 C   0  0  0  0  0  0  0  0  0  0  0  0
   33.8357   -5.8380   13.7855 O   0  0  0  0  0  0  0  0  0  0  0  0
   34.8127   -8.8240   13.5088 H   0  0  0  0  0  0  0  0  0  0  0  0
   35.2253   -6.6700   12.0833 C   0  0  0  0  0  0  0  0  0  0  0  0
   36.5848   -7.0180   12.1363 C   0  0  0  0  0  0  0  0  0  0  0  0
   37.3863   -6.9208   10.9943 C   0  0  0  0  0  0  0  0  0  0  0  0
   36.8304   -6.5075    9.7821 C   0  0  0  0  0  0  0  0  0  0  0  0
   35.4820   -6.1615    9.7247 C   0  0  0  0  0  0  0  0  0  0  0  0
   34.6839   -6.2214   10.8738 C   0  0  0  0  0  0  0  0  0  0  0  0
   38.8230   -7.2863   11.0268 C   0  0  0  0  0  0  0  0  0  0  0  0
   39.2037   -8.1749   11.7760 O   0  0  0  0  0  0  0  0  0  0  0  0
   39.6351   -6.5865   10.1679 N   0  0  0  0  0  0  0  0  0  0  0  0
   39.2379   -5.8875    9.5997 H   0  0  0  0  0  0  0  0  0  0  0  0
   41.0628   -6.8452   10.0711 C   0  0  0  0  0  0  0  0  0  0  0  0
   41.4847   -7.9542   11.0414 C   0  0  0  0  0  0  0  0  0  0  0  0
   41.8237   -5.5474   10.2898 C   0  0  0  0  0  0  0  0  0  0  0  0
   42.4862   -4.8876    9.2413 C   0  0  0  0  0  0  0  0  0  0  0  0
   43.2024   -3.7107    9.4782 C   0  0  0  0  0  0  0  0  0  0  0  0
   43.2731   -3.1847   10.7665 C   0  0  0  0  0  0  0  0  0  0  0  0
   42.6349   -3.8332   11.8194 C   0  0  0  0  0  0  0  0  0  0  0  0
   41.9186   -5.0095   11.5841 C   0  0  0  0  0  0  0  0  0  0  0  0
   34.9524   -5.7394    8.4552 N   0  0  0  0  0  0  0  0  0  0  0  0
   35.9635   -5.5299    7.3909 C   0  0  0  0  0  0  0  0  0  0  0  0
   33.7464   -4.5222    8.5170 S   0  0  0  0  0  0  0  0  0  0  0  0
   33.7236   -3.9641    6.8245 C   0  0  0  0  0  0  0  0  0  0  0  0
   32.4706   -5.1346    8.8320 O   0  0  0  0  0  0  0  0  0  0  0  0
   34.2601   -3.4348    9.3242 O   0  0  0  0  0  0  0  0  0  0  0  0
   33.7496   -8.2300   15.2668 C   0  0  0  0  0  0  0  0  0  0  0  0
   34.8257   -8.2812   16.3694 C   0  0  0  0  0  0  0  0  0  0  0  0
   35.5174   -9.6194   16.4761 C   0  0  0  0  0  0  0  0  0  0  0  0
   36.7708   -9.7227   17.0944 C   0  0  0  0  0  0  0  0  0  0  0  0
   37.4132  -10.9578   17.1934 C   0  0  0  0  0  0  0  0  0  0  0  0
   36.8035  -12.0960   16.6709 C   0  0  0  0  0  0  0  0  0  0  0  0
   37.5977  -13.6191   16.7839 Cl  0  0  0  0  0  0  0  0  0  0  0  0
   35.5561  -12.0102   16.0543 C   0  0  0  0  0  0  0  0  0  0  0  0
   34.9129  -10.7746   15.9578 C   0  0  0  0  0  0  0  0  0  0  0  0
   32.6944   -7.1108   15.4930 C   0  0  0  0  0  0  0  0  0  0  0  0
   31.3960   -7.4763   14.9054 N   0  0  0  0  0  0  0  0  0  0  0  0
   30.9037   -6.6137   14.6732 H   0  0  0  0  0  0  0  0  0  0  0  0
   30.5027   -8.2932   15.7673 C   0  0  0  0  0  0  0  0  0  0  0  0
   30.4109   -9.8092   15.4499 C   0  0  0  0  0  0  0  0  0  0  0  0
   31.4663  -10.7005   16.0993 C   0  0  0  0  0  0  0  0  0  0  0  0
   29.1156  -10.2867   15.8582 O   0  0  0  0  0  0  0  0  0  0  0  0
   29.0253  -10.1946   16.8196 H   0  0  0  0  0  0  0  0  0  0  0  0
   31.0939   -6.7278   17.5530 N   0  0  0  0  0  0  0  0  0  0  0  0
   30.7102   -8.0300   17.2813 C   0  0  0  0  0  0  0  0  0  0  0  0
   30.5587   -8.8677   18.1663 O   0  0  0  0  0  0  0  0  0  0  0  0
   31.2553   -6.1145   16.8000 H   0  0  0  0  0  0  0  0  0  0  0  0
   31.2667   -6.2344   18.9024 C   0  0  0  0  0  0  0  0  0  0  0  0
   30.5377   -6.9689   21.1911 C   0  0  0  0  0  0  0  0  0  0  0  0
   30.0606   -6.5360   19.8046 C   0  0  0  0  0  0  0  0  0  0  0  0
   29.1311   -5.3270   19.9320 C   0  0  0  0  0  0  0  0  0  0  0  0
 51 52  1  0
 52 53  1  0
 52 50  1  0
 50 46  1  0
 46 47  1  0
 47 48  2  0
 47 41  1  0
 41 39  1  0
 39 38  1  0
 29 38  1  0
 29 30  1  0
 30 31  1  0
 31 32  2  0
 32 33  1  0
 33 34  2  0
 34 35  1  0
 34 36  1  0
 36 37  2  0
 29  1  1  0
  1  2  1  0
  2  3  2  0
  2  5  1  0
  5  6  2  0
  6  7  1  0
  7 11  1  0
 11 12  2  0
 11 13  1  0
 13 15  1  0
 15 16  1  0
 15 17  1  0
 17 18  2  0
 18 19  1  0
 19 20  2  0
 20 21  1  0
 21 22  2  0
  7  8  2  0
  8  9  1  0
  9 23  1  0
 23 24  1  0
 23 25  1  0
 25 26  1  0
 25 27  2  0
 25 28  2  0
  9 10  2  0
 41 42  1  0
 42 43  1  0
 42 44  1  0
 37 31  1  0
 10  5  1  0
 22 17  1  0
 46 49  1  0
 39 40  1  0
  1  4  1  0
 13 14  1  0
 44 45  1  0
M  END
> <minimizedAffinity>
-8.10458

> <CNNscore>
0.2166841924

> <CNNaffinity>
6.3897328377

> <CNN_VS>
1.3845541477

> <CNNaffinity_variance>
1.5567699671

$$$$



 53 55  0  0  0  0  0  0  0  0999 V2000
   44.9033   -2.4969   11.5500 N   0  0  0  0  0  0  0  0  0  0  0  0
   43.8250   -2.7787   10.7383 C   0  0  0  0  0  0  0  0  0  0  0  0
   43.7936   -2.4703    9.5488 O   0  0  0  0  0  0  0  0  0  0  0  0
   44.8433   -2.6801   12.5155 H   0  0  0  0  0  0  0  0  0  0  0  0
   42.6542   -3.4882   11.3337 C   0  0  0  0  0  0  0  0  0  0  0  0
   41.8133   -2.7470   12.1797 C   0  0  0  0  0  0  0  0  0  0  0  0
   40.6889   -3.3425   12.7604 C   0  0  0  0  0  0  0  0  0  0  0  0
   40.3757   -4.6729   12.4755 C   0  0  0  0  0  0  0  0  0  0  0  0
   41.2070   -5.4121   11.6366 C   0  0  0  0  0  0  0  0  0  0  0  0
   42.3543   -4.8315   11.0823 C   0  0  0  0  0  0  0  0  0  0  0  0
   39.7857   -2.5777   13.6537 C   0  0  0  0  0  0  0  0  0  0  0  0
   39.9504   -1.3738   13.7926 O   0  0  0  0  0  0  0  0  0  0  0  0
   38.7896   -3.3053   14.2581 N   0  0  0  0  0  0  0  0  0  0  0  0
   38.7342   -4.2729   14.0850 H   0  0  0  0  0  0  0  0  0  0  0  0
   37.8144   -2.6921   15.1454 C   0  0  0  0  0  0  0  0  0  0  0  0
   37.0081   -1.6150   14.4112 C   0  0  0  0  0  0  0  0  0  0  0  0
   38.5242   -2.1603   16.3801 C   0  0  0  0  0  0  0  0  0  0  0  0
   39.4747   -2.9234   17.0784 C   0  0  0  0  0  0  0  0  0  0  0  0
   40.0901   -2.4190   18.2277 C   0  0  0  0  0  0  0  0  0  0  0  0
   39.7561   -1.1507   18.6982 C   0  0  0  0  0  0  0  0  0  0  0  0
   38.8060   -0.3870   18.0270 C   0  0  0  0  0  0  0  0  0  0  0  0
   38.1902   -0.8898   16.8781 C   0  0  0  0  0  0  0  0  0  0  0  0
   40.8465   -6.7798   11.3724 N   0  0  0  0  0  0  0  0  0  0  0  0
   41.8135   -7.5349   10.5395 C   0  0  0  0  0  0  0  0  0  0  0  0
   39.2066   -7.0516   10.9517 S   0  0  0  0  0  0  0  0  0  0  0  0
   39.0002   -8.7571   11.4266 C   0  0  0  0  0  0  0  0  0  0  0  0
   38.3596   -6.2210   11.7852 O   0  0  0  0  0  0  0  0  0  0  0  0
   39.1068   -6.9894    9.5081 O   0  0  0  0  0  0  0  0  0  0  0  0
   46.1454   -1.9254   10.9962 C   0  0  0  0  0  0  0  0  0  0  0  0
   46.7859   -2.9329   10.0208 C   0  0  0  0  0  0  0  0  0  0  0  0
   48.2670   -2.7189    9.8185 C   0  0  0  0  0  0  0  0  0  0  0  0
   49.1345   -2.6776   10.9184 C   0  0  0  0  0  0  0  0  0  0  0  0
   50.5037   -2.4787   10.7347 C   0  0  0  0  0  0  0  0  0  0  0  0
   51.0105   -2.3177    9.4473 C   0  0  0  0  0  0  0  0  0  0  0  0
   52.6977   -2.0634    9.2187 Cl  0  0  0  0  0  0  0  0  0  0  0  0
   50.1610   -2.3579    8.3427 C   0  0  0  0  0  0  0  0  0  0  0  0
   48.7916   -2.5593    8.5270 C   0  0  0  0  0  0  0  0  0  0  0  0
   45.8472   -0.5463   10.3431 C   0  0  0  0  0  0  0  0  0  0  0  0
   45.3259    0.4098   11.3324 N   0  0  0  0  0  0  0  0  0  0  0  0
   44.6957    1.0489   10.8478 H   0  0  0  0  0  0  0  0  0  0  0  0
   46.3445    1.2256   12.0430 C   0  0  0  0  0  0  0  0  0  0  0  0
   45.8270    2.4223   12.8842 C   0  0  0  0  0  0  0  0  0  0  0  0
   45.4273    3.6727   12.1053 C   0  0  0  0  0  0  0  0  0  0  0  0
   44.6837    1.9895   13.6445 O   0  0  0  0  0  0  0  0  0  0  0  0
   43.9680    1.7410   13.0389 H   0  0  0  0  0  0  0  0  0  0  0  0
   48.6666    0.8485   12.7174 N   0  0  0  0  0  0  0  0  0  0  0  0
   47.3725    0.3686   12.8263 C   0  0  0  0  0  0  0  0  0  0  0  0
   47.0971   -0.6334   13.4805 O   0  0  0  0  0  0  0  0  0  0  0  0
   48.8373    1.6226   12.1336 H   0  0  0  0  0  0  0  0  0  0  0  0
   49.7777    0.2548   13.4295 C   0  0  0  0  0  0  0  0  0  0  0  0
   51.5474    0.6419   15.1695 C   0  0  0  0  0  0  0  0  0  0  0  0
   50.1381    1.0191   14.7123 C   0  0  0  0  0  0  0  0  0  0  0  0
   50.0468    2.5339   14.5148 C   0  0  0  0  0  0  0  0  0  0  0  0
 51 52  1  0
 52 53  1  0
 52 50  1  0
 50 46  1  0
 46 47  1  0
 47 48  2  0
 47 41  1  0
 41 39  1  0
 39 38  1  0
 29 38  1  0
 29 30  1  0
 30 31  1  0
 31 32  2  0
 32 33  1  0
 33 34  2  0
 34 35  1  0
 34 36  1  0
 36 37  2  0
 29  1  1  0
  1  2  1  0
  2  3  2  0
  2  5  1  0
  5  6  2  0
  6  7  1  0
  7 11  1  0
 11 12  2  0
 11 13  1  0
 13 15  1  0
 15 16  1  0
 15 17  1  0
 17 18  2  0
 18 19  1  0
 19 20  2  0
 20 21  1  0
 21 22  2  0
  7  8  2  0
  8  9  1  0
  9 23  1  0
 23 24  1  0
 23 25  1  0
 25 26  1  0
 25 27  2  0
 25 28  2  0
  9 10  2  0
 41 42  1  0
 42 43  1  0
 42 44  1  0
 37 31  1  0
 10  5  1  0
 22 17  1  0
 46 49  1  0
 39 40  1  0
  1  4  1  0
 13 14  1  0
 44 45  1  0
M  END
> <minimizedAffinity>
-9.58716

> <CNNscore>
0.1527998894

> <CNNaffinity>
5.6979203224

> <CNN_VS>
0.8706415892

> <CNNaffinity_variance>
3.4763429165

$$$$



 53 55  0  0  0  0  0  0  0  0999 V2000
   44.2825   -3.2225   10.6528 N   0  0  0  0  0  0  0  0  0  0  0  0
   45.0572   -2.1088   10.4062 C   0  0  0  0  0  0  0  0  0  0  0  0
   44.6090   -1.0954    9.8740 O   0  0  0  0  0  0  0  0  0  0  0  0
   44.7078   -4.0417   10.9952 H   0  0  0  0  0  0  0  0  0  0  0  0
   46.4953   -2.1414   10.8059 C   0  0  0  0  0  0  0  0  0  0  0  0
   46.7879   -2.0017   12.1723 C   0  0  0  0  0  0  0  0  0  0  0  0
   48.1121   -2.0383   12.6208 C   0  0  0  0  0  0  0  0  0  0  0  0
   49.1528   -2.2478   11.7140 C   0  0  0  0  0  0  0  0  0  0  0  0
   48.8672   -2.3872   10.3575 C   0  0  0  0  0  0  0  0  0  0  0  0
   47.5462   -2.3141    9.8986 C   0  0  0  0  0  0  0  0  0  0  0  0
   48.4436   -1.8963   14.0591 C   0  0  0  0  0  0  0  0  0  0  0  0
   48.2005   -2.8152   14.8288 O   0  0  0  0  0  0  0  0  0  0  0  0
   49.0362   -0.7107   14.4196 N   0  0  0  0  0  0  0  0  0  0  0  0
   49.1944   -0.0276   13.7285 H   0  0  0  0  0  0  0  0  0  0  0  0
   49.4373   -0.4323   15.7893 C   0  0  0  0  0  0  0  0  0  0  0  0
   50.5466   -1.3893   16.2396 C   0  0  0  0  0  0  0  0  0  0  0  0
   48.2136   -0.4802   16.6899 C   0  0  0  0  0  0  0  0  0  0  0  0
   47.0852    0.3231   16.4554 C   0  0  0  0  0  0  0  0  0  0  0  0
   45.9858    0.2786   17.3177 C   0  0  0  0  0  0  0  0  0  0  0  0
   46.0047   -0.5614   18.4292 C   0  0  0  0  0  0  0  0  0  0  0  0
   47.1202   -1.3531   18.6846 C   0  0  0  0  0  0  0  0  0  0  0  0
   48.2197   -1.3099   17.8237 C   0  0  0  0  0  0  0  0  0  0  0  0
   49.9710   -2.5996    9.4591 N   0  0  0  0  0  0  0  0  0  0  0  0
   49.7291   -2.1823    8.0569 C   0  0  0  0  0  0  0  0  0  0  0  0
   50.7739   -4.1074    9.6066 S   0  0  0  0  0  0  0  0  0  0  0  0
   49.4257   -5.2482    9.3677 C   0  0  0  0  0  0  0  0  0  0  0  0
   51.7165   -4.2512    8.5144 O   0  0  0  0  0  0  0  0  0  0  0  0
   51.2137   -4.2388   10.9804 O   0  0  0  0  0  0  0  0  0  0  0  0
   42.8272   -3.2070   10.4122 C   0  0  0  0  0  0  0  0  0  0  0  0
   42.5074   -4.0110    9.1364 C   0  0  0  0  0  0  0  0  0  0  0  0
   41.9356   -5.3809    9.4138 C   0  0  0  0  0  0  0  0  0  0  0  0
   42.3125   -6.0872   10.5642 C   0  0  0  0  0  0  0  0  0  0  0  0
   41.7868   -7.3540   10.8227 C   0  0  0  0  0  0  0  0  0  0  0  0
   40.8822   -7.9209    9.9281 C   0  0  0  0  0  0  0  0  0  0  0  0
   40.2391   -9.4870   10.2401 Cl  0  0  0  0  0  0  0  0  0  0  0  0
   40.4960   -7.2307    8.7801 C   0  0  0  0  0  0  0  0  0  0  0  0
   41.0204   -5.9623    8.5232 C   0  0  0  0  0  0  0  0  0  0  0  0
   42.0782   -3.7312   11.6697 C   0  0  0  0  0  0  0  0  0  0  0  0
   40.7063   -3.2032   11.7311 N   0  0  0  0  0  0  0  0  0  0  0  0
   40.7592   -2.1866   11.6676 H   0  0  0  0  0  0  0  0  0  0  0  0
   39.9360   -3.5440   12.9553 C   0  0  0  0  0  0  0  0  0  0  0  0
   40.2443   -2.7207   14.2337 C   0  0  0  0  0  0  0  0  0  0  0  0
   40.2921   -1.2043   14.0654 C   0  0  0  0  0  0  0  0  0  0  0  0
   39.2485   -3.0250   15.2278 O   0  0  0  0  0  0  0  0  0  0  0  0
   38.3776   -2.7378   14.9115 H   0  0  0  0  0  0  0  0  0  0  0  0
   38.0843   -4.7666   11.9231 N   0  0  0  0  0  0  0  0  0  0  0  0
   38.4115   -3.6685   12.7003 C   0  0  0  0  0  0  0  0  0  0  0  0
   37.5627   -2.8910   13.1280 O   0  0  0  0  0  0  0  0  0  0  0  0
   38.8105   -5.3236   11.5603 H   0  0  0  0  0  0  0  0  0  0  0  0
   36.7149   -5.1263   11.6241 C   0  0  0  0  0  0  0  0  0  0  0  0
   36.1944   -6.6117    9.6665 C   0  0  0  0  0  0  0  0  0  0  0  0
   36.5725   -6.5797   11.1475 C   0  0  0  0  0  0  0  0  0  0  0  0
   37.8589   -7.3783   11.3700 C   0  0  0  0  0  0  0  0  0  0  0  0
 51 52  1  0
 52 53  1  0
 52 50  1  0
 50 46  1  0
 46 47  1  0
 47 48  2  0
 47 41  1  0
 41 39  1  0
 39 38  1  0
 29 38  1  0
 29 30  1  0
 30 31  1  0
 31 32  2  0
 32 33  1  0
 33 34  2  0
 34 35  1  0
 34 36  1  0
 36 37  2  0
 29  1  1  0
  1  2  1  0
  2  3  2  0
  2  5  1  0
  5  6  2  0
  6  7  1  0
  7 11  1  0
 11 12  2  0
 11 13  1  0
 13 15  1  0
 15 16  1  0
 15 17  1  0
 17 18  2  0
 18 19  1  0
 19 20  2  0
 20 21  1  0
 21 22  2  0
  7  8  2  0
  8  9  1  0
  9 23  1  0
 23 24  1  0
 23 25  1  0
 25 26  1  0
 25 27  2  0
 25 28  2  0
  9 10  2  0
 41 42  1  0
 42 43  1  0
 42 44  1  0
 37 31  1  0
 10  5  1  0
 22 17  1  0
 46 49  1  0
 39 40  1  0
  1  4  1  0
 13 14  1  0
 44 45  1  0
M  END
> <minimizedAffinity>
-9.19768

> <CNNscore>
0.1384702027

> <CNNaffinity>
7.0587029457

> <CNN_VS>
0.9774200320

> <CNNaffinity_variance>
0.9217252135

$$$$
