


 19 20  0  0  0  0  0  0  0  0999 V2000
   -3.6096    5.8612   14.2701 C   0  0  0  0  0  0  0  0  0  0  0  0
   -4.8559    5.3887   14.6959 C   0  0  0  0  0  0  0  0  0  0  0  0
   -4.9238    4.0979   15.2570 C   0  0  0  0  0  0  0  0  0  0  0  0
   -6.3025    3.2567   15.8635 S   0  0  0  0  0  0  0  0  0  0  0  0
   -5.3062    1.9272   16.2488 C   0  0  0  0  0  0  0  0  0  0  0  0
   -4.0233    2.0441   15.9675 N   0  0  0  0  0  0  0  0  0  0  0  0
   -3.7952    3.2848   15.3989 C   0  0  0  0  0  0  0  0  0  0  0  0
   -2.5510    3.7734   14.9665 C   0  0  0  0  0  0  0  0  0  0  0  0
   -2.4808    5.0504   14.4109 C   0  0  0  0  0  0  0  0  0  0  0  0
   -1.2821    5.4972   14.0046 F   0  0  0  0  0  0  0  0  0  0  0  0
   -6.0880    0.5173   16.9895 S   0  0  0  0  0  0  0  0  0  0  0  0
   -5.7642   -0.8543   16.0636 N   0  0  0  0  0  0  0  0  0  0  0  0
   -5.4304    0.2940   18.2579 O   0  0  0  0  0  0  0  0  0  0  0  0
   -7.5148    0.7287   16.8848 O   0  0  0  0  0  0  0  0  0  0  0  0
   -4.7654   -1.0587   16.0964 H   0  0  0  0  0  0  0  0  0  0  0  0
   -6.0453   -0.6866   15.0975 H   0  0  0  0  0  0  0  0  0  0  0  0
   -3.3834    7.0895   13.7070 O   0  0  0  0  0  0  0  0  0  0  0  0
   -2.3663    8.5972   15.2452 C   0  0  0  0  0  0  0  0  0  0  0  0
   -2.1515    7.7403   14.0106 C   0  0  0  0  0  0  0  0  0  0  0  0
 18 19  1  0
 19 17  1  0
 17  1  1  0
  1  2  2  0
  2  3  1  0
  3  4  1  0
  4  5  1  0
  5 11  1  0
 11 12  1  0
 11 13  2  0
 11 14  2  0
  5  6  2  0
  6  7  1  0
  7  8  1  0
  8  9  2  0
  9 10  1  0
  9  1  1  0
  7  3  2  0
 12 15  1  0
 12 16  1  0
M  END
> <minimizedAffinity>
-7.32366

> <CNNscore>
0.9758638144

> <CNNaffinity>
7.4787330627

> <CNN_VS>
7.2982249260

> <CNNaffinity_variance>
0.8246364594

$$$$



 19 20  0  0  0  0  0  0  0  0999 V2000
   -3.5674    5.4073   13.7729 C   0  0  0  0  0  0  0  0  0  0  0  0
   -3.1441    4.3136   14.5359 C   0  0  0  0  0  0  0  0  0  0  0  0
   -4.1251    3.4716   15.0966 C   0  0  0  0  0  0  0  0  0  0  0  0
   -3.9094    2.0646   16.0713 S   0  0  0  0  0  0  0  0  0  0  0  0
   -5.6028    1.8832   16.1620 C   0  0  0  0  0  0  0  0  0  0  0  0
   -6.3319    2.7806   15.5281 N   0  0  0  0  0  0  0  0  0  0  0  0
   -5.4933    3.6947   14.9148 C   0  0  0  0  0  0  0  0  0  0  0  0
   -5.9026    4.7971   14.1461 C   0  0  0  0  0  0  0  0  0  0  0  0
   -4.9340    5.6320   13.5901 C   0  0  0  0  0  0  0  0  0  0  0  0
   -5.3473    6.6793   12.8594 F   0  0  0  0  0  0  0  0  0  0  0  0
   -6.2210    0.5083   17.0975 S   0  0  0  0  0  0  0  0  0  0  0  0
   -5.8731   -0.9264   16.2825 N   0  0  0  0  0  0  0  0  0  0  0  0
   -5.4517    0.4566   18.3209 O   0  0  0  0  0  0  0  0  0  0  0  0
   -7.6631    0.6167   17.0948 O   0  0  0  0  0  0  0  0  0  0  0  0
   -4.8627   -1.0623   16.2496 H   0  0  0  0  0  0  0  0  0  0  0  0
   -6.2403   -0.8753   15.3323 H   0  0  0  0  0  0  0  0  0  0  0  0
   -2.7375    6.3125   13.1656 O   0  0  0  0  0  0  0  0  0  0  0  0
   -2.2824    7.6022   15.1159 C   0  0  0  0  0  0  0  0  0  0  0  0
   -2.7335    7.6475   13.6671 C   0  0  0  0  0  0  0  0  0  0  0  0
 18 19  1  0
 19 17  1  0
 17  1  1  0
  1  2  2  0
  2  3  1  0
  3  4  1  0
  4  5  1  0
  5 11  1  0
 11 12  1  0
 11 13  2  0
 11 14  2  0
  5  6  2  0
  6  7  1  0
  7  8  1  0
  8  9  2  0
  9 10  1  0
  9  1  1  0
  7  3  2  0
 12 15  1  0
 12 16  1  0
M  END
> <minimizedAffinity>
-6.99600

> <CNNscore>
0.9238889217

> <CNNaffinity>
7.1576061249

> <CNN_VS>
6.6128330231

> <CNNaffinity_variance>
0.6238169074

$$$$



 19 20  0  0  0  0  0  0  0  0999 V2000
   -4.3862    5.1390   12.6427 C   0  0  0  0  0  0  0  0  0  0  0  0
   -5.1923    5.0377   13.7818 C   0  0  0  0  0  0  0  0  0  0  0  0
   -5.2936    3.7846   14.4182 C   0  0  0  0  0  0  0  0  0  0  0  0
   -6.1998    3.3585   15.8230 S   0  0  0  0  0  0  0  0  0  0  0  0
   -5.6327    1.7558   15.6875 C   0  0  0  0  0  0  0  0  0  0  0  0
   -4.8195    1.4956   14.6826 N   0  0  0  0  0  0  0  0  0  0  0  0
   -4.6196    2.6525   13.9501 C   0  0  0  0  0  0  0  0  0  0  0  0
   -3.8140    2.7703   12.8051 C   0  0  0  0  0  0  0  0  0  0  0  0
   -3.7121    4.0091   12.1733 C   0  0  0  0  0  0  0  0  0  0  0  0
   -2.9370    4.0990   11.0811 F   0  0  0  0  0  0  0  0  0  0  0  0
   -6.1888    0.5941   16.9076 S   0  0  0  0  0  0  0  0  0  0  0  0
   -5.8261   -0.9717   16.3976 N   0  0  0  0  0  0  0  0  0  0  0  0
   -5.3850    0.8137   18.0896 O   0  0  0  0  0  0  0  0  0  0  0  0
   -7.6327    0.6710   16.9291 O   0  0  0  0  0  0  0  0  0  0  0  0
   -4.8138   -1.0915   16.3610 H   0  0  0  0  0  0  0  0  0  0  0  0
   -6.2205   -1.1271   15.4699 H   0  0  0  0  0  0  0  0  0  0  0  0
   -4.1881    6.2841   11.9172 O   0  0  0  0  0  0  0  0  0  0  0  0
   -5.7685    6.5597   10.1564 C   0  0  0  0  0  0  0  0  0  0  0  0
   -5.3398    7.0325   11.5337 C   0  0  0  0  0  0  0  0  0  0  0  0
 18 19  1  0
 19 17  1  0
 17  1  1  0
  1  2  2  0
  2  3  1  0
  3  4  1  0
  4  5  1  0
  5 11  1  0
 11 12  1  0
 11 13  2  0
 11 14  2  0
  5  6  2  0
  6  7  1  0
  7  8  1  0
  8  9  2  0
  9 10  1  0
  9  1  1  0
  7  3  2  0
 12 15  1  0
 12 16  1  0
M  END
> <minimizedAffinity>
-6.37480

> <CNNscore>
0.8690480590

> <CNNaffinity>
7.0215344429

> <CNN_VS>
6.1020507812

> <CNNaffinity_variance>
0.7550014853

$$$$



 19 20  0  0  0  0  0  0  0  0999 V2000
   -3.8885    4.7115   12.8090 C   0  0  0  0  0  0  0  0  0  0  0  0
   -3.7203    3.4605   13.4126 C   0  0  0  0  0  0  0  0  0  0  0  0
   -4.5903    3.1037   14.4622 C   0  0  0  0  0  0  0  0  0  0  0  0
   -4.6255    1.6470   15.3857 S   0  0  0  0  0  0  0  0  0  0  0  0
   -5.9463    2.2578   16.2753 C   0  0  0  0  0  0  0  0  0  0  0  0
   -6.3762    3.4614   15.9509 N   0  0  0  0  0  0  0  0  0  0  0  0
   -5.6049    3.9536   14.9128 C   0  0  0  0  0  0  0  0  0  0  0  0
   -5.7610    5.2065   14.2967 C   0  0  0  0  0  0  0  0  0  0  0  0
   -4.9015    5.5622   13.2578 C   0  0  0  0  0  0  0  0  0  0  0  0
   -5.0686    6.7638   12.6834 F   0  0  0  0  0  0  0  0  0  0  0  0
   -6.6146    1.2189   17.5487 S   0  0  0  0  0  0  0  0  0  0  0  0
   -5.6509   -0.1547   17.7153 N   0  0  0  0  0  0  0  0  0  0  0  0
   -6.4772    1.9432   18.7928 O   0  0  0  0  0  0  0  0  0  0  0  0
   -7.8925    0.7410   17.0692 O   0  0  0  0  0  0  0  0  0  0  0  0
   -4.7276    0.1167   18.0534 H   0  0  0  0  0  0  0  0  0  0  0  0
   -5.5593   -0.6175   16.8109 H   0  0  0  0  0  0  0  0  0  0  0  0
   -3.1250    5.1993   11.7813 O   0  0  0  0  0  0  0  0  0  0  0  0
   -0.9878    4.4009   11.0965 C   0  0  0  0  0  0  0  0  0  0  0  0
   -1.7270    5.3591   12.0130 C   0  0  0  0  0  0  0  0  0  0  0  0
 18 19  1  0
 19 17  1  0
 17  1  1  0
  1  2  2  0
  2  3  1  0
  3  4  1  0
  4  5  1  0
  5 11  1  0
 11 12  1  0
 11 13  2  0
 11 14  2  0
  5  6  2  0
  6  7  1  0
  7  8  1  0
  8  9  2  0
  9 10  1  0
  9  1  1  0
  7  3  2  0
 12 15  1  0
 12 16  1  0
M  END
> <minimizedAffinity>
-6.21947

> <CNNscore>
0.7026368976

> <CNNaffinity>
6.5613040924

> <CNN_VS>
4.6102142334

> <CNNaffinity_variance>
0.5323608518

$$$$



 19 20  0  0  0  0  0  0  0  0999 V2000
   -2.8333    7.3667   13.1347 C   0  0  0  0  0  0  0  0  0  0  0  0
   -2.3482    6.4272   14.0509 C   0  0  0  0  0  0  0  0  0  0  0  0
   -3.0918    5.2475   14.2537 C   0  0  0  0  0  0  0  0  0  0  0  0
   -2.7489    3.9240   15.3058 S   0  0  0  0  0  0  0  0  0  0  0  0
   -4.1759    3.1522   14.7796 C   0  0  0  0  0  0  0  0  0  0  0  0
   -4.9002    3.7899   13.8810 N   0  0  0  0  0  0  0  0  0  0  0  0
   -4.2864    4.9915   13.5738 C   0  0  0  0  0  0  0  0  0  0  0  0
   -4.7605    5.9446   12.6570 C   0  0  0  0  0  0  0  0  0  0  0  0
   -4.0268    7.1129   12.4544 C   0  0  0  0  0  0  0  0  0  0  0  0
   -4.4980    8.0098   11.5740 F   0  0  0  0  0  0  0  0  0  0  0  0
   -4.5492    1.5695   15.4888 S   0  0  0  0  0  0  0  0  0  0  0  0
   -4.4951    0.3890   14.2859 N   0  0  0  0  0  0  0  0  0  0  0  0
   -3.4668    1.2520   16.3937 O   0  0  0  0  0  0  0  0  0  0  0  0
   -5.9284    1.6209   15.9208 O   0  0  0  0  0  0  0  0  0  0  0  0
   -3.5406    0.3032   13.9365 H   0  0  0  0  0  0  0  0  0  0  0  0
   -5.1147    0.6548   13.5206 H   0  0  0  0  0  0  0  0  0  0  0  0
   -2.2260    8.5565   12.8303 O   0  0  0  0  0  0  0  0  0  0  0  0
   -2.0328   10.2973   14.4447 C   0  0  0  0  0  0  0  0  0  0  0  0
   -1.3379    9.1130   13.7973 C   0  0  0  0  0  0  0  0  0  0  0  0
 18 19  1  0
 19 17  1  0
 17  1  1  0
  1  2  2  0
  2  3  1  0
  3  4  1  0
  4  5  1  0
  5 11  1  0
 11 12  1  0
 11 13  2  0
 11 14  2  0
  5  6  2  0
  6  7  1  0
  7  8  1  0
  8  9  2  0
  9 10  1  0
  9  1  1  0
  7  3  2  0
 12 15  1  0
 12 16  1  0
M  END
> <minimizedAffinity>
-5.57081

> <CNNscore>
0.5357073545

> <CNNaffinity>
6.2599444389

> <CNN_VS>
3.3534982204

> <CNNaffinity_variance>
0.5708934069

$$$$



 19 20  0  0  0  0  0  0  0  0999 V2000
   -4.7858    1.3465   16.1024 C   0  0  0  0  0  0  0  0  0  0  0  0
   -4.9097    2.7396   16.1428 C   0  0  0  0  0  0  0  0  0  0  0  0
   -4.8716    3.4484   14.9254 C   0  0  0  0  0  0  0  0  0  0  0  0
   -4.9973    5.1488   14.6631 S   0  0  0  0  0  0  0  0  0  0  0  0
   -4.8377    4.8892   12.9851 C   0  0  0  0  0  0  0  0  0  0  0  0
   -4.6971    3.6399   12.5873 N   0  0  0  0  0  0  0  0  0  0  0  0
   -4.7154    2.8075   13.6926 C   0  0  0  0  0  0  0  0  0  0  0  0
   -4.5923    1.4082   13.6686 C   0  0  0  0  0  0  0  0  0  0  0  0
   -4.6296    0.7043   14.8717 C   0  0  0  0  0  0  0  0  0  0  0  0
   -4.5102   -0.6319   14.8255 F   0  0  0  0  0  0  0  0  0  0  0  0
   -4.8760    6.3201   11.9370 S   0  0  0  0  0  0  0  0  0  0  0  0
   -4.3624    5.8947   10.3882 N   0  0  0  0  0  0  0  0  0  0  0  0
   -6.2650    6.6968   11.7959 O   0  0  0  0  0  0  0  0  0  0  0  0
   -3.8745    7.2333   12.4413 O   0  0  0  0  0  0  0  0  0  0  0  0
   -5.0319    5.2462    9.9741 H   0  0  0  0  0  0  0  0  0  0  0  0
   -3.4468    5.4486   10.4442 H   0  0  0  0  0  0  0  0  0  0  0  0
   -4.8037    0.5221   17.1964 O   0  0  0  0  0  0  0  0  0  0  0  0
   -7.1361    0.9579   16.9866 C   0  0  0  0  0  0  0  0  0  0  0  0
   -6.0691    0.2327   17.7867 C   0  0  0  0  0  0  0  0  0  0  0  0
 18 19  1  0
 19 17  1  0
 17  1  1  0
  1  2  2  0
  2  3  1  0
  3  4  1  0
  4  5  1  0
  5 11  1  0
 11 12  1  0
 11 13  2  0
 11 14  2  0
  5  6  2  0
  6  7  1  0
  7  8  1  0
  8  9  2  0
  9 10  1  0
  9  1  1  0
  7  3  2  0
 12 15  1  0
 12 16  1  0
M  END
> <minimizedAffinity>
-6.31886

> <CNNscore>
0.4262188673

> <CNNaffinity>
4.9195580482

> <CNN_VS>
2.0968084335

> <CNNaffinity_variance>
0.4397937357

$$$$



 19 20  0  0  0  0  0  0  0  0999 V2000
   -9.0225   10.8420    7.2287 C   0  0  0  0  0  0  0  0  0  0  0  0
   -8.9426    9.4730    7.5062 C   0  0  0  0  0  0  0  0  0  0  0  0
   -8.0312    9.0441    8.4916 C   0  0  0  0  0  0  0  0  0  0  0  0
   -7.7145    7.4403    9.0428 S   0  0  0  0  0  0  0  0  0  0  0  0
   -6.5542    8.0566   10.1303 C   0  0  0  0  0  0  0  0  0  0  0  0
   -6.3716    9.3625   10.1281 N   0  0  0  0  0  0  0  0  0  0  0  0
   -7.2138    9.9364    9.1920 C   0  0  0  0  0  0  0  0  0  0  0  0
   -7.3057   11.3079    8.9020 C   0  0  0  0  0  0  0  0  0  0  0  0
   -8.2067   11.7352    7.9273 C   0  0  0  0  0  0  0  0  0  0  0  0
   -8.2781   13.0499    7.6663 F   0  0  0  0  0  0  0  0  0  0  0  0
   -5.7057    6.8859   11.1585 S   0  0  0  0  0  0  0  0  0  0  0  0
   -5.5048    5.4402   10.3142 N   0  0  0  0  0  0  0  0  0  0  0  0
   -4.3714    7.4032   11.3661 O   0  0  0  0  0  0  0  0  0  0  0  0
   -6.5939    6.5744   12.2564 O   0  0  0  0  0  0  0  0  0  0  0  0
   -4.8831    5.5936    9.5202 H   0  0  0  0  0  0  0  0  0  0  0  0
   -6.4110    5.1138    9.9783 H   0  0  0  0  0  0  0  0  0  0  0  0
   -9.8562   11.4105    6.3020 O   0  0  0  0  0  0  0  0  0  0  0  0
  -11.5695   10.5106    4.9132 C   0  0  0  0  0  0  0  0  0  0  0  0
  -11.2238   11.0067    6.3057 C   0  0  0  0  0  0  0  0  0  0  0  0
 18 19  1  0
 19 17  1  0
 17  1  1  0
  1  2  2  0
  2  3  1  0
  3  4  1  0
  4  5  1  0
  5 11  1  0
 11 12  1  0
 11 13  2  0
 11 14  2  0
  5  6  2  0
  6  7  1  0
  7  8  1  0
  8  9  2  0
  9 10  1  0
  9  1  1  0
  7  3  2  0
 12 15  1  0
 12 16  1  0
M  END
> <minimizedAffinity>
-4.37631

> <CNNscore>
0.3661114573

> <CNNaffinity>
3.7688648701

> <CNN_VS>
1.3798246384

> <CNNaffinity_variance>
0.7661883235

$$$$



 19 20  0  0  0  0  0  0  0  0999 V2000
   -6.8191    7.5835    8.7082 C   0  0  0  0  0  0  0  0  0  0  0  0
   -6.4622    8.9201    8.9172 C   0  0  0  0  0  0  0  0  0  0  0  0
   -7.4315    9.9146    8.6782 C   0  0  0  0  0  0  0  0  0  0  0  0
   -7.2856   11.6254    8.8464 S   0  0  0  0  0  0  0  0  0  0  0  0
   -8.9052   11.8006    8.3414 C   0  0  0  0  0  0  0  0  0  0  0  0
   -9.5614   10.6937    8.0531 N   0  0  0  0  0  0  0  0  0  0  0  0
   -8.7246    9.6081    8.2434 C   0  0  0  0  0  0  0  0  0  0  0  0
   -9.0676    8.2614    8.0381 C   0  0  0  0  0  0  0  0  0  0  0  0
   -8.1104    7.2752    8.2737 C   0  0  0  0  0  0  0  0  0  0  0  0
   -8.4597    5.9950    8.0712 F   0  0  0  0  0  0  0  0  0  0  0  0
   -9.5516   13.4503    8.2521 S   0  0  0  0  0  0  0  0  0  0  0  0
  -11.0453   13.4258    7.4698 N   0  0  0  0  0  0  0  0  0  0  0  0
   -9.8308   13.8630    9.6097 O   0  0  0  0  0  0  0  0  0  0  0  0
   -8.6699   14.1973    7.3827 O   0  0  0  0  0  0  0  0  0  0  0  0
  -11.7176   12.9091    8.0367 H   0  0  0  0  0  0  0  0  0  0  0  0
  -10.9461   12.9718    6.5618 H   0  0  0  0  0  0  0  0  0  0  0  0
   -5.9909    6.5085    8.8964 O   0  0  0  0  0  0  0  0  0  0  0  0
   -4.9068    6.1480    6.8063 C   0  0  0  0  0  0  0  0  0  0  0  0
   -4.7146    6.5367    8.2611 C   0  0  0  0  0  0  0  0  0  0  0  0
 18 19  1  0
 19 17  1  0
 17  1  1  0
  1  2  2  0
  2  3  1  0
  3  4  1  0
  4  5  1  0
  5 11  1  0
 11 12  1  0
 11 13  2  0
 11 14  2  0
  5  6  2  0
  6  7  1  0
  7  8  1  0
  8  9  2  0
  9 10  1  0
  9  1  1  0
  7  3  2  0
 12 15  1  0
 12 16  1  0
M  END
> <minimizedAffinity>
-4.51285

> <CNNscore>
0.3474213183

> <CNNaffinity>
4.4499912262

> <CNN_VS>
1.5460218191

> <CNNaffinity_variance>
0.4996428192

$$$$



 19 20  0  0  0  0  0  0  0  0999 V2000
   -1.1641    8.9028   14.2192 C   0  0  0  0  0  0  0  0  0  0  0  0
   -1.2458    8.4759   12.8893 C   0  0  0  0  0  0  0  0  0  0  0  0
   -2.1721    7.4632   12.5695 C   0  0  0  0  0  0  0  0  0  0  0  0
   -2.4946    6.7418   11.0359 S   0  0  0  0  0  0  0  0  0  0  0  0
   -3.6731    5.7479   11.7653 C   0  0  0  0  0  0  0  0  0  0  0  0
   -3.8582    5.8985   13.0622 N   0  0  0  0  0  0  0  0  0  0  0  0
   -3.0022    6.8794   13.5313 C   0  0  0  0  0  0  0  0  0  0  0  0
   -2.9082    7.3189   14.8623 C   0  0  0  0  0  0  0  0  0  0  0  0
   -1.9925    8.3208   15.1817 C   0  0  0  0  0  0  0  0  0  0  0  0
   -1.9194    8.7255   16.4594 F   0  0  0  0  0  0  0  0  0  0  0  0
   -4.5358    4.6093   10.7133 S   0  0  0  0  0  0  0  0  0  0  0  0
   -3.5709    4.2342    9.3823 N   0  0  0  0  0  0  0  0  0  0  0  0
   -4.6705    3.3755   11.4556 O   0  0  0  0  0  0  0  0  0  0  0  0
   -5.6770    5.3184   10.1783 O   0  0  0  0  0  0  0  0  0  0  0  0
   -2.7420    3.7287    9.6949 H   0  0  0  0  0  0  0  0  0  0  0  0
   -3.2877    5.0951    8.9142 H   0  0  0  0  0  0  0  0  0  0  0  0
   -0.3167    9.8738   14.6840 O   0  0  0  0  0  0  0  0  0  0  0  0
   -1.7539   11.7183   14.2298 C   0  0  0  0  0  0  0  0  0  0  0  0
   -0.3584   11.1492   14.0475 C   0  0  0  0  0  0  0  0  0  0  0  0
 18 19  1  0
 19 17  1  0
 17  1  1  0
  1  2  2  0
  2  3  1  0
  3  4  1  0
  4  5  1  0
  5 11  1  0
 11 12  1  0
 11 13  2  0
 11 14  2  0
  5  6  2  0
  6  7  1  0
  7  8  1  0
  8  9  2  0
  9 10  1  0
  9  1  1  0
  7  3  2  0
 12 15  1  0
 12 16  1  0
M  END
> <minimizedAffinity>
-4.68111

> <CNNscore>
0.3085133135

> <CNNaffinity>
3.9351272583

> <CNN_VS>
1.2140392065

> <CNNaffinity_variance>
0.5552632213

$$$$
