


 27 29  0  0  0  0  0  0  0  0999 V2000
   -8.8952   55.5658   12.7412 C   0  0  0  0  0  0  0  0  0  0  0  0
   -9.1664   56.0793   13.8191 O   0  0  0  0  0  0  0  0  0  0  0  0
   -9.2940   55.9989   11.4881 N   0  0  0  0  0  0  0  0  0  0  0  0
   -9.0413   55.4274   10.7274 H   0  0  0  0  0  0  0  0  0  0  0  0
   -6.1707   53.0031   13.4911 C   0  0  0  0  0  0  0  0  0  0  0  0
   -6.6039   51.9440   12.6842 C   0  0  0  0  0  0  0  0  0  0  0  0
   -7.7686   52.0728   11.9322 C   0  0  0  0  0  0  0  0  0  0  0  0
   -8.1705   51.0485   11.1687 F   0  0  0  0  0  0  0  0  0  0  0  0
   -8.5164   53.2426   11.9546 C   0  0  0  0  0  0  0  0  0  0  0  0
   -8.0883   54.3138   12.7426 C   0  0  0  0  0  0  0  0  0  0  0  0
   -6.9313   54.1848   13.5252 C   0  0  0  0  0  0  0  0  0  0  0  0
   -4.9178   52.8779   14.3320 C   0  0  0  0  0  0  0  0  0  0  0  0
   -3.2160   52.1502   12.7961 C   0  0  0  0  0  0  0  0  0  0  0  0
   -3.7018   53.2767   13.5986 N   0  0  0  0  0  0  0  0  0  0  0  0
   -3.9637   54.4242   12.7229 C   0  0  0  0  0  0  0  0  0  0  0  0
  -10.0225   57.1683   11.1787 C   0  0  0  0  0  0  0  0  0  0  0  0
   -9.6057   58.1175   10.2464 C   0  0  0  0  0  0  0  0  0  0  0  0
  -10.3908   59.2410    9.9841 C   0  0  0  0  0  0  0  0  0  0  0  0
  -11.5996   59.4244   10.6543 C   0  0  0  0  0  0  0  0  0  0  0  0
  -12.0425   58.4906   11.5996 C   0  0  0  0  0  0  0  0  0  0  0  0
  -11.2432   57.3608   11.8483 C   0  0  0  0  0  0  0  0  0  0  0  0
  -13.3140   58.7204   12.2830 C   0  0  0  0  0  0  0  0  0  0  0  0
  -14.3738   57.9312   12.2920 N   0  0  0  0  0  0  0  0  0  0  0  0
  -15.3280   58.5569   13.0559 N   0  0  0  0  0  0  0  0  0  0  0  0
  -14.8828   59.7173   13.5105 N   0  0  0  0  0  0  0  0  0  0  0  0
  -13.6390   59.8221   13.0279 N   0  0  0  0  0  0  0  0  0  0  0  0
  -13.0397   60.5868   13.1869 H   0  0  0  0  0  0  0  0  0  0  0  0
 13 14  1  0
 14 15  1  0
 14 12  1  0
 12  5  1  0
  5  6  2  0
  6  7  1  0
  7  8  1  0
  7  9  2  0
  9 10  1  0
 10  1  1  0
  1  2  2  0
  1  3  1  0
  3 16  1  0
 16 17  2  0
 17 18  1  0
 18 19  2  0
 19 20  1  0
 20 22  1  0
 22 23  2  0
 23 24  1  0
 24 25  2  0
 25 26  1  0
 20 21  2  0
 10 11  2  0
 11  5  1  0
 21 16  1  0
 26 22  1  0
  3  4  1  0
 26 27  1  0
M  END
> <minimizedAffinity>
-7.68008

> <CNNscore>
0.4916656315

> <CNNaffinity>
4.6642374992

> <CNN_VS>
2.2932453156

> <CNNaffinity_variance>
0.8155476451

$$$$



 27 29  0  0  0  0  0  0  0  0999 V2000
  -12.7009   57.1565   11.6971 C   0  0  0  0  0  0  0  0  0  0  0  0
  -12.9815   56.0121   11.3646 O   0  0  0  0  0  0  0  0  0  0  0  0
  -11.4473   57.7441   11.6852 N   0  0  0  0  0  0  0  0  0  0  0  0
  -11.3888   58.6564   12.0506 H   0  0  0  0  0  0  0  0  0  0  0  0
  -16.0445   58.3309   13.1092 C   0  0  0  0  0  0  0  0  0  0  0  0
  -15.8142   59.7108   13.1647 C   0  0  0  0  0  0  0  0  0  0  0  0
  -14.5857   60.2284   12.7629 C   0  0  0  0  0  0  0  0  0  0  0  0
  -14.3810   61.5505   12.8259 F   0  0  0  0  0  0  0  0  0  0  0  0
  -13.5731   59.4022   12.2939 C   0  0  0  0  0  0  0  0  0  0  0  0
  -13.7935   58.0248   12.2178 C   0  0  0  0  0  0  0  0  0  0  0  0
  -15.0177   57.4900   12.6458 C   0  0  0  0  0  0  0  0  0  0  0  0
  -17.3659   57.7444   13.5593 C   0  0  0  0  0  0  0  0  0  0  0  0
  -17.5413   56.9084   15.8075 C   0  0  0  0  0  0  0  0  0  0  0  0
  -17.1950   56.5630   14.4255 N   0  0  0  0  0  0  0  0  0  0  0  0
  -18.0362   55.4491   13.9743 C   0  0  0  0  0  0  0  0  0  0  0  0
  -10.2432   57.1818   11.2077 C   0  0  0  0  0  0  0  0  0  0  0  0
   -9.9201   57.0747    9.8557 C   0  0  0  0  0  0  0  0  0  0  0  0
   -8.7011   56.5202    9.4634 C   0  0  0  0  0  0  0  0  0  0  0  0
   -7.7956   56.0667   10.4217 C   0  0  0  0  0  0  0  0  0  0  0  0
   -8.0940   56.1566   11.7872 C   0  0  0  0  0  0  0  0  0  0  0  0
   -9.3236   56.7233   12.1668 C   0  0  0  0  0  0  0  0  0  0  0  0
   -7.1197   55.6672   12.7607 C   0  0  0  0  0  0  0  0  0  0  0  0
   -7.2942   55.5114   14.0613 N   0  0  0  0  0  0  0  0  0  0  0  0
   -6.1093   55.0354   14.5663 N   0  0  0  0  0  0  0  0  0  0  0  0
   -5.2067   54.9025   13.6077 N   0  0  0  0  0  0  0  0  0  0  0  0
   -5.8289   55.2989   12.4912 N   0  0  0  0  0  0  0  0  0  0  0  0
   -5.4152   55.3224   11.5982 H   0  0  0  0  0  0  0  0  0  0  0  0
 13 14  1  0
 14 15  1  0
 14 12  1  0
 12  5  1  0
  5  6  2  0
  6  7  1  0
  7  8  1  0
  7  9  2  0
  9 10  1  0
 10  1  1  0
  1  2  2  0
  1  3  1  0
  3 16  1  0
 16 17  2  0
 17 18  1  0
 18 19  2  0
 19 20  1  0
 20 22  1  0
 22 23  2  0
 23 24  1  0
 24 25  2  0
 25 26  1  0
 20 21  2  0
 10 11  2  0
 11  5  1  0
 21 16  1  0
 26 22  1  0
  3  4  1  0
 26 27  1  0
M  END
> <minimizedAffinity>
-6.83544

> <CNNscore>
0.4770298302

> <CNNaffinity>
4.6419181824

> <CNN_VS>
2.2143335342

> <CNNaffinity_variance>
1.3153680563

$$$$



 27 29  0  0  0  0  0  0  0  0999 V2000
   -8.7703   54.7882   11.3360 C   0  0  0  0  0  0  0  0  0  0  0  0
   -9.4407   54.2911   10.4402 O   0  0  0  0  0  0  0  0  0  0  0  0
   -8.7795   56.1098   11.7485 N   0  0  0  0  0  0  0  0  0  0  0  0
   -8.1254   56.3557   12.4419 H   0  0  0  0  0  0  0  0  0  0  0  0
   -6.4434   51.8915   12.2009 C   0  0  0  0  0  0  0  0  0  0  0  0
   -5.9850   52.3135   13.4548 C   0  0  0  0  0  0  0  0  0  0  0  0
   -6.4215   53.5251   13.9841 C   0  0  0  0  0  0  0  0  0  0  0  0
   -5.9701   53.9152   15.1832 F   0  0  0  0  0  0  0  0  0  0  0  0
   -7.3182   54.3318   13.2964 C   0  0  0  0  0  0  0  0  0  0  0  0
   -7.7967   53.9167   12.0513 C   0  0  0  0  0  0  0  0  0  0  0  0
   -7.3424   52.7111   11.4965 C   0  0  0  0  0  0  0  0  0  0  0  0
   -5.9670   50.5871   11.5975 C   0  0  0  0  0  0  0  0  0  0  0  0
   -4.2158   51.8553   10.5443 C   0  0  0  0  0  0  0  0  0  0  0  0
   -4.5328   50.6126   11.2545 N   0  0  0  0  0  0  0  0  0  0  0  0
   -3.6986   50.5101   12.4570 C   0  0  0  0  0  0  0  0  0  0  0  0
   -9.6218   57.1446   11.2862 C   0  0  0  0  0  0  0  0  0  0  0  0
   -9.3096   57.9769   10.2122 C   0  0  0  0  0  0  0  0  0  0  0  0
  -10.2032   58.9683    9.8048 C   0  0  0  0  0  0  0  0  0  0  0  0
  -11.4169   59.1357   10.4704 C   0  0  0  0  0  0  0  0  0  0  0  0
  -11.7564   58.3179   11.5557 C   0  0  0  0  0  0  0  0  0  0  0  0
  -10.8482   57.3196   11.9502 C   0  0  0  0  0  0  0  0  0  0  0  0
  -13.0368   58.5270   12.2290 C   0  0  0  0  0  0  0  0  0  0  0  0
  -14.0712   57.7052   12.2583 N   0  0  0  0  0  0  0  0  0  0  0  0
  -15.0472   58.3222   13.0014 N   0  0  0  0  0  0  0  0  0  0  0  0
  -14.6404   59.5087   13.4233 N   0  0  0  0  0  0  0  0  0  0  0  0
  -13.3990   59.6389   12.9410 N   0  0  0  0  0  0  0  0  0  0  0  0
  -12.8247   60.4265   13.0791 H   0  0  0  0  0  0  0  0  0  0  0  0
 13 14  1  0
 14 15  1  0
 14 12  1  0
 12  5  1  0
  5  6  2  0
  6  7  1  0
  7  8  1  0
  7  9  2  0
  9 10  1  0
 10  1  1  0
  1  2  2  0
  1  3  1  0
  3 16  1  0
 16 17  2  0
 17 18  1  0
 18 19  2  0
 19 20  1  0
 20 22  1  0
 22 23  2  0
 23 24  1  0
 24 25  2  0
 25 26  1  0
 20 21  2  0
 10 11  2  0
 11  5  1  0
 21 16  1  0
 26 22  1  0
  3  4  1  0
 26 27  1  0
M  END
> <minimizedAffinity>
-6.62249

> <CNNscore>
0.4075588584

> <CNNaffinity>
4.2784266472

> <CNN_VS>
1.7437106371

> <CNNaffinity_variance>
0.9772213101

$$$$



 27 29  0  0  0  0  0  0  0  0999 V2000
   -2.3559   51.7381    6.7273 C   0  0  0  0  0  0  0  0  0  0  0  0
   -2.1475   52.9384    6.6055 O   0  0  0  0  0  0  0  0  0  0  0  0
   -2.5270   50.8146    5.7101 N   0  0  0  0  0  0  0  0  0  0  0  0
   -2.7541   49.8974    5.9863 H   0  0  0  0  0  0  0  0  0  0  0  0
   -3.1481   51.4004   10.4437 C   0  0  0  0  0  0  0  0  0  0  0  0
   -2.6937   50.0958   10.6720 C   0  0  0  0  0  0  0  0  0  0  0  0
   -2.1594   49.3512    9.6237 C   0  0  0  0  0  0  0  0  0  0  0  0
   -1.7329   48.1037    9.8588 F   0  0  0  0  0  0  0  0  0  0  0  0
   -2.0556   49.8786    8.3434 C   0  0  0  0  0  0  0  0  0  0  0  0
   -2.4902   51.1845    8.1037 C   0  0  0  0  0  0  0  0  0  0  0  0
   -3.0552   51.9336    9.1464 C   0  0  0  0  0  0  0  0  0  0  0  0
   -3.7504   52.2211   11.5645 C   0  0  0  0  0  0  0  0  0  0  0  0
   -3.8415   54.3419   12.6951 C   0  0  0  0  0  0  0  0  0  0  0  0
   -3.1192   53.5476   11.6968 N   0  0  0  0  0  0  0  0  0  0  0  0
   -1.7117   53.4274   12.0926 C   0  0  0  0  0  0  0  0  0  0  0  0
   -2.4124   51.0407    4.3210 C   0  0  0  0  0  0  0  0  0  0  0  0
   -3.5000   51.0814    3.4497 C   0  0  0  0  0  0  0  0  0  0  0  0
   -3.3058   51.3263    2.0897 C   0  0  0  0  0  0  0  0  0  0  0  0
   -2.0204   51.5313    1.5901 C   0  0  0  0  0  0  0  0  0  0  0  0
   -0.9077   51.4918    2.4399 C   0  0  0  0  0  0  0  0  0  0  0  0
   -1.1203   51.2500    3.8086 C   0  0  0  0  0  0  0  0  0  0  0  0
    0.4237   51.7087    1.8771 C   0  0  0  0  0  0  0  0  0  0  0  0
    1.5609   51.1659    2.2750 N   0  0  0  0  0  0  0  0  0  0  0  0
    2.5459   51.6657    1.4594 N   0  0  0  0  0  0  0  0  0  0  0  0
    2.0424   52.5103    0.5736 N   0  0  0  0  0  0  0  0  0  0  0  0
    0.7303   52.5421    0.8351 N   0  0  0  0  0  0  0  0  0  0  0  0
    0.0752   53.0899    0.3452 H   0  0  0  0  0  0  0  0  0  0  0  0
 13 14  1  0
 14 15  1  0
 14 12  1  0
 12  5  1  0
  5  6  2  0
  6  7  1  0
  7  8  1  0
  7  9  2  0
  9 10  1  0
 10  1  1  0
  1  2  2  0
  1  3  1  0
  3 16  1  0
 16 17  2  0
 17 18  1  0
 18 19  2  0
 19 20  1  0
 20 22  1  0
 22 23  2  0
 23 24  1  0
 24 25  2  0
 25 26  1  0
 20 21  2  0
 10 11  2  0
 11  5  1  0
 21 16  1  0
 26 22  1  0
  3  4  1  0
 26 27  1  0
M  END
> <minimizedAffinity>
-6.30298

> <CNNscore>
0.4063343108

> <CNNaffinity>
4.2685709000

> <CNN_VS>
1.7344667912

> <CNNaffinity_variance>
0.2943680584

$$$$



 27 29  0  0  0  0  0  0  0  0999 V2000
   -8.8697   56.0503   12.6762 C   0  0  0  0  0  0  0  0  0  0  0  0
   -9.3278   55.9332   13.8056 O   0  0  0  0  0  0  0  0  0  0  0  0
   -7.6964   55.4981   12.1914 N   0  0  0  0  0  0  0  0  0  0  0  0
   -7.4413   55.7494   11.2743 H   0  0  0  0  0  0  0  0  0  0  0  0
  -11.3218   58.5613   11.1811 C   0  0  0  0  0  0  0  0  0  0  0  0
  -10.9626   58.4778    9.8304 C   0  0  0  0  0  0  0  0  0  0  0  0
   -9.9312   57.6300    9.4353 C   0  0  0  0  0  0  0  0  0  0  0  0
   -9.5980   57.5652    8.1398 F   0  0  0  0  0  0  0  0  0  0  0  0
   -9.2470   56.8479   10.3564 C   0  0  0  0  0  0  0  0  0  0  0  0
   -9.6047   56.9085   11.7055 C   0  0  0  0  0  0  0  0  0  0  0  0
  -10.6238   57.7797   12.1181 C   0  0  0  0  0  0  0  0  0  0  0  0
  -12.4272   59.4909   11.6356 C   0  0  0  0  0  0  0  0  0  0  0  0
  -14.2268   59.7846   13.2039 C   0  0  0  0  0  0  0  0  0  0  0  0
  -13.4509   58.8009   12.4425 N   0  0  0  0  0  0  0  0  0  0  0  0
  -14.3543   58.0163   11.5938 C   0  0  0  0  0  0  0  0  0  0  0  0
   -6.8242   54.6148   12.8647 C   0  0  0  0  0  0  0  0  0  0  0  0
   -7.2151   53.7967   13.9238 C   0  0  0  0  0  0  0  0  0  0  0  0
   -6.2963   52.9376   14.5280 C   0  0  0  0  0  0  0  0  0  0  0  0
   -4.9776   52.8913   14.0778 C   0  0  0  0  0  0  0  0  0  0  0  0
   -4.5541   53.7046   13.0189 C   0  0  0  0  0  0  0  0  0  0  0  0
   -5.4932   54.5604   12.4165 C   0  0  0  0  0  0  0  0  0  0  0  0
   -3.1625   53.6289   12.5781 C   0  0  0  0  0  0  0  0  0  0  0  0
   -2.0787   53.6695   13.3330 N   0  0  0  0  0  0  0  0  0  0  0  0
   -1.0019   53.5717   12.4866 N   0  0  0  0  0  0  0  0  0  0  0  0
   -1.3977   53.4804   11.2271 N   0  0  0  0  0  0  0  0  0  0  0  0
   -2.7342   53.5217   11.2822 N   0  0  0  0  0  0  0  0  0  0  0  0
   -3.3281   53.4806   10.4981 H   0  0  0  0  0  0  0  0  0  0  0  0
 13 14  1  0
 14 15  1  0
 14 12  1  0
 12  5  1  0
  5  6  2  0
  6  7  1  0
  7  8  1  0
  7  9  2  0
  9 10  1  0
 10  1  1  0
  1  2  2  0
  1  3  1  0
  3 16  1  0
 16 17  2  0
 17 18  1  0
 18 19  2  0
 19 20  1  0
 20 22  1  0
 22 23  2  0
 23 24  1  0
 24 25  2  0
 25 26  1  0
 20 21  2  0
 10 11  2  0
 11  5  1  0
 21 16  1  0
 26 22  1  0
  3  4  1  0
 26 27  1  0
M  END
> <minimizedAffinity>
-8.52335

> <CNNscore>
0.3777425289

> <CNNaffinity>
4.6890482903

> <CNN_VS>
1.7712529898

> <CNNaffinity_variance>
0.8414462209

$$$$



 27 29  0  0  0  0  0  0  0  0999 V2000
   -6.4369   53.4152    6.5923 C   0  0  0  0  0  0  0  0  0  0  0  0
   -7.4321   53.2722    5.8935 O   0  0  0  0  0  0  0  0  0  0  0  0
   -6.2805   54.2953    7.6494 N   0  0  0  0  0  0  0  0  0  0  0  0
   -5.3873   54.3280    8.0623 H   0  0  0  0  0  0  0  0  0  0  0  0
   -3.9564   51.1631    4.7680 C   0  0  0  0  0  0  0  0  0  0  0  0
   -2.9501   51.0737    5.7374 C   0  0  0  0  0  0  0  0  0  0  0  0
   -3.0854   51.7518    6.9460 C   0  0  0  0  0  0  0  0  0  0  0  0
   -2.1116   51.6584    7.8607 F   0  0  0  0  0  0  0  0  0  0  0  0
   -4.2108   52.5167    7.2223 C   0  0  0  0  0  0  0  0  0  0  0  0
   -5.2305   52.6027    6.2712 C   0  0  0  0  0  0  0  0  0  0  0  0
   -5.0921   51.9458    5.0395 C   0  0  0  0  0  0  0  0  0  0  0  0
   -3.8214   50.4498    3.4392 C   0  0  0  0  0  0  0  0  0  0  0  0
   -2.6951   51.6215    1.6664 C   0  0  0  0  0  0  0  0  0  0  0  0
   -3.9955   51.3572    2.2896 N   0  0  0  0  0  0  0  0  0  0  0  0
   -4.9071   50.7824    1.2942 C   0  0  0  0  0  0  0  0  0  0  0  0
   -7.2581   55.1514    8.2021 C   0  0  0  0  0  0  0  0  0  0  0  0
   -8.0881   55.9735    7.4412 C   0  0  0  0  0  0  0  0  0  0  0  0
   -9.0424   56.7808    8.0617 C   0  0  0  0  0  0  0  0  0  0  0  0
   -9.1729   56.7728    9.4498 C   0  0  0  0  0  0  0  0  0  0  0  0
   -8.3503   55.9609   10.2410 C   0  0  0  0  0  0  0  0  0  0  0  0
   -7.3978   55.1487    9.6007 C   0  0  0  0  0  0  0  0  0  0  0  0
   -8.5162   55.9831   11.6932 C   0  0  0  0  0  0  0  0  0  0  0  0
   -9.5988   56.3203   12.3717 N   0  0  0  0  0  0  0  0  0  0  0  0
   -9.2871   56.1966   13.7032 N   0  0  0  0  0  0  0  0  0  0  0  0
   -8.0346   55.7991   13.8601 N   0  0  0  0  0  0  0  0  0  0  0  0
   -7.5550   55.6725   12.6172 N   0  0  0  0  0  0  0  0  0  0  0  0
   -6.6366   55.3941   12.3974 H   0  0  0  0  0  0  0  0  0  0  0  0
 13 14  1  0
 14 15  1  0
 14 12  1  0
 12  5  1  0
  5  6  2  0
  6  7  1  0
  7  8  1  0
  7  9  2  0
  9 10  1  0
 10  1  1  0
  1  2  2  0
  1  3  1  0
  3 16  1  0
 16 17  2  0
 17 18  1  0
 18 19  2  0
 19 20  1  0
 20 22  1  0
 22 23  2  0
 23 24  1  0
 24 25  2  0
 25 26  1  0
 20 21  2  0
 10 11  2  0
 11  5  1  0
 21 16  1  0
 26 22  1  0
  3  4  1  0
 26 27  1  0
M  END
> <minimizedAffinity>
-5.88960

> <CNNscore>
0.3272341788

> <CNNaffinity>
4.5615630150

> <CNN_VS>
1.4926993847

> <CNNaffinity_variance>
0.3342514038

$$$$



 27 29  0  0  0  0  0  0  0  0999 V2000
   -7.6285   55.9188    7.5514 C   0  0  0  0  0  0  0  0  0  0  0  0
   -6.5192   55.9252    8.0696 O   0  0  0  0  0  0  0  0  0  0  0  0
   -8.8493   56.0323    8.1945 N   0  0  0  0  0  0  0  0  0  0  0  0
   -9.6507   55.9399    7.6302 H   0  0  0  0  0  0  0  0  0  0  0  0
   -8.6797   56.2579    3.9000 C   0  0  0  0  0  0  0  0  0  0  0  0
   -7.8431   55.2992    3.3157 C   0  0  0  0  0  0  0  0  0  0  0  0
   -6.9508   54.5794    4.1059 C   0  0  0  0  0  0  0  0  0  0  0  0
   -6.1553   53.6687    3.5301 F   0  0  0  0  0  0  0  0  0  0  0  0
   -6.8745   54.7835    5.4772 C   0  0  0  0  0  0  0  0  0  0  0  0
   -7.7140   55.7254    6.0769 C   0  0  0  0  0  0  0  0  0  0  0  0
   -8.5972   56.4755    5.2863 C   0  0  0  0  0  0  0  0  0  0  0  0
   -9.6437   57.0658    3.0571 C   0  0  0  0  0  0  0  0  0  0  0  0
  -10.8314   55.6340    1.5327 C   0  0  0  0  0  0  0  0  0  0  0  0
  -10.9110   56.3538    2.8074 N   0  0  0  0  0  0  0  0  0  0  0  0
  -11.2075   55.4056    3.8868 C   0  0  0  0  0  0  0  0  0  0  0  0
   -9.0740   56.2658    9.5689 C   0  0  0  0  0  0  0  0  0  0  0  0
   -8.3918   55.6046   10.5893 C   0  0  0  0  0  0  0  0  0  0  0  0
   -8.6598   55.9031   11.9258 C   0  0  0  0  0  0  0  0  0  0  0  0
   -9.6144   56.8654   12.2522 C   0  0  0  0  0  0  0  0  0  0  0  0
  -10.3193   57.5430   11.2493 C   0  0  0  0  0  0  0  0  0  0  0  0
  -10.0335   57.2355    9.9073 C   0  0  0  0  0  0  0  0  0  0  0  0
  -11.3143   58.5428   11.6324 C   0  0  0  0  0  0  0  0  0  0  0  0
  -11.2975   59.8360   11.3612 N   0  0  0  0  0  0  0  0  0  0  0  0
  -12.4279   60.3744   11.9249 N   0  0  0  0  0  0  0  0  0  0  0  0
  -13.1361   59.4436   12.5441 N   0  0  0  0  0  0  0  0  0  0  0  0
  -12.4449   58.3112   12.3689 N   0  0  0  0  0  0  0  0  0  0  0  0
  -12.7128   57.4318   12.7213 H   0  0  0  0  0  0  0  0  0  0  0  0
 13 14  1  0
 14 15  1  0
 14 12  1  0
 12  5  1  0
  5  6  2  0
  6  7  1  0
  7  8  1  0
  7  9  2  0
  9 10  1  0
 10  1  1  0
  1  2  2  0
  1  3  1  0
  3 16  1  0
 16 17  2  0
 17 18  1  0
 18 19  2  0
 19 20  1  0
 20 22  1  0
 22 23  2  0
 23 24  1  0
 24 25  2  0
 25 26  1  0
 20 21  2  0
 10 11  2  0
 11  5  1  0
 21 16  1  0
 26 22  1  0
  3  4  1  0
 26 27  1  0
M  END
> <minimizedAffinity>
-6.40522

> <CNNscore>
0.3250753880

> <CNNaffinity>
4.5517191887

> <CNN_VS>
1.4796519279

> <CNNaffinity_variance>
0.3043079674

$$$$



 27 29  0  0  0  0  0  0  0  0999 V2000
   -4.8778   50.6307   11.2723 C   0  0  0  0  0  0  0  0  0  0  0  0
   -3.9064   51.3081   10.9616 O   0  0  0  0  0  0  0  0  0  0  0  0
   -5.8504   50.9473   12.2053 N   0  0  0  0  0  0  0  0  0  0  0  0
   -6.5285   50.2557   12.3816 H   0  0  0  0  0  0  0  0  0  0  0  0
   -4.1656   47.1093    9.9896 C   0  0  0  0  0  0  0  0  0  0  0  0
   -5.3949   46.8165    9.3867 C   0  0  0  0  0  0  0  0  0  0  0  0
   -6.4273   47.7502    9.4212 C   0  0  0  0  0  0  0  0  0  0  0  0
   -7.5979   47.4523    8.8428 F   0  0  0  0  0  0  0  0  0  0  0  0
   -6.2644   48.9836   10.0377 C   0  0  0  0  0  0  0  0  0  0  0  0
   -5.0383   49.2964   10.6298 C   0  0  0  0  0  0  0  0  0  0  0  0
   -4.0007   48.3525   10.6247 C   0  0  0  0  0  0  0  0  0  0  0  0
   -3.0358   46.1013    9.9810 C   0  0  0  0  0  0  0  0  0  0  0  0
   -0.9760   46.3515   11.1971 C   0  0  0  0  0  0  0  0  0  0  0  0
   -1.7068   46.7408    9.9873 N   0  0  0  0  0  0  0  0  0  0  0  0
   -0.9299   46.3599    8.8027 C   0  0  0  0  0  0  0  0  0  0  0  0
   -5.9790   52.1509   12.9326 C   0  0  0  0  0  0  0  0  0  0  0  0
   -5.1192   52.5300   13.9625 C   0  0  0  0  0  0  0  0  0  0  0  0
   -5.3032   53.7450   14.6239 C   0  0  0  0  0  0  0  0  0  0  0  0
   -6.3507   54.5902   14.2606 C   0  0  0  0  0  0  0  0  0  0  0  0
   -7.2335   54.2346   13.2330 C   0  0  0  0  0  0  0  0  0  0  0  0
   -7.0313   53.0101   12.5721 C   0  0  0  0  0  0  0  0  0  0  0  0
   -8.3210   55.1467   12.8837 C   0  0  0  0  0  0  0  0  0  0  0  0
   -8.9386   56.0009   13.6806 N   0  0  0  0  0  0  0  0  0  0  0  0
   -9.8898   56.6359   12.9208 N   0  0  0  0  0  0  0  0  0  0  0  0
   -9.8776   56.1862   11.6762 N   0  0  0  0  0  0  0  0  0  0  0  0
   -8.9115   55.2605   11.6538 N   0  0  0  0  0  0  0  0  0  0  0  0
   -8.6597   54.7334   10.8612 H   0  0  0  0  0  0  0  0  0  0  0  0
 13 14  1  0
 14 15  1  0
 14 12  1  0
 12  5  1  0
  5  6  2  0
  6  7  1  0
  7  8  1  0
  7  9  2  0
  9 10  1  0
 10  1  1  0
  1  2  2  0
  1  3  1  0
  3 16  1  0
 16 17  2  0
 17 18  1  0
 18 19  2  0
 19 20  1  0
 20 22  1  0
 22 23  2  0
 23 24  1  0
 24 25  2  0
 25 26  1  0
 20 21  2  0
 10 11  2  0
 11  5  1  0
 21 16  1  0
 26 22  1  0
  3  4  1  0
 26 27  1  0
M  END
> <minimizedAffinity>
-6.30475

> <CNNscore>
0.3196399808

> <CNNaffinity>
4.6666474342

> <CNN_VS>
1.4916471243

> <CNNaffinity_variance>
0.2937150002

$$$$



 27 29  0  0  0  0  0  0  0  0999 V2000
   -6.3806   53.2004    6.8529 C   0  0  0  0  0  0  0  0  0  0  0  0
   -7.4408   52.6913    6.5126 O   0  0  0  0  0  0  0  0  0  0  0  0
   -6.2105   54.3856    7.5480 N   0  0  0  0  0  0  0  0  0  0  0  0
   -5.2820   54.6846    7.6814 H   0  0  0  0  0  0  0  0  0  0  0  0
   -2.7718   51.9637    6.8414 C   0  0  0  0  0  0  0  0  0  0  0  0
   -2.7647   51.2444    5.6402 C   0  0  0  0  0  0  0  0  0  0  0  0
   -3.9229   51.1606    4.8720 C   0  0  0  0  0  0  0  0  0  0  0  0
   -3.8996   50.4654    3.7275 F   0  0  0  0  0  0  0  0  0  0  0  0
   -5.0975   51.7874    5.2664 C   0  0  0  0  0  0  0  0  0  0  0  0
   -5.1157   52.5220    6.4546 C   0  0  0  0  0  0  0  0  0  0  0  0
   -3.9621   52.5901    7.2498 C   0  0  0  0  0  0  0  0  0  0  0  0
   -1.5293   52.0519    7.7022 C   0  0  0  0  0  0  0  0  0  0  0  0
   -2.3341   51.7375    9.9467 C   0  0  0  0  0  0  0  0  0  0  0  0
   -1.5710   51.1296    8.8524 N   0  0  0  0  0  0  0  0  0  0  0  0
   -2.1825   49.8485    8.4824 C   0  0  0  0  0  0  0  0  0  0  0  0
   -7.2192   55.2138    8.0870 C   0  0  0  0  0  0  0  0  0  0  0  0
   -8.0397   56.0374    7.3173 C   0  0  0  0  0  0  0  0  0  0  0  0
   -9.0263   56.8158    7.9239 C   0  0  0  0  0  0  0  0  0  0  0  0
   -9.1990   56.7773    9.3069 C   0  0  0  0  0  0  0  0  0  0  0  0
   -8.3872   55.9632   10.1069 C   0  0  0  0  0  0  0  0  0  0  0  0
   -7.4016   55.1802    9.4803 C   0  0  0  0  0  0  0  0  0  0  0  0
   -8.5978   55.9529   11.5534 C   0  0  0  0  0  0  0  0  0  0  0  0
   -7.8958   55.2981   12.4614 N   0  0  0  0  0  0  0  0  0  0  0  0
   -8.4607   55.5822   13.6803 N   0  0  0  0  0  0  0  0  0  0  0  0
   -9.4996   56.3903   13.5426 N   0  0  0  0  0  0  0  0  0  0  0  0
   -9.5889   56.6155   12.2264 N   0  0  0  0  0  0  0  0  0  0  0  0
  -10.2736   57.1802   11.8005 H   0  0  0  0  0  0  0  0  0  0  0  0
 13 14  1  0
 14 15  1  0
 14 12  1  0
 12  5  1  0
  5  6  2  0
  6  7  1  0
  7  8  1  0
  7  9  2  0
  9 10  1  0
 10  1  1  0
  1  2  2  0
  1  3  1  0
  3 16  1  0
 16 17  2  0
 17 18  1  0
 18 19  2  0
 19 20  1  0
 20 22  1  0
 22 23  2  0
 23 24  1  0
 24 25  2  0
 25 26  1  0
 20 21  2  0
 10 11  2  0
 11  5  1  0
 21 16  1  0
 26 22  1  0
  3  4  1  0
 26 27  1  0
M  END
> <minimizedAffinity>
-5.93385

> <CNNscore>
0.2935789526

> <CNNaffinity>
4.5686335564

> <CNN_VS>
1.3412547112

> <CNNaffinity_variance>
0.3679862022

$$$$
