


 35 35  0  0  0  0  0  0  0  0999 V2000
   36.3814   41.7461   -3.7356 C   0  0  0  0  0  0  0  0  0  0  0  0
   35.3314   41.6585   -5.9794 C   0  0  0  0  0  0  0  0  0  0  0  0
   36.1210   42.4936   -6.4271 O   0  0  0  0  0  0  0  0  0  0  0  0
   35.5394   41.0760   -4.7415 N   0  0  0  0  0  0  0  0  0  0  0  0
   35.1225   40.2091   -4.5321 H   0  0  0  0  0  0  0  0  0  0  0  0
   34.1003   41.1805   -6.7721 C   0  0  0  0  0  0  0  0  0  0  0  0
   33.5953   42.3749   -8.0661 S   0  0  0  0  0  0  0  0  0  0  0  0
   34.5928   42.4994   -8.9822 H   0  0  0  0  0  0  0  0  0  0  0  0
   34.3244   39.7687   -7.3366 C   0  0  0  0  0  0  0  0  0  0  0  0
   33.2574   38.7376   -6.9423 C   0  0  0  0  0  0  0  0  0  0  0  0
   32.3227   38.3644   -8.0974 C   0  0  0  0  0  0  0  0  0  0  0  0
   30.1156   37.2607   -8.6013 C   0  0  0  0  0  0  0  0  0  0  0  0
   31.3908   37.1959   -7.7743 C   0  0  0  0  0  0  0  0  0  0  0  0
   37.6098   40.8718   -3.3961 C   0  0  0  0  0  0  0  0  0  0  0  0
   38.7507   41.3195   -3.2759 O   0  0  0  0  0  0  0  0  0  0  0  0
   37.3421   39.5413   -3.1456 N   0  0  0  0  0  0  0  0  0  0  0  0
   36.4029   39.2488   -3.1071 H   0  0  0  0  0  0  0  0  0  0  0  0
   38.3906   38.5504   -2.9353 C   0  0  0  0  0  0  0  0  0  0  0  0
   38.0563   37.7161   -1.7001 C   0  0  0  0  0  0  0  0  0  0  0  0
   38.5991   37.6344   -4.1894 C   0  0  0  0  0  0  0  0  0  0  0  0
   40.0779   37.0352   -4.3636 N   0  0  0  0  0  0  0  0  0  0  0  0
   40.2404   36.8174   -5.8600 C   0  0  0  0  0  0  0  0  0  0  0  0
   40.1215   35.6894   -3.6559 C   0  0  0  0  0  0  0  0  0  0  0  0
   41.0289   38.0786   -3.7960 C   0  0  0  0  0  0  0  0  0  0  0  0
   42.4973   37.7855   -3.5527 N   0  0  0  0  0  0  0  0  0  0  0  0
   43.3694   38.9768   -3.2421 C   0  0  0  0  0  0  0  0  0  0  0  0
   42.7422   36.6686   -2.5429 C   0  0  0  0  0  0  0  0  0  0  0  0
   43.0044   37.2138   -4.9202 C   0  0  0  0  0  0  0  0  0  0  0  0
   35.5749   42.0189   -2.4558 C   0  0  0  0  0  0  0  0  0  0  0  0
   36.3819   42.6737   -1.3599 C   0  0  0  0  0  0  0  0  0  0  0  0
   36.8121   44.0015   -1.4927 C   0  0  0  0  0  0  0  0  0  0  0  0
   37.5650   44.6057   -0.4839 C   0  0  0  0  0  0  0  0  0  0  0  0
   37.8947   43.8911    0.6659 C   0  0  0  0  0  0  0  0  0  0  0  0
   37.4745   42.5707    0.8069 C   0  0  0  0  0  0  0  0  0  0  0  0
   36.7252   41.9621   -0.2020 C   0  0  0  0  0  0  0  0  0  0  0  0
 12 13  1  0
 13 11  1  0
 11 10  1  0
 10  9  1  0
  9  6  1  0
  6  7  1  0
  6  2  1  0
  2  3  2  0
  2  4  1  0
  4  1  1  0
  1 29  1  0
 29 30  1  0
 30 31  2  0
 31 32  1  0
 32 33  2  0
 33 34  1  0
 34 35  2  0
  1 14  1  0
 14 15  2  0
 14 16  1  0
 16 18  1  0
 18 19  1  0
 18 20  1  0
 20 21  1  0
 21 22  1  0
 21 23  1  0
 21 24  1  0
 24 25  1  0
 25 26  1  0
 25 27  1  0
 25 28  1  0
 35 30  1  0
  7  8  1  0
  4  5  1  0
 16 17  1  0
M  CHG 1  21   1
M  CHG 1  25   1
M  END
> <minimizedAffinity>
-7.66375

> <CNNscore>
0.8823268414

> <CNNaffinity>
7.4774780273

> <CNN_VS>
6.5975794792

> <CNNaffinity_variance>
0.0175708700

$$$$



 35 35  0  0  0  0  0  0  0  0999 V2000
   38.3733   38.7627   -3.8585 C   0  0  0  0  0  0  0  0  0  0  0  0
   37.6828   41.1066   -3.4414 C   0  0  0  0  0  0  0  0  0  0  0  0
   38.7599   41.3717   -2.9020 O   0  0  0  0  0  0  0  0  0  0  0  0
   37.5080   39.9223   -4.1353 N   0  0  0  0  0  0  0  0  0  0  0  0
   36.8016   39.8543   -4.8177 H   0  0  0  0  0  0  0  0  0  0  0  0
   36.4883   42.0788   -3.4178 C   0  0  0  0  0  0  0  0  0  0  0  0
   35.5591   42.0828   -4.9966 S   0  0  0  0  0  0  0  0  0  0  0  0
   35.0227   40.8514   -5.2100 H   0  0  0  0  0  0  0  0  0  0  0  0
   35.5811   41.8054   -2.2076 C   0  0  0  0  0  0  0  0  0  0  0  0
   35.7270   42.8047   -1.0512 C   0  0  0  0  0  0  0  0  0  0  0  0
   36.9073   42.4896   -0.1265 C   0  0  0  0  0  0  0  0  0  0  0  0
   37.4572   44.8550   -0.7946 C   0  0  0  0  0  0  0  0  0  0  0  0
   37.8586   43.6704    0.0715 C   0  0  0  0  0  0  0  0  0  0  0  0
   38.3321   37.7685   -5.0412 C   0  0  0  0  0  0  0  0  0  0  0  0
   37.3187   37.5406   -5.7029 O   0  0  0  0  0  0  0  0  0  0  0  0
   39.5415   37.1967   -5.3801 N   0  0  0  0  0  0  0  0  0  0  0  0
   40.3557   37.5118   -4.9250 H   0  0  0  0  0  0  0  0  0  0  0  0
   39.6653   36.1460   -6.3831 C   0  0  0  0  0  0  0  0  0  0  0  0
   41.1438   35.8363   -6.6101 C   0  0  0  0  0  0  0  0  0  0  0  0
   38.8775   34.8516   -5.9844 C   0  0  0  0  0  0  0  0  0  0  0  0
   37.8684   34.2911   -7.0997 N   0  0  0  0  0  0  0  0  0  0  0  0
   36.5401   34.1210   -6.3787 C   0  0  0  0  0  0  0  0  0  0  0  0
   38.3744   32.9264   -7.5419 C   0  0  0  0  0  0  0  0  0  0  0  0
   37.8298   35.3384   -8.2028 C   0  0  0  0  0  0  0  0  0  0  0  0
   36.5439   35.7151   -8.9140 N   0  0  0  0  0  0  0  0  0  0  0  0
   35.3170   35.8412   -8.0450 C   0  0  0  0  0  0  0  0  0  0  0  0
   36.6787   36.9315   -9.8247 C   0  0  0  0  0  0  0  0  0  0  0  0
   36.2760   34.5124   -9.8814 C   0  0  0  0  0  0  0  0  0  0  0  0
   37.9227   38.0512   -2.5727 C   0  0  0  0  0  0  0  0  0  0  0  0
   38.9745   37.1408   -1.9845 C   0  0  0  0  0  0  0  0  0  0  0  0
   40.3206   37.2835   -2.3496 C   0  0  0  0  0  0  0  0  0  0  0  0
   41.2930   36.4375   -1.8127 C   0  0  0  0  0  0  0  0  0  0  0  0
   40.9313   35.4426   -0.9068 C   0  0  0  0  0  0  0  0  0  0  0  0
   39.5966   35.2905   -0.5391 C   0  0  0  0  0  0  0  0  0  0  0  0
   38.6211   36.1320   -1.0775 C   0  0  0  0  0  0  0  0  0  0  0  0
 12 13  1  0
 13 11  1  0
 11 10  1  0
 10  9  1  0
  9  6  1  0
  6  7  1  0
  6  2  1  0
  2  3  2  0
  2  4  1  0
  4  1  1  0
  1 29  1  0
 29 30  1  0
 30 31  2  0
 31 32  1  0
 32 33  2  0
 33 34  1  0
 34 35  2  0
  1 14  1  0
 14 15  2  0
 14 16  1  0
 16 18  1  0
 18 19  1  0
 18 20  1  0
 20 21  1  0
 21 22  1  0
 21 23  1  0
 21 24  1  0
 24 25  1  0
 25 26  1  0
 25 27  1  0
 25 28  1  0
 35 30  1  0
  7  8  1  0
  4  5  1  0
 16 17  1  0
M  CHG 1  21   1
M  CHG 1  25   1
M  END
> <minimizedAffinity>
-6.29852

> <CNNscore>
0.8626338243

> <CNNaffinity>
7.2193789482

> <CNN_VS>
6.2276806831

> <CNNaffinity_variance>
0.0318897031

$$$$



 35 35  0  0  0  0  0  0  0  0999 V2000
   36.4514   41.6203   -3.8171 C   0  0  0  0  0  0  0  0  0  0  0  0
   35.2638   41.5280   -5.9911 C   0  0  0  0  0  0  0  0  0  0  0  0
   35.9180   42.4743   -6.4358 O   0  0  0  0  0  0  0  0  0  0  0  0
   35.6242   40.9091   -4.8070 N   0  0  0  0  0  0  0  0  0  0  0  0
   35.3262   39.9886   -4.6252 H   0  0  0  0  0  0  0  0  0  0  0  0
   34.0438   40.9493   -6.7321 C   0  0  0  0  0  0  0  0  0  0  0  0
   33.8421   41.6604   -8.4082 S   0  0  0  0  0  0  0  0  0  0  0  0
   34.9199   41.3353   -9.1713 H   0  0  0  0  0  0  0  0  0  0  0  0
   34.0906   39.4132   -6.7517 C   0  0  0  0  0  0  0  0  0  0  0  0
   33.0764   38.7472   -7.6925 C   0  0  0  0  0  0  0  0  0  0  0  0
   32.3224   37.5836   -7.0409 C   0  0  0  0  0  0  0  0  0  0  0  0
   30.7910   38.0324   -8.9895 C   0  0  0  0  0  0  0  0  0  0  0  0
   31.1736   37.0468   -7.8955 C   0  0  0  0  0  0  0  0  0  0  0  0
   37.6583   40.7488   -3.4016 C   0  0  0  0  0  0  0  0  0  0  0  0
   38.8079   41.1802   -3.3068 O   0  0  0  0  0  0  0  0  0  0  0  0
   37.3601   39.4476   -3.0518 N   0  0  0  0  0  0  0  0  0  0  0  0
   36.4145   39.1789   -2.9987 H   0  0  0  0  0  0  0  0  0  0  0  0
   38.3853   38.4537   -2.7576 C   0  0  0  0  0  0  0  0  0  0  0  0
   37.9879   37.6739   -1.5056 C   0  0  0  0  0  0  0  0  0  0  0  0
   38.6344   37.4855   -3.9641 C   0  0  0  0  0  0  0  0  0  0  0  0
   40.1753   37.1719   -4.2859 N   0  0  0  0  0  0  0  0  0  0  0  0
   40.5593   36.0581   -3.3240 C   0  0  0  0  0  0  0  0  0  0  0  0
   40.9831   38.4176   -3.9547 C   0  0  0  0  0  0  0  0  0  0  0  0
   40.2280   36.7551   -5.7483 C   0  0  0  0  0  0  0  0  0  0  0  0
   39.2997   35.7011   -6.3215 N   0  0  0  0  0  0  0  0  0  0  0  0
   38.7916   34.6646   -5.3499 C   0  0  0  0  0  0  0  0  0  0  0  0
   38.1465   36.2760   -7.1381 C   0  0  0  0  0  0  0  0  0  0  0  0
   40.1877   34.9335   -7.3590 C   0  0  0  0  0  0  0  0  0  0  0  0
   35.6184   41.9715   -2.5740 C   0  0  0  0  0  0  0  0  0  0  0  0
   36.4058   42.6817   -1.4986 C   0  0  0  0  0  0  0  0  0  0  0  0
   36.7498   42.0150   -0.3142 C   0  0  0  0  0  0  0  0  0  0  0  0
   37.4709   42.6727    0.6843 C   0  0  0  0  0  0  0  0  0  0  0  0
   37.8556   44.0004    0.5097 C   0  0  0  0  0  0  0  0  0  0  0  0
   37.5170   44.6729   -0.6620 C   0  0  0  0  0  0  0  0  0  0  0  0
   36.7921   44.0195   -1.6606 C   0  0  0  0  0  0  0  0  0  0  0  0
 12 13  1  0
 13 11  1  0
 11 10  1  0
 10  9  1  0
  9  6  1  0
  6  7  1  0
  6  2  1  0
  2  3  2  0
  2  4  1  0
  4  1  1  0
  1 29  1  0
 29 30  1  0
 30 31  2  0
 31 32  1  0
 32 33  2  0
 33 34  1  0
 34 35  2  0
  1 14  1  0
 14 15  2  0
 14 16  1  0
 16 18  1  0
 18 19  1  0
 18 20  1  0
 20 21  1  0
 21 22  1  0
 21 23  1  0
 21 24  1  0
 24 25  1  0
 25 26  1  0
 25 27  1  0
 25 28  1  0
 35 30  1  0
  7  8  1  0
  4  5  1  0
 16 17  1  0
M  CHG 1  21   1
M  CHG 1  25   1
M  END
> <minimizedAffinity>
-7.45916

> <CNNscore>
0.8559224010

> <CNNaffinity>
7.4868335724

> <CNN_VS>
6.4081487656

> <CNNaffinity_variance>
0.0766784847

$$$$



 35 35  0  0  0  0  0  0  0  0999 V2000
   36.1833   41.7062   -3.0553 C   0  0  0  0  0  0  0  0  0  0  0  0
   38.1775   40.2599   -3.3320 C   0  0  0  0  0  0  0  0  0  0  0  0
   38.8831   41.2218   -3.6450 O   0  0  0  0  0  0  0  0  0  0  0  0
   36.9099   40.4485   -2.8099 N   0  0  0  0  0  0  0  0  0  0  0  0
   36.4914   39.7383   -2.2716 H   0  0  0  0  0  0  0  0  0  0  0  0
   38.6656   38.8044   -3.4579 C   0  0  0  0  0  0  0  0  0  0  0  0
   37.9718   37.9592   -4.9277 S   0  0  0  0  0  0  0  0  0  0  0  0
   38.4006   38.5863   -6.0557 H   0  0  0  0  0  0  0  0  0  0  0  0
   40.2003   38.7338   -3.4145 C   0  0  0  0  0  0  0  0  0  0  0  0
   40.8297   37.7351   -4.3962 C   0  0  0  0  0  0  0  0  0  0  0  0
   42.3577   37.6765   -4.3007 C   0  0  0  0  0  0  0  0  0  0  0  0
   43.8935   39.2383   -3.0575 C   0  0  0  0  0  0  0  0  0  0  0  0
   42.8994   38.0934   -2.9328 C   0  0  0  0  0  0  0  0  0  0  0  0
   35.9433   41.9000   -4.5697 C   0  0  0  0  0  0  0  0  0  0  0  0
   36.6486   42.6135   -5.2840 O   0  0  0  0  0  0  0  0  0  0  0  0
   34.9216   41.1469   -5.1114 N   0  0  0  0  0  0  0  0  0  0  0  0
   34.4751   40.4796   -4.5417 H   0  0  0  0  0  0  0  0  0  0  0  0
   34.4752   41.2970   -6.4911 C   0  0  0  0  0  0  0  0  0  0  0  0
   34.5856   42.7645   -6.9006 C   0  0  0  0  0  0  0  0  0  0  0  0
   35.2777   40.3796   -7.4758 C   0  0  0  0  0  0  0  0  0  0  0  0
   34.3836   39.4986   -8.4761 N   0  0  0  0  0  0  0  0  0  0  0  0
   33.4268   38.7315   -7.5765 C   0  0  0  0  0  0  0  0  0  0  0  0
   35.3051   38.5136   -9.1794 C   0  0  0  0  0  0  0  0  0  0  0  0
   33.6864   40.4837   -9.4027 C   0  0  0  0  0  0  0  0  0  0  0  0
   32.7264   40.0318  -10.4868 N   0  0  0  0  0  0  0  0  0  0  0  0
   32.7620   40.8171  -11.7746 C   0  0  0  0  0  0  0  0  0  0  0  0
   32.7843   38.5347  -10.7744 C   0  0  0  0  0  0  0  0  0  0  0  0
   31.3084   40.2705   -9.8652 C   0  0  0  0  0  0  0  0  0  0  0  0
   36.9767   42.9013   -2.5032 C   0  0  0  0  0  0  0  0  0  0  0  0
   37.2715   42.8012   -1.0253 C   0  0  0  0  0  0  0  0  0  0  0  0
   36.4553   42.0254   -0.1903 C   0  0  0  0  0  0  0  0  0  0  0  0
   36.7219   41.9382    1.1776 C   0  0  0  0  0  0  0  0  0  0  0  0
   37.8050   42.6235    1.7239 C   0  0  0  0  0  0  0  0  0  0  0  0
   38.6209   43.3992    0.9038 C   0  0  0  0  0  0  0  0  0  0  0  0
   38.3544   43.4919   -0.4637 C   0  0  0  0  0  0  0  0  0  0  0  0
 12 13  1  0
 13 11  1  0
 11 10  1  0
 10  9  1  0
  9  6  1  0
  6  7  1  0
  6  2  1  0
  2  3  2  0
  2  4  1  0
  4  1  1  0
  1 29  1  0
 29 30  1  0
 30 31  2  0
 31 32  1  0
 32 33  2  0
 33 34  1  0
 34 35  2  0
  1 14  1  0
 14 15  2  0
 14 16  1  0
 16 18  1  0
 18 19  1  0
 18 20  1  0
 20 21  1  0
 21 22  1  0
 21 23  1  0
 21 24  1  0
 24 25  1  0
 25 26  1  0
 25 27  1  0
 25 28  1  0
 35 30  1  0
  7  8  1  0
  4  5  1  0
 16 17  1  0
M  CHG 1  21   1
M  CHG 1  25   1
M  END
> <minimizedAffinity>
-7.29748

> <CNNscore>
0.8547320962

> <CNNaffinity>
7.3692154884

> <CNN_VS>
6.2987051010

> <CNNaffinity_variance>
0.3038827479

$$$$



 35 35  0  0  0  0  0  0  0  0999 V2000
   36.0973   41.7892   -2.9821 C   0  0  0  0  0  0  0  0  0  0  0  0
   38.0287   40.2455   -3.1597 C   0  0  0  0  0  0  0  0  0  0  0  0
   38.7742   41.1547   -3.5324 O   0  0  0  0  0  0  0  0  0  0  0  0
   36.7703   40.5206   -2.6542 N   0  0  0  0  0  0  0  0  0  0  0  0
   36.3224   39.8649   -2.0722 H   0  0  0  0  0  0  0  0  0  0  0  0
   38.4551   38.7657   -3.1902 C   0  0  0  0  0  0  0  0  0  0  0  0
   40.2047   38.5526   -3.6894 S   0  0  0  0  0  0  0  0  0  0  0  0
   41.0137   39.1461   -2.7713 H   0  0  0  0  0  0  0  0  0  0  0  0
   38.1418   38.0760   -1.8529 C   0  0  0  0  0  0  0  0  0  0  0  0
   38.5366   36.5940   -1.7815 C   0  0  0  0  0  0  0  0  0  0  0  0
   39.6035   36.3041   -0.7209 C   0  0  0  0  0  0  0  0  0  0  0  0
   38.0685   34.3520   -0.3009 C   0  0  0  0  0  0  0  0  0  0  0  0
   39.4570   34.9287   -0.0689 C   0  0  0  0  0  0  0  0  0  0  0  0
   35.9007   41.9125   -4.5101 C   0  0  0  0  0  0  0  0  0  0  0  0
   36.5862   42.6423   -5.2271 O   0  0  0  0  0  0  0  0  0  0  0  0
   34.9474   41.0776   -5.0566 N   0  0  0  0  0  0  0  0  0  0  0  0
   34.5223   40.4048   -4.4770 H   0  0  0  0  0  0  0  0  0  0  0  0
   34.5427   41.1492   -6.4553 C   0  0  0  0  0  0  0  0  0  0  0  0
   34.5847   42.6040   -6.9192 C   0  0  0  0  0  0  0  0  0  0  0  0
   35.4302   40.2429   -7.3752 C   0  0  0  0  0  0  0  0  0  0  0  0
   34.7385   38.8821   -7.8713 N   0  0  0  0  0  0  0  0  0  0  0  0
   34.4714   39.0941   -9.3534 C   0  0  0  0  0  0  0  0  0  0  0  0
   33.4118   38.7407   -7.1405 C   0  0  0  0  0  0  0  0  0  0  0  0
   35.7374   37.7698   -7.5882 C   0  0  0  0  0  0  0  0  0  0  0  0
   36.0491   36.6867   -8.6035 N   0  0  0  0  0  0  0  0  0  0  0  0
   34.8671   35.9127   -9.1328 C   0  0  0  0  0  0  0  0  0  0  0  0
   36.9348   37.1579   -9.7528 C   0  0  0  0  0  0  0  0  0  0  0  0
   36.9271   35.6604   -7.8098 C   0  0  0  0  0  0  0  0  0  0  0  0
   36.9216   42.9820   -2.4717 C   0  0  0  0  0  0  0  0  0  0  0  0
   37.2771   42.8894   -1.0068 C   0  0  0  0  0  0  0  0  0  0  0  0
   38.4225   43.5297   -0.5132 C   0  0  0  0  0  0  0  0  0  0  0  0
   38.7568   43.4385    0.8394 C   0  0  0  0  0  0  0  0  0  0  0  0
   37.9514   42.7085    1.7111 C   0  0  0  0  0  0  0  0  0  0  0  0
   36.8126   42.0664    1.2308 C   0  0  0  0  0  0  0  0  0  0  0  0
   36.4779   42.1520   -0.1222 C   0  0  0  0  0  0  0  0  0  0  0  0
 12 13  1  0
 13 11  1  0
 11 10  1  0
 10  9  1  0
  9  6  1  0
  6  7  1  0
  6  2  1  0
  2  3  2  0
  2  4  1  0
  4  1  1  0
  1 29  1  0
 29 30  1  0
 30 31  2  0
 31 32  1  0
 32 33  2  0
 33 34  1  0
 34 35  2  0
  1 14  1  0
 14 15  2  0
 14 16  1  0
 16 18  1  0
 18 19  1  0
 18 20  1  0
 20 21  1  0
 21 22  1  0
 21 23  1  0
 21 24  1  0
 24 25  1  0
 25 26  1  0
 25 27  1  0
 25 28  1  0
 35 30  1  0
  7  8  1  0
  4  5  1  0
 16 17  1  0
M  CHG 1  21   1
M  CHG 1  25   1
M  END
> <minimizedAffinity>
-7.19114

> <CNNscore>
0.8424465060

> <CNNaffinity>
7.2418785095

> <CNN_VS>
6.1008954048

> <CNNaffinity_variance>
0.2769342363

$$$$



 35 35  0  0  0  0  0  0  0  0999 V2000
   38.1599   38.6030   -4.1212 C   0  0  0  0  0  0  0  0  0  0  0  0
   37.6747   40.9752   -3.5902 C   0  0  0  0  0  0  0  0  0  0  0  0
   38.8010   41.1428   -3.1162 O   0  0  0  0  0  0  0  0  0  0  0  0
   37.3677   39.8311   -4.3055 N   0  0  0  0  0  0  0  0  0  0  0  0
   36.6158   39.8380   -4.9410 H   0  0  0  0  0  0  0  0  0  0  0  0
   36.5601   42.0301   -3.4585 C   0  0  0  0  0  0  0  0  0  0  0  0
   35.5459   42.1688   -4.9778 S   0  0  0  0  0  0  0  0  0  0  0  0
   34.9070   40.9900   -5.2055 H   0  0  0  0  0  0  0  0  0  0  0  0
   35.7049   41.7728   -2.2077 C   0  0  0  0  0  0  0  0  0  0  0  0
   35.8799   42.8017   -1.0817 C   0  0  0  0  0  0  0  0  0  0  0  0
   37.1407   42.5697   -0.2427 C   0  0  0  0  0  0  0  0  0  0  0  0
   37.4759   45.0022   -0.8032 C   0  0  0  0  0  0  0  0  0  0  0  0
   37.8800   43.8593    0.1160 C   0  0  0  0  0  0  0  0  0  0  0  0
   37.7074   37.5175   -5.1239 C   0  0  0  0  0  0  0  0  0  0  0  0
   36.9439   37.7370   -6.0650 O   0  0  0  0  0  0  0  0  0  0  0  0
   38.2838   36.2749   -4.9559 N   0  0  0  0  0  0  0  0  0  0  0  0
   38.9982   36.1736   -4.2860 H   0  0  0  0  0  0  0  0  0  0  0  0
   37.8804   35.1058   -5.7277 C   0  0  0  0  0  0  0  0  0  0  0  0
   39.1259   34.3546   -6.1945 C   0  0  0  0  0  0  0  0  0  0  0  0
   36.9284   34.1613   -4.9173 C   0  0  0  0  0  0  0  0  0  0  0  0
   35.6330   33.6456   -5.7125 N   0  0  0  0  0  0  0  0  0  0  0  0
   36.0198   32.2759   -6.2485 C   0  0  0  0  0  0  0  0  0  0  0  0
   35.3974   34.5904   -6.8812 C   0  0  0  0  0  0  0  0  0  0  0  0
   34.5005   33.6018   -4.6972 C   0  0  0  0  0  0  0  0  0  0  0  0
   34.4447   32.5620   -3.5941 N   0  0  0  0  0  0  0  0  0  0  0  0
   35.7345   31.8369   -3.2993 C   0  0  0  0  0  0  0  0  0  0  0  0
   33.8118   33.0696   -2.3022 C   0  0  0  0  0  0  0  0  0  0  0  0
   33.4475   31.4825   -4.1369 C   0  0  0  0  0  0  0  0  0  0  0  0
   38.0051   38.0743   -2.6862 C   0  0  0  0  0  0  0  0  0  0  0  0
   39.2013   37.2929   -2.1968 C   0  0  0  0  0  0  0  0  0  0  0  0
   40.4658   37.5020   -2.7651 C   0  0  0  0  0  0  0  0  0  0  0  0
   41.5712   36.7747   -2.3191 C   0  0  0  0  0  0  0  0  0  0  0  0
   41.4249   35.8335   -1.3023 C   0  0  0  0  0  0  0  0  0  0  0  0
   40.1727   35.6161   -0.7325 C   0  0  0  0  0  0  0  0  0  0  0  0
   39.0645   36.3385   -1.1792 C   0  0  0  0  0  0  0  0  0  0  0  0
 12 13  1  0
 13 11  1  0
 11 10  1  0
 10  9  1  0
  9  6  1  0
  6  7  1  0
  6  2  1  0
  2  3  2  0
  2  4  1  0
  4  1  1  0
  1 29  1  0
 29 30  1  0
 30 31  2  0
 31 32  1  0
 32 33  2  0
 33 34  1  0
 34 35  2  0
  1 14  1  0
 14 15  2  0
 14 16  1  0
 16 18  1  0
 18 19  1  0
 18 20  1  0
 20 21  1  0
 21 22  1  0
 21 23  1  0
 21 24  1  0
 24 25  1  0
 25 26  1  0
 25 27  1  0
 25 28  1  0
 35 30  1  0
  7  8  1  0
  4  5  1  0
 16 17  1  0
M  CHG 1  21   1
M  CHG 1  25   1
M  END
> <minimizedAffinity>
-5.93695

> <CNNscore>
0.8226408958

> <CNNaffinity>
6.8069624901

> <CNN_VS>
5.5996856689

> <CNNaffinity_variance>
0.0725387260

$$$$



 35 35  0  0  0  0  0  0  0  0999 V2000
   36.5014   41.6724   -3.2373 C   0  0  0  0  0  0  0  0  0  0  0  0
   35.7763   40.5418   -5.3207 C   0  0  0  0  0  0  0  0  0  0  0  0
   36.6631   39.6909   -5.2168 O   0  0  0  0  0  0  0  0  0  0  0  0
   35.4919   41.4030   -4.2756 N   0  0  0  0  0  0  0  0  0  0  0  0
   34.6101   41.8380   -4.2258 H   0  0  0  0  0  0  0  0  0  0  0  0
   34.9073   40.6760   -6.5854 C   0  0  0  0  0  0  0  0  0  0  0  0
   33.7940   39.2409   -6.8239 S   0  0  0  0  0  0  0  0  0  0  0  0
   32.9183   39.1690   -5.7858 H   0  0  0  0  0  0  0  0  0  0  0  0
   34.1468   42.0116   -6.5903 C   0  0  0  0  0  0  0  0  0  0  0  0
   34.3610   42.8732   -7.8429 C   0  0  0  0  0  0  0  0  0  0  0  0
   33.1561   42.8725   -8.7892 C   0  0  0  0  0  0  0  0  0  0  0  0
   33.0439   42.7470  -11.3022 C   0  0  0  0  0  0  0  0  0  0  0  0
   33.4135   43.6090  -10.1044 C   0  0  0  0  0  0  0  0  0  0  0  0
   37.6449   40.6358   -3.3194 C   0  0  0  0  0  0  0  0  0  0  0  0
   38.7441   40.8744   -3.8208 O   0  0  0  0  0  0  0  0  0  0  0  0
   37.3933   39.4230   -2.7109 N   0  0  0  0  0  0  0  0  0  0  0  0
   36.5619   39.3187   -2.1942 H   0  0  0  0  0  0  0  0  0  0  0  0
   38.3060   38.2897   -2.8004 C   0  0  0  0  0  0  0  0  0  0  0  0
   39.7014   38.7929   -3.1657 C   0  0  0  0  0  0  0  0  0  0  0  0
   38.3420   37.4529   -1.4762 C   0  0  0  0  0  0  0  0  0  0  0  0
   38.8257   35.9311   -1.6387 N   0  0  0  0  0  0  0  0  0  0  0  0
   38.4155   35.5363   -3.0491 C   0  0  0  0  0  0  0  0  0  0  0  0
   38.0504   35.0867   -0.6389 C   0  0  0  0  0  0  0  0  0  0  0  0
   40.3322   35.9388   -1.4252 C   0  0  0  0  0  0  0  0  0  0  0  0
   41.1065   34.6787   -1.0876 N   0  0  0  0  0  0  0  0  0  0  0  0
   40.4939   33.3794   -1.5493 C   0  0  0  0  0  0  0  0  0  0  0  0
   42.5804   34.7402   -1.4760 C   0  0  0  0  0  0  0  0  0  0  0  0
   41.1015   34.6353    0.4783 C   0  0  0  0  0  0  0  0  0  0  0  0
   35.8618   41.6228   -1.8405 C   0  0  0  0  0  0  0  0  0  0  0  0
   36.6691   42.3325   -0.7796 C   0  0  0  0  0  0  0  0  0  0  0  0
   37.1494   43.6304   -1.0037 C   0  0  0  0  0  0  0  0  0  0  0  0
   37.9027   44.2848   -0.0269 C   0  0  0  0  0  0  0  0  0  0  0  0
   38.1826   43.6505    1.1816 C   0  0  0  0  0  0  0  0  0  0  0  0
   37.7125   42.3602    1.4137 C   0  0  0  0  0  0  0  0  0  0  0  0
   36.9627   41.7014    0.4372 C   0  0  0  0  0  0  0  0  0  0  0  0
 12 13  1  0
 13 11  1  0
 11 10  1  0
 10  9  1  0
  9  6  1  0
  6  7  1  0
  6  2  1  0
  2  3  2  0
  2  4  1  0
  4  1  1  0
  1 29  1  0
 29 30  1  0
 30 31  2  0
 31 32  1  0
 32 33  2  0
 33 34  1  0
 34 35  2  0
  1 14  1  0
 14 15  2  0
 14 16  1  0
 16 18  1  0
 18 19  1  0
 18 20  1  0
 20 21  1  0
 21 22  1  0
 21 23  1  0
 21 24  1  0
 24 25  1  0
 25 26  1  0
 25 27  1  0
 25 28  1  0
 35 30  1  0
  7  8  1  0
  4  5  1  0
 16 17  1  0
M  CHG 1  21   1
M  CHG 1  25   1
M  END
> <minimizedAffinity>
-7.13821

> <CNNscore>
0.8066065311

> <CNNaffinity>
7.0744519234

> <CNN_VS>
5.7062993050

> <CNNaffinity_variance>
0.3908151090

$$$$



 35 35  0  0  0  0  0  0  0  0999 V2000
   36.6643   41.5275   -4.1332 C   0  0  0  0  0  0  0  0  0  0  0  0
   35.2104   41.5092   -6.1408 C   0  0  0  0  0  0  0  0  0  0  0  0
   35.4457   42.6974   -6.3732 O   0  0  0  0  0  0  0  0  0  0  0  0
   35.9460   40.8097   -5.2003 N   0  0  0  0  0  0  0  0  0  0  0  0
   35.9895   39.8272   -5.2447 H   0  0  0  0  0  0  0  0  0  0  0  0
   34.1266   40.7202   -6.8994 C   0  0  0  0  0  0  0  0  0  0  0  0
   33.7143   41.4766   -8.5162 S   0  0  0  0  0  0  0  0  0  0  0  0
   34.8111   41.4542   -9.3200 H   0  0  0  0  0  0  0  0  0  0  0  0
   34.5154   39.2391   -7.0304 C   0  0  0  0  0  0  0  0  0  0  0  0
   33.9581   38.5316   -8.2738 C   0  0  0  0  0  0  0  0  0  0  0  0
   32.9527   37.4251   -7.9387 C   0  0  0  0  0  0  0  0  0  0  0  0
   30.7044   36.9519   -8.9707 C   0  0  0  0  0  0  0  0  0  0  0  0
   31.4946   37.8717   -8.0519 C   0  0  0  0  0  0  0  0  0  0  0  0
   37.7938   40.6428   -3.5584 C   0  0  0  0  0  0  0  0  0  0  0  0
   38.8712   41.0883   -3.1616 O   0  0  0  0  0  0  0  0  0  0  0  0
   37.4931   39.3019   -3.4314 N   0  0  0  0  0  0  0  0  0  0  0  0
   36.5737   39.0053   -3.6211 H   0  0  0  0  0  0  0  0  0  0  0  0
   38.4783   38.3059   -3.0282 C   0  0  0  0  0  0  0  0  0  0  0  0
   38.0281   37.6493   -1.7245 C   0  0  0  0  0  0  0  0  0  0  0  0
   38.7220   37.2303   -4.1412 C   0  0  0  0  0  0  0  0  0  0  0  0
   40.2617   36.8970   -4.4485 N   0  0  0  0  0  0  0  0  0  0  0  0
   41.0292   38.1289   -3.9941 C   0  0  0  0  0  0  0  0  0  0  0  0
   40.4131   36.7422   -5.9542 C   0  0  0  0  0  0  0  0  0  0  0  0
   40.5939   35.6463   -3.6482 C   0  0  0  0  0  0  0  0  0  0  0  0
   41.9915   35.3674   -3.1287 N   0  0  0  0  0  0  0  0  0  0  0  0
   43.1280   35.7331   -4.0513 C   0  0  0  0  0  0  0  0  0  0  0  0
   42.2467   35.9132   -1.7272 C   0  0  0  0  0  0  0  0  0  0  0  0
   42.0368   33.8095   -2.9713 C   0  0  0  0  0  0  0  0  0  0  0  0
   35.6967   41.9228   -3.0063 C   0  0  0  0  0  0  0  0  0  0  0  0
   36.3891   42.4384   -1.7671 C   0  0  0  0  0  0  0  0  0  0  0  0
   36.4554   41.6482   -0.6109 C   0  0  0  0  0  0  0  0  0  0  0  0
   37.0883   42.1267    0.5380 C   0  0  0  0  0  0  0  0  0  0  0  0
   37.6609   43.3968    0.5434 C   0  0  0  0  0  0  0  0  0  0  0  0
   37.5986   44.1912   -0.5989 C   0  0  0  0  0  0  0  0  0  0  0  0
   36.9625   43.7174   -1.7482 C   0  0  0  0  0  0  0  0  0  0  0  0
 12 13  1  0
 13 11  1  0
 11 10  1  0
 10  9  1  0
  9  6  1  0
  6  7  1  0
  6  2  1  0
  2  3  2  0
  2  4  1  0
  4  1  1  0
  1 29  1  0
 29 30  1  0
 30 31  2  0
 31 32  1  0
 32 33  2  0
 33 34  1  0
 34 35  2  0
  1 14  1  0
 14 15  2  0
 14 16  1  0
 16 18  1  0
 18 19  1  0
 18 20  1  0
 20 21  1  0
 21 22  1  0
 21 23  1  0
 21 24  1  0
 24 25  1  0
 25 26  1  0
 25 27  1  0
 25 28  1  0
 35 30  1  0
  7  8  1  0
  4  5  1  0
 16 17  1  0
M  CHG 1  21   1
M  CHG 1  25   1
M  END
> <minimizedAffinity>
-6.86584

> <CNNscore>
0.8032972217

> <CNNaffinity>
7.4841790199

> <CNN_VS>
6.0120201111

> <CNNaffinity_variance>
0.1929969192

$$$$



 35 35  0  0  0  0  0  0  0  0999 V2000
   36.1377   41.7431   -2.9665 C   0  0  0  0  0  0  0  0  0  0  0  0
   38.0757   40.2129   -3.1840 C   0  0  0  0  0  0  0  0  0  0  0  0
   38.8157   41.1334   -3.5392 O   0  0  0  0  0  0  0  0  0  0  0  0
   36.8177   40.4709   -2.6685 N   0  0  0  0  0  0  0  0  0  0  0  0
   36.3748   39.8005   -2.0995 H   0  0  0  0  0  0  0  0  0  0  0  0
   38.5089   38.7361   -3.2480 C   0  0  0  0  0  0  0  0  0  0  0  0
   40.2611   38.5426   -3.7464 S   0  0  0  0  0  0  0  0  0  0  0  0
   41.0643   39.1179   -2.8118 H   0  0  0  0  0  0  0  0  0  0  0  0
   38.1944   38.0135   -1.9286 C   0  0  0  0  0  0  0  0  0  0  0  0
   38.7355   36.5800   -1.8313 C   0  0  0  0  0  0  0  0  0  0  0  0
   39.6671   36.3665   -0.6339 C   0  0  0  0  0  0  0  0  0  0  0  0
   38.1301   34.4023   -0.2833 C   0  0  0  0  0  0  0  0  0  0  0  0
   39.4867   35.0079    0.0442 C   0  0  0  0  0  0  0  0  0  0  0  0
   35.9226   41.8922   -4.4897 C   0  0  0  0  0  0  0  0  0  0  0  0
   36.6116   42.6198   -5.2057 O   0  0  0  0  0  0  0  0  0  0  0  0
   34.9468   41.0828   -5.0348 N   0  0  0  0  0  0  0  0  0  0  0  0
   34.5174   40.4095   -4.4590 H   0  0  0  0  0  0  0  0  0  0  0  0
   34.5245   41.1820   -6.4266 C   0  0  0  0  0  0  0  0  0  0  0  0
   34.5867   42.6425   -6.8701 C   0  0  0  0  0  0  0  0  0  0  0  0
   35.3828   40.2734   -7.3716 C   0  0  0  0  0  0  0  0  0  0  0  0
   34.6122   39.0118   -7.9967 N   0  0  0  0  0  0  0  0  0  0  0  0
   33.3766   38.8352   -7.1276 C   0  0  0  0  0  0  0  0  0  0  0  0
   35.5099   37.7937   -7.8408 C   0  0  0  0  0  0  0  0  0  0  0  0
   34.2921   39.3804   -9.4378 C   0  0  0  0  0  0  0  0  0  0  0  0
   32.8795   39.6860   -9.8986 N   0  0  0  0  0  0  0  0  0  0  0  0
   31.8251   38.6746   -9.5223 C   0  0  0  0  0  0  0  0  0  0  0  0
   32.4118   41.0964   -9.5534 C   0  0  0  0  0  0  0  0  0  0  0  0
   32.9741   39.6617  -11.4621 C   0  0  0  0  0  0  0  0  0  0  0  0
   36.9650   42.9292   -2.4454 C   0  0  0  0  0  0  0  0  0  0  0  0
   37.2814   42.8452   -0.9710 C   0  0  0  0  0  0  0  0  0  0  0  0
   38.3924   43.5190   -0.4446 C   0  0  0  0  0  0  0  0  0  0  0  0
   38.6907   43.4359    0.9170 C   0  0  0  0  0  0  0  0  0  0  0  0
   37.8832   42.6806    1.7648 C   0  0  0  0  0  0  0  0  0  0  0  0
   36.7785   42.0052    1.2518 C   0  0  0  0  0  0  0  0  0  0  0  0
   36.4800   42.0827   -0.1100 C   0  0  0  0  0  0  0  0  0  0  0  0
 12 13  1  0
 13 11  1  0
 11 10  1  0
 10  9  1  0
  9  6  1  0
  6  7  1  0
  6  2  1  0
  2  3  2  0
  2  4  1  0
  4  1  1  0
  1 29  1  0
 29 30  1  0
 30 31  2  0
 31 32  1  0
 32 33  2  0
 33 34  1  0
 34 35  2  0
  1 14  1  0
 14 15  2  0
 14 16  1  0
 16 18  1  0
 18 19  1  0
 18 20  1  0
 20 21  1  0
 21 22  1  0
 21 23  1  0
 21 24  1  0
 24 25  1  0
 25 26  1  0
 25 27  1  0
 25 28  1  0
 35 30  1  0
  7  8  1  0
  4  5  1  0
 16 17  1  0
M  CHG 1  21   1
M  CHG 1  25   1
M  END
> <minimizedAffinity>
-7.31966

> <CNNscore>
0.7732210159

> <CNNaffinity>
7.1258521080

> <CNN_VS>
5.5098586082

> <CNNaffinity_variance>
0.4078075588

$$$$
