


 32 35  0  0  0  0  0  0  0  0999 V2000
  -17.8541  -33.1217    3.4739 C   0  0  0  0  0  0  0  0  0  0  0  0
  -16.8188  -32.0697    3.2160 C   0  0  0  0  0  0  0  0  0  0  0  0
  -16.3714  -31.9910    1.9571 C   0  0  0  0  0  0  0  0  0  0  0  0
  -15.4192  -31.0506    1.5971 O   0  0  0  0  0  0  0  0  0  0  0  0
  -16.8658  -32.8712    0.9859 N   0  0  0  0  0  0  0  0  0  0  0  0
  -16.5152  -32.9073   -0.3277 N   0  0  0  0  0  0  0  0  0  0  0  0
  -17.2215  -33.9273   -0.8160 C   0  0  0  0  0  0  0  0  0  0  0  0
  -18.0618  -34.5425    0.1400 C   0  0  0  0  0  0  0  0  0  0  0  0
  -17.8184  -33.8365    1.3059 C   0  0  0  0  0  0  0  0  0  0  0  0
  -18.3240  -33.9398    2.5727 N   0  0  0  0  0  0  0  0  0  0  0  0
  -15.0814  -30.4568    2.2383 H   0  0  0  0  0  0  0  0  0  0  0  0
  -18.9617  -35.6771   -0.0130 C   0  0  0  0  0  0  0  0  0  0  0  0
  -19.1337  -36.2194   -1.0971 O   0  0  0  0  0  0  0  0  0  0  0  0
  -19.5732  -36.0534    1.1741 N   0  0  0  0  0  0  0  0  0  0  0  0
  -19.3112  -35.5488    1.9778 H   0  0  0  0  0  0  0  0  0  0  0  0
  -20.5279  -37.0764    1.3629 C   0  0  0  0  0  0  0  0  0  0  0  0
  -20.9069  -37.8063    0.2251 C   0  0  0  0  0  0  0  0  0  0  0  0
  -21.8423  -38.8398    0.3191 C   0  0  0  0  0  0  0  0  0  0  0  0
  -22.4014  -39.1497    1.5527 C   0  0  0  0  0  0  0  0  0  0  0  0
  -23.2966  -40.1456    1.6219 F   0  0  0  0  0  0  0  0  0  0  0  0
  -22.0335  -38.4379    2.6906 C   0  0  0  0  0  0  0  0  0  0  0  0
  -22.7224  -38.8254    4.2212 Cl  0  0  0  0  0  0  0  0  0  0  0  0
  -21.0971  -37.4027    2.5984 C   0  0  0  0  0  0  0  0  0  0  0  0
  -18.3738  -33.2400    4.8969 C   0  0  0  0  0  0  0  0  0  0  0  0
  -19.3746  -37.3144    5.9275 C   0  0  0  0  0  0  0  0  0  0  0  0
  -18.0478  -36.9586    5.6713 C   0  0  0  0  0  0  0  0  0  0  0  0
  -17.7291  -35.6410    5.3349 C   0  0  0  0  0  0  0  0  0  0  0  0
  -18.7320  -34.6636    5.2521 C   0  0  0  0  0  0  0  0  0  0  0  0
  -20.0605  -35.0269    5.5093 C   0  0  0  0  0  0  0  0  0  0  0  0
  -20.3799  -36.3454    5.8452 C   0  0  0  0  0  0  0  0  0  0  0  0
  -19.9787  -39.7576    6.5562 N   0  0  0  0  0  0  0  0  0  0  0  0
  -19.7050  -38.6656    6.2736 C   0  0  0  0  0  0  0  0  0  0  0  0
 31 32  3  0
 32 25  1  0
 25 26  2  0
 26 27  1  0
 27 28  2  0
 28 24  1  0
 24  1  1  0
  1  2  1  0
  2  3  2  0
  3  4  1  0
  3  5  1  0
  5  6  1  0
  6  7  2  0
  7  8  1  0
  8 12  1  0
 12 13  2  0
 12 14  1  0
 14 16  1  0
 16 17  2  0
 17 18  1  0
 18 19  2  0
 19 20  1  0
 19 21  1  0
 21 22  1  0
 21 23  2  0
  8  9  2  0
  9 10  1  0
 28 29  1  0
 29 30  2  0
 30 25  1  0
 10  1  2  0
  9  5  1  0
 23 16  1  0
  4 11  1  0
 14 15  1  0
M  END
> <minimizedAffinity>
-10.80764

> <CNNscore>
0.9657949805

> <CNNaffinity>
8.6923141479

> <CNN_VS>
8.3949937820

> <CNNaffinity_variance>
0.2302001715

$$$$



 32 35  0  0  0  0  0  0  0  0999 V2000
  -18.3162  -35.1861   -0.6784 C   0  0  0  0  0  0  0  0  0  0  0  0
  -17.4518  -34.3423   -1.5650 C   0  0  0  0  0  0  0  0  0  0  0  0
  -16.7940  -33.3470   -0.9583 C   0  0  0  0  0  0  0  0  0  0  0  0
  -15.9576  -32.5055   -1.6746 O   0  0  0  0  0  0  0  0  0  0  0  0
  -16.9519  -33.1454    0.4188 N   0  0  0  0  0  0  0  0  0  0  0  0
  -16.3476  -32.1872    1.1714 N   0  0  0  0  0  0  0  0  0  0  0  0
  -16.8439  -32.3843    2.3931 C   0  0  0  0  0  0  0  0  0  0  0  0
  -17.7354  -33.4786    2.4718 C   0  0  0  0  0  0  0  0  0  0  0  0
  -17.7882  -33.9633    1.1759 C   0  0  0  0  0  0  0  0  0  0  0  0
  -18.4622  -35.0083    0.6058 N   0  0  0  0  0  0  0  0  0  0  0  0
  -15.8443  -32.6310   -2.5962 H   0  0  0  0  0  0  0  0  0  0  0  0
  -18.4746  -33.9893    3.6178 C   0  0  0  0  0  0  0  0  0  0  0  0
  -18.9084  -33.2438    4.4868 O   0  0  0  0  0  0  0  0  0  0  0  0
  -18.6220  -35.3687    3.6022 N   0  0  0  0  0  0  0  0  0  0  0  0
  -18.2523  -35.8372    2.8193 H   0  0  0  0  0  0  0  0  0  0  0  0
  -19.2410  -36.1783    4.5795 C   0  0  0  0  0  0  0  0  0  0  0  0
  -18.3931  -36.8557    5.4700 C   0  0  0  0  0  0  0  0  0  0  0  0
  -18.9186  -37.6753    6.4719 C   0  0  0  0  0  0  0  0  0  0  0  0
  -20.2955  -37.8192    6.5894 C   0  0  0  0  0  0  0  0  0  0  0  0
  -20.7798  -38.6097    7.5582 F   0  0  0  0  0  0  0  0  0  0  0  0
  -21.1495  -37.1515    5.7168 C   0  0  0  0  0  0  0  0  0  0  0  0
  -22.8570  -37.3253    5.8655 Cl  0  0  0  0  0  0  0  0  0  0  0  0
  -20.6253  -36.3305    4.7128 C   0  0  0  0  0  0  0  0  0  0  0  0
  -19.0822  -36.3184   -1.3419 C   0  0  0  0  0  0  0  0  0  0  0  0
  -21.9815  -38.0792    1.3336 C   0  0  0  0  0  0  0  0  0  0  0  0
  -21.5237  -36.7769    1.5501 C   0  0  0  0  0  0  0  0  0  0  0  0
  -20.5835  -36.2127    0.6848 C   0  0  0  0  0  0  0  0  0  0  0  0
  -20.0914  -36.9426   -0.4075 C   0  0  0  0  0  0  0  0  0  0  0  0
  -20.5538  -38.2482   -0.6186 C   0  0  0  0  0  0  0  0  0  0  0  0
  -21.4939  -38.8134    0.2475 C   0  0  0  0  0  0  0  0  0  0  0  0
  -23.7234  -39.1323    2.9418 N   0  0  0  0  0  0  0  0  0  0  0  0
  -22.9467  -38.6609    2.2195 C   0  0  0  0  0  0  0  0  0  0  0  0
 31 32  3  0
 32 25  1  0
 25 26  2  0
 26 27  1  0
 27 28  2  0
 28 24  1  0
 24  1  1  0
  1  2  1  0
  2  3  2  0
  3  4  1  0
  3  5  1  0
  5  6  1  0
  6  7  2  0
  7  8  1  0
  8 12  1  0
 12 13  2  0
 12 14  1  0
 14 16  1  0
 16 17  2  0
 17 18  1  0
 18 19  2  0
 19 20  1  0
 19 21  1  0
 21 22  1  0
 21 23  2  0
  8  9  2  0
  9 10  1  0
 28 29  1  0
 29 30  2  0
 30 25  1  0
 10  1  2  0
  9  5  1  0
 23 16  1  0
  4 11  1  0
 14 15  1  0
M  END
> <minimizedAffinity>
-10.10604

> <CNNscore>
0.8682391644

> <CNNaffinity>
8.1109008789

> <CNN_VS>
7.0422019958

> <CNNaffinity_variance>
0.1035836935

$$$$



 32 35  0  0  0  0  0  0  0  0999 V2000
  -18.2778  -35.2100   -0.7726 C   0  0  0  0  0  0  0  0  0  0  0  0
  -17.4194  -34.3972   -1.6934 C   0  0  0  0  0  0  0  0  0  0  0  0
  -16.7567  -33.3826   -1.1255 C   0  0  0  0  0  0  0  0  0  0  0  0
  -15.9251  -32.5663   -1.8757 O   0  0  0  0  0  0  0  0  0  0  0  0
  -16.9045  -33.1345    0.2453 N   0  0  0  0  0  0  0  0  0  0  0  0
  -16.2942  -32.1519    0.9606 N   0  0  0  0  0  0  0  0  0  0  0  0
  -16.7817  -32.3074    2.1919 C   0  0  0  0  0  0  0  0  0  0  0  0
  -17.6732  -33.3977    2.3139 C   0  0  0  0  0  0  0  0  0  0  0  0
  -17.7357  -33.9258    1.0355 C   0  0  0  0  0  0  0  0  0  0  0  0
  -18.4144  -34.9889    0.5059 N   0  0  0  0  0  0  0  0  0  0  0  0
  -15.8187  -32.7229   -2.7934 H   0  0  0  0  0  0  0  0  0  0  0  0
  -18.4042  -33.8689    3.4818 C   0  0  0  0  0  0  0  0  0  0  0  0
  -19.5792  -34.2058    3.4118 O   0  0  0  0  0  0  0  0  0  0  0  0
  -17.6349  -33.8899    4.6361 N   0  0  0  0  0  0  0  0  0  0  0  0
  -16.6918  -33.6256    4.5356 H   0  0  0  0  0  0  0  0  0  0  0  0
  -18.0480  -34.2464    5.9384 C   0  0  0  0  0  0  0  0  0  0  0  0
  -18.2987  -35.6078    6.1724 C   0  0  0  0  0  0  0  0  0  0  0  0
  -18.7073  -36.0518    7.4325 C   0  0  0  0  0  0  0  0  0  0  0  0
  -18.8645  -35.1361    8.4654 C   0  0  0  0  0  0  0  0  0  0  0  0
  -19.2564  -35.5826    9.6676 F   0  0  0  0  0  0  0  0  0  0  0  0
  -18.6163  -33.7837    8.2505 C   0  0  0  0  0  0  0  0  0  0  0  0
  -18.8058  -32.6487    9.5325 Cl  0  0  0  0  0  0  0  0  0  0  0  0
  -18.2073  -33.3372    6.9895 C   0  0  0  0  0  0  0  0  0  0  0  0
  -19.0492  -36.3635   -1.3919 C   0  0  0  0  0  0  0  0  0  0  0  0
  -21.9182  -38.0400    1.3689 C   0  0  0  0  0  0  0  0  0  0  0  0
  -21.3967  -36.7619    1.5854 C   0  0  0  0  0  0  0  0  0  0  0  0
  -20.4666  -36.2251    0.6924 C   0  0  0  0  0  0  0  0  0  0  0  0
  -20.0482  -36.9584   -0.4280 C   0  0  0  0  0  0  0  0  0  0  0  0
  -20.5742  -38.2398   -0.6390 C   0  0  0  0  0  0  0  0  0  0  0  0
  -21.5043  -38.7776    0.2549 C   0  0  0  0  0  0  0  0  0  0  0  0
  -23.6461  -39.0363    3.0276 N   0  0  0  0  0  0  0  0  0  0  0  0
  -22.8734  -38.5937    2.2832 C   0  0  0  0  0  0  0  0  0  0  0  0
 31 32  3  0
 32 25  1  0
 25 26  2  0
 26 27  1  0
 27 28  2  0
 28 24  1  0
 24  1  1  0
  1  2  1  0
  2  3  2  0
  3  4  1  0
  3  5  1  0
  5  6  1  0
  6  7  2  0
  7  8  1  0
  8 12  1  0
 12 13  2  0
 12 14  1  0
 14 16  1  0
 16 17  2  0
 17 18  1  0
 18 19  2  0
 19 20  1  0
 19 21  1  0
 21 22  1  0
 21 23  2  0
  8  9  2  0
  9 10  1  0
 28 29  1  0
 29 30  2  0
 30 25  1  0
 10  1  2  0
  9  5  1  0
 23 16  1  0
  4 11  1  0
 14 15  1  0
M  END
> <minimizedAffinity>
-9.92511

> <CNNscore>
0.8317883015

> <CNNaffinity>
7.8272309303

> <CNN_VS>
6.5105991364

> <CNNaffinity_variance>
0.1256912798

$$$$



 32 35  0  0  0  0  0  0  0  0999 V2000
  -18.3809  -35.1707   -0.1986 C   0  0  0  0  0  0  0  0  0  0  0  0
  -17.7194  -34.4453   -1.3305 C   0  0  0  0  0  0  0  0  0  0  0  0
  -16.9694  -33.3917   -0.9862 C   0  0  0  0  0  0  0  0  0  0  0  0
  -16.3018  -32.6483   -1.9466 O   0  0  0  0  0  0  0  0  0  0  0  0
  -16.8565  -33.0279    0.3618 N   0  0  0  0  0  0  0  0  0  0  0  0
  -16.1297  -31.9934    0.8631 N   0  0  0  0  0  0  0  0  0  0  0  0
  -16.3735  -32.0407    2.1731 C   0  0  0  0  0  0  0  0  0  0  0  0
  -17.2168  -33.1097    2.5534 C   0  0  0  0  0  0  0  0  0  0  0  0
  -17.5163  -33.7431    1.3592 C   0  0  0  0  0  0  0  0  0  0  0  0
  -18.2744  -34.8416    1.0594 N   0  0  0  0  0  0  0  0  0  0  0  0
  -16.3701  -32.8824   -2.8513 H   0  0  0  0  0  0  0  0  0  0  0  0
  -17.7092  -33.4750    3.8742 C   0  0  0  0  0  0  0  0  0  0  0  0
  -18.8790  -33.7841    4.0612 O   0  0  0  0  0  0  0  0  0  0  0  0
  -16.7278  -33.4331    4.8540 N   0  0  0  0  0  0  0  0  0  0  0  0
  -15.8199  -33.2024    4.5512 H   0  0  0  0  0  0  0  0  0  0  0  0
  -16.8807  -33.6829    6.2353 C   0  0  0  0  0  0  0  0  0  0  0  0
  -17.8648  -32.9410    6.9076 C   0  0  0  0  0  0  0  0  0  0  0  0
  -18.0884  -33.1258    8.2743 C   0  0  0  0  0  0  0  0  0  0  0  0
  -17.3301  -34.0558    8.9745 C   0  0  0  0  0  0  0  0  0  0  0  0
  -17.5609  -34.2189   10.2853 F   0  0  0  0  0  0  0  0  0  0  0  0
  -16.3533  -34.8017    8.3217 C   0  0  0  0  0  0  0  0  0  0  0  0
  -15.4165  -35.9589    9.1884 Cl  0  0  0  0  0  0  0  0  0  0  0  0
  -16.1278  -34.6180    6.9534 C   0  0  0  0  0  0  0  0  0  0  0  0
  -19.2464  -36.3661   -0.5609 C   0  0  0  0  0  0  0  0  0  0  0  0
  -21.3754  -37.8910    2.8750 C   0  0  0  0  0  0  0  0  0  0  0  0
  -20.0553  -37.4512    3.0031 C   0  0  0  0  0  0  0  0  0  0  0  0
  -19.3694  -36.9623    1.8890 C   0  0  0  0  0  0  0  0  0  0  0  0
  -19.9951  -36.9058    0.6346 C   0  0  0  0  0  0  0  0  0  0  0  0
  -21.3186  -37.3491    0.5126 C   0  0  0  0  0  0  0  0  0  0  0  0
  -22.0050  -37.8391    1.6271 C   0  0  0  0  0  0  0  0  0  0  0  0
  -22.6513  -38.7945    4.9451 N   0  0  0  0  0  0  0  0  0  0  0  0
  -22.0824  -38.3928    4.0167 C   0  0  0  0  0  0  0  0  0  0  0  0
 31 32  3  0
 32 25  1  0
 25 26  2  0
 26 27  1  0
 27 28  2  0
 28 24  1  0
 24  1  1  0
  1  2  1  0
  2  3  2  0
  3  4  1  0
  3  5  1  0
  5  6  1  0
  6  7  2  0
  7  8  1  0
  8 12  1  0
 12 13  2  0
 12 14  1  0
 14 16  1  0
 16 17  2  0
 17 18  1  0
 18 19  2  0
 19 20  1  0
 19 21  1  0
 21 22  1  0
 21 23  2  0
  8  9  2  0
  9 10  1  0
 28 29  1  0
 29 30  2  0
 30 25  1  0
 10  1  2  0
  9  5  1  0
 23 16  1  0
  4 11  1  0
 14 15  1  0
M  END
> <minimizedAffinity>
-9.95628

> <CNNscore>
0.7317273617

> <CNNaffinity>
7.7443199158

> <CNN_VS>
5.6667308807

> <CNNaffinity_variance>
0.0889085159

$$$$



 32 35  0  0  0  0  0  0  0  0999 V2000
  -18.3736  -34.8081    0.3366 C   0  0  0  0  0  0  0  0  0  0  0  0
  -17.6011  -34.2336   -0.8116 C   0  0  0  0  0  0  0  0  0  0  0  0
  -16.7994  -33.2038   -0.5152 C   0  0  0  0  0  0  0  0  0  0  0  0
  -16.0292  -32.5961   -1.4941 O   0  0  0  0  0  0  0  0  0  0  0  0
  -16.7363  -32.7263    0.8002 N   0  0  0  0  0  0  0  0  0  0  0  0
  -15.9677  -31.6996    1.2528 N   0  0  0  0  0  0  0  0  0  0  0  0
  -16.2866  -31.6110    2.5444 C   0  0  0  0  0  0  0  0  0  0  0  0
  -17.2224  -32.5839    2.9641 C   0  0  0  0  0  0  0  0  0  0  0  0
  -17.4988  -33.3031    1.8138 C   0  0  0  0  0  0  0  0  0  0  0  0
  -18.3142  -34.3730    1.5651 N   0  0  0  0  0  0  0  0  0  0  0  0
  -16.0633  -32.9071   -2.3774 H   0  0  0  0  0  0  0  0  0  0  0  0
  -17.8117  -32.7942    4.2791 C   0  0  0  0  0  0  0  0  0  0  0  0
  -18.4902  -31.9332    4.8244 O   0  0  0  0  0  0  0  0  0  0  0  0
  -17.5226  -34.0410    4.8143 N   0  0  0  0  0  0  0  0  0  0  0  0
  -16.9945  -34.6470    4.2458 H   0  0  0  0  0  0  0  0  0  0  0  0
  -17.8982  -34.5415    6.0800 C   0  0  0  0  0  0  0  0  0  0  0  0
  -16.9614  -34.4077    7.1170 C   0  0  0  0  0  0  0  0  0  0  0  0
  -17.2497  -34.8705    8.4033 C   0  0  0  0  0  0  0  0  0  0  0  0
  -18.4780  -35.4671    8.6590 C   0  0  0  0  0  0  0  0  0  0  0  0
  -18.7357  -35.9038    9.9004 F   0  0  0  0  0  0  0  0  0  0  0  0
  -19.4189  -35.6038    7.6427 C   0  0  0  0  0  0  0  0  0  0  0  0
  -20.9443  -36.3386    7.9606 Cl  0  0  0  0  0  0  0  0  0  0  0  0
  -19.1320  -35.1412    6.3541 C   0  0  0  0  0  0  0  0  0  0  0  0
  -19.2992  -35.9730    0.0276 C   0  0  0  0  0  0  0  0  0  0  0  0
  -21.5879  -37.2041    3.4787 C   0  0  0  0  0  0  0  0  0  0  0  0
  -21.5738  -37.9930    2.3255 C   0  0  0  0  0  0  0  0  0  0  0  0
  -20.8355  -37.5895    1.2106 C   0  0  0  0  0  0  0  0  0  0  0  0
  -20.1016  -36.3941    1.2359 C   0  0  0  0  0  0  0  0  0  0  0  0
  -20.1206  -35.6072    2.3950 C   0  0  0  0  0  0  0  0  0  0  0  0
  -20.8599  -36.0103    3.5104 C   0  0  0  0  0  0  0  0  0  0  0  0
  -22.9622  -37.9455    5.5503 N   0  0  0  0  0  0  0  0  0  0  0  0
  -22.3442  -37.6157    4.6248 C   0  0  0  0  0  0  0  0  0  0  0  0
 31 32  3  0
 32 25  1  0
 25 26  2  0
 26 27  1  0
 27 28  2  0
 28 24  1  0
 24  1  1  0
  1  2  1  0
  2  3  2  0
  3  4  1  0
  3  5  1  0
  5  6  1  0
  6  7  2  0
  7  8  1  0
  8 12  1  0
 12 13  2  0
 12 14  1  0
 14 16  1  0
 16 17  2  0
 17 18  1  0
 18 19  2  0
 19 20  1  0
 19 21  1  0
 21 22  1  0
 21 23  2  0
  8  9  2  0
  9 10  1  0
 28 29  1  0
 29 30  2  0
 30 25  1  0
 10  1  2  0
  9  5  1  0
 23 16  1  0
  4 11  1  0
 14 15  1  0
M  END
> <minimizedAffinity>
-9.81219

> <CNNscore>
0.6478978395

> <CNNaffinity>
7.7414975166

> <CNN_VS>
5.0156993866

> <CNNaffinity_variance>
0.1532463580

$$$$



 32 35  0  0  0  0  0  0  0  0999 V2000
  -18.1763  -33.8740    0.8259 C   0  0  0  0  0  0  0  0  0  0  0  0
  -17.1258  -32.8394    0.5589 C   0  0  0  0  0  0  0  0  0  0  0  0
  -16.5092  -32.3452    1.6391 C   0  0  0  0  0  0  0  0  0  0  0  0
  -15.5139  -31.3887    1.5158 O   0  0  0  0  0  0  0  0  0  0  0  0
  -16.8731  -32.7940    2.9152 N   0  0  0  0  0  0  0  0  0  0  0  0
  -16.3352  -32.3934    4.0983 N   0  0  0  0  0  0  0  0  0  0  0  0
  -17.0339  -33.0711    5.0095 C   0  0  0  0  0  0  0  0  0  0  0  0
  -17.9977  -33.9414    4.4508 C   0  0  0  0  0  0  0  0  0  0  0  0
  -17.8734  -33.7491    3.0853 C   0  0  0  0  0  0  0  0  0  0  0  0
  -18.5151  -34.3017    2.0110 N   0  0  0  0  0  0  0  0  0  0  0  0
  -15.2624  -31.0811    0.6672 H   0  0  0  0  0  0  0  0  0  0  0  0
  -18.9443  -34.8242    5.1180 C   0  0  0  0  0  0  0  0  0  0  0  0
  -19.6020  -34.4513    6.0810 O   0  0  0  0  0  0  0  0  0  0  0  0
  -19.0075  -36.0879    4.5489 N   0  0  0  0  0  0  0  0  0  0  0  0
  -18.4469  -36.2355    3.7532 H   0  0  0  0  0  0  0  0  0  0  0  0
  -19.7829  -37.1867    4.9789 C   0  0  0  0  0  0  0  0  0  0  0  0
  -19.1731  -38.0803    5.8736 C   0  0  0  0  0  0  0  0  0  0  0  0
  -19.8672  -39.1931    6.3550 C   0  0  0  0  0  0  0  0  0  0  0  0
  -21.1759  -39.4161    5.9454 C   0  0  0  0  0  0  0  0  0  0  0  0
  -21.8250  -40.4893    6.4196 F   0  0  0  0  0  0  0  0  0  0  0  0
  -21.7957  -38.5376    5.0617 C   0  0  0  0  0  0  0  0  0  0  0  0
  -23.4203  -38.8106    4.5578 Cl  0  0  0  0  0  0  0  0  0  0  0  0
  -21.1024  -37.4228    4.5785 C   0  0  0  0  0  0  0  0  0  0  0  0
  -18.8995  -34.4464   -0.3818 C   0  0  0  0  0  0  0  0  0  0  0  0
  -21.2855  -37.8988    0.6439 C   0  0  0  0  0  0  0  0  0  0  0  0
  -20.4225  -37.9406   -0.4543 C   0  0  0  0  0  0  0  0  0  0  0  0
  -19.6556  -36.8210   -0.7846 C   0  0  0  0  0  0  0  0  0  0  0  0
  -19.7410  -35.6475   -0.0206 C   0  0  0  0  0  0  0  0  0  0  0  0
  -20.6089  -35.6117    1.0787 C   0  0  0  0  0  0  0  0  0  0  0  0
  -21.3770  -36.7316    1.4090 C   0  0  0  0  0  0  0  0  0  0  0  0
  -22.7126  -39.9769    1.2560 N   0  0  0  0  0  0  0  0  0  0  0  0
  -22.0736  -39.0463    0.9859 C   0  0  0  0  0  0  0  0  0  0  0  0
 31 32  3  0
 32 25  1  0
 25 26  2  0
 26 27  1  0
 27 28  2  0
 28 24  1  0
 24  1  1  0
  1  2  1  0
  2  3  2  0
  3  4  1  0
  3  5  1  0
  5  6  1  0
  6  7  2  0
  7  8  1  0
  8 12  1  0
 12 13  2  0
 12 14  1  0
 14 16  1  0
 16 17  2  0
 17 18  1  0
 18 19  2  0
 19 20  1  0
 19 21  1  0
 21 22  1  0
 21 23  2  0
  8  9  2  0
  9 10  1  0
 28 29  1  0
 29 30  2  0
 30 25  1  0
 10  1  2  0
  9  5  1  0
 23 16  1  0
  4 11  1  0
 14 15  1  0
M  END
> <minimizedAffinity>
-10.30054

> <CNNscore>
0.6397360563

> <CNNaffinity>
7.7456474304

> <CNN_VS>
4.9551701546

> <CNNaffinity_variance>
0.0246005226

$$$$



 32 35  0  0  0  0  0  0  0  0999 V2000
  -17.9310  -34.0401    0.8583 C   0  0  0  0  0  0  0  0  0  0  0  0
  -17.0105  -32.8779    0.6412 C   0  0  0  0  0  0  0  0  0  0  0  0
  -16.7352  -32.1441    1.7261 C   0  0  0  0  0  0  0  0  0  0  0  0
  -15.8891  -31.0492    1.6495 O   0  0  0  0  0  0  0  0  0  0  0  0
  -17.3103  -32.4801    2.9585 N   0  0  0  0  0  0  0  0  0  0  0  0
  -17.1205  -31.8382    4.1423 N   0  0  0  0  0  0  0  0  0  0  0  0
  -17.9012  -32.5051    4.9928 C   0  0  0  0  0  0  0  0  0  0  0  0
  -18.5744  -33.5996    4.4035 C   0  0  0  0  0  0  0  0  0  0  0  0
  -18.1720  -33.5684    3.0790 C   0  0  0  0  0  0  0  0  0  0  0  0
  -18.4643  -34.3628    2.0044 N   0  0  0  0  0  0  0  0  0  0  0  0
  -15.4988  -30.8151    0.8304 H   0  0  0  0  0  0  0  0  0  0  0  0
  -19.5082  -34.5429    5.0025 C   0  0  0  0  0  0  0  0  0  0  0  0
  -20.7161  -34.3426    4.9972 O   0  0  0  0  0  0  0  0  0  0  0  0
  -18.8851  -35.6523    5.5552 N   0  0  0  0  0  0  0  0  0  0  0  0
  -17.9070  -35.6984    5.4528 H   0  0  0  0  0  0  0  0  0  0  0  0
  -19.4914  -36.7230    6.2478 C   0  0  0  0  0  0  0  0  0  0  0  0
  -19.8848  -36.4778    7.5729 C   0  0  0  0  0  0  0  0  0  0  0  0
  -20.4967  -37.4782    8.3324 C   0  0  0  0  0  0  0  0  0  0  0  0
  -20.7202  -38.7282    7.7688 C   0  0  0  0  0  0  0  0  0  0  0  0
  -21.3096  -39.6744    8.5140 F   0  0  0  0  0  0  0  0  0  0  0  0
  -20.3394  -38.9859    6.4552 C   0  0  0  0  0  0  0  0  0  0  0  0
  -20.6214  -40.5341    5.7542 Cl  0  0  0  0  0  0  0  0  0  0  0  0
  -19.7265  -37.9856    5.6932 C   0  0  0  0  0  0  0  0  0  0  0  0
  -18.2684  -34.8859   -0.3583 C   0  0  0  0  0  0  0  0  0  0  0  0
  -21.1048  -38.0009    0.5986 C   0  0  0  0  0  0  0  0  0  0  0  0
  -20.6502  -37.1326    1.5945 C   0  0  0  0  0  0  0  0  0  0  0  0
  -19.7304  -36.1292    1.2816 C   0  0  0  0  0  0  0  0  0  0  0  0
  -19.2555  -35.9809   -0.0301 C   0  0  0  0  0  0  0  0  0  0  0  0
  -19.7145  -36.8553   -1.0240 C   0  0  0  0  0  0  0  0  0  0  0  0
  -20.6343  -37.8600   -0.7111 C   0  0  0  0  0  0  0  0  0  0  0  0
  -22.8097  -39.8681    1.1786 N   0  0  0  0  0  0  0  0  0  0  0  0
  -22.0492  -39.0315    0.9162 C   0  0  0  0  0  0  0  0  0  0  0  0
 31 32  3  0
 32 25  1  0
 25 26  2  0
 26 27  1  0
 27 28  2  0
 28 24  1  0
 24  1  1  0
  1  2  1  0
  2  3  2  0
  3  4  1  0
  3  5  1  0
  5  6  1  0
  6  7  2  0
  7  8  1  0
  8 12  1  0
 12 13  2  0
 12 14  1  0
 14 16  1  0
 16 17  2  0
 17 18  1  0
 18 19  2  0
 19 20  1  0
 19 21  1  0
 21 22  1  0
 21 23  2  0
  8  9  2  0
  9 10  1  0
 28 29  1  0
 29 30  2  0
 30 25  1  0
 10  1  2  0
  9  5  1  0
 23 16  1  0
  4 11  1  0
 14 15  1  0
M  END
> <minimizedAffinity>
-10.24922

> <CNNscore>
0.4247083068

> <CNNaffinity>
7.5334167480

> <CNN_VS>
3.1995046139

> <CNNaffinity_variance>
0.0573932081

$$$$



 32 35  0  0  0  0  0  0  0  0999 V2000
  -18.1917  -33.9325    0.9719 C   0  0  0  0  0  0  0  0  0  0  0  0
  -17.2999  -32.7419    0.7914 C   0  0  0  0  0  0  0  0  0  0  0  0
  -16.9535  -32.1000    1.9135 C   0  0  0  0  0  0  0  0  0  0  0  0
  -16.1251  -30.9897    1.8720 O   0  0  0  0  0  0  0  0  0  0  0  0
  -17.4347  -32.5494    3.1499 N   0  0  0  0  0  0  0  0  0  0  0  0
  -17.1655  -32.0087    4.3685 N   0  0  0  0  0  0  0  0  0  0  0  0
  -17.8765  -32.7581    5.2114 C   0  0  0  0  0  0  0  0  0  0  0  0
  -18.5806  -33.8082    4.5788 C   0  0  0  0  0  0  0  0  0  0  0  0
  -18.2755  -33.6571    3.2368 C   0  0  0  0  0  0  0  0  0  0  0  0
  -18.6376  -34.3606    2.1209 N   0  0  0  0  0  0  0  0  0  0  0  0
  -15.7973  -30.6802    1.0506 H   0  0  0  0  0  0  0  0  0  0  0  0
  -19.4600  -34.8135    5.1588 C   0  0  0  0  0  0  0  0  0  0  0  0
  -20.3996  -34.5059    5.8810 O   0  0  0  0  0  0  0  0  0  0  0  0
  -19.1164  -36.1100    4.8042 N   0  0  0  0  0  0  0  0  0  0  0  0
  -18.3569  -36.2052    4.1850 H   0  0  0  0  0  0  0  0  0  0  0  0
  -19.7300  -37.3088    5.2286 C   0  0  0  0  0  0  0  0  0  0  0  0
  -20.3930  -38.0625    4.2472 C   0  0  0  0  0  0  0  0  0  0  0  0
  -21.0245  -39.2645    4.5761 C   0  0  0  0  0  0  0  0  0  0  0  0
  -20.9934  -39.7198    5.8884 C   0  0  0  0  0  0  0  0  0  0  0  0
  -21.6047  -40.8762    6.1833 F   0  0  0  0  0  0  0  0  0  0  0  0
  -20.3371  -38.9861    6.8721 C   0  0  0  0  0  0  0  0  0  0  0  0
  -20.2936  -39.5529    8.4983 Cl  0  0  0  0  0  0  0  0  0  0  0  0
  -19.7044  -37.7822    6.5448 C   0  0  0  0  0  0  0  0  0  0  0  0
  -18.6086  -34.6757   -0.2862 C   0  0  0  0  0  0  0  0  0  0  0  0
  -21.2841  -37.9522    0.5914 C   0  0  0  0  0  0  0  0  0  0  0  0
  -21.3201  -36.7879    1.3632 C   0  0  0  0  0  0  0  0  0  0  0  0
  -20.4508  -35.7324    1.0783 C   0  0  0  0  0  0  0  0  0  0  0  0
  -19.5368  -35.8275    0.0183 C   0  0  0  0  0  0  0  0  0  0  0  0
  -19.5052  -36.9979   -0.7512 C   0  0  0  0  0  0  0  0  0  0  0  0
  -20.3743  -38.0546   -0.4660 C   0  0  0  0  0  0  0  0  0  0  0  0
  -22.8914  -39.9191    1.1179 N   0  0  0  0  0  0  0  0  0  0  0  0
  -22.1752  -39.0371    0.8808 C   0  0  0  0  0  0  0  0  0  0  0  0
 31 32  3  0
 32 25  1  0
 25 26  2  0
 26 27  1  0
 27 28  2  0
 28 24  1  0
 24  1  1  0
  1  2  1  0
  2  3  2  0
  3  4  1  0
  3  5  1  0
  5  6  1  0
  6  7  2  0
  7  8  1  0
  8 12  1  0
 12 13  2  0
 12 14  1  0
 14 16  1  0
 16 17  2  0
 17 18  1  0
 18 19  2  0
 19 20  1  0
 19 21  1  0
 21 22  1  0
 21 23  2  0
  8  9  2  0
  9 10  1  0
 28 29  1  0
 29 30  2  0
 30 25  1  0
 10  1  2  0
  9  5  1  0
 23 16  1  0
  4 11  1  0
 14 15  1  0
M  END
> <minimizedAffinity>
-10.04076

> <CNNscore>
0.3966267109

> <CNNaffinity>
7.5452198982

> <CNN_VS>
2.9926357269

> <CNNaffinity_variance>
0.0278349221

$$$$



 32 35  0  0  0  0  0  0  0  0999 V2000
  -21.6500  -37.7096    1.8488 C   0  0  0  0  0  0  0  0  0  0  0  0
  -22.7786  -38.6872    1.9738 C   0  0  0  0  0  0  0  0  0  0  0  0
  -23.3008  -38.8181    3.1991 C   0  0  0  0  0  0  0  0  0  0  0  0
  -24.3549  -39.6864    3.4351 O   0  0  0  0  0  0  0  0  0  0  0  0
  -22.7766  -38.0727    4.2630 N   0  0  0  0  0  0  0  0  0  0  0  0
  -23.2044  -38.0926    5.5538 N   0  0  0  0  0  0  0  0  0  0  0  0
  -22.3747  -37.2541    6.1753 C   0  0  0  0  0  0  0  0  0  0  0  0
  -21.4306  -36.6501    5.3137 C   0  0  0  0  0  0  0  0  0  0  0  0
  -21.7126  -37.1935    4.0718 C   0  0  0  0  0  0  0  0  0  0  0  0
  -21.1616  -37.0071    2.8337 N   0  0  0  0  0  0  0  0  0  0  0  0
  -24.7136  -40.1901    2.7310 H   0  0  0  0  0  0  0  0  0  0  0  0
  -20.3700  -35.7014    5.6228 C   0  0  0  0  0  0  0  0  0  0  0  0
  -20.6160  -34.5628    5.9999 O   0  0  0  0  0  0  0  0  0  0  0  0
  -19.0982  -36.2270    5.4464 N   0  0  0  0  0  0  0  0  0  0  0  0
  -19.0517  -37.1719    5.1736 H   0  0  0  0  0  0  0  0  0  0  0  0
  -17.8630  -35.5636    5.6128 C   0  0  0  0  0  0  0  0  0  0  0  0
  -17.1578  -35.8266    6.7979 C   0  0  0  0  0  0  0  0  0  0  0  0
  -15.9248  -35.2178    7.0447 C   0  0  0  0  0  0  0  0  0  0  0  0
  -15.3901  -34.3446    6.1057 C   0  0  0  0  0  0  0  0  0  0  0  0
  -14.2051  -33.7713    6.3610 F   0  0  0  0  0  0  0  0  0  0  0  0
  -16.0751  -34.0762    4.9243 C   0  0  0  0  0  0  0  0  0  0  0  0
  -15.4098  -32.9978    3.7572 Cl  0  0  0  0  0  0  0  0  0  0  0  0
  -17.3098  -34.6848    4.6754 C   0  0  0  0  0  0  0  0  0  0  0  0
  -21.0315  -37.5470    0.4703 C   0  0  0  0  0  0  0  0  0  0  0  0
  -18.1326  -34.3448    0.3906 C   0  0  0  0  0  0  0  0  0  0  0  0
  -19.0017  -34.4807    1.4762 C   0  0  0  0  0  0  0  0  0  0  0  0
  -19.9398  -35.5152    1.4963 C   0  0  0  0  0  0  0  0  0  0  0  0
  -20.0194  -36.4266    0.4328 C   0  0  0  0  0  0  0  0  0  0  0  0
  -19.1457  -36.2843   -0.6533 C   0  0  0  0  0  0  0  0  0  0  0  0
  -18.2073  -35.2488   -0.6741 C   0  0  0  0  0  0  0  0  0  0  0  0
  -16.3924  -32.4213    0.3468 N   0  0  0  0  0  0  0  0  0  0  0  0
  -17.1682  -33.2845    0.3671 C   0  0  0  0  0  0  0  0  0  0  0  0
 31 32  3  0
 32 25  1  0
 25 26  2  0
 26 27  1  0
 27 28  2  0
 28 24  1  0
 24  1  1  0
  1  2  1  0
  2  3  2  0
  3  4  1  0
  3  5  1  0
  5  6  1  0
  6  7  2  0
  7  8  1  0
  8 12  1  0
 12 13  2  0
 12 14  1  0
 14 16  1  0
 16 17  2  0
 17 18  1  0
 18 19  2  0
 19 20  1  0
 19 21  1  0
 21 22  1  0
 21 23  2  0
  8  9  2  0
  9 10  1  0
 28 29  1  0
 29 30  2  0
 30 25  1  0
 10  1  2  0
  9  5  1  0
 23 16  1  0
  4 11  1  0
 14 15  1  0
M  END
> <minimizedAffinity>
-9.82283

> <CNNscore>
0.3562476635

> <CNNaffinity>
7.3941826820

> <CNN_VS>
2.6341602802

> <CNNaffinity_variance>
0.0358613245

$$$$
