


 33 37  0  0  0  0  0  0  0  0999 V2000
   13.8566  -26.4648  -20.5604 C   0  0  0  0  0  0  0  0  0  0  0  0
   14.7962  -27.4126  -20.3412 C   0  0  0  0  0  0  0  0  0  0  0  0
   14.4161  -28.6854  -19.7492 C   0  0  0  0  0  0  0  0  0  0  0  0
   15.6536  -29.8590  -19.4998 Cl  0  0  0  0  0  0  0  0  0  0  0  0
   13.1438  -28.9475  -19.4027 C   0  0  0  0  0  0  0  0  0  0  0  0
   12.1443  -27.9618  -19.6197 C   0  0  0  0  0  0  0  0  0  0  0  0
   10.8562  -27.9619  -19.3769 N   0  0  0  0  0  0  0  0  0  0  0  0
   10.4457  -26.7350  -19.8072 C   0  0  0  0  0  0  0  0  0  0  0  0
   11.4166  -25.9652  -20.3005 N   0  0  0  0  0  0  0  0  0  0  0  0
   12.5221  -26.7441  -20.1916 N   0  0  0  0  0  0  0  0  0  0  0  0
   15.0216  -22.7077  -22.2894 C   0  0  0  0  0  0  0  0  0  0  0  0
   13.7822  -23.2739  -22.5931 C   0  0  0  0  0  0  0  0  0  0  0  0
   13.3963  -24.4939  -22.0302 C   0  0  0  0  0  0  0  0  0  0  0  0
   14.2512  -25.1717  -21.1517 C   0  0  0  0  0  0  0  0  0  0  0  0
   15.4926  -24.5977  -20.8482 C   0  0  0  0  0  0  0  0  0  0  0  0
   15.8761  -23.3745  -21.4128 C   0  0  0  0  0  0  0  0  0  0  0  0
   14.7168  -20.3509  -22.3083 C   0  0  0  0  0  0  0  0  0  0  0  0
   15.2722  -21.5145  -22.9079 O   0  0  0  0  0  0  0  0  0  0  0  0
    9.1659  -26.3275  -19.7386 N   0  0  0  0  0  0  0  0  0  0  0  0
    8.6340  -26.8224  -19.0743 H   0  0  0  0  0  0  0  0  0  0  0  0
    8.4300  -25.3411  -20.4190 C   0  0  0  0  0  0  0  0  0  0  0  0
    9.1094  -24.2301  -20.9339 C   0  0  0  0  0  0  0  0  0  0  0  0
    8.4308  -23.2135  -21.6210 C   0  0  0  0  0  0  0  0  0  0  0  0
    7.0461  -23.2604  -21.8306 C   0  0  0  0  0  0  0  0  0  0  0  0
    6.3710  -24.3630  -21.2966 C   0  0  0  0  0  0  0  0  0  0  0  0
    7.0493  -25.3847  -20.6094 C   0  0  0  0  0  0  0  0  0  0  0  0
    6.4123  -22.2125  -22.5166 N   0  0  0  0  0  0  0  0  0  0  0  0
    4.9638  -22.0158  -22.2941 C   0  0  0  0  0  0  0  0  0  0  0  0
    4.4904  -20.6927  -22.9400 C   0  0  0  0  0  0  0  0  0  0  0  0
    4.7897  -20.6303  -24.3880 N   0  0  0  0  0  0  0  0  0  0  0  0
    4.3661  -19.3484  -24.9462 C   0  0  0  0  0  0  0  0  0  0  0  0
    6.2426  -20.8308  -24.5851 C   0  0  0  0  0  0  0  0  0  0  0  0
    6.7636  -22.1461  -23.9568 C   0  0  0  0  0  0  0  0  0  0  0  0
 17 18  1  0
 18 11  1  0
 11 12  2  0
 12 13  1  0
 13 14  2  0
 14  1  1  0
  1  2  2  0
  2  3  1  0
  3  4  1  0
  3  5  2  0
  5  6  1  0
  6  7  2  0
  7  8  1  0
  8 19  1  0
 19 21  1  0
 21 22  2  0
 22 23  1  0
 23 24  2  0
 24 27  1  0
 27 28  1  0
 28 29  1  0
 29 30  1  0
 30 31  1  0
 30 32  1  0
 32 33  1  0
 24 25  1  0
 25 26  2  0
  8  9  2  0
  9 10  1  0
 14 15  1  0
 15 16  2  0
 16 11  1  0
 10  1  1  0
 10  6  1  0
 26 21  1  0
 33 27  1  0
 19 20  1  0
M  END
> <minimizedAffinity>
-9.02984

> <CNNscore>
0.9774073958

> <CNNaffinity>
7.6094169617

> <CNN_VS>
7.4375004768

> <CNNaffinity_variance>
0.0082702888

$$$$



 33 37  0  0  0  0  0  0  0  0999 V2000
   15.1491  -25.6865  -20.2718 C   0  0  0  0  0  0  0  0  0  0  0  0
   16.2752  -26.3709  -19.9676 C   0  0  0  0  0  0  0  0  0  0  0  0
   16.1843  -27.7513  -19.5189 C   0  0  0  0  0  0  0  0  0  0  0  0
   17.6522  -28.5772  -19.1525 Cl  0  0  0  0  0  0  0  0  0  0  0  0
   14.9986  -28.3717  -19.3893 C   0  0  0  0  0  0  0  0  0  0  0  0
   13.8048  -27.6667  -19.6983 C   0  0  0  0  0  0  0  0  0  0  0  0
   12.5458  -28.0296  -19.6576 N   0  0  0  0  0  0  0  0  0  0  0  0
   11.8750  -26.9171  -20.0716 C   0  0  0  0  0  0  0  0  0  0  0  0
   12.6537  -25.8741  -20.3621 N   0  0  0  0  0  0  0  0  0  0  0  0
   13.9060  -26.3419  -20.1308 N   0  0  0  0  0  0  0  0  0  0  0  0
   15.4419  -21.6055  -21.5844 C   0  0  0  0  0  0  0  0  0  0  0  0
   14.2747  -22.0730  -20.9777 C   0  0  0  0  0  0  0  0  0  0  0  0
   14.1755  -23.3986  -20.5449 C   0  0  0  0  0  0  0  0  0  0  0  0
   15.2482  -24.2829  -20.7164 C   0  0  0  0  0  0  0  0  0  0  0  0
   16.4181  -23.8077  -21.3233 C   0  0  0  0  0  0  0  0  0  0  0  0
   16.5151  -22.4786  -21.7549 C   0  0  0  0  0  0  0  0  0  0  0  0
   14.1237  -19.7377  -22.2336 C   0  0  0  0  0  0  0  0  0  0  0  0
   15.4045  -20.2913  -21.9594 O   0  0  0  0  0  0  0  0  0  0  0  0
   10.5352  -26.8692  -20.1770 N   0  0  0  0  0  0  0  0  0  0  0  0
   10.1043  -27.7489  -20.0779 H   0  0  0  0  0  0  0  0  0  0  0  0
    9.6219  -25.8232  -20.3993 C   0  0  0  0  0  0  0  0  0  0  0  0
    8.2616  -26.0559  -20.1622 C   0  0  0  0  0  0  0  0  0  0  0  0
    7.3030  -25.0530  -20.3661 C   0  0  0  0  0  0  0  0  0  0  0  0
    7.6570  -23.7720  -20.8103 C   0  0  0  0  0  0  0  0  0  0  0  0
    9.0150  -23.5525  -21.0641 C   0  0  0  0  0  0  0  0  0  0  0  0
    9.9781  -24.5555  -20.8582 C   0  0  0  0  0  0  0  0  0  0  0  0
    6.6583  -22.8057  -21.0081 N   0  0  0  0  0  0  0  0  0  0  0  0
    6.7100  -21.5785  -20.1848 C   0  0  0  0  0  0  0  0  0  0  0  0
    5.6834  -20.5399  -20.6941 C   0  0  0  0  0  0  0  0  0  0  0  0
    4.3028  -21.0722  -20.7173 N   0  0  0  0  0  0  0  0  0  0  0  0
    3.3754  -20.0746  -21.2455 C   0  0  0  0  0  0  0  0  0  0  0  0
    4.2768  -22.2986  -21.5449 C   0  0  0  0  0  0  0  0  0  0  0  0
    5.2877  -23.3709  -21.0711 C   0  0  0  0  0  0  0  0  0  0  0  0
 17 18  1  0
 18 11  1  0
 11 12  2  0
 12 13  1  0
 13 14  2  0
 14  1  1  0
  1  2  2  0
  2  3  1  0
  3  4  1  0
  3  5  2  0
  5  6  1  0
  6  7  2  0
  7  8  1  0
  8 19  1  0
 19 21  1  0
 21 22  2  0
 22 23  1  0
 23 24  2  0
 24 27  1  0
 27 28  1  0
 28 29  1  0
 29 30  1  0
 30 31  1  0
 30 32  1  0
 32 33  1  0
 24 25  1  0
 25 26  2  0
  8  9  2  0
  9 10  1  0
 14 15  1  0
 15 16  2  0
 16 11  1  0
 10  1  1  0
 10  6  1  0
 26 21  1  0
 33 27  1  0
 19 20  1  0
M  END
> <minimizedAffinity>
-7.42550

> <CNNscore>
0.8690221310

> <CNNaffinity>
7.6101307869

> <CNN_VS>
6.6133718491

> <CNNaffinity_variance>
0.0730407834

$$$$



 33 37  0  0  0  0  0  0  0  0999 V2000
   13.8184  -25.7801  -20.6289 C   0  0  0  0  0  0  0  0  0  0  0  0
   14.5629  -26.8710  -20.3378 C   0  0  0  0  0  0  0  0  0  0  0  0
   13.9124  -28.0942  -19.8953 C   0  0  0  0  0  0  0  0  0  0  0  0
   14.9100  -29.4556  -19.5455 Cl  0  0  0  0  0  0  0  0  0  0  0  0
   12.5771  -28.1705  -19.7588 C   0  0  0  0  0  0  0  0  0  0  0  0
   11.7793  -27.0329  -20.0541 C   0  0  0  0  0  0  0  0  0  0  0  0
   10.4832  -26.8437  -20.0047 N   0  0  0  0  0  0  0  0  0  0  0  0
   10.3295  -25.5502  -20.4073 C   0  0  0  0  0  0  0  0  0  0  0  0
   11.4678  -24.9196  -20.6991 N   0  0  0  0  0  0  0  0  0  0  0  0
   12.4163  -25.8647  -20.4808 N   0  0  0  0  0  0  0  0  0  0  0  0
   15.7451  -22.1575  -21.9046 C   0  0  0  0  0  0  0  0  0  0  0  0
   16.1900  -22.8346  -20.7676 C   0  0  0  0  0  0  0  0  0  0  0  0
   15.5696  -24.0158  -20.3504 C   0  0  0  0  0  0  0  0  0  0  0  0
   14.4859  -24.5392  -21.0673 C   0  0  0  0  0  0  0  0  0  0  0  0
   14.0454  -23.8573  -22.2090 C   0  0  0  0  0  0  0  0  0  0  0  0
   14.6698  -22.6745  -22.6254 C   0  0  0  0  0  0  0  0  0  0  0  0
   17.7754  -21.1795  -22.6590 C   0  0  0  0  0  0  0  0  0  0  0  0
   16.4395  -21.0173  -22.1994 O   0  0  0  0  0  0  0  0  0  0  0  0
    9.1285  -24.9523  -20.5011 N   0  0  0  0  0  0  0  0  0  0  0  0
    8.3787  -25.5431  -20.2603 H   0  0  0  0  0  0  0  0  0  0  0  0
    8.7216  -23.6583  -20.8719 C   0  0  0  0  0  0  0  0  0  0  0  0
    9.2536  -22.5620  -20.1817 C   0  0  0  0  0  0  0  0  0  0  0  0
    8.8862  -21.2479  -20.5047 C   0  0  0  0  0  0  0  0  0  0  0  0
    7.9766  -20.9666  -21.5328 C   0  0  0  0  0  0  0  0  0  0  0  0
    7.4342  -22.0669  -22.2048 C   0  0  0  0  0  0  0  0  0  0  0  0
    7.8026  -23.3852  -21.8845 C   0  0  0  0  0  0  0  0  0  0  0  0
    7.6343  -19.6339  -21.8108 N   0  0  0  0  0  0  0  0  0  0  0  0
    6.8558  -19.3609  -23.0380 C   0  0  0  0  0  0  0  0  0  0  0  0
    6.3763  -17.8907  -23.0604 C   0  0  0  0  0  0  0  0  0  0  0  0
    7.4950  -16.9282  -22.9500 N   0  0  0  0  0  0  0  0  0  0  0  0
    6.9934  -15.5563  -22.9309 C   0  0  0  0  0  0  0  0  0  0  0  0
    8.2587  -17.2219  -21.7170 C   0  0  0  0  0  0  0  0  0  0  0  0
    8.7628  -18.6839  -21.6502 C   0  0  0  0  0  0  0  0  0  0  0  0
 17 18  1  0
 18 11  1  0
 11 12  2  0
 12 13  1  0
 13 14  2  0
 14  1  1  0
  1  2  2  0
  2  3  1  0
  3  4  1  0
  3  5  2  0
  5  6  1  0
  6  7  2  0
  7  8  1  0
  8 19  1  0
 19 21  1  0
 21 22  2  0
 22 23  1  0
 23 24  2  0
 24 27  1  0
 27 28  1  0
 28 29  1  0
 29 30  1  0
 30 31  1  0
 30 32  1  0
 32 33  1  0
 24 25  1  0
 25 26  2  0
  8  9  2  0
  9 10  1  0
 14 15  1  0
 15 16  2  0
 16 11  1  0
 10  1  1  0
 10  6  1  0
 26 21  1  0
 33 27  1  0
 19 20  1  0
M  END
> <minimizedAffinity>
-7.90671

> <CNNscore>
0.6835922003

> <CNNaffinity>
6.9331703186

> <CNN_VS>
4.7394609451

> <CNNaffinity_variance>
0.0533655435

$$$$



 33 37  0  0  0  0  0  0  0  0999 V2000
   14.1361  -23.9470  -20.3397 C   0  0  0  0  0  0  0  0  0  0  0  0
   15.2894  -24.6218  -20.5485 C   0  0  0  0  0  0  0  0  0  0  0  0
   15.2668  -26.0698  -20.6821 C   0  0  0  0  0  0  0  0  0  0  0  0
   16.7653  -26.8768  -20.9548 Cl  0  0  0  0  0  0  0  0  0  0  0  0
   14.1198  -26.7659  -20.5957 C   0  0  0  0  0  0  0  0  0  0  0  0
   12.8994  -26.0748  -20.3705 C   0  0  0  0  0  0  0  0  0  0  0  0
   11.6672  -26.5045  -20.2473 N   0  0  0  0  0  0  0  0  0  0  0  0
   10.9454  -25.3648  -20.0494 C   0  0  0  0  0  0  0  0  0  0  0  0
   11.6682  -24.2442  -20.0358 N   0  0  0  0  0  0  0  0  0  0  0  0
   12.9344  -24.6834  -20.2465 N   0  0  0  0  0  0  0  0  0  0  0  0
   14.2400  -19.6738  -19.9020 C   0  0  0  0  0  0  0  0  0  0  0  0
   14.6154  -20.2724  -21.1060 C   0  0  0  0  0  0  0  0  0  0  0  0
   14.5795  -21.6619  -21.2553 C   0  0  0  0  0  0  0  0  0  0  0  0
   14.1678  -22.4789  -20.1946 C   0  0  0  0  0  0  0  0  0  0  0  0
   13.7894  -21.8728  -18.9895 C   0  0  0  0  0  0  0  0  0  0  0  0
   13.8252  -20.4801  -18.8432 C   0  0  0  0  0  0  0  0  0  0  0  0
   15.2479  -17.7283  -18.9818 C   0  0  0  0  0  0  0  0  0  0  0  0
   14.3224  -18.3092  -19.8917 O   0  0  0  0  0  0  0  0  0  0  0  0
    9.6116  -25.3657  -19.8778 N   0  0  0  0  0  0  0  0  0  0  0  0
    9.3236  -25.8338  -19.0610 H   0  0  0  0  0  0  0  0  0  0  0  0
    8.5429  -24.8365  -20.6231 C   0  0  0  0  0  0  0  0  0  0  0  0
    7.3003  -25.4800  -20.5678 C   0  0  0  0  0  0  0  0  0  0  0  0
    6.1973  -25.0007  -21.2889 C   0  0  0  0  0  0  0  0  0  0  0  0
    6.2812  -23.8564  -22.0932 C   0  0  0  0  0  0  0  0  0  0  0  0
    7.5302  -23.2301  -22.1594 C   0  0  0  0  0  0  0  0  0  0  0  0
    8.6368  -23.7072  -21.4356 C   0  0  0  0  0  0  0  0  0  0  0  0
    5.1503  -23.4227  -22.8027 N   0  0  0  0  0  0  0  0  0  0  0  0
    4.4378  -24.4112  -23.6403 C   0  0  0  0  0  0  0  0  0  0  0  0
    3.1028  -23.8241  -24.1553 C   0  0  0  0  0  0  0  0  0  0  0  0
    3.2915  -22.5665  -24.9122 N   0  0  0  0  0  0  0  0  0  0  0  0
    2.0038  -22.0256  -25.3404 C   0  0  0  0  0  0  0  0  0  0  0  0
    4.0066  -21.5951  -24.0550 C   0  0  0  0  0  0  0  0  0  0  0  0
    5.3527  -22.1378  -23.5167 C   0  0  0  0  0  0  0  0  0  0  0  0
 17 18  1  0
 18 11  1  0
 11 12  2  0
 12 13  1  0
 13 14  2  0
 14  1  1  0
  1  2  2  0
  2  3  1  0
  3  4  1  0
  3  5  2  0
  5  6  1  0
  6  7  2  0
  7  8  1  0
  8 19  1  0
 19 21  1  0
 21 22  2  0
 22 23  1  0
 23 24  2  0
 24 27  1  0
 27 28  1  0
 28 29  1  0
 29 30  1  0
 30 31  1  0
 30 32  1  0
 32 33  1  0
 24 25  1  0
 25 26  2  0
  8  9  2  0
  9 10  1  0
 14 15  1  0
 15 16  2  0
 16 11  1  0
 10  1  1  0
 10  6  1  0
 26 21  1  0
 33 27  1  0
 19 20  1  0
M  END
> <minimizedAffinity>
-7.21032

> <CNNscore>
0.5338603258

> <CNNaffinity>
7.0301322937

> <CNN_VS>
3.7531087399

> <CNNaffinity_variance>
0.1783870459

$$$$



 33 37  0  0  0  0  0  0  0  0999 V2000
   12.9170  -25.6172  -20.6137 C   0  0  0  0  0  0  0  0  0  0  0  0
   13.4400  -26.7928  -20.1970 C   0  0  0  0  0  0  0  0  0  0  0  0
   12.5640  -27.8314  -19.6783 C   0  0  0  0  0  0  0  0  0  0  0  0
   13.2844  -29.3121  -19.1689 Cl  0  0  0  0  0  0  0  0  0  0  0  0
   11.2343  -27.6518  -19.5933 C   0  0  0  0  0  0  0  0  0  0  0  0
   10.6677  -26.4213  -20.0205 C   0  0  0  0  0  0  0  0  0  0  0  0
    9.4277  -25.9969  -20.0435 N   0  0  0  0  0  0  0  0  0  0  0  0
    9.5254  -24.7402  -20.5633 C   0  0  0  0  0  0  0  0  0  0  0  0
   10.7677  -24.3560  -20.8595 N   0  0  0  0  0  0  0  0  0  0  0  0
   11.5199  -25.4325  -20.5192 N   0  0  0  0  0  0  0  0  0  0  0  0
   15.5108  -22.5379  -22.1145 C   0  0  0  0  0  0  0  0  0  0  0  0
   15.8176  -23.2074  -20.9285 C   0  0  0  0  0  0  0  0  0  0  0  0
   14.9795  -24.2129  -20.4378 C   0  0  0  0  0  0  0  0  0  0  0  0
   13.8129  -24.5640  -21.1291 C   0  0  0  0  0  0  0  0  0  0  0  0
   13.5113  -23.8909  -22.3201 C   0  0  0  0  0  0  0  0  0  0  0  0
   14.3535  -22.8845  -22.8101 C   0  0  0  0  0  0  0  0  0  0  0  0
   17.6455  -22.0306  -23.0276 C   0  0  0  0  0  0  0  0  0  0  0  0
   16.4137  -21.5784  -22.4795 O   0  0  0  0  0  0  0  0  0  0  0  0
    8.4579  -23.9464  -20.7603 N   0  0  0  0  0  0  0  0  0  0  0  0
    8.6473  -22.9926  -20.6065 H   0  0  0  0  0  0  0  0  0  0  0  0
    7.1273  -24.1961  -21.1404 C   0  0  0  0  0  0  0  0  0  0  0  0
    6.6809  -23.7204  -22.3795 C   0  0  0  0  0  0  0  0  0  0  0  0
    5.3653  -23.9371  -22.8138 C   0  0  0  0  0  0  0  0  0  0  0  0
    4.4370  -24.6416  -22.0356 C   0  0  0  0  0  0  0  0  0  0  0  0
    4.8838  -25.0968  -20.7906 C   0  0  0  0  0  0  0  0  0  0  0  0
    6.2028  -24.8829  -20.3541 C   0  0  0  0  0  0  0  0  0  0  0  0
    3.1290  -24.8236  -22.5113 N   0  0  0  0  0  0  0  0  0  0  0  0
    2.0345  -24.8885  -21.5192 C   0  0  0  0  0  0  0  0  0  0  0  0
    0.6592  -24.8579  -22.2259 C   0  0  0  0  0  0  0  0  0  0  0  0
    0.5062  -25.9476  -23.2154 N   0  0  0  0  0  0  0  0  0  0  0  0
   -0.7870  -25.8537  -23.8885 C   0  0  0  0  0  0  0  0  0  0  0  0
    1.6119  -25.8625  -24.1952 C   0  0  0  0  0  0  0  0  0  0  0  0
    3.0112  -25.8923  -23.5340 C   0  0  0  0  0  0  0  0  0  0  0  0
 17 18  1  0
 18 11  1  0
 11 12  2  0
 12 13  1  0
 13 14  2  0
 14  1  1  0
  1  2  2  0
  2  3  1  0
  3  4  1  0
  3  5  2  0
  5  6  1  0
  6  7  2  0
  7  8  1  0
  8 19  1  0
 19 21  1  0
 21 22  2  0
 22 23  1  0
 23 24  2  0
 24 27  1  0
 27 28  1  0
 28 29  1  0
 29 30  1  0
 30 31  1  0
 30 32  1  0
 32 33  1  0
 24 25  1  0
 25 26  2  0
  8  9  2  0
  9 10  1  0
 14 15  1  0
 15 16  2  0
 16 11  1  0
 10  1  1  0
 10  6  1  0
 26 21  1  0
 33 27  1  0
 19 20  1  0
M  END
> <minimizedAffinity>
-8.04557

> <CNNscore>
0.4676731825

> <CNNaffinity>
6.5932908058

> <CNN_VS>
3.0835053921

> <CNNaffinity_variance>
0.0679349601

$$$$



 33 37  0  0  0  0  0  0  0  0999 V2000
   14.8339  -25.5193  -20.3077 C   0  0  0  0  0  0  0  0  0  0  0  0
   15.3591  -26.7601  -20.1915 C   0  0  0  0  0  0  0  0  0  0  0  0
   14.4780  -27.9096  -20.0597 C   0  0  0  0  0  0  0  0  0  0  0  0
   15.2020  -29.4678  -19.9228 Cl  0  0  0  0  0  0  0  0  0  0  0  0
   13.1407  -27.7719  -20.0427 C   0  0  0  0  0  0  0  0  0  0  0  0
   12.5711  -26.4757  -20.1574 C   0  0  0  0  0  0  0  0  0  0  0  0
   11.3240  -26.0720  -20.1678 N   0  0  0  0  0  0  0  0  0  0  0  0
   11.4229  -24.7193  -20.3068 C   0  0  0  0  0  0  0  0  0  0  0  0
   12.6721  -24.2573  -20.3764 N   0  0  0  0  0  0  0  0  0  0  0  0
   13.4286  -25.3799  -20.2860 N   0  0  0  0  0  0  0  0  0  0  0  0
   17.4399  -22.1219  -20.6677 C   0  0  0  0  0  0  0  0  0  0  0  0
   17.4893  -22.9363  -19.5349 C   0  0  0  0  0  0  0  0  0  0  0  0
   16.6467  -24.0453  -19.4144 C   0  0  0  0  0  0  0  0  0  0  0  0
   15.7342  -24.3565  -20.4304 C   0  0  0  0  0  0  0  0  0  0  0  0
   15.6908  -23.5376  -21.5663 C   0  0  0  0  0  0  0  0  0  0  0  0
   16.5371  -22.4277  -21.6849 C   0  0  0  0  0  0  0  0  0  0  0  0
   19.6980  -21.3888  -20.7742 C   0  0  0  0  0  0  0  0  0  0  0  0
   18.3166  -21.0729  -20.6565 O   0  0  0  0  0  0  0  0  0  0  0  0
   10.3499  -23.9109  -20.3660 N   0  0  0  0  0  0  0  0  0  0  0  0
   10.5345  -22.9943  -20.0576 H   0  0  0  0  0  0  0  0  0  0  0  0
    9.0189  -24.1032  -20.7770 C   0  0  0  0  0  0  0  0  0  0  0  0
    8.3121  -25.2031  -20.2754 C   0  0  0  0  0  0  0  0  0  0  0  0
    6.9828  -25.4484  -20.6484 C   0  0  0  0  0  0  0  0  0  0  0  0
    6.2964  -24.6063  -21.5335 C   0  0  0  0  0  0  0  0  0  0  0  0
    7.0146  -23.5208  -22.0459 C   0  0  0  0  0  0  0  0  0  0  0  0
    8.3465  -23.2715  -21.6717 C   0  0  0  0  0  0  0  0  0  0  0  0
    4.9692  -24.9008  -21.8828 N   0  0  0  0  0  0  0  0  0  0  0  0
    4.0742  -25.4193  -20.8261 C   0  0  0  0  0  0  0  0  0  0  0  0
    2.6120  -25.4656  -21.3281 C   0  0  0  0  0  0  0  0  0  0  0  0
    2.4605  -26.2754  -22.5574 N   0  0  0  0  0  0  0  0  0  0  0  0
    1.0747  -26.2550  -23.0194 C   0  0  0  0  0  0  0  0  0  0  0  0
    3.3655  -25.7389  -23.5981 C   0  0  0  0  0  0  0  0  0  0  0  0
    4.8434  -25.6756  -23.1420 C   0  0  0  0  0  0  0  0  0  0  0  0
 17 18  1  0
 18 11  1  0
 11 12  2  0
 12 13  1  0
 13 14  2  0
 14  1  1  0
  1  2  2  0
  2  3  1  0
  3  4  1  0
  3  5  2  0
  5  6  1  0
  6  7  2  0
  7  8  1  0
  8 19  1  0
 19 21  1  0
 21 22  2  0
 22 23  1  0
 23 24  2  0
 24 27  1  0
 27 28  1  0
 28 29  1  0
 29 30  1  0
 30 31  1  0
 30 32  1  0
 32 33  1  0
 24 25  1  0
 25 26  2  0
  8  9  2  0
  9 10  1  0
 14 15  1  0
 15 16  2  0
 16 11  1  0
 10  1  1  0
 10  6  1  0
 26 21  1  0
 33 27  1  0
 19 20  1  0
M  END
> <minimizedAffinity>
-8.16217

> <CNNscore>
0.3979304731

> <CNNaffinity>
6.9455490112

> <CNN_VS>
2.7638456821

> <CNNaffinity_variance>
0.0101336902

$$$$



 33 37  0  0  0  0  0  0  0  0999 V2000
   15.7992  -26.7158  -20.4171 C   0  0  0  0  0  0  0  0  0  0  0  0
   14.9614  -27.7465  -20.1626 C   0  0  0  0  0  0  0  0  0  0  0  0
   13.5403  -27.6095  -20.4394 C   0  0  0  0  0  0  0  0  0  0  0  0
   12.5207  -28.9579  -20.1029 Cl  0  0  0  0  0  0  0  0  0  0  0  0
   13.0282  -26.4717  -20.9402 C   0  0  0  0  0  0  0  0  0  0  0  0
   13.8919  -25.3763  -21.2081 C   0  0  0  0  0  0  0  0  0  0  0  0
   13.6548  -24.1792  -21.6865 N   0  0  0  0  0  0  0  0  0  0  0  0
   14.8849  -23.5917  -21.7127 C   0  0  0  0  0  0  0  0  0  0  0  0
   15.8784  -24.3616  -21.2669 N   0  0  0  0  0  0  0  0  0  0  0  0
   15.2556  -25.5217  -20.9401 N   0  0  0  0  0  0  0  0  0  0  0  0
   19.9926  -27.1118  -19.5680 C   0  0  0  0  0  0  0  0  0  0  0  0
   19.0395  -27.4494  -18.6054 C   0  0  0  0  0  0  0  0  0  0  0  0
   17.6738  -27.3266  -18.8778 C   0  0  0  0  0  0  0  0  0  0  0  0
   17.2385  -26.8582  -20.1240 C   0  0  0  0  0  0  0  0  0  0  0  0
   18.1992  -26.5235  -21.0872 C   0  0  0  0  0  0  0  0  0  0  0  0
   19.5669  -26.6488  -20.8119 C   0  0  0  0  0  0  0  0  0  0  0  0
   21.6843  -28.5939  -18.8002 C   0  0  0  0  0  0  0  0  0  0  0  0
   21.2902  -27.2789  -19.1710 O   0  0  0  0  0  0  0  0  0  0  0  0
   15.0851  -22.3355  -22.1491 N   0  0  0  0  0  0  0  0  0  0  0  0
   14.4838  -22.0775  -22.8847 H   0  0  0  0  0  0  0  0  0  0  0  0
   15.9752  -21.3140  -21.7725 C   0  0  0  0  0  0  0  0  0  0  0  0
   17.1206  -21.6549  -21.0425 C   0  0  0  0  0  0  0  0  0  0  0  0
   18.0449  -20.6812  -20.6377 C   0  0  0  0  0  0  0  0  0  0  0  0
   17.8725  -19.3253  -20.9463 C   0  0  0  0  0  0  0  0  0  0  0  0
   16.7164  -18.9893  -21.6585 C   0  0  0  0  0  0  0  0  0  0  0  0
   15.7895  -19.9638  -22.0675 C   0  0  0  0  0  0  0  0  0  0  0  0
   18.8220  -18.3882  -20.5098 N   0  0  0  0  0  0  0  0  0  0  0  0
   19.0935  -17.2223  -21.3777 C   0  0  0  0  0  0  0  0  0  0  0  0
   19.9805  -16.1919  -20.6404 C   0  0  0  0  0  0  0  0  0  0  0  0
   21.2561  -16.7764  -20.1697 N   0  0  0  0  0  0  0  0  0  0  0  0
   22.0404  -15.7815  -19.4422 C   0  0  0  0  0  0  0  0  0  0  0  0
   20.9588  -17.9402  -19.3055 C   0  0  0  0  0  0  0  0  0  0  0  0
   20.0741  -19.0022  -20.0024 C   0  0  0  0  0  0  0  0  0  0  0  0
 17 18  1  0
 18 11  1  0
 11 12  2  0
 12 13  1  0
 13 14  2  0
 14  1  1  0
  1  2  2  0
  2  3  1  0
  3  4  1  0
  3  5  2  0
  5  6  1  0
  6  7  2  0
  7  8  1  0
  8 19  1  0
 19 21  1  0
 21 22  2  0
 22 23  1  0
 23 24  2  0
 24 27  1  0
 27 28  1  0
 28 29  1  0
 29 30  1  0
 30 31  1  0
 30 32  1  0
 32 33  1  0
 24 25  1  0
 25 26  2  0
  8  9  2  0
  9 10  1  0
 14 15  1  0
 15 16  2  0
 16 11  1  0
 10  1  1  0
 10  6  1  0
 26 21  1  0
 33 27  1  0
 19 20  1  0
M  END
> <minimizedAffinity>
-9.31451

> <CNNscore>
0.3830842972

> <CNNaffinity>
6.6579608917

> <CNN_VS>
2.5505602360

> <CNNaffinity_variance>
0.3486726284

$$$$



 33 37  0  0  0  0  0  0  0  0999 V2000
   12.9851  -25.7174  -20.5998 C   0  0  0  0  0  0  0  0  0  0  0  0
   13.5030  -26.8689  -20.1152 C   0  0  0  0  0  0  0  0  0  0  0  0
   12.6185  -27.8904  -19.5775 C   0  0  0  0  0  0  0  0  0  0  0  0
   13.3329  -29.3411  -18.9806 Cl  0  0  0  0  0  0  0  0  0  0  0  0
   11.2857  -27.7181  -19.5412 C   0  0  0  0  0  0  0  0  0  0  0  0
   10.7241  -26.5125  -20.0400 C   0  0  0  0  0  0  0  0  0  0  0  0
    9.4825  -26.0997  -20.1198 N   0  0  0  0  0  0  0  0  0  0  0  0
    9.5877  -24.8666  -20.6921 C   0  0  0  0  0  0  0  0  0  0  0  0
   10.8359  -24.4859  -20.9672 N   0  0  0  0  0  0  0  0  0  0  0  0
   11.5846  -25.5400  -20.5563 N   0  0  0  0  0  0  0  0  0  0  0  0
   15.6319  -22.7123  -22.1576 C   0  0  0  0  0  0  0  0  0  0  0  0
   14.4058  -22.9660  -22.7751 C   0  0  0  0  0  0  0  0  0  0  0  0
   13.5390  -23.9396  -22.2701 C   0  0  0  0  0  0  0  0  0  0  0  0
   13.8893  -24.6808  -21.1343 C   0  0  0  0  0  0  0  0  0  0  0  0
   15.1196  -24.4201  -20.5170 C   0  0  0  0  0  0  0  0  0  0  0  0
   15.9856  -23.4431  -21.0245 C   0  0  0  0  0  0  0  0  0  0  0  0
   16.0730  -20.3910  -22.4123 C   0  0  0  0  0  0  0  0  0  0  0  0
   16.3813  -21.7365  -22.7538 O   0  0  0  0  0  0  0  0  0  0  0  0
    8.5214  -24.0911  -20.9569 N   0  0  0  0  0  0  0  0  0  0  0  0
    8.6704  -23.4637  -21.7009 H   0  0  0  0  0  0  0  0  0  0  0  0
    7.2378  -23.9903  -20.3914 C   0  0  0  0  0  0  0  0  0  0  0  0
    6.2431  -24.8790  -20.8177 C   0  0  0  0  0  0  0  0  0  0  0  0
    4.9442  -24.8278  -20.2919 C   0  0  0  0  0  0  0  0  0  0  0  0
    4.5794  -23.8926  -19.3142 C   0  0  0  0  0  0  0  0  0  0  0  0
    5.5723  -22.9953  -18.9074 C   0  0  0  0  0  0  0  0  0  0  0  0
    6.8758  -23.0461  -19.4313 C   0  0  0  0  0  0  0  0  0  0  0  0
    3.2632  -23.8763  -18.8267 N   0  0  0  0  0  0  0  0  0  0  0  0
    3.0051  -23.1680  -17.5546 C   0  0  0  0  0  0  0  0  0  0  0  0
    1.4846  -23.0553  -17.2951 C   0  0  0  0  0  0  0  0  0  0  0  0
    0.8129  -24.3740  -17.2818 N   0  0  0  0  0  0  0  0  0  0  0  0
   -0.6252  -24.2168  -17.0781 C   0  0  0  0  0  0  0  0  0  0  0  0
    1.0864  -25.0630  -18.5625 C   0  0  0  0  0  0  0  0  0  0  0  0
    2.5981  -25.2022  -18.8651 C   0  0  0  0  0  0  0  0  0  0  0  0
 17 18  1  0
 18 11  1  0
 11 12  2  0
 12 13  1  0
 13 14  2  0
 14  1  1  0
  1  2  2  0
  2  3  1  0
  3  4  1  0
  3  5  2  0
  5  6  1  0
  6  7  2  0
  7  8  1  0
  8 19  1  0
 19 21  1  0
 21 22  2  0
 22 23  1  0
 23 24  2  0
 24 27  1  0
 27 28  1  0
 28 29  1  0
 29 30  1  0
 30 31  1  0
 30 32  1  0
 32 33  1  0
 24 25  1  0
 25 26  2  0
  8  9  2  0
  9 10  1  0
 14 15  1  0
 15 16  2  0
 16 11  1  0
 10  1  1  0
 10  6  1  0
 26 21  1  0
 33 27  1  0
 19 20  1  0
M  END
> <minimizedAffinity>
-8.69031

> <CNNscore>
0.3761798739

> <CNNaffinity>
6.5538077354

> <CNN_VS>
2.4654104710

> <CNNaffinity_variance>
0.1394034773

$$$$



 33 37  0  0  0  0  0  0  0  0999 V2000
   12.6834  -25.6240  -20.6781 C   0  0  0  0  0  0  0  0  0  0  0  0
   13.2767  -26.7634  -20.2552 C   0  0  0  0  0  0  0  0  0  0  0  0
   12.4697  -27.8326  -19.6891 C   0  0  0  0  0  0  0  0  0  0  0  0
   13.2780  -29.2651  -19.1738 Cl  0  0  0  0  0  0  0  0  0  0  0  0
   11.1359  -27.7169  -19.5659 C   0  0  0  0  0  0  0  0  0  0  0  0
   10.4960  -26.5250  -19.9989 C   0  0  0  0  0  0  0  0  0  0  0  0
    9.2363  -26.1626  -19.9912 N   0  0  0  0  0  0  0  0  0  0  0  0
    9.2554  -24.9139  -20.5382 C   0  0  0  0  0  0  0  0  0  0  0  0
   10.4675  -24.4754  -20.8807 N   0  0  0  0  0  0  0  0  0  0  0  0
   11.2824  -25.5062  -20.5434 N   0  0  0  0  0  0  0  0  0  0  0  0
   15.0999  -22.4779  -22.3290 C   0  0  0  0  0  0  0  0  0  0  0  0
   13.7157  -22.4781  -22.5104 C   0  0  0  0  0  0  0  0  0  0  0  0
   12.9242  -23.4969  -21.9720 C   0  0  0  0  0  0  0  0  0  0  0  0
   13.5096  -24.5391  -21.2418 C   0  0  0  0  0  0  0  0  0  0  0  0
   14.8988  -24.5324  -21.0603 C   0  0  0  0  0  0  0  0  0  0  0  0
   15.6892  -23.5096  -21.6000 C   0  0  0  0  0  0  0  0  0  0  0  0
   15.7131  -20.1848  -22.2130 C   0  0  0  0  0  0  0  0  0  0  0  0
   15.7523  -21.4250  -22.9076 O   0  0  0  0  0  0  0  0  0  0  0  0
    8.1443  -24.1778  -20.7170 N   0  0  0  0  0  0  0  0  0  0  0  0
    7.4077  -24.4305  -20.1147 H   0  0  0  0  0  0  0  0  0  0  0  0
    7.8163  -23.1218  -21.5860 C   0  0  0  0  0  0  0  0  0  0  0  0
    8.0547  -21.8070  -21.1671 C   0  0  0  0  0  0  0  0  0  0  0  0
    7.7482  -20.7124  -21.9882 C   0  0  0  0  0  0  0  0  0  0  0  0
    7.1955  -20.8786  -23.2651 C   0  0  0  0  0  0  0  0  0  0  0  0
    6.9417  -22.1935  -23.6691 C   0  0  0  0  0  0  0  0  0  0  0  0
    7.2502  -23.2926  -22.8488 C   0  0  0  0  0  0  0  0  0  0  0  0
    6.8979  -19.7497  -24.0445 N   0  0  0  0  0  0  0  0  0  0  0  0
    5.8679  -19.8870  -25.0965 C   0  0  0  0  0  0  0  0  0  0  0  0
    5.5101  -18.5040  -25.6892 C   0  0  0  0  0  0  0  0  0  0  0  0
    6.6917  -17.7972  -26.2316 N   0  0  0  0  0  0  0  0  0  0  0  0
    6.3151  -16.4803  -26.7396 C   0  0  0  0  0  0  0  0  0  0  0  0
    7.7073  -17.6733  -25.1625 C   0  0  0  0  0  0  0  0  0  0  0  0
    8.1003  -19.0346  -24.5392 C   0  0  0  0  0  0  0  0  0  0  0  0
 17 18  1  0
 18 11  1  0
 11 12  2  0
 12 13  1  0
 13 14  2  0
 14  1  1  0
  1  2  2  0
  2  3  1  0
  3  4  1  0
  3  5  2  0
  5  6  1  0
  6  7  2  0
  7  8  1  0
  8 19  1  0
 19 21  1  0
 21 22  2  0
 22 23  1  0
 23 24  2  0
 24 27  1  0
 27 28  1  0
 28 29  1  0
 29 30  1  0
 30 31  1  0
 30 32  1  0
 32 33  1  0
 24 25  1  0
 25 26  2  0
  8  9  2  0
  9 10  1  0
 14 15  1  0
 15 16  2  0
 16 11  1  0
 10  1  1  0
 10  6  1  0
 26 21  1  0
 33 27  1  0
 19 20  1  0
M  END
> <minimizedAffinity>
-7.81964

> <CNNscore>
0.3664655387

> <CNNaffinity>
6.2829070091

> <CNN_VS>
2.3024690151

> <CNNaffinity_variance>
0.1834943444

$$$$
