


 30 33  0  0  0  0  0  0  0  0999 V2000
   42.2963   -1.8379   30.6199 C   0  0  0  0  0  0  0  0  0  0  0  0
   42.3987   -3.0284   29.9257 C   0  0  0  0  0  0  0  0  0  0  0  0
   43.0689   -2.7740   28.6986 C   0  0  0  0  0  0  0  0  0  0  0  0
   43.4079   -3.5701   27.5895 C   0  0  0  0  0  0  0  0  0  0  0  0
   44.0937   -2.9863   26.5088 C   0  0  0  0  0  0  0  0  0  0  0  0
   44.4635   -1.6355   26.5546 C   0  0  0  0  0  0  0  0  0  0  0  0
   44.1098   -0.8282   27.6380 C   0  0  0  0  0  0  0  0  0  0  0  0
   43.4057   -1.4285   28.6829 C   0  0  0  0  0  0  0  0  0  0  0  0
   42.8774   -0.8770   29.8225 N   0  0  0  0  0  0  0  0  0  0  0  0
   42.9094    0.0821   30.0420 H   0  0  0  0  0  0  0  0  0  0  0  0
   40.0447   -0.2422   33.2719 C   0  0  0  0  0  0  0  0  0  0  0  0
   40.6115   -0.8687   34.4177 C   0  0  0  0  0  0  0  0  0  0  0  0
   41.6587   -1.7697   34.3241 C   0  0  0  0  0  0  0  0  0  0  0  0
   42.1699   -2.0691   33.0718 C   0  0  0  0  0  0  0  0  0  0  0  0
   41.6606   -1.4590   31.9065 C   0  0  0  0  0  0  0  0  0  0  0  0
   40.5805   -0.4937   31.9571 C   0  0  0  0  0  0  0  0  0  0  0  0
   40.1315    0.0949   30.9015 O   0  0  0  0  0  0  0  0  0  0  0  0
   36.6241    2.2977   34.0190 C   0  0  0  0  0  0  0  0  0  0  0  0
   36.5790    1.3289   33.0181 C   0  0  0  0  0  0  0  0  0  0  0  0
   37.6971    0.5269   32.7729 C   0  0  0  0  0  0  0  0  0  0  0  0
   38.8810    0.6615   33.5240 C   0  0  0  0  0  0  0  0  0  0  0  0
   38.9003    1.6455   34.5232 C   0  0  0  0  0  0  0  0  0  0  0  0
   37.7871    2.4641   34.7677 C   0  0  0  0  0  0  0  0  0  0  0  0
   44.3938   -3.7951   25.3313 C   0  0  0  0  0  0  0  0  0  0  0  0
   44.4025   -5.1049   25.4574 N   0  0  0  0  0  0  0  0  0  0  0  0
   44.6506   -3.1984   24.1853 N   0  0  0  0  0  0  0  0  0  0  0  0
   44.2057   -5.5168   26.3297 H   0  0  0  0  0  0  0  0  0  0  0  0
   44.6058   -5.6730   24.6795 H   0  0  0  0  0  0  0  0  0  0  0  0
   44.6352   -2.2158   24.1276 H   0  0  0  0  0  0  0  0  0  0  0  0
   44.8580   -3.7352   23.3865 H   0  0  0  0  0  0  0  0  0  0  0  0
 18 19  2  0
 19 20  1  0
 20 21  2  0
 21 11  1  0
 11 12  2  0
 12 13  1  0
 13 14  2  0
 14 15  1  0
 15  1  1  0
  1  2  2  0
  2  3  1  0
  3  4  2  0
  4  5  1  0
  5 24  1  0
 24 25  1  0
 24 26  2  0
  5  6  2  0
  6  7  1  0
  7  8  2  0
  8  9  1  0
 15 16  2  0
 16 17  1  0
 21 22  1  0
 22 23  2  0
 23 18  1  0
 16 11  1  0
  9  1  1  0
  8  3  1  0
 25 27  1  0
 25 28  1  0
 26 29  1  0
 26 30  1  0
  9 10  1  0
M  CHG 1  17  -1
M  CHG 1  26   1
M  END
> <minimizedAffinity>
-9.04250

> <CNNscore>
0.9466689229

> <CNNaffinity>
6.4377555847

> <CNN_VS>
6.0944232941

> <CNNaffinity_variance>
0.0109237852

$$$$



 30 33  0  0  0  0  0  0  0  0999 V2000
   43.7136   -2.2915   30.9466 C   0  0  0  0  0  0  0  0  0  0  0  0
   43.6178   -3.4321   30.1724 C   0  0  0  0  0  0  0  0  0  0  0  0
   43.9134   -3.0849   28.8264 C   0  0  0  0  0  0  0  0  0  0  0  0
   43.9266   -3.8003   27.6153 C   0  0  0  0  0  0  0  0  0  0  0  0
   44.2781   -3.1336   26.4274 C   0  0  0  0  0  0  0  0  0  0  0  0
   44.6433   -1.7812   26.4588 C   0  0  0  0  0  0  0  0  0  0  0  0
   44.6088   -1.0532   27.6502 C   0  0  0  0  0  0  0  0  0  0  0  0
   44.2297   -1.7345   28.8079 C   0  0  0  0  0  0  0  0  0  0  0  0
   44.0440   -1.2691   30.0849 N   0  0  0  0  0  0  0  0  0  0  0  0
   44.1351   -0.3256   30.3512 H   0  0  0  0  0  0  0  0  0  0  0  0
   43.8396   -0.8000   34.4692 C   0  0  0  0  0  0  0  0  0  0  0  0
   42.8703   -1.6460   35.0785 C   0  0  0  0  0  0  0  0  0  0  0  0
   42.2064   -2.6355   34.3733 C   0  0  0  0  0  0  0  0  0  0  0  0
   42.4980   -2.8054   33.0296 C   0  0  0  0  0  0  0  0  0  0  0  0
   43.4667   -2.0099   32.3828 C   0  0  0  0  0  0  0  0  0  0  0  0
   44.2027   -0.9774   33.0850 C   0  0  0  0  0  0  0  0  0  0  0  0
   45.1142   -0.2687   32.5113 O   0  0  0  0  0  0  0  0  0  0  0  0
   45.4609    2.2817   37.0352 C   0  0  0  0  0  0  0  0  0  0  0  0
   44.3995    2.5635   36.1771 C   0  0  0  0  0  0  0  0  0  0  0  0
   43.8964    1.5648   35.3387 C   0  0  0  0  0  0  0  0  0  0  0  0
   44.4289    0.2608   35.3419 C   0  0  0  0  0  0  0  0  0  0  0  0
   45.4978    0.0049   36.2131 C   0  0  0  0  0  0  0  0  0  0  0  0
   46.0180    1.0048   37.0490 C   0  0  0  0  0  0  0  0  0  0  0  0
   44.2346   -3.8581   25.1609 C   0  0  0  0  0  0  0  0  0  0  0  0
   44.6358   -3.2386   24.0715 N   0  0  0  0  0  0  0  0  0  0  0  0
   43.7941   -5.0994   25.1408 N   0  0  0  0  0  0  0  0  0  0  0  0
   44.9591   -2.3102   24.1239 H   0  0  0  0  0  0  0  0  0  0  0  0
   44.6128   -3.7036   23.2040 H   0  0  0  0  0  0  0  0  0  0  0  0
   43.5018   -5.5316   25.9757 H   0  0  0  0  0  0  0  0  0  0  0  0
   43.7573   -5.5949   24.2909 H   0  0  0  0  0  0  0  0  0  0  0  0
 18 19  2  0
 19 20  1  0
 20 21  2  0
 21 11  1  0
 11 12  2  0
 12 13  1  0
 13 14  2  0
 14 15  1  0
 15  1  1  0
  1  2  2  0
  2  3  1  0
  3  4  2  0
  4  5  1  0
  5 24  1  0
 24 25  1  0
 24 26  2  0
  5  6  2  0
  6  7  1  0
  7  8  2  0
  8  9  1  0
 15 16  2  0
 16 17  1  0
 21 22  1  0
 22 23  2  0
 23 18  1  0
 16 11  1  0
  9  1  1  0
  8  3  1  0
 25 27  1  0
 25 28  1  0
 26 29  1  0
 26 30  1  0
  9 10  1  0
M  CHG 1  17  -1
M  CHG 1  26   1
M  END
> <minimizedAffinity>
-9.32042

> <CNNscore>
0.9421711564

> <CNNaffinity>
6.3384361267

> <CNN_VS>
5.9718918800

> <CNNaffinity_variance>
0.0334782489

$$$$



 30 33  0  0  0  0  0  0  0  0999 V2000
   43.3655   -2.4618   31.0453 C   0  0  0  0  0  0  0  0  0  0  0  0
   43.2638   -3.5604   30.2131 C   0  0  0  0  0  0  0  0  0  0  0  0
   43.7212   -3.1861   28.9207 C   0  0  0  0  0  0  0  0  0  0  0  0
   43.8046   -3.8528   27.6850 C   0  0  0  0  0  0  0  0  0  0  0  0
   44.3253   -3.1708   26.5702 C   0  0  0  0  0  0  0  0  0  0  0  0
   44.7864   -1.8540   26.7006 C   0  0  0  0  0  0  0  0  0  0  0  0
   44.6849   -1.1723   27.9153 C   0  0  0  0  0  0  0  0  0  0  0  0
   44.1388   -1.8655   28.9966 C   0  0  0  0  0  0  0  0  0  0  0  0
   43.8587   -1.4365   30.2692 N   0  0  0  0  0  0  0  0  0  0  0  0
   43.9929   -0.5143   30.5868 H   0  0  0  0  0  0  0  0  0  0  0  0
   42.1622   -0.8414   34.2972 C   0  0  0  0  0  0  0  0  0  0  0  0
   42.3678   -1.9534   35.1620 C   0  0  0  0  0  0  0  0  0  0  0  0
   42.8578   -3.1644   34.7033 C   0  0  0  0  0  0  0  0  0  0  0  0
   43.1575   -3.2948   33.3570 C   0  0  0  0  0  0  0  0  0  0  0  0
   42.9945   -2.2172   32.4615 C   0  0  0  0  0  0  0  0  0  0  0  0
   42.5061   -0.9248   32.8994 C   0  0  0  0  0  0  0  0  0  0  0  0
   42.3865    0.0760   32.0954 O   0  0  0  0  0  0  0  0  0  0  0  0
   40.3982    2.6383   36.1653 C   0  0  0  0  0  0  0  0  0  0  0  0
   39.6033    1.7356   35.4614 C   0  0  0  0  0  0  0  0  0  0  0  0
   40.1871    0.6250   34.8457 C   0  0  0  0  0  0  0  0  0  0  0  0
   41.5720    0.3801   34.9249 C   0  0  0  0  0  0  0  0  0  0  0  0
   42.3489    1.3054   35.6372 C   0  0  0  0  0  0  0  0  0  0  0  0
   41.7733    2.4302   36.2475 C   0  0  0  0  0  0  0  0  0  0  0  0
   44.3574   -3.8399   25.2732 C   0  0  0  0  0  0  0  0  0  0  0  0
   44.7182   -3.1420   24.2177 N   0  0  0  0  0  0  0  0  0  0  0  0
   44.0225   -5.1114   25.1931 N   0  0  0  0  0  0  0  0  0  0  0  0
   44.9621   -2.1931   24.3148 H   0  0  0  0  0  0  0  0  0  0  0  0
   44.7443   -3.5686   23.3308 H   0  0  0  0  0  0  0  0  0  0  0  0
   43.7575   -5.6027   26.0041 H   0  0  0  0  0  0  0  0  0  0  0  0
   44.0371   -5.5704   24.3223 H   0  0  0  0  0  0  0  0  0  0  0  0
 18 19  2  0
 19 20  1  0
 20 21  2  0
 21 11  1  0
 11 12  2  0
 12 13  1  0
 13 14  2  0
 14 15  1  0
 15  1  1  0
  1  2  2  0
  2  3  1  0
  3  4  2  0
  4  5  1  0
  5 24  1  0
 24 25  1  0
 24 26  2  0
  5  6  2  0
  6  7  1  0
  7  8  2  0
  8  9  1  0
 15 16  2  0
 16 17  1  0
 21 22  1  0
 22 23  2  0
 23 18  1  0
 16 11  1  0
  9  1  1  0
  8  3  1  0
 25 27  1  0
 25 28  1  0
 26 29  1  0
 26 30  1  0
  9 10  1  0
M  CHG 1  17  -1
M  CHG 1  26   1
M  END
> <minimizedAffinity>
-8.78026

> <CNNscore>
0.9361895919

> <CNNaffinity>
6.1307969093

> <CNN_VS>
5.7395882607

> <CNNaffinity_variance>
0.0804377198

$$$$



 30 33  0  0  0  0  0  0  0  0999 V2000
   43.2858   -2.3461   31.0625 C   0  0  0  0  0  0  0  0  0  0  0  0
   43.1738   -3.4501   30.2388 C   0  0  0  0  0  0  0  0  0  0  0  0
   43.6681   -3.1005   28.9531 C   0  0  0  0  0  0  0  0  0  0  0  0
   43.7607   -3.7816   27.7258 C   0  0  0  0  0  0  0  0  0  0  0  0
   44.3223   -3.1242   26.6160 C   0  0  0  0  0  0  0  0  0  0  0  0
   44.8140   -1.8183   26.7439 C   0  0  0  0  0  0  0  0  0  0  0  0
   44.7041   -1.1221   27.9495 C   0  0  0  0  0  0  0  0  0  0  0  0
   44.1175   -1.7902   29.0254 C   0  0  0  0  0  0  0  0  0  0  0  0
   43.8214   -1.3415   30.2875 N   0  0  0  0  0  0  0  0  0  0  0  0
   43.9723   -0.4199   30.5991 H   0  0  0  0  0  0  0  0  0  0  0  0
   42.5582   -2.7047   34.8029 C   0  0  0  0  0  0  0  0  0  0  0  0
   42.0925   -1.3811   35.0431 C   0  0  0  0  0  0  0  0  0  0  0  0
   42.0341   -0.4261   34.0423 C   0  0  0  0  0  0  0  0  0  0  0  0
   42.4432   -0.7739   32.7651 C   0  0  0  0  0  0  0  0  0  0  0  0
   42.8910   -2.0780   32.4679 C   0  0  0  0  0  0  0  0  0  0  0  0
   42.9484   -3.1166   33.4773 C   0  0  0  0  0  0  0  0  0  0  0  0
   43.3234   -4.3204   33.2079 O   0  0  0  0  0  0  0  0  0  0  0  0
   42.6819   -5.2552   38.2943 C   0  0  0  0  0  0  0  0  0  0  0  0
   43.1262   -3.9362   38.3673 C   0  0  0  0  0  0  0  0  0  0  0  0
   43.0994   -3.1272   37.2279 C   0  0  0  0  0  0  0  0  0  0  0  0
   42.6200   -3.6068   35.9932 C   0  0  0  0  0  0  0  0  0  0  0  0
   42.1813   -4.9381   35.9470 C   0  0  0  0  0  0  0  0  0  0  0  0
   42.2168   -5.7616   37.0827 C   0  0  0  0  0  0  0  0  0  0  0  0
   44.3649   -3.8070   25.3265 C   0  0  0  0  0  0  0  0  0  0  0  0
   44.7164   -3.1155   24.2636 N   0  0  0  0  0  0  0  0  0  0  0  0
   44.0484   -5.0840   25.2602 N   0  0  0  0  0  0  0  0  0  0  0  0
   44.9465   -2.1622   24.3504 H   0  0  0  0  0  0  0  0  0  0  0  0
   44.7492   -3.5514   23.3815 H   0  0  0  0  0  0  0  0  0  0  0  0
   43.7900   -5.5701   26.0764 H   0  0  0  0  0  0  0  0  0  0  0  0
   44.0703   -5.5522   24.3944 H   0  0  0  0  0  0  0  0  0  0  0  0
 18 19  2  0
 19 20  1  0
 20 21  2  0
 21 11  1  0
 11 12  2  0
 12 13  1  0
 13 14  2  0
 14 15  1  0
 15  1  1  0
  1  2  2  0
  2  3  1  0
  3  4  2  0
  4  5  1  0
  5 24  1  0
 24 25  1  0
 24 26  2  0
  5  6  2  0
  6  7  1  0
  7  8  2  0
  8  9  1  0
 15 16  2  0
 16 17  1  0
 21 22  1  0
 22 23  2  0
 23 18  1  0
 16 11  1  0
  9  1  1  0
  8  3  1  0
 25 27  1  0
 25 28  1  0
 26 29  1  0
 26 30  1  0
  9 10  1  0
M  CHG 1  17  -1
M  CHG 1  26   1
M  END
> <minimizedAffinity>
-7.67304

> <CNNscore>
0.8944157958

> <CNNaffinity>
5.8169956207

> <CNN_VS>
5.2028126717

> <CNNaffinity_variance>
0.0632942766

$$$$



 30 33  0  0  0  0  0  0  0  0999 V2000
   42.2276   -1.7521   30.5444 C   0  0  0  0  0  0  0  0  0  0  0  0
   42.2941   -2.9530   29.8639 C   0  0  0  0  0  0  0  0  0  0  0  0
   43.0023   -2.7403   28.6503 C   0  0  0  0  0  0  0  0  0  0  0  0
   43.3316   -3.5617   27.5568 C   0  0  0  0  0  0  0  0  0  0  0  0
   44.0665   -3.0191   26.4869 C   0  0  0  0  0  0  0  0  0  0  0  0
   44.4933   -1.6851   26.5286 C   0  0  0  0  0  0  0  0  0  0  0  0
   44.1505   -0.8522   27.5960 C   0  0  0  0  0  0  0  0  0  0  0  0
   43.3974   -1.4109   28.6299 C   0  0  0  0  0  0  0  0  0  0  0  0
   42.8677   -0.8254   29.7517 N   0  0  0  0  0  0  0  0  0  0  0  0
   42.9363    0.1337   29.9630 H   0  0  0  0  0  0  0  0  0  0  0  0
   39.6988   -1.1780   33.3595 C   0  0  0  0  0  0  0  0  0  0  0  0
   40.5447   -0.4477   34.2414 C   0  0  0  0  0  0  0  0  0  0  0  0
   41.8672   -0.1730   33.9369 C   0  0  0  0  0  0  0  0  0  0  0  0
   42.3812   -0.6251   32.7324 C   0  0  0  0  0  0  0  0  0  0  0  0
   41.5798   -1.3328   31.8124 C   0  0  0  0  0  0  0  0  0  0  0  0
   40.1850   -1.6244   32.0775 C   0  0  0  0  0  0  0  0  0  0  0  0
   39.4355   -2.2402   31.2282 O   0  0  0  0  0  0  0  0  0  0  0  0
   35.7239   -1.9845   34.8628 C   0  0  0  0  0  0  0  0  0  0  0  0
   36.6901   -2.9888   34.8469 C   0  0  0  0  0  0  0  0  0  0  0  0
   37.9653   -2.7218   34.3410 C   0  0  0  0  0  0  0  0  0  0  0  0
   38.3129   -1.4481   33.8502 C   0  0  0  0  0  0  0  0  0  0  0  0
   37.3214   -0.4566   33.8755 C   0  0  0  0  0  0  0  0  0  0  0  0
   36.0344   -0.7191   34.3695 C   0  0  0  0  0  0  0  0  0  0  0  0
   44.3579   -3.8522   25.3242 C   0  0  0  0  0  0  0  0  0  0  0  0
   44.7386   -3.2623   24.2112 N   0  0  0  0  0  0  0  0  0  0  0  0
   44.2284   -5.1598   25.4168 N   0  0  0  0  0  0  0  0  0  0  0  0
   44.8247   -2.2821   24.1782 H   0  0  0  0  0  0  0  0  0  0  0  0
   44.9373   -3.8011   23.4116 H   0  0  0  0  0  0  0  0  0  0  0  0
   43.9412   -5.5672   26.2658 H   0  0  0  0  0  0  0  0  0  0  0  0
   44.4187   -5.7298   24.6369 H   0  0  0  0  0  0  0  0  0  0  0  0
 18 19  2  0
 19 20  1  0
 20 21  2  0
 21 11  1  0
 11 12  2  0
 12 13  1  0
 13 14  2  0
 14 15  1  0
 15  1  1  0
  1  2  2  0
  2  3  1  0
  3  4  2  0
  4  5  1  0
  5 24  1  0
 24 25  1  0
 24 26  2  0
  5  6  2  0
  6  7  1  0
  7  8  2  0
  8  9  1  0
 15 16  2  0
 16 17  1  0
 21 22  1  0
 22 23  2  0
 23 18  1  0
 16 11  1  0
  9  1  1  0
  8  3  1  0
 25 27  1  0
 25 28  1  0
 26 29  1  0
 26 30  1  0
  9 10  1  0
M  CHG 1  17  -1
M  CHG 1  26   1
M  END
> <minimizedAffinity>
-7.63604

> <CNNscore>
0.8931754231

> <CNNaffinity>
6.2983436584

> <CNN_VS>
5.6255259514

> <CNNaffinity_variance>
0.0428670608

$$$$



 30 33  0  0  0  0  0  0  0  0999 V2000
   43.5895   -2.1549   31.3495 C   0  0  0  0  0  0  0  0  0  0  0  0
   43.8492   -1.3240   30.2762 C   0  0  0  0  0  0  0  0  0  0  0  0
   43.8544   -2.1109   29.0928 C   0  0  0  0  0  0  0  0  0  0  0  0
   44.1036   -1.8310   27.7370 C   0  0  0  0  0  0  0  0  0  0  0  0
   44.0205   -2.8719   26.7942 C   0  0  0  0  0  0  0  0  0  0  0  0
   43.6599   -4.1639   27.1993 C   0  0  0  0  0  0  0  0  0  0  0  0
   43.4358   -4.4603   28.5456 C   0  0  0  0  0  0  0  0  0  0  0  0
   43.5524   -3.4136   29.4614 C   0  0  0  0  0  0  0  0  0  0  0  0
   43.4567   -3.4235   30.8298 N   0  0  0  0  0  0  0  0  0  0  0  0
   43.3117   -4.2331   31.3708 H   0  0  0  0  0  0  0  0  0  0  0  0
   43.9065   -0.6530   34.8555 C   0  0  0  0  0  0  0  0  0  0  0  0
   43.3009   -1.7161   35.5833 C   0  0  0  0  0  0  0  0  0  0  0  0
   42.8065   -2.8494   34.9602 C   0  0  0  0  0  0  0  0  0  0  0  0
   42.9066   -2.9491   33.5820 C   0  0  0  0  0  0  0  0  0  0  0  0
   43.5184   -1.9352   32.8157 C   0  0  0  0  0  0  0  0  0  0  0  0
   44.0700   -0.7416   33.4257 C   0  0  0  0  0  0  0  0  0  0  0  0
   44.6617    0.1743   32.7377 O   0  0  0  0  0  0  0  0  0  0  0  0
   45.2443    2.7670   37.1412 C   0  0  0  0  0  0  0  0  0  0  0  0
   45.8758    1.5327   37.2822 C   0  0  0  0  0  0  0  0  0  0  0  0
   45.4226    0.4300   36.5527 C   0  0  0  0  0  0  0  0  0  0  0  0
   44.3391    0.5314   35.6584 C   0  0  0  0  0  0  0  0  0  0  0  0
   43.7203    1.7841   35.5374 C   0  0  0  0  0  0  0  0  0  0  0  0
   44.1601    2.8936   36.2755 C   0  0  0  0  0  0  0  0  0  0  0  0
   44.3372   -2.5973   25.3959 C   0  0  0  0  0  0  0  0  0  0  0  0
   44.6894   -3.6036   24.6247 N   0  0  0  0  0  0  0  0  0  0  0  0
   44.2679   -1.3604   24.9480 N   0  0  0  0  0  0  0  0  0  0  0  0
   44.7304   -4.5155   24.9935 H   0  0  0  0  0  0  0  0  0  0  0  0
   44.9118   -3.4447   23.6789 H   0  0  0  0  0  0  0  0  0  0  0  0
   44.0005   -0.6318   25.5538 H   0  0  0  0  0  0  0  0  0  0  0  0
   44.4834   -1.1646   24.0076 H   0  0  0  0  0  0  0  0  0  0  0  0
 18 19  2  0
 19 20  1  0
 20 21  2  0
 21 11  1  0
 11 12  2  0
 12 13  1  0
 13 14  2  0
 14 15  1  0
 15  1  1  0
  1  2  2  0
  2  3  1  0
  3  4  2  0
  4  5  1  0
  5 24  1  0
 24 25  1  0
 24 26  2  0
  5  6  2  0
  6  7  1  0
  7  8  2  0
  8  9  1  0
 15 16  2  0
 16 17  1  0
 21 22  1  0
 22 23  2  0
 23 18  1  0
 16 11  1  0
  9  1  1  0
  8  3  1  0
 25 27  1  0
 25 28  1  0
 26 29  1  0
 26 30  1  0
  9 10  1  0
M  CHG 1  17  -1
M  CHG 1  26   1
M  END
> <minimizedAffinity>
-8.41178

> <CNNscore>
0.8373510242

> <CNNaffinity>
5.9131927490

> <CNN_VS>
4.9514179230

> <CNNaffinity_variance>
0.2237079293

$$$$



 30 33  0  0  0  0  0  0  0  0999 V2000
   42.7437   -4.6362   30.8031 C   0  0  0  0  0  0  0  0  0  0  0  0
   42.8233   -5.0892   29.4999 C   0  0  0  0  0  0  0  0  0  0  0  0
   43.3591   -4.0467   28.6963 C   0  0  0  0  0  0  0  0  0  0  0  0
   43.6180   -3.9112   27.3203 C   0  0  0  0  0  0  0  0  0  0  0  0
   44.1710   -2.7101   26.8403 C   0  0  0  0  0  0  0  0  0  0  0  0
   44.4908   -1.6755   27.7296 C   0  0  0  0  0  0  0  0  0  0  0  0
   44.2144   -1.7872   29.0940 C   0  0  0  0  0  0  0  0  0  0  0  0
   43.6404   -2.9798   29.5370 C   0  0  0  0  0  0  0  0  0  0  0  0
   43.2057   -3.3388   30.7877 N   0  0  0  0  0  0  0  0  0  0  0  0
   43.2220   -2.7454   31.5731 H   0  0  0  0  0  0  0  0  0  0  0  0
   42.3502   -6.7162   33.9917 C   0  0  0  0  0  0  0  0  0  0  0  0
   41.0707   -6.2338   34.3877 C   0  0  0  0  0  0  0  0  0  0  0  0
   40.3859   -5.2750   33.6605 C   0  0  0  0  0  0  0  0  0  0  0  0
   40.9682   -4.7704   32.5091 C   0  0  0  0  0  0  0  0  0  0  0  0
   42.2234   -5.2308   32.0595 C   0  0  0  0  0  0  0  0  0  0  0  0
   42.9669   -6.2487   32.7751 C   0  0  0  0  0  0  0  0  0  0  0  0
   44.0984   -6.7006   32.3536 O   0  0  0  0  0  0  0  0  0  0  0  0
   44.2763   -9.5971   36.5802 C   0  0  0  0  0  0  0  0  0  0  0  0
   43.8483   -9.9675   35.3066 C   0  0  0  0  0  0  0  0  0  0  0  0
   43.2099   -9.0331   34.4863 C   0  0  0  0  0  0  0  0  0  0  0  0
   42.9925   -7.7070   34.9083 C   0  0  0  0  0  0  0  0  0  0  0  0
   43.4309   -7.3616   36.1950 C   0  0  0  0  0  0  0  0  0  0  0  0
   44.0610   -8.2965   37.0305 C   0  0  0  0  0  0  0  0  0  0  0  0
   44.3848   -2.5441   25.4059 C   0  0  0  0  0  0  0  0  0  0  0  0
   44.2128   -1.3495   24.8816 N   0  0  0  0  0  0  0  0  0  0  0  0
   44.7360   -3.5855   24.6797 N   0  0  0  0  0  0  0  0  0  0  0  0
   43.9500   -0.5935   25.4549 H   0  0  0  0  0  0  0  0  0  0  0  0
   44.3468   -1.2117   23.9161 H   0  0  0  0  0  0  0  0  0  0  0  0
   44.8559   -4.4649   25.1058 H   0  0  0  0  0  0  0  0  0  0  0  0
   44.8787   -3.4844   23.7108 H   0  0  0  0  0  0  0  0  0  0  0  0
 18 19  2  0
 19 20  1  0
 20 21  2  0
 21 11  1  0
 11 12  2  0
 12 13  1  0
 13 14  2  0
 14 15  1  0
 15  1  1  0
  1  2  2  0
  2  3  1  0
  3  4  2  0
  4  5  1  0
  5 24  1  0
 24 25  1  0
 24 26  2  0
  5  6  2  0
  6  7  1  0
  7  8  2  0
  8  9  1  0
 15 16  2  0
 16 17  1  0
 21 22  1  0
 22 23  2  0
 23 18  1  0
 16 11  1  0
  9  1  1  0
  8  3  1  0
 25 27  1  0
 25 28  1  0
 26 29  1  0
 26 30  1  0
  9 10  1  0
M  CHG 1  17  -1
M  CHG 1  26   1
M  END
> <minimizedAffinity>
-6.76806

> <CNNscore>
0.8189924955

> <CNNaffinity>
5.7165107727

> <CNN_VS>
4.6817793846

> <CNNaffinity_variance>
0.1550595313

$$$$



 30 33  0  0  0  0  0  0  0  0999 V2000
   43.4339   -1.6189   31.7080 C   0  0  0  0  0  0  0  0  0  0  0  0
   43.9501   -1.1797   30.5037 C   0  0  0  0  0  0  0  0  0  0  0  0
   43.7606   -2.2033   29.5363 C   0  0  0  0  0  0  0  0  0  0  0  0
   44.1160   -2.3432   28.1825 C   0  0  0  0  0  0  0  0  0  0  0  0
   43.7627   -3.5201   27.4976 C   0  0  0  0  0  0  0  0  0  0  0  0
   43.0354   -4.5248   28.1497 C   0  0  0  0  0  0  0  0  0  0  0  0
   42.6996   -4.4095   29.5004 C   0  0  0  0  0  0  0  0  0  0  0  0
   43.0874   -3.2428   30.1610 C   0  0  0  0  0  0  0  0  0  0  0  0
   42.9563   -2.8905   31.4803 N   0  0  0  0  0  0  0  0  0  0  0  0
   42.5705   -3.4718   32.1749 H   0  0  0  0  0  0  0  0  0  0  0  0
   42.3719    0.2873   34.8525 C   0  0  0  0  0  0  0  0  0  0  0  0
   43.4987   -0.0247   35.6647 C   0  0  0  0  0  0  0  0  0  0  0  0
   44.5359   -0.8228   35.2129 C   0  0  0  0  0  0  0  0  0  0  0  0
   44.4722   -1.3330   33.9264 C   0  0  0  0  0  0  0  0  0  0  0  0
   43.3898   -1.0357   33.0722 C   0  0  0  0  0  0  0  0  0  0  0  0
   42.2926   -0.1873   33.4932 C   0  0  0  0  0  0  0  0  0  0  0  0
   41.3164    0.1181   32.7083 O   0  0  0  0  0  0  0  0  0  0  0  0
   39.3226    2.7485   36.6840 C   0  0  0  0  0  0  0  0  0  0  0  0
   40.6649    2.9237   37.0156 C   0  0  0  0  0  0  0  0  0  0  0  0
   41.6395    2.1097   36.4318 C   0  0  0  0  0  0  0  0  0  0  0  0
   41.3039    1.1110   35.4969 C   0  0  0  0  0  0  0  0  0  0  0  0
   39.9460    0.9543   35.1829 C   0  0  0  0  0  0  0  0  0  0  0  0
   38.9593    1.7582   35.7739 C   0  0  0  0  0  0  0  0  0  0  0  0
   44.1822   -3.6936   26.1102 C   0  0  0  0  0  0  0  0  0  0  0  0
   44.3319   -2.6209   25.3629 N   0  0  0  0  0  0  0  0  0  0  0  0
   44.3929   -4.9080   25.6454 N   0  0  0  0  0  0  0  0  0  0  0  0
   44.1656   -1.7284   25.7438 H   0  0  0  0  0  0  0  0  0  0  0  0
   44.6102   -2.7108   24.4228 H   0  0  0  0  0  0  0  0  0  0  0  0
   44.2711   -5.6881   26.2334 H   0  0  0  0  0  0  0  0  0  0  0  0
   44.6722   -5.0354   24.7100 H   0  0  0  0  0  0  0  0  0  0  0  0
 18 19  2  0
 19 20  1  0
 20 21  2  0
 21 11  1  0
 11 12  2  0
 12 13  1  0
 13 14  2  0
 14 15  1  0
 15  1  1  0
  1  2  2  0
  2  3  1  0
  3  4  2  0
  4  5  1  0
  5 24  1  0
 24 25  1  0
 24 26  2  0
  5  6  2  0
  6  7  1  0
  7  8  2  0
  8  9  1  0
 15 16  2  0
 16 17  1  0
 21 22  1  0
 22 23  2  0
 23 18  1  0
 16 11  1  0
  9  1  1  0
  8  3  1  0
 25 27  1  0
 25 28  1  0
 26 29  1  0
 26 30  1  0
  9 10  1  0
M  CHG 1  17  -1
M  CHG 1  26   1
M  END
> <minimizedAffinity>
-7.10524

> <CNNscore>
0.8038505912

> <CNNaffinity>
5.5025057793

> <CNN_VS>
4.4231925011

> <CNNaffinity_variance>
0.2334917933

$$$$



 30 33  0  0  0  0  0  0  0  0999 V2000
   42.0700   -1.3562   31.4406 C   0  0  0  0  0  0  0  0  0  0  0  0
   42.1822   -0.9959   30.1112 C   0  0  0  0  0  0  0  0  0  0  0  0
   42.8412   -2.0466   29.4174 C   0  0  0  0  0  0  0  0  0  0  0  0
   43.2661   -2.2209   28.0879 C   0  0  0  0  0  0  0  0  0  0  0  0
   43.9052   -3.4198   27.7225 C   0  0  0  0  0  0  0  0  0  0  0  0
   44.0841   -4.4400   28.6662 C   0  0  0  0  0  0  0  0  0  0  0  0
   43.6907   -4.2691   29.9952 C   0  0  0  0  0  0  0  0  0  0  0  0
   43.0843   -3.0585   30.3344 C   0  0  0  0  0  0  0  0  0  0  0  0
   42.6645   -2.5933   31.5547 N   0  0  0  0  0  0  0  0  0  0  0  0
   42.7740   -3.0810   32.4029 H   0  0  0  0  0  0  0  0  0  0  0  0
   39.7706    0.3468   33.9826 C   0  0  0  0  0  0  0  0  0  0  0  0
   40.7506    0.6397   34.9728 C   0  0  0  0  0  0  0  0  0  0  0  0
   42.0810    0.2875   34.8215 C   0  0  0  0  0  0  0  0  0  0  0  0
   42.4683   -0.3717   33.6662 C   0  0  0  0  0  0  0  0  0  0  0  0
   41.5422   -0.6652   32.6435 C   0  0  0  0  0  0  0  0  0  0  0  0
   40.1444   -0.2965   32.7474 C   0  0  0  0  0  0  0  0  0  0  0  0
   39.2976   -0.5294   31.8035 O   0  0  0  0  0  0  0  0  0  0  0  0
   35.6815    1.4623   34.8456 C   0  0  0  0  0  0  0  0  0  0  0  0
   36.4411    2.2060   33.9443 C   0  0  0  0  0  0  0  0  0  0  0  0
   37.7674    1.8475   33.6878 C   0  0  0  0  0  0  0  0  0  0  0  0
   38.3654    0.7354   34.3121 C   0  0  0  0  0  0  0  0  0  0  0  0
   37.5796    0.0060   35.2163 C   0  0  0  0  0  0  0  0  0  0  0  0
   36.2513    0.3663   35.4899 C   0  0  0  0  0  0  0  0  0  0  0  0
   44.4007   -3.5793   26.3587 C   0  0  0  0  0  0  0  0  0  0  0  0
   44.8208   -2.5103   25.7165 N   0  0  0  0  0  0  0  0  0  0  0  0
   44.4095   -4.7767   25.8098 N   0  0  0  0  0  0  0  0  0  0  0  0
   44.7998   -1.6307   26.1582 H   0  0  0  0  0  0  0  0  0  0  0  0
   45.1561   -2.5902   24.7943 H   0  0  0  0  0  0  0  0  0  0  0  0
   44.0875   -5.5546   26.3202 H   0  0  0  0  0  0  0  0  0  0  0  0
   44.7380   -4.8938   24.8892 H   0  0  0  0  0  0  0  0  0  0  0  0
 18 19  2  0
 19 20  1  0
 20 21  2  0
 21 11  1  0
 11 12  2  0
 12 13  1  0
 13 14  2  0
 14 15  1  0
 15  1  1  0
  1  2  2  0
  2  3  1  0
  3  4  2  0
  4  5  1  0
  5 24  1  0
 24 25  1  0
 24 26  2  0
  5  6  2  0
  6  7  1  0
  7  8  2  0
  8  9  1  0
 15 16  2  0
 16 17  1  0
 21 22  1  0
 22 23  2  0
 23 18  1  0
 16 11  1  0
  9  1  1  0
  8  3  1  0
 25 27  1  0
 25 28  1  0
 26 29  1  0
 26 30  1  0
  9 10  1  0
M  CHG 1  17  -1
M  CHG 1  26   1
M  END
> <minimizedAffinity>
-7.09337

> <CNNscore>
0.7889282703

> <CNNaffinity>
5.6437296867

> <CNN_VS>
4.4524979591

> <CNNaffinity_variance>
0.2917720973

$$$$
