


 34 35  0  0  0  0  0  0  0  0999 V2000
   20.9162   35.0092    4.3666 C   0  0  0  0  0  0  0  0  0  0  0  0
   18.9496   33.4691    4.8649 C   0  0  0  0  0  0  0  0  0  0  0  0
   18.0663   32.4375    4.5175 C   0  0  0  0  0  0  0  0  0  0  0  0
   17.1431   31.9996    5.4331 O   0  0  0  0  0  0  0  0  0  0  0  0
   18.1490   31.8411    3.2571 C   0  0  0  0  0  0  0  0  0  0  0  0
   17.0431   30.5738    2.8478 Cl  0  0  0  0  0  0  0  0  0  0  0  0
   19.1272   32.2611    2.3538 C   0  0  0  0  0  0  0  0  0  0  0  0
   19.2031   31.6571    1.1225 O   0  0  0  0  0  0  0  0  0  0  0  0
   20.0266   33.2813    2.7055 C   0  0  0  0  0  0  0  0  0  0  0  0
   21.2370   33.7270    1.5460 Cl  0  0  0  0  0  0  0  0  0  0  0  0
   19.9500   33.9106    3.9628 C   0  0  0  0  0  0  0  0  0  0  0  0
   17.0922   32.4035    6.2771 H   0  0  0  0  0  0  0  0  0  0  0  0
   18.5993   30.9774    0.8961 H   0  0  0  0  0  0  0  0  0  0  0  0
   18.8604   34.0662    6.2138 C   0  0  0  0  0  0  0  0  0  0  0  0
   19.7232   33.9248    7.0676 O   0  0  0  0  0  0  0  0  0  0  0  0
   17.5914   35.5068    7.5382 C   0  0  0  0  0  0  0  0  0  0  0  0
   17.7706   34.8648    6.2751 O   0  0  0  0  0  0  0  0  0  0  0  0
   22.2725   34.4502    4.7973 C   0  0  0  0  0  0  0  0  0  0  0  0
   22.7653   35.1579    6.0427 C   0  0  0  0  0  0  0  0  0  0  0  0
   23.8673   34.9032    6.5183 O   0  0  0  0  0  0  0  0  0  0  0  0
   21.8779   36.0931    6.5220 N   0  0  0  0  0  0  0  0  0  0  0  0
   21.0299   36.1529    6.0253 H   0  0  0  0  0  0  0  0  0  0  0  0
   21.9917   36.9836    7.6174 C   0  0  0  0  0  0  0  0  0  0  0  0
   20.7853   37.2423    8.2876 C   0  0  0  0  0  0  0  0  0  0  0  0
   20.7486   38.1096    9.3752 C   0  0  0  0  0  0  0  0  0  0  0  0
   19.5425   38.3298    9.9848 O   0  0  0  0  0  0  0  0  0  0  0  0
   21.8977   38.7459    9.8426 C   0  0  0  0  0  0  0  0  0  0  0  0
   23.0999   38.4961    9.1901 C   0  0  0  0  0  0  0  0  0  0  0  0
   23.1483   37.6252    8.0884 C   0  0  0  0  0  0  0  0  0  0  0  0
   24.4013   37.4914    7.5614 O   0  0  0  0  0  0  0  0  0  0  0  0
   18.7722   37.9006    9.6681 H   0  0  0  0  0  0  0  0  0  0  0  0
   25.1207   37.9582    7.9391 H   0  0  0  0  0  0  0  0  0  0  0  0
   21.7111   39.5704   10.9208 O   0  0  0  0  0  0  0  0  0  0  0  0
   22.2469   39.1198   12.1607 C   0  0  0  0  0  0  0  0  0  0  0  0
 16 17  1  0
 17 14  1  0
 14 15  2  0
 14  2  1  0
  2  3  2  0
  3  4  1  0
  3  5  1  0
  5  6  1  0
  5  7  2  0
  7  8  1  0
  7  9  1  0
  9 10  1  0
  9 11  2  0
 11  1  1  0
  1 18  1  0
 18 19  1  0
 19 20  2  0
 19 21  1  0
 21 23  1  0
 23 24  2  0
 24 25  1  0
 25 26  1  0
 25 27  2  0
 27 33  1  0
 33 34  1  0
 27 28  1  0
 28 29  2  0
 29 30  1  0
 11  2  1  0
 29 23  1  0
  4 12  1  0
  8 13  1  0
 21 22  1  0
 26 31  1  0
 30 32  1  0
M  END
> <minimizedAffinity>
-6.88704

> <CNNscore>
0.7770271897

> <CNNaffinity>
6.0814328194

> <CNN_VS>
4.7254385948

> <CNNaffinity_variance>
0.0468827076

$$$$



 34 35  0  0  0  0  0  0  0  0999 V2000
   20.6245   35.3166    4.3939 C   0  0  0  0  0  0  0  0  0  0  0  0
   18.6294   33.8248    4.9249 C   0  0  0  0  0  0  0  0  0  0  0  0
   17.7752   32.7512    4.6369 C   0  0  0  0  0  0  0  0  0  0  0  0
   16.7888   32.4128    5.5284 O   0  0  0  0  0  0  0  0  0  0  0  0
   17.9500   32.0141    3.4632 C   0  0  0  0  0  0  0  0  0  0  0  0
   16.8787   30.6971    3.1252 Cl  0  0  0  0  0  0  0  0  0  0  0  0
   18.9904   32.3368    2.5899 C   0  0  0  0  0  0  0  0  0  0  0  0
   19.1563   31.5955    1.4456 O   0  0  0  0  0  0  0  0  0  0  0  0
   19.8603   33.3997    2.8847 C   0  0  0  0  0  0  0  0  0  0  0  0
   21.1508   33.7206    1.7712 Cl  0  0  0  0  0  0  0  0  0  0  0  0
   19.6918   34.1692    4.0518 C   0  0  0  0  0  0  0  0  0  0  0  0
   16.6763   32.9109    6.3140 H   0  0  0  0  0  0  0  0  0  0  0  0
   18.5715   30.8882    1.2567 H   0  0  0  0  0  0  0  0  0  0  0  0
   18.4417   34.5727    6.1856 C   0  0  0  0  0  0  0  0  0  0  0  0
   17.5228   35.3572    6.3689 O   0  0  0  0  0  0  0  0  0  0  0  0
   19.5437   35.0471    8.1857 C   0  0  0  0  0  0  0  0  0  0  0  0
   19.3487   34.1470    7.0941 O   0  0  0  0  0  0  0  0  0  0  0  0
   21.5702   34.9640    5.5422 C   0  0  0  0  0  0  0  0  0  0  0  0
   22.2609   33.6431    5.2723 C   0  0  0  0  0  0  0  0  0  0  0  0
   21.8011   32.5911    5.7052 O   0  0  0  0  0  0  0  0  0  0  0  0
   23.3884   33.7696    4.4947 N   0  0  0  0  0  0  0  0  0  0  0  0
   23.6222   34.6943    4.2509 H   0  0  0  0  0  0  0  0  0  0  0  0
   24.2658   32.7793    3.9896 C   0  0  0  0  0  0  0  0  0  0  0  0
   24.5057   32.8611    2.6085 C   0  0  0  0  0  0  0  0  0  0  0  0
   25.3387   31.9428    1.9765 C   0  0  0  0  0  0  0  0  0  0  0  0
   25.5297   32.0670    0.6264 O   0  0  0  0  0  0  0  0  0  0  0  0
   25.9673   30.9182    2.6829 C   0  0  0  0  0  0  0  0  0  0  0  0
   25.7410   30.8276    4.0519 C   0  0  0  0  0  0  0  0  0  0  0  0
   24.8988   31.7469    4.7000 C   0  0  0  0  0  0  0  0  0  0  0  0
   24.7808   31.5173    6.0413 O   0  0  0  0  0  0  0  0  0  0  0  0
   25.1057   32.7567    0.1548 H   0  0  0  0  0  0  0  0  0  0  0  0
   25.2401   30.8026    6.4364 H   0  0  0  0  0  0  0  0  0  0  0  0
   26.7584   30.0904    1.9306 O   0  0  0  0  0  0  0  0  0  0  0  0
   26.7060   28.7040    2.2508 C   0  0  0  0  0  0  0  0  0  0  0  0
 16 17  1  0
 17 14  1  0
 14 15  2  0
 14  2  1  0
  2  3  2  0
  3  4  1  0
  3  5  1  0
  5  6  1  0
  5  7  2  0
  7  8  1  0
  7  9  1  0
  9 10  1  0
  9 11  2  0
 11  1  1  0
  1 18  1  0
 18 19  1  0
 19 20  2  0
 19 21  1  0
 21 23  1  0
 23 24  2  0
 24 25  1  0
 25 26  1  0
 25 27  2  0
 27 33  1  0
 33 34  1  0
 27 28  1  0
 28 29  2  0
 29 30  1  0
 11  2  1  0
 29 23  1  0
  4 12  1  0
  8 13  1  0
 21 22  1  0
 26 31  1  0
 30 32  1  0
M  END
> <minimizedAffinity>
-8.26358

> <CNNscore>
0.7112987638

> <CNNaffinity>
6.2002186775

> <CNN_VS>
4.4102077484

> <CNNaffinity_variance>
0.0560767800

$$$$



 34 35  0  0  0  0  0  0  0  0999 V2000
   20.6260   35.2717    4.1732 C   0  0  0  0  0  0  0  0  0  0  0  0
   18.9476   33.4521    4.7728 C   0  0  0  0  0  0  0  0  0  0  0  0
   18.2114   32.2984    4.4691 C   0  0  0  0  0  0  0  0  0  0  0  0
   17.4205   31.7265    5.4335 O   0  0  0  0  0  0  0  0  0  0  0  0
   18.3088   31.7204    3.2012 C   0  0  0  0  0  0  0  0  0  0  0  0
   17.3849   30.3001    2.8468 Cl  0  0  0  0  0  0  0  0  0  0  0  0
   19.1573   32.2830    2.2458 C   0  0  0  0  0  0  0  0  0  0  0  0
   19.2510   31.6966    1.0073 O   0  0  0  0  0  0  0  0  0  0  0  0
   19.9113   33.4278    2.5528 C   0  0  0  0  0  0  0  0  0  0  0  0
   20.9701   34.0507    1.3282 Cl  0  0  0  0  0  0  0  0  0  0  0  0
   19.8148   34.0393    3.8174 C   0  0  0  0  0  0  0  0  0  0  0  0
   17.3591   32.1188    6.2822 H   0  0  0  0  0  0  0  0  0  0  0  0
   18.7444   30.9331    0.8109 H   0  0  0  0  0  0  0  0  0  0  0  0
   18.8488   34.0298    6.1295 C   0  0  0  0  0  0  0  0  0  0  0  0
   19.7198   33.9022    6.9771 O   0  0  0  0  0  0  0  0  0  0  0  0
   17.5680   35.4495    7.4651 C   0  0  0  0  0  0  0  0  0  0  0  0
   17.7374   34.7966    6.2061 O   0  0  0  0  0  0  0  0  0  0  0  0
   22.0253   34.9124    4.6736 C   0  0  0  0  0  0  0  0  0  0  0  0
   22.6158   36.0615    5.4645 C   0  0  0  0  0  0  0  0  0  0  0  0
   21.9226   36.7190    6.2343 O   0  0  0  0  0  0  0  0  0  0  0  0
   23.9616   36.2378    5.2422 N   0  0  0  0  0  0  0  0  0  0  0  0
   24.3549   35.6295    4.5755 H   0  0  0  0  0  0  0  0  0  0  0  0
   24.8707   37.1565    5.8212 C   0  0  0  0  0  0  0  0  0  0  0  0
   25.7890   37.7170    4.9188 C   0  0  0  0  0  0  0  0  0  0  0  0
   26.7486   38.6259    5.3543 C   0  0  0  0  0  0  0  0  0  0  0  0
   27.6226   39.1338    4.4309 O   0  0  0  0  0  0  0  0  0  0  0  0
   26.8324   39.0176    6.6897 C   0  0  0  0  0  0  0  0  0  0  0  0
   25.9270   38.4728    7.5935 C   0  0  0  0  0  0  0  0  0  0  0  0
   24.9563   37.5511    7.1659 C   0  0  0  0  0  0  0  0  0  0  0  0
   24.1492   37.1106    8.1759 O   0  0  0  0  0  0  0  0  0  0  0  0
   27.5634   38.8684    3.5342 H   0  0  0  0  0  0  0  0  0  0  0  0
   24.2759   37.4269    9.0487 H   0  0  0  0  0  0  0  0  0  0  0  0
   27.8249   39.9187    6.9726 O   0  0  0  0  0  0  0  0  0  0  0  0
   28.9528   39.4146    7.6805 C   0  0  0  0  0  0  0  0  0  0  0  0
 16 17  1  0
 17 14  1  0
 14 15  2  0
 14  2  1  0
  2  3  2  0
  3  4  1  0
  3  5  1  0
  5  6  1  0
  5  7  2  0
  7  8  1  0
  7  9  1  0
  9 10  1  0
  9 11  2  0
 11  1  1  0
  1 18  1  0
 18 19  1  0
 19 20  2  0
 19 21  1  0
 21 23  1  0
 23 24  2  0
 24 25  1  0
 25 26  1  0
 25 27  2  0
 27 33  1  0
 33 34  1  0
 27 28  1  0
 28 29  2  0
 29 30  1  0
 11  2  1  0
 29 23  1  0
  4 12  1  0
  8 13  1  0
 21 22  1  0
 26 31  1  0
 30 32  1  0
M  END
> <minimizedAffinity>
-7.28008

> <CNNscore>
0.5890896916

> <CNNaffinity>
5.8889694214

> <CNN_VS>
3.4691312313

> <CNNaffinity_variance>
0.0640525296

$$$$



 34 35  0  0  0  0  0  0  0  0999 V2000
   21.0252   35.1289    4.2458 C   0  0  0  0  0  0  0  0  0  0  0  0
   19.1917   33.4800    4.8836 C   0  0  0  0  0  0  0  0  0  0  0  0
   18.3224   32.4204    4.5886 C   0  0  0  0  0  0  0  0  0  0  0  0
   17.5215   31.9066    5.5770 O   0  0  0  0  0  0  0  0  0  0  0  0
   18.2971   31.8740    3.3033 C   0  0  0  0  0  0  0  0  0  0  0  0
   17.2105   30.5708    2.9605 Cl  0  0  0  0  0  0  0  0  0  0  0  0
   19.1548   32.3722    2.3207 C   0  0  0  0  0  0  0  0  0  0  0  0
   19.1261   31.8168    1.0648 O   0  0  0  0  0  0  0  0  0  0  0  0
   20.0409   33.4210    2.6179 C   0  0  0  0  0  0  0  0  0  0  0  0
   21.1010   33.9650    1.3575 Cl  0  0  0  0  0  0  0  0  0  0  0  0
   20.0706   34.0006    3.9007 C   0  0  0  0  0  0  0  0  0  0  0  0
   17.5427   32.2772    6.4373 H   0  0  0  0  0  0  0  0  0  0  0  0
   18.5319   31.1176    0.8752 H   0  0  0  0  0  0  0  0  0  0  0  0
   19.2199   34.0235    6.2575 C   0  0  0  0  0  0  0  0  0  0  0  0
   20.0770   33.7290    7.0772 O   0  0  0  0  0  0  0  0  0  0  0  0
   18.1621   35.5275    7.6925 C   0  0  0  0  0  0  0  0  0  0  0  0
   18.2515   34.9590    6.3853 O   0  0  0  0  0  0  0  0  0  0  0  0
   22.3849   34.9570    3.5684 C   0  0  0  0  0  0  0  0  0  0  0  0
   23.1264   33.7768    4.1616 C   0  0  0  0  0  0  0  0  0  0  0  0
   22.8806   33.3843    5.2979 O   0  0  0  0  0  0  0  0  0  0  0  0
   24.0353   33.2161    3.2949 N   0  0  0  0  0  0  0  0  0  0  0  0
   24.1163   33.6727    2.4264 H   0  0  0  0  0  0  0  0  0  0  0  0
   24.8729   32.0853    3.4547 C   0  0  0  0  0  0  0  0  0  0  0  0
   25.0639   31.6836    4.7865 C   0  0  0  0  0  0  0  0  0  0  0  0
   25.8746   30.5942    5.0907 C   0  0  0  0  0  0  0  0  0  0  0  0
   26.0302   30.2531    6.4076 O   0  0  0  0  0  0  0  0  0  0  0  0
   26.5189   29.8611    4.0950 C   0  0  0  0  0  0  0  0  0  0  0  0
   26.3358   30.2461    2.7715 C   0  0  0  0  0  0  0  0  0  0  0  0
   25.5226   31.3469    2.4527 C   0  0  0  0  0  0  0  0  0  0  0  0
   25.4505   31.5935    1.1113 O   0  0  0  0  0  0  0  0  0  0  0  0
   25.5958   30.7479    7.0742 H   0  0  0  0  0  0  0  0  0  0  0  0
   25.9179   31.0487    0.5090 H   0  0  0  0  0  0  0  0  0  0  0  0
   27.2831   28.8154    4.5418 O   0  0  0  0  0  0  0  0  0  0  0  0
   26.7696   27.5095    4.3004 C   0  0  0  0  0  0  0  0  0  0  0  0
 16 17  1  0
 17 14  1  0
 14 15  2  0
 14  2  1  0
  2  3  2  0
  3  4  1  0
  3  5  1  0
  5  6  1  0
  5  7  2  0
  7  8  1  0
  7  9  1  0
  9 10  1  0
  9 11  2  0
 11  1  1  0
  1 18  1  0
 18 19  1  0
 19 20  2  0
 19 21  1  0
 21 23  1  0
 23 24  2  0
 24 25  1  0
 25 26  1  0
 25 27  2  0
 27 33  1  0
 33 34  1  0
 27 28  1  0
 28 29  2  0
 29 30  1  0
 11  2  1  0
 29 23  1  0
  4 12  1  0
  8 13  1  0
 21 22  1  0
 26 31  1  0
 30 32  1  0
M  END
> <minimizedAffinity>
-8.15287

> <CNNscore>
0.5596151948

> <CNNaffinity>
5.9454207420

> <CNN_VS>
3.3271477222

> <CNNaffinity_variance>
0.1245519444

$$$$



 34 35  0  0  0  0  0  0  0  0999 V2000
   20.8698   35.1649    5.6152 C   0  0  0  0  0  0  0  0  0  0  0  0
   20.0925   33.5018    3.8497 C   0  0  0  0  0  0  0  0  0  0  0  0
   19.1206   32.6716    3.2738 C   0  0  0  0  0  0  0  0  0  0  0  0
   19.4053   32.0018    2.1107 O   0  0  0  0  0  0  0  0  0  0  0  0
   17.8614   32.5536    3.8670 C   0  0  0  0  0  0  0  0  0  0  0  0
   16.6797   31.5171    3.1419 Cl  0  0  0  0  0  0  0  0  0  0  0  0
   17.5677   33.2812    5.0218 C   0  0  0  0  0  0  0  0  0  0  0  0
   16.3214   33.1634    5.5868 O   0  0  0  0  0  0  0  0  0  0  0  0
   18.5326   34.1290    5.5907 C   0  0  0  0  0  0  0  0  0  0  0  0
   18.0854   35.0281    7.0050 Cl  0  0  0  0  0  0  0  0  0  0  0  0
   19.8150   34.2491    5.0219 C   0  0  0  0  0  0  0  0  0  0  0  0
   20.2517   32.0847    1.7175 H   0  0  0  0  0  0  0  0  0  0  0  0
   15.6838   32.5956    5.2007 H   0  0  0  0  0  0  0  0  0  0  0  0
   21.4081   33.6313    3.1891 C   0  0  0  0  0  0  0  0  0  0  0  0
   21.6105   34.3719    2.2383 O   0  0  0  0  0  0  0  0  0  0  0  0
   23.6721   33.1416    3.4619 C   0  0  0  0  0  0  0  0  0  0  0  0
   22.3253   32.9185    3.8818 O   0  0  0  0  0  0  0  0  0  0  0  0
   21.5350   34.5509    6.8472 C   0  0  0  0  0  0  0  0  0  0  0  0
   22.9661   35.0320    6.9711 C   0  0  0  0  0  0  0  0  0  0  0  0
   23.8955   34.2343    7.0429 O   0  0  0  0  0  0  0  0  0  0  0  0
   23.0802   36.4027    6.9597 N   0  0  0  0  0  0  0  0  0  0  0  0
   22.2257   36.8896    6.9147 H   0  0  0  0  0  0  0  0  0  0  0  0
   24.2332   37.2239    7.0023 C   0  0  0  0  0  0  0  0  0  0  0  0
   24.9841   37.2386    5.8160 C   0  0  0  0  0  0  0  0  0  0  0  0
   26.1495   37.9932    5.7220 C   0  0  0  0  0  0  0  0  0  0  0  0
   26.8449   37.9630    4.5429 O   0  0  0  0  0  0  0  0  0  0  0  0
   26.6110   38.7624    6.7894 C   0  0  0  0  0  0  0  0  0  0  0  0
   25.8752   38.7596    7.9692 C   0  0  0  0  0  0  0  0  0  0  0  0
   24.6990   37.9984    8.0769 C   0  0  0  0  0  0  0  0  0  0  0  0
   24.0990   38.1030    9.2994 O   0  0  0  0  0  0  0  0  0  0  0  0
   26.5319   37.4450    3.8276 H   0  0  0  0  0  0  0  0  0  0  0  0
   24.4790   38.6447    9.9629 H   0  0  0  0  0  0  0  0  0  0  0  0
   27.7702   39.4534    6.5529 O   0  0  0  0  0  0  0  0  0  0  0  0
   28.0144   40.5814    7.3867 C   0  0  0  0  0  0  0  0  0  0  0  0
 16 17  1  0
 17 14  1  0
 14 15  2  0
 14  2  1  0
  2  3  2  0
  3  4  1  0
  3  5  1  0
  5  6  1  0
  5  7  2  0
  7  8  1  0
  7  9  1  0
  9 10  1  0
  9 11  2  0
 11  1  1  0
  1 18  1  0
 18 19  1  0
 19 20  2  0
 19 21  1  0
 21 23  1  0
 23 24  2  0
 24 25  1  0
 25 26  1  0
 25 27  2  0
 27 33  1  0
 33 34  1  0
 27 28  1  0
 28 29  2  0
 29 30  1  0
 11  2  1  0
 29 23  1  0
  4 12  1  0
  8 13  1  0
 21 22  1  0
 26 31  1  0
 30 32  1  0
M  END
> <minimizedAffinity>
-6.49206

> <CNNscore>
0.4219633639

> <CNNaffinity>
6.0979866982

> <CNN_VS>
2.5731270313

> <CNNaffinity_variance>
0.0693886653

$$$$



 34 35  0  0  0  0  0  0  0  0999 V2000
   20.8905   35.5025    5.6560 C   0  0  0  0  0  0  0  0  0  0  0  0
   20.2043   33.7505    3.9393 C   0  0  0  0  0  0  0  0  0  0  0  0
   19.2839   32.8428    3.3970 C   0  0  0  0  0  0  0  0  0  0  0  0
   19.5973   32.1680    2.2442 O   0  0  0  0  0  0  0  0  0  0  0  0
   18.0444   32.6523    4.0124 C   0  0  0  0  0  0  0  0  0  0  0  0
   16.9266   31.5210    3.3287 Cl  0  0  0  0  0  0  0  0  0  0  0  0
   17.7179   33.3839    5.1557 C   0  0  0  0  0  0  0  0  0  0  0  0
   16.4908   33.1938    5.7428 O   0  0  0  0  0  0  0  0  0  0  0  0
   18.6301   34.3085    5.6909 C   0  0  0  0  0  0  0  0  0  0  0  0
   18.1424   35.2066    7.0924 Cl  0  0  0  0  0  0  0  0  0  0  0  0
   19.8929   34.5033    5.0993 C   0  0  0  0  0  0  0  0  0  0  0  0
   20.4302   32.2998    1.8359 H   0  0  0  0  0  0  0  0  0  0  0  0
   15.8884   32.5750    5.3793 H   0  0  0  0  0  0  0  0  0  0  0  0
   21.4983   33.9549    3.2553 C   0  0  0  0  0  0  0  0  0  0  0  0
   22.3422   33.0783    3.1420 O   0  0  0  0  0  0  0  0  0  0  0  0
   22.8206   35.7461    2.5602 C   0  0  0  0  0  0  0  0  0  0  0  0
   21.5140   35.1845    2.6923 O   0  0  0  0  0  0  0  0  0  0  0  0
   22.0335   34.8157    6.4038 C   0  0  0  0  0  0  0  0  0  0  0  0
   23.3497   35.5042    6.1064 C   0  0  0  0  0  0  0  0  0  0  0  0
   23.4350   36.7282    6.1062 O   0  0  0  0  0  0  0  0  0  0  0  0
   24.3832   34.6248    5.8824 N   0  0  0  0  0  0  0  0  0  0  0  0
   24.1301   33.6736    5.9028 H   0  0  0  0  0  0  0  0  0  0  0  0
   25.7542   34.8720    5.6271 C   0  0  0  0  0  0  0  0  0  0  0  0
   26.4854   35.3137    6.7413 C   0  0  0  0  0  0  0  0  0  0  0  0
   27.8413   35.6070    6.6306 C   0  0  0  0  0  0  0  0  0  0  0  0
   28.5013   36.0412    7.7489 O   0  0  0  0  0  0  0  0  0  0  0  0
   28.5231   35.4697    5.4222 C   0  0  0  0  0  0  0  0  0  0  0  0
   27.8117   35.0299    4.3114 C   0  0  0  0  0  0  0  0  0  0  0  0
   26.4415   34.7345    4.4105 C   0  0  0  0  0  0  0  0  0  0  0  0
   25.8928   34.3190    3.2308 O   0  0  0  0  0  0  0  0  0  0  0  0
   28.0400   36.1323    8.5593 H   0  0  0  0  0  0  0  0  0  0  0  0
   26.4259   34.2553    2.4628 H   0  0  0  0  0  0  0  0  0  0  0  0
   29.8538   35.7933    5.4627 O   0  0  0  0  0  0  0  0  0  0  0  0
   30.2848   36.8077    4.5612 C   0  0  0  0  0  0  0  0  0  0  0  0
 16 17  1  0
 17 14  1  0
 14 15  2  0
 14  2  1  0
  2  3  2  0
  3  4  1  0
  3  5  1  0
  5  6  1  0
  5  7  2  0
  7  8  1  0
  7  9  1  0
  9 10  1  0
  9 11  2  0
 11  1  1  0
  1 18  1  0
 18 19  1  0
 19 20  2  0
 19 21  1  0
 21 23  1  0
 23 24  2  0
 24 25  1  0
 25 26  1  0
 25 27  2  0
 27 33  1  0
 33 34  1  0
 27 28  1  0
 28 29  2  0
 29 30  1  0
 11  2  1  0
 29 23  1  0
  4 12  1  0
  8 13  1  0
 21 22  1  0
 26 31  1  0
 30 32  1  0
M  END
> <minimizedAffinity>
-6.02791

> <CNNscore>
0.3598698974

> <CNNaffinity>
5.9073472023

> <CNN_VS>
2.1258764267

> <CNNaffinity_variance>
0.0740208700

$$$$



 34 35  0  0  0  0  0  0  0  0999 V2000
   21.4911   34.7403    3.0248 C   0  0  0  0  0  0  0  0  0  0  0  0
   20.1843   34.6536    5.2093 C   0  0  0  0  0  0  0  0  0  0  0  0
   19.0493   34.3173    5.9603 C   0  0  0  0  0  0  0  0  0  0  0  0
   19.0453   34.5335    7.3151 O   0  0  0  0  0  0  0  0  0  0  0  0
   17.9432   33.7378    5.3341 C   0  0  0  0  0  0  0  0  0  0  0  0
   16.5501   33.3375    6.2805 Cl  0  0  0  0  0  0  0  0  0  0  0  0
   17.9806   33.4755    3.9633 C   0  0  0  0  0  0  0  0  0  0  0  0
   16.8895   32.8949    3.3642 O   0  0  0  0  0  0  0  0  0  0  0  0
   19.1236   33.7934    3.2111 C   0  0  0  0  0  0  0  0  0  0  0  0
   19.1116   33.4071    1.5202 Cl  0  0  0  0  0  0  0  0  0  0  0  0
   20.2430   34.3958    3.8166 C   0  0  0  0  0  0  0  0  0  0  0  0
   19.7901   34.9226    7.7296 H   0  0  0  0  0  0  0  0  0  0  0  0
   16.1312   32.6862    3.8734 H   0  0  0  0  0  0  0  0  0  0  0  0
   21.3524   35.2407    5.8985 C   0  0  0  0  0  0  0  0  0  0  0  0
   22.3981   34.6348    6.0792 O   0  0  0  0  0  0  0  0  0  0  0  0
   21.2588   36.9050    7.5298 C   0  0  0  0  0  0  0  0  0  0  0  0
   21.1068   36.5455    6.1559 O   0  0  0  0  0  0  0  0  0  0  0  0
   22.4455   33.5512    2.9127 C   0  0  0  0  0  0  0  0  0  0  0  0
   23.8827   34.0281    2.8710 C   0  0  0  0  0  0  0  0  0  0  0  0
   24.6069   33.7646    1.9164 O   0  0  0  0  0  0  0  0  0  0  0  0
   24.2364   34.7802    3.9669 N   0  0  0  0  0  0  0  0  0  0  0  0
   23.5326   34.8764    4.6486 H   0  0  0  0  0  0  0  0  0  0  0  0
   25.4536   35.4381    4.2692 C   0  0  0  0  0  0  0  0  0  0  0  0
   25.3109   36.7779    4.6643 C   0  0  0  0  0  0  0  0  0  0  0  0
   26.4261   37.5486    4.9787 C   0  0  0  0  0  0  0  0  0  0  0  0
   26.2267   38.8513    5.3502 O   0  0  0  0  0  0  0  0  0  0  0  0
   27.7170   37.0252    4.9206 C   0  0  0  0  0  0  0  0  0  0  0  0
   27.8726   35.6986    4.5341 C   0  0  0  0  0  0  0  0  0  0  0  0
   26.7540   34.9120    4.2105 C   0  0  0  0  0  0  0  0  0  0  0  0
   27.0789   33.6356    3.8489 O   0  0  0  0  0  0  0  0  0  0  0  0
   25.3577   39.1998    5.3882 H   0  0  0  0  0  0  0  0  0  0  0  0
   27.9762   33.3661    3.8367 H   0  0  0  0  0  0  0  0  0  0  0  0
   28.7170   37.8988    5.2581 O   0  0  0  0  0  0  0  0  0  0  0  0
   29.3522   37.6775    6.5131 C   0  0  0  0  0  0  0  0  0  0  0  0
 16 17  1  0
 17 14  1  0
 14 15  2  0
 14  2  1  0
  2  3  2  0
  3  4  1  0
  3  5  1  0
  5  6  1  0
  5  7  2  0
  7  8  1  0
  7  9  1  0
  9 10  1  0
  9 11  2  0
 11  1  1  0
  1 18  1  0
 18 19  1  0
 19 20  2  0
 19 21  1  0
 21 23  1  0
 23 24  2  0
 24 25  1  0
 25 26  1  0
 25 27  2  0
 27 33  1  0
 33 34  1  0
 27 28  1  0
 28 29  2  0
 29 30  1  0
 11  2  1  0
 29 23  1  0
  4 12  1  0
  8 13  1  0
 21 22  1  0
 26 31  1  0
 30 32  1  0
M  END
> <minimizedAffinity>
-6.08757

> <CNNscore>
0.3561619520

> <CNNaffinity>
5.7645931244

> <CNN_VS>
2.0531287193

> <CNNaffinity_variance>
0.1164470911

$$$$



 34 35  0  0  0  0  0  0  0  0999 V2000
   22.0409   34.9658    4.4993 C   0  0  0  0  0  0  0  0  0  0  0  0
   19.7827   33.9445    5.0868 C   0  0  0  0  0  0  0  0  0  0  0  0
   18.6621   33.1595    4.7814 C   0  0  0  0  0  0  0  0  0  0  0  0
   17.6997   32.9524    5.7371 O   0  0  0  0  0  0  0  0  0  0  0  0
   18.5449   32.5686    3.5211 C   0  0  0  0  0  0  0  0  0  0  0  0
   17.1489   31.6093    3.1642 Cl  0  0  0  0  0  0  0  0  0  0  0  0
   19.5568   32.7450    2.5754 C   0  0  0  0  0  0  0  0  0  0  0  0
   19.4324   32.1483    1.3446 O   0  0  0  0  0  0  0  0  0  0  0  0
   20.6903   33.5150    2.8846 C   0  0  0  0  0  0  0  0  0  0  0  0
   21.9228   33.6617    1.6730 Cl  0  0  0  0  0  0  0  0  0  0  0  0
   20.8214   34.1363    4.1413 C   0  0  0  0  0  0  0  0  0  0  0  0
   17.7837   33.3513    6.5807 H   0  0  0  0  0  0  0  0  0  0  0  0
   18.6729   31.6363    1.1468 H   0  0  0  0  0  0  0  0  0  0  0  0
   19.8975   34.5369    6.4358 C   0  0  0  0  0  0  0  0  0  0  0  0
   19.6332   35.7049    6.6794 O   0  0  0  0  0  0  0  0  0  0  0  0
   21.4403   33.7671    8.0065 C   0  0  0  0  0  0  0  0  0  0  0  0
   20.2022   33.5637    7.3242 O   0  0  0  0  0  0  0  0  0  0  0  0
   23.2548   34.0927    4.8179 C   0  0  0  0  0  0  0  0  0  0  0  0
   24.4152   34.9488    5.2820 C   0  0  0  0  0  0  0  0  0  0  0  0
   25.5747   34.5863    5.1096 O   0  0  0  0  0  0  0  0  0  0  0  0
   24.0189   36.1329    5.8588 N   0  0  0  0  0  0  0  0  0  0  0  0
   23.0445   36.2524    5.9328 H   0  0  0  0  0  0  0  0  0  0  0  0
   24.7917   37.2072    6.3632 C   0  0  0  0  0  0  0  0  0  0  0  0
   24.4314   37.6312    7.6523 C   0  0  0  0  0  0  0  0  0  0  0  0
   25.0990   38.6870    8.2655 C   0  0  0  0  0  0  0  0  0  0  0  0
   24.6992   39.0619    9.5203 O   0  0  0  0  0  0  0  0  0  0  0  0
   26.1462   39.3561    7.6335 C   0  0  0  0  0  0  0  0  0  0  0  0
   26.5156   38.9443    6.3578 C   0  0  0  0  0  0  0  0  0  0  0  0
   25.8461   37.8819    5.7272 C   0  0  0  0  0  0  0  0  0  0  0  0
   26.3280   37.6056    4.4795 O   0  0  0  0  0  0  0  0  0  0  0  0
   23.9950   38.6101    9.9421 H   0  0  0  0  0  0  0  0  0  0  0  0
   27.0377   38.1075    4.1296 H   0  0  0  0  0  0  0  0  0  0  0  0
   26.7102   40.3736    8.3571 O   0  0  0  0  0  0  0  0  0  0  0  0
   28.0867   40.2247    8.6897 C   0  0  0  0  0  0  0  0  0  0  0  0
 16 17  1  0
 17 14  1  0
 14 15  2  0
 14  2  1  0
  2  3  2  0
  3  4  1  0
  3  5  1  0
  5  6  1  0
  5  7  2  0
  7  8  1  0
  7  9  1  0
  9 10  1  0
  9 11  2  0
 11  1  1  0
  1 18  1  0
 18 19  1  0
 19 20  2  0
 19 21  1  0
 21 23  1  0
 23 24  2  0
 24 25  1  0
 25 26  1  0
 25 27  2  0
 27 33  1  0
 33 34  1  0
 27 28  1  0
 28 29  2  0
 29 30  1  0
 11  2  1  0
 29 23  1  0
  4 12  1  0
  8 13  1  0
 21 22  1  0
 26 31  1  0
 30 32  1  0
M  END
> <minimizedAffinity>
-5.91759

> <CNNscore>
0.3529497087

> <CNNaffinity>
5.9328346252

> <CNN_VS>
2.0939922333

> <CNNaffinity_variance>
0.0182313044

$$$$



 34 35  0  0  0  0  0  0  0  0999 V2000
   23.9807   35.0615    2.0562 C   0  0  0  0  0  0  0  0  0  0  0  0
   23.3146   35.9586    4.3451 C   0  0  0  0  0  0  0  0  0  0  0  0
   22.4114   36.0864    5.4097 C   0  0  0  0  0  0  0  0  0  0  0  0
   22.7866   36.7719    6.5374 O   0  0  0  0  0  0  0  0  0  0  0  0
   21.1497   35.4921    5.3312 C   0  0  0  0  0  0  0  0  0  0  0  0
   20.0486   35.6692    6.6551 Cl  0  0  0  0  0  0  0  0  0  0  0  0
   20.8000   34.7534    4.1993 C   0  0  0  0  0  0  0  0  0  0  0  0
   19.5600   34.1656    4.1419 O   0  0  0  0  0  0  0  0  0  0  0  0
   21.7096   34.6070    3.1388 C   0  0  0  0  0  0  0  0  0  0  0  0
   21.2193   33.6467    1.7802 Cl  0  0  0  0  0  0  0  0  0  0  0  0
   22.9796   35.2132    3.1868 C   0  0  0  0  0  0  0  0  0  0  0  0
   23.6343   37.1685    6.5843 H   0  0  0  0  0  0  0  0  0  0  0  0
   18.9594   34.2683    4.8537 H   0  0  0  0  0  0  0  0  0  0  0  0
   24.6534   36.5734    4.4625 C   0  0  0  0  0  0  0  0  0  0  0  0
   25.0917   37.3831    3.6590 O   0  0  0  0  0  0  0  0  0  0  0  0
   25.9029   34.9447    5.5698 C   0  0  0  0  0  0  0  0  0  0  0  0
   25.2151   36.1949    5.6331 O   0  0  0  0  0  0  0  0  0  0  0  0
   25.2750   34.3942    2.5221 C   0  0  0  0  0  0  0  0  0  0  0  0
   25.1086   32.8891    2.5649 C   0  0  0  0  0  0  0  0  0  0  0  0
   24.1246   32.3491    2.0694 O   0  0  0  0  0  0  0  0  0  0  0  0
   26.1626   32.2441    3.1691 N   0  0  0  0  0  0  0  0  0  0  0  0
   26.8611   32.8376    3.5283 H   0  0  0  0  0  0  0  0  0  0  0  0
   26.4013   30.8606    3.3558 C   0  0  0  0  0  0  0  0  0  0  0  0
   27.1717   30.5484    4.4874 C   0  0  0  0  0  0  0  0  0  0  0  0
   27.4938   29.2277    4.7853 C   0  0  0  0  0  0  0  0  0  0  0  0
   28.2542   28.9838    5.8974 O   0  0  0  0  0  0  0  0  0  0  0  0
   27.0639   28.1712    3.9836 C   0  0  0  0  0  0  0  0  0  0  0  0
   26.2974   28.4660    2.8615 C   0  0  0  0  0  0  0  0  0  0  0  0
   25.9693   29.7960    2.5487 C   0  0  0  0  0  0  0  0  0  0  0  0
   25.2156   29.9133    1.4157 O   0  0  0  0  0  0  0  0  0  0  0  0
   28.5415   29.6963    6.4340 H   0  0  0  0  0  0  0  0  0  0  0  0
   24.9702   29.1474    0.9349 H   0  0  0  0  0  0  0  0  0  0  0  0
   27.4555   26.9259    4.3993 O   0  0  0  0  0  0  0  0  0  0  0  0
   26.9606   25.8237    3.6459 C   0  0  0  0  0  0  0  0  0  0  0  0
 16 17  1  0
 17 14  1  0
 14 15  2  0
 14  2  1  0
  2  3  2  0
  3  4  1  0
  3  5  1  0
  5  6  1  0
  5  7  2  0
  7  8  1  0
  7  9  1  0
  9 10  1  0
  9 11  2  0
 11  1  1  0
  1 18  1  0
 18 19  1  0
 19 20  2  0
 19 21  1  0
 21 23  1  0
 23 24  2  0
 24 25  1  0
 25 26  1  0
 25 27  2  0
 27 33  1  0
 33 34  1  0
 27 28  1  0
 28 29  2  0
 29 30  1  0
 11  2  1  0
 29 23  1  0
  4 12  1  0
  8 13  1  0
 21 22  1  0
 26 31  1  0
 30 32  1  0
M  END
> <minimizedAffinity>
-7.33232

> <CNNscore>
0.3523478806

> <CNNaffinity>
5.4226875305

> <CNN_VS>
1.9106724262

> <CNNaffinity_variance>
0.2249885798

$$$$
