


 31 34  0  0  0  0  0  0  0  0999 V2000
   22.1653   11.1706   21.7558 C   0  0  0  0  0  0  0  0  0  0  0  0
   22.5911   10.5385   23.0201 N   0  0  0  0  0  0  0  0  0  0  0  0
   22.8073   11.4916   23.9609 C   0  0  0  0  0  0  0  0  0  0  0  0
   23.3327   11.2996   25.1111 N   0  0  0  0  0  0  0  0  0  0  0  0
   22.4218   12.7143   23.5363 N   0  0  0  0  0  0  0  0  0  0  0  0
   22.5335   13.9344   24.2999 C   0  0  0  0  0  0  0  0  0  0  0  0
   22.0502   12.6661   22.2109 C   0  0  0  0  0  0  0  0  0  0  0  0
   21.7351   13.6226   21.5120 O   0  0  0  0  0  0  0  0  0  0  0  0
   22.7015    9.5702   23.1596 H   0  0  0  0  0  0  0  0  0  0  0  0
   23.6008   10.3927   25.3846 H   0  0  0  0  0  0  0  0  0  0  0  0
   20.7798   10.6659   21.3136 C   0  0  0  0  0  0  0  0  0  0  0  0
   19.8201   10.1905   22.2273 C   0  0  0  0  0  0  0  0  0  0  0  0
   18.5714    9.7378   21.7888 C   0  0  0  0  0  0  0  0  0  0  0  0
   18.2621    9.7571   20.4320 C   0  0  0  0  0  0  0  0  0  0  0  0
   16.7264    9.1978   19.8961 Cl  0  0  0  0  0  0  0  0  0  0  0  0
   19.1891   10.2286   19.5083 C   0  0  0  0  0  0  0  0  0  0  0  0
   20.4369   10.6811   19.9455 C   0  0  0  0  0  0  0  0  0  0  0  0
   25.6376   10.6270   20.0965 C   0  0  0  0  0  0  0  0  0  0  0  0
   25.2413   10.3420   18.7824 C   0  0  0  0  0  0  0  0  0  0  0  0
   23.8933   10.3253   18.4291 C   0  0  0  0  0  0  0  0  0  0  0  0
   22.9176   10.5972   19.3867 C   0  0  0  0  0  0  0  0  0  0  0  0
   23.2687   10.9014   20.7170 C   0  0  0  0  0  0  0  0  0  0  0  0
   24.6377   10.8992   21.0500 C   0  0  0  0  0  0  0  0  0  0  0  0
   28.9831    9.5863   21.5518 C   0  0  0  0  0  0  0  0  0  0  0  0
   29.7785   10.6732   21.1864 C   0  0  0  0  0  0  0  0  0  0  0  0
   29.2355   11.7401   20.4740 C   0  0  0  0  0  0  0  0  0  0  0  0
   27.8864   11.7241   20.1204 C   0  0  0  0  0  0  0  0  0  0  0  0
   27.0623   10.6426   20.4717 C   0  0  0  0  0  0  0  0  0  0  0  0
   27.6321    9.5752   21.1930 C   0  0  0  0  0  0  0  0  0  0  0  0
   30.0667    8.9358   23.5669 C   0  0  0  0  0  0  0  0  0  0  0  0
   29.6389    8.6100   22.2507 O   0  0  0  0  0  0  0  0  0  0  0  0
 30 31  1  0
 31 24  1  0
 24 25  2  0
 25 26  1  0
 26 27  2  0
 27 28  1  0
 28 18  1  0
 18 19  2  0
 19 20  1  0
 20 21  2  0
 21 22  1  0
  1 22  1  0
  1 11  1  0
 11 12  2  0
 12 13  1  0
 13 14  2  0
 14 15  1  0
 14 16  1  0
 16 17  2  0
  1  2  1  0
  2  3  1  0
  3  4  2  0
  3  5  1  0
  5  6  1  0
  5  7  1  0
  7  8  2  0
 22 23  2  0
 28 29  2  0
 29 24  1  0
 23 18  1  0
  7  1  1  0
 17 11  1  0
  2  9  1  0
  4 10  1  0
M  END
> <minimizedAffinity>
-9.16628

> <CNNscore>
0.9455670714

> <CNNaffinity>
6.8310966492

> <CNN_VS>
6.4592599869

> <CNNaffinity_variance>
0.0777457505

$$$$



 31 34  0  0  0  0  0  0  0  0999 V2000
   20.7268   10.5257   22.0867 C   0  0  0  0  0  0  0  0  0  0  0  0
   21.4497    9.4138   22.7349 N   0  0  0  0  0  0  0  0  0  0  0  0
   21.6510    9.6982   24.0460 C   0  0  0  0  0  0  0  0  0  0  0  0
   22.3786    9.0236   24.8531 N   0  0  0  0  0  0  0  0  0  0  0  0
   21.0027   10.8215   24.4224 N   0  0  0  0  0  0  0  0  0  0  0  0
   21.0290   11.3937   25.7476 C   0  0  0  0  0  0  0  0  0  0  0  0
   20.4369   11.4376   23.3282 C   0  0  0  0  0  0  0  0  0  0  0  0
   19.8577   12.5180   23.3245 O   0  0  0  0  0  0  0  0  0  0  0  0
   21.7421    8.5893   22.2833 H   0  0  0  0  0  0  0  0  0  0  0  0
   22.8355    8.2095   24.5408 H   0  0  0  0  0  0  0  0  0  0  0  0
   19.3929   10.0521   21.4814 C   0  0  0  0  0  0  0  0  0  0  0  0
   19.3250    9.3049   20.2902 C   0  0  0  0  0  0  0  0  0  0  0  0
   18.0944    8.8928   19.7685 C   0  0  0  0  0  0  0  0  0  0  0  0
   16.9145    9.2180   20.4310 C   0  0  0  0  0  0  0  0  0  0  0  0
   15.4028    8.7115   19.7855 Cl  0  0  0  0  0  0  0  0  0  0  0  0
   16.9532    9.9491   21.6139 C   0  0  0  0  0  0  0  0  0  0  0  0
   18.1823   10.3611   22.1358 C   0  0  0  0  0  0  0  0  0  0  0  0
   23.9354   11.5210   20.1322 C   0  0  0  0  0  0  0  0  0  0  0  0
   23.3666   12.2521   19.0800 C   0  0  0  0  0  0  0  0  0  0  0  0
   21.9868   12.4278   18.9945 C   0  0  0  0  0  0  0  0  0  0  0  0
   21.1517   11.8761   19.9646 C   0  0  0  0  0  0  0  0  0  0  0  0
   21.6787   11.1443   21.0474 C   0  0  0  0  0  0  0  0  0  0  0  0
   23.0758   10.9713   21.1028 C   0  0  0  0  0  0  0  0  0  0  0  0
   27.5219   11.7558   21.3467 C   0  0  0  0  0  0  0  0  0  0  0  0
   28.1743   10.9729   20.3933 C   0  0  0  0  0  0  0  0  0  0  0  0
   27.4584   10.3727   19.3599 C   0  0  0  0  0  0  0  0  0  0  0  0
   26.0778   10.5528   19.2757 C   0  0  0  0  0  0  0  0  0  0  0  0
   25.3939   11.3327   20.2223 C   0  0  0  0  0  0  0  0  0  0  0  0
   26.1379   11.9311   21.2579 C   0  0  0  0  0  0  0  0  0  0  0  0
   27.7269   13.0846   23.3088 C   0  0  0  0  0  0  0  0  0  0  0  0
   28.3416   12.2890   22.3036 O   0  0  0  0  0  0  0  0  0  0  0  0
 30 31  1  0
 31 24  1  0
 24 25  2  0
 25 26  1  0
 26 27  2  0
 27 28  1  0
 28 18  1  0
 18 19  2  0
 19 20  1  0
 20 21  2  0
 21 22  1  0
  1 22  1  0
  1 11  1  0
 11 12  2  0
 12 13  1  0
 13 14  2  0
 14 15  1  0
 14 16  1  0
 16 17  2  0
  1  2  1  0
  2  3  1  0
  3  4  2  0
  3  5  1  0
  5  6  1  0
  5  7  1  0
  7  8  2  0
 22 23  2  0
 28 29  2  0
 29 24  1  0
 23 18  1  0
  7  1  1  0
 17 11  1  0
  2  9  1  0
  4 10  1  0
M  END
> <minimizedAffinity>
-8.79637

> <CNNscore>
0.9367884398

> <CNNaffinity>
7.1661605835

> <CNN_VS>
6.7131762505

> <CNNaffinity_variance>
0.0117730834

$$$$



 31 34  0  0  0  0  0  0  0  0999 V2000
   22.3330   11.8443   21.8165 C   0  0  0  0  0  0  0  0  0  0  0  0
   22.8731   11.0005   22.9006 N   0  0  0  0  0  0  0  0  0  0  0  0
   23.0542   11.7478   24.0183 C   0  0  0  0  0  0  0  0  0  0  0  0
   23.6504   11.3656   25.0834 N   0  0  0  0  0  0  0  0  0  0  0  0
   22.5457   12.9912   23.8800 N   0  0  0  0  0  0  0  0  0  0  0  0
   22.5912   14.0261   24.8857 C   0  0  0  0  0  0  0  0  0  0  0  0
   22.1141   13.1913   22.5874 C   0  0  0  0  0  0  0  0  0  0  0  0
   21.6846   14.2408   22.1217 O   0  0  0  0  0  0  0  0  0  0  0  0
   23.0722   10.0394   22.8241 H   0  0  0  0  0  0  0  0  0  0  0  0
   24.0078   10.4504   25.1461 H   0  0  0  0  0  0  0  0  0  0  0  0
   20.9750   11.3177   21.3177 C   0  0  0  0  0  0  0  0  0  0  0  0
   19.9525   12.1719   20.8632 C   0  0  0  0  0  0  0  0  0  0  0  0
   18.7300   11.6578   20.4186 C   0  0  0  0  0  0  0  0  0  0  0  0
   18.5129   10.2831   20.4182 C   0  0  0  0  0  0  0  0  0  0  0  0
   17.0077    9.6544   19.8728 Cl  0  0  0  0  0  0  0  0  0  0  0  0
   19.5089    9.4159   20.8551 C   0  0  0  0  0  0  0  0  0  0  0  0
   20.7306    9.9288   21.2994 C   0  0  0  0  0  0  0  0  0  0  0  0
   25.7528   11.9436   19.9723 C   0  0  0  0  0  0  0  0  0  0  0  0
   25.3147   11.9611   18.6408 C   0  0  0  0  0  0  0  0  0  0  0  0
   23.9554   11.9440   18.3343 C   0  0  0  0  0  0  0  0  0  0  0  0
   23.0097   11.9122   19.3578 C   0  0  0  0  0  0  0  0  0  0  0  0
   23.4023   11.9066   20.7111 C   0  0  0  0  0  0  0  0  0  0  0  0
   24.7827   11.9116   20.9927 C   0  0  0  0  0  0  0  0  0  0  0  0
   29.1426   13.0991   21.2243 C   0  0  0  0  0  0  0  0  0  0  0  0
   29.9292   11.9881   20.9170 C   0  0  0  0  0  0  0  0  0  0  0  0
   29.3670   10.8699   20.3052 C   0  0  0  0  0  0  0  0  0  0  0  0
   28.0067   10.8572   19.9974 C   0  0  0  0  0  0  0  0  0  0  0  0
   27.1897   11.9592   20.2975 C   0  0  0  0  0  0  0  0  0  0  0  0
   27.7795   13.0796   20.9149 C   0  0  0  0  0  0  0  0  0  0  0  0
   30.6792   14.8995   20.9895 C   0  0  0  0  0  0  0  0  0  0  0  0
   29.8189   14.1291   21.8188 O   0  0  0  0  0  0  0  0  0  0  0  0
 30 31  1  0
 31 24  1  0
 24 25  2  0
 25 26  1  0
 26 27  2  0
 27 28  1  0
 28 18  1  0
 18 19  2  0
 19 20  1  0
 20 21  2  0
 21 22  1  0
  1 22  1  0
  1 11  1  0
 11 12  2  0
 12 13  1  0
 13 14  2  0
 14 15  1  0
 14 16  1  0
 16 17  2  0
  1  2  1  0
  2  3  1  0
  3  4  2  0
  3  5  1  0
  5  6  1  0
  5  7  1  0
  7  8  2  0
 22 23  2  0
 28 29  2  0
 29 24  1  0
 23 18  1  0
  7  1  1  0
 17 11  1  0
  2  9  1  0
  4 10  1  0
M  END
> <minimizedAffinity>
-8.21442

> <CNNscore>
0.7832736373

> <CNNaffinity>
6.4621014595

> <CNN_VS>
5.0615935326

> <CNNaffinity_variance>
0.0779364854

$$$$



 31 34  0  0  0  0  0  0  0  0999 V2000
   18.7024   11.1325   23.6505 C   0  0  0  0  0  0  0  0  0  0  0  0
   19.6046   10.0715   24.1400 N   0  0  0  0  0  0  0  0  0  0  0  0
   20.5293   10.6041   24.9776 C   0  0  0  0  0  0  0  0  0  0  0  0
   21.5490    9.9931   25.4496 N   0  0  0  0  0  0  0  0  0  0  0  0
   20.2706   11.9005   25.2536 N   0  0  0  0  0  0  0  0  0  0  0  0
   21.0750   12.7480   26.1016 C   0  0  0  0  0  0  0  0  0  0  0  0
   19.2177   12.3523   24.4891 C   0  0  0  0  0  0  0  0  0  0  0  0
   18.7978   13.5031   24.4429 O   0  0  0  0  0  0  0  0  0  0  0  0
   19.5442    9.1198   23.8952 H   0  0  0  0  0  0  0  0  0  0  0  0
   21.7034    9.0471   25.2251 H   0  0  0  0  0  0  0  0  0  0  0  0
   17.2375   10.8415   24.0240 C   0  0  0  0  0  0  0  0  0  0  0  0
   16.8152    9.5912   24.5142 C   0  0  0  0  0  0  0  0  0  0  0  0
   15.4749    9.3622   24.8418 C   0  0  0  0  0  0  0  0  0  0  0  0
   14.5380   10.3799   24.6881 C   0  0  0  0  0  0  0  0  0  0  0  0
   12.8902   10.0943   25.0900 Cl  0  0  0  0  0  0  0  0  0  0  0  0
   14.9294   11.6272   24.2129 C   0  0  0  0  0  0  0  0  0  0  0  0
   16.2685   11.8568   23.8853 C   0  0  0  0  0  0  0  0  0  0  0  0
   20.3971   11.2561   20.1550 C   0  0  0  0  0  0  0  0  0  0  0  0
   19.2705   11.4380   19.3409 C   0  0  0  0  0  0  0  0  0  0  0  0
   17.9941   11.5225   19.8937 C   0  0  0  0  0  0  0  0  0  0  0  0
   17.8239   11.4290   21.2740 C   0  0  0  0  0  0  0  0  0  0  0  0
   18.9278   11.2588   22.1332 C   0  0  0  0  0  0  0  0  0  0  0  0
   20.2054   11.1640   21.5471 C   0  0  0  0  0  0  0  0  0  0  0  0
   23.7167   12.2385   18.6031 C   0  0  0  0  0  0  0  0  0  0  0  0
   24.3199   10.9884   18.4589 C   0  0  0  0  0  0  0  0  0  0  0  0
   23.6556    9.8312   18.8596 C   0  0  0  0  0  0  0  0  0  0  0  0
   22.3776    9.9199   19.4111 C   0  0  0  0  0  0  0  0  0  0  0  0
   21.7468   11.1643   19.5714 C   0  0  0  0  0  0  0  0  0  0  0  0
   22.4364   12.3210   19.1582 C   0  0  0  0  0  0  0  0  0  0  0  0
   24.4991   14.4516   18.9873 C   0  0  0  0  0  0  0  0  0  0  0  0
   24.4749   13.2905   18.1671 O   0  0  0  0  0  0  0  0  0  0  0  0
 30 31  1  0
 31 24  1  0
 24 25  2  0
 25 26  1  0
 26 27  2  0
 27 28  1  0
 28 18  1  0
 18 19  2  0
 19 20  1  0
 20 21  2  0
 21 22  1  0
  1 22  1  0
  1 11  1  0
 11 12  2  0
 12 13  1  0
 13 14  2  0
 14 15  1  0
 14 16  1  0
 16 17  2  0
  1  2  1  0
  2  3  1  0
  3  4  2  0
  3  5  1  0
  5  6  1  0
  5  7  1  0
  7  8  2  0
 22 23  2  0
 28 29  2  0
 29 24  1  0
 23 18  1  0
  7  1  1  0
 17 11  1  0
  2  9  1  0
  4 10  1  0
M  END
> <minimizedAffinity>
-9.29658

> <CNNscore>
0.6550842524

> <CNNaffinity>
6.0245490074

> <CNN_VS>
3.9465870857

> <CNNaffinity_variance>
0.2137240618

$$$$



 31 34  0  0  0  0  0  0  0  0999 V2000
   25.8512   12.3853   19.6290 C   0  0  0  0  0  0  0  0  0  0  0  0
   26.3676   12.7131   18.2855 N   0  0  0  0  0  0  0  0  0  0  0  0
   26.2927   14.0516   18.0778 C   0  0  0  0  0  0  0  0  0  0  0  0
   26.5089   14.6480   16.9672 N   0  0  0  0  0  0  0  0  0  0  0  0
   25.9283   14.7147   19.1964 N   0  0  0  0  0  0  0  0  0  0  0  0
   25.7489   16.1437   19.2962 C   0  0  0  0  0  0  0  0  0  0  0  0
   25.5968   13.8250   20.1942 C   0  0  0  0  0  0  0  0  0  0  0  0
   25.1445   14.1097   21.2974 O   0  0  0  0  0  0  0  0  0  0  0  0
   26.7145   12.0583   17.6373 H   0  0  0  0  0  0  0  0  0  0  0  0
   26.7732   14.1294   16.1732 H   0  0  0  0  0  0  0  0  0  0  0  0
   26.9202   11.6841   20.4866 C   0  0  0  0  0  0  0  0  0  0  0  0
   27.6794   12.3657   21.4566 C   0  0  0  0  0  0  0  0  0  0  0  0
   28.6439   11.6960   22.2166 C   0  0  0  0  0  0  0  0  0  0  0  0
   28.8612   10.3353   22.0212 C   0  0  0  0  0  0  0  0  0  0  0  0
   30.0495    9.5153   22.9560 Cl  0  0  0  0  0  0  0  0  0  0  0  0
   28.1199    9.6357   21.0746 C   0  0  0  0  0  0  0  0  0  0  0  0
   27.1560   10.3042   20.3148 C   0  0  0  0  0  0  0  0  0  0  0  0
   22.1547   11.1862   19.6967 C   0  0  0  0  0  0  0  0  0  0  0  0
   22.2745    9.9775   18.9968 C   0  0  0  0  0  0  0  0  0  0  0  0
   23.5096    9.5496   18.5137 C   0  0  0  0  0  0  0  0  0  0  0  0
   24.6485   10.3247   18.7262 C   0  0  0  0  0  0  0  0  0  0  0  0
   24.5792   11.5405   19.4351 C   0  0  0  0  0  0  0  0  0  0  0  0
   23.3163   11.9556   19.9016 C   0  0  0  0  0  0  0  0  0  0  0  0
   19.5296   12.9407   21.8000 C   0  0  0  0  0  0  0  0  0  0  0  0
   18.3593   12.5068   21.1758 C   0  0  0  0  0  0  0  0  0  0  0  0
   18.4176   11.6483   20.0803 C   0  0  0  0  0  0  0  0  0  0  0  0
   19.6546   11.2183   19.6001 C   0  0  0  0  0  0  0  0  0  0  0  0
   20.8490   11.6407   20.2059 C   0  0  0  0  0  0  0  0  0  0  0  0
   20.7663   12.5077   21.3131 C   0  0  0  0  0  0  0  0  0  0  0  0
   20.4294   14.5875   23.2615 C   0  0  0  0  0  0  0  0  0  0  0  0
   19.3311   13.7765   22.8648 O   0  0  0  0  0  0  0  0  0  0  0  0
 30 31  1  0
 31 24  1  0
 24 25  2  0
 25 26  1  0
 26 27  2  0
 27 28  1  0
 28 18  1  0
 18 19  2  0
 19 20  1  0
 20 21  2  0
 21 22  1  0
  1 22  1  0
  1 11  1  0
 11 12  2  0
 12 13  1  0
 13 14  2  0
 14 15  1  0
 14 16  1  0
 16 17  2  0
  1  2  1  0
  2  3  1  0
  3  4  2  0
  3  5  1  0
  5  6  1  0
  5  7  1  0
  7  8  2  0
 22 23  2  0
 28 29  2  0
 29 24  1  0
 23 18  1  0
  7  1  1  0
 17 11  1  0
  2  9  1  0
  4 10  1  0
M  END
> <minimizedAffinity>
-9.92885

> <CNNscore>
0.6226819754

> <CNNaffinity>
6.0690250397

> <CNN_VS>
3.7790725231

> <CNNaffinity_variance>
0.4325409830

$$$$



 31 34  0  0  0  0  0  0  0  0999 V2000
   18.0887   11.4351   24.4095 C   0  0  0  0  0  0  0  0  0  0  0  0
   19.0135   10.4357   24.9796 N   0  0  0  0  0  0  0  0  0  0  0  0
   19.8149   11.0242   25.9025 C   0  0  0  0  0  0  0  0  0  0  0  0
   20.8262   10.4820   26.4674 N   0  0  0  0  0  0  0  0  0  0  0  0
   19.4401   12.2966   26.1561 N   0  0  0  0  0  0  0  0  0  0  0  0
   20.0988   13.1905   27.0788 C   0  0  0  0  0  0  0  0  0  0  0  0
   18.4348   12.6804   25.2964 C   0  0  0  0  0  0  0  0  0  0  0  0
   17.9406   13.7991   25.2136 O   0  0  0  0  0  0  0  0  0  0  0  0
   19.0441    9.4844   24.7277 H   0  0  0  0  0  0  0  0  0  0  0  0
   21.0678    9.5513   26.2561 H   0  0  0  0  0  0  0  0  0  0  0  0
   16.6194   11.0384   24.6416 C   0  0  0  0  0  0  0  0  0  0  0  0
   16.2380    9.7404   25.0307 C   0  0  0  0  0  0  0  0  0  0  0  0
   14.8925    9.4153   25.2310 C   0  0  0  0  0  0  0  0  0  0  0  0
   13.9090   10.3831   25.0491 C   0  0  0  0  0  0  0  0  0  0  0  0
   12.2551    9.9795   25.2941 Cl  0  0  0  0  0  0  0  0  0  0  0  0
   14.2585   11.6756   24.6720 C   0  0  0  0  0  0  0  0  0  0  0  0
   15.6028   12.0012   24.4717 C   0  0  0  0  0  0  0  0  0  0  0  0
   20.0351   12.1567   21.1237 C   0  0  0  0  0  0  0  0  0  0  0  0
   19.0641   11.7989   20.1780 C   0  0  0  0  0  0  0  0  0  0  0  0
   17.8111   11.3384   20.5779 C   0  0  0  0  0  0  0  0  0  0  0  0
   17.5073   11.2311   21.9341 C   0  0  0  0  0  0  0  0  0  0  0  0
   18.4467   11.5911   22.9207 C   0  0  0  0  0  0  0  0  0  0  0  0
   19.7099   12.0416   22.4891 C   0  0  0  0  0  0  0  0  0  0  0  0
   23.2081   12.6448   19.1021 C   0  0  0  0  0  0  0  0  0  0  0  0
   23.8888   13.5662   19.8991 C   0  0  0  0  0  0  0  0  0  0  0  0
   23.3257   14.0269   21.0871 C   0  0  0  0  0  0  0  0  0  0  0  0
   22.0707   13.5663   21.4851 C   0  0  0  0  0  0  0  0  0  0  0  0
   21.3610   12.6415   20.7021 C   0  0  0  0  0  0  0  0  0  0  0  0
   21.9500   12.1882   19.5055 C   0  0  0  0  0  0  0  0  0  0  0  0
   24.3371   10.9302   17.9007 C   0  0  0  0  0  0  0  0  0  0  0  0
   23.8738   12.2727   17.9662 O   0  0  0  0  0  0  0  0  0  0  0  0
 30 31  1  0
 31 24  1  0
 24 25  2  0
 25 26  1  0
 26 27  2  0
 27 28  1  0
 28 18  1  0
 18 19  2  0
 19 20  1  0
 20 21  2  0
 21 22  1  0
  1 22  1  0
  1 11  1  0
 11 12  2  0
 12 13  1  0
 13 14  2  0
 14 15  1  0
 14 16  1  0
 16 17  2  0
  1  2  1  0
  2  3  1  0
  3  4  2  0
  3  5  1  0
  5  6  1  0
  5  7  1  0
  7  8  2  0
 22 23  2  0
 28 29  2  0
 29 24  1  0
 23 18  1  0
  7  1  1  0
 17 11  1  0
  2  9  1  0
  4 10  1  0
M  END
> <minimizedAffinity>
-8.84568

> <CNNscore>
0.3946446180

> <CNNaffinity>
5.5077834129

> <CNN_VS>
2.1736171246

> <CNNaffinity_variance>
0.3894704282

$$$$



 31 34  0  0  0  0  0  0  0  0999 V2000
   25.9758   13.1067   19.5710 C   0  0  0  0  0  0  0  0  0  0  0  0
   26.3016   13.1606   18.1322 N   0  0  0  0  0  0  0  0  0  0  0  0
   26.5824   14.4379   17.7716 C   0  0  0  0  0  0  0  0  0  0  0  0
   26.7490   14.8563   16.5745 N   0  0  0  0  0  0  0  0  0  0  0  0
   26.6456   15.2602   18.8410 N   0  0  0  0  0  0  0  0  0  0  0  0
   26.9130   16.6779   18.7867 C   0  0  0  0  0  0  0  0  0  0  0  0
   26.2641   14.5913   19.9830 C   0  0  0  0  0  0  0  0  0  0  0  0
   26.1317   15.0810   21.0990 O   0  0  0  0  0  0  0  0  0  0  0  0
   26.3133   12.3856   17.5251 H   0  0  0  0  0  0  0  0  0  0  0  0
   26.6954   14.2254   15.8206 H   0  0  0  0  0  0  0  0  0  0  0  0
   26.9359   12.1730   20.3302 C   0  0  0  0  0  0  0  0  0  0  0  0
   27.0235   10.7944   20.0591 C   0  0  0  0  0  0  0  0  0  0  0  0
   27.9067    9.9758   20.7707 C   0  0  0  0  0  0  0  0  0  0  0  0
   28.7174   10.5233   21.7606 C   0  0  0  0  0  0  0  0  0  0  0  0
   29.8008    9.5135   22.6352 Cl  0  0  0  0  0  0  0  0  0  0  0  0
   28.6565   11.8838   22.0438 C   0  0  0  0  0  0  0  0  0  0  0  0
   27.7744   12.7024   21.3332 C   0  0  0  0  0  0  0  0  0  0  0  0
   22.2696   12.8770   20.7186 C   0  0  0  0  0  0  0  0  0  0  0  0
   21.7913   11.9157   19.8174 C   0  0  0  0  0  0  0  0  0  0  0  0
   22.6331   11.3483   18.8627 C   0  0  0  0  0  0  0  0  0  0  0  0
   23.9714   11.7323   18.7960 C   0  0  0  0  0  0  0  0  0  0  0  0
   24.5002   12.6853   19.6891 C   0  0  0  0  0  0  0  0  0  0  0  0
   23.6245   13.2522   20.6360 C   0  0  0  0  0  0  0  0  0  0  0  0
   19.2053   13.6011   22.8350 C   0  0  0  0  0  0  0  0  0  0  0  0
   19.6847   14.6281   23.6492 C   0  0  0  0  0  0  0  0  0  0  0  0
   20.9930   15.0871   23.5137 C   0  0  0  0  0  0  0  0  0  0  0  0
   21.8336   14.5163   22.5581 C   0  0  0  0  0  0  0  0  0  0  0  0
   21.3800   13.4793   21.7268 C   0  0  0  0  0  0  0  0  0  0  0  0
   20.0531   13.0319   21.8804 C   0  0  0  0  0  0  0  0  0  0  0  0
   17.6795   12.0014   23.7127 C   0  0  0  0  0  0  0  0  0  0  0  0
   17.9042   13.2489   23.0688 O   0  0  0  0  0  0  0  0  0  0  0  0
 30 31  1  0
 31 24  1  0
 24 25  2  0
 25 26  1  0
 26 27  2  0
 27 28  1  0
 28 18  1  0
 18 19  2  0
 19 20  1  0
 20 21  2  0
 21 22  1  0
  1 22  1  0
  1 11  1  0
 11 12  2  0
 12 13  1  0
 13 14  2  0
 14 15  1  0
 14 16  1  0
 16 17  2  0
  1  2  1  0
  2  3  1  0
  3  4  2  0
  3  5  1  0
  5  6  1  0
  5  7  1  0
  7  8  2  0
 22 23  2  0
 28 29  2  0
 29 24  1  0
 23 18  1  0
  7  1  1  0
 17 11  1  0
  2  9  1  0
  4 10  1  0
M  END
> <minimizedAffinity>
-8.67681

> <CNNscore>
0.3616093993

> <CNNaffinity>
5.7981853485

> <CNN_VS>
2.0966782570

> <CNNaffinity_variance>
0.2603936791

$$$$



 31 34  0  0  0  0  0  0  0  0999 V2000
   19.9496   11.1876   22.6826 C   0  0  0  0  0  0  0  0  0  0  0  0
   20.5609   10.3012   23.6924 N   0  0  0  0  0  0  0  0  0  0  0  0
   20.4050   10.8365   24.9291 C   0  0  0  0  0  0  0  0  0  0  0  0
   20.9506   10.4063   26.0030 N   0  0  0  0  0  0  0  0  0  0  0  0
   19.6066   11.9255   24.9090 N   0  0  0  0  0  0  0  0  0  0  0  0
   19.2583   12.7240   26.0602 C   0  0  0  0  0  0  0  0  0  0  0  0
   19.2936   12.2662   23.6117 C   0  0  0  0  0  0  0  0  0  0  0  0
   18.6608   13.2536   23.2549 O   0  0  0  0  0  0  0  0  0  0  0  0
   21.0140    9.4492   23.4975 H   0  0  0  0  0  0  0  0  0  0  0  0
   21.5267    9.6083   25.9770 H   0  0  0  0  0  0  0  0  0  0  0  0
   18.8474   10.4613   21.8903 C   0  0  0  0  0  0  0  0  0  0  0  0
   19.1143    9.7329   20.7156 C   0  0  0  0  0  0  0  0  0  0  0  0
   18.0869    9.0866   20.0205 C   0  0  0  0  0  0  0  0  0  0  0  0
   16.7789    9.1557   20.4909 C   0  0  0  0  0  0  0  0  0  0  0  0
   15.5175    8.3616   19.6326 Cl  0  0  0  0  0  0  0  0  0  0  0  0
   16.4882    9.8625   21.6532 C   0  0  0  0  0  0  0  0  0  0  0  0
   17.5142   10.5084   22.3483 C   0  0  0  0  0  0  0  0  0  0  0  0
   23.4255   12.4194   21.4554 C   0  0  0  0  0  0  0  0  0  0  0  0
   23.1470   12.6316   20.0979 C   0  0  0  0  0  0  0  0  0  0  0  0
   21.8753   12.3896   19.5819 C   0  0  0  0  0  0  0  0  0  0  0  0
   20.8581   11.9331   20.4185 C   0  0  0  0  0  0  0  0  0  0  0  0
   21.0875   11.7176   21.7920 C   0  0  0  0  0  0  0  0  0  0  0  0
   22.3852   11.9581   22.2849 C   0  0  0  0  0  0  0  0  0  0  0  0
   26.2107   13.4852   23.8007 C   0  0  0  0  0  0  0  0  0  0  0  0
   27.3343   13.1550   23.0419 C   0  0  0  0  0  0  0  0  0  0  0  0
   27.1931   12.5918   21.7755 C   0  0  0  0  0  0  0  0  0  0  0  0
   25.9192   12.3535   21.2598 C   0  0  0  0  0  0  0  0  0  0  0  0
   24.7703   12.6726   22.0015 C   0  0  0  0  0  0  0  0  0  0  0  0
   24.9367   13.2424   23.2790 C   0  0  0  0  0  0  0  0  0  0  0  0
   25.3889   14.5321   25.7721 C   0  0  0  0  0  0  0  0  0  0  0  0
   26.4895   14.0338   25.0225 O   0  0  0  0  0  0  0  0  0  0  0  0
 30 31  1  0
 31 24  1  0
 24 25  2  0
 25 26  1  0
 26 27  2  0
 27 28  1  0
 28 18  1  0
 18 19  2  0
 19 20  1  0
 20 21  2  0
 21 22  1  0
  1 22  1  0
  1 11  1  0
 11 12  2  0
 12 13  1  0
 13 14  2  0
 14 15  1  0
 14 16  1  0
 16 17  2  0
  1  2  1  0
  2  3  1  0
  3  4  2  0
  3  5  1  0
  5  6  1  0
  5  7  1  0
  7  8  2  0
 22 23  2  0
 28 29  2  0
 29 24  1  0
 23 18  1  0
  7  1  1  0
 17 11  1  0
  2  9  1  0
  4 10  1  0
M  END
> <minimizedAffinity>
-8.09119

> <CNNscore>
0.3312291205

> <CNNaffinity>
5.8949012756

> <CNN_VS>
1.9525629282

> <CNNaffinity_variance>
0.0353222676

$$$$



 31 34  0  0  0  0  0  0  0  0999 V2000
   23.6318   12.9397   20.8314 C   0  0  0  0  0  0  0  0  0  0  0  0
   24.2652   11.9004   21.6668 N   0  0  0  0  0  0  0  0  0  0  0  0
   24.3548   10.7406   20.9688 C   0  0  0  0  0  0  0  0  0  0  0  0
   24.7060    9.6072   21.4463 N   0  0  0  0  0  0  0  0  0  0  0  0
   23.9979   10.9023   19.6764 N   0  0  0  0  0  0  0  0  0  0  0  0
   23.9748    9.8561   18.6818 C   0  0  0  0  0  0  0  0  0  0  0  0
   23.5064   12.1723   19.4704 C   0  0  0  0  0  0  0  0  0  0  0  0
   23.0209   12.6008   18.4296 O   0  0  0  0  0  0  0  0  0  0  0  0
   24.5760   12.0297   22.5919 H   0  0  0  0  0  0  0  0  0  0  0  0
   24.9594    9.5297   22.3945 H   0  0  0  0  0  0  0  0  0  0  0  0
   24.5591   14.1546   20.6462 C   0  0  0  0  0  0  0  0  0  0  0  0
   25.4672   14.5719   21.6377 C   0  0  0  0  0  0  0  0  0  0  0  0
   26.2935   15.6821   21.4352 C   0  0  0  0  0  0  0  0  0  0  0  0
   26.2272   16.3890   20.2381 C   0  0  0  0  0  0  0  0  0  0  0  0
   27.2433   17.7550   19.9932 Cl  0  0  0  0  0  0  0  0  0  0  0  0
   25.3441   15.9939   19.2386 C   0  0  0  0  0  0  0  0  0  0  0  0
   24.5182   14.8847   19.4402 C   0  0  0  0  0  0  0  0  0  0  0  0
   19.9160   12.8264   21.9650 C   0  0  0  0  0  0  0  0  0  0  0  0
   19.8685   13.9730   22.7702 C   0  0  0  0  0  0  0  0  0  0  0  0
   20.9978   14.7699   22.9478 C   0  0  0  0  0  0  0  0  0  0  0  0
   22.1952   14.4336   22.3186 C   0  0  0  0  0  0  0  0  0  0  0  0
   22.2875   13.2977   21.4898 C   0  0  0  0  0  0  0  0  0  0  0  0
   21.1344   12.5026   21.3375 C   0  0  0  0  0  0  0  0  0  0  0  0
   17.5543   10.1949   20.5898 C   0  0  0  0  0  0  0  0  0  0  0  0
   16.4492   10.3718   21.4234 C   0  0  0  0  0  0  0  0  0  0  0  0
   16.4657   11.3396   22.4253 C   0  0  0  0  0  0  0  0  0  0  0  0
   17.5953   12.1389   22.6000 C   0  0  0  0  0  0  0  0  0  0  0  0
   18.7233   11.9817   21.7784 C   0  0  0  0  0  0  0  0  0  0  0  0
   18.6841   10.9979   20.7710 C   0  0  0  0  0  0  0  0  0  0  0  0
   16.5002    8.1612   19.9491 C   0  0  0  0  0  0  0  0  0  0  0  0
   17.4054    9.2150   19.6468 O   0  0  0  0  0  0  0  0  0  0  0  0
 30 31  1  0
 31 24  1  0
 24 25  2  0
 25 26  1  0
 26 27  2  0
 27 28  1  0
 28 18  1  0
 18 19  2  0
 19 20  1  0
 20 21  2  0
 21 22  1  0
  1 22  1  0
  1 11  1  0
 11 12  2  0
 12 13  1  0
 13 14  2  0
 14 15  1  0
 14 16  1  0
 16 17  2  0
  1  2  1  0
  2  3  1  0
  3  4  2  0
  3  5  1  0
  5  6  1  0
  5  7  1  0
  7  8  2  0
 22 23  2  0
 28 29  2  0
 29 24  1  0
 23 18  1  0
  7  1  1  0
 17 11  1  0
  2  9  1  0
  4 10  1  0
M  END
> <minimizedAffinity>
-9.01634

> <CNNscore>
0.2816374302

> <CNNaffinity>
5.6141643524

> <CNN_VS>
1.5811588764

> <CNNaffinity_variance>
0.3782337606

$$$$
