


 45 50  0  0  0  0  0  0  0  0999 V2000
   12.4461   19.9830  -39.5606 C   0  0  0  0  0  0  0  0  0  0  0  0
   11.3788   18.9520  -39.7717 C   0  0  0  0  0  0  0  0  0  0  0  0
   10.4495   18.5755  -38.9144 N   0  0  0  0  0  0  0  0  0  0  0  0
    9.6989   17.6139  -39.5601 C   0  0  0  0  0  0  0  0  0  0  0  0
   10.1749   17.4300  -40.8412 C   0  0  0  0  0  0  0  0  0  0  0  0
   11.2318   18.2906  -40.9656 N   0  0  0  0  0  0  0  0  0  0  0  0
   11.7878   18.4135  -41.7687 H   0  0  0  0  0  0  0  0  0  0  0  0
    8.5867   16.9169  -38.9260 C   0  0  0  0  0  0  0  0  0  0  0  0
    8.0050   17.3763  -37.7342 C   0  0  0  0  0  0  0  0  0  0  0  0
    6.9233   16.7054  -37.1385 C   0  0  0  0  0  0  0  0  0  0  0  0
    6.4139   15.5485  -37.7545 C   0  0  0  0  0  0  0  0  0  0  0  0
    5.3744   14.6139  -37.5007 C   0  0  0  0  0  0  0  0  0  0  0  0
    4.5312   14.6729  -36.4576 N   0  0  0  0  0  0  0  0  0  0  0  0
    5.3085   13.6651  -38.4296 N   0  0  0  0  0  0  0  0  0  0  0  0
    6.3092   13.9744  -39.2713 N   0  0  0  0  0  0  0  0  0  0  0  0
    7.0057   15.1013  -38.9286 C   0  0  0  0  0  0  0  0  0  0  0  0
    8.0847   15.7527  -39.5378 C   0  0  0  0  0  0  0  0  0  0  0  0
    4.6187   15.3949  -35.7942 H   0  0  0  0  0  0  0  0  0  0  0  0
    3.8254   13.9940  -36.3562 H   0  0  0  0  0  0  0  0  0  0  0  0
    6.5232   13.4359  -40.0671 H   0  0  0  0  0  0  0  0  0  0  0  0
   14.1494   18.4934  -38.5795 C   0  0  0  0  0  0  0  0  0  0  0  0
   13.5057   18.2581  -37.5638 O   0  0  0  0  0  0  0  0  0  0  0  0
   13.7133   19.2696  -39.6146 N   0  0  0  0  0  0  0  0  0  0  0  0
   14.2725   19.3489  -40.4210 H   0  0  0  0  0  0  0  0  0  0  0  0
   15.4974   17.9235  -38.8086 C   0  0  0  0  0  0  0  0  0  0  0  0
   16.4282   18.6865  -39.4017 C   0  0  0  0  0  0  0  0  0  0  0  0
   17.7933   18.2109  -39.6364 C   0  0  0  0  0  0  0  0  0  0  0  0
   18.7244   18.5180  -38.6212 C   0  0  0  0  0  0  0  0  0  0  0  0
   20.0534   18.1125  -38.7161 C   0  0  0  0  0  0  0  0  0  0  0  0
   21.1632   18.5151  -37.4661 Cl  0  0  0  0  0  0  0  0  0  0  0  0
   20.4831   17.3864  -39.8169 C   0  0  0  0  0  0  0  0  0  0  0  0
   19.5755   17.0670  -40.8294 C   0  0  0  0  0  0  0  0  0  0  0  0
   18.2227   17.4747  -40.7618 C   0  0  0  0  0  0  0  0  0  0  0  0
   17.3818   17.1159  -41.8584 N   0  0  0  0  0  0  0  0  0  0  0  0
   16.2663   16.3629  -41.6658 N   0  0  0  0  0  0  0  0  0  0  0  0
   15.7220   16.1840  -42.8584 N   0  0  0  0  0  0  0  0  0  0  0  0
   16.4555   16.8006  -43.8282 N   0  0  0  0  0  0  0  0  0  0  0  0
   17.4663   17.3662  -43.2071 C   0  0  0  0  0  0  0  0  0  0  0  0
   12.3634   21.0878  -40.6327 C   0  0  0  0  0  0  0  0  0  0  0  0
   13.6146   21.2055  -41.4744 C   0  0  0  0  0  0  0  0  0  0  0  0
   14.4567   22.3185  -41.3407 C   0  0  0  0  0  0  0  0  0  0  0  0
   15.6069   22.4330  -42.1226 C   0  0  0  0  0  0  0  0  0  0  0  0
   15.9249   21.4389  -43.0462 C   0  0  0  0  0  0  0  0  0  0  0  0
   15.0946   20.3282  -43.1869 C   0  0  0  0  0  0  0  0  0  0  0  0
   13.9462   20.2090  -42.4031 C   0  0  0  0  0  0  0  0  0  0  0  0
 25 21  1  0
 21 22  2  0
 21 23  1  0
 23  1  1  0
  1  2  1  0
  2  3  2  0
  3  4  1  0
  4  8  1  0
  8  9  2  0
  9 10  1  0
 10 11  2  0
 11 12  1  0
 12 13  1  0
 12 14  2  0
 14 15  1  0
 15 16  1  0
 16 17  2  0
  4  5  2  0
  5  6  1  0
  1 39  1  0
 39 40  1  0
 40 41  2  0
 41 42  1  0
 42 43  2  0
 43 44  1  0
 44 45  2  0
 25 26  2  0
 26 27  1  0
 27 28  2  0
 28 29  1  0
 29 30  1  0
 29 31  2  0
 31 32  1  0
 32 33  2  0
 33 34  1  0
 34 35  1  0
 35 36  2  0
 36 37  1  0
 37 38  2  0
  6  2  1  0
 45 40  1  0
 33 27  1  0
 38 34  1  0
 17  8  1  0
 16 11  1  0
 23 24  1  0
 13 18  1  0
 13 19  1  0
 15 20  1  0
  6  7  1  0
M  END
> <minimizedAffinity>
-10.87026

> <CNNscore>
0.9557621479

> <CNNaffinity>
8.4439287186

> <CNN_VS>
8.0703878403

> <CNNaffinity_variance>
0.1229871288

$$$$



 45 50  0  0  0  0  0  0  0  0999 V2000
   12.5893   21.2702  -41.0788 C   0  0  0  0  0  0  0  0  0  0  0  0
   11.6966   20.4994  -40.1537 C   0  0  0  0  0  0  0  0  0  0  0  0
   11.0053   19.4108  -40.4317 N   0  0  0  0  0  0  0  0  0  0  0  0
   10.3478   19.0663  -39.2680 C   0  0  0  0  0  0  0  0  0  0  0  0
   10.6738   19.9547  -38.2651 C   0  0  0  0  0  0  0  0  0  0  0  0
   11.5364   20.8507  -38.8363 N   0  0  0  0  0  0  0  0  0  0  0  0
   11.9657   21.6119  -38.3830 H   0  0  0  0  0  0  0  0  0  0  0  0
    9.4417   17.9282  -39.1754 C   0  0  0  0  0  0  0  0  0  0  0  0
    9.5096   16.8499  -40.0713 C   0  0  0  0  0  0  0  0  0  0  0  0
    8.6410   15.7504  -39.9645 C   0  0  0  0  0  0  0  0  0  0  0  0
    7.6842   15.7329  -38.9342 C   0  0  0  0  0  0  0  0  0  0  0  0
    6.6634   14.8526  -38.4854 C   0  0  0  0  0  0  0  0  0  0  0  0
    6.3773   13.6659  -39.0441 N   0  0  0  0  0  0  0  0  0  0  0  0
    6.0183   15.3249  -37.4232 N   0  0  0  0  0  0  0  0  0  0  0  0
    6.6073   16.5108  -37.1951 N   0  0  0  0  0  0  0  0  0  0  0  0
    7.6233   16.8111  -38.0610 C   0  0  0  0  0  0  0  0  0  0  0  0
    8.4770   17.9170  -38.1502 C   0  0  0  0  0  0  0  0  0  0  0  0
    6.8826   13.3575  -39.8308 H   0  0  0  0  0  0  0  0  0  0  0  0
    5.6621   13.1039  -38.6672 H   0  0  0  0  0  0  0  0  0  0  0  0
    6.3311   17.1128  -36.4667 H   0  0  0  0  0  0  0  0  0  0  0  0
   14.6069   20.2501  -40.0932 C   0  0  0  0  0  0  0  0  0  0  0  0
   14.3248   20.5592  -38.9415 O   0  0  0  0  0  0  0  0  0  0  0  0
   13.8225   20.5044  -41.1813 N   0  0  0  0  0  0  0  0  0  0  0  0
   14.0992   20.1596  -42.0610 H   0  0  0  0  0  0  0  0  0  0  0  0
   15.8533   19.5248  -40.4323 C   0  0  0  0  0  0  0  0  0  0  0  0
   16.6763   19.1568  -39.4385 C   0  0  0  0  0  0  0  0  0  0  0  0
   17.9115   18.4097  -39.6846 C   0  0  0  0  0  0  0  0  0  0  0  0
   18.9253   18.5804  -38.7175 C   0  0  0  0  0  0  0  0  0  0  0  0
   20.1446   17.9164  -38.8273 C   0  0  0  0  0  0  0  0  0  0  0  0
   21.3617   18.1578  -37.6371 Cl  0  0  0  0  0  0  0  0  0  0  0  0
   20.3791   17.0626  -39.8950 C   0  0  0  0  0  0  0  0  0  0  0  0
   19.3860   16.8755  -40.8592 C   0  0  0  0  0  0  0  0  0  0  0  0
   18.1427   17.5449  -40.7761 C   0  0  0  0  0  0  0  0  0  0  0  0
   17.2040   17.3015  -41.8240 N   0  0  0  0  0  0  0  0  0  0  0  0
   16.1820   16.4208  -41.6552 N   0  0  0  0  0  0  0  0  0  0  0  0
   15.5111   16.3994  -42.7954 N   0  0  0  0  0  0  0  0  0  0  0  0
   16.0703   17.2441  -43.7078 N   0  0  0  0  0  0  0  0  0  0  0  0
   17.1029   17.7894  -43.1047 C   0  0  0  0  0  0  0  0  0  0  0  0
   11.9194   21.4659  -42.4534 C   0  0  0  0  0  0  0  0  0  0  0  0
   11.3152   22.8400  -42.6391 C   0  0  0  0  0  0  0  0  0  0  0  0
   11.8758   23.9534  -41.9974 C   0  0  0  0  0  0  0  0  0  0  0  0
   11.3146   25.2206  -42.1607 C   0  0  0  0  0  0  0  0  0  0  0  0
   10.1875   25.3867  -42.9635 C   0  0  0  0  0  0  0  0  0  0  0  0
    9.6224   24.2864  -43.6061 C   0  0  0  0  0  0  0  0  0  0  0  0
   10.1843   23.0189  -43.4482 C   0  0  0  0  0  0  0  0  0  0  0  0
 25 21  1  0
 21 22  2  0
 21 23  1  0
 23  1  1  0
  1  2  1  0
  2  3  2  0
  3  4  1  0
  4  8  1  0
  8  9  2  0
  9 10  1  0
 10 11  2  0
 11 12  1  0
 12 13  1  0
 12 14  2  0
 14 15  1  0
 15 16  1  0
 16 17  2  0
  4  5  2  0
  5  6  1  0
  1 39  1  0
 39 40  1  0
 40 41  2  0
 41 42  1  0
 42 43  2  0
 43 44  1  0
 44 45  2  0
 25 26  2  0
 26 27  1  0
 27 28  2  0
 28 29  1  0
 29 30  1  0
 29 31  2  0
 31 32  1  0
 32 33  2  0
 33 34  1  0
 34 35  1  0
 35 36  2  0
 36 37  1  0
 37 38  2  0
  6  2  1  0
 45 40  1  0
 33 27  1  0
 38 34  1  0
 17  8  1  0
 16 11  1  0
 23 24  1  0
 13 18  1  0
 13 19  1  0
 15 20  1  0
  6  7  1  0
M  END
> <minimizedAffinity>
-10.17360

> <CNNscore>
0.7405615449

> <CNNaffinity>
7.9153141975

> <CNN_VS>
5.8617773056

> <CNNaffinity_variance>
0.0903936252

$$$$



 45 50  0  0  0  0  0  0  0  0999 V2000
   11.7158   19.5351  -38.9465 C   0  0  0  0  0  0  0  0  0  0  0  0
   10.7083   18.4734  -39.2698 C   0  0  0  0  0  0  0  0  0  0  0  0
    9.7024   18.0697  -38.5180 N   0  0  0  0  0  0  0  0  0  0  0  0
    9.0549   17.0868  -39.2389 C   0  0  0  0  0  0  0  0  0  0  0  0
    9.6729   16.9172  -40.4598 C   0  0  0  0  0  0  0  0  0  0  0  0
   10.7117   17.8083  -40.4708 N   0  0  0  0  0  0  0  0  0  0  0  0
   11.3482   17.9477  -41.2088 H   0  0  0  0  0  0  0  0  0  0  0  0
    7.9008   16.3575  -38.7278 C   0  0  0  0  0  0  0  0  0  0  0  0
    7.0977   16.8671  -37.6958 C   0  0  0  0  0  0  0  0  0  0  0  0
    5.9784   16.1630  -37.2202 C   0  0  0  0  0  0  0  0  0  0  0  0
    5.6580   14.9202  -37.7949 C   0  0  0  0  0  0  0  0  0  0  0  0
    4.6553   13.9286  -37.6227 C   0  0  0  0  0  0  0  0  0  0  0  0
    3.6467   14.0067  -36.7400 N   0  0  0  0  0  0  0  0  0  0  0  0
    4.8099   12.9023  -38.4534 N   0  0  0  0  0  0  0  0  0  0  0  0
    5.9150   13.2200  -39.1486 N   0  0  0  0  0  0  0  0  0  0  0  0
    6.4673   14.4250  -38.8092 C   0  0  0  0  0  0  0  0  0  0  0  0
    7.5876   15.1085  -39.2966 C   0  0  0  0  0  0  0  0  0  0  0  0
    3.5731   14.7871  -36.1444 H   0  0  0  0  0  0  0  0  0  0  0  0
    2.9807   13.2834  -36.6883 H   0  0  0  0  0  0  0  0  0  0  0  0
    6.2952   12.6352  -39.8434 H   0  0  0  0  0  0  0  0  0  0  0  0
   14.1204   19.5689  -39.4938 C   0  0  0  0  0  0  0  0  0  0  0  0
   14.1434   20.7610  -39.7766 O   0  0  0  0  0  0  0  0  0  0  0  0
   13.0202   18.8972  -39.0440 N   0  0  0  0  0  0  0  0  0  0  0  0
   13.1120   17.9539  -38.7778 H   0  0  0  0  0  0  0  0  0  0  0  0
   15.3252   18.7124  -39.5894 C   0  0  0  0  0  0  0  0  0  0  0  0
   16.5243   19.2986  -39.7263 C   0  0  0  0  0  0  0  0  0  0  0  0
   17.7668   18.5267  -39.7961 C   0  0  0  0  0  0  0  0  0  0  0  0
   18.6891   18.7681  -38.7554 C   0  0  0  0  0  0  0  0  0  0  0  0
   19.9042   18.0900  -38.6980 C   0  0  0  0  0  0  0  0  0  0  0  0
   21.0092   18.4187  -37.4223 Cl  0  0  0  0  0  0  0  0  0  0  0  0
   20.2248   17.1520  -39.6681 C   0  0  0  0  0  0  0  0  0  0  0  0
   19.3227   16.8941  -40.7028 C   0  0  0  0  0  0  0  0  0  0  0  0
   18.0862   17.5756  -40.7894 C   0  0  0  0  0  0  0  0  0  0  0  0
   17.2452   17.2547  -41.8975 N   0  0  0  0  0  0  0  0  0  0  0  0
   16.2711   16.3130  -41.7851 N   0  0  0  0  0  0  0  0  0  0  0  0
   15.6895   16.2292  -42.9705 N   0  0  0  0  0  0  0  0  0  0  0  0
   16.2605   17.0928  -43.8575 N   0  0  0  0  0  0  0  0  0  0  0  0
   17.2090   17.7136  -43.1924 C   0  0  0  0  0  0  0  0  0  0  0  0
   11.5869   20.7285  -39.9139 C   0  0  0  0  0  0  0  0  0  0  0  0
   10.4200   21.6373  -39.5975 C   0  0  0  0  0  0  0  0  0  0  0  0
    9.8054   22.3817  -40.6143 C   0  0  0  0  0  0  0  0  0  0  0  0
    8.7341   23.2273  -40.3228 C   0  0  0  0  0  0  0  0  0  0  0  0
    8.2692   23.3390  -39.0137 C   0  0  0  0  0  0  0  0  0  0  0  0
    8.8730   22.6032  -37.9954 C   0  0  0  0  0  0  0  0  0  0  0  0
    9.9414   21.7535  -38.2849 C   0  0  0  0  0  0  0  0  0  0  0  0
 25 21  1  0
 21 22  2  0
 21 23  1  0
 23  1  1  0
  1  2  1  0
  2  3  2  0
  3  4  1  0
  4  8  1  0
  8  9  2  0
  9 10  1  0
 10 11  2  0
 11 12  1  0
 12 13  1  0
 12 14  2  0
 14 15  1  0
 15 16  1  0
 16 17  2  0
  4  5  2  0
  5  6  1  0
  1 39  1  0
 39 40  1  0
 40 41  2  0
 41 42  1  0
 42 43  2  0
 43 44  1  0
 44 45  2  0
 25 26  2  0
 26 27  1  0
 27 28  2  0
 28 29  1  0
 29 30  1  0
 29 31  2  0
 31 32  1  0
 32 33  2  0
 33 34  1  0
 34 35  1  0
 35 36  2  0
 36 37  1  0
 37 38  2  0
  6  2  1  0
 45 40  1  0
 33 27  1  0
 38 34  1  0
 17  8  1  0
 16 11  1  0
 23 24  1  0
 13 18  1  0
 13 19  1  0
 15 20  1  0
  6  7  1  0
M  END
> <minimizedAffinity>
-10.23926

> <CNNscore>
0.6527474523

> <CNNaffinity>
7.6616172791

> <CNN_VS>
5.0011010170

> <CNNaffinity_variance>
0.0811603591

$$$$



 45 50  0  0  0  0  0  0  0  0999 V2000
   10.9193   19.0891  -40.9499 C   0  0  0  0  0  0  0  0  0  0  0  0
   12.2554   18.8793  -40.3035 C   0  0  0  0  0  0  0  0  0  0  0  0
   13.3632   18.4512  -40.8775 N   0  0  0  0  0  0  0  0  0  0  0  0
   14.3247   18.4298  -39.8874 C   0  0  0  0  0  0  0  0  0  0  0  0
   13.7854   18.8796  -38.7007 C   0  0  0  0  0  0  0  0  0  0  0  0
   12.4776   19.1707  -38.9805 N   0  0  0  0  0  0  0  0  0  0  0  0
   11.8142   19.5259  -38.3458 H   0  0  0  0  0  0  0  0  0  0  0  0
   15.6902   17.9740  -40.1167 C   0  0  0  0  0  0  0  0  0  0  0  0
   16.0359   17.1955  -41.2322 C   0  0  0  0  0  0  0  0  0  0  0  0
   17.3582   16.7734  -41.4521 C   0  0  0  0  0  0  0  0  0  0  0  0
   18.3553   17.1429  -40.5320 C   0  0  0  0  0  0  0  0  0  0  0  0
   19.7542   16.9420  -40.3866 C   0  0  0  0  0  0  0  0  0  0  0  0
   20.5220   16.2576  -41.2495 N   0  0  0  0  0  0  0  0  0  0  0  0
   20.2392   17.5273  -39.2959 N   0  0  0  0  0  0  0  0  0  0  0  0
   19.1584   18.0905  -38.7302 N   0  0  0  0  0  0  0  0  0  0  0  0
   17.9963   17.9060  -39.4286 C   0  0  0  0  0  0  0  0  0  0  0  0
   16.6855   18.3354  -39.1891 C   0  0  0  0  0  0  0  0  0  0  0  0
   20.1177   15.8408  -42.0445 H   0  0  0  0  0  0  0  0  0  0  0  0
   21.4893   16.1726  -41.0873 H   0  0  0  0  0  0  0  0  0  0  0  0
   19.1992   18.5934  -37.8848 H   0  0  0  0  0  0  0  0  0  0  0  0
   10.9395   21.2338  -42.1673 C   0  0  0  0  0  0  0  0  0  0  0  0
   10.5910   21.9023  -41.2013 O   0  0  0  0  0  0  0  0  0  0  0  0
   11.1675   19.8880  -42.1406 N   0  0  0  0  0  0  0  0  0  0  0  0
   11.5099   19.4451  -42.9505 H   0  0  0  0  0  0  0  0  0  0  0  0
   11.1812   21.8377  -43.4982 C   0  0  0  0  0  0  0  0  0  0  0  0
   11.4682   23.1465  -43.5704 C   0  0  0  0  0  0  0  0  0  0  0  0
   11.7513   23.8142  -44.8426 C   0  0  0  0  0  0  0  0  0  0  0  0
   11.4242   23.0757  -46.0000 C   0  0  0  0  0  0  0  0  0  0  0  0
   11.6324   23.6016  -47.2727 C   0  0  0  0  0  0  0  0  0  0  0  0
   11.2339   22.6686  -48.6609 Cl  0  0  0  0  0  0  0  0  0  0  0  0
   12.1615   24.8750  -47.4222 C   0  0  0  0  0  0  0  0  0  0  0  0
   12.4857   25.6244  -46.2890 C   0  0  0  0  0  0  0  0  0  0  0  0
   12.2929   25.1100  -44.9854 C   0  0  0  0  0  0  0  0  0  0  0  0
   12.6767   25.9475  -43.8947 N   0  0  0  0  0  0  0  0  0  0  0  0
   11.8862   26.9785  -43.4942 N   0  0  0  0  0  0  0  0  0  0  0  0
   12.5167   27.5696  -42.4924 N   0  0  0  0  0  0  0  0  0  0  0  0
   13.7025   26.9512  -42.2281 N   0  0  0  0  0  0  0  0  0  0  0  0
   13.7904   25.9627  -43.0897 C   0  0  0  0  0  0  0  0  0  0  0  0
   10.2560   17.7401  -41.2920 C   0  0  0  0  0  0  0  0  0  0  0  0
    9.4395   17.1649  -40.1561 C   0  0  0  0  0  0  0  0  0  0  0  0
    9.0588   17.9740  -39.0762 C   0  0  0  0  0  0  0  0  0  0  0  0
    8.3128   17.4430  -38.0231 C   0  0  0  0  0  0  0  0  0  0  0  0
    7.9429   16.0993  -38.0378 C   0  0  0  0  0  0  0  0  0  0  0  0
    8.3161   15.2863  -39.1066 C   0  0  0  0  0  0  0  0  0  0  0  0
    9.0582   15.8159  -40.1631 C   0  0  0  0  0  0  0  0  0  0  0  0
 25 21  1  0
 21 22  2  0
 21 23  1  0
 23  1  1  0
  1  2  1  0
  2  3  2  0
  3  4  1  0
  4  8  1  0
  8  9  2  0
  9 10  1  0
 10 11  2  0
 11 12  1  0
 12 13  1  0
 12 14  2  0
 14 15  1  0
 15 16  1  0
 16 17  2  0
  4  5  2  0
  5  6  1  0
  1 39  1  0
 39 40  1  0
 40 41  2  0
 41 42  1  0
 42 43  2  0
 43 44  1  0
 44 45  2  0
 25 26  2  0
 26 27  1  0
 27 28  2  0
 28 29  1  0
 29 30  1  0
 29 31  2  0
 31 32  1  0
 32 33  2  0
 33 34  1  0
 34 35  1  0
 35 36  2  0
 36 37  1  0
 37 38  2  0
  6  2  1  0
 45 40  1  0
 33 27  1  0
 38 34  1  0
 17  8  1  0
 16 11  1  0
 23 24  1  0
 13 18  1  0
 13 19  1  0
 15 20  1  0
  6  7  1  0
M  END
> <minimizedAffinity>
-9.93078

> <CNNscore>
0.3246383667

> <CNNaffinity>
7.0691585541

> <CNN_VS>
2.2949202061

> <CNNaffinity_variance>
0.6493728757

$$$$



 45 50  0  0  0  0  0  0  0  0999 V2000
    9.9405   20.9127  -40.9949 C   0  0  0  0  0  0  0  0  0  0  0  0
    9.8072   22.0362  -41.9782 C   0  0  0  0  0  0  0  0  0  0  0  0
   10.3809   23.2226  -41.9199 N   0  0  0  0  0  0  0  0  0  0  0  0
    9.9666   23.9048  -43.0460 C   0  0  0  0  0  0  0  0  0  0  0  0
    9.1470   23.0985  -43.8073 C   0  0  0  0  0  0  0  0  0  0  0  0
    9.0628   21.9149  -43.1253 N   0  0  0  0  0  0  0  0  0  0  0  0
    8.5580   21.1180  -43.4072 H   0  0  0  0  0  0  0  0  0  0  0  0
   10.3577   25.2801  -43.3295 C   0  0  0  0  0  0  0  0  0  0  0  0
   10.4534   25.7697  -44.6414 C   0  0  0  0  0  0  0  0  0  0  0  0
   10.8170   27.1015  -44.9037 C   0  0  0  0  0  0  0  0  0  0  0  0
   11.0889   27.9609  -43.8244 C   0  0  0  0  0  0  0  0  0  0  0  0
   11.4676   29.3196  -43.6540 C   0  0  0  0  0  0  0  0  0  0  0  0
   11.6581   30.1916  -44.6569 N   0  0  0  0  0  0  0  0  0  0  0  0
   11.5999   29.6517  -42.3735 N   0  0  0  0  0  0  0  0  0  0  0  0
   11.3239   28.5110  -41.7193 N   0  0  0  0  0  0  0  0  0  0  0  0
   10.9985   27.4597  -42.5324 C   0  0  0  0  0  0  0  0  0  0  0  0
   10.6402   26.1365  -42.2485 C   0  0  0  0  0  0  0  0  0  0  0  0
   11.5486   29.8995  -45.5906 H   0  0  0  0  0  0  0  0  0  0  0  0
   11.9072   31.1232  -44.4585 H   0  0  0  0  0  0  0  0  0  0  0  0
   11.3533   28.4378  -40.7380 H   0  0  0  0  0  0  0  0  0  0  0  0
   11.8752   19.6817  -40.0873 C   0  0  0  0  0  0  0  0  0  0  0  0
   11.2424   19.1510  -39.1820 O   0  0  0  0  0  0  0  0  0  0  0  0
   11.3370   20.5054  -41.0336 N   0  0  0  0  0  0  0  0  0  0  0  0
   11.9104   20.8335  -41.7636 H   0  0  0  0  0  0  0  0  0  0  0  0
   13.3283   19.4586  -40.2698 C   0  0  0  0  0  0  0  0  0  0  0  0
   13.7362   18.3436  -40.8950 C   0  0  0  0  0  0  0  0  0  0  0  0
   15.1516   18.0621  -41.1440 C   0  0  0  0  0  0  0  0  0  0  0  0
   15.9400   17.8564  -39.9916 C   0  0  0  0  0  0  0  0  0  0  0  0
   17.2990   17.5683  -40.0905 C   0  0  0  0  0  0  0  0  0  0  0  0
   18.2314   17.3360  -38.6647 Cl  0  0  0  0  0  0  0  0  0  0  0  0
   17.9012   17.4700  -41.3361 C   0  0  0  0  0  0  0  0  0  0  0  0
   17.1368   17.6639  -42.4888 C   0  0  0  0  0  0  0  0  0  0  0  0
   15.7570   17.9668  -42.4158 C   0  0  0  0  0  0  0  0  0  0  0  0
   15.0710   18.1678  -43.6516 N   0  0  0  0  0  0  0  0  0  0  0  0
   15.6688   17.8765  -44.8375 N   0  0  0  0  0  0  0  0  0  0  0  0
   14.7989   18.1882  -45.7844 N   0  0  0  0  0  0  0  0  0  0  0  0
   13.6458   18.6783  -45.2471 N   0  0  0  0  0  0  0  0  0  0  0  0
   13.8226   18.6618  -43.9449 C   0  0  0  0  0  0  0  0  0  0  0  0
    9.5131   21.3633  -39.5838 C   0  0  0  0  0  0  0  0  0  0  0  0
    8.1894   22.0948  -39.5600 C   0  0  0  0  0  0  0  0  0  0  0  0
    7.0011   21.4203  -39.8737 C   0  0  0  0  0  0  0  0  0  0  0  0
    5.7799   22.0956  -39.8607 C   0  0  0  0  0  0  0  0  0  0  0  0
    5.7350   23.4505  -39.5370 C   0  0  0  0  0  0  0  0  0  0  0  0
    6.9106   24.1305  -39.2233 C   0  0  0  0  0  0  0  0  0  0  0  0
    8.1325   23.4565  -39.2312 C   0  0  0  0  0  0  0  0  0  0  0  0
 25 21  1  0
 21 22  2  0
 21 23  1  0
 23  1  1  0
  1  2  1  0
  2  3  2  0
  3  4  1  0
  4  8  1  0
  8  9  2  0
  9 10  1  0
 10 11  2  0
 11 12  1  0
 12 13  1  0
 12 14  2  0
 14 15  1  0
 15 16  1  0
 16 17  2  0
  4  5  2  0
  5  6  1  0
  1 39  1  0
 39 40  1  0
 40 41  2  0
 41 42  1  0
 42 43  2  0
 43 44  1  0
 44 45  2  0
 25 26  2  0
 26 27  1  0
 27 28  2  0
 28 29  1  0
 29 30  1  0
 29 31  2  0
 31 32  1  0
 32 33  2  0
 33 34  1  0
 34 35  1  0
 35 36  2  0
 36 37  1  0
 37 38  2  0
  6  2  1  0
 45 40  1  0
 33 27  1  0
 38 34  1  0
 17  8  1  0
 16 11  1  0
 23 24  1  0
 13 18  1  0
 13 19  1  0
 15 20  1  0
  6  7  1  0
M  END
> <minimizedAffinity>
-9.09068

> <CNNscore>
0.2324202657

> <CNNaffinity>
6.7719058990

> <CNN_VS>
1.5739281178

> <CNNaffinity_variance>
0.8116753101

$$$$



 45 50  0  0  0  0  0  0  0  0999 V2000
   16.4994   19.2407  -41.5824 C   0  0  0  0  0  0  0  0  0  0  0  0
   16.2544   18.9162  -43.0252 C   0  0  0  0  0  0  0  0  0  0  0  0
   16.8444   19.4511  -44.0767 N   0  0  0  0  0  0  0  0  0  0  0  0
   16.2974   18.8295  -45.1811 C   0  0  0  0  0  0  0  0  0  0  0  0
   15.3780   17.8837  -44.7790 C   0  0  0  0  0  0  0  0  0  0  0  0
   15.3681   17.9416  -43.4116 N   0  0  0  0  0  0  0  0  0  0  0  0
   14.8223   17.3835  -42.8117 H   0  0  0  0  0  0  0  0  0  0  0  0
   16.6647   19.1740  -46.5490 C   0  0  0  0  0  0  0  0  0  0  0  0
   17.3820   20.3413  -46.8539 C   0  0  0  0  0  0  0  0  0  0  0  0
   17.7442   20.6570  -48.1745 C   0  0  0  0  0  0  0  0  0  0  0  0
   17.3791   19.7801  -49.2115 C   0  0  0  0  0  0  0  0  0  0  0  0
   17.5428   19.7206  -50.6215 C   0  0  0  0  0  0  0  0  0  0  0  0
   18.1966   20.6359  -51.3544 N   0  0  0  0  0  0  0  0  0  0  0  0
   16.9864   18.6352  -51.1505 N   0  0  0  0  0  0  0  0  0  0  0  0
   16.4523   18.0037  -50.0916 N   0  0  0  0  0  0  0  0  0  0  0  0
   16.6620   18.6336  -48.8951 C   0  0  0  0  0  0  0  0  0  0  0  0
   16.2892   18.3009  -47.5875 C   0  0  0  0  0  0  0  0  0  0  0  0
   18.5926   21.4245  -50.9180 H   0  0  0  0  0  0  0  0  0  0  0  0
   18.2799   20.5184  -52.3283 H   0  0  0  0  0  0  0  0  0  0  0  0
   15.9523   17.1593  -50.1700 H   0  0  0  0  0  0  0  0  0  0  0  0
   14.6620   19.6575  -39.9909 C   0  0  0  0  0  0  0  0  0  0  0  0
   15.0047   18.7795  -39.2079 O   0  0  0  0  0  0  0  0  0  0  0  0
   15.3339   19.9872  -41.1327 N   0  0  0  0  0  0  0  0  0  0  0  0
   15.0210   20.7523  -41.6674 H   0  0  0  0  0  0  0  0  0  0  0  0
   13.4615   20.4944  -39.7611 C   0  0  0  0  0  0  0  0  0  0  0  0
   12.7516   20.9091  -40.8215 C   0  0  0  0  0  0  0  0  0  0  0  0
   11.5352   21.7124  -40.6803 C   0  0  0  0  0  0  0  0  0  0  0  0
   11.5512   22.9573  -41.3450 C   0  0  0  0  0  0  0  0  0  0  0  0
   10.4523   23.8118  -41.3004 C   0  0  0  0  0  0  0  0  0  0  0  0
   10.5115   25.3266  -42.1117 Cl  0  0  0  0  0  0  0  0  0  0  0  0
    9.3118   23.4439  -40.6020 C   0  0  0  0  0  0  0  0  0  0  0  0
    9.2739   22.2131  -39.9428 C   0  0  0  0  0  0  0  0  0  0  0  0
   10.3796   21.3311  -39.9647 C   0  0  0  0  0  0  0  0  0  0  0  0
   10.2473   20.1074  -39.2412 N   0  0  0  0  0  0  0  0  0  0  0  0
   10.5513   20.0423  -37.9177 N   0  0  0  0  0  0  0  0  0  0  0  0
   10.3507   18.7884  -37.5463 N   0  0  0  0  0  0  0  0  0  0  0  0
    9.9240   18.0299  -38.5957 N   0  0  0  0  0  0  0  0  0  0  0  0
    9.8644   18.8446  -39.6252 C   0  0  0  0  0  0  0  0  0  0  0  0
   16.7108   17.9553  -40.7578 C   0  0  0  0  0  0  0  0  0  0  0  0
   18.0962   17.8430  -40.1615 C   0  0  0  0  0  0  0  0  0  0  0  0
   18.4179   18.5289  -38.9818 C   0  0  0  0  0  0  0  0  0  0  0  0
   19.6982   18.4334  -38.4349 C   0  0  0  0  0  0  0  0  0  0  0  0
   20.6689   17.6547  -39.0623 C   0  0  0  0  0  0  0  0  0  0  0  0
   20.3595   16.9686  -40.2355 C   0  0  0  0  0  0  0  0  0  0  0  0
   19.0787   17.0588  -40.7821 C   0  0  0  0  0  0  0  0  0  0  0  0
 25 21  1  0
 21 22  2  0
 21 23  1  0
 23  1  1  0
  1  2  1  0
  2  3  2  0
  3  4  1  0
  4  8  1  0
  8  9  2  0
  9 10  1  0
 10 11  2  0
 11 12  1  0
 12 13  1  0
 12 14  2  0
 14 15  1  0
 15 16  1  0
 16 17  2  0
  4  5  2  0
  5  6  1  0
  1 39  1  0
 39 40  1  0
 40 41  2  0
 41 42  1  0
 42 43  2  0
 43 44  1  0
 44 45  2  0
 25 26  2  0
 26 27  1  0
 27 28  2  0
 28 29  1  0
 29 30  1  0
 29 31  2  0
 31 32  1  0
 32 33  2  0
 33 34  1  0
 34 35  1  0
 35 36  2  0
 36 37  1  0
 37 38  2  0
  6  2  1  0
 45 40  1  0
 33 27  1  0
 38 34  1  0
 17  8  1  0
 16 11  1  0
 23 24  1  0
 13 18  1  0
 13 19  1  0
 15 20  1  0
  6  7  1  0
M  END
> <minimizedAffinity>
-10.09705

> <CNNscore>
0.2218784839

> <CNNaffinity>
7.1841721535

> <CNN_VS>
1.5940132141

> <CNNaffinity_variance>
0.4660574496

$$$$



 45 50  0  0  0  0  0  0  0  0999 V2000
   15.1970   19.5194  -40.1457 C   0  0  0  0  0  0  0  0  0  0  0  0
   15.5505   20.4065  -41.3011 C   0  0  0  0  0  0  0  0  0  0  0  0
   16.0944   20.0476  -42.4480 N   0  0  0  0  0  0  0  0  0  0  0  0
   16.2210   21.2040  -43.1910 C   0  0  0  0  0  0  0  0  0  0  0  0
   15.7180   22.2741  -42.4817 C   0  0  0  0  0  0  0  0  0  0  0  0
   15.2873   21.7538  -41.2913 N   0  0  0  0  0  0  0  0  0  0  0  0
   14.8639   22.2565  -40.5583 H   0  0  0  0  0  0  0  0  0  0  0  0
   16.8208   21.2323  -44.5193 C   0  0  0  0  0  0  0  0  0  0  0  0
   17.9426   22.0236  -44.8110 C   0  0  0  0  0  0  0  0  0  0  0  0
   18.5224   22.0326  -46.0911 C   0  0  0  0  0  0  0  0  0  0  0  0
   17.9639   21.2278  -47.0999 C   0  0  0  0  0  0  0  0  0  0  0  0
   18.2309   20.9490  -48.4672 C   0  0  0  0  0  0  0  0  0  0  0  0
   19.2433   21.4791  -49.1718 N   0  0  0  0  0  0  0  0  0  0  0  0
   17.3693   20.0785  -48.9842 N   0  0  0  0  0  0  0  0  0  0  0  0
   16.5401   19.8072  -47.9624 N   0  0  0  0  0  0  0  0  0  0  0  0
   16.8486   20.4570  -46.7984 C   0  0  0  0  0  0  0  0  0  0  0  0
   16.2541   20.4345  -45.5313 C   0  0  0  0  0  0  0  0  0  0  0  0
   19.8566   22.1206  -48.7459 H   0  0  0  0  0  0  0  0  0  0  0  0
   19.3722   21.2263  -50.1145 H   0  0  0  0  0  0  0  0  0  0  0  0
   15.7752   19.1928  -48.0442 H   0  0  0  0  0  0  0  0  0  0  0  0
   13.0894   18.9635  -38.9917 C   0  0  0  0  0  0  0  0  0  0  0  0
   13.6311   18.3438  -38.0839 O   0  0  0  0  0  0  0  0  0  0  0  0
   13.7512   19.6007  -40.0017 N   0  0  0  0  0  0  0  0  0  0  0  0
   13.2352   20.1306  -40.6514 H   0  0  0  0  0  0  0  0  0  0  0  0
   11.6180   19.1116  -39.0770 C   0  0  0  0  0  0  0  0  0  0  0  0
   11.0891   20.3434  -39.0180 C   0  0  0  0  0  0  0  0  0  0  0  0
    9.6479   20.5797  -39.1266 C   0  0  0  0  0  0  0  0  0  0  0  0
    9.2530   21.9345  -39.1030 C   0  0  0  0  0  0  0  0  0  0  0  0
    7.9123   22.2959  -39.2104 C   0  0  0  0  0  0  0  0  0  0  0  0
    7.4663   23.9559  -39.1653 Cl  0  0  0  0  0  0  0  0  0  0  0  0
    6.9370   21.3200  -39.3522 C   0  0  0  0  0  0  0  0  0  0  0  0
    7.3081   19.9738  -39.3841 C   0  0  0  0  0  0  0  0  0  0  0  0
    8.6616   19.5796  -39.2677 C   0  0  0  0  0  0  0  0  0  0  0  0
    8.9329   18.1781  -39.2903 N   0  0  0  0  0  0  0  0  0  0  0  0
    8.8768   17.4375  -38.1515 N   0  0  0  0  0  0  0  0  0  0  0  0
    9.1959   16.1993  -38.4913 N   0  0  0  0  0  0  0  0  0  0  0  0
    9.4615   16.1114  -39.8256 N   0  0  0  0  0  0  0  0  0  0  0  0
    9.2982   17.3247  -40.3036 C   0  0  0  0  0  0  0  0  0  0  0  0
   15.6681   18.0733  -40.3984 C   0  0  0  0  0  0  0  0  0  0  0  0
   17.1348   17.8566  -40.0995 C   0  0  0  0  0  0  0  0  0  0  0  0
   17.9140   17.0384  -40.9296 C   0  0  0  0  0  0  0  0  0  0  0  0
   19.2654   16.8303  -40.6505 C   0  0  0  0  0  0  0  0  0  0  0  0
   19.8497   17.4349  -39.5391 C   0  0  0  0  0  0  0  0  0  0  0  0
   19.0841   18.2503  -38.7073 C   0  0  0  0  0  0  0  0  0  0  0  0
   17.7336   18.4636  -38.9867 C   0  0  0  0  0  0  0  0  0  0  0  0
 25 21  1  0
 21 22  2  0
 21 23  1  0
 23  1  1  0
  1  2  1  0
  2  3  2  0
  3  4  1  0
  4  8  1  0
  8  9  2  0
  9 10  1  0
 10 11  2  0
 11 12  1  0
 12 13  1  0
 12 14  2  0
 14 15  1  0
 15 16  1  0
 16 17  2  0
  4  5  2  0
  5  6  1  0
  1 39  1  0
 39 40  1  0
 40 41  2  0
 41 42  1  0
 42 43  2  0
 43 44  1  0
 44 45  2  0
 25 26  2  0
 26 27  1  0
 27 28  2  0
 28 29  1  0
 29 30  1  0
 29 31  2  0
 31 32  1  0
 32 33  2  0
 33 34  1  0
 34 35  1  0
 35 36  2  0
 36 37  1  0
 37 38  2  0
  6  2  1  0
 45 40  1  0
 33 27  1  0
 38 34  1  0
 17  8  1  0
 16 11  1  0
 23 24  1  0
 13 18  1  0
 13 19  1  0
 15 20  1  0
  6  7  1  0
M  END
> <minimizedAffinity>
-10.26171

> <CNNscore>
0.1975242198

> <CNNaffinity>
7.0927691460

> <CNN_VS>
1.4009937048

> <CNNaffinity_variance>
0.5990315080

$$$$



 45 50  0  0  0  0  0  0  0  0999 V2000
   12.8572   21.9249  -42.2604 C   0  0  0  0  0  0  0  0  0  0  0  0
   13.5859   20.7394  -41.7032 C   0  0  0  0  0  0  0  0  0  0  0  0
   14.8598   20.6684  -41.3683 N   0  0  0  0  0  0  0  0  0  0  0  0
   15.0624   19.3860  -40.8997 C   0  0  0  0  0  0  0  0  0  0  0  0
   13.8767   18.6827  -40.9317 C   0  0  0  0  0  0  0  0  0  0  0  0
   12.9479   19.5543  -41.4326 N   0  0  0  0  0  0  0  0  0  0  0  0
   11.9922   19.3650  -41.5738 H   0  0  0  0  0  0  0  0  0  0  0  0
   16.3642   18.8970  -40.4627 C   0  0  0  0  0  0  0  0  0  0  0  0
   16.8780   19.1886  -39.1895 C   0  0  0  0  0  0  0  0  0  0  0  0
   18.1278   18.7001  -38.7722 C   0  0  0  0  0  0  0  0  0  0  0  0
   18.8773   17.8997  -39.6526 C   0  0  0  0  0  0  0  0  0  0  0  0
   20.1287   17.2276  -39.6284 C   0  0  0  0  0  0  0  0  0  0  0  0
   20.9698   17.2156  -38.5821 N   0  0  0  0  0  0  0  0  0  0  0  0
   20.3799   16.5838  -40.7642 N   0  0  0  0  0  0  0  0  0  0  0  0
   19.3049   16.8504  -41.5249 N   0  0  0  0  0  0  0  0  0  0  0  0
   18.3596   17.6271  -40.9122 C   0  0  0  0  0  0  0  0  0  0  0  0
   17.1183   18.1049  -41.3490 C   0  0  0  0  0  0  0  0  0  0  0  0
   20.7409   17.7078  -37.7608 H   0  0  0  0  0  0  0  0  0  0  0  0
   21.8156   16.7145  -38.6361 H   0  0  0  0  0  0  0  0  0  0  0  0
   19.2057   16.5151  -42.4452 H   0  0  0  0  0  0  0  0  0  0  0  0
   10.5222   21.5755  -42.9732 C   0  0  0  0  0  0  0  0  0  0  0  0
   10.7834   21.5555  -44.1703 O   0  0  0  0  0  0  0  0  0  0  0  0
   11.4473   21.7022  -41.9772 N   0  0  0  0  0  0  0  0  0  0  0  0
   11.1519   21.6410  -41.0400 H   0  0  0  0  0  0  0  0  0  0  0  0
    9.1376   21.4352  -42.4657 C   0  0  0  0  0  0  0  0  0  0  0  0
    8.9528   21.0839  -41.1840 C   0  0  0  0  0  0  0  0  0  0  0  0
    7.6182   20.9542  -40.5951 C   0  0  0  0  0  0  0  0  0  0  0  0
    6.6797   21.9265  -41.0022 C   0  0  0  0  0  0  0  0  0  0  0  0
    5.3713   21.9087  -40.5253 C   0  0  0  0  0  0  0  0  0  0  0  0
    4.2579   23.1166  -41.0330 Cl  0  0  0  0  0  0  0  0  0  0  0  0
    4.9656   20.9200  -39.6413 C   0  0  0  0  0  0  0  0  0  0  0  0
    5.8777   19.9449  -39.2313 C   0  0  0  0  0  0  0  0  0  0  0  0
    7.2147   19.9458  -39.6933 C   0  0  0  0  0  0  0  0  0  0  0  0
    8.0728   18.9183  -39.1972 N   0  0  0  0  0  0  0  0  0  0  0  0
    8.9582   19.1706  -38.1967 N   0  0  0  0  0  0  0  0  0  0  0  0
    9.6136   18.0419  -37.9801 N   0  0  0  0  0  0  0  0  0  0  0  0
    9.1797   17.0563  -38.8163 N   0  0  0  0  0  0  0  0  0  0  0  0
    8.2395   17.6019  -39.5549 C   0  0  0  0  0  0  0  0  0  0  0  0
   13.3701   23.2333  -41.6266 C   0  0  0  0  0  0  0  0  0  0  0  0
   12.6281   24.4634  -42.1000 C   0  0  0  0  0  0  0  0  0  0  0  0
   13.2195   25.3359  -43.0244 C   0  0  0  0  0  0  0  0  0  0  0  0
   12.5399   26.4759  -43.4558 C   0  0  0  0  0  0  0  0  0  0  0  0
   11.2656   26.7560  -42.9660 C   0  0  0  0  0  0  0  0  0  0  0  0
   10.6684   25.8951  -42.0467 C   0  0  0  0  0  0  0  0  0  0  0  0
   11.3439   24.7521  -41.6171 C   0  0  0  0  0  0  0  0  0  0  0  0
 25 21  1  0
 21 22  2  0
 21 23  1  0
 23  1  1  0
  1  2  1  0
  2  3  2  0
  3  4  1  0
  4  8  1  0
  8  9  2  0
  9 10  1  0
 10 11  2  0
 11 12  1  0
 12 13  1  0
 12 14  2  0
 14 15  1  0
 15 16  1  0
 16 17  2  0
  4  5  2  0
  5  6  1  0
  1 39  1  0
 39 40  1  0
 40 41  2  0
 41 42  1  0
 42 43  2  0
 43 44  1  0
 44 45  2  0
 25 26  2  0
 26 27  1  0
 27 28  2  0
 28 29  1  0
 29 30  1  0
 29 31  2  0
 31 32  1  0
 32 33  2  0
 33 34  1  0
 34 35  1  0
 35 36  2  0
 36 37  1  0
 37 38  2  0
  6  2  1  0
 45 40  1  0
 33 27  1  0
 38 34  1  0
 17  8  1  0
 16 11  1  0
 23 24  1  0
 13 18  1  0
 13 19  1  0
 15 20  1  0
  6  7  1  0
M  END
> <minimizedAffinity>
-9.21074

> <CNNscore>
0.1966179609

> <CNNaffinity>
6.7758088112

> <CNN_VS>
1.3322457075

> <CNNaffinity_variance>
0.7818827629

$$$$



 45 50  0  0  0  0  0  0  0  0999 V2000
   15.5731   20.4306  -41.2249 C   0  0  0  0  0  0  0  0  0  0  0  0
   15.9615   21.0543  -42.5314 C   0  0  0  0  0  0  0  0  0  0  0  0
   16.6775   20.5097  -43.4962 N   0  0  0  0  0  0  0  0  0  0  0  0
   16.7617   21.4595  -44.4943 C   0  0  0  0  0  0  0  0  0  0  0  0
   16.0587   22.5877  -44.1280 C   0  0  0  0  0  0  0  0  0  0  0  0
   15.5484   22.3141  -42.8878 N   0  0  0  0  0  0  0  0  0  0  0  0
   14.9852   22.9140  -42.3473 H   0  0  0  0  0  0  0  0  0  0  0  0
   17.5110   21.2511  -45.7272 C   0  0  0  0  0  0  0  0  0  0  0  0
   17.1429   20.2724  -46.6635 C   0  0  0  0  0  0  0  0  0  0  0  0
   17.8632   20.0892  -47.8562 C   0  0  0  0  0  0  0  0  0  0  0  0
   18.9767   20.9082  -48.1147 C   0  0  0  0  0  0  0  0  0  0  0  0
   19.9351   21.0533  -49.1534 C   0  0  0  0  0  0  0  0  0  0  0  0
   19.9578   20.3235  -50.2800 N   0  0  0  0  0  0  0  0  0  0  0  0
   20.8152   22.0168  -48.8994 N   0  0  0  0  0  0  0  0  0  0  0  0
   20.4384   22.4823  -47.6965 N   0  0  0  0  0  0  0  0  0  0  0  0
   19.3338   21.8661  -47.1746 C   0  0  0  0  0  0  0  0  0  0  0  0
   18.6320   22.0642  -45.9797 C   0  0  0  0  0  0  0  0  0  0  0  0
   19.2846   19.6198  -50.4243 H   0  0  0  0  0  0  0  0  0  0  0  0
   20.6476   20.4921  -50.9619 H   0  0  0  0  0  0  0  0  0  0  0  0
   20.9167   23.2054  -47.2302 H   0  0  0  0  0  0  0  0  0  0  0  0
   13.4793   20.3352  -39.9251 C   0  0  0  0  0  0  0  0  0  0  0  0
   13.9486   19.6465  -39.0268 O   0  0  0  0  0  0  0  0  0  0  0  0
   14.1840   20.8002  -40.9980 N   0  0  0  0  0  0  0  0  0  0  0  0
   13.7394   21.4032  -41.6367 H   0  0  0  0  0  0  0  0  0  0  0  0
   12.0629   20.7690  -39.9281 C   0  0  0  0  0  0  0  0  0  0  0  0
   11.1375   19.9543  -39.3985 C   0  0  0  0  0  0  0  0  0  0  0  0
    9.7211   20.3205  -39.3332 C   0  0  0  0  0  0  0  0  0  0  0  0
    9.4459   21.6994  -39.4553 C   0  0  0  0  0  0  0  0  0  0  0  0
    8.1386   22.1786  -39.4220 C   0  0  0  0  0  0  0  0  0  0  0  0
    7.8412   23.8664  -39.5610 Cl  0  0  0  0  0  0  0  0  0  0  0  0
    7.0774   21.2977  -39.2754 C   0  0  0  0  0  0  0  0  0  0  0  0
    7.3285   19.9287  -39.1594 C   0  0  0  0  0  0  0  0  0  0  0  0
    8.6471   19.4170  -39.1809 C   0  0  0  0  0  0  0  0  0  0  0  0
    8.7971   18.0049  -39.0332 N   0  0  0  0  0  0  0  0  0  0  0  0
    8.4301   17.3803  -37.8828 N   0  0  0  0  0  0  0  0  0  0  0  0
    8.7099   16.0973  -38.0449 N   0  0  0  0  0  0  0  0  0  0  0  0
    9.2531   15.8668  -39.2739 N   0  0  0  0  0  0  0  0  0  0  0  0
    9.3020   17.0377  -39.8688 C   0  0  0  0  0  0  0  0  0  0  0  0
   15.7600   18.9009  -41.2686 C   0  0  0  0  0  0  0  0  0  0  0  0
   17.0455   18.4323  -40.6238 C   0  0  0  0  0  0  0  0  0  0  0  0
   17.4087   18.8932  -39.3505 C   0  0  0  0  0  0  0  0  0  0  0  0
   18.5986   18.4687  -38.7576 C   0  0  0  0  0  0  0  0  0  0  0  0
   19.4371   17.5828  -39.4317 C   0  0  0  0  0  0  0  0  0  0  0  0
   19.0852   17.1184  -40.6980 C   0  0  0  0  0  0  0  0  0  0  0  0
   17.8938   17.5378  -41.2912 C   0  0  0  0  0  0  0  0  0  0  0  0
 25 21  1  0
 21 22  2  0
 21 23  1  0
 23  1  1  0
  1  2  1  0
  2  3  2  0
  3  4  1  0
  4  8  1  0
  8  9  2  0
  9 10  1  0
 10 11  2  0
 11 12  1  0
 12 13  1  0
 12 14  2  0
 14 15  1  0
 15 16  1  0
 16 17  2  0
  4  5  2  0
  5  6  1  0
  1 39  1  0
 39 40  1  0
 40 41  2  0
 41 42  1  0
 42 43  2  0
 43 44  1  0
 44 45  2  0
 25 26  2  0
 26 27  1  0
 27 28  2  0
 28 29  1  0
 29 30  1  0
 29 31  2  0
 31 32  1  0
 32 33  2  0
 33 34  1  0
 34 35  1  0
 35 36  2  0
 36 37  1  0
 37 38  2  0
  6  2  1  0
 45 40  1  0
 33 27  1  0
 38 34  1  0
 17  8  1  0
 16 11  1  0
 23 24  1  0
 13 18  1  0
 13 19  1  0
 15 20  1  0
  6  7  1  0
M  END
> <minimizedAffinity>
-10.10917

> <CNNscore>
0.1940616220

> <CNNaffinity>
6.8789944649

> <CNN_VS>
1.3349487782

> <CNNaffinity_variance>
1.3232614994

$$$$
