


 32 35  0  0  0  0  0  0  0  0999 V2000
   -1.2688   -8.4702   40.7736 C   0  0  0  0  0  0  0  0  0  0  0  0
   -0.5465   -9.4909   41.3903 C   0  0  0  0  0  0  0  0  0  0  0  0
    0.2948  -10.3393   40.6624 C   0  0  0  0  0  0  0  0  0  0  0  0
    0.3946  -10.1345   39.2779 C   0  0  0  0  0  0  0  0  0  0  0  0
   -0.3145   -9.1197   38.6352 C   0  0  0  0  0  0  0  0  0  0  0  0
   -1.1577   -8.2772   39.3927 C   0  0  0  0  0  0  0  0  0  0  0  0
    0.0157   -9.1866   37.2569 C   0  0  0  0  0  0  0  0  0  0  0  0
    0.9111  -10.2232   37.0714 C   0  0  0  0  0  0  0  0  0  0  0  0
    1.1303  -10.7980   38.3090 N   0  0  0  0  0  0  0  0  0  0  0  0
   -2.8878   -6.7475   41.0364 C   0  0  0  0  0  0  0  0  0  0  0  0
   -2.0454   -7.7299   41.6248 O   0  0  0  0  0  0  0  0  0  0  0  0
    1.5624  -10.6825   35.8109 C   0  0  0  0  0  0  0  0  0  0  0  0
    2.2213   -9.5096   35.2391 N   0  0  0  0  0  0  0  0  0  0  0  0
    2.9965   -9.8352   34.6615 H   0  0  0  0  0  0  0  0  0  0  0  0
    1.2459   -8.5205   34.2878 S   0  0  0  0  0  0  0  0  0  0  0  0
    1.7931   -7.1850   34.3513 O   0  0  0  0  0  0  0  0  0  0  0  0
   -0.1397   -8.8089   34.5814 O   0  0  0  0  0  0  0  0  0  0  0  0
    1.4745   -9.0161   32.5836 C   0  0  0  0  0  0  0  0  0  0  0  0
    0.9415  -10.0819   31.8680 C   0  0  0  0  0  0  0  0  0  0  0  0
    1.4511  -10.0168   30.5479 C   0  0  0  0  0  0  0  0  0  0  0  0
    1.3036  -10.7767   29.3741 C   0  0  0  0  0  0  0  0  0  0  0  0
    2.0020  -10.3696   28.2291 C   0  0  0  0  0  0  0  0  0  0  0  0
    1.8224  -11.3743   26.6347 Br  0  0  0  0  0  0  0  0  0  0  0  0
    2.8262   -9.2413   28.2376 C   0  0  0  0  0  0  0  0  0  0  0  0
    2.9819   -8.4762   29.3990 C   0  0  0  0  0  0  0  0  0  0  0  0
    2.2774   -8.9028   30.5224 C   0  0  0  0  0  0  0  0  0  0  0  0
    2.2983   -8.2990   31.7384 O   0  0  0  0  0  0  0  0  0  0  0  0
    1.9726  -11.9542   38.5834 C   0  0  0  0  0  0  0  0  0  0  0  0
    1.6497  -13.1185   37.6922 C   0  0  0  0  0  0  0  0  0  0  0  0
    2.4614  -13.8132   37.0996 O   0  0  0  0  0  0  0  0  0  0  0  0
    0.3324  -13.3978   37.6122 O   0  0  0  0  0  0  0  0  0  0  0  0
   -0.2883  -12.8636   38.0675 H   0  0  0  0  0  0  0  0  0  0  0  0
 10 11  1  0
 11  1  1  0
  1  2  2  0
  2  3  1  0
  3  4  2  0
  4  5  1  0
  5  6  2  0
  5  7  1  0
  7  8  2  0
  8 12  1  0
 12 13  1  0
 13 15  1  0
 15 16  2  0
 15 17  2  0
 15 18  1  0
 18 19  2  0
 19 20  1  0
 20 21  2  0
 21 22  1  0
 22 23  1  0
 22 24  2  0
 24 25  1  0
 25 26  2  0
 26 27  1  0
  8  9  1  0
  9 28  1  0
 28 29  1  0
 29 30  2  0
 29 31  1  0
  6  1  1  0
 27 18  1  0
  9  4  1  0
 26 20  1  0
 13 14  1  0
 31 32  1  0
M  END
> <minimizedAffinity>
-10.27590

> <CNNscore>
0.9629291296

> <CNNaffinity>
7.0598578453

> <CNN_VS>
6.7981429100

> <CNNaffinity_variance>
0.1525280476

$$$$



 32 35  0  0  0  0  0  0  0  0999 V2000
   -1.3036   -8.5870   40.4423 C   0  0  0  0  0  0  0  0  0  0  0  0
   -0.4462   -9.5994   40.8709 C   0  0  0  0  0  0  0  0  0  0  0  0
    0.3794  -10.2906   39.9776 C   0  0  0  0  0  0  0  0  0  0  0  0
    0.3218   -9.9349   38.6215 C   0  0  0  0  0  0  0  0  0  0  0  0
   -0.5246   -8.9245   38.1653 C   0  0  0  0  0  0  0  0  0  0  0  0
   -1.3486   -8.2423   39.0874 C   0  0  0  0  0  0  0  0  0  0  0  0
   -0.3322   -8.8184   36.7635 C   0  0  0  0  0  0  0  0  0  0  0  0
    0.6166   -9.7478   36.3807 C   0  0  0  0  0  0  0  0  0  0  0  0
    1.0040  -10.4270   37.5203 N   0  0  0  0  0  0  0  0  0  0  0  0
   -2.7015   -6.7886   41.1277 C   0  0  0  0  0  0  0  0  0  0  0  0
   -2.0442   -8.0100   41.4395 O   0  0  0  0  0  0  0  0  0  0  0  0
    1.1697  -10.0147   35.0217 C   0  0  0  0  0  0  0  0  0  0  0  0
    2.6236   -9.9276   35.1464 N   0  0  0  0  0  0  0  0  0  0  0  0
    2.8712  -10.1659   36.1068 H   0  0  0  0  0  0  0  0  0  0  0  0
    3.5019  -10.9324   34.1200 S   0  0  0  0  0  0  0  0  0  0  0  0
    3.0092  -12.2775   34.3072 O   0  0  0  0  0  0  0  0  0  0  0  0
    4.9036  -10.5954   34.2227 O   0  0  0  0  0  0  0  0  0  0  0  0
    3.0447  -10.5194   32.4400 C   0  0  0  0  0  0  0  0  0  0  0  0
    3.5422   -9.5519   31.5747 C   0  0  0  0  0  0  0  0  0  0  0  0
    2.8240   -9.6473   30.3574 C   0  0  0  0  0  0  0  0  0  0  0  0
    2.8436   -8.9751   29.1226 C   0  0  0  0  0  0  0  0  0  0  0  0
    1.9396   -9.3825   28.1320 C   0  0  0  0  0  0  0  0  0  0  0  0
    1.9436   -8.4949   26.4599 Br  0  0  0  0  0  0  0  0  0  0  0  0
    1.0373  -10.4270   28.3500 C   0  0  0  0  0  0  0  0  0  0  0  0
    1.0072  -11.1042   29.5743 C   0  0  0  0  0  0  0  0  0  0  0  0
    1.9154  -10.6793   30.5412 C   0  0  0  0  0  0  0  0  0  0  0  0
    2.0399  -11.2055   31.7867 O   0  0  0  0  0  0  0  0  0  0  0  0
    1.9560  -11.5275   37.5840 C   0  0  0  0  0  0  0  0  0  0  0  0
    1.3048  -12.8587   37.3429 C   0  0  0  0  0  0  0  0  0  0  0  0
    1.8709  -13.8760   36.9726 O   0  0  0  0  0  0  0  0  0  0  0  0
   -0.0159  -12.8797   37.6168 O   0  0  0  0  0  0  0  0  0  0  0  0
   -0.4480  -12.0982   37.9007 H   0  0  0  0  0  0  0  0  0  0  0  0
 10 11  1  0
 11  1  1  0
  1  2  2  0
  2  3  1  0
  3  4  2  0
  4  5  1  0
  5  6  2  0
  5  7  1  0
  7  8  2  0
  8 12  1  0
 12 13  1  0
 13 15  1  0
 15 16  2  0
 15 17  2  0
 15 18  1  0
 18 19  2  0
 19 20  1  0
 20 21  2  0
 21 22  1  0
 22 23  1  0
 22 24  2  0
 24 25  1  0
 25 26  2  0
 26 27  1  0
  8  9  1  0
  9 28  1  0
 28 29  1  0
 29 30  2  0
 29 31  1  0
  6  1  1  0
 27 18  1  0
  9  4  1  0
 26 20  1  0
 13 14  1  0
 31 32  1  0
M  END
> <minimizedAffinity>
-7.45650

> <CNNscore>
0.9052680135

> <CNNaffinity>
6.5713725090

> <CNN_VS>
5.9488534927

> <CNNaffinity_variance>
0.0969346240

$$$$



 32 35  0  0  0  0  0  0  0  0999 V2000
   -1.3726   -8.3324   40.9555 C   0  0  0  0  0  0  0  0  0  0  0  0
   -0.6252   -9.1275   41.8233 C   0  0  0  0  0  0  0  0  0  0  0  0
    0.1567  -10.1900   41.3573 C   0  0  0  0  0  0  0  0  0  0  0  0
    0.1697  -10.4388   39.9765 C   0  0  0  0  0  0  0  0  0  0  0  0
   -0.5662   -9.6580   39.0852 C   0  0  0  0  0  0  0  0  0  0  0  0
   -1.3481   -8.5916   39.5811 C   0  0  0  0  0  0  0  0  0  0  0  0
   -0.3262  -10.1698   37.7838 C   0  0  0  0  0  0  0  0  0  0  0  0
    0.5421  -11.2402   37.8879 C   0  0  0  0  0  0  0  0  0  0  0  0
    0.8331  -11.3991   39.2296 N   0  0  0  0  0  0  0  0  0  0  0  0
   -2.8900   -6.5140   40.7348 C   0  0  0  0  0  0  0  0  0  0  0  0
   -2.0833   -7.3352   41.5689 O   0  0  0  0  0  0  0  0  0  0  0  0
    1.1050  -12.0969   36.8048 C   0  0  0  0  0  0  0  0  0  0  0  0
    2.1532  -11.3074   36.1607 N   0  0  0  0  0  0  0  0  0  0  0  0
    2.8740  -11.1152   36.8564 H   0  0  0  0  0  0  0  0  0  0  0  0
    2.8941  -12.0301   34.8327 S   0  0  0  0  0  0  0  0  0  0  0  0
    2.7753  -11.1149   33.7212 O   0  0  0  0  0  0  0  0  0  0  0  0
    2.4699  -13.4096   34.7542 O   0  0  0  0  0  0  0  0  0  0  0  0
    4.6506  -12.1005   35.1673 C   0  0  0  0  0  0  0  0  0  0  0  0
    5.7157  -11.4311   34.5760 C   0  0  0  0  0  0  0  0  0  0  0  0
    6.9051  -11.8547   35.2181 C   0  0  0  0  0  0  0  0  0  0  0  0
    8.2750  -11.5640   35.0914 C   0  0  0  0  0  0  0  0  0  0  0  0
    9.1728  -12.2164   35.9476 C   0  0  0  0  0  0  0  0  0  0  0  0
   11.0230  -11.8446   35.7989 Br  0  0  0  0  0  0  0  0  0  0  0  0
    8.7340  -13.1332   36.9065 C   0  0  0  0  0  0  0  0  0  0  0  0
    7.3735  -13.4316   37.0431 C   0  0  0  0  0  0  0  0  0  0  0  0
    6.5032  -12.7700   36.1799 C   0  0  0  0  0  0  0  0  0  0  0  0
    5.1545  -12.9243   36.1546 O   0  0  0  0  0  0  0  0  0  0  0  0
    1.6764  -12.4352   39.8100 C   0  0  0  0  0  0  0  0  0  0  0  0
    1.9843  -13.5327   38.8329 C   0  0  0  0  0  0  0  0  0  0  0  0
    2.9962  -13.6241   38.1543 O   0  0  0  0  0  0  0  0  0  0  0  0
    1.0406  -14.4948   38.7750 O   0  0  0  0  0  0  0  0  0  0  0  0
    0.2654  -14.4227   39.2963 H   0  0  0  0  0  0  0  0  0  0  0  0
 10 11  1  0
 11  1  1  0
  1  2  2  0
  2  3  1  0
  3  4  2  0
  4  5  1  0
  5  6  2  0
  5  7  1  0
  7  8  2  0
  8 12  1  0
 12 13  1  0
 13 15  1  0
 15 16  2  0
 15 17  2  0
 15 18  1  0
 18 19  2  0
 19 20  1  0
 20 21  2  0
 21 22  1  0
 22 23  1  0
 22 24  2  0
 24 25  1  0
 25 26  2  0
 26 27  1  0
  8  9  1  0
  9 28  1  0
 28 29  1  0
 29 30  2  0
 29 31  1  0
  6  1  1  0
 27 18  1  0
  9  4  1  0
 26 20  1  0
 13 14  1  0
 31 32  1  0
M  END
> <minimizedAffinity>
-8.35183

> <CNNscore>
0.7478892803

> <CNNaffinity>
5.6539397240

> <CNN_VS>
4.2285208702

> <CNNaffinity_variance>
0.6021408439

$$$$



 32 35  0  0  0  0  0  0  0  0999 V2000
    1.9986  -10.0597   29.1488 C   0  0  0  0  0  0  0  0  0  0  0  0
    2.0071   -8.7285   29.5634 C   0  0  0  0  0  0  0  0  0  0  0  0
    1.7173   -8.3680   30.8838 C   0  0  0  0  0  0  0  0  0  0  0  0
    1.4135   -9.3932   31.7922 C   0  0  0  0  0  0  0  0  0  0  0  0
    1.4001  -10.7333   31.4057 C   0  0  0  0  0  0  0  0  0  0  0  0
    1.6956  -11.0709   30.0665 C   0  0  0  0  0  0  0  0  0  0  0  0
    1.0657  -11.4969   32.5539 C   0  0  0  0  0  0  0  0  0  0  0  0
    0.8828  -10.6318   33.6164 C   0  0  0  0  0  0  0  0  0  0  0  0
    1.0913   -9.3516   33.1394 N   0  0  0  0  0  0  0  0  0  0  0  0
    1.3270  -10.9006   27.0276 C   0  0  0  0  0  0  0  0  0  0  0  0
    2.3029  -10.2445   27.8263 O   0  0  0  0  0  0  0  0  0  0  0  0
    0.5362  -10.9488   35.0318 C   0  0  0  0  0  0  0  0  0  0  0  0
    1.0692  -12.2842   35.2951 N   0  0  0  0  0  0  0  0  0  0  0  0
    1.9455  -12.3794   34.7820 H   0  0  0  0  0  0  0  0  0  0  0  0
    1.3745  -12.6382   36.9126 S   0  0  0  0  0  0  0  0  0  0  0  0
    2.7855  -12.4292   37.1413 O   0  0  0  0  0  0  0  0  0  0  0  0
    0.7045  -13.8721   37.2556 O   0  0  0  0  0  0  0  0  0  0  0  0
    0.5711  -11.3810   37.9006 C   0  0  0  0  0  0  0  0  0  0  0  0
   -0.2449  -10.3183   37.5305 C   0  0  0  0  0  0  0  0  0  0  0  0
   -0.6141   -9.6234   38.7084 C   0  0  0  0  0  0  0  0  0  0  0  0
   -1.3994   -8.4959   39.0069 C   0  0  0  0  0  0  0  0  0  0  0  0
   -1.5246   -8.1120   40.3491 C   0  0  0  0  0  0  0  0  0  0  0  0
   -2.5755   -6.5975   40.7799 Br  0  0  0  0  0  0  0  0  0  0  0  0
   -0.8925   -8.8205   41.3744 C   0  0  0  0  0  0  0  0  0  0  0  0
   -0.1081   -9.9442   41.0912 C   0  0  0  0  0  0  0  0  0  0  0  0
    0.0000  -10.3037   39.7498 C   0  0  0  0  0  0  0  0  0  0  0  0
    0.7134  -11.3565   39.2741 O   0  0  0  0  0  0  0  0  0  0  0  0
    0.9618   -8.1176   33.9023 C   0  0  0  0  0  0  0  0  0  0  0  0
    1.8587   -8.0954   35.1061 C   0  0  0  0  0  0  0  0  0  0  0  0
    1.5780   -7.6281   36.1995 O   0  0  0  0  0  0  0  0  0  0  0  0
    3.0506   -8.6966   34.9119 O   0  0  0  0  0  0  0  0  0  0  0  0
    3.2637   -9.0542   34.0725 H   0  0  0  0  0  0  0  0  0  0  0  0
 10 11  1  0
 11  1  1  0
  1  2  2  0
  2  3  1  0
  3  4  2  0
  4  5  1  0
  5  6  2  0
  5  7  1  0
  7  8  2  0
  8 12  1  0
 12 13  1  0
 13 15  1  0
 15 16  2  0
 15 17  2  0
 15 18  1  0
 18 19  2  0
 19 20  1  0
 20 21  2  0
 21 22  1  0
 22 23  1  0
 22 24  2  0
 24 25  1  0
 25 26  2  0
 26 27  1  0
  8  9  1  0
  9 28  1  0
 28 29  1  0
 29 30  2  0
 29 31  1  0
  6  1  1  0
 27 18  1  0
  9  4  1  0
 26 20  1  0
 13 14  1  0
 31 32  1  0
M  END
> <minimizedAffinity>
-10.17573

> <CNNscore>
0.7267234325

> <CNNaffinity>
6.3254504204

> <CNN_VS>
4.5968532562

> <CNNaffinity_variance>
0.2013076097

$$$$



 32 35  0  0  0  0  0  0  0  0999 V2000
   -0.6888   -9.2329   40.0551 C   0  0  0  0  0  0  0  0  0  0  0  0
   -1.3980   -8.3937   39.1968 C   0  0  0  0  0  0  0  0  0  0  0  0
   -1.3064   -8.5175   37.8062 C   0  0  0  0  0  0  0  0  0  0  0  0
   -0.4718   -9.5204   37.2903 C   0  0  0  0  0  0  0  0  0  0  0  0
    0.2472  -10.3755   38.1254 C   0  0  0  0  0  0  0  0  0  0  0  0
    0.1379  -10.2294   39.5259 C   0  0  0  0  0  0  0  0  0  0  0  0
    0.9746  -11.2624   37.2902 C   0  0  0  0  0  0  0  0  0  0  0  0
    0.6971  -10.9491   35.9728 C   0  0  0  0  0  0  0  0  0  0  0  0
   -0.1809   -9.8818   35.9845 N   0  0  0  0  0  0  0  0  0  0  0  0
   -0.1599   -9.7844   42.3077 C   0  0  0  0  0  0  0  0  0  0  0  0
   -0.8871   -8.9817   41.3868 O   0  0  0  0  0  0  0  0  0  0  0  0
    1.2032  -11.5996   34.7300 C   0  0  0  0  0  0  0  0  0  0  0  0
    2.6562  -11.6774   34.8706 N   0  0  0  0  0  0  0  0  0  0  0  0
    2.9597  -12.5784   34.5011 H   0  0  0  0  0  0  0  0  0  0  0  0
    3.5276  -10.4729   34.0803 S   0  0  0  0  0  0  0  0  0  0  0  0
    4.8941  -10.9291   33.9723 O   0  0  0  0  0  0  0  0  0  0  0  0
    3.1772   -9.1919   34.6505 O   0  0  0  0  0  0  0  0  0  0  0  0
    2.9443  -10.4063   32.3899 C   0  0  0  0  0  0  0  0  0  0  0  0
    2.1722  -11.3019   31.6592 C   0  0  0  0  0  0  0  0  0  0  0  0
    1.9992  -10.7662   30.3593 C   0  0  0  0  0  0  0  0  0  0  0  0
    1.3419  -11.1706   29.1839 C   0  0  0  0  0  0  0  0  0  0  0  0
    1.4066  -10.3286   28.0653 C   0  0  0  0  0  0  0  0  0  0  0  0
    0.5312  -10.8482   26.4693 Br  0  0  0  0  0  0  0  0  0  0  0  0
    2.1012   -9.1166   28.1014 C   0  0  0  0  0  0  0  0  0  0  0  0
    2.7597   -8.7023   29.2646 C   0  0  0  0  0  0  0  0  0  0  0  0
    2.6800   -9.5576   30.3611 C   0  0  0  0  0  0  0  0  0  0  0  0
    3.2505   -9.3356   31.5731 O   0  0  0  0  0  0  0  0  0  0  0  0
   -0.7106   -9.1909   34.8169 C   0  0  0  0  0  0  0  0  0  0  0  0
    0.2076   -8.1070   34.3311 C   0  0  0  0  0  0  0  0  0  0  0  0
    0.6251   -7.1710   34.9962 O   0  0  0  0  0  0  0  0  0  0  0  0
    0.6044   -8.2585   33.0507 O   0  0  0  0  0  0  0  0  0  0  0  0
    0.2828   -8.9771   32.5426 H   0  0  0  0  0  0  0  0  0  0  0  0
 10 11  1  0
 11  1  1  0
  1  2  2  0
  2  3  1  0
  3  4  2  0
  4  5  1  0
  5  6  2  0
  5  7  1  0
  7  8  2  0
  8 12  1  0
 12 13  1  0
 13 15  1  0
 15 16  2  0
 15 17  2  0
 15 18  1  0
 18 19  2  0
 19 20  1  0
 20 21  2  0
 21 22  1  0
 22 23  1  0
 22 24  2  0
 24 25  1  0
 25 26  2  0
 26 27  1  0
  8  9  1  0
  9 28  1  0
 28 29  1  0
 29 30  2  0
 29 31  1  0
  6  1  1  0
 27 18  1  0
  9  4  1  0
 26 20  1  0
 13 14  1  0
 31 32  1  0
M  END
> <minimizedAffinity>
-9.47721

> <CNNscore>
0.6221591830

> <CNNaffinity>
6.3006668091

> <CNN_VS>
3.9200177193

> <CNNaffinity_variance>
0.3357178867

$$$$



 32 35  0  0  0  0  0  0  0  0999 V2000
   -1.1872   -8.6569   40.4493 C   0  0  0  0  0  0  0  0  0  0  0  0
   -1.4844   -8.0882   39.2116 C   0  0  0  0  0  0  0  0  0  0  0  0
   -0.9186   -8.5702   38.0263 C   0  0  0  0  0  0  0  0  0  0  0  0
   -0.0327   -9.6546   38.1157 C   0  0  0  0  0  0  0  0  0  0  0  0
    0.2806  -10.2446   39.3402 C   0  0  0  0  0  0  0  0  0  0  0  0
   -0.3035   -9.7387   40.5223 C   0  0  0  0  0  0  0  0  0  0  0  0
    1.1875  -11.3032   39.0749 C   0  0  0  0  0  0  0  0  0  0  0  0
    1.4156  -11.3526   37.7125 C   0  0  0  0  0  0  0  0  0  0  0  0
    0.6715  -10.3394   37.1382 N   0  0  0  0  0  0  0  0  0  0  0  0
   -2.5810   -6.8987   41.2392 C   0  0  0  0  0  0  0  0  0  0  0  0
   -1.8222   -8.0697   41.5112 O   0  0  0  0  0  0  0  0  0  0  0  0
    2.2770  -12.2950   36.9418 C   0  0  0  0  0  0  0  0  0  0  0  0
    2.0189  -13.6262   37.4880 N   0  0  0  0  0  0  0  0  0  0  0  0
    1.3044  -14.0694   36.9105 H   0  0  0  0  0  0  0  0  0  0  0  0
    3.3492  -14.6565   37.5487 S   0  0  0  0  0  0  0  0  0  0  0  0
    3.1473  -15.5569   38.6602 O   0  0  0  0  0  0  0  0  0  0  0  0
    4.5540  -13.8741   37.3893 O   0  0  0  0  0  0  0  0  0  0  0  0
    3.2821  -15.7094   36.1034 C   0  0  0  0  0  0  0  0  0  0  0  0
    4.2963  -16.2024   35.2906 C   0  0  0  0  0  0  0  0  0  0  0  0
    3.6965  -16.9898   34.2772 C   0  0  0  0  0  0  0  0  0  0  0  0
    4.1576  -17.7388   33.1802 C   0  0  0  0  0  0  0  0  0  0  0  0
    3.2119  -18.4013   32.3857 C   0  0  0  0  0  0  0  0  0  0  0  0
    3.8044  -19.4169   30.9020 Br  0  0  0  0  0  0  0  0  0  0  0  0
    1.8443  -18.3295   32.6634 C   0  0  0  0  0  0  0  0  0  0  0  0
    1.3720  -17.5875   33.7519 C   0  0  0  0  0  0  0  0  0  0  0  0
    2.3325  -16.9388   34.5245 C   0  0  0  0  0  0  0  0  0  0  0  0
    2.0759  -16.1723   35.6155 O   0  0  0  0  0  0  0  0  0  0  0  0
    0.6396   -9.9909   35.7244 C   0  0  0  0  0  0  0  0  0  0  0  0
    1.5483   -8.8404   35.4006 C   0  0  0  0  0  0  0  0  0  0  0  0
    1.2877   -7.6568   35.5551 O   0  0  0  0  0  0  0  0  0  0  0  0
    2.7607   -9.2128   34.9411 O   0  0  0  0  0  0  0  0  0  0  0  0
    2.9583  -10.1212   34.8234 H   0  0  0  0  0  0  0  0  0  0  0  0
 10 11  1  0
 11  1  1  0
  1  2  2  0
  2  3  1  0
  3  4  2  0
  4  5  1  0
  5  6  2  0
  5  7  1  0
  7  8  2  0
  8 12  1  0
 12 13  1  0
 13 15  1  0
 15 16  2  0
 15 17  2  0
 15 18  1  0
 18 19  2  0
 19 20  1  0
 20 21  2  0
 21 22  1  0
 22 23  1  0
 22 24  2  0
 24 25  1  0
 25 26  2  0
 26 27  1  0
  8  9  1  0
  9 28  1  0
 28 29  1  0
 29 30  2  0
 29 31  1  0
  6  1  1  0
 27 18  1  0
  9  4  1  0
 26 20  1  0
 13 14  1  0
 31 32  1  0
M  END
> <minimizedAffinity>
-8.90432

> <CNNscore>
0.5557743311

> <CNNaffinity>
5.6390647888

> <CNN_VS>
3.1340475082

> <CNNaffinity_variance>
0.2013586313

$$$$



 32 35  0  0  0  0  0  0  0  0999 V2000
   -0.8324   -8.9678   40.2740 C   0  0  0  0  0  0  0  0  0  0  0  0
   -0.1533   -9.8839   41.0761 C   0  0  0  0  0  0  0  0  0  0  0  0
    0.5569  -10.9569   40.5269 C   0  0  0  0  0  0  0  0  0  0  0  0
    0.5685  -11.0898   39.1302 C   0  0  0  0  0  0  0  0  0  0  0  0
   -0.0998  -10.1868   38.3035 C   0  0  0  0  0  0  0  0  0  0  0  0
   -0.8101   -9.1123   38.8829 C   0  0  0  0  0  0  0  0  0  0  0  0
    0.1186  -10.6038   36.9650 C   0  0  0  0  0  0  0  0  0  0  0  0
    0.9078  -11.7385   36.9837 C   0  0  0  0  0  0  0  0  0  0  0  0
    1.1711  -12.0293   38.3089 N   0  0  0  0  0  0  0  0  0  0  0  0
   -2.2452   -7.0556   40.2015 C   0  0  0  0  0  0  0  0  0  0  0  0
   -1.4780   -7.9771   40.9651 O   0  0  0  0  0  0  0  0  0  0  0  0
    1.4214  -12.5398   35.8356 C   0  0  0  0  0  0  0  0  0  0  0  0
    1.7563  -13.8575   36.3727 N   0  0  0  0  0  0  0  0  0  0  0  0
    1.4346  -13.8934   37.3399 H   0  0  0  0  0  0  0  0  0  0  0  0
    1.0854  -15.1670   35.5542 S   0  0  0  0  0  0  0  0  0  0  0  0
    0.5756  -14.6742   34.2956 O   0  0  0  0  0  0  0  0  0  0  0  0
    0.2758  -15.9300   36.4770 O   0  0  0  0  0  0  0  0  0  0  0  0
    2.4257  -16.2604   35.0956 C   0  0  0  0  0  0  0  0  0  0  0  0
    2.5867  -17.0860   33.9890 C   0  0  0  0  0  0  0  0  0  0  0  0
    3.8355  -17.7426   34.1150 C   0  0  0  0  0  0  0  0  0  0  0  0
    4.5627  -18.6755   33.3548 C   0  0  0  0  0  0  0  0  0  0  0  0
    5.8101  -19.0949   33.8371 C   0  0  0  0  0  0  0  0  0  0  0  0
    6.8108  -20.3506   32.8343 Br  0  0  0  0  0  0  0  0  0  0  0  0
    6.3309  -18.6082   35.0390 C   0  0  0  0  0  0  0  0  0  0  0  0
    5.6175  -17.6795   35.8053 C   0  0  0  0  0  0  0  0  0  0  0  0
    4.3810  -17.2800   35.3036 C   0  0  0  0  0  0  0  0  0  0  0  0
    3.5419  -16.3933   35.8980 O   0  0  0  0  0  0  0  0  0  0  0  0
    1.9322  -13.1678   38.8049 C   0  0  0  0  0  0  0  0  0  0  0  0
    3.3669  -12.8190   39.0770 C   0  0  0  0  0  0  0  0  0  0  0  0
    3.9734  -13.0410   40.1140 O   0  0  0  0  0  0  0  0  0  0  0  0
    3.9997  -12.2496   38.0305 O   0  0  0  0  0  0  0  0  0  0  0  0
    3.5325  -12.0802   37.2362 H   0  0  0  0  0  0  0  0  0  0  0  0
 10 11  1  0
 11  1  1  0
  1  2  2  0
  2  3  1  0
  3  4  2  0
  4  5  1  0
  5  6  2  0
  5  7  1  0
  7  8  2  0
  8 12  1  0
 12 13  1  0
 13 15  1  0
 15 16  2  0
 15 17  2  0
 15 18  1  0
 18 19  2  0
 19 20  1  0
 20 21  2  0
 21 22  1  0
 22 23  1  0
 22 24  2  0
 24 25  1  0
 25 26  2  0
 26 27  1  0
  8  9  1  0
  9 28  1  0
 28 29  1  0
 29 30  2  0
 29 31  1  0
  6  1  1  0
 27 18  1  0
  9  4  1  0
 26 20  1  0
 13 14  1  0
 31 32  1  0
M  END
> <minimizedAffinity>
-7.47742

> <CNNscore>
0.5011664629

> <CNNaffinity>
5.1982741356

> <CNN_VS>
2.6052007675

> <CNNaffinity_variance>
0.2606768608

$$$$



 32 35  0  0  0  0  0  0  0  0999 V2000
   -1.1289   -8.5830   40.5274 C   0  0  0  0  0  0  0  0  0  0  0  0
   -1.4818   -8.1083   39.2648 C   0  0  0  0  0  0  0  0  0  0  0  0
   -1.0520   -8.7430   38.0944 C   0  0  0  0  0  0  0  0  0  0  0  0
   -0.2459   -9.8840   38.2248 C   0  0  0  0  0  0  0  0  0  0  0  0
    0.1204  -10.3823   39.4750 C   0  0  0  0  0  0  0  0  0  0  0  0
   -0.3262   -9.7228   40.6414 C   0  0  0  0  0  0  0  0  0  0  0  0
    0.9204  -11.5322   39.2494 C   0  0  0  0  0  0  0  0  0  0  0  0
    1.0329  -11.7260   37.8854 C   0  0  0  0  0  0  0  0  0  0  0  0
    0.3231  -10.7120   37.2704 N   0  0  0  0  0  0  0  0  0  0  0  0
   -2.4612   -6.7453   41.2385 C   0  0  0  0  0  0  0  0  0  0  0  0
   -1.6297   -7.8497   41.5700 O   0  0  0  0  0  0  0  0  0  0  0  0
    1.7556  -12.8035   37.1501 C   0  0  0  0  0  0  0  0  0  0  0  0
    2.1435  -13.7945   38.1523 N   0  0  0  0  0  0  0  0  0  0  0  0
    1.2969  -14.2638   38.4740 H   0  0  0  0  0  0  0  0  0  0  0  0
    3.2227  -14.9749   37.6262 S   0  0  0  0  0  0  0  0  0  0  0  0
    2.7052  -15.5123   36.3891 O   0  0  0  0  0  0  0  0  0  0  0  0
    3.5833  -15.8118   38.7481 O   0  0  0  0  0  0  0  0  0  0  0  0
    4.7381  -14.1484   37.1547 C   0  0  0  0  0  0  0  0  0  0  0  0
    6.0166  -14.2166   37.6960 C   0  0  0  0  0  0  0  0  0  0  0  0
    6.8532  -13.3561   36.9436 C   0  0  0  0  0  0  0  0  0  0  0  0
    8.2097  -12.9876   36.9795 C   0  0  0  0  0  0  0  0  0  0  0  0
    8.6732  -12.0721   36.0247 C   0  0  0  0  0  0  0  0  0  0  0  0
   10.4949  -11.5578   36.0498 Br  0  0  0  0  0  0  0  0  0  0  0  0
    7.8228  -11.5316   35.0565 C   0  0  0  0  0  0  0  0  0  0  0  0
    6.4708  -11.8897   35.0096 C   0  0  0  0  0  0  0  0  0  0  0  0
    6.0363  -12.8005   35.9698 C   0  0  0  0  0  0  0  0  0  0  0  0
    4.7674  -13.2685   36.0907 O   0  0  0  0  0  0  0  0  0  0  0  0
    0.2030  -10.4941   35.8353 C   0  0  0  0  0  0  0  0  0  0  0  0
    1.3281  -11.1251   35.0672 C   0  0  0  0  0  0  0  0  0  0  0  0
    2.4545  -10.6686   34.9427 O   0  0  0  0  0  0  0  0  0  0  0  0
    1.0177  -12.3204   34.5243 O   0  0  0  0  0  0  0  0  0  0  0  0
    0.1532  -12.6685   34.6210 H   0  0  0  0  0  0  0  0  0  0  0  0
 10 11  1  0
 11  1  1  0
  1  2  2  0
  2  3  1  0
  3  4  2  0
  4  5  1  0
  5  6  2  0
  5  7  1  0
  7  8  2  0
  8 12  1  0
 12 13  1  0
 13 15  1  0
 15 16  2  0
 15 17  2  0
 15 18  1  0
 18 19  2  0
 19 20  1  0
 20 21  2  0
 21 22  1  0
 22 23  1  0
 22 24  2  0
 24 25  1  0
 25 26  2  0
 26 27  1  0
  8  9  1  0
  9 28  1  0
 28 29  1  0
 29 30  2  0
 29 31  1  0
  6  1  1  0
 27 18  1  0
  9  4  1  0
 26 20  1  0
 13 14  1  0
 31 32  1  0
M  END
> <minimizedAffinity>
-9.09983

> <CNNscore>
0.4766216278

> <CNNaffinity>
5.4823870659

> <CNN_VS>
2.6130242348

> <CNNaffinity_variance>
0.5307641029

$$$$



 32 35  0  0  0  0  0  0  0  0999 V2000
   -0.7548   -9.4935   38.9751 C   0  0  0  0  0  0  0  0  0  0  0  0
    0.0243  -10.0950   39.9625 C   0  0  0  0  0  0  0  0  0  0  0  0
    0.9918  -11.0566   39.6513 C   0  0  0  0  0  0  0  0  0  0  0  0
    1.1602  -11.4052   38.3026 C   0  0  0  0  0  0  0  0  0  0  0  0
    0.3965  -10.8178   37.2940 C   0  0  0  0  0  0  0  0  0  0  0  0
   -0.5740   -9.8501   37.6347 C   0  0  0  0  0  0  0  0  0  0  0  0
    0.8205  -11.3844   36.0642 C   0  0  0  0  0  0  0  0  0  0  0  0
    1.8252  -12.2968   36.3263 C   0  0  0  0  0  0  0  0  0  0  0  0
    2.0200  -12.3059   37.6945 N   0  0  0  0  0  0  0  0  0  0  0  0
   -1.3887   -8.0058   40.7195 C   0  0  0  0  0  0  0  0  0  0  0  0
   -1.6551   -8.5741   39.4439 O   0  0  0  0  0  0  0  0  0  0  0  0
    2.5996  -13.1366   35.3676 C   0  0  0  0  0  0  0  0  0  0  0  0
    2.3426  -14.5267   35.7402 N   0  0  0  0  0  0  0  0  0  0  0  0
    2.2162  -14.5625   36.7517 H   0  0  0  0  0  0  0  0  0  0  0  0
    0.9924  -15.2326   35.0236 S   0  0  0  0  0  0  0  0  0  0  0  0
    0.5165  -14.3214   34.0086 O   0  0  0  0  0  0  0  0  0  0  0  0
    0.1348  -15.7597   36.0607 O   0  0  0  0  0  0  0  0  0  0  0  0
    1.5539  -16.6650   34.1098 C   0  0  0  0  0  0  0  0  0  0  0  0
    0.8559  -17.7662   33.6279 C   0  0  0  0  0  0  0  0  0  0  0  0
    1.7821  -18.6150   32.9734 C   0  0  0  0  0  0  0  0  0  0  0  0
    1.7147  -19.8460   32.2972 C   0  0  0  0  0  0  0  0  0  0  0  0
    2.8991  -20.3778   31.7692 C   0  0  0  0  0  0  0  0  0  0  0  0
    2.8379  -22.0340   30.8543 Br  0  0  0  0  0  0  0  0  0  0  0  0
    4.1218  -19.7145   31.9024 C   0  0  0  0  0  0  0  0  0  0  0  0
    4.2029  -18.4888   32.5730 C   0  0  0  0  0  0  0  0  0  0  0  0
    3.0117  -17.9832   33.0883 C   0  0  0  0  0  0  0  0  0  0  0  0
    2.8839  -16.8155   33.7693 O   0  0  0  0  0  0  0  0  0  0  0  0
    2.9539  -13.1520   38.4248 C   0  0  0  0  0  0  0  0  0  0  0  0
    2.4587  -14.5629   38.5597 C   0  0  0  0  0  0  0  0  0  0  0  0
    3.1566  -15.5636   38.6234 O   0  0  0  0  0  0  0  0  0  0  0  0
    1.1170  -14.6653   38.6556 O   0  0  0  0  0  0  0  0  0  0  0  0
    0.5838  -13.8964   38.6065 H   0  0  0  0  0  0  0  0  0  0  0  0
 10 11  1  0
 11  1  1  0
  1  2  2  0
  2  3  1  0
  3  4  2  0
  4  5  1  0
  5  6  2  0
  5  7  1  0
  7  8  2  0
  8 12  1  0
 12 13  1  0
 13 15  1  0
 15 16  2  0
 15 17  2  0
 15 18  1  0
 18 19  2  0
 19 20  1  0
 20 21  2  0
 21 22  1  0
 22 23  1  0
 22 24  2  0
 24 25  1  0
 25 26  2  0
 26 27  1  0
  8  9  1  0
  9 28  1  0
 28 29  1  0
 29 30  2  0
 29 31  1  0
  6  1  1  0
 27 18  1  0
  9  4  1  0
 26 20  1  0
 13 14  1  0
 31 32  1  0
M  END
> <minimizedAffinity>
-7.53145

> <CNNscore>
0.4248470664

> <CNNaffinity>
5.2959532738

> <CNN_VS>
2.2499701977

> <CNNaffinity_variance>
0.2051855326

$$$$
