


 27 29  0  0  0  0  0  0  0  0999 V2000
    2.7017   41.0165   28.8754 C   0  0  0  0  0  0  0  0  0  0  0  0
    2.8811   42.3367   28.1107 C   0  0  0  0  0  0  0  0  0  0  0  0
    2.8425   43.4585   29.0521 N   0  0  0  0  0  0  0  0  0  0  0  0
    3.4360   44.6620   28.7604 C   0  0  0  0  0  0  0  0  0  0  0  0
    3.9968   44.9722   27.7198 O   0  0  0  0  0  0  0  0  0  0  0  0
    3.3193   45.5668   29.9530 C   0  0  0  0  0  0  0  0  0  0  0  0
    4.6358   46.0373   30.5984 C   0  0  0  0  0  0  0  0  0  0  0  0
    5.6488   44.8853   30.7389 C   0  0  0  0  0  0  0  0  0  0  0  0
    5.0223   44.0033   31.8278 C   0  0  0  0  0  0  0  0  0  0  0  0
    3.7246   44.7548   32.1810 C   0  0  0  0  0  0  0  0  0  0  0  0
    4.1918   46.2106   32.0564 C   0  0  0  0  0  0  0  0  0  0  0  0
    2.6939   44.6862   31.0384 C   0  0  0  0  0  0  0  0  0  0  0  0
    2.5073   43.3495   30.3779 C   0  0  0  0  0  0  0  0  0  0  0  0
    2.1459   42.3462   30.9740 O   0  0  0  0  0  0  0  0  0  0  0  0
    1.8501   42.4284   26.9553 C   0  0  0  0  0  0  0  0  0  0  0  0
    0.3357   42.5929   27.3190 C   0  0  0  0  0  0  0  0  0  0  0  0
   -0.0612   41.5797   28.4225 C   0  0  0  0  0  0  0  0  0  0  0  0
    0.0696   43.9955   27.8805 C   0  0  0  0  0  0  0  0  0  0  0  0
   -0.5662   42.2402   26.0736 C   0  0  0  0  0  0  0  0  0  0  0  0
   -0.7958   43.1682   24.8287 C   0  0  0  0  0  0  0  0  0  0  0  0
   -1.7759   44.3138   25.1665 C   0  0  0  0  0  0  0  0  0  0  0  0
    0.5574   43.8521   24.5252 C   0  0  0  0  0  0  0  0  0  0  0  0
   -1.3508   42.4598   23.5452 C   0  0  0  0  0  0  0  0  0  0  0  0
   -1.4556   40.9088   23.3630 C   0  0  0  0  0  0  0  0  0  0  0  0
   -1.7604   40.4514   21.9333 C   0  0  0  0  0  0  0  0  0  0  0  0
   -2.4905   40.2854   24.3206 C   0  0  0  0  0  0  0  0  0  0  0  0
   -0.0762   40.3183   23.7539 C   0  0  0  0  0  0  0  0  0  0  0  0
  2  1  1  0
  2 15  1  0
 15 16  1  0
 16 17  1  0
 16 18  1  0
 16 19  1  0
 19 20  1  0
 20 21  1  0
 20 22  1  0
 20 23  1  0
 23 24  1  0
 24 25  1  0
 24 26  1  0
 24 27  1  0
  2  3  1  0
  3  4  1  0
  4  5  2  0
  6  4  1  0
  6  7  1  0
  7  8  1  0
  8  9  1  0
 10  9  1  0
 10 11  1  0
 10 12  1  0
 12 13  1  0
 13 14  2  0
 13  3  1  0
 12  6  1  0
 11  7  1  0
M  END
> <minimizedAffinity>
-5.48356

> <CNNscore>
0.5500510335

> <CNNaffinity>
5.7452244759

> <CNN_VS>
3.1601667404

> <CNNaffinity_variance>
0.0155980783

$$$$



 27 29  0  0  0  0  0  0  0  0999 V2000
    3.7201   41.2272   28.1696 C   0  0  0  0  0  0  0  0  0  0  0  0
    3.0381   42.4505   27.5386 C   0  0  0  0  0  0  0  0  0  0  0  0
    2.9324   43.5210   28.5332 N   0  0  0  0  0  0  0  0  0  0  0  0
    3.6958   44.6592   28.4475 C   0  0  0  0  0  0  0  0  0  0  0  0
    4.4814   44.9525   27.5585 O   0  0  0  0  0  0  0  0  0  0  0  0
    3.4412   45.5112   29.6574 C   0  0  0  0  0  0  0  0  0  0  0  0
    4.6458   45.7908   30.5750 C   0  0  0  0  0  0  0  0  0  0  0  0
    5.4832   44.5221   30.8239 C   0  0  0  0  0  0  0  0  0  0  0  0
    4.5635   43.6670   31.7067 C   0  0  0  0  0  0  0  0  0  0  0  0
    3.3085   44.5476   31.8578 C   0  0  0  0  0  0  0  0  0  0  0  0
    3.9424   45.9427   31.9296 C   0  0  0  0  0  0  0  0  0  0  0  0
    2.5235   44.6576   30.5371 C   0  0  0  0  0  0  0  0  0  0  0  0
    2.3313   43.3866   29.7590 C   0  0  0  0  0  0  0  0  0  0  0  0
    1.7548   42.4045   30.2014 O   0  0  0  0  0  0  0  0  0  0  0  0
    1.6905   42.0357   26.8918 C   0  0  0  0  0  0  0  0  0  0  0  0
    1.5907   42.0092   25.3291 C   0  0  0  0  0  0  0  0  0  0  0  0
    2.9725   42.3217   24.7008 C   0  0  0  0  0  0  0  0  0  0  0  0
    1.1816   40.6130   24.8427 C   0  0  0  0  0  0  0  0  0  0  0  0
    0.6261   43.1510   24.8243 C   0  0  0  0  0  0  0  0  0  0  0  0
   -0.8634   43.3464   25.2793 C   0  0  0  0  0  0  0  0  0  0  0  0
   -0.9340   44.0521   26.6519 C   0  0  0  0  0  0  0  0  0  0  0  0
   -1.5137   44.3240   24.2731 C   0  0  0  0  0  0  0  0  0  0  0  0
   -1.7158   42.0363   25.3982 C   0  0  0  0  0  0  0  0  0  0  0  0
   -2.6667   41.7020   26.5957 C   0  0  0  0  0  0  0  0  0  0  0  0
   -3.5273   42.8744   27.0763 C   0  0  0  0  0  0  0  0  0  0  0  0
   -1.8962   41.1195   27.7972 C   0  0  0  0  0  0  0  0  0  0  0  0
   -3.6303   40.5908   26.1047 C   0  0  0  0  0  0  0  0  0  0  0  0
  2  1  1  0
  2 15  1  0
 15 16  1  0
 16 17  1  0
 16 18  1  0
 16 19  1  0
 19 20  1  0
 20 21  1  0
 20 22  1  0
 20 23  1  0
 23 24  1  0
 24 25  1  0
 24 26  1  0
 24 27  1  0
  2  3  1  0
  3  4  1  0
  4  5  2  0
  6  4  1  0
  6  7  1  0
  7  8  1  0
  8  9  1  0
 10  9  1  0
 10 11  1  0
 10 12  1  0
 12 13  1  0
 13 14  2  0
 13  3  1  0
 12  6  1  0
 11  7  1  0
M  END
> <minimizedAffinity>
-5.40885

> <CNNscore>
0.5475342870

> <CNNaffinity>
5.8813414574

> <CNN_VS>
3.2202360630

> <CNNaffinity_variance>
0.0853307471

$$$$



 27 29  0  0  0  0  0  0  0  0999 V2000
    0.8182   39.4270   27.1286 C   0  0  0  0  0  0  0  0  0  0  0  0
    0.4174   40.4500   28.2022 C   0  0  0  0  0  0  0  0  0  0  0  0
    0.0348   41.7104   27.5609 N   0  0  0  0  0  0  0  0  0  0  0  0
   -1.2790   42.0984   27.4659 C   0  0  0  0  0  0  0  0  0  0  0  0
   -2.2523   41.5166   27.9216 O   0  0  0  0  0  0  0  0  0  0  0  0
   -1.3573   43.3698   26.6708 C   0  0  0  0  0  0  0  0  0  0  0  0
   -2.1600   43.3184   25.3577 C   0  0  0  0  0  0  0  0  0  0  0  0
   -1.8476   42.0481   24.5445 C   0  0  0  0  0  0  0  0  0  0  0  0
   -0.4094   42.2880   24.0648 C   0  0  0  0  0  0  0  0  0  0  0  0
   -0.0689   43.6672   24.6611 C   0  0  0  0  0  0  0  0  0  0  0  0
   -1.4216   44.3789   24.5313 C   0  0  0  0  0  0  0  0  0  0  0  0
    0.0778   43.6085   26.1933 C   0  0  0  0  0  0  0  0  0  0  0  0
    0.8581   42.4523   26.7521 C   0  0  0  0  0  0  0  0  0  0  0  0
    2.0269   42.2295   26.4752 O   0  0  0  0  0  0  0  0  0  0  0  0
    1.5434   40.5810   29.2613 C   0  0  0  0  0  0  0  0  0  0  0  0
    1.1871   41.1993   30.6553 C   0  0  0  0  0  0  0  0  0  0  0  0
   -0.1520   40.6147   31.1719 C   0  0  0  0  0  0  0  0  0  0  0  0
    2.2620   40.8415   31.6897 C   0  0  0  0  0  0  0  0  0  0  0  0
    0.9482   42.7527   30.5186 C   0  0  0  0  0  0  0  0  0  0  0  0
    2.0765   43.8339   30.3716 C   0  0  0  0  0  0  0  0  0  0  0  0
    3.2805   43.2726   29.5826 C   0  0  0  0  0  0  0  0  0  0  0  0
    1.4966   44.9693   29.4966 C   0  0  0  0  0  0  0  0  0  0  0  0
    2.6433   44.4125   31.7136 C   0  0  0  0  0  0  0  0  0  0  0  0
    4.0313   45.1212   31.8583 C   0  0  0  0  0  0  0  0  0  0  0  0
    4.3134   46.1974   30.8056 C   0  0  0  0  0  0  0  0  0  0  0  0
    5.1955   44.1105   31.8669 C   0  0  0  0  0  0  0  0  0  0  0  0
    4.0362   45.8165   33.2442 C   0  0  0  0  0  0  0  0  0  0  0  0
  2  1  1  0
  2 15  1  0
 15 16  1  0
 16 17  1  0
 16 18  1  0
 16 19  1  0
 19 20  1  0
 20 21  1  0
 20 22  1  0
 20 23  1  0
 23 24  1  0
 24 25  1  0
 24 26  1  0
 24 27  1  0
  2  3  1  0
  3  4  1  0
  4  5  2  0
  6  4  1  0
  6  7  1  0
  7  8  1  0
  8  9  1  0
 10  9  1  0
 10 11  1  0
 10 12  1  0
 12 13  1  0
 13 14  2  0
 13  3  1  0
 12  6  1  0
 11  7  1  0
M  END
> <minimizedAffinity>
-4.94104

> <CNNscore>
0.5190092325

> <CNNaffinity>
5.7606530190

> <CNN_VS>
2.9898321629

> <CNNaffinity_variance>
0.0404386371

$$$$



 27 29  0  0  0  0  0  0  0  0999 V2000
    2.0441   40.7996   28.3329 C   0  0  0  0  0  0  0  0  0  0  0  0
    1.4991   42.1716   28.7575 C   0  0  0  0  0  0  0  0  0  0  0  0
    0.6519   42.7143   27.6927 N   0  0  0  0  0  0  0  0  0  0  0  0
   -0.6961   42.4569   27.6455 C   0  0  0  0  0  0  0  0  0  0  0  0
   -1.3534   41.8270   28.4608 O   0  0  0  0  0  0  0  0  0  0  0  0
   -1.2650   43.0563   26.3918 C   0  0  0  0  0  0  0  0  0  0  0  0
   -1.9038   42.0820   25.3849 C   0  0  0  0  0  0  0  0  0  0  0  0
   -1.0430   40.8206   25.1833 C   0  0  0  0  0  0  0  0  0  0  0  0
    0.1807   41.3531   24.4249 C   0  0  0  0  0  0  0  0  0  0  0  0
   -0.1245   42.8565   24.2831 C   0  0  0  0  0  0  0  0  0  0  0  0
   -1.6429   42.8230   24.0675 C   0  0  0  0  0  0  0  0  0  0  0  0
   -0.0437   43.5876   25.6364 C   0  0  0  0  0  0  0  0  0  0  0  0
    1.1233   43.2456   26.5190 C   0  0  0  0  0  0  0  0  0  0  0  0
    2.2889   43.4015   26.1879 O   0  0  0  0  0  0  0  0  0  0  0  0
    2.6654   43.0987   29.1895 C   0  0  0  0  0  0  0  0  0  0  0  0
    2.3558   44.2768   30.1739 C   0  0  0  0  0  0  0  0  0  0  0  0
    2.4625   45.6336   29.4327 C   0  0  0  0  0  0  0  0  0  0  0  0
    0.9209   44.1669   30.7051 C   0  0  0  0  0  0  0  0  0  0  0  0
    3.4402   44.3311   31.3185 C   0  0  0  0  0  0  0  0  0  0  0  0
    3.3359   43.5965   32.7017 C   0  0  0  0  0  0  0  0  0  0  0  0
    2.3402   44.3181   33.6370 C   0  0  0  0  0  0  0  0  0  0  0  0
    2.7167   42.2070   32.4244 C   0  0  0  0  0  0  0  0  0  0  0  0
    4.6790   43.4484   33.4962 C   0  0  0  0  0  0  0  0  0  0  0  0
    5.0650   42.2029   34.3619 C   0  0  0  0  0  0  0  0  0  0  0  0
    3.9154   41.6146   35.1855 C   0  0  0  0  0  0  0  0  0  0  0  0
    6.2530   42.4990   35.2987 C   0  0  0  0  0  0  0  0  0  0  0  0
    5.5392   41.1032   33.3770 C   0  0  0  0  0  0  0  0  0  0  0  0
  2  1  1  0
  2 15  1  0
 15 16  1  0
 16 17  1  0
 16 18  1  0
 16 19  1  0
 19 20  1  0
 20 21  1  0
 20 22  1  0
 20 23  1  0
 23 24  1  0
 24 25  1  0
 24 26  1  0
 24 27  1  0
  2  3  1  0
  3  4  1  0
  4  5  2  0
  6  4  1  0
  6  7  1  0
  7  8  1  0
  8  9  1  0
 10  9  1  0
 10 11  1  0
 10 12  1  0
 12 13  1  0
 13 14  2  0
 13  3  1  0
 12  6  1  0
 11  7  1  0
M  END
> <minimizedAffinity>
-4.13284

> <CNNscore>
0.4691350162

> <CNNaffinity>
5.7564616203

> <CNN_VS>
2.7005577087

> <CNNaffinity_variance>
0.0537290238

$$$$



 27 29  0  0  0  0  0  0  0  0999 V2000
    3.7146   41.1765   26.9424 C   0  0  0  0  0  0  0  0  0  0  0  0
    4.0244   42.6811   26.9298 C   0  0  0  0  0  0  0  0  0  0  0  0
    4.2947   43.1381   28.2952 N   0  0  0  0  0  0  0  0  0  0  0  0
    3.6444   42.5960   29.3763 C   0  0  0  0  0  0  0  0  0  0  0  0
    2.8404   41.6757   29.3652 O   0  0  0  0  0  0  0  0  0  0  0  0
    4.0537   43.3380   30.6159 C   0  0  0  0  0  0  0  0  0  0  0  0
    2.9394   44.0710   31.3855 C   0  0  0  0  0  0  0  0  0  0  0  0
    1.9965   44.8362   30.4378 C   0  0  0  0  0  0  0  0  0  0  0  0
    2.8774   45.9830   29.9232 C   0  0  0  0  0  0  0  0  0  0  0  0
    4.2205   45.7379   30.6370 C   0  0  0  0  0  0  0  0  0  0  0  0
    3.7336   45.2303   32.0003 C   0  0  0  0  0  0  0  0  0  0  0  0
    4.9327   44.4814   30.1016 C   0  0  0  0  0  0  0  0  0  0  0  0
    4.9512   44.3009   28.6100 C   0  0  0  0  0  0  0  0  0  0  0  0
    5.4525   45.1047   27.8385 O   0  0  0  0  0  0  0  0  0  0  0  0
    2.8917   43.4531   26.2035 C   0  0  0  0  0  0  0  0  0  0  0  0
    1.4463   42.8506   26.2253 C   0  0  0  0  0  0  0  0  0  0  0  0
    1.5129   41.3026   26.1946 C   0  0  0  0  0  0  0  0  0  0  0  0
    0.7225   43.2434   27.5196 C   0  0  0  0  0  0  0  0  0  0  0  0
    0.6610   43.2684   24.9223 C   0  0  0  0  0  0  0  0  0  0  0  0
   -0.8404   42.9252   24.6196 C   0  0  0  0  0  0  0  0  0  0  0  0
   -1.5670   42.4489   25.8972 C   0  0  0  0  0  0  0  0  0  0  0  0
   -1.5293   44.2496   24.2165 C   0  0  0  0  0  0  0  0  0  0  0  0
   -1.0803   41.8286   23.5256 C   0  0  0  0  0  0  0  0  0  0  0  0
   -2.0426   40.6053   23.6914 C   0  0  0  0  0  0  0  0  0  0  0  0
   -2.4540   39.9319   22.3786 C   0  0  0  0  0  0  0  0  0  0  0  0
   -3.3116   40.9748   24.4849 C   0  0  0  0  0  0  0  0  0  0  0  0
   -1.2825   39.5496   24.5351 C   0  0  0  0  0  0  0  0  0  0  0  0
  2  1  1  0
  2 15  1  0
 15 16  1  0
 16 17  1  0
 16 18  1  0
 16 19  1  0
 19 20  1  0
 20 21  1  0
 20 22  1  0
 20 23  1  0
 23 24  1  0
 24 25  1  0
 24 26  1  0
 24 27  1  0
  2  3  1  0
  3  4  1  0
  4  5  2  0
  6  4  1  0
  6  7  1  0
  7  8  1  0
  8  9  1  0
 10  9  1  0
 10 11  1  0
 10 12  1  0
 12 13  1  0
 13 14  2  0
 13  3  1  0
 12  6  1  0
 11  7  1  0
M  END
> <minimizedAffinity>
-5.41634

> <CNNscore>
0.4207098186

> <CNNaffinity>
5.7210693359

> <CNN_VS>
2.4069099426

> <CNNaffinity_variance>
0.0605886094

$$$$



 27 29  0  0  0  0  0  0  0  0999 V2000
    3.2725   40.4632   27.0007 C   0  0  0  0  0  0  0  0  0  0  0  0
    1.8270   40.8291   27.3703 C   0  0  0  0  0  0  0  0  0  0  0  0
    1.1588   41.4228   26.2095 N   0  0  0  0  0  0  0  0  0  0  0  0
    1.4003   42.7193   25.8267 C   0  0  0  0  0  0  0  0  0  0  0  0
    2.1966   43.4982   26.3295 O   0  0  0  0  0  0  0  0  0  0  0  0
    0.4961   43.0672   24.6796 C   0  0  0  0  0  0  0  0  0  0  0  0
   -0.5043   44.2153   24.9083 C   0  0  0  0  0  0  0  0  0  0  0  0
   -1.1906   44.1119   26.2834 C   0  0  0  0  0  0  0  0  0  0  0  0
   -2.0985   42.8843   26.1268 C   0  0  0  0  0  0  0  0  0  0  0  0
   -1.8238   42.4301   24.6805 C   0  0  0  0  0  0  0  0  0  0  0  0
   -1.6483   43.7845   23.9818 C   0  0  0  0  0  0  0  0  0  0  0  0
   -0.4088   41.8419   24.5238 C   0  0  0  0  0  0  0  0  0  0  0  0
    0.0505   40.8954   25.5967 C   0  0  0  0  0  0  0  0  0  0  0  0
   -0.5231   39.8512   25.8670 O   0  0  0  0  0  0  0  0  0  0  0  0
    1.8094   41.7117   28.6458 C   0  0  0  0  0  0  0  0  0  0  0  0
    0.7869   41.3628   29.7796 C   0  0  0  0  0  0  0  0  0  0  0  0
   -0.6573   41.3725   29.2173 C   0  0  0  0  0  0  0  0  0  0  0  0
    1.0487   39.9513   30.3203 C   0  0  0  0  0  0  0  0  0  0  0  0
    0.8143   42.4730   30.9001 C   0  0  0  0  0  0  0  0  0  0  0  0
    2.0918   42.9377   31.6847 C   0  0  0  0  0  0  0  0  0  0  0  0
    1.7519   44.0810   32.6668 C   0  0  0  0  0  0  0  0  0  0  0  0
    2.5327   41.7467   32.5668 C   0  0  0  0  0  0  0  0  0  0  0  0
    3.2874   43.4374   30.8028 C   0  0  0  0  0  0  0  0  0  0  0  0
    3.3342   44.8215   30.0734 C   0  0  0  0  0  0  0  0  0  0  0  0
    3.8798   45.9741   30.9218 C   0  0  0  0  0  0  0  0  0  0  0  0
    1.9563   45.2219   29.5098 C   0  0  0  0  0  0  0  0  0  0  0  0
    4.2804   44.6539   28.8565 C   0  0  0  0  0  0  0  0  0  0  0  0
  2  1  1  0
  2 15  1  0
 15 16  1  0
 16 17  1  0
 16 18  1  0
 16 19  1  0
 19 20  1  0
 20 21  1  0
 20 22  1  0
 20 23  1  0
 23 24  1  0
 24 25  1  0
 24 26  1  0
 24 27  1  0
  2  3  1  0
  3  4  1  0
  4  5  2  0
  6  4  1  0
  6  7  1  0
  7  8  1  0
  8  9  1  0
 10  9  1  0
 10 11  1  0
 10 12  1  0
 12 13  1  0
 13 14  2  0
 13  3  1  0
 12  6  1  0
 11  7  1  0
M  END
> <minimizedAffinity>
-4.92108

> <CNNscore>
0.4116739333

> <CNNaffinity>
5.6817917824

> <CNN_VS>
2.3390455246

> <CNNaffinity_variance>
0.0109044947

$$$$



 27 29  0  0  0  0  0  0  0  0999 V2000
    2.3028   41.9525   28.3834 C   0  0  0  0  0  0  0  0  0  0  0  0
    2.0155   42.5402   26.9935 C   0  0  0  0  0  0  0  0  0  0  0  0
    3.2333   43.1545   26.4589 N   0  0  0  0  0  0  0  0  0  0  0  0
    4.0456   42.4882   25.5747 C   0  0  0  0  0  0  0  0  0  0  0  0
    3.8557   41.3816   25.0921 O   0  0  0  0  0  0  0  0  0  0  0  0
    5.2579   43.3290   25.2951 C   0  0  0  0  0  0  0  0  0  0  0  0
    6.6219   42.7316   25.6872 C   0  0  0  0  0  0  0  0  0  0  0  0
    6.5804   42.0735   27.0793 C   0  0  0  0  0  0  0  0  0  0  0  0
    6.4399   43.2733   28.0263 C   0  0  0  0  0  0  0  0  0  0  0  0
    6.4171   44.4760   27.0638 C   0  0  0  0  0  0  0  0  0  0  0  0
    7.4137   44.0087   25.9954 C   0  0  0  0  0  0  0  0  0  0  0  0
    5.1166   44.5257   26.2398 C   0  0  0  0  0  0  0  0  0  0  0  0
    3.8366   44.2691   26.9840 C   0  0  0  0  0  0  0  0  0  0  0  0
    3.4526   44.9509   27.9223 O   0  0  0  0  0  0  0  0  0  0  0  0
    0.7895   43.4885   27.0581 C   0  0  0  0  0  0  0  0  0  0  0  0
   -0.2822   43.3998   25.9196 C   0  0  0  0  0  0  0  0  0  0  0  0
   -1.5337   44.2316   26.2989 C   0  0  0  0  0  0  0  0  0  0  0  0
    0.2713   43.9902   24.6164 C   0  0  0  0  0  0  0  0  0  0  0  0
   -0.7905   41.9145   25.7629 C   0  0  0  0  0  0  0  0  0  0  0  0
   -0.7697   41.0851   24.4304 C   0  0  0  0  0  0  0  0  0  0  0  0
   -1.5734   41.8004   23.3216 C   0  0  0  0  0  0  0  0  0  0  0  0
    0.6960   41.0666   23.9381 C   0  0  0  0  0  0  0  0  0  0  0  0
   -1.3324   39.6254   24.5289 C   0  0  0  0  0  0  0  0  0  0  0  0
   -1.2121   38.7116   25.7940 C   0  0  0  0  0  0  0  0  0  0  0  0
    0.0538   38.9348   26.6269 C   0  0  0  0  0  0  0  0  0  0  0  0
   -1.3199   37.2160   25.4359 C   0  0  0  0  0  0  0  0  0  0  0  0
   -2.4267   39.0402   26.7001 C   0  0  0  0  0  0  0  0  0  0  0  0
  2  1  1  0
  2 15  1  0
 15 16  1  0
 16 17  1  0
 16 18  1  0
 16 19  1  0
 19 20  1  0
 20 21  1  0
 20 22  1  0
 20 23  1  0
 23 24  1  0
 24 25  1  0
 24 26  1  0
 24 27  1  0
  2  3  1  0
  3  4  1  0
  4  5  2  0
  6  4  1  0
  6  7  1  0
  7  8  1  0
  8  9  1  0
 10  9  1  0
 10 11  1  0
 10 12  1  0
 12 13  1  0
 13 14  2  0
 13  3  1  0
 12  6  1  0
 11  7  1  0
M  END
> <minimizedAffinity>
-4.20703

> <CNNscore>
0.4094343781

> <CNNaffinity>
6.0168538094

> <CNN_VS>
2.4635066986

> <CNNaffinity_variance>
0.0866289139

$$$$



 27 29  0  0  0  0  0  0  0  0999 V2000
   -0.9739   40.8068   29.7840 C   0  0  0  0  0  0  0  0  0  0  0  0
   -0.0010   41.4967   28.8159 C   0  0  0  0  0  0  0  0  0  0  0  0
   -0.7580   42.2456   27.8098 N   0  0  0  0  0  0  0  0  0  0  0  0
   -1.5345   41.6084   26.8734 C   0  0  0  0  0  0  0  0  0  0  0  0
   -1.7396   40.4070   26.7828 O   0  0  0  0  0  0  0  0  0  0  0  0
   -2.0942   42.6293   25.9253 C   0  0  0  0  0  0  0  0  0  0  0  0
   -1.6920   42.4953   24.4449 C   0  0  0  0  0  0  0  0  0  0  0  0
   -0.1894   42.1972   24.2841 C   0  0  0  0  0  0  0  0  0  0  0  0
    0.4732   43.5154   24.7074 C   0  0  0  0  0  0  0  0  0  0  0  0
   -0.7289   44.4117   25.0610 C   0  0  0  0  0  0  0  0  0  0  0  0
   -1.7440   43.9629   24.0020 C   0  0  0  0  0  0  0  0  0  0  0  0
   -1.4330   43.9440   26.3486 C   0  0  0  0  0  0  0  0  0  0  0  0
   -0.5474   43.5659   27.5022 C   0  0  0  0  0  0  0  0  0  0  0  0
    0.2427   44.3354   28.0275 O   0  0  0  0  0  0  0  0  0  0  0  0
    0.9966   40.4612   28.2336 C   0  0  0  0  0  0  0  0  0  0  0  0
    2.4927   40.8875   28.0528 C   0  0  0  0  0  0  0  0  0  0  0  0
    3.4176   39.6490   28.1640 C   0  0  0  0  0  0  0  0  0  0  0  0
    2.7129   41.4888   26.6588 C   0  0  0  0  0  0  0  0  0  0  0  0
    2.9307   41.8516   29.2222 C   0  0  0  0  0  0  0  0  0  0  0  0
    4.0886   42.9082   29.1404 C   0  0  0  0  0  0  0  0  0  0  0  0
    5.4025   42.2522   28.6604 C   0  0  0  0  0  0  0  0  0  0  0  0
    3.6969   43.9161   28.0350 C   0  0  0  0  0  0  0  0  0  0  0  0
    4.4183   43.6609   30.4752 C   0  0  0  0  0  0  0  0  0  0  0  0
    3.4674   44.6909   31.1713 C   0  0  0  0  0  0  0  0  0  0  0  0
    1.9744   44.3760   31.0370 C   0  0  0  0  0  0  0  0  0  0  0  0
    3.7224   46.1308   30.6830 C   0  0  0  0  0  0  0  0  0  0  0  0
    3.8117   44.6668   32.6829 C   0  0  0  0  0  0  0  0  0  0  0  0
  2  1  1  0
  2 15  1  0
 15 16  1  0
 16 17  1  0
 16 18  1  0
 16 19  1  0
 19 20  1  0
 20 21  1  0
 20 22  1  0
 20 23  1  0
 23 24  1  0
 24 25  1  0
 24 26  1  0
 24 27  1  0
  2  3  1  0
  3  4  1  0
  4  5  2  0
  6  4  1  0
  6  7  1  0
  7  8  1  0
  8  9  1  0
 10  9  1  0
 10 11  1  0
 10 12  1  0
 12 13  1  0
 13 14  2  0
 13  3  1  0
 12  6  1  0
 11  7  1  0
M  END
> <minimizedAffinity>
-4.93395

> <CNNscore>
0.4064199030

> <CNNaffinity>
5.4285244942

> <CNN_VS>
2.2062604427

> <CNNaffinity_variance>
0.0237371977

$$$$



 27 29  0  0  0  0  0  0  0  0999 V2000
    1.0187   40.2394   27.9121 C   0  0  0  0  0  0  0  0  0  0  0  0
    0.4574   41.3805   28.7739 C   0  0  0  0  0  0  0  0  0  0  0  0
   -0.1554   42.3925   27.9100 N   0  0  0  0  0  0  0  0  0  0  0  0
   -1.4603   42.2882   27.4951 C   0  0  0  0  0  0  0  0  0  0  0  0
   -2.2652   41.4242   27.8101 O   0  0  0  0  0  0  0  0  0  0  0  0
   -1.7623   43.4100   26.5438 C   0  0  0  0  0  0  0  0  0  0  0  0
   -2.1635   43.0151   25.1105 C   0  0  0  0  0  0  0  0  0  0  0  0
   -1.2631   41.8976   24.5507 C   0  0  0  0  0  0  0  0  0  0  0  0
    0.0850   42.6045   24.3532 C   0  0  0  0  0  0  0  0  0  0  0  0
   -0.2035   44.0427   24.8240 C   0  0  0  0  0  0  0  0  0  0  0  0
   -1.6427   44.2257   24.3256 C   0  0  0  0  0  0  0  0  0  0  0  0
   -0.4171   44.1147   26.3478 C   0  0  0  0  0  0  0  0  0  0  0  0
    0.5440   43.3360   27.2009 C   0  0  0  0  0  0  0  0  0  0  0  0
    1.7509   43.5254   27.2038 O   0  0  0  0  0  0  0  0  0  0  0  0
    1.5579   41.9234   29.7229 C   0  0  0  0  0  0  0  0  0  0  0  0
    1.1247   42.5049   31.1110 C   0  0  0  0  0  0  0  0  0  0  0  0
    1.0164   44.0489   31.0325 C   0  0  0  0  0  0  0  0  0  0  0  0
   -0.2612   41.9769   31.5033 C   0  0  0  0  0  0  0  0  0  0  0  0
    2.2320   42.2110   32.1957 C   0  0  0  0  0  0  0  0  0  0  0  0
    3.5719   43.0112   32.3631 C   0  0  0  0  0  0  0  0  0  0  0  0
    4.4166   42.4383   33.5230 C   0  0  0  0  0  0  0  0  0  0  0  0
    4.4019   42.7666   31.0816 C   0  0  0  0  0  0  0  0  0  0  0  0
    3.4176   44.5480   32.6301 C   0  0  0  0  0  0  0  0  0  0  0  0
    4.4991   45.6230   32.2771 C   0  0  0  0  0  0  0  0  0  0  0  0
    5.9419   45.1093   32.2950 C   0  0  0  0  0  0  0  0  0  0  0  0
    4.3966   46.8630   33.1874 C   0  0  0  0  0  0  0  0  0  0  0  0
    4.1968   46.1045   30.8345 C   0  0  0  0  0  0  0  0  0  0  0  0
  2  1  1  0
  2 15  1  0
 15 16  1  0
 16 17  1  0
 16 18  1  0
 16 19  1  0
 19 20  1  0
 20 21  1  0
 20 22  1  0
 20 23  1  0
 23 24  1  0
 24 25  1  0
 24 26  1  0
 24 27  1  0
  2  3  1  0
  3  4  1  0
  4  5  2  0
  6  4  1  0
  6  7  1  0
  7  8  1  0
  8  9  1  0
 10  9  1  0
 10 11  1  0
 10 12  1  0
 12 13  1  0
 13 14  2  0
 13  3  1  0
 12  6  1  0
 11  7  1  0
M  END
> <minimizedAffinity>
-4.94815

> <CNNscore>
0.4008330107

> <CNNaffinity>
5.6106619835

> <CNN_VS>
2.2489385605

> <CNNaffinity_variance>
0.0048027425

$$$$
