


 19 20  0  0  0  0  0  0  0  0999 V2000
   56.3128   23.9680  101.7095 C   0  0  0  0  0  0  0  0  0  0  0  0
   55.0322   24.5197  101.5988 C   0  0  0  0  0  0  0  0  0  0  0  0
   53.8995   23.8692  102.1151 C   0  0  0  0  0  0  0  0  0  0  0  0
   54.1896   22.6112  102.6966 C   0  0  0  0  0  0  0  0  0  0  0  0
   53.1922   21.8678  103.2044 F   0  0  0  0  0  0  0  0  0  0  0  0
   55.4117   22.0296  102.7989 N   0  0  0  0  0  0  0  0  0  0  0  0
   56.4509   22.7174  102.2947 C   0  0  0  0  0  0  0  0  0  0  0  0
   58.1602   21.8951  102.4301 Br  0  0  0  0  0  0  0  0  0  0  0  0
   52.6185   24.4263  102.0090 N   0  0  0  0  0  0  0  0  0  0  0  0
   51.4917   23.9445  102.8200 C   0  0  0  0  0  0  0  0  0  0  0  0
   50.8688   22.6621  102.2733 C   0  0  0  0  0  0  0  0  0  0  0  0
   50.3383   22.7749  100.8413 C   0  0  0  0  0  0  0  0  0  0  0  0
   51.4096   22.7734   99.8531 N   0  0  0  0  0  0  0  0  0  0  0  0
   51.9979   24.0951   99.5790 C   0  0  0  0  0  0  0  0  0  0  0  0
   52.1956   25.0818  100.7544 C   0  0  0  0  0  0  0  0  0  0  0  0
   51.0344   22.4055   98.9788 H   0  0  0  0  0  0  0  0  0  0  0  0
   57.3807   24.6405  101.1781 O   0  0  0  0  0  0  0  0  0  0  0  0
   58.8717   26.4858  101.4389 C   0  0  0  0  0  0  0  0  0  0  0  0
   57.9808   25.4928  102.1622 C   0  0  0  0  0  0  0  0  0  0  0  0
 18 19  1  0
 19 17  1  0
 17  1  1  0
  1  2  2  0
  2  3  1  0
  3  9  1  0
  9 10  1  0
 10 11  1  0
 11 12  1  0
 12 13  1  0
 13 14  1  0
 14 15  1  0
  3  4  2  0
  4  5  1  0
  4  6  1  0
  6  7  2  0
  7  8  1  0
  7  1  1  0
 15  9  1  0
 13 16  1  0
M  END
> <minimizedAffinity>
-6.95591

> <CNNscore>
0.8996485472

> <CNNaffinity>
8.4184141159

> <CNN_VS>
7.5736141205

> <CNNaffinity_variance>
1.9750238657

$$$$



 19 20  0  0  0  0  0  0  0  0999 V2000
   54.9174   21.7912  103.1746 C   0  0  0  0  0  0  0  0  0  0  0  0
   53.7903   22.5386  102.8174 C   0  0  0  0  0  0  0  0  0  0  0  0
   53.9010   23.7766  102.1632 C   0  0  0  0  0  0  0  0  0  0  0  0
   55.2406   24.1873  101.9594 C   0  0  0  0  0  0  0  0  0  0  0  0
   55.4913   25.3681  101.3693 F   0  0  0  0  0  0  0  0  0  0  0  0
   56.3590   23.5054  102.3151 N   0  0  0  0  0  0  0  0  0  0  0  0
   56.1751   22.3215  102.9248 C   0  0  0  0  0  0  0  0  0  0  0  0
   57.7438   21.3737  103.4313 Br  0  0  0  0  0  0  0  0  0  0  0  0
   52.7709   24.5209  101.8003 N   0  0  0  0  0  0  0  0  0  0  0  0
   51.5385   24.5031  102.6005 C   0  0  0  0  0  0  0  0  0  0  0  0
   50.6801   23.2662  102.3459 C   0  0  0  0  0  0  0  0  0  0  0  0
   50.2391   23.0887  100.8904 C   0  0  0  0  0  0  0  0  0  0  0  0
   51.3221   22.6135  100.0385 N   0  0  0  0  0  0  0  0  0  0  0  0
   52.1856   23.6727   99.4901 C   0  0  0  0  0  0  0  0  0  0  0  0
   52.5428   24.8824  100.3862 C   0  0  0  0  0  0  0  0  0  0  0  0
   50.9107   22.1031   99.2571 H   0  0  0  0  0  0  0  0  0  0  0  0
   54.7514   20.5953  103.8209 O   0  0  0  0  0  0  0  0  0  0  0  0
   55.6417   18.4009  104.1178 C   0  0  0  0  0  0  0  0  0  0  0  0
   55.9776   19.8527  103.8311 C   0  0  0  0  0  0  0  0  0  0  0  0
 18 19  1  0
 19 17  1  0
 17  1  1  0
  1  2  2  0
  2  3  1  0
  3  9  1  0
  9 10  1  0
 10 11  1  0
 11 12  1  0
 12 13  1  0
 13 14  1  0
 14 15  1  0
  3  4  2  0
  4  5  1  0
  4  6  1  0
  6  7  2  0
  7  8  1  0
  7  1  1  0
 15  9  1  0
 13 16  1  0
M  END
> <minimizedAffinity>
-5.98291

> <CNNscore>
0.8762556314

> <CNNaffinity>
7.9224133492

> <CNN_VS>
6.9420595169

> <CNNaffinity_variance>
1.0688909292

$$$$



 19 20  0  0  0  0  0  0  0  0999 V2000
   59.1669   27.9647  105.9353 C   0  0  0  0  0  0  0  0  0  0  0  0
   58.4537   28.5616  106.9802 C   0  0  0  0  0  0  0  0  0  0  0  0
   58.9274   28.5461  108.3023 C   0  0  0  0  0  0  0  0  0  0  0  0
   60.1440   27.8379  108.4557 C   0  0  0  0  0  0  0  0  0  0  0  0
   60.6952   27.7201  109.6753 F   0  0  0  0  0  0  0  0  0  0  0  0
   60.8512   27.2226  107.4741 N   0  0  0  0  0  0  0  0  0  0  0  0
   60.3434   27.2911  106.2313 C   0  0  0  0  0  0  0  0  0  0  0  0
   61.3313   26.4192  104.8603 Br  0  0  0  0  0  0  0  0  0  0  0  0
   58.2151   29.1500  109.3466 N   0  0  0  0  0  0  0  0  0  0  0  0
   56.9446   28.6008  109.8403 C   0  0  0  0  0  0  0  0  0  0  0  0
   55.7544   28.9626  108.9548 C   0  0  0  0  0  0  0  0  0  0  0  0
   55.5244   30.4669  108.7847 C   0  0  0  0  0  0  0  0  0  0  0  0
   56.4895   31.0746  107.8770 N   0  0  0  0  0  0  0  0  0  0  0  0
   57.7526   31.4916  108.5086 C   0  0  0  0  0  0  0  0  0  0  0  0
   58.3671   30.5956  109.6102 C   0  0  0  0  0  0  0  0  0  0  0  0
   56.0568   31.8980  107.4585 H   0  0  0  0  0  0  0  0  0  0  0  0
   58.6526   28.0001  104.6666 O   0  0  0  0  0  0  0  0  0  0  0  0
   59.1169   28.7645  102.4539 C   0  0  0  0  0  0  0  0  0  0  0  0
   59.1996   29.1023  103.9310 C   0  0  0  0  0  0  0  0  0  0  0  0
 18 19  1  0
 19 17  1  0
 17  1  1  0
  1  2  2  0
  2  3  1  0
  3  9  1  0
  9 10  1  0
 10 11  1  0
 11 12  1  0
 12 13  1  0
 13 14  1  0
 14 15  1  0
  3  4  2  0
  4  5  1  0
  4  6  1  0
  6  7  2  0
  7  8  1  0
  7  1  1  0
 15  9  1  0
 13 16  1  0
M  END
> <minimizedAffinity>
-4.52813

> <CNNscore>
0.5550749302

> <CNNaffinity>
4.9707207680

> <CNN_VS>
2.7591223717

> <CNNaffinity_variance>
0.0989659205

$$$$



 19 20  0  0  0  0  0  0  0  0999 V2000
   61.0591   28.4658  105.8357 C   0  0  0  0  0  0  0  0  0  0  0  0
   61.3941   29.4687  104.9200 C   0  0  0  0  0  0  0  0  0  0  0  0
   62.4594   30.3546  105.1503 C   0  0  0  0  0  0  0  0  0  0  0  0
   63.1003   30.1516  106.3966 C   0  0  0  0  0  0  0  0  0  0  0  0
   64.1192   30.9495  106.7577 F   0  0  0  0  0  0  0  0  0  0  0  0
   62.7885   29.2097  107.3228 N   0  0  0  0  0  0  0  0  0  0  0  0
   61.7661   28.3885  107.0272 C   0  0  0  0  0  0  0  0  0  0  0  0
   61.3251   27.0769  108.3315 Br  0  0  0  0  0  0  0  0  0  0  0  0
   62.7977   31.3545  104.2292 N   0  0  0  0  0  0  0  0  0  0  0  0
   64.1663   31.5085  103.7167 C   0  0  0  0  0  0  0  0  0  0  0  0
   65.0897   32.2357  104.6914 C   0  0  0  0  0  0  0  0  0  0  0  0
   64.6241   33.6426  105.0766 C   0  0  0  0  0  0  0  0  0  0  0  0
   63.5127   33.6185  106.0193 N   0  0  0  0  0  0  0  0  0  0  0  0
   62.1811   33.5103  105.4003 C   0  0  0  0  0  0  0  0  0  0  0  0
   62.0061   32.6000  104.1615 C   0  0  0  0  0  0  0  0  0  0  0  0
   63.5403   34.4800  106.5646 H   0  0  0  0  0  0  0  0  0  0  0  0
   60.0035   27.6365  105.5652 O   0  0  0  0  0  0  0  0  0  0  0  0
   59.3896   26.8407  103.4005 C   0  0  0  0  0  0  0  0  0  0  0  0
   59.3549   28.0259  104.3475 C   0  0  0  0  0  0  0  0  0  0  0  0
 18 19  1  0
 19 17  1  0
 17  1  1  0
  1  2  2  0
  2  3  1  0
  3  9  1  0
  9 10  1  0
 10 11  1  0
 11 12  1  0
 12 13  1  0
 13 14  1  0
 14 15  1  0
  3  4  2  0
  4  5  1  0
  4  6  1  0
  6  7  2  0
  7  8  1  0
  7  1  1  0
 15  9  1  0
 13 16  1  0
M  END
> <minimizedAffinity>
-3.97840

> <CNNscore>
0.4650944471

> <CNNaffinity>
4.3541798592

> <CNN_VS>
2.0251047611

> <CNNaffinity_variance>
0.4647533894

$$$$



 19 20  0  0  0  0  0  0  0  0999 V2000
   61.1566   28.3586  105.4114 C   0  0  0  0  0  0  0  0  0  0  0  0
   61.8355   29.4711  105.9195 C   0  0  0  0  0  0  0  0  0  0  0  0
   61.8647   30.6963  105.2335 C   0  0  0  0  0  0  0  0  0  0  0  0
   61.1917   30.6600  103.9882 C   0  0  0  0  0  0  0  0  0  0  0  0
   61.1667   31.7578  103.2139 F   0  0  0  0  0  0  0  0  0  0  0  0
   60.5459   29.5952  103.4483 N   0  0  0  0  0  0  0  0  0  0  0  0
   60.5480   28.4601  104.1684 C   0  0  0  0  0  0  0  0  0  0  0  0
   59.6514   26.9673  103.4045 Br  0  0  0  0  0  0  0  0  0  0  0  0
   62.5397   31.8115  105.7468 N   0  0  0  0  0  0  0  0  0  0  0  0
   63.4852   32.5896  104.9345 C   0  0  0  0  0  0  0  0  0  0  0  0
   64.8600   31.9337  104.8276 C   0  0  0  0  0  0  0  0  0  0  0  0
   65.5558   31.6963  106.1708 C   0  0  0  0  0  0  0  0  0  0  0  0
   64.9841   30.5701  106.8982 N   0  0  0  0  0  0  0  0  0  0  0  0
   63.8171   30.9029  107.7323 C   0  0  0  0  0  0  0  0  0  0  0  0
   62.7865   31.9262  107.1989 C   0  0  0  0  0  0  0  0  0  0  0  0
   65.7076   30.1835  107.5043 H   0  0  0  0  0  0  0  0  0  0  0  0
   61.1701   27.1852  106.1171 O   0  0  0  0  0  0  0  0  0  0  0  0
   61.2157   26.9385  108.4906 C   0  0  0  0  0  0  0  0  0  0  0  0
   62.0292   27.2933  107.2597 C   0  0  0  0  0  0  0  0  0  0  0  0
 18 19  1  0
 19 17  1  0
 17  1  1  0
  1  2  2  0
  2  3  1  0
  3  9  1  0
  9 10  1  0
 10 11  1  0
 11 12  1  0
 12 13  1  0
 13 14  1  0
 14 15  1  0
  3  4  2  0
  4  5  1  0
  4  6  1  0
  6  7  2  0
  7  8  1  0
  7  1  1  0
 15  9  1  0
 13 16  1  0
M  END
> <minimizedAffinity>
-4.48321

> <CNNscore>
0.4511542618

> <CNNaffinity>
4.1912331581

> <CNN_VS>
1.8908927441

> <CNNaffinity_variance>
0.3833019733

$$$$



 19 20  0  0  0  0  0  0  0  0999 V2000
   60.2846   28.9281  109.8623 C   0  0  0  0  0  0  0  0  0  0  0  0
   60.8215   29.4629  111.0380 C   0  0  0  0  0  0  0  0  0  0  0  0
   60.0060   29.8500  112.1140 C   0  0  0  0  0  0  0  0  0  0  0  0
   58.6228   29.6869  111.8587 C   0  0  0  0  0  0  0  0  0  0  0  0
   57.7275   30.0457  112.7940 F   0  0  0  0  0  0  0  0  0  0  0  0
   58.0618   29.1986  110.7234 N   0  0  0  0  0  0  0  0  0  0  0  0
   58.9053   28.8355  109.7417 C   0  0  0  0  0  0  0  0  0  0  0  0
   58.1157   28.1616  108.1485 Br  0  0  0  0  0  0  0  0  0  0  0  0
   60.5458   30.3796  113.2934 N   0  0  0  0  0  0  0  0  0  0  0  0
   61.5521   31.4502  113.2755 C   0  0  0  0  0  0  0  0  0  0  0  0
   62.9606   30.9398  112.9802 C   0  0  0  0  0  0  0  0  0  0  0  0
   63.4772   29.8937  113.9719 C   0  0  0  0  0  0  0  0  0  0  0  0
   62.8702   28.5854  113.7616 N   0  0  0  0  0  0  0  0  0  0  0  0
   61.5844   28.3841  114.4504 C   0  0  0  0  0  0  0  0  0  0  0  0
   60.5851   29.5630  114.5239 C   0  0  0  0  0  0  0  0  0  0  0  0
   63.5229   27.8755  114.0940 H   0  0  0  0  0  0  0  0  0  0  0  0
   61.1258   28.5776  108.8401 O   0  0  0  0  0  0  0  0  0  0  0  0
   62.0819   26.7412  107.6529 C   0  0  0  0  0  0  0  0  0  0  0  0
   61.5780   27.2266  108.9994 C   0  0  0  0  0  0  0  0  0  0  0  0
 18 19  1  0
 19 17  1  0
 17  1  1  0
  1  2  2  0
  2  3  1  0
  3  9  1  0
  9 10  1  0
 10 11  1  0
 11 12  1  0
 12 13  1  0
 13 14  1  0
 14 15  1  0
  3  4  2  0
  4  5  1  0
  4  6  1  0
  6  7  2  0
  7  8  1  0
  7  1  1  0
 15  9  1  0
 13 16  1  0
M  END
> <minimizedAffinity>
-4.14292

> <CNNscore>
0.4279059172

> <CNNaffinity>
4.1432328224

> <CNN_VS>
1.7729138136

> <CNNaffinity_variance>
0.8039336205

$$$$



 19 20  0  0  0  0  0  0  0  0999 V2000
   61.6425   28.8019  105.7568 C   0  0  0  0  0  0  0  0  0  0  0  0
   61.8300   30.0412  105.1359 C   0  0  0  0  0  0  0  0  0  0  0  0
   62.5232   31.0871  105.7669 C   0  0  0  0  0  0  0  0  0  0  0  0
   62.9519   30.7673  107.0780 C   0  0  0  0  0  0  0  0  0  0  0  0
   63.6033   31.6886  107.8075 F   0  0  0  0  0  0  0  0  0  0  0  0
   62.7661   29.5888  107.7251 N   0  0  0  0  0  0  0  0  0  0  0  0
   62.1062   28.6295  107.0533 C   0  0  0  0  0  0  0  0  0  0  0  0
   61.8383   26.9832  107.9666 Br  0  0  0  0  0  0  0  0  0  0  0  0
   62.7157   32.3257  105.1410 N   0  0  0  0  0  0  0  0  0  0  0  0
   61.7381   32.8777  104.1930 C   0  0  0  0  0  0  0  0  0  0  0  0
   61.8516   32.2691  102.7972 C   0  0  0  0  0  0  0  0  0  0  0  0
   63.2225   32.4452  102.1380 C   0  0  0  0  0  0  0  0  0  0  0  0
   64.2254   31.5492  102.6999 N   0  0  0  0  0  0  0  0  0  0  0  0
   64.9051   32.0604  103.9019 C   0  0  0  0  0  0  0  0  0  0  0  0
   64.0813   32.8536  104.9441 C   0  0  0  0  0  0  0  0  0  0  0  0
   64.9321   31.3757  101.9852 H   0  0  0  0  0  0  0  0  0  0  0  0
   60.9491   27.8209  105.0995 O   0  0  0  0  0  0  0  0  0  0  0  0
   59.6977   27.2094  103.1614 C   0  0  0  0  0  0  0  0  0  0  0  0
   60.2451   28.3666  103.9763 C   0  0  0  0  0  0  0  0  0  0  0  0
 18 19  1  0
 19 17  1  0
 17  1  1  0
  1  2  2  0
  2  3  1  0
  3  9  1  0
  9 10  1  0
 10 11  1  0
 11 12  1  0
 12 13  1  0
 13 14  1  0
 14 15  1  0
  3  4  2  0
  4  5  1  0
  4  6  1  0
  6  7  2  0
  7  8  1  0
  7  1  1  0
 15  9  1  0
 13 16  1  0
M  END
> <minimizedAffinity>
-4.03036

> <CNNscore>
0.3788972497

> <CNNaffinity>
4.3428153992

> <CNN_VS>
1.6454807520

> <CNNaffinity_variance>
0.7056389451

$$$$



 19 20  0  0  0  0  0  0  0  0999 V2000
   61.2359   28.6802  106.7574 C   0  0  0  0  0  0  0  0  0  0  0  0
   61.3889   29.3196  107.9921 C   0  0  0  0  0  0  0  0  0  0  0  0
   61.8251   28.6278  109.1340 C   0  0  0  0  0  0  0  0  0  0  0  0
   62.0368   27.2461  108.9080 C   0  0  0  0  0  0  0  0  0  0  0  0
   62.4284   26.4589  109.9239 F   0  0  0  0  0  0  0  0  0  0  0  0
   61.8734   26.5839  107.7346 N   0  0  0  0  0  0  0  0  0  0  0  0
   61.4672   27.3141  106.6815 C   0  0  0  0  0  0  0  0  0  0  0  0
   61.2291   26.3813  105.0416 Br  0  0  0  0  0  0  0  0  0  0  0  0
   61.9839   29.2711  110.3684 N   0  0  0  0  0  0  0  0  0  0  0  0
   61.2400   28.8526  111.5645 C   0  0  0  0  0  0  0  0  0  0  0  0
   59.8067   29.3786  111.5897 C   0  0  0  0  0  0  0  0  0  0  0  0
   59.6898   30.9043  111.5342 C   0  0  0  0  0  0  0  0  0  0  0  0
   59.9467   31.4304  110.1994 N   0  0  0  0  0  0  0  0  0  0  0  0
   61.3662   31.6785  109.8969 C   0  0  0  0  0  0  0  0  0  0  0  0
   62.4259   30.6798  110.4199 C   0  0  0  0  0  0  0  0  0  0  0  0
   59.4428   32.3120  110.1033 H   0  0  0  0  0  0  0  0  0  0  0  0
   60.7969   29.4011  105.6791 O   0  0  0  0  0  0  0  0  0  0  0  0
   59.0336   30.6932  104.7213 C   0  0  0  0  0  0  0  0  0  0  0  0
   59.3989   29.6934  105.8028 C   0  0  0  0  0  0  0  0  0  0  0  0
 18 19  1  0
 19 17  1  0
 17  1  1  0
  1  2  2  0
  2  3  1  0
  3  9  1  0
  9 10  1  0
 10 11  1  0
 11 12  1  0
 12 13  1  0
 13 14  1  0
 14 15  1  0
  3  4  2  0
  4  5  1  0
  4  6  1  0
  6  7  2  0
  7  8  1  0
  7  1  1  0
 15  9  1  0
 13 16  1  0
M  END
> <minimizedAffinity>
-4.25527

> <CNNscore>
0.3776680529

> <CNNaffinity>
4.1175041199

> <CNN_VS>
1.5550497770

> <CNNaffinity_variance>
0.8363254666

$$$$



 19 20  0  0  0  0  0  0  0  0999 V2000
   61.0918   29.2336  104.8948 C   0  0  0  0  0  0  0  0  0  0  0  0
   61.4571   29.8691  106.0861 C   0  0  0  0  0  0  0  0  0  0  0  0
   61.1478   29.3207  107.3416 C   0  0  0  0  0  0  0  0  0  0  0  0
   60.4063   28.1171  107.2625 C   0  0  0  0  0  0  0  0  0  0  0  0
   60.0184   27.5000  108.3913 F   0  0  0  0  0  0  0  0  0  0  0  0
   60.0094   27.4843  106.1293 N   0  0  0  0  0  0  0  0  0  0  0  0
   60.3536   28.0607  104.9646 C   0  0  0  0  0  0  0  0  0  0  0  0
   59.7870   27.1772  103.3789 Br  0  0  0  0  0  0  0  0  0  0  0  0
   61.5201   29.9553  108.5339 N   0  0  0  0  0  0  0  0  0  0  0  0
   62.2866   29.2607  109.5776 C   0  0  0  0  0  0  0  0  0  0  0  0
   61.4210   28.3538  110.4494 C   0  0  0  0  0  0  0  0  0  0  0  0
   60.2791   29.0720  111.1739 C   0  0  0  0  0  0  0  0  0  0  0  0
   59.1769   29.4015  110.2788 N   0  0  0  0  0  0  0  0  0  0  0  0
   59.3251   30.6793  109.5622 C   0  0  0  0  0  0  0  0  0  0  0  0
   60.7265   31.0893  109.0504 C   0  0  0  0  0  0  0  0  0  0  0  0
   58.3210   29.4451  110.8318 H   0  0  0  0  0  0  0  0  0  0  0  0
   61.4095   29.8188  103.6981 O   0  0  0  0  0  0  0  0  0  0  0  0
   61.3836   32.0564  102.8682 C   0  0  0  0  0  0  0  0  0  0  0  0
   60.5407   30.9276  103.4322 C   0  0  0  0  0  0  0  0  0  0  0  0
 18 19  1  0
 19 17  1  0
 17  1  1  0
  1  2  2  0
  2  3  1  0
  3  9  1  0
  9 10  1  0
 10 11  1  0
 11 12  1  0
 12 13  1  0
 13 14  1  0
 14 15  1  0
  3  4  2  0
  4  5  1  0
  4  6  1  0
  6  7  2  0
  7  8  1  0
  7  1  1  0
 15  9  1  0
 13 16  1  0
M  END
> <minimizedAffinity>
-4.46278

> <CNNscore>
0.3650075793

> <CNNaffinity>
4.5224947929

> <CNN_VS>
1.6507449150

> <CNNaffinity_variance>
0.1059316993

$$$$
