


 32 34  0  0  0  0  0  0  0  0999 V2000
   90.8367   95.4018  -45.0041 C   0  0  0  0  0  0  0  0  0  0  0  0
   90.9445   94.4234  -46.0092 C   0  0  0  0  0  0  0  0  0  0  0  0
   91.4975   93.1701  -45.7332 C   0  0  0  0  0  0  0  0  0  0  0  0
   91.9545   92.8739  -44.4489 C   0  0  0  0  0  0  0  0  0  0  0  0
   91.8629   93.8385  -43.4442 C   0  0  0  0  0  0  0  0  0  0  0  0
   92.5702   93.3575  -41.5360 I   0  0  0  0  0  0  0  0  0  0  0  0
   91.3117   95.0968  -43.7205 C   0  0  0  0  0  0  0  0  0  0  0  0
   91.2354   96.0655  -42.7554 O   0  0  0  0  0  0  0  0  0  0  0  0
   91.5454   95.8890  -41.8889 H   0  0  0  0  0  0  0  0  0  0  0  0
   91.5907   92.1852  -46.7654 C   0  0  0  0  0  0  0  0  0  0  0  0
   91.6473   91.3479  -47.6249 C   0  0  0  0  0  0  0  0  0  0  0  0
   91.6959   90.3137  -48.6637 C   0  0  0  0  0  0  0  0  0  0  0  0
   90.4867   89.5037  -48.6428 N   0  0  0  0  0  0  0  0  0  0  0  0
   90.2351   89.0342  -47.8148 H   0  0  0  0  0  0  0  0  0  0  0  0
   89.6759   89.3790  -49.7733 C   0  0  0  0  0  0  0  0  0  0  0  0
   89.3262   90.4479  -50.6068 C   0  0  0  0  0  0  0  0  0  0  0  0
   88.5664   90.2477  -51.7654 C   0  0  0  0  0  0  0  0  0  0  0  0
   88.1655   88.9655  -52.1267 C   0  0  0  0  0  0  0  0  0  0  0  0
   88.5368   87.8834  -51.3368 C   0  0  0  0  0  0  0  0  0  0  0  0
   89.2954   88.0909  -50.1807 C   0  0  0  0  0  0  0  0  0  0  0  0
   90.2002   96.7387  -45.3241 C   0  0  0  0  0  0  0  0  0  0  0  0
   90.8776  100.6147  -43.5408 C   0  0  0  0  0  0  0  0  0  0  0  0
   89.7839   99.6996  -42.9671 C   0  0  0  0  0  0  0  0  0  0  0  0
   89.3940   98.6198  -43.9809 C   0  0  0  0  0  0  0  0  0  0  0  0
   90.5550   97.8119  -44.3743 N   0  0  0  0  0  0  0  0  0  0  0  0
   91.6162   98.6521  -44.9482 C   0  0  0  0  0  0  0  0  0  0  0  0
   92.0681   99.7454  -43.9780 C   0  0  0  0  0  0  0  0  0  0  0  0
   91.3641  101.7038  -42.6650 N   0  0  0  0  0  0  0  0  0  0  0  0
   93.6337  102.7575  -42.7420 C   0  0  0  0  0  0  0  0  0  0  0  0
   92.2264  102.6886  -43.3278 C   0  0  0  0  0  0  0  0  0  0  0  0
   91.8370  101.2397  -41.3551 C   0  0  0  0  0  0  0  0  0  0  0  0
   91.2119  101.8970  -40.1309 C   0  0  0  0  0  0  0  0  0  0  0  0
 29 30  1  0
 30 28  1  0
 28 31  1  0
 31 32  1  0
 28 22  1  0
 22 23  1  0
 23 24  1  0
 24 25  1  0
 25 21  1  0
 21  1  1  0
  1  2  2  0
  2  3  1  0
  3 10  1  0
 10 11  3  0
 11 12  1  0
 12 13  1  0
 13 15  1  0
 15 16  2  0
 16 17  1  0
 17 18  2  0
 18 19  1  0
 19 20  2  0
  3  4  2  0
  4  5  1  0
  5  6  1  0
  5  7  2  0
  7  8  1  0
 25 26  1  0
 26 27  1  0
 27 22  1  0
  7  1  1  0
 20 15  1  0
 13 14  1  0
  8  9  1  0
M  END
> <minimizedAffinity>
-7.39036

> <CNNscore>
0.9430537224

> <CNNaffinity>
5.9725265503

> <CNN_VS>
5.6324133873

> <CNNaffinity_variance>
0.7488505840

$$$$



 32 34  0  0  0  0  0  0  0  0999 V2000
   90.8392   95.5024  -44.9388 C   0  0  0  0  0  0  0  0  0  0  0  0
   90.9104   94.5615  -45.9823 C   0  0  0  0  0  0  0  0  0  0  0  0
   91.4299   93.2833  -45.7608 C   0  0  0  0  0  0  0  0  0  0  0  0
   91.8896   92.9244  -44.4936 C   0  0  0  0  0  0  0  0  0  0  0  0
   91.8343   93.8510  -43.4513 C   0  0  0  0  0  0  0  0  0  0  0  0
   92.5443   93.2759  -41.5703 I   0  0  0  0  0  0  0  0  0  0  0  0
   91.3166   95.1341  -43.6729 C   0  0  0  0  0  0  0  0  0  0  0  0
   91.2763   96.0660  -42.6701 O   0  0  0  0  0  0  0  0  0  0  0  0
   91.5888   95.8471  -41.8143 H   0  0  0  0  0  0  0  0  0  0  0  0
   91.4860   92.3375  -46.8314 C   0  0  0  0  0  0  0  0  0  0  0  0
   91.5566   91.5502  -47.7360 C   0  0  0  0  0  0  0  0  0  0  0  0
   91.6655   90.5994  -48.8474 C   0  0  0  0  0  0  0  0  0  0  0  0
   91.2115   91.2046  -50.0910 N   0  0  0  0  0  0  0  0  0  0  0  0
   91.8640   91.3849  -50.8058 H   0  0  0  0  0  0  0  0  0  0  0  0
   89.8692   91.5348  -50.2909 C   0  0  0  0  0  0  0  0  0  0  0  0
   88.8099   90.6339  -50.1302 C   0  0  0  0  0  0  0  0  0  0  0  0
   87.4792   91.0430  -50.2778 C   0  0  0  0  0  0  0  0  0  0  0  0
   87.1829   92.3721  -50.5621 C   0  0  0  0  0  0  0  0  0  0  0  0
   88.2167   93.2935  -50.6845 C   0  0  0  0  0  0  0  0  0  0  0  0
   89.5434   92.8778  -50.5361 C   0  0  0  0  0  0  0  0  0  0  0  0
   90.2382   96.8681  -45.2003 C   0  0  0  0  0  0  0  0  0  0  0  0
   91.1655  100.7011  -43.4365 C   0  0  0  0  0  0  0  0  0  0  0  0
   90.1500   99.7769  -42.7453 C   0  0  0  0  0  0  0  0  0  0  0  0
   89.6250   98.7214  -43.7230 C   0  0  0  0  0  0  0  0  0  0  0  0
   90.7201   97.9187  -44.2817 N   0  0  0  0  0  0  0  0  0  0  0  0
   91.7027   98.7681  -44.9703 C   0  0  0  0  0  0  0  0  0  0  0  0
   92.2836   99.8379  -44.0437 C   0  0  0  0  0  0  0  0  0  0  0  0
   91.7684  101.7688  -42.6079 N   0  0  0  0  0  0  0  0  0  0  0  0
   92.9602  103.6885  -43.6856 C   0  0  0  0  0  0  0  0  0  0  0  0
   93.0511  102.2816  -43.1020 C   0  0  0  0  0  0  0  0  0  0  0  0
   91.7177  101.4954  -41.1666 C   0  0  0  0  0  0  0  0  0  0  0  0
   90.9642  102.5024  -40.3064 C   0  0  0  0  0  0  0  0  0  0  0  0
 29 30  1  0
 30 28  1  0
 28 31  1  0
 31 32  1  0
 28 22  1  0
 22 23  1  0
 23 24  1  0
 24 25  1  0
 25 21  1  0
 21  1  1  0
  1  2  2  0
  2  3  1  0
  3 10  1  0
 10 11  3  0
 11 12  1  0
 12 13  1  0
 13 15  1  0
 15 16  2  0
 16 17  1  0
 17 18  2  0
 18 19  1  0
 19 20  2  0
  3  4  2  0
  4  5  1  0
  5  6  1  0
  5  7  2  0
  7  8  1  0
 25 26  1  0
 26 27  1  0
 27 22  1  0
  7  1  1  0
 20 15  1  0
 13 14  1  0
  8  9  1  0
M  END
> <minimizedAffinity>
-7.07597

> <CNNscore>
0.9236419797

> <CNNaffinity>
5.7965545654

> <CNN_VS>
5.3539409637

> <CNNaffinity_variance>
1.0925025940

$$$$



 32 34  0  0  0  0  0  0  0  0999 V2000
   90.8047   95.7112  -45.1232 C   0  0  0  0  0  0  0  0  0  0  0  0
   90.9148   94.6703  -46.0633 C   0  0  0  0  0  0  0  0  0  0  0  0
   91.4103   93.4178  -45.6912 C   0  0  0  0  0  0  0  0  0  0  0  0
   91.8067   93.1847  -44.3742 C   0  0  0  0  0  0  0  0  0  0  0  0
   91.7123   94.2111  -43.4331 C   0  0  0  0  0  0  0  0  0  0  0  0
   92.3280   93.8229  -41.4727 I   0  0  0  0  0  0  0  0  0  0  0  0
   91.2188   95.4686  -43.8057 C   0  0  0  0  0  0  0  0  0  0  0  0
   91.1414   96.4962  -42.9036 O   0  0  0  0  0  0  0  0  0  0  0  0
   91.4113   96.3622  -42.0164 H   0  0  0  0  0  0  0  0  0  0  0  0
   91.5066   92.3694  -46.6585 C   0  0  0  0  0  0  0  0  0  0  0  0
   91.5833   91.5052  -47.4894 C   0  0  0  0  0  0  0  0  0  0  0  0
   91.6693   90.4672  -48.5219 C   0  0  0  0  0  0  0  0  0  0  0  0
   90.4571   89.6617  -48.5464 N   0  0  0  0  0  0  0  0  0  0  0  0
   90.1280   89.2602  -47.7099 H   0  0  0  0  0  0  0  0  0  0  0  0
   89.7512   89.4468  -49.7324 C   0  0  0  0  0  0  0  0  0  0  0  0
   89.2663   88.1981  -50.1386 C   0  0  0  0  0  0  0  0  0  0  0  0
   88.5052   88.0584  -51.3052 C   0  0  0  0  0  0  0  0  0  0  0  0
   88.1910   89.1746  -52.0738 C   0  0  0  0  0  0  0  0  0  0  0  0
   88.6261   90.4308  -51.6675 C   0  0  0  0  0  0  0  0  0  0  0  0
   89.3862   90.5628  -50.5013 C   0  0  0  0  0  0  0  0  0  0  0  0
   90.2306   97.0473  -45.5475 C   0  0  0  0  0  0  0  0  0  0  0  0
   86.3042   98.7491  -44.9558 C   0  0  0  0  0  0  0  0  0  0  0  0
   86.4386   97.3768  -45.6353 C   0  0  0  0  0  0  0  0  0  0  0  0
   87.8630   97.1681  -46.1580 C   0  0  0  0  0  0  0  0  0  0  0  0
   88.8507   97.2809  -45.0775 N   0  0  0  0  0  0  0  0  0  0  0  0
   88.7663   98.5912  -44.4162 C   0  0  0  0  0  0  0  0  0  0  0  0
   87.3696   98.8590  -43.8526 C   0  0  0  0  0  0  0  0  0  0  0  0
   84.9792   99.0873  -44.3904 N   0  0  0  0  0  0  0  0  0  0  0  0
   83.6061  100.5556  -42.8984 C   0  0  0  0  0  0  0  0  0  0  0  0
   84.9494  100.3093  -43.5790 C   0  0  0  0  0  0  0  0  0  0  0  0
   84.2736   97.9364  -43.8138 C   0  0  0  0  0  0  0  0  0  0  0  0
   83.0780   97.4064  -44.5955 C   0  0  0  0  0  0  0  0  0  0  0  0
 29 30  1  0
 30 28  1  0
 28 31  1  0
 31 32  1  0
 28 22  1  0
 22 23  1  0
 23 24  1  0
 24 25  1  0
 25 21  1  0
 21  1  1  0
  1  2  2  0
  2  3  1  0
  3 10  1  0
 10 11  3  0
 11 12  1  0
 12 13  1  0
 13 15  1  0
 15 16  2  0
 16 17  1  0
 17 18  2  0
 18 19  1  0
 19 20  2  0
  3  4  2  0
  4  5  1  0
  5  6  1  0
  5  7  2  0
  7  8  1  0
 25 26  1  0
 26 27  1  0
 27 22  1  0
  7  1  1  0
 20 15  1  0
 13 14  1  0
  8  9  1  0
M  END
> <minimizedAffinity>
-7.19993

> <CNNscore>
0.8983307481

> <CNNaffinity>
5.3564629555

> <CNN_VS>
4.8118753433

> <CNNaffinity_variance>
1.0846639872

$$$$



 32 34  0  0  0  0  0  0  0  0999 V2000
   90.7326   95.8519  -45.0304 C   0  0  0  0  0  0  0  0  0  0  0  0
   90.8260   94.8343  -45.9975 C   0  0  0  0  0  0  0  0  0  0  0  0
   91.3402   93.5774  -45.6681 C   0  0  0  0  0  0  0  0  0  0  0  0
   91.7723   93.3166  -44.3676 C   0  0  0  0  0  0  0  0  0  0  0  0
   91.6948   94.3198  -43.4003 C   0  0  0  0  0  0  0  0  0  0  0  0
   92.3639   93.8906  -41.4662 I   0  0  0  0  0  0  0  0  0  0  0  0
   91.1824   95.5817  -43.7302 C   0  0  0  0  0  0  0  0  0  0  0  0
   91.1208   96.5872  -42.8023 O   0  0  0  0  0  0  0  0  0  0  0  0
   91.4146   96.4345  -41.9258 H   0  0  0  0  0  0  0  0  0  0  0  0
   91.4191   92.5528  -46.6621 C   0  0  0  0  0  0  0  0  0  0  0  0
   91.5100   91.6964  -47.4996 C   0  0  0  0  0  0  0  0  0  0  0  0
   91.6454   90.6581  -48.5265 C   0  0  0  0  0  0  0  0  0  0  0  0
   91.4632   91.2207  -49.8567 N   0  0  0  0  0  0  0  0  0  0  0  0
   92.2060   91.7091  -50.2795 H   0  0  0  0  0  0  0  0  0  0  0  0
   90.2560   91.0816  -50.5453 C   0  0  0  0  0  0  0  0  0  0  0  0
   89.7846   92.0000  -51.4908 C   0  0  0  0  0  0  0  0  0  0  0  0
   88.5991   91.7703  -52.1990 C   0  0  0  0  0  0  0  0  0  0  0  0
   87.8765   90.5995  -51.9932 C   0  0  0  0  0  0  0  0  0  0  0  0
   88.3474   89.6535  -51.0899 C   0  0  0  0  0  0  0  0  0  0  0  0
   89.5321   89.8899  -50.3857 C   0  0  0  0  0  0  0  0  0  0  0  0
   90.1378   97.1929  -45.4081 C   0  0  0  0  0  0  0  0  0  0  0  0
   86.3041   98.9412  -44.4545 C   0  0  0  0  0  0  0  0  0  0  0  0
   86.3606   97.5361  -45.0753 C   0  0  0  0  0  0  0  0  0  0  0  0
   87.7155   97.2947  -45.7474 C   0  0  0  0  0  0  0  0  0  0  0  0
   88.8210   97.4564  -44.7947 N   0  0  0  0  0  0  0  0  0  0  0  0
   88.8121   98.7984  -44.1946 C   0  0  0  0  0  0  0  0  0  0  0  0
   87.4893   99.1008  -43.4880 C   0  0  0  0  0  0  0  0  0  0  0  0
   85.0527   99.3136  -43.7580 N   0  0  0  0  0  0  0  0  0  0  0  0
   82.7750   98.7173  -44.6088 C   0  0  0  0  0  0  0  0  0  0  0  0
   83.9979   98.2947  -43.7999 C   0  0  0  0  0  0  0  0  0  0  0  0
   84.6090  100.6848  -44.0368 C   0  0  0  0  0  0  0  0  0  0  0  0
   84.7001  101.6796  -42.8863 C   0  0  0  0  0  0  0  0  0  0  0  0
 29 30  1  0
 30 28  1  0
 28 31  1  0
 31 32  1  0
 28 22  1  0
 22 23  1  0
 23 24  1  0
 24 25  1  0
 25 21  1  0
 21  1  1  0
  1  2  2  0
  2  3  1  0
  3 10  1  0
 10 11  3  0
 11 12  1  0
 12 13  1  0
 13 15  1  0
 15 16  2  0
 16 17  1  0
 17 18  2  0
 18 19  1  0
 19 20  2  0
  3  4  2  0
  4  5  1  0
  5  6  1  0
  5  7  2  0
  7  8  1  0
 25 26  1  0
 26 27  1  0
 27 22  1  0
  7  1  1  0
 20 15  1  0
 13 14  1  0
  8  9  1  0
M  END
> <minimizedAffinity>
-6.94924

> <CNNscore>
0.8440023661

> <CNNaffinity>
5.2201175690

> <CNN_VS>
4.4057917595

> <CNNaffinity_variance>
1.1451650858

$$$$



 32 34  0  0  0  0  0  0  0  0999 V2000
   90.7910   96.0003  -45.0276 C   0  0  0  0  0  0  0  0  0  0  0  0
   90.8772   94.9669  -45.9784 C   0  0  0  0  0  0  0  0  0  0  0  0
   91.3242   93.6939  -45.6148 C   0  0  0  0  0  0  0  0  0  0  0  0
   91.6951   93.4323  -44.2957 C   0  0  0  0  0  0  0  0  0  0  0  0
   91.6241   94.4507  -43.3439 C   0  0  0  0  0  0  0  0  0  0  0  0
   92.2004   94.0193  -41.3806 I   0  0  0  0  0  0  0  0  0  0  0  0
   91.1792   95.7287  -43.7079 C   0  0  0  0  0  0  0  0  0  0  0  0
   91.1257   96.7482  -42.7950 O   0  0  0  0  0  0  0  0  0  0  0  0
   91.3793   96.5948  -41.9061 H   0  0  0  0  0  0  0  0  0  0  0  0
   91.3967   92.6537  -46.5930 C   0  0  0  0  0  0  0  0  0  0  0  0
   91.4559   91.7970  -47.4330 C   0  0  0  0  0  0  0  0  0  0  0  0
   91.5229   90.7688  -48.4767 C   0  0  0  0  0  0  0  0  0  0  0  0
   91.6595   91.3767  -49.7923 N   0  0  0  0  0  0  0  0  0  0  0  0
   92.5401   91.7090  -50.0807 H   0  0  0  0  0  0  0  0  0  0  0  0
   90.5667   91.4981  -50.6537 C   0  0  0  0  0  0  0  0  0  0  0  0
   89.4650   90.6345  -50.6460 C   0  0  0  0  0  0  0  0  0  0  0  0
   88.3674   90.8492  -51.4881 C   0  0  0  0  0  0  0  0  0  0  0  0
   88.3406   91.9519  -52.3358 C   0  0  0  0  0  0  0  0  0  0  0  0
   89.4048   92.8464  -52.3303 C   0  0  0  0  0  0  0  0  0  0  0  0
   90.4979   92.6254  -51.4868 C   0  0  0  0  0  0  0  0  0  0  0  0
   90.2690   97.3603  -45.4435 C   0  0  0  0  0  0  0  0  0  0  0  0
   86.8711   98.2148  -47.9707 C   0  0  0  0  0  0  0  0  0  0  0  0
   88.2921   98.4110  -48.5231 C   0  0  0  0  0  0  0  0  0  0  0  0
   89.3087   98.5069  -47.3815 C   0  0  0  0  0  0  0  0  0  0  0  0
   89.2722   97.3104  -46.5314 N   0  0  0  0  0  0  0  0  0  0  0  0
   87.9309   97.1013  -45.9670 C   0  0  0  0  0  0  0  0  0  0  0  0
   86.8642   96.9785  -47.0566 C   0  0  0  0  0  0  0  0  0  0  0  0
   85.7798   98.0945  -48.9629 N   0  0  0  0  0  0  0  0  0  0  0  0
   85.9727   97.5915  -51.4077 C   0  0  0  0  0  0  0  0  0  0  0  0
   85.9829   97.0558  -49.9790 C   0  0  0  0  0  0  0  0  0  0  0  0
   85.3041   99.3855  -49.4748 C   0  0  0  0  0  0  0  0  0  0  0  0
   83.9041   99.8138  -49.0526 C   0  0  0  0  0  0  0  0  0  0  0  0
 29 30  1  0
 30 28  1  0
 28 31  1  0
 31 32  1  0
 28 22  1  0
 22 23  1  0
 23 24  1  0
 24 25  1  0
 25 21  1  0
 21  1  1  0
  1  2  2  0
  2  3  1  0
  3 10  1  0
 10 11  3  0
 11 12  1  0
 12 13  1  0
 13 15  1  0
 15 16  2  0
 16 17  1  0
 17 18  2  0
 18 19  1  0
 19 20  2  0
  3  4  2  0
  4  5  1  0
  5  6  1  0
  5  7  2  0
  7  8  1  0
 25 26  1  0
 26 27  1  0
 27 22  1  0
  7  1  1  0
 20 15  1  0
 13 14  1  0
  8  9  1  0
M  END
> <minimizedAffinity>
-5.82668

> <CNNscore>
0.7657771111

> <CNNaffinity>
5.1650905609

> <CNN_VS>
3.9553081989

> <CNNaffinity_variance>
1.0697329044

$$$$



 32 34  0  0  0  0  0  0  0  0999 V2000
   90.6734   95.6172  -44.8786 C   0  0  0  0  0  0  0  0  0  0  0  0
   90.7174   94.7007  -45.9450 C   0  0  0  0  0  0  0  0  0  0  0  0
   91.3147   93.4471  -45.7887 C   0  0  0  0  0  0  0  0  0  0  0  0
   91.8805   93.0889  -44.5649 C   0  0  0  0  0  0  0  0  0  0  0  0
   91.8528   93.9919  -43.5010 C   0  0  0  0  0  0  0  0  0  0  0  0
   92.7224   93.4195  -41.6875 I   0  0  0  0  0  0  0  0  0  0  0  0
   91.2571   95.2506  -43.6576 C   0  0  0  0  0  0  0  0  0  0  0  0
   91.2414   96.1604  -42.6340 O   0  0  0  0  0  0  0  0  0  0  0  0
   91.6243   95.9421  -41.8071 H   0  0  0  0  0  0  0  0  0  0  0  0
   91.3421   92.5254  -46.8812 C   0  0  0  0  0  0  0  0  0  0  0  0
   91.3892   91.7459  -47.7941 C   0  0  0  0  0  0  0  0  0  0  0  0
   91.4722   90.7921  -48.9051 C   0  0  0  0  0  0  0  0  0  0  0  0
   90.1433   90.3739  -49.3271 N   0  0  0  0  0  0  0  0  0  0  0  0
   89.5536   91.0223  -49.7754 H   0  0  0  0  0  0  0  0  0  0  0  0
   89.6878   89.0717  -49.1089 C   0  0  0  0  0  0  0  0  0  0  0  0
   90.4418   87.9237  -49.3796 C   0  0  0  0  0  0  0  0  0  0  0  0
   89.9562   86.6467  -49.0746 C   0  0  0  0  0  0  0  0  0  0  0  0
   88.7146   86.4970  -48.4651 C   0  0  0  0  0  0  0  0  0  0  0  0
   87.9663   87.6250  -48.1486 C   0  0  0  0  0  0  0  0  0  0  0  0
   88.4574   88.8974  -48.4565 C   0  0  0  0  0  0  0  0  0  0  0  0
   89.9877   96.9548  -45.0672 C   0  0  0  0  0  0  0  0  0  0  0  0
   91.8854  100.7093  -46.0493 C   0  0  0  0  0  0  0  0  0  0  0  0
   92.7269   99.5713  -45.4495 C   0  0  0  0  0  0  0  0  0  0  0  0
   91.8294   98.5383  -44.7616 C   0  0  0  0  0  0  0  0  0  0  0  0
   90.8429   97.9811  -45.6955 N   0  0  0  0  0  0  0  0  0  0  0  0
   90.0037   99.0401  -46.2749 C   0  0  0  0  0  0  0  0  0  0  0  0
   90.8375  100.1010  -46.9958 C   0  0  0  0  0  0  0  0  0  0  0  0
   92.6200  101.7807  -46.7581 N   0  0  0  0  0  0  0  0  0  0  0  0
   93.3770  104.1664  -46.8084 C   0  0  0  0  0  0  0  0  0  0  0  0
   92.4513  103.1229  -46.1901 C   0  0  0  0  0  0  0  0  0  0  0  0
   92.5110  101.7021  -48.2198 C   0  0  0  0  0  0  0  0  0  0  0  0
   93.7063  101.1192  -48.9636 C   0  0  0  0  0  0  0  0  0  0  0  0
 29 30  1  0
 30 28  1  0
 28 31  1  0
 31 32  1  0
 28 22  1  0
 22 23  1  0
 23 24  1  0
 24 25  1  0
 25 21  1  0
 21  1  1  0
  1  2  2  0
  2  3  1  0
  3 10  1  0
 10 11  3  0
 11 12  1  0
 12 13  1  0
 13 15  1  0
 15 16  2  0
 16 17  1  0
 17 18  2  0
 18 19  1  0
 19 20  2  0
  3  4  2  0
  4  5  1  0
  5  6  1  0
  5  7  2  0
  7  8  1  0
 25 26  1  0
 26 27  1  0
 27 22  1  0
  7  1  1  0
 20 15  1  0
 13 14  1  0
  8  9  1  0
M  END
> <minimizedAffinity>
-6.50995

> <CNNscore>
0.7348791957

> <CNNaffinity>
5.9184184074

> <CNN_VS>
4.3493227959

> <CNNaffinity_variance>
0.6245413423

$$$$



 32 34  0  0  0  0  0  0  0  0999 V2000
   90.9225   96.3365  -45.1292 C   0  0  0  0  0  0  0  0  0  0  0  0
   91.0607   95.2187  -45.9723 C   0  0  0  0  0  0  0  0  0  0  0  0
   91.3841   93.9632  -45.4509 C   0  0  0  0  0  0  0  0  0  0  0  0
   91.5775   93.8037  -44.0786 C   0  0  0  0  0  0  0  0  0  0  0  0
   91.4534   94.9059  -43.2314 C   0  0  0  0  0  0  0  0  0  0  0  0
   91.7628   94.6254  -41.1824 I   0  0  0  0  0  0  0  0  0  0  0  0
   91.1324   96.1661  -43.7534 C   0  0  0  0  0  0  0  0  0  0  0  0
   91.0303   97.2650  -42.9424 O   0  0  0  0  0  0  0  0  0  0  0  0
   91.1656   97.1801  -42.0191 H   0  0  0  0  0  0  0  0  0  0  0  0
   91.5117   92.8369  -46.3222 C   0  0  0  0  0  0  0  0  0  0  0  0
   91.6079   91.9038  -47.0727 C   0  0  0  0  0  0  0  0  0  0  0  0
   91.7110   90.7774  -48.0062 C   0  0  0  0  0  0  0  0  0  0  0  0
   90.4037   90.1833  -48.2450 N   0  0  0  0  0  0  0  0  0  0  0  0
   89.9656   89.6762  -47.5238 H   0  0  0  0  0  0  0  0  0  0  0  0
   89.7582   90.3181  -49.4763 C   0  0  0  0  0  0  0  0  0  0  0  0
   89.7654   91.4920  -50.2388 C   0  0  0  0  0  0  0  0  0  0  0  0
   89.1575   91.5439  -51.4988 C   0  0  0  0  0  0  0  0  0  0  0  0
   88.5539   90.4096  -52.0320 C   0  0  0  0  0  0  0  0  0  0  0  0
   88.5712   89.2211  -51.3111 C   0  0  0  0  0  0  0  0  0  0  0  0
   89.1799   89.1767  -50.0530 C   0  0  0  0  0  0  0  0  0  0  0  0
   90.5362   97.6773  -45.7189 C   0  0  0  0  0  0  0  0  0  0  0  0
   86.2622   97.0494  -45.6831 C   0  0  0  0  0  0  0  0  0  0  0  0
   86.8540   98.2626  -44.9478 C   0  0  0  0  0  0  0  0  0  0  0  0
   88.3498   98.0614  -44.6870 C   0  0  0  0  0  0  0  0  0  0  0  0
   89.0850   97.8378  -45.9380 N   0  0  0  0  0  0  0  0  0  0  0  0
   88.5597   96.6701  -46.6606 C   0  0  0  0  0  0  0  0  0  0  0  0
   87.0684   96.8124  -46.9708 C   0  0  0  0  0  0  0  0  0  0  0  0
   84.8208   97.1066  -46.0132 N   0  0  0  0  0  0  0  0  0  0  0  0
   82.4958   97.7327  -45.3277 C   0  0  0  0  0  0  0  0  0  0  0  0
   83.9897   97.8028  -45.0247 C   0  0  0  0  0  0  0  0  0  0  0  0
   84.2773   95.8335  -46.5016 C   0  0  0  0  0  0  0  0  0  0  0  0
   83.8575   95.7866  -47.9655 C   0  0  0  0  0  0  0  0  0  0  0  0
 29 30  1  0
 30 28  1  0
 28 31  1  0
 31 32  1  0
 28 22  1  0
 22 23  1  0
 23 24  1  0
 24 25  1  0
 25 21  1  0
 21  1  1  0
  1  2  2  0
  2  3  1  0
  3 10  1  0
 10 11  3  0
 11 12  1  0
 12 13  1  0
 13 15  1  0
 15 16  2  0
 16 17  1  0
 17 18  2  0
 18 19  1  0
 19 20  2  0
  3  4  2  0
  4  5  1  0
  5  6  1  0
  5  7  2  0
  7  8  1  0
 25 26  1  0
 26 27  1  0
 27 22  1  0
  7  1  1  0
 20 15  1  0
 13 14  1  0
  8  9  1  0
M  END
> <minimizedAffinity>
-6.24778

> <CNNscore>
0.6040267944

> <CNNaffinity>
5.2806057930

> <CNN_VS>
3.1896274090

> <CNNaffinity_variance>
0.8154406548

$$$$



 32 34  0  0  0  0  0  0  0  0999 V2000
   90.0856   97.8264  -43.9388 C   0  0  0  0  0  0  0  0  0  0  0  0
   89.5052   97.6913  -45.2132 C   0  0  0  0  0  0  0  0  0  0  0  0
   89.6663   96.5171  -45.9534 C   0  0  0  0  0  0  0  0  0  0  0  0
   90.4123   95.4588  -45.4340 C   0  0  0  0  0  0  0  0  0  0  0  0
   91.0021   95.5826  -44.1751 C   0  0  0  0  0  0  0  0  0  0  0  0
   92.1214   93.9771  -43.4388 I   0  0  0  0  0  0  0  0  0  0  0  0
   90.8440   96.7609  -43.4333 C   0  0  0  0  0  0  0  0  0  0  0  0
   91.4349   96.9119  -42.2070 O   0  0  0  0  0  0  0  0  0  0  0  0
   91.9474   96.2160  -41.8450 H   0  0  0  0  0  0  0  0  0  0  0  0
   89.0617   96.3947  -47.2431 C   0  0  0  0  0  0  0  0  0  0  0  0
   88.5315   96.2875  -48.3158 C   0  0  0  0  0  0  0  0  0  0  0  0
   87.8625   96.1486  -49.6136 C   0  0  0  0  0  0  0  0  0  0  0  0
   86.4180   96.0852  -49.4456 N   0  0  0  0  0  0  0  0  0  0  0  0
   85.8987   96.9212  -49.4173 H   0  0  0  0  0  0  0  0  0  0  0  0
   85.7535   94.8627  -49.3238 C   0  0  0  0  0  0  0  0  0  0  0  0
   86.0871   93.7152  -50.0527 C   0  0  0  0  0  0  0  0  0  0  0  0
   85.4280   92.4993  -49.8360 C   0  0  0  0  0  0  0  0  0  0  0  0
   84.4390   92.4030  -48.8624 C   0  0  0  0  0  0  0  0  0  0  0  0
   84.1201   93.5189  -48.0970 C   0  0  0  0  0  0  0  0  0  0  0  0
   84.7823   94.7302  -48.3193 C   0  0  0  0  0  0  0  0  0  0  0  0
   89.8639   99.0973  -43.1447 C   0  0  0  0  0  0  0  0  0  0  0  0
   92.6481  102.3820  -42.7962 C   0  0  0  0  0  0  0  0  0  0  0  0
   92.2875  101.5613  -41.5475 C   0  0  0  0  0  0  0  0  0  0  0  0
   90.9881  100.7811  -41.7685 C   0  0  0  0  0  0  0  0  0  0  0  0
   91.0912   99.8895  -42.9305 N   0  0  0  0  0  0  0  0  0  0  0  0
   91.4152  100.6431  -44.1505 C   0  0  0  0  0  0  0  0  0  0  0  0
   92.7162  101.4349  -44.0055 C   0  0  0  0  0  0  0  0  0  0  0  0
   93.8909  103.1829  -42.7327 N   0  0  0  0  0  0  0  0  0  0  0  0
   94.5806  104.4324  -40.6759 C   0  0  0  0  0  0  0  0  0  0  0  0
   94.6008  103.1178  -41.4504 C   0  0  0  0  0  0  0  0  0  0  0  0
   93.7547  104.5280  -43.3045 C   0  0  0  0  0  0  0  0  0  0  0  0
   94.6729  104.8704  -44.4713 C   0  0  0  0  0  0  0  0  0  0  0  0
 29 30  1  0
 30 28  1  0
 28 31  1  0
 31 32  1  0
 28 22  1  0
 22 23  1  0
 23 24  1  0
 24 25  1  0
 25 21  1  0
 21  1  1  0
  1  2  2  0
  2  3  1  0
  3 10  1  0
 10 11  3  0
 11 12  1  0
 12 13  1  0
 13 15  1  0
 15 16  2  0
 16 17  1  0
 17 18  2  0
 18 19  1  0
 19 20  2  0
  3  4  2  0
  4  5  1  0
  5  6  1  0
  5  7  2  0
  7  8  1  0
 25 26  1  0
 26 27  1  0
 27 22  1  0
  7  1  1  0
 20 15  1  0
 13 14  1  0
  8  9  1  0
M  END
> <minimizedAffinity>
-4.72675

> <CNNscore>
0.3345768750

> <CNNaffinity>
4.8507499695

> <CNN_VS>
1.6229487658

> <CNNaffinity_variance>
0.4638689756

$$$$



 32 34  0  0  0  0  0  0  0  0999 V2000
   83.1122   89.3743  -45.8752 C   0  0  0  0  0  0  0  0  0  0  0  0
   83.5594   88.7933  -44.6745 C   0  0  0  0  0  0  0  0  0  0  0  0
   82.6898   88.0535  -43.8687 C   0  0  0  0  0  0  0  0  0  0  0  0
   81.3579   87.8839  -44.2476 C   0  0  0  0  0  0  0  0  0  0  0  0
   80.8980   88.4630  -45.4313 C   0  0  0  0  0  0  0  0  0  0  0  0
   78.8918   88.1939  -45.9563 I   0  0  0  0  0  0  0  0  0  0  0  0
   81.7682   89.2078  -46.2385 C   0  0  0  0  0  0  0  0  0  0  0  0
   81.3309   89.8048  -47.3910 O   0  0  0  0  0  0  0  0  0  0  0  0
   80.4377   89.7102  -47.6578 H   0  0  0  0  0  0  0  0  0  0  0  0
   83.1644   87.4630  -42.6563 C   0  0  0  0  0  0  0  0  0  0  0  0
   83.5668   86.9453  -41.6497 C   0  0  0  0  0  0  0  0  0  0  0  0
   84.0583   86.2902  -40.4331 C   0  0  0  0  0  0  0  0  0  0  0  0
   85.1770   87.0283  -39.8652 N   0  0  0  0  0  0  0  0  0  0  0  0
   85.2242   88.0037  -39.9900 H   0  0  0  0  0  0  0  0  0  0  0  0
   86.1850   86.3810  -39.1469 C   0  0  0  0  0  0  0  0  0  0  0  0
   87.5528   86.5560  -39.3877 C   0  0  0  0  0  0  0  0  0  0  0  0
   88.5173   85.9318  -38.5878 C   0  0  0  0  0  0  0  0  0  0  0  0
   88.1287   85.1411  -37.5112 C   0  0  0  0  0  0  0  0  0  0  0  0
   86.7766   84.9869  -37.2272 C   0  0  0  0  0  0  0  0  0  0  0  0
   85.8187   85.6130  -38.0307 C   0  0  0  0  0  0  0  0  0  0  0  0
   84.0867   90.1406  -46.7459 C   0  0  0  0  0  0  0  0  0  0  0  0
   83.9612   94.4240  -47.2926 C   0  0  0  0  0  0  0  0  0  0  0  0
   83.9169   93.5035  -48.5229 C   0  0  0  0  0  0  0  0  0  0  0  0
   84.4257   92.1026  -48.1701 C   0  0  0  0  0  0  0  0  0  0  0  0
   83.6405   91.5073  -47.0817 N   0  0  0  0  0  0  0  0  0  0  0  0
   83.6765   92.3512  -45.8784 C   0  0  0  0  0  0  0  0  0  0  0  0
   83.1629   93.7653  -46.1555 C   0  0  0  0  0  0  0  0  0  0  0  0
   83.4872   95.8132  -47.4808 N   0  0  0  0  0  0  0  0  0  0  0  0
   82.5678   97.0233  -49.4702 C   0  0  0  0  0  0  0  0  0  0  0  0
   83.7825   96.3919  -48.7963 C   0  0  0  0  0  0  0  0  0  0  0  0
   83.7625   96.6898  -46.3360 C   0  0  0  0  0  0  0  0  0  0  0  0
   82.5629   97.3842  -45.7033 C   0  0  0  0  0  0  0  0  0  0  0  0
 29 30  1  0
 30 28  1  0
 28 31  1  0
 31 32  1  0
 28 22  1  0
 22 23  1  0
 23 24  1  0
 24 25  1  0
 25 21  1  0
 21  1  1  0
  1  2  2  0
  2  3  1  0
  3 10  1  0
 10 11  3  0
 11 12  1  0
 12 13  1  0
 13 15  1  0
 15 16  2  0
 16 17  1  0
 17 18  2  0
 18 19  1  0
 19 20  2  0
  3  4  2  0
  4  5  1  0
  5  6  1  0
  5  7  2  0
  7  8  1  0
 25 26  1  0
 26 27  1  0
 27 22  1  0
  7  1  1  0
 20 15  1  0
 13 14  1  0
  8  9  1  0
M  END
> <minimizedAffinity>
-4.55091

> <CNNscore>
0.3042545617

> <CNNaffinity>
5.2350974083

> <CNN_VS>
1.5928022861

> <CNNaffinity_variance>
0.1057303920

$$$$
