


 21 22  0  0  0  0  0  0  0  0999 V2000
   -7.8202   33.9154    1.1103 C   0  0  0  0  0  0  0  0  0  0  0  0
   -7.5775   32.6259    1.8805 C   0  0  0  0  0  0  0  0  0  0  0  0
   -8.2774   31.5977    0.9846 C   0  0  0  0  0  0  0  0  0  0  0  0
   -9.6305   31.4338    1.4082 O   0  0  0  0  0  0  0  0  0  0  0  0
   -8.2023   32.1852   -0.4431 C   0  0  0  0  0  0  0  0  0  0  0  0
   -7.6201   33.5203   -0.2880 N   0  0  0  0  0  0  0  0  0  0  0  0
   -6.3125   33.6407   -0.7937 C   0  0  0  0  0  0  0  0  0  0  0  0
   -5.3335   33.8284   -0.0726 O   0  0  0  0  0  0  0  0  0  0  0  0
  -10.0833   32.2912    1.3831 H   0  0  0  0  0  0  0  0  0  0  0  0
   -5.5686   36.3076    3.0755 C   0  0  0  0  0  0  0  0  0  0  0  0
   -6.2990   35.1425    2.6388 N   0  0  0  0  0  0  0  0  0  0  0  0
   -7.1478   35.2348    1.5530 C   0  0  0  0  0  0  0  0  0  0  0  0
   -7.4304   36.3101    1.0228 O   0  0  0  0  0  0  0  0  0  0  0  0
   -6.1930   34.2859    3.1124 H   0  0  0  0  0  0  0  0  0  0  0  0
   -6.2089   33.5550   -2.3090 C   0  0  0  0  0  0  0  0  0  0  0  0
   -7.2456   34.4065   -2.9306 C   0  0  0  0  0  0  0  0  0  0  0  0
   -8.3973   34.1575   -3.6370 C   0  0  0  0  0  0  0  0  0  0  0  0
   -8.9109   35.4392   -3.9305 C   0  0  0  0  0  0  0  0  0  0  0  0
  -10.1420   35.7888   -4.6723 C   0  0  0  0  0  0  0  0  0  0  0  0
   -8.1234   36.4024   -3.4368 N   0  0  0  0  0  0  0  0  0  0  0  0
   -7.0740   35.7507   -2.8178 O   0  0  0  0  0  0  0  0  0  0  0  0
 10 11  1  0
 11 12  1  0
 12 13  2  0
  1 12  1  0
  1  2  1  0
  2  3  1  0
  3  4  1  0
  3  5  1  0
  5  6  1  0
  6  7  1  0
  7  8  2  0
  7 15  1  0
 15 16  1  0
 16 17  2  0
 17 18  1  0
 18 19  1  0
 18 20  2  0
 20 21  1  0
  6  1  1  0
 21 16  1  0
 11 14  1  0
  4  9  1  0
M  END
> <minimizedAffinity>
-6.20643

> <CNNscore>
0.9133300781

> <CNNaffinity>
4.9811501503

> <CNN_VS>
4.5494341850

> <CNNaffinity_variance>
0.1261806935

$$$$



 21 22  0  0  0  0  0  0  0  0999 V2000
   -9.2302   36.0816   -5.7783 C   0  0  0  0  0  0  0  0  0  0  0  0
  -10.1733   36.4968   -4.6588 C   0  0  0  0  0  0  0  0  0  0  0  0
  -10.7733   35.1474   -4.2476 C   0  0  0  0  0  0  0  0  0  0  0  0
  -11.9731   34.9111   -4.9837 O   0  0  0  0  0  0  0  0  0  0  0  0
   -9.6888   34.1002   -4.5883 C   0  0  0  0  0  0  0  0  0  0  0  0
   -8.6290   34.8418   -5.2757 N   0  0  0  0  0  0  0  0  0  0  0  0
   -7.4434   34.9761   -4.5298 C   0  0  0  0  0  0  0  0  0  0  0  0
   -7.0437   36.0583   -4.1023 O   0  0  0  0  0  0  0  0  0  0  0  0
  -11.7799   34.9375   -5.9340 H   0  0  0  0  0  0  0  0  0  0  0  0
   -7.2176   39.3063   -6.2317 C   0  0  0  0  0  0  0  0  0  0  0  0
   -8.1547   38.3174   -5.7565 N   0  0  0  0  0  0  0  0  0  0  0  0
   -8.2613   37.1059   -6.4114 C   0  0  0  0  0  0  0  0  0  0  0  0
   -7.6970   36.8804   -7.4828 O   0  0  0  0  0  0  0  0  0  0  0  0
   -8.7154   38.5053   -4.9694 H   0  0  0  0  0  0  0  0  0  0  0  0
   -6.6748   33.6798   -4.3229 C   0  0  0  0  0  0  0  0  0  0  0  0
   -6.8117   33.2351   -2.9194 C   0  0  0  0  0  0  0  0  0  0  0  0
   -7.8762   33.0323   -2.0749 C   0  0  0  0  0  0  0  0  0  0  0  0
   -7.2865   32.6003   -0.8673 C   0  0  0  0  0  0  0  0  0  0  0  0
   -7.9527   32.2297    0.4004 C   0  0  0  0  0  0  0  0  0  0  0  0
   -5.9531   32.5456   -0.9706 N   0  0  0  0  0  0  0  0  0  0  0  0
   -5.6578   32.9537   -2.2572 O   0  0  0  0  0  0  0  0  0  0  0  0
 10 11  1  0
 11 12  1  0
 12 13  2  0
  1 12  1  0
  1  2  1  0
  2  3  1  0
  3  4  1  0
  3  5  1  0
  5  6  1  0
  6  7  1  0
  7  8  2  0
  7 15  1  0
 15 16  1  0
 16 17  2  0
 17 18  1  0
 18 19  1  0
 18 20  2  0
 20 21  1  0
  6  1  1  0
 21 16  1  0
 11 14  1  0
  4  9  1  0
M  END
> <minimizedAffinity>
-4.98555

> <CNNscore>
0.4761973619

> <CNNaffinity>
4.2047638893

> <CNN_VS>
2.0022974014

> <CNNaffinity_variance>
0.2352275848

$$$$



 21 22  0  0  0  0  0  0  0  0999 V2000
   -5.5666   37.0941    8.2506 C   0  0  0  0  0  0  0  0  0  0  0  0
   -5.1230   38.4369    8.8121 C   0  0  0  0  0  0  0  0  0  0  0  0
   -4.6313   38.0377   10.2080 C   0  0  0  0  0  0  0  0  0  0  0  0
   -5.7010   38.1548   11.1457 O   0  0  0  0  0  0  0  0  0  0  0  0
   -4.1628   36.5713   10.0694 C   0  0  0  0  0  0  0  0  0  0  0  0
   -4.5216   36.1717    8.7067 N   0  0  0  0  0  0  0  0  0  0  0  0
   -3.4198   35.9971    7.8488 C   0  0  0  0  0  0  0  0  0  0  0  0
   -3.1980   36.7352    6.8899 O   0  0  0  0  0  0  0  0  0  0  0  0
   -6.4435   37.5998   10.8601 H   0  0  0  0  0  0  0  0  0  0  0  0
   -6.0272   37.9918    4.5578 C   0  0  0  0  0  0  0  0  0  0  0  0
   -5.7280   38.0532    5.9679 N   0  0  0  0  0  0  0  0  0  0  0  0
   -5.9991   36.9636    6.7725 C   0  0  0  0  0  0  0  0  0  0  0  0
   -6.6284   35.9838    6.3707 O   0  0  0  0  0  0  0  0  0  0  0  0
   -5.3326   38.8676    6.3548 H   0  0  0  0  0  0  0  0  0  0  0  0
   -2.5418   34.8000    8.1809 C   0  0  0  0  0  0  0  0  0  0  0  0
   -3.3671   33.5745    8.2388 C   0  0  0  0  0  0  0  0  0  0  0  0
   -4.3192   33.0174    7.4200 C   0  0  0  0  0  0  0  0  0  0  0  0
   -4.6996   31.8310    8.0836 C   0  0  0  0  0  0  0  0  0  0  0  0
   -5.6941   30.8202    7.6625 C   0  0  0  0  0  0  0  0  0  0  0  0
   -4.0249   31.6782    9.2295 N   0  0  0  0  0  0  0  0  0  0  0  0
   -3.1959   32.7792    9.3284 O   0  0  0  0  0  0  0  0  0  0  0  0
 10 11  1  0
 11 12  1  0
 12 13  2  0
  1 12  1  0
  1  2  1  0
  2  3  1  0
  3  4  1  0
  3  5  1  0
  5  6  1  0
  6  7  1  0
  7  8  2  0
  7 15  1  0
 15 16  1  0
 16 17  2  0
 17 18  1  0
 18 19  1  0
 18 20  2  0
 20 21  1  0
  6  1  1  0
 21 16  1  0
 11 14  1  0
  4  9  1  0
M  END
> <minimizedAffinity>
-5.56761

> <CNNscore>
0.4693795741

> <CNNaffinity>
3.7767074108

> <CNN_VS>
1.7727093697

> <CNNaffinity_variance>
0.5481274724

$$$$



 21 22  0  0  0  0  0  0  0  0999 V2000
   -6.9945   35.3230   -5.1202 C   0  0  0  0  0  0  0  0  0  0  0  0
   -6.9364   34.5685   -6.4402 C   0  0  0  0  0  0  0  0  0  0  0  0
   -5.4394   34.2574   -6.5496 C   0  0  0  0  0  0  0  0  0  0  0  0
   -4.7843   35.2981   -7.2741 O   0  0  0  0  0  0  0  0  0  0  0  0
   -4.9328   34.1824   -5.0913 C   0  0  0  0  0  0  0  0  0  0  0  0
   -6.0724   34.5751   -4.2591 N   0  0  0  0  0  0  0  0  0  0  0  0
   -6.6279   33.5218   -3.5092 C   0  0  0  0  0  0  0  0  0  0  0  0
   -7.7544   33.0748   -3.7206 O   0  0  0  0  0  0  0  0  0  0  0  0
   -4.9377   36.1470   -6.8305 H   0  0  0  0  0  0  0  0  0  0  0  0
  -10.7737   35.3873   -4.5141 C   0  0  0  0  0  0  0  0  0  0  0  0
   -9.4687   35.1420   -5.0783 N   0  0  0  0  0  0  0  0  0  0  0  0
   -8.3535   35.7117   -4.4952 C   0  0  0  0  0  0  0  0  0  0  0  0
   -8.4316   36.5493   -3.5955 O   0  0  0  0  0  0  0  0  0  0  0  0
   -9.3734   34.5714   -5.8749 H   0  0  0  0  0  0  0  0  0  0  0  0
   -5.7371   33.0015   -2.3913 C   0  0  0  0  0  0  0  0  0  0  0  0
   -6.4930   32.9734   -1.1208 C   0  0  0  0  0  0  0  0  0  0  0  0
   -7.6833   32.4148   -0.7228 C   0  0  0  0  0  0  0  0  0  0  0  0
   -7.8028   32.7787    0.6359 C   0  0  0  0  0  0  0  0  0  0  0  0
   -8.8902   32.4504    1.5835 C   0  0  0  0  0  0  0  0  0  0  0  0
   -6.7559   33.5104    1.0362 N   0  0  0  0  0  0  0  0  0  0  0  0
   -5.9401   33.6386   -0.0716 O   0  0  0  0  0  0  0  0  0  0  0  0
 10 11  1  0
 11 12  1  0
 12 13  2  0
  1 12  1  0
  1  2  1  0
  2  3  1  0
  3  4  1  0
  3  5  1  0
  5  6  1  0
  6  7  1  0
  7  8  2  0
  7 15  1  0
 15 16  1  0
 16 17  2  0
 17 18  1  0
 18 19  1  0
 18 20  2  0
 20 21  1  0
  6  1  1  0
 21 16  1  0
 11 14  1  0
  4  9  1  0
M  END
> <minimizedAffinity>
-5.11876

> <CNNscore>
0.3983318508

> <CNNaffinity>
3.8296291828

> <CNN_VS>
1.5254632235

> <CNNaffinity_variance>
0.6957816482

$$$$



 21 22  0  0  0  0  0  0  0  0999 V2000
   -6.6965   32.8010   -0.4918 C   0  0  0  0  0  0  0  0  0  0  0  0
   -8.1367   32.5798   -0.9297 C   0  0  0  0  0  0  0  0  0  0  0  0
   -8.8628   32.5299    0.4194 C   0  0  0  0  0  0  0  0  0  0  0  0
   -8.9388   31.1790    0.8740 O   0  0  0  0  0  0  0  0  0  0  0  0
   -8.0088   33.3968    1.3723 C   0  0  0  0  0  0  0  0  0  0  0  0
   -6.8180   33.7678    0.6044 N   0  0  0  0  0  0  0  0  0  0  0  0
   -6.7616   35.1287    0.2508 C   0  0  0  0  0  0  0  0  0  0  0  0
   -6.8505   35.5195   -0.9124 O   0  0  0  0  0  0  0  0  0  0  0  0
   -8.0445   30.8092    0.9397 H   0  0  0  0  0  0  0  0  0  0  0  0
   -3.2376   33.6056   -1.9212 C   0  0  0  0  0  0  0  0  0  0  0  0
   -4.3485   33.4015   -1.0235 N   0  0  0  0  0  0  0  0  0  0  0  0
   -5.5913   33.0825   -1.5350 C   0  0  0  0  0  0  0  0  0  0  0  0
   -5.8377   33.1094   -2.7416 O   0  0  0  0  0  0  0  0  0  0  0  0
   -4.2214   33.4892   -0.0512 H   0  0  0  0  0  0  0  0  0  0  0  0
   -6.5467   36.0785    1.4194 C   0  0  0  0  0  0  0  0  0  0  0  0
   -5.3916   35.6278    2.2250 C   0  0  0  0  0  0  0  0  0  0  0  0
   -4.0527   35.4531    1.9716 C   0  0  0  0  0  0  0  0  0  0  0  0
   -3.5217   34.9981    3.1978 C   0  0  0  0  0  0  0  0  0  0  0  0
   -2.1210   34.6481    3.5200 C   0  0  0  0  0  0  0  0  0  0  0  0
   -4.4743   34.9014    4.1332 N   0  0  0  0  0  0  0  0  0  0  0  0
   -5.6486   35.2886    3.5165 O   0  0  0  0  0  0  0  0  0  0  0  0
 10 11  1  0
 11 12  1  0
 12 13  2  0
  1 12  1  0
  1  2  1  0
  2  3  1  0
  3  4  1  0
  3  5  1  0
  5  6  1  0
  6  7  1  0
  7  8  2  0
  7 15  1  0
 15 16  1  0
 16 17  2  0
 17 18  1  0
 18 19  1  0
 18 20  2  0
 20 21  1  0
  6  1  1  0
 21 16  1  0
 11 14  1  0
  4  9  1  0
M  END
> <minimizedAffinity>
-4.39994

> <CNNscore>
0.3406689167

> <CNNaffinity>
3.9957759380

> <CNN_VS>
1.3612366915

> <CNNaffinity_variance>
0.7761541009

$$$$



 21 22  0  0  0  0  0  0  0  0999 V2000
   -5.2156   39.3849    9.1360 C   0  0  0  0  0  0  0  0  0  0  0  0
   -6.5775   39.5664    9.7896 C   0  0  0  0  0  0  0  0  0  0  0  0
   -6.7110   41.0934    9.8006 C   0  0  0  0  0  0  0  0  0  0  0  0
   -6.2053   41.6108   11.0309 O   0  0  0  0  0  0  0  0  0  0  0  0
   -5.8728   41.5828    8.5978 C   0  0  0  0  0  0  0  0  0  0  0  0
   -5.2148   40.3873    8.0654 N   0  0  0  0  0  0  0  0  0  0  0  0
   -5.7041   39.9699    6.8137 C   0  0  0  0  0  0  0  0  0  0  0  0
   -6.3238   38.9187    6.6571 O   0  0  0  0  0  0  0  0  0  0  0  0
   -5.2818   41.3356   11.1422 H   0  0  0  0  0  0  0  0  0  0  0  0
   -5.2928   35.6479    8.3095 C   0  0  0  0  0  0  0  0  0  0  0  0
   -5.6619   36.9787    8.7271 N   0  0  0  0  0  0  0  0  0  0  0  0
   -4.7064   37.9758    8.7565 C   0  0  0  0  0  0  0  0  0  0  0  0
   -3.5078   37.7498    8.5847 O   0  0  0  0  0  0  0  0  0  0  0  0
   -6.5901   37.1752    8.9898 H   0  0  0  0  0  0  0  0  0  0  0  0
   -5.3754   40.9061    5.6607 C   0  0  0  0  0  0  0  0  0  0  0  0
   -3.9776   40.6949    5.2272 C   0  0  0  0  0  0  0  0  0  0  0  0
   -2.9467   41.5285    4.8670 C   0  0  0  0  0  0  0  0  0  0  0  0
   -1.8793   40.6545    4.5678 C   0  0  0  0  0  0  0  0  0  0  0  0
   -0.5092   40.9941    4.1253 C   0  0  0  0  0  0  0  0  0  0  0  0
   -2.2380   39.3757    4.7337 N   0  0  0  0  0  0  0  0  0  0  0  0
   -3.5587   39.4043    5.1387 O   0  0  0  0  0  0  0  0  0  0  0  0
 10 11  1  0
 11 12  1  0
 12 13  2  0
  1 12  1  0
  1  2  1  0
  2  3  1  0
  3  4  1  0
  3  5  1  0
  5  6  1  0
  6  7  1  0
  7  8  2  0
  7 15  1  0
 15 16  1  0
 16 17  2  0
 17 18  1  0
 18 19  1  0
 18 20  2  0
 20 21  1  0
  6  1  1  0
 21 16  1  0
 11 14  1  0
  4  9  1  0
M  END
> <minimizedAffinity>
-4.72882

> <CNNscore>
0.2895164192

> <CNNaffinity>
3.4337673187

> <CNN_VS>
0.9941320419

> <CNNaffinity_variance>
0.2724846303

$$$$



 21 22  0  0  0  0  0  0  0  0999 V2000
   -7.8846   33.6839   -1.3137 C   0  0  0  0  0  0  0  0  0  0  0  0
   -8.2351   33.1111   -2.6790 C   0  0  0  0  0  0  0  0  0  0  0  0
   -7.8047   34.2512   -3.6090 C   0  0  0  0  0  0  0  0  0  0  0  0
   -8.9105   35.1226   -3.8440 O   0  0  0  0  0  0  0  0  0  0  0  0
   -6.6650   34.9781   -2.8596 C   0  0  0  0  0  0  0  0  0  0  0  0
   -6.5946   34.3434   -1.5414 N   0  0  0  0  0  0  0  0  0  0  0  0
   -5.4439   33.5586   -1.3410 C   0  0  0  0  0  0  0  0  0  0  0  0
   -5.4842   32.3348   -1.2208 O   0  0  0  0  0  0  0  0  0  0  0  0
   -9.2402   35.4621   -2.9973 H   0  0  0  0  0  0  0  0  0  0  0  0
   -7.5432   32.6288    2.3503 C   0  0  0  0  0  0  0  0  0  0  0  0
   -7.4236   33.3383    1.0997 N   0  0  0  0  0  0  0  0  0  0  0  0
   -7.9937   32.8111   -0.0428 C   0  0  0  0  0  0  0  0  0  0  0  0
   -8.4777   31.6790   -0.0796 O   0  0  0  0  0  0  0  0  0  0  0  0
   -6.9380   34.1938    1.0607 H   0  0  0  0  0  0  0  0  0  0  0  0
   -4.1467   34.3479   -1.2496 C   0  0  0  0  0  0  0  0  0  0  0  0
   -3.6313   34.3054    0.1355 C   0  0  0  0  0  0  0  0  0  0  0  0
   -2.3794   34.2058    0.6926 C   0  0  0  0  0  0  0  0  0  0  0  0
   -2.6140   34.2253    2.0845 C   0  0  0  0  0  0  0  0  0  0  0  0
   -1.6277   34.1505    3.1843 C   0  0  0  0  0  0  0  0  0  0  0  0
   -3.9208   34.3284    2.3550 N   0  0  0  0  0  0  0  0  0  0  0  0
   -4.5573   34.3690    1.1293 O   0  0  0  0  0  0  0  0  0  0  0  0
 10 11  1  0
 11 12  1  0
 12 13  2  0
  1 12  1  0
  1  2  1  0
  2  3  1  0
  3  4  1  0
  3  5  1  0
  5  6  1  0
  6  7  1  0
  7  8  2  0
  7 15  1  0
 15 16  1  0
 16 17  2  0
 17 18  1  0
 18 19  1  0
 18 20  2  0
 20 21  1  0
  6  1  1  0
 21 16  1  0
 11 14  1  0
  4  9  1  0
M  END
> <minimizedAffinity>
-4.69666

> <CNNscore>
0.2668446898

> <CNNaffinity>
3.7117824554

> <CNN_VS>
0.9904694557

> <CNNaffinity_variance>
0.6325162053

$$$$



 21 22  0  0  0  0  0  0  0  0999 V2000
   -5.7096   35.7512    6.3154 C   0  0  0  0  0  0  0  0  0  0  0  0
   -6.0749   36.9163    5.4076 C   0  0  0  0  0  0  0  0  0  0  0  0
   -5.3866   38.0866    6.1193 C   0  0  0  0  0  0  0  0  0  0  0  0
   -6.2972   38.6942    7.0351 O   0  0  0  0  0  0  0  0  0  0  0  0
   -4.1810   37.4608    6.8567 C   0  0  0  0  0  0  0  0  0  0  0  0
   -4.3089   36.0147    6.6616 N   0  0  0  0  0  0  0  0  0  0  0  0
   -3.3362   35.4603    5.8092 C   0  0  0  0  0  0  0  0  0  0  0  0
   -3.6076   34.9884    4.7058 O   0  0  0  0  0  0  0  0  0  0  0  0
   -6.6103   38.0297    7.6686 H   0  0  0  0  0  0  0  0  0  0  0  0
   -7.1563   32.8424    4.2905 C   0  0  0  0  0  0  0  0  0  0  0  0
   -6.8464   34.1610    4.7872 N   0  0  0  0  0  0  0  0  0  0  0  0
   -6.0545   34.3000    5.9104 C   0  0  0  0  0  0  0  0  0  0  0  0
   -5.7172   33.3409    6.6058 O   0  0  0  0  0  0  0  0  0  0  0  0
   -7.1976   34.9578    4.3278 H   0  0  0  0  0  0  0  0  0  0  0  0
   -1.9243   35.4589    6.3754 C   0  0  0  0  0  0  0  0  0  0  0  0
   -1.9408   34.9411    7.7603 C   0  0  0  0  0  0  0  0  0  0  0  0
   -1.2932   35.2840    8.9224 C   0  0  0  0  0  0  0  0  0  0  0  0
   -1.7832   34.3682    9.8784 C   0  0  0  0  0  0  0  0  0  0  0  0
   -1.4385   34.2642   11.3131 C   0  0  0  0  0  0  0  0  0  0  0  0
   -2.6681   33.5246    9.3335 N   0  0  0  0  0  0  0  0  0  0  0  0
   -2.7577   33.8811    8.0016 O   0  0  0  0  0  0  0  0  0  0  0  0
 10 11  1  0
 11 12  1  0
 12 13  2  0
  1 12  1  0
  1  2  1  0
  2  3  1  0
  3  4  1  0
  3  5  1  0
  5  6  1  0
  6  7  1  0
  7  8  2  0
  7 15  1  0
 15 16  1  0
 16 17  2  0
 17 18  1  0
 18 19  1  0
 18 20  2  0
 20 21  1  0
  6  1  1  0
 21 16  1  0
 11 14  1  0
  4  9  1  0
M  END
> <minimizedAffinity>
-4.61992

> <CNNscore>
0.2646509707

> <CNNaffinity>
3.9914920330

> <CNN_VS>
1.0563522577

> <CNNaffinity_variance>
0.2524527609

$$$$



 21 22  0  0  0  0  0  0  0  0999 V2000
   -6.1673   36.6802    6.3535 C   0  0  0  0  0  0  0  0  0  0  0  0
   -6.0812   38.1584    6.7035 C   0  0  0  0  0  0  0  0  0  0  0  0
   -5.9525   38.1047    8.2301 C   0  0  0  0  0  0  0  0  0  0  0  0
   -7.2481   38.1811    8.8241 O   0  0  0  0  0  0  0  0  0  0  0  0
   -5.2740   36.7494    8.5328 C   0  0  0  0  0  0  0  0  0  0  0  0
   -5.1796   36.0609    7.2434 N   0  0  0  0  0  0  0  0  0  0  0  0
   -3.8684   35.9486    6.7451 C   0  0  0  0  0  0  0  0  0  0  0  0
   -3.4862   36.5382    5.7352 O   0  0  0  0  0  0  0  0  0  0  0  0
   -7.8002   37.4569    8.4899 H   0  0  0  0  0  0  0  0  0  0  0  0
   -6.1764   34.3277    3.3335 C   0  0  0  0  0  0  0  0  0  0  0  0
   -6.1207   34.8522    4.6765 N   0  0  0  0  0  0  0  0  0  0  0  0
   -6.1463   36.2183    4.8787 C   0  0  0  0  0  0  0  0  0  0  0  0
   -6.0634   37.0265    3.9528 O   0  0  0  0  0  0  0  0  0  0  0  0
   -6.0647   34.2393    5.4450 H   0  0  0  0  0  0  0  0  0  0  0  0
   -2.9683   35.0112    7.5358 C   0  0  0  0  0  0  0  0  0  0  0  0
   -3.6551   33.7193    7.7492 C   0  0  0  0  0  0  0  0  0  0  0  0
   -3.6232   32.7656    8.7376 C   0  0  0  0  0  0  0  0  0  0  0  0
   -4.5373   31.7816    8.3030 C   0  0  0  0  0  0  0  0  0  0  0  0
   -4.9159   30.5183    8.9729 C   0  0  0  0  0  0  0  0  0  0  0  0
   -5.0868   32.1144    7.1287 N   0  0  0  0  0  0  0  0  0  0  0  0
   -4.5237   33.3269    6.7794 O   0  0  0  0  0  0  0  0  0  0  0  0
 10 11  1  0
 11 12  1  0
 12 13  2  0
  1 12  1  0
  1  2  1  0
  2  3  1  0
  3  4  1  0
  3  5  1  0
  5  6  1  0
  6  7  1  0
  7  8  2  0
  7 15  1  0
 15 16  1  0
 16 17  2  0
 17 18  1  0
 18 19  1  0
 18 20  2  0
 20 21  1  0
  6  1  1  0
 21 16  1  0
 11 14  1  0
  4  9  1  0
M  END
> <minimizedAffinity>
-5.07248

> <CNNscore>
0.2424736768

> <CNNaffinity>
3.6286983490

> <CNN_VS>
0.8798638582

> <CNNaffinity_variance>
0.7353124619

$$$$
