


 44 48  0  0  0  0  0  0  0  0999 V2000
   -3.0274   17.7173   13.9484 C   0  0  0  0  0  0  0  0  0  0  0  0
   -3.8069   16.6301   14.0960 C   0  0  0  0  0  0  0  0  0  0  0  0
   -4.2678   21.0438   13.6504 C   0  0  0  0  0  0  0  0  0  0  0  0
   -3.3028   20.0000   13.3675 O   0  0  0  0  0  0  0  0  0  0  0  0
   -3.2646   19.0985   14.4942 C   0  0  0  0  0  0  0  0  0  0  0  0
   -4.5582   19.3525   15.2792 C   0  0  0  0  0  0  0  0  0  0  0  0
   -4.4622   19.0133   16.6595 O   0  0  0  0  0  0  0  0  0  0  0  0
   -4.7189   20.8513   15.1016 C   0  0  0  0  0  0  0  0  0  0  0  0
   -3.8397   21.5435   16.0046 O   0  0  0  0  0  0  0  0  0  0  0  0
   -3.7350   19.5110   17.0649 H   0  0  0  0  0  0  0  0  0  0  0  0
   -2.9288   21.2409   15.8645 H   0  0  0  0  0  0  0  0  0  0  0  0
   -8.6392   21.8898    9.4096 C   0  0  0  0  0  0  0  0  0  0  0  0
   -7.5102   22.3100   10.2941 C   0  0  0  0  0  0  0  0  0  0  0  0
   -7.0875   23.6074   10.2320 N   0  0  0  0  0  0  0  0  0  0  0  0
   -6.0636   24.0002   11.0216 C   0  0  0  0  0  0  0  0  0  0  0  0
   -5.7011   25.2884   10.9267 F   0  0  0  0  0  0  0  0  0  0  0  0
   -5.3740   23.2501   11.9056 N   0  0  0  0  0  0  0  0  0  0  0  0
   -5.8181   21.9848   11.9221 C   0  0  0  0  0  0  0  0  0  0  0  0
   -6.8528   21.4444   11.1752 C   0  0  0  0  0  0  0  0  0  0  0  0
   -7.0247   20.1147   11.4752 N   0  0  0  0  0  0  0  0  0  0  0  0
   -6.0982   19.8450   12.3716 C   0  0  0  0  0  0  0  0  0  0  0  0
   -5.3546   20.9500   12.6892 N   0  0  0  0  0  0  0  0  0  0  0  0
   -3.5627   15.2407   13.5781 C   0  0  0  0  0  0  0  0  0  0  0  0
   -2.2598   14.7555   13.9440 N   0  0  0  0  0  0  0  0  0  0  0  0
   -2.1032   13.6046   14.6797 C   0  0  0  0  0  0  0  0  0  0  0  0
   -3.0470   12.9993   15.1804 O   0  0  0  0  0  0  0  0  0  0  0  0
   -1.4620   15.2585   13.6616 H   0  0  0  0  0  0  0  0  0  0  0  0
   -0.7085   13.0961   14.8564 C   0  0  0  0  0  0  0  0  0  0  0  0
   -0.5408   11.9206   15.6135 C   0  0  0  0  0  0  0  0  0  0  0  0
    0.7296   11.3569   15.8462 C   0  0  0  0  0  0  0  0  0  0  0  0
    1.8509   11.9986   15.2957 C   0  0  0  0  0  0  0  0  0  0  0  0
    1.6905   13.1584   14.5440 C   0  0  0  0  0  0  0  0  0  0  0  0
    2.7622   13.8068   13.9878 O   0  0  0  0  0  0  0  0  0  0  0  0
    0.4263   13.7080   14.3221 C   0  0  0  0  0  0  0  0  0  0  0  0
    0.3581   14.8485   13.5603 O   0  0  0  0  0  0  0  0  0  0  0  0
    3.6285   13.4719   14.1120 H   0  0  0  0  0  0  0  0  0  0  0  0
    1.1421   15.2310   13.2183 H   0  0  0  0  0  0  0  0  0  0  0  0
    0.8755   10.1262   16.6441 C   0  0  0  0  0  0  0  0  0  0  0  0
    0.1896    9.9661   17.8627 C   0  0  0  0  0  0  0  0  0  0  0  0
    0.3303    8.7999   18.6199 C   0  0  0  0  0  0  0  0  0  0  0  0
    1.1576    7.7829   18.1641 C   0  0  0  0  0  0  0  0  0  0  0  0
    1.2928    6.6659   18.8904 F   0  0  0  0  0  0  0  0  0  0  0  0
    1.8450    7.9087   16.9650 C   0  0  0  0  0  0  0  0  0  0  0  0
    1.7042    9.0756   16.2085 C   0  0  0  0  0  0  0  0  0  0  0  0
 12 13  1  0
 13 14  2  0
 14 15  1  0
 15 16  1  0
 15 17  2  0
 17 18  1  0
 18 19  2  0
 19 20  1  0
 20 21  2  0
 21 22  1  0
  3 22  1  0
  3  4  1  0
  4  5  1  0
  5  1  1  0
  1  2  2  0
  2 23  1  0
 23 24  1  0
 24 25  1  0
 25 26  2  0
 25 28  1  0
 28 29  2  0
 29 30  1  0
 30 38  1  0
 38 39  2  0
 39 40  1  0
 40 41  2  0
 41 42  1  0
 41 43  1  0
 43 44  2  0
 30 31  2  0
 31 32  1  0
 32 33  1  0
 32 34  2  0
 34 35  1  0
  5  6  1  0
  6  7  1  0
  6  8  1  0
  8  9  1  0
 19 13  1  0
  8  3  1  0
 22 18  1  0
 34 28  1  0
 44 38  1  0
 24 27  1  0
 33 36  1  0
 35 37  1  0
  7 10  1  0
  9 11  1  0
M  END
> <minimizedAffinity>
-12.03644

> <CNNscore>
0.9016323686

> <CNNaffinity>
7.5277037621

> <CNN_VS>
6.7872214317

> <CNNaffinity_variance>
0.0401055999

$$$$



 44 48  0  0  0  0  0  0  0  0999 V2000
   -4.9667   12.4698   12.3426 C   0  0  0  0  0  0  0  0  0  0  0  0
   -4.9441   13.2449   13.4427 C   0  0  0  0  0  0  0  0  0  0  0  0
   -5.7361    8.9957   12.5206 C   0  0  0  0  0  0  0  0  0  0  0  0
   -5.0159   10.1278   11.9726 O   0  0  0  0  0  0  0  0  0  0  0  0
   -5.8621   11.2936   12.0660 C   0  0  0  0  0  0  0  0  0  0  0  0
   -6.9405   10.9477   13.1011 C   0  0  0  0  0  0  0  0  0  0  0  0
   -8.1483   11.6841   12.9324 O   0  0  0  0  0  0  0  0  0  0  0  0
   -7.1618    9.4741   12.8122 C   0  0  0  0  0  0  0  0  0  0  0  0
   -7.9961    9.3280   11.6502 O   0  0  0  0  0  0  0  0  0  0  0  0
   -8.4969   11.5334   12.0398 H   0  0  0  0  0  0  0  0  0  0  0  0
   -7.5986    9.8047   10.9048 H   0  0  0  0  0  0  0  0  0  0  0  0
   -3.0976    8.1093   18.0034 C   0  0  0  0  0  0  0  0  0  0  0  0
   -3.8837    8.8702   16.9853 C   0  0  0  0  0  0  0  0  0  0  0  0
   -4.3707   10.0990   17.3295 N   0  0  0  0  0  0  0  0  0  0  0  0
   -5.0887   10.7960   16.4212 C   0  0  0  0  0  0  0  0  0  0  0  0
   -5.5296   12.0014   16.8114 F   0  0  0  0  0  0  0  0  0  0  0  0
   -5.3999   10.4260   15.1619 N   0  0  0  0  0  0  0  0  0  0  0  0
   -4.9097    9.2110   14.8757 C   0  0  0  0  0  0  0  0  0  0  0  0
   -4.1596    8.3884   15.7009 C   0  0  0  0  0  0  0  0  0  0  0  0
   -3.8265    7.2240   15.0523 N   0  0  0  0  0  0  0  0  0  0  0  0
   -4.3818    7.3259   13.8624 C   0  0  0  0  0  0  0  0  0  0  0  0
   -5.0327    8.5197   13.7005 N   0  0  0  0  0  0  0  0  0  0  0  0
   -4.0725   14.4386   13.7143 C   0  0  0  0  0  0  0  0  0  0  0  0
   -2.6968   14.0645   13.8995 N   0  0  0  0  0  0  0  0  0  0  0  0
   -2.2450   13.5609   15.0965 C   0  0  0  0  0  0  0  0  0  0  0  0
   -2.9385   13.5247   16.1092 O   0  0  0  0  0  0  0  0  0  0  0  0
   -2.0642   14.1712   13.1527 H   0  0  0  0  0  0  0  0  0  0  0  0
   -0.8432   13.0424   15.1293 C   0  0  0  0  0  0  0  0  0  0  0  0
   -0.6119   11.8509   15.8433 C   0  0  0  0  0  0  0  0  0  0  0  0
    0.6711   11.2766   15.9425 C   0  0  0  0  0  0  0  0  0  0  0  0
    1.7391   11.9243   15.3006 C   0  0  0  0  0  0  0  0  0  0  0  0
    1.5155   13.1000   14.5909 C   0  0  0  0  0  0  0  0  0  0  0  0
    2.5337   13.7547   13.9482 O   0  0  0  0  0  0  0  0  0  0  0  0
    0.2396   13.6599   14.5015 C   0  0  0  0  0  0  0  0  0  0  0  0
    0.1067   14.8162   13.7727 O   0  0  0  0  0  0  0  0  0  0  0  0
    3.4056   13.4133   13.9826 H   0  0  0  0  0  0  0  0  0  0  0  0
    0.8571   15.2019   13.3652 H   0  0  0  0  0  0  0  0  0  0  0  0
    0.8842   10.0292   16.6981 C   0  0  0  0  0  0  0  0  0  0  0  0
    1.7388    9.0227   16.2106 C   0  0  0  0  0  0  0  0  0  0  0  0
    1.9385    7.8390   16.9265 C   0  0  0  0  0  0  0  0  0  0  0  0
    1.2858    7.6524   18.1371 C   0  0  0  0  0  0  0  0  0  0  0  0
    1.4768    6.5177   18.8224 F   0  0  0  0  0  0  0  0  0  0  0  0
    0.4393    8.6271   18.6466 C   0  0  0  0  0  0  0  0  0  0  0  0
    0.2397    9.8103   17.9298 C   0  0  0  0  0  0  0  0  0  0  0  0
 12 13  1  0
 13 14  2  0
 14 15  1  0
 15 16  1  0
 15 17  2  0
 17 18  1  0
 18 19  2  0
 19 20  1  0
 20 21  2  0
 21 22  1  0
  3 22  1  0
  3  4  1  0
  4  5  1  0
  5  1  1  0
  1  2  2  0
  2 23  1  0
 23 24  1  0
 24 25  1  0
 25 26  2  0
 25 28  1  0
 28 29  2  0
 29 30  1  0
 30 38  1  0
 38 39  2  0
 39 40  1  0
 40 41  2  0
 41 42  1  0
 41 43  1  0
 43 44  2  0
 30 31  2  0
 31 32  1  0
 32 33  1  0
 32 34  2  0
 34 35  1  0
  5  6  1  0
  6  7  1  0
  6  8  1  0
  8  9  1  0
 19 13  1  0
  8  3  1  0
 22 18  1  0
 34 28  1  0
 44 38  1  0
 24 27  1  0
 33 36  1  0
 35 37  1  0
  7 10  1  0
  9 11  1  0
M  END
> <minimizedAffinity>
-7.66120

> <CNNscore>
0.6494710445

> <CNNaffinity>
6.6848254204

> <CNN_VS>
4.3416004181

> <CNNaffinity_variance>
0.4320608079

$$$$



 44 48  0  0  0  0  0  0  0  0999 V2000
   -3.5745   17.0247   14.5292 C   0  0  0  0  0  0  0  0  0  0  0  0
   -3.4595   16.0766   13.5808 C   0  0  0  0  0  0  0  0  0  0  0  0
   -5.0371   20.2320   15.0460 C   0  0  0  0  0  0  0  0  0  0  0  0
   -4.9839   18.9286   14.4144 O   0  0  0  0  0  0  0  0  0  0  0  0
   -3.6026   18.5162   14.3383 C   0  0  0  0  0  0  0  0  0  0  0  0
   -2.8478   19.3881   15.3503 C   0  0  0  0  0  0  0  0  0  0  0  0
   -1.4662   19.5505   15.0427 O   0  0  0  0  0  0  0  0  0  0  0  0
   -3.5898   20.7051   15.2128 C   0  0  0  0  0  0  0  0  0  0  0  0
   -3.1398   21.3943   14.0338 O   0  0  0  0  0  0  0  0  0  0  0  0
   -1.3751   19.9322   14.1557 H   0  0  0  0  0  0  0  0  0  0  0  0
   -3.2462   20.8170   13.2615 H   0  0  0  0  0  0  0  0  0  0  0  0
   -7.6388   18.5352   20.3527 C   0  0  0  0  0  0  0  0  0  0  0  0
   -6.8106   18.3350   19.1249 C   0  0  0  0  0  0  0  0  0  0  0  0
   -6.2161   17.1199   18.9360 N   0  0  0  0  0  0  0  0  0  0  0  0
   -5.4593   16.9263   17.8333 C   0  0  0  0  0  0  0  0  0  0  0  0
   -4.9118   15.7093   17.6952 F   0  0  0  0  0  0  0  0  0  0  0  0
   -5.2035   17.8108   16.8475 N   0  0  0  0  0  0  0  0  0  0  0  0
   -5.7988   18.9890   17.0834 C   0  0  0  0  0  0  0  0  0  0  0  0
   -6.5999   19.3282   18.1621 C   0  0  0  0  0  0  0  0  0  0  0  0
   -7.0412   20.6245   18.0501 N   0  0  0  0  0  0  0  0  0  0  0  0
   -6.5015   21.0732   16.9357 C   0  0  0  0  0  0  0  0  0  0  0  0
   -5.7560   20.1138   16.3042 N   0  0  0  0  0  0  0  0  0  0  0  0
   -3.4592   14.5847   13.7608 C   0  0  0  0  0  0  0  0  0  0  0  0
   -2.1619   14.0921   14.1365 N   0  0  0  0  0  0  0  0  0  0  0  0
   -2.0198   13.0025   14.9629 C   0  0  0  0  0  0  0  0  0  0  0  0
   -2.9675   12.4706   15.5344 O   0  0  0  0  0  0  0  0  0  0  0  0
   -1.3574   14.5450   13.7943 H   0  0  0  0  0  0  0  0  0  0  0  0
   -0.6362   12.4681   15.1500 C   0  0  0  0  0  0  0  0  0  0  0  0
   -0.4810   11.3646   16.0110 C   0  0  0  0  0  0  0  0  0  0  0  0
    0.7784   10.7844   16.2623 C   0  0  0  0  0  0  0  0  0  0  0  0
    1.9014   11.3346   15.6233 C   0  0  0  0  0  0  0  0  0  0  0  0
    1.7533   12.4228   14.7689 C   0  0  0  0  0  0  0  0  0  0  0  0
    2.8269   12.9806   14.1250 O   0  0  0  0  0  0  0  0  0  0  0  0
    0.5000   12.9896   14.5295 C   0  0  0  0  0  0  0  0  0  0  0  0
    0.4431   14.0547   13.6645 O   0  0  0  0  0  0  0  0  0  0  0  0
    3.6861   12.6310   14.2574 H   0  0  0  0  0  0  0  0  0  0  0  0
    1.2277   14.3775   13.2667 H   0  0  0  0  0  0  0  0  0  0  0  0
    0.9112    9.6306   17.1697 C   0  0  0  0  0  0  0  0  0  0  0  0
    0.2205    9.5883   18.3953 C   0  0  0  0  0  0  0  0  0  0  0  0
    0.3488    8.4949   19.2564 C   0  0  0  0  0  0  0  0  0  0  0  0
    1.1685    7.4336   18.8983 C   0  0  0  0  0  0  0  0  0  0  0  0
    1.2918    6.3865   19.7241 F   0  0  0  0  0  0  0  0  0  0  0  0
    1.8604    7.4436   17.6953 C   0  0  0  0  0  0  0  0  0  0  0  0
    1.7319    8.5376   16.8349 C   0  0  0  0  0  0  0  0  0  0  0  0
 12 13  1  0
 13 14  2  0
 14 15  1  0
 15 16  1  0
 15 17  2  0
 17 18  1  0
 18 19  2  0
 19 20  1  0
 20 21  2  0
 21 22  1  0
  3 22  1  0
  3  4  1  0
  4  5  1  0
  5  1  1  0
  1  2  2  0
  2 23  1  0
 23 24  1  0
 24 25  1  0
 25 26  2  0
 25 28  1  0
 28 29  2  0
 29 30  1  0
 30 38  1  0
 38 39  2  0
 39 40  1  0
 40 41  2  0
 41 42  1  0
 41 43  1  0
 43 44  2  0
 30 31  2  0
 31 32  1  0
 32 33  1  0
 32 34  2  0
 34 35  1  0
  5  6  1  0
  6  7  1  0
  6  8  1  0
  8  9  1  0
 19 13  1  0
  8  3  1  0
 22 18  1  0
 34 28  1  0
 44 38  1  0
 24 27  1  0
 33 36  1  0
 35 37  1  0
  7 10  1  0
  9 11  1  0
M  END
> <minimizedAffinity>
-9.94862

> <CNNscore>
0.3713425994

> <CNNaffinity>
6.6344013214

> <CNN_VS>
2.4636359215

> <CNNaffinity_variance>
0.0751006603

$$$$



 44 48  0  0  0  0  0  0  0  0999 V2000
   -5.5391   15.6694   17.0061 C   0  0  0  0  0  0  0  0  0  0  0  0
   -4.5193   15.5225   16.1401 C   0  0  0  0  0  0  0  0  0  0  0  0
   -5.3582   19.0350   18.1607 C   0  0  0  0  0  0  0  0  0  0  0  0
   -4.7590   17.7735   17.7730 O   0  0  0  0  0  0  0  0  0  0  0  0
   -5.6918   16.7146   18.0766 C   0  0  0  0  0  0  0  0  0  0  0  0
   -7.0593   17.3922   18.2345 C   0  0  0  0  0  0  0  0  0  0  0  0
   -7.9631   16.6644   19.0610 O   0  0  0  0  0  0  0  0  0  0  0  0
   -6.6629   18.7020   18.8911 C   0  0  0  0  0  0  0  0  0  0  0  0
   -6.4222   18.4884   20.2925 O   0  0  0  0  0  0  0  0  0  0  0  0
   -7.5655   16.5310   19.9356 H   0  0  0  0  0  0  0  0  0  0  0  0
   -5.7562   17.7921   20.4037 H   0  0  0  0  0  0  0  0  0  0  0  0
   -5.0971   21.9179   12.7358 C   0  0  0  0  0  0  0  0  0  0  0  0
   -4.6250   20.9700   13.7905 C   0  0  0  0  0  0  0  0  0  0  0  0
   -3.4905   20.2482   13.5512 N   0  0  0  0  0  0  0  0  0  0  0  0
   -3.0551   19.3826   14.4933 C   0  0  0  0  0  0  0  0  0  0  0  0
   -1.9289   18.7117   14.2079 F   0  0  0  0  0  0  0  0  0  0  0  0
   -3.6137   19.1269   15.6941 N   0  0  0  0  0  0  0  0  0  0  0  0
   -4.7280   19.8503   15.8773 C   0  0  0  0  0  0  0  0  0  0  0  0
   -5.2880   20.7714   15.0065 C   0  0  0  0  0  0  0  0  0  0  0  0
   -6.4239   21.3228   15.5482 N   0  0  0  0  0  0  0  0  0  0  0  0
   -6.5651   20.7327   16.7172 C   0  0  0  0  0  0  0  0  0  0  0  0
   -5.5522   19.8467   16.9703 N   0  0  0  0  0  0  0  0  0  0  0  0
   -4.3729   14.4988   15.0498 C   0  0  0  0  0  0  0  0  0  0  0  0
   -3.0595   13.9144   15.0385 N   0  0  0  0  0  0  0  0  0  0  0  0
   -2.0355   14.4648   14.3044 C   0  0  0  0  0  0  0  0  0  0  0  0
   -2.2025   15.3929   13.5179 O   0  0  0  0  0  0  0  0  0  0  0  0
   -2.8895   13.1021   15.5682 H   0  0  0  0  0  0  0  0  0  0  0  0
   -0.6719   13.8834   14.4987 C   0  0  0  0  0  0  0  0  0  0  0  0
   -0.5821   12.6711   15.2094 C   0  0  0  0  0  0  0  0  0  0  0  0
    0.6530   12.0381   15.4537 C   0  0  0  0  0  0  0  0  0  0  0  0
    1.8191   12.6477   14.9632 C   0  0  0  0  0  0  0  0  0  0  0  0
    1.7358   13.8439   14.2573 C   0  0  0  0  0  0  0  0  0  0  0  0
    2.8529   14.4628   13.7599 O   0  0  0  0  0  0  0  0  0  0  0  0
    0.5058   14.4619   14.0234 C   0  0  0  0  0  0  0  0  0  0  0  0
    0.5139   15.6350   13.3093 O   0  0  0  0  0  0  0  0  0  0  0  0
    3.6984   14.0820   13.8943 H   0  0  0  0  0  0  0  0  0  0  0  0
    1.3249   15.9934   13.0063 H   0  0  0  0  0  0  0  0  0  0  0  0
    0.7171   10.7700   16.2022 C   0  0  0  0  0  0  0  0  0  0  0  0
   -0.1313   10.5316   17.2996 C   0  0  0  0  0  0  0  0  0  0  0  0
   -0.0682    9.3298   18.0103 C   0  0  0  0  0  0  0  0  0  0  0  0
    0.8435    8.3554   17.6286 C   0  0  0  0  0  0  0  0  0  0  0  0
    0.9041    7.2043   18.3105 F   0  0  0  0  0  0  0  0  0  0  0  0
    1.6915    8.5585   16.5490 C   0  0  0  0  0  0  0  0  0  0  0  0
    1.6282    9.7608   15.8390 C   0  0  0  0  0  0  0  0  0  0  0  0
 12 13  1  0
 13 14  2  0
 14 15  1  0
 15 16  1  0
 15 17  2  0
 17 18  1  0
 18 19  2  0
 19 20  1  0
 20 21  2  0
 21 22  1  0
  3 22  1  0
  3  4  1  0
  4  5  1  0
  5  1  1  0
  1  2  2  0
  2 23  1  0
 23 24  1  0
 24 25  1  0
 25 26  2  0
 25 28  1  0
 28 29  2  0
 29 30  1  0
 30 38  1  0
 38 39  2  0
 39 40  1  0
 40 41  2  0
 41 42  1  0
 41 43  1  0
 43 44  2  0
 30 31  2  0
 31 32  1  0
 32 33  1  0
 32 34  2  0
 34 35  1  0
  5  6  1  0
  6  7  1  0
  6  8  1  0
  8  9  1  0
 19 13  1  0
  8  3  1  0
 22 18  1  0
 34 28  1  0
 44 38  1  0
 24 27  1  0
 33 36  1  0
 35 37  1  0
  7 10  1  0
  9 11  1  0
M  END
> <minimizedAffinity>
-10.62238

> <CNNscore>
0.3633679748

> <CNNaffinity>
6.5681228638

> <CNN_VS>
2.3866455555

> <CNNaffinity_variance>
0.1588326246

$$$$



 44 48  0  0  0  0  0  0  0  0999 V2000
   -2.4631   18.6557   14.1514 C   0  0  0  0  0  0  0  0  0  0  0  0
   -2.7592   17.3428   14.1557 C   0  0  0  0  0  0  0  0  0  0  0  0
   -4.7338   21.3978   14.0185 C   0  0  0  0  0  0  0  0  0  0  0  0
   -3.4386   20.7875   13.7937 O   0  0  0  0  0  0  0  0  0  0  0  0
   -3.2330   19.7731   14.7998 C   0  0  0  0  0  0  0  0  0  0  0  0
   -4.6229   19.4576   15.3680 C   0  0  0  0  0  0  0  0  0  0  0  0
   -4.5914   18.9431   16.6961 O   0  0  0  0  0  0  0  0  0  0  0  0
   -5.2707   20.8300   15.3361 C   0  0  0  0  0  0  0  0  0  0  0  0
   -4.8095   21.6098   16.4526 O   0  0  0  0  0  0  0  0  0  0  0  0
   -4.1405   19.5754   17.2773 H   0  0  0  0  0  0  0  0  0  0  0  0
   -3.8403   21.6480   16.4420 H   0  0  0  0  0  0  0  0  0  0  0  0
   -8.2432   21.4621    8.9699 C   0  0  0  0  0  0  0  0  0  0  0  0
   -7.3713   22.0681   10.0216 C   0  0  0  0  0  0  0  0  0  0  0  0
   -7.1029   23.4053    9.9485 N   0  0  0  0  0  0  0  0  0  0  0  0
   -6.3110   23.9659   10.8891 C   0  0  0  0  0  0  0  0  0  0  0  0
   -6.0936   25.2846   10.7731 F   0  0  0  0  0  0  0  0  0  0  0  0
   -5.7265   23.3552   11.9403 N   0  0  0  0  0  0  0  0  0  0  0  0
   -6.0105   22.0448   11.9624 C   0  0  0  0  0  0  0  0  0  0  0  0
   -6.8037   21.3387   11.0721 C   0  0  0  0  0  0  0  0  0  0  0  0
   -6.8717   20.0135   11.4284 N   0  0  0  0  0  0  0  0  0  0  0  0
   -6.1165   19.9103   12.5026 C   0  0  0  0  0  0  0  0  0  0  0  0
   -5.5885   21.1171   12.8764 N   0  0  0  0  0  0  0  0  0  0  0  0
   -1.9802   16.2177   13.5347 C   0  0  0  0  0  0  0  0  0  0  0  0
   -2.3330   14.9456   14.1040 N   0  0  0  0  0  0  0  0  0  0  0  0
   -1.3892   13.9690   14.3184 C   0  0  0  0  0  0  0  0  0  0  0  0
   -0.2309   14.0620   13.9215 O   0  0  0  0  0  0  0  0  0  0  0  0
   -3.2710   14.7699   14.3457 H   0  0  0  0  0  0  0  0  0  0  0  0
   -1.8278   12.7548   15.0722 C   0  0  0  0  0  0  0  0  0  0  0  0
   -0.8300   12.0017   15.7205 C   0  0  0  0  0  0  0  0  0  0  0  0
   -1.1315   10.8374   16.4549 C   0  0  0  0  0  0  0  0  0  0  0  0
   -2.4739   10.4328   16.5347 C   0  0  0  0  0  0  0  0  0  0  0  0
   -3.4643   11.1750   15.8989 C   0  0  0  0  0  0  0  0  0  0  0  0
   -4.7843   10.8119   15.9610 O   0  0  0  0  0  0  0  0  0  0  0  0
   -3.1521   12.3261   15.1728 C   0  0  0  0  0  0  0  0  0  0  0  0
   -4.1921   13.0039   14.5855 O   0  0  0  0  0  0  0  0  0  0  0  0
   -5.0376   10.0461   16.4378 H   0  0  0  0  0  0  0  0  0  0  0  0
   -5.0688   12.6855   14.6749 H   0  0  0  0  0  0  0  0  0  0  0  0
   -0.0662   10.0678   17.1221 C   0  0  0  0  0  0  0  0  0  0  0  0
   -0.1573    9.7354   18.4867 C   0  0  0  0  0  0  0  0  0  0  0  0
    0.8545    9.0077   19.1193 C   0  0  0  0  0  0  0  0  0  0  0  0
    1.9658    8.6050   18.3918 C   0  0  0  0  0  0  0  0  0  0  0  0
    2.9354    7.9083   18.9985 F   0  0  0  0  0  0  0  0  0  0  0  0
    2.0839    8.9139   17.0439 C   0  0  0  0  0  0  0  0  0  0  0  0
    1.0719    9.6422   16.4122 C   0  0  0  0  0  0  0  0  0  0  0  0
 12 13  1  0
 13 14  2  0
 14 15  1  0
 15 16  1  0
 15 17  2  0
 17 18  1  0
 18 19  2  0
 19 20  1  0
 20 21  2  0
 21 22  1  0
  3 22  1  0
  3  4  1  0
  4  5  1  0
  5  1  1  0
  1  2  2  0
  2 23  1  0
 23 24  1  0
 24 25  1  0
 25 26  2  0
 25 28  1  0
 28 29  2  0
 29 30  1  0
 30 38  1  0
 38 39  2  0
 39 40  1  0
 40 41  2  0
 41 42  1  0
 41 43  1  0
 43 44  2  0
 30 31  2  0
 31 32  1  0
 32 33  1  0
 32 34  2  0
 34 35  1  0
  5  6  1  0
  6  7  1  0
  6  8  1  0
  8  9  1  0
 19 13  1  0
  8  3  1  0
 22 18  1  0
 34 28  1  0
 44 38  1  0
 24 27  1  0
 33 36  1  0
 35 37  1  0
  7 10  1  0
  9 11  1  0
M  END
> <minimizedAffinity>
-10.98441

> <CNNscore>
0.3375786841

> <CNNaffinity>
6.4285321236

> <CNN_VS>
2.1701354980

> <CNNaffinity_variance>
0.2236807495

$$$$



 44 48  0  0  0  0  0  0  0  0999 V2000
   -2.8106   17.9635   13.8187 C   0  0  0  0  0  0  0  0  0  0  0  0
   -3.1191   16.7074   14.1907 C   0  0  0  0  0  0  0  0  0  0  0  0
   -4.4626   21.1184   13.7144 C   0  0  0  0  0  0  0  0  0  0  0  0
   -3.3533   20.2360   13.4120 O   0  0  0  0  0  0  0  0  0  0  0  0
   -3.2595   19.2477   14.4599 C   0  0  0  0  0  0  0  0  0  0  0  0
   -4.6176   19.2624   15.1736 C   0  0  0  0  0  0  0  0  0  0  0  0
   -4.5556   18.8137   16.5243 O   0  0  0  0  0  0  0  0  0  0  0  0
   -4.9655   20.7386   15.1107 C   0  0  0  0  0  0  0  0  0  0  0  0
   -4.2384   21.4517   16.1257 O   0  0  0  0  0  0  0  0  0  0  0  0
   -3.9249   19.3609   17.0182 H   0  0  0  0  0  0  0  0  0  0  0  0
   -3.2889   21.2815   16.0232 H   0  0  0  0  0  0  0  0  0  0  0  0
   -8.5351   21.7606    9.1525 C   0  0  0  0  0  0  0  0  0  0  0  0
   -7.4902   22.2308   10.1120 C   0  0  0  0  0  0  0  0  0  0  0  0
   -7.1100   23.5418   10.0640 N   0  0  0  0  0  0  0  0  0  0  0  0
   -6.1618   23.9797   10.9214 C   0  0  0  0  0  0  0  0  0  0  0  0
   -5.8389   25.2791   10.8363 F   0  0  0  0  0  0  0  0  0  0  0  0
   -5.5136   23.2645   11.8637 N   0  0  0  0  0  0  0  0  0  0  0  0
   -5.9129   21.9843   11.8643 C   0  0  0  0  0  0  0  0  0  0  0  0
   -6.8698   21.3990   11.0506 C   0  0  0  0  0  0  0  0  0  0  0  0
   -7.0166   20.0672   11.3549 N   0  0  0  0  0  0  0  0  0  0  0  0
   -6.1500   19.8407   12.3205 C   0  0  0  0  0  0  0  0  0  0  0  0
   -5.4713   20.9752   12.6772 N   0  0  0  0  0  0  0  0  0  0  0  0
   -2.6520   15.4196   13.5729 C   0  0  0  0  0  0  0  0  0  0  0  0
   -2.3983   14.4117   14.5661 N   0  0  0  0  0  0  0  0  0  0  0  0
   -3.4150   13.8767   15.3215 C   0  0  0  0  0  0  0  0  0  0  0  0
   -4.5636   14.3103   15.2968 O   0  0  0  0  0  0  0  0  0  0  0  0
   -1.4762   14.0975   14.7086 H   0  0  0  0  0  0  0  0  0  0  0  0
   -3.0707   12.7165   16.1992 C   0  0  0  0  0  0  0  0  0  0  0  0
   -4.1240   12.1093   16.9096 C   0  0  0  0  0  0  0  0  0  0  0  0
   -3.9112   11.0122   17.7682 C   0  0  0  0  0  0  0  0  0  0  0  0
   -2.6028   10.5209   17.9046 C   0  0  0  0  0  0  0  0  0  0  0  0
   -1.5588   11.1150   17.2023 C   0  0  0  0  0  0  0  0  0  0  0  0
   -0.2712   10.6575   17.3078 O   0  0  0  0  0  0  0  0  0  0  0  0
   -1.7826   12.2027   16.3559 C   0  0  0  0  0  0  0  0  0  0  0  0
   -0.6973   12.7215   15.6935 O   0  0  0  0  0  0  0  0  0  0  0  0
   -0.0768    9.9296   17.8649 H   0  0  0  0  0  0  0  0  0  0  0  0
    0.1529   12.3499   15.8241 H   0  0  0  0  0  0  0  0  0  0  0  0
   -5.0327   10.3974   18.5007 C   0  0  0  0  0  0  0  0  0  0  0  0
   -4.8041    9.4392   19.5061 C   0  0  0  0  0  0  0  0  0  0  0  0
   -5.8682    8.8548   20.1986 C   0  0  0  0  0  0  0  0  0  0  0  0
   -7.1704    9.2247   19.8922 C   0  0  0  0  0  0  0  0  0  0  0  0
   -8.1897    8.6639   20.5555 F   0  0  0  0  0  0  0  0  0  0  0  0
   -7.4289   10.1690   18.9086 C   0  0  0  0  0  0  0  0  0  0  0  0
   -6.3643   10.7526   18.2161 C   0  0  0  0  0  0  0  0  0  0  0  0
 12 13  1  0
 13 14  2  0
 14 15  1  0
 15 16  1  0
 15 17  2  0
 17 18  1  0
 18 19  2  0
 19 20  1  0
 20 21  2  0
 21 22  1  0
  3 22  1  0
  3  4  1  0
  4  5  1  0
  5  1  1  0
  1  2  2  0
  2 23  1  0
 23 24  1  0
 24 25  1  0
 25 26  2  0
 25 28  1  0
 28 29  2  0
 29 30  1  0
 30 38  1  0
 38 39  2  0
 39 40  1  0
 40 41  2  0
 41 42  1  0
 41 43  1  0
 43 44  2  0
 30 31  2  0
 31 32  1  0
 32 33  1  0
 32 34  2  0
 34 35  1  0
  5  6  1  0
  6  7  1  0
  6  8  1  0
  8  9  1  0
 19 13  1  0
  8  3  1  0
 22 18  1  0
 34 28  1  0
 44 38  1  0
 24 27  1  0
 33 36  1  0
 35 37  1  0
  7 10  1  0
  9 11  1  0
M  END
> <minimizedAffinity>
-8.54047

> <CNNscore>
0.3179225922

> <CNNaffinity>
6.0028443336

> <CNN_VS>
1.9084398746

> <CNNaffinity_variance>
0.1273222566

$$$$



 44 48  0  0  0  0  0  0  0  0999 V2000
   -2.3561   18.9452   14.0170 C   0  0  0  0  0  0  0  0  0  0  0  0
   -2.3511   17.6024   14.1086 C   0  0  0  0  0  0  0  0  0  0  0  0
   -4.9209   21.4178   14.0521 C   0  0  0  0  0  0  0  0  0  0  0  0
   -3.5615   20.9770   13.8100 O   0  0  0  0  0  0  0  0  0  0  0  0
   -3.2574   19.9115   14.7351 C   0  0  0  0  0  0  0  0  0  0  0  0
   -4.6110   19.3964   15.2418 C   0  0  0  0  0  0  0  0  0  0  0  0
   -4.5413   18.7795   16.5241 O   0  0  0  0  0  0  0  0  0  0  0  0
   -5.4096   20.6856   15.3057 C   0  0  0  0  0  0  0  0  0  0  0  0
   -5.0566   21.4161   16.4928 O   0  0  0  0  0  0  0  0  0  0  0  0
   -4.1738   19.4076   17.1655 H   0  0  0  0  0  0  0  0  0  0  0  0
   -4.0980   21.5631   16.5089 H   0  0  0  0  0  0  0  0  0  0  0  0
   -8.1906   21.4935    8.8451 C   0  0  0  0  0  0  0  0  0  0  0  0
   -7.3694   22.0973    9.9382 C   0  0  0  0  0  0  0  0  0  0  0  0
   -7.0994   23.4349    9.8816 N   0  0  0  0  0  0  0  0  0  0  0  0
   -6.3529   23.9935   10.8598 C   0  0  0  0  0  0  0  0  0  0  0  0
   -6.1317   25.3128   10.7578 F   0  0  0  0  0  0  0  0  0  0  0  0
   -5.8174   23.3803   11.9354 N   0  0  0  0  0  0  0  0  0  0  0  0
   -6.1007   22.0696   11.9404 C   0  0  0  0  0  0  0  0  0  0  0  0
   -6.8507   21.3653   11.0120 C   0  0  0  0  0  0  0  0  0  0  0  0
   -6.9339   20.0391   11.3609 N   0  0  0  0  0  0  0  0  0  0  0  0
   -6.2296   19.9334   12.4689 C   0  0  0  0  0  0  0  0  0  0  0  0
   -5.7209   21.1396   12.8705 N   0  0  0  0  0  0  0  0  0  0  0  0
   -1.4355   16.6324   13.4165 C   0  0  0  0  0  0  0  0  0  0  0  0
   -1.4862   15.3277   14.0182 N   0  0  0  0  0  0  0  0  0  0  0  0
   -0.3578   14.5528   14.1473 C   0  0  0  0  0  0  0  0  0  0  0  0
    0.7211   14.8567   13.6460 O   0  0  0  0  0  0  0  0  0  0  0  0
   -2.3479   14.9814   14.3450 H   0  0  0  0  0  0  0  0  0  0  0  0
   -0.4869   13.2921   14.9404 C   0  0  0  0  0  0  0  0  0  0  0  0
   -1.7714   12.9505   15.4056 C   0  0  0  0  0  0  0  0  0  0  0  0
   -2.0057   11.7873   16.1658 C   0  0  0  0  0  0  0  0  0  0  0  0
   -0.9137   10.9535   16.4558 C   0  0  0  0  0  0  0  0  0  0  0  0
    0.3571   11.2844   15.9958 C   0  0  0  0  0  0  0  0  0  0  0  0
    1.4436   10.4905   16.2558 O   0  0  0  0  0  0  0  0  0  0  0  0
    0.5764   12.4409   15.2448 C   0  0  0  0  0  0  0  0  0  0  0  0
    1.8599   12.6860   14.8224 O   0  0  0  0  0  0  0  0  0  0  0  0
    1.3409    9.7051   16.7563 H   0  0  0  0  0  0  0  0  0  0  0  0
    2.5484   12.0913   15.0465 H   0  0  0  0  0  0  0  0  0  0  0  0
   -3.3609   11.4555   16.6410 C   0  0  0  0  0  0  0  0  0  0  0  0
   -3.5538   10.6795   17.7993 C   0  0  0  0  0  0  0  0  0  0  0  0
   -4.8391   10.3632   18.2479 C   0  0  0  0  0  0  0  0  0  0  0  0
   -5.9429   10.8215   17.5423 C   0  0  0  0  0  0  0  0  0  0  0  0
   -7.1744   10.5175   17.9721 F   0  0  0  0  0  0  0  0  0  0  0  0
   -5.7864   11.5916   16.3984 C   0  0  0  0  0  0  0  0  0  0  0  0
   -4.5007   11.9071   15.9500 C   0  0  0  0  0  0  0  0  0  0  0  0
 12 13  1  0
 13 14  2  0
 14 15  1  0
 15 16  1  0
 15 17  2  0
 17 18  1  0
 18 19  2  0
 19 20  1  0
 20 21  2  0
 21 22  1  0
  3 22  1  0
  3  4  1  0
  4  5  1  0
  5  1  1  0
  1  2  2  0
  2 23  1  0
 23 24  1  0
 24 25  1  0
 25 26  2  0
 25 28  1  0
 28 29  2  0
 29 30  1  0
 30 38  1  0
 38 39  2  0
 39 40  1  0
 40 41  2  0
 41 42  1  0
 41 43  1  0
 43 44  2  0
 30 31  2  0
 31 32  1  0
 32 33  1  0
 32 34  2  0
 34 35  1  0
  5  6  1  0
  6  7  1  0
  6  8  1  0
  8  9  1  0
 19 13  1  0
  8  3  1  0
 22 18  1  0
 34 28  1  0
 44 38  1  0
 24 27  1  0
 33 36  1  0
 35 37  1  0
  7 10  1  0
  9 11  1  0
M  END
> <minimizedAffinity>
-9.96001

> <CNNscore>
0.3012022376

> <CNNaffinity>
6.7907700539

> <CNN_VS>
2.0453951359

> <CNNaffinity_variance>
0.0313814916

$$$$



 44 48  0  0  0  0  0  0  0  0999 V2000
   -6.1781   12.4349   13.5509 C   0  0  0  0  0  0  0  0  0  0  0  0
   -5.2975   13.3588   13.1237 C   0  0  0  0  0  0  0  0  0  0  0  0
   -9.1999   10.6557   12.9212 C   0  0  0  0  0  0  0  0  0  0  0  0
   -7.9386   10.8471   13.6093 O   0  0  0  0  0  0  0  0  0  0  0  0
   -7.0294   11.5209   12.7132 C   0  0  0  0  0  0  0  0  0  0  0  0
   -7.9050   12.1491   11.6210 C   0  0  0  0  0  0  0  0  0  0  0  0
   -7.2192   12.3528   10.3890 O   0  0  0  0  0  0  0  0  0  0  0  0
   -8.9856   11.0942   11.4692 C   0  0  0  0  0  0  0  0  0  0  0  0
   -8.4896   10.0029   10.6752 O   0  0  0  0  0  0  0  0  0  0  0  0
   -6.8647   11.5071   10.0726 H   0  0  0  0  0  0  0  0  0  0  0  0
   -7.6757    9.6569   11.0736 H   0  0  0  0  0  0  0  0  0  0  0  0
  -13.3202   14.7510   14.9363 C   0  0  0  0  0  0  0  0  0  0  0  0
  -12.2596   14.2356   14.0181 C   0  0  0  0  0  0  0  0  0  0  0  0
  -11.8850   15.0141   12.9601 N   0  0  0  0  0  0  0  0  0  0  0  0
  -10.9315   14.5584   12.1179 C   0  0  0  0  0  0  0  0  0  0  0  0
  -10.5958   15.3719   11.1053 F   0  0  0  0  0  0  0  0  0  0  0  0
  -10.2672   13.3865   12.1869 N   0  0  0  0  0  0  0  0  0  0  0  0
  -10.6768   12.6549   13.2335 C   0  0  0  0  0  0  0  0  0  0  0  0
  -11.6361   12.9929   14.1748 C   0  0  0  0  0  0  0  0  0  0  0  0
  -11.7744   11.9932   15.1071 N   0  0  0  0  0  0  0  0  0  0  0  0
  -10.9312   11.0550   14.7284 C   0  0  0  0  0  0  0  0  0  0  0  0
  -10.2293   11.4171   13.6098 N   0  0  0  0  0  0  0  0  0  0  0  0
   -4.4229   14.2554   13.9540 C   0  0  0  0  0  0  0  0  0  0  0  0
   -3.0760   13.7597   14.0375 N   0  0  0  0  0  0  0  0  0  0  0  0
   -1.9981   14.6127   14.0678 C   0  0  0  0  0  0  0  0  0  0  0  0
   -2.1006   15.8236   13.8917 O   0  0  0  0  0  0  0  0  0  0  0  0
   -2.9221   12.7880   14.0737 H   0  0  0  0  0  0  0  0  0  0  0  0
   -0.6580   14.0044   14.3302 C   0  0  0  0  0  0  0  0  0  0  0  0
   -0.6289   12.7849   15.0339 C   0  0  0  0  0  0  0  0  0  0  0  0
    0.5794   12.1271   15.3388 C   0  0  0  0  0  0  0  0  0  0  0  0
    1.7813   12.7186   14.9173 C   0  0  0  0  0  0  0  0  0  0  0  0
    1.7582   13.9217   14.2187 C   0  0  0  0  0  0  0  0  0  0  0  0
    2.9117   14.5234   13.7878 O   0  0  0  0  0  0  0  0  0  0  0  0
    0.5541   14.5645   13.9242 C   0  0  0  0  0  0  0  0  0  0  0  0
    0.6223   15.7427   13.2221 O   0  0  0  0  0  0  0  0  0  0  0  0
    3.7416   14.1258   13.9642 H   0  0  0  0  0  0  0  0  0  0  0  0
    1.4549   16.0882   12.9664 H   0  0  0  0  0  0  0  0  0  0  0  0
    0.5798   10.8521   16.0783 C   0  0  0  0  0  0  0  0  0  0  0  0
    1.7057   10.0075   16.0675 C   0  0  0  0  0  0  0  0  0  0  0  0
    1.7044    8.7975   16.7670 C   0  0  0  0  0  0  0  0  0  0  0  0
    0.5771    8.4224   17.4846 C   0  0  0  0  0  0  0  0  0  0  0  0
    0.5761    7.2625   18.1542 F   0  0  0  0  0  0  0  0  0  0  0  0
   -0.5477    9.2346   17.5180 C   0  0  0  0  0  0  0  0  0  0  0  0
   -0.5459   10.4443   16.8178 C   0  0  0  0  0  0  0  0  0  0  0  0
 12 13  1  0
 13 14  2  0
 14 15  1  0
 15 16  1  0
 15 17  2  0
 17 18  1  0
 18 19  2  0
 19 20  1  0
 20 21  2  0
 21 22  1  0
  3 22  1  0
  3  4  1  0
  4  5  1  0
  5  1  1  0
  1  2  2  0
  2 23  1  0
 23 24  1  0
 24 25  1  0
 25 26  2  0
 25 28  1  0
 28 29  2  0
 29 30  1  0
 30 38  1  0
 38 39  2  0
 39 40  1  0
 40 41  2  0
 41 42  1  0
 41 43  1  0
 43 44  2  0
 30 31  2  0
 31 32  1  0
 32 33  1  0
 32 34  2  0
 34 35  1  0
  5  6  1  0
  6  7  1  0
  6  8  1  0
  8  9  1  0
 19 13  1  0
  8  3  1  0
 22 18  1  0
 34 28  1  0
 44 38  1  0
 24 27  1  0
 33 36  1  0
 35 37  1  0
  7 10  1  0
  9 11  1  0
M  END
> <minimizedAffinity>
-9.08305

> <CNNscore>
0.2878413498

> <CNNaffinity>
6.0996718407

> <CNN_VS>
1.7557377815

> <CNNaffinity_variance>
0.0344520397

$$$$



 44 48  0  0  0  0  0  0  0  0999 V2000
   -2.4789   18.6369   14.1834 C   0  0  0  0  0  0  0  0  0  0  0  0
   -2.8069   17.3319   14.1520 C   0  0  0  0  0  0  0  0  0  0  0  0
   -4.7358   21.3894   14.0319 C   0  0  0  0  0  0  0  0  0  0  0  0
   -3.4431   20.7716   13.8130 O   0  0  0  0  0  0  0  0  0  0  0  0
   -3.2448   19.7612   14.8246 C   0  0  0  0  0  0  0  0  0  0  0  0
   -4.6374   19.4555   15.3913 C   0  0  0  0  0  0  0  0  0  0  0  0
   -4.6114   18.9474   16.7220 O   0  0  0  0  0  0  0  0  0  0  0  0
   -5.2783   20.8308   15.3510 C   0  0  0  0  0  0  0  0  0  0  0  0
   -4.8157   21.6139   16.4647 O   0  0  0  0  0  0  0  0  0  0  0  0
   -4.1587   19.5804   17.3010 H   0  0  0  0  0  0  0  0  0  0  0  0
   -3.8463   21.6472   16.4561 H   0  0  0  0  0  0  0  0  0  0  0  0
   -8.2495   21.4490    8.9861 C   0  0  0  0  0  0  0  0  0  0  0  0
   -7.3810   22.0569   10.0396 C   0  0  0  0  0  0  0  0  0  0  0  0
   -7.1222   23.3963    9.9717 N   0  0  0  0  0  0  0  0  0  0  0  0
   -6.3335   23.9587   10.9140 C   0  0  0  0  0  0  0  0  0  0  0  0
   -6.1256   25.2794   10.8030 F   0  0  0  0  0  0  0  0  0  0  0  0
   -5.7439   23.3480   11.9623 N   0  0  0  0  0  0  0  0  0  0  0  0
   -6.0186   22.0356   11.9793 C   0  0  0  0  0  0  0  0  0  0  0  0
   -6.8074   21.3274   11.0868 C   0  0  0  0  0  0  0  0  0  0  0  0
   -6.8658   20.0004   11.4378 N   0  0  0  0  0  0  0  0  0  0  0  0
   -6.1091   19.8982   12.5110 C   0  0  0  0  0  0  0  0  0  0  0  0
   -5.5893   21.1072   12.8893 N   0  0  0  0  0  0  0  0  0  0  0  0
   -2.0332   16.1991   13.5385 C   0  0  0  0  0  0  0  0  0  0  0  0
   -2.8145   14.9943   13.4691 N   0  0  0  0  0  0  0  0  0  0  0  0
   -2.4125   13.8411   14.1007 C   0  0  0  0  0  0  0  0  0  0  0  0
   -1.3162   13.7239   14.6411 O   0  0  0  0  0  0  0  0  0  0  0  0
   -3.6560   14.9950   12.9580 H   0  0  0  0  0  0  0  0  0  0  0  0
   -3.3789   12.7005   14.1112 C   0  0  0  0  0  0  0  0  0  0  0  0
   -3.2112   11.7211   15.1091 C   0  0  0  0  0  0  0  0  0  0  0  0
   -4.0622   10.6023   15.2083 C   0  0  0  0  0  0  0  0  0  0  0  0
   -5.1061   10.4785   14.2771 C   0  0  0  0  0  0  0  0  0  0  0  0
   -5.2784   11.4450   13.2911 C   0  0  0  0  0  0  0  0  0  0  0  0
   -6.2898   11.3581   12.3703 O   0  0  0  0  0  0  0  0  0  0  0  0
   -4.4272   12.5482   13.2025 C   0  0  0  0  0  0  0  0  0  0  0  0
   -4.6754   13.4592   12.2053 O   0  0  0  0  0  0  0  0  0  0  0  0
   -6.8839   10.6339   12.3937 H   0  0  0  0  0  0  0  0  0  0  0  0
   -5.3890   13.3231   11.6135 H   0  0  0  0  0  0  0  0  0  0  0  0
   -3.8620    9.5918   16.2623 C   0  0  0  0  0  0  0  0  0  0  0  0
   -4.2245    9.8538   17.5969 C   0  0  0  0  0  0  0  0  0  0  0  0
   -4.0321    8.8960   18.5963 C   0  0  0  0  0  0  0  0  0  0  0  0
   -3.4764    7.6669   18.2691 C   0  0  0  0  0  0  0  0  0  0  0  0
   -3.2914    6.7496   19.2273 F   0  0  0  0  0  0  0  0  0  0  0  0
   -3.1115    7.3764   16.9620 C   0  0  0  0  0  0  0  0  0  0  0  0
   -3.3037    8.3351   15.9632 C   0  0  0  0  0  0  0  0  0  0  0  0
 12 13  1  0
 13 14  2  0
 14 15  1  0
 15 16  1  0
 15 17  2  0
 17 18  1  0
 18 19  2  0
 19 20  1  0
 20 21  2  0
 21 22  1  0
  3 22  1  0
  3  4  1  0
  4  5  1  0
  5  1  1  0
  1  2  2  0
  2 23  1  0
 23 24  1  0
 24 25  1  0
 25 26  2  0
 25 28  1  0
 28 29  2  0
 29 30  1  0
 30 38  1  0
 38 39  2  0
 39 40  1  0
 40 41  2  0
 41 42  1  0
 41 43  1  0
 43 44  2  0
 30 31  2  0
 31 32  1  0
 32 33  1  0
 32 34  2  0
 34 35  1  0
  5  6  1  0
  6  7  1  0
  6  8  1  0
  8  9  1  0
 19 13  1  0
  8  3  1  0
 22 18  1  0
 34 28  1  0
 44 38  1  0
 24 27  1  0
 33 36  1  0
 35 37  1  0
  7 10  1  0
  9 11  1  0
M  END
> <minimizedAffinity>
-9.63196

> <CNNscore>
0.2850442231

> <CNNaffinity>
6.3254299164

> <CNN_VS>
1.8030272722

> <CNNaffinity_variance>
0.2457660884

$$$$
