


 24 25  0  0  0  0  0  0  0  0999 V2000
  -28.6401  -34.1310    7.9968 N   0  0  0  0  0  0  0  0  0  0  0  0
  -29.5865  -33.8729    7.9135 H   0  0  0  0  0  0  0  0  0  0  0  0
  -24.9565  -29.7332    8.4780 C   0  0  0  0  0  0  0  0  0  0  0  0
  -25.9162  -30.8777    8.3430 C   0  0  0  0  0  0  0  0  0  0  0  0
  -25.5719  -32.1522    8.7910 C   0  0  0  0  0  0  0  0  0  0  0  0
  -26.4810  -33.2101    8.6856 C   0  0  0  0  0  0  0  0  0  0  0  0
  -27.7667  -33.0316    8.1467 C   0  0  0  0  0  0  0  0  0  0  0  0
  -28.1222  -31.7320    7.7209 C   0  0  0  0  0  0  0  0  0  0  0  0
  -27.1976  -30.6732    7.8215 C   0  0  0  0  0  0  0  0  0  0  0  0
  -29.4450  -31.3743    7.1412 C   0  0  0  0  0  0  0  0  0  0  0  0
  -30.0741  -32.0432    6.3403 O   0  0  0  0  0  0  0  0  0  0  0  0
  -29.9039  -30.1767    7.5432 O   0  0  0  0  0  0  0  0  0  0  0  0
  -29.4129  -29.6697    8.1595 H   0  0  0  0  0  0  0  0  0  0  0  0
  -28.4293  -35.5261    7.9424 C   0  0  0  0  0  0  0  0  0  0  0  0
  -27.5345  -36.1556    8.8266 C   0  0  0  0  0  0  0  0  0  0  0  0
  -27.3656  -37.5413    8.8235 C   0  0  0  0  0  0  0  0  0  0  0  0
  -26.2554  -38.2691    9.9184 Cl  0  0  0  0  0  0  0  0  0  0  0  0
  -28.0856  -38.3384    7.9425 C   0  0  0  0  0  0  0  0  0  0  0  0
  -28.9774  -37.7422    7.0521 C   0  0  0  0  0  0  0  0  0  0  0  0
  -29.1558  -36.3455    7.0452 C   0  0  0  0  0  0  0  0  0  0  0  0
  -30.1020  -35.7410    6.0692 C   0  0  0  0  0  0  0  0  0  0  0  0
  -29.8162  -34.9969    5.1492 O   0  0  0  0  0  0  0  0  0  0  0  0
  -31.3807  -36.0965    6.2954 O   0  0  0  0  0  0  0  0  0  0  0  0
  -31.5888  -36.6700    7.0066 H   0  0  0  0  0  0  0  0  0  0  0  0
  3  4  1  0
  4  5  2  0
  5  6  1  0
  6  7  2  0
  7  1  1  0
  1 14  1  0
 14 15  2  0
 15 16  1  0
 16 17  1  0
 16 18  2  0
 18 19  1  0
 19 20  2  0
 20 21  1  0
 21 22  2  0
 21 23  1  0
  7  8  1  0
  8 10  1  0
 10 11  2  0
 10 12  1  0
  8  9  2  0
  9  4  1  0
 20 14  1  0
  1  2  1  0
 23 24  1  0
 12 13  1  0
M  END
> <minimizedAffinity>
-8.37279

> <CNNscore>
0.9509148002

> <CNNaffinity>
5.0741767883

> <CNN_VS>
4.8251099586

> <CNNaffinity_variance>
0.4491548538

$$$$



 24 25  0  0  0  0  0  0  0  0999 V2000
  -28.9681  -35.0828    7.9378 N   0  0  0  0  0  0  0  0  0  0  0  0
  -29.7384  -35.0614    8.5505 H   0  0  0  0  0  0  0  0  0  0  0  0
  -25.1615  -30.8169    8.6106 C   0  0  0  0  0  0  0  0  0  0  0  0
  -26.1512  -31.9283    8.4257 C   0  0  0  0  0  0  0  0  0  0  0  0
  -25.9896  -33.1433    9.0899 C   0  0  0  0  0  0  0  0  0  0  0  0
  -26.9298  -34.1672    8.9335 C   0  0  0  0  0  0  0  0  0  0  0  0
  -28.0688  -34.0103    8.1250 C   0  0  0  0  0  0  0  0  0  0  0  0
  -28.2440  -32.7669    7.4769 C   0  0  0  0  0  0  0  0  0  0  0  0
  -27.2876  -31.7436    7.6319 C   0  0  0  0  0  0  0  0  0  0  0  0
  -29.3990  -32.4368    6.5989 C   0  0  0  0  0  0  0  0  0  0  0  0
  -29.8197  -33.1284    5.6883 O   0  0  0  0  0  0  0  0  0  0  0  0
  -29.9480  -31.2378    6.8583 O   0  0  0  0  0  0  0  0  0  0  0  0
  -29.6175  -30.7132    7.5608 H   0  0  0  0  0  0  0  0  0  0  0  0
  -28.9849  -36.1797    7.0489 C   0  0  0  0  0  0  0  0  0  0  0  0
  -29.6451  -36.0941    5.8098 C   0  0  0  0  0  0  0  0  0  0  0  0
  -29.6149  -37.1497    4.8970 C   0  0  0  0  0  0  0  0  0  0  0  0
  -30.4419  -37.0045    3.3950 Cl  0  0  0  0  0  0  0  0  0  0  0  0
  -28.9235  -38.3181    5.1914 C   0  0  0  0  0  0  0  0  0  0  0  0
  -28.2623  -38.4332    6.4134 C   0  0  0  0  0  0  0  0  0  0  0  0
  -28.2863  -37.3754    7.3425 C   0  0  0  0  0  0  0  0  0  0  0  0
  -27.5853  -37.5391    8.6445 C   0  0  0  0  0  0  0  0  0  0  0  0
  -28.0987  -37.5403    9.7482 O   0  0  0  0  0  0  0  0  0  0  0  0
  -26.2549  -37.6910    8.5038 O   0  0  0  0  0  0  0  0  0  0  0  0
  -25.8709  -37.6885    7.6491 H   0  0  0  0  0  0  0  0  0  0  0  0
  3  4  1  0
  4  5  2  0
  5  6  1  0
  6  7  2  0
  7  1  1  0
  1 14  1  0
 14 15  2  0
 15 16  1  0
 16 17  1  0
 16 18  2  0
 18 19  1  0
 19 20  2  0
 20 21  1  0
 21 22  2  0
 21 23  1  0
  7  8  1  0
  8 10  1  0
 10 11  2  0
 10 12  1  0
  8  9  2  0
  9  4  1  0
 20 14  1  0
  1  2  1  0
 23 24  1  0
 12 13  1  0
M  END
> <minimizedAffinity>
-7.31167

> <CNNscore>
0.8365201354

> <CNNaffinity>
4.7728409767

> <CNN_VS>
3.9925775528

> <CNNaffinity_variance>
0.1502944380

$$$$



 24 25  0  0  0  0  0  0  0  0999 V2000
  -29.3265  -35.4523    7.9832 N   0  0  0  0  0  0  0  0  0  0  0  0
  -30.0444  -35.2646    7.3363 H   0  0  0  0  0  0  0  0  0  0  0  0
  -25.4354  -31.2454    8.5332 C   0  0  0  0  0  0  0  0  0  0  0  0
  -26.4457  -32.3432    8.3809 C   0  0  0  0  0  0  0  0  0  0  0  0
  -26.4511  -33.4316    9.2520 C   0  0  0  0  0  0  0  0  0  0  0  0
  -27.4120  -34.4397    9.1207 C   0  0  0  0  0  0  0  0  0  0  0  0
  -28.4079  -34.3900    8.1301 C   0  0  0  0  0  0  0  0  0  0  0  0
  -28.4167  -33.2704    7.2680 C   0  0  0  0  0  0  0  0  0  0  0  0
  -27.4396  -32.2636    7.4004 C   0  0  0  0  0  0  0  0  0  0  0  0
  -29.4085  -33.0614    6.1787 C   0  0  0  0  0  0  0  0  0  0  0  0
  -29.5372  -33.7627    5.1908 O   0  0  0  0  0  0  0  0  0  0  0  0
  -30.1624  -31.9604    6.3400 O   0  0  0  0  0  0  0  0  0  0  0  0
  -30.0560  -31.4274    7.1032 H   0  0  0  0  0  0  0  0  0  0  0  0
  -29.4225  -36.7296    8.5774 C   0  0  0  0  0  0  0  0  0  0  0  0
  -28.3058  -37.5826    8.6388 C   0  0  0  0  0  0  0  0  0  0  0  0
  -28.3730  -38.8211    9.2793 C   0  0  0  0  0  0  0  0  0  0  0  0
  -26.9840  -39.8358    9.3252 Cl  0  0  0  0  0  0  0  0  0  0  0  0
  -29.5529  -39.2426    9.8792 C   0  0  0  0  0  0  0  0  0  0  0  0
  -30.6774  -38.4198    9.8315 C   0  0  0  0  0  0  0  0  0  0  0  0
  -30.6220  -37.1687    9.1877 C   0  0  0  0  0  0  0  0  0  0  0  0
  -31.8458  -36.3242    9.1397 C   0  0  0  0  0  0  0  0  0  0  0  0
  -32.4418  -35.9691    8.1395 O   0  0  0  0  0  0  0  0  0  0  0  0
  -32.2707  -35.9536   10.3624 O   0  0  0  0  0  0  0  0  0  0  0  0
  -31.8039  -36.2329   11.1252 H   0  0  0  0  0  0  0  0  0  0  0  0
  3  4  1  0
  4  5  2  0
  5  6  1  0
  6  7  2  0
  7  1  1  0
  1 14  1  0
 14 15  2  0
 15 16  1  0
 16 17  1  0
 16 18  2  0
 18 19  1  0
 19 20  2  0
 20 21  1  0
 21 22  2  0
 21 23  1  0
  7  8  1  0
  8 10  1  0
 10 11  2  0
 10 12  1  0
  8  9  2  0
  9  4  1  0
 20 14  1  0
  1  2  1  0
 23 24  1  0
 12 13  1  0
M  END
> <minimizedAffinity>
-8.13406

> <CNNscore>
0.8072319031

> <CNNaffinity>
4.7402701378

> <CNN_VS>
3.8264973164

> <CNNaffinity_variance>
0.3125090897

$$$$



 24 25  0  0  0  0  0  0  0  0999 V2000
  -28.1927  -25.0054    2.3691 N   0  0  0  0  0  0  0  0  0  0  0  0
  -28.1550  -24.0636    2.6533 H   0  0  0  0  0  0  0  0  0  0  0  0
  -30.8312  -25.5959   -2.7133 C   0  0  0  0  0  0  0  0  0  0  0  0
  -30.1410  -25.4331   -1.3919 C   0  0  0  0  0  0  0  0  0  0  0  0
  -30.8580  -25.5158   -0.1992 C   0  0  0  0  0  0  0  0  0  0  0  0
  -30.2044  -25.3886    1.0310 C   0  0  0  0  0  0  0  0  0  0  0  0
  -28.8153  -25.1916    1.1154 C   0  0  0  0  0  0  0  0  0  0  0  0
  -28.0882  -25.1379   -0.0950 C   0  0  0  0  0  0  0  0  0  0  0  0
  -28.7550  -25.2573   -1.3307 C   0  0  0  0  0  0  0  0  0  0  0  0
  -26.6148  -24.9478   -0.1778 C   0  0  0  0  0  0  0  0  0  0  0  0
  -25.7734  -25.7692    0.1417 O   0  0  0  0  0  0  0  0  0  0  0  0
  -26.2519  -23.7266   -0.6059 O   0  0  0  0  0  0  0  0  0  0  0  0
  -26.9064  -23.1018   -0.8493 H   0  0  0  0  0  0  0  0  0  0  0  0
  -27.6132  -25.8981    3.2970 C   0  0  0  0  0  0  0  0  0  0  0  0
  -26.2846  -26.3344    3.1454 C   0  0  0  0  0  0  0  0  0  0  0  0
  -25.6818  -27.1666    4.0902 C   0  0  0  0  0  0  0  0  0  0  0  0
  -24.0558  -27.6814    3.8618 Cl  0  0  0  0  0  0  0  0  0  0  0  0
  -26.3843  -27.5844    5.2135 C   0  0  0  0  0  0  0  0  0  0  0  0
  -27.7041  -27.1708    5.3889 C   0  0  0  0  0  0  0  0  0  0  0  0
  -28.3231  -26.3320    4.4424 C   0  0  0  0  0  0  0  0  0  0  0  0
  -29.7386  -25.9247    4.6516 C   0  0  0  0  0  0  0  0  0  0  0  0
  -30.1324  -25.0031    5.3423 O   0  0  0  0  0  0  0  0  0  0  0  0
  -30.6087  -26.7035    3.9812 O   0  0  0  0  0  0  0  0  0  0  0  0
  -30.2939  -27.4101    3.4525 H   0  0  0  0  0  0  0  0  0  0  0  0
  3  4  1  0
  4  5  2  0
  5  6  1  0
  6  7  2  0
  7  1  1  0
  1 14  1  0
 14 15  2  0
 15 16  1  0
 16 17  1  0
 16 18  2  0
 18 19  1  0
 19 20  2  0
 20 21  1  0
 21 22  2  0
 21 23  1  0
  7  8  1  0
  8 10  1  0
 10 11  2  0
 10 12  1  0
  8  9  2  0
  9  4  1  0
 20 14  1  0
  1  2  1  0
 23 24  1  0
 12 13  1  0
M  END
> <minimizedAffinity>
-7.43788

> <CNNscore>
0.4511459470

> <CNNaffinity>
5.0888209343

> <CNN_VS>
2.2958009243

> <CNNaffinity_variance>
0.0120840790

$$$$



 24 25  0  0  0  0  0  0  0  0999 V2000
  -27.5973  -26.4447    4.8684 N   0  0  0  0  0  0  0  0  0  0  0  0
  -28.1028  -25.6659    5.1960 H   0  0  0  0  0  0  0  0  0  0  0  0
  -25.9460  -26.1892   -0.6405 C   0  0  0  0  0  0  0  0  0  0  0  0
  -26.3798  -26.2647    0.7931 C   0  0  0  0  0  0  0  0  0  0  0  0
  -25.4486  -26.1590    1.8251 C   0  0  0  0  0  0  0  0  0  0  0  0
  -25.8624  -26.2045    3.1606 C   0  0  0  0  0  0  0  0  0  0  0  0
  -27.2163  -26.3401    3.5127 C   0  0  0  0  0  0  0  0  0  0  0  0
  -28.1599  -26.4174    2.4637 C   0  0  0  0  0  0  0  0  0  0  0  0
  -27.7344  -26.3804    1.1208 C   0  0  0  0  0  0  0  0  0  0  0  0
  -29.6279  -26.5500    2.6672 C   0  0  0  0  0  0  0  0  0  0  0  0
  -30.3199  -27.4707    2.2698 O   0  0  0  0  0  0  0  0  0  0  0  0
  -30.1793  -25.5071    3.3111 O   0  0  0  0  0  0  0  0  0  0  0  0
  -29.6387  -24.8038    3.6130 H   0  0  0  0  0  0  0  0  0  0  0  0
  -27.3992  -27.4413    5.8488 C   0  0  0  0  0  0  0  0  0  0  0  0
  -26.1360  -27.6340    6.4369 C   0  0  0  0  0  0  0  0  0  0  0  0
  -25.9435  -28.5732    7.4514 C   0  0  0  0  0  0  0  0  0  0  0  0
  -24.3795  -28.7804    8.1385 Cl  0  0  0  0  0  0  0  0  0  0  0  0
  -27.0042  -29.3439    7.9106 C   0  0  0  0  0  0  0  0  0  0  0  0
  -28.2672  -29.1775    7.3443 C   0  0  0  0  0  0  0  0  0  0  0  0
  -28.4736  -28.2337    6.3198 C   0  0  0  0  0  0  0  0  0  0  0  0
  -29.8303  -28.0952    5.7254 C   0  0  0  0  0  0  0  0  0  0  0  0
  -30.5962  -27.1616    5.8787 O   0  0  0  0  0  0  0  0  0  0  0  0
  -30.1730  -29.1483    4.9595 O   0  0  0  0  0  0  0  0  0  0  0  0
  -29.5752  -29.8613    4.8488 H   0  0  0  0  0  0  0  0  0  0  0  0
  3  4  1  0
  4  5  2  0
  5  6  1  0
  6  7  2  0
  7  1  1  0
  1 14  1  0
 14 15  2  0
 15 16  1  0
 16 17  1  0
 16 18  2  0
 18 19  1  0
 19 20  2  0
 20 21  1  0
 21 22  2  0
 21 23  1  0
  7  8  1  0
  8 10  1  0
 10 11  2  0
 10 12  1  0
  8  9  2  0
  9  4  1  0
 20 14  1  0
  1  2  1  0
 23 24  1  0
 12 13  1  0
M  END
> <minimizedAffinity>
-7.72738

> <CNNscore>
0.4313652217

> <CNNaffinity>
5.2793431282

> <CNN_VS>
2.2773249149

> <CNNaffinity_variance>
0.1594195217

$$$$



 24 25  0  0  0  0  0  0  0  0999 V2000
  -26.5729  -28.7268    7.8763 N   0  0  0  0  0  0  0  0  0  0  0  0
  -26.1477  -28.3486    8.6797 H   0  0  0  0  0  0  0  0  0  0  0  0
  -27.4760  -34.3863    8.4198 C   0  0  0  0  0  0  0  0  0  0  0  0
  -27.2472  -32.9103    8.2853 C   0  0  0  0  0  0  0  0  0  0  0  0
  -25.9805  -32.3647    8.4887 C   0  0  0  0  0  0  0  0  0  0  0  0
  -25.7680  -30.9905    8.3368 C   0  0  0  0  0  0  0  0  0  0  0  0
  -26.8036  -30.1173    7.9620 C   0  0  0  0  0  0  0  0  0  0  0  0
  -28.0792  -30.6785    7.7282 C   0  0  0  0  0  0  0  0  0  0  0  0
  -28.2878  -32.0625    7.8925 C   0  0  0  0  0  0  0  0  0  0  0  0
  -29.2746  -29.8952    7.3143 C   0  0  0  0  0  0  0  0  0  0  0  0
  -29.5142  -29.5085    6.1840 O   0  0  0  0  0  0  0  0  0  0  0  0
  -30.0937  -29.5829    8.3331 O   0  0  0  0  0  0  0  0  0  0  0  0
  -29.9009  -29.8850    9.1989 H   0  0  0  0  0  0  0  0  0  0  0  0
  -26.8294  -27.7697    6.8704 C   0  0  0  0  0  0  0  0  0  0  0  0
  -26.2431  -27.8863    5.5972 C   0  0  0  0  0  0  0  0  0  0  0  0
  -26.5389  -26.9813    4.5764 C   0  0  0  0  0  0  0  0  0  0  0  0
  -25.7938  -27.1580    3.0354 Cl  0  0  0  0  0  0  0  0  0  0  0  0
  -27.4292  -25.9374    4.7944 C   0  0  0  0  0  0  0  0  0  0  0  0
  -28.0233  -25.7945    6.0475 C   0  0  0  0  0  0  0  0  0  0  0  0
  -27.7323  -26.7007    7.0852 C   0  0  0  0  0  0  0  0  0  0  0  0
  -28.3700  -26.5076    8.4153 C   0  0  0  0  0  0  0  0  0  0  0  0
  -29.5427  -26.6858    8.6888 O   0  0  0  0  0  0  0  0  0  0  0  0
  -27.4999  -26.0900    9.3541 O   0  0  0  0  0  0  0  0  0  0  0  0
  -26.5995  -25.9563    9.1319 H   0  0  0  0  0  0  0  0  0  0  0  0
  3  4  1  0
  4  5  2  0
  5  6  1  0
  6  7  2  0
  7  1  1  0
  1 14  1  0
 14 15  2  0
 15 16  1  0
 16 17  1  0
 16 18  2  0
 18 19  1  0
 19 20  2  0
 20 21  1  0
 21 22  2  0
 21 23  1  0
  7  8  1  0
  8 10  1  0
 10 11  2  0
 10 12  1  0
  8  9  2  0
  9  4  1  0
 20 14  1  0
  1  2  1  0
 23 24  1  0
 12 13  1  0
M  END
> <minimizedAffinity>
-9.22299

> <CNNscore>
0.3874045014

> <CNNaffinity>
5.0823712349

> <CNN_VS>
1.9689334631

> <CNNaffinity_variance>
0.4205787182

$$$$



 24 25  0  0  0  0  0  0  0  0999 V2000
  -27.5152  -28.3203    7.0656 N   0  0  0  0  0  0  0  0  0  0  0  0
  -28.0852  -27.8197    7.6931 H   0  0  0  0  0  0  0  0  0  0  0  0
  -27.0586  -26.0617    1.7902 C   0  0  0  0  0  0  0  0  0  0  0  0
  -27.1812  -26.6583    3.1606 C   0  0  0  0  0  0  0  0  0  0  0  0
  -26.0564  -26.8276    3.9666 C   0  0  0  0  0  0  0  0  0  0  0  0
  -26.1806  -27.3610    5.2538 C   0  0  0  0  0  0  0  0  0  0  0  0
  -27.4284  -27.7277    5.7869 C   0  0  0  0  0  0  0  0  0  0  0  0
  -28.5693  -27.5270    4.9777 C   0  0  0  0  0  0  0  0  0  0  0  0
  -28.4350  -26.9981    3.6784 C   0  0  0  0  0  0  0  0  0  0  0  0
  -29.9597  -27.8505    5.3972 C   0  0  0  0  0  0  0  0  0  0  0  0
  -30.8743  -27.0523    5.5011 O   0  0  0  0  0  0  0  0  0  0  0  0
  -30.1390  -29.1432    5.7185 O   0  0  0  0  0  0  0  0  0  0  0  0
  -29.4294  -29.7494    5.6351 H   0  0  0  0  0  0  0  0  0  0  0  0
  -26.9492  -29.4864    7.6256 C   0  0  0  0  0  0  0  0  0  0  0  0
  -27.5687  -30.7388    7.4631 C   0  0  0  0  0  0  0  0  0  0  0  0
  -26.9857  -31.9064    7.9583 C   0  0  0  0  0  0  0  0  0  0  0  0
  -27.7815  -33.4168    7.7424 Cl  0  0  0  0  0  0  0  0  0  0  0  0
  -25.7682  -31.8596    8.6257 C   0  0  0  0  0  0  0  0  0  0  0  0
  -25.1322  -30.6319    8.8049 C   0  0  0  0  0  0  0  0  0  0  0  0
  -25.7109  -29.4472    8.3105 C   0  0  0  0  0  0  0  0  0  0  0  0
  -25.0140  -28.1522    8.5355 C   0  0  0  0  0  0  0  0  0  0  0  0
  -23.8382  -27.9168    8.3266 O   0  0  0  0  0  0  0  0  0  0  0  0
  -25.8309  -27.1994    9.0230 O   0  0  0  0  0  0  0  0  0  0  0  0
  -26.7344  -27.3922    9.1799 H   0  0  0  0  0  0  0  0  0  0  0  0
  3  4  1  0
  4  5  2  0
  5  6  1  0
  6  7  2  0
  7  1  1  0
  1 14  1  0
 14 15  2  0
 15 16  1  0
 16 17  1  0
 16 18  2  0
 18 19  1  0
 19 20  2  0
 20 21  1  0
 21 22  2  0
 21 23  1  0
  7  8  1  0
  8 10  1  0
 10 11  2  0
 10 12  1  0
  8  9  2  0
  9  4  1  0
 20 14  1  0
  1  2  1  0
 23 24  1  0
 12 13  1  0
M  END
> <minimizedAffinity>
-8.86364

> <CNNscore>
0.3555707335

> <CNNaffinity>
4.8236408234

> <CNN_VS>
1.7151454687

> <CNNaffinity_variance>
0.1743568927

$$$$



 24 25  0  0  0  0  0  0  0  0999 V2000
  -28.9645  -25.1374    1.6960 N   0  0  0  0  0  0  0  0  0  0  0  0
  -29.6034  -24.5203    2.1205 H   0  0  0  0  0  0  0  0  0  0  0  0
  -28.9126  -25.0752   -4.0602 C   0  0  0  0  0  0  0  0  0  0  0  0
  -28.9258  -25.1012   -2.5608 C   0  0  0  0  0  0  0  0  0  0  0  0
  -27.9120  -24.4845   -1.8291 C   0  0  0  0  0  0  0  0  0  0  0  0
  -27.9434  -24.4900   -0.4306 C   0  0  0  0  0  0  0  0  0  0  0  0
  -28.9915  -25.0943    0.2849 C   0  0  0  0  0  0  0  0  0  0  0  0
  -30.0320  -25.6926   -0.4608 C   0  0  0  0  0  0  0  0  0  0  0  0
  -29.9886  -25.6913   -1.8694 C   0  0  0  0  0  0  0  0  0  0  0  0
  -31.2162  -26.3612    0.1430 C   0  0  0  0  0  0  0  0  0  0  0  0
  -32.3614  -25.9470    0.1065 O   0  0  0  0  0  0  0  0  0  0  0  0
  -30.9168  -27.4892    0.8096 O   0  0  0  0  0  0  0  0  0  0  0  0
  -30.0330  -27.7997    0.8319 H   0  0  0  0  0  0  0  0  0  0  0  0
  -28.2056  -25.8874    2.6209 C   0  0  0  0  0  0  0  0  0  0  0  0
  -26.8042  -25.9532    2.5191 C   0  0  0  0  0  0  0  0  0  0  0  0
  -26.0395  -26.6396    3.4639 C   0  0  0  0  0  0  0  0  0  0  0  0
  -24.3278  -26.6997    3.2972 Cl  0  0  0  0  0  0  0  0  0  0  0  0
  -26.6488  -27.2763    4.5378 C   0  0  0  0  0  0  0  0  0  0  0  0
  -28.0366  -27.2311    4.6630 C   0  0  0  0  0  0  0  0  0  0  0  0
  -28.8187  -26.5425    3.7159 C   0  0  0  0  0  0  0  0  0  0  0  0
  -30.2983  -26.5301    3.8700 C   0  0  0  0  0  0  0  0  0  0  0  0
  -31.0334  -27.5002    3.8806 O   0  0  0  0  0  0  0  0  0  0  0  0
  -30.7975  -25.2865    4.0009 O   0  0  0  0  0  0  0  0  0  0  0  0
  -30.2219  -24.5472    3.9913 H   0  0  0  0  0  0  0  0  0  0  0  0
  3  4  1  0
  4  5  2  0
  5  6  1  0
  6  7  2  0
  7  1  1  0
  1 14  1  0
 14 15  2  0
 15 16  1  0
 16 17  1  0
 16 18  2  0
 18 19  1  0
 19 20  2  0
 20 21  1  0
 21 22  2  0
 21 23  1  0
  7  8  1  0
  8 10  1  0
 10 11  2  0
 10 12  1  0
  8  9  2  0
  9  4  1  0
 20 14  1  0
  1  2  1  0
 23 24  1  0
 12 13  1  0
M  END
> <minimizedAffinity>
-7.63289

> <CNNscore>
0.3091485500

> <CNNaffinity>
4.0014710426

> <CNN_VS>
1.2370489836

> <CNNaffinity_variance>
0.5892973542

$$$$



 24 25  0  0  0  0  0  0  0  0999 V2000
  -28.0200  -27.5114    5.4447 N   0  0  0  0  0  0  0  0  0  0  0  0
  -28.9534  -27.8220    5.4068 H   0  0  0  0  0  0  0  0  0  0  0  0
  -25.9615  -25.8122    0.3441 C   0  0  0  0  0  0  0  0  0  0  0  0
  -26.5031  -26.2616    1.6684 C   0  0  0  0  0  0  0  0  0  0  0  0
  -25.6491  -26.7356    2.6631 C   0  0  0  0  0  0  0  0  0  0  0  0
  -26.1575  -27.1293    3.9054 C   0  0  0  0  0  0  0  0  0  0  0  0
  -27.5286  -27.0492    4.2042 C   0  0  0  0  0  0  0  0  0  0  0  0
  -28.3870  -26.5407    3.2035 C   0  0  0  0  0  0  0  0  0  0  0  0
  -27.8686  -26.1550    1.9512 C   0  0  0  0  0  0  0  0  0  0  0  0
  -29.8574  -26.3805    3.3651 C   0  0  0  0  0  0  0  0  0  0  0  0
  -30.7108  -26.9864    2.7415 O   0  0  0  0  0  0  0  0  0  0  0  0
  -30.2020  -25.4372    4.2583 O   0  0  0  0  0  0  0  0  0  0  0  0
  -29.5383  -24.9766    4.7330 H   0  0  0  0  0  0  0  0  0  0  0  0
  -27.4421  -27.6178    6.7286 C   0  0  0  0  0  0  0  0  0  0  0  0
  -26.5800  -28.6831    7.0458 C   0  0  0  0  0  0  0  0  0  0  0  0
  -25.9540  -28.7640    8.2908 C   0  0  0  0  0  0  0  0  0  0  0  0
  -24.9117  -30.0882    8.6387 Cl  0  0  0  0  0  0  0  0  0  0  0  0
  -26.1664  -27.7846    9.2528 C   0  0  0  0  0  0  0  0  0  0  0  0
  -27.0185  -26.7184    8.9682 C   0  0  0  0  0  0  0  0  0  0  0  0
  -27.6562  -26.6264    7.7162 C   0  0  0  0  0  0  0  0  0  0  0  0
  -28.5734  -25.4851    7.4528 C   0  0  0  0  0  0  0  0  0  0  0  0
  -29.7394  -25.5571    7.1111 O   0  0  0  0  0  0  0  0  0  0  0  0
  -27.9795  -24.2893    7.6269 O   0  0  0  0  0  0  0  0  0  0  0  0
  -27.0813  -24.2462    7.8901 H   0  0  0  0  0  0  0  0  0  0  0  0
  3  4  1  0
  4  5  2  0
  5  6  1  0
  6  7  2  0
  7  1  1  0
  1 14  1  0
 14 15  2  0
 15 16  1  0
 16 17  1  0
 16 18  2  0
 18 19  1  0
 19 20  2  0
 20 21  1  0
 21 22  2  0
 21 23  1  0
  7  8  1  0
  8 10  1  0
 10 11  2  0
 10 12  1  0
  8  9  2  0
  9  4  1  0
 20 14  1  0
  1  2  1  0
 23 24  1  0
 12 13  1  0
M  END
> <minimizedAffinity>
-8.49154

> <CNNscore>
0.3057618141

> <CNNaffinity>
5.3358654976

> <CNN_VS>
1.6315039396

> <CNNaffinity_variance>
0.1946779937

$$$$
