


 31 34  0  0  0  0  0  0  0  0999 V2000
   59.3121   15.8559   48.9380 C   0  0  0  0  0  0  0  0  0  0  0  0
   59.3002   15.9233   50.3348 C   0  0  0  0  0  0  0  0  0  0  0  0
   58.5811   14.9917   51.0978 C   0  0  0  0  0  0  0  0  0  0  0  0
   57.8515   13.9823   50.4402 C   0  0  0  0  0  0  0  0  0  0  0  0
   57.0241   12.8823   50.8258 C   0  0  0  0  0  0  0  0  0  0  0  0
   56.5601   12.2253   49.7531 N   0  0  0  0  0  0  0  0  0  0  0  0
   57.0865   12.8804   48.7094 N   0  0  0  0  0  0  0  0  0  0  0  0
   57.8704   13.9478   49.0505 C   0  0  0  0  0  0  0  0  0  0  0  0
   58.5823   14.8644   48.2672 C   0  0  0  0  0  0  0  0  0  0  0  0
   56.9226   12.6155   47.7754 H   0  0  0  0  0  0  0  0  0  0  0  0
   56.7177   12.5242   52.1813 C   0  0  0  0  0  0  0  0  0  0  0  0
   57.1637   13.1833   53.2653 C   0  0  0  0  0  0  0  0  0  0  0  0
   56.8519   12.8415   54.6544 C   0  0  0  0  0  0  0  0  0  0  0  0
   55.6147   12.3413   55.0546 C   0  0  0  0  0  0  0  0  0  0  0  0
   55.4183   12.0130   56.3970 C   0  0  0  0  0  0  0  0  0  0  0  0
   56.4618   12.1883   57.2952 C   0  0  0  0  0  0  0  0  0  0  0  0
   56.2445   11.7631   59.1179 Br  0  0  0  0  0  0  0  0  0  0  0  0
   57.6649   12.6769   56.8164 C   0  0  0  0  0  0  0  0  0  0  0  0
   57.8823   12.9989   55.5181 N   0  0  0  0  0  0  0  0  0  0  0  0
   60.2401   17.0450   47.9765 S   0  0  0  0  0  0  0  0  0  0  0  0
   62.7877   17.9047   48.8832 C   0  0  0  0  0  0  0  0  0  0  0  0
   64.0021   17.6625   49.5490 C   0  0  0  0  0  0  0  0  0  0  0  0
   64.3145   16.3880   50.0201 C   0  0  0  0  0  0  0  0  0  0  0  0
   63.4145   15.3451   49.8376 C   0  0  0  0  0  0  0  0  0  0  0  0
   62.1967   15.5785   49.1948 C   0  0  0  0  0  0  0  0  0  0  0  0
   61.8611   16.8588   48.7213 C   0  0  0  0  0  0  0  0  0  0  0  0
   63.5304   21.5689   48.2310 C   0  0  0  0  0  0  0  0  0  0  0  0
   63.5840   20.1990   48.6746 N   0  0  0  0  0  0  0  0  0  0  0  0
   62.5728   19.3028   48.4195 C   0  0  0  0  0  0  0  0  0  0  0  0
   61.5165   19.6042   47.8756 O   0  0  0  0  0  0  0  0  0  0  0  0
   64.3728   19.8937   49.1783 H   0  0  0  0  0  0  0  0  0  0  0  0
 27 28  1  0
 28 29  1  0
 29 30  2  0
 29 21  1  0
 21 22  2  0
 22 23  1  0
 23 24  2  0
 24 25  1  0
 25 26  2  0
 26 20  1  0
 20  1  1  0
  1  2  2  0
  2  3  1  0
  3  4  2  0
  4  5  1  0
  5 11  1  0
 11 12  2  0
 12 13  1  0
 13 14  2  0
 14 15  1  0
 15 16  2  0
 16 17  1  0
 16 18  1  0
 18 19  2  0
  5  6  2  0
  6  7  1  0
  7  8  1  0
  8  9  2  0
 26 21  1  0
  9  1  1  0
  8  4  1  0
 19 13  1  0
 28 31  1  0
  7 10  1  0
M  END
> <minimizedAffinity>
-11.60771

> <CNNscore>
0.9892962575

> <CNNaffinity>
8.1967248917

> <CNN_VS>
8.1089897156

> <CNNaffinity_variance>
0.0307027996

$$$$



 31 34  0  0  0  0  0  0  0  0999 V2000
   59.7119   16.0268   48.1323 C   0  0  0  0  0  0  0  0  0  0  0  0
   59.8874   16.3065   49.4912 C   0  0  0  0  0  0  0  0  0  0  0  0
   59.2229   15.5599   50.4752 C   0  0  0  0  0  0  0  0  0  0  0  0
   58.3569   14.5213   50.0812 C   0  0  0  0  0  0  0  0  0  0  0  0
   57.5262   13.5596   50.7356 C   0  0  0  0  0  0  0  0  0  0  0  0
   56.8887   12.7847   49.8464 N   0  0  0  0  0  0  0  0  0  0  0  0
   57.3098   13.2310   48.6551 N   0  0  0  0  0  0  0  0  0  0  0  0
   58.1912   14.2744   48.7231 C   0  0  0  0  0  0  0  0  0  0  0  0
   58.8450   15.0038   47.7226 C   0  0  0  0  0  0  0  0  0  0  0  0
   57.0098   12.8406   47.8026 H   0  0  0  0  0  0  0  0  0  0  0  0
   57.3806   13.4365   52.1579 C   0  0  0  0  0  0  0  0  0  0  0  0
   56.9263   12.3385   52.7874 C   0  0  0  0  0  0  0  0  0  0  0  0
   56.7829   12.1891   54.2368 C   0  0  0  0  0  0  0  0  0  0  0  0
   55.9152   11.2707   54.8240 C   0  0  0  0  0  0  0  0  0  0  0  0
   55.8685   11.1763   56.2158 C   0  0  0  0  0  0  0  0  0  0  0  0
   56.6913   11.9952   56.9767 C   0  0  0  0  0  0  0  0  0  0  0  0
   56.6620   11.9076   58.8586 Br  0  0  0  0  0  0  0  0  0  0  0  0
   57.5358   12.8714   56.3177 C   0  0  0  0  0  0  0  0  0  0  0  0
   57.6031   12.9792   54.9685 N   0  0  0  0  0  0  0  0  0  0  0  0
   60.5717   16.9809   46.8873 S   0  0  0  0  0  0  0  0  0  0  0  0
   62.7611   17.3527   48.6535 C   0  0  0  0  0  0  0  0  0  0  0  0
   63.6288   18.1892   49.3775 C   0  0  0  0  0  0  0  0  0  0  0  0
   63.4257   19.5682   49.4110 C   0  0  0  0  0  0  0  0  0  0  0  0
   62.3592   20.1257   48.7162 C   0  0  0  0  0  0  0  0  0  0  0  0
   61.5024   19.3063   47.9779 C   0  0  0  0  0  0  0  0  0  0  0  0
   61.6971   17.9151   47.9254 C   0  0  0  0  0  0  0  0  0  0  0  0
   63.6815   13.9794   50.1291 C   0  0  0  0  0  0  0  0  0  0  0  0
   63.4092   15.3804   49.9308 N   0  0  0  0  0  0  0  0  0  0  0  0
   63.0762   15.8986   48.7015 C   0  0  0  0  0  0  0  0  0  0  0  0
   63.0639   15.2424   47.6663 O   0  0  0  0  0  0  0  0  0  0  0  0
   63.4635   15.9885   50.7032 H   0  0  0  0  0  0  0  0  0  0  0  0
 27 28  1  0
 28 29  1  0
 29 30  2  0
 29 21  1  0
 21 22  2  0
 22 23  1  0
 23 24  2  0
 24 25  1  0
 25 26  2  0
 26 20  1  0
 20  1  1  0
  1  2  2  0
  2  3  1  0
  3  4  2  0
  4  5  1  0
  5 11  1  0
 11 12  2  0
 12 13  1  0
 13 14  2  0
 14 15  1  0
 15 16  2  0
 16 17  1  0
 16 18  1  0
 18 19  2  0
  5  6  2  0
  6  7  1  0
  7  8  1  0
  8  9  2  0
 26 21  1  0
  9  1  1  0
  8  4  1  0
 19 13  1  0
 28 31  1  0
  7 10  1  0
M  END
> <minimizedAffinity>
-9.73957

> <CNNscore>
0.9734899402

> <CNNaffinity>
8.3080854416

> <CNN_VS>
8.0878372192

> <CNNaffinity_variance>
0.0127227651

$$$$



 31 34  0  0  0  0  0  0  0  0999 V2000
   58.8972   15.8684   49.6466 C   0  0  0  0  0  0  0  0  0  0  0  0
   58.9001   15.8150   51.0440 C   0  0  0  0  0  0  0  0  0  0  0  0
   58.2665   14.7680   51.7293 C   0  0  0  0  0  0  0  0  0  0  0  0
   57.6083   13.7642   50.9926 C   0  0  0  0  0  0  0  0  0  0  0  0
   56.8746   12.5736   51.2882 C   0  0  0  0  0  0  0  0  0  0  0  0
   56.4478   11.9761   50.1664 N   0  0  0  0  0  0  0  0  0  0  0  0
   56.9067   12.7573   49.1791 N   0  0  0  0  0  0  0  0  0  0  0  0
   57.6100   13.8500   49.6050 C   0  0  0  0  0  0  0  0  0  0  0  0
   58.2372   14.8834   48.8983 C   0  0  0  0  0  0  0  0  0  0  0  0
   56.7505   12.5610   48.2270 H   0  0  0  0  0  0  0  0  0  0  0  0
   56.6163   12.0781   52.6100 C   0  0  0  0  0  0  0  0  0  0  0  0
   56.8372   12.7696   53.7420 C   0  0  0  0  0  0  0  0  0  0  0  0
   56.5682   12.2868   55.0979 C   0  0  0  0  0  0  0  0  0  0  0  0
   56.3501   13.1386   56.1785 C   0  0  0  0  0  0  0  0  0  0  0  0
   56.0691   12.5877   57.4299 C   0  0  0  0  0  0  0  0  0  0  0  0
   56.0090   11.2074   57.5626 C   0  0  0  0  0  0  0  0  0  0  0  0
   55.6368   10.4163   59.2316 Br  0  0  0  0  0  0  0  0  0  0  0  0
   56.2236   10.4300   56.4380 C   0  0  0  0  0  0  0  0  0  0  0  0
   56.4937   10.9400   55.2118 N   0  0  0  0  0  0  0  0  0  0  0  0
   59.7161   17.2045   48.7842 S   0  0  0  0  0  0  0  0  0  0  0  0
   61.1589   16.8279   46.3700 C   0  0  0  0  0  0  0  0  0  0  0  0
   61.4960   16.0518   45.2472 C   0  0  0  0  0  0  0  0  0  0  0  0
   60.8452   14.8450   44.9938 C   0  0  0  0  0  0  0  0  0  0  0  0
   59.8572   14.3982   45.8627 C   0  0  0  0  0  0  0  0  0  0  0  0
   59.5276   15.1516   46.9917 C   0  0  0  0  0  0  0  0  0  0  0  0
   60.1794   16.3660   47.2679 C   0  0  0  0  0  0  0  0  0  0  0  0
   62.7811   19.7871   48.1065 C   0  0  0  0  0  0  0  0  0  0  0  0
   62.0275   18.5964   47.8049 N   0  0  0  0  0  0  0  0  0  0  0  0
   61.9169   18.0993   46.5278 C   0  0  0  0  0  0  0  0  0  0  0  0
   62.3701   18.6603   45.5367 O   0  0  0  0  0  0  0  0  0  0  0  0
   61.5757   18.1219   48.5397 H   0  0  0  0  0  0  0  0  0  0  0  0
 27 28  1  0
 28 29  1  0
 29 30  2  0
 29 21  1  0
 21 22  2  0
 22 23  1  0
 23 24  2  0
 24 25  1  0
 25 26  2  0
 26 20  1  0
 20  1  1  0
  1  2  2  0
  2  3  1  0
  3  4  2  0
  4  5  1  0
  5 11  1  0
 11 12  2  0
 12 13  1  0
 13 14  2  0
 14 15  1  0
 15 16  2  0
 16 17  1  0
 16 18  1  0
 18 19  2  0
  5  6  2  0
  6  7  1  0
  7  8  1  0
  8  9  2  0
 26 21  1  0
  9  1  1  0
  8  4  1  0
 19 13  1  0
 28 31  1  0
  7 10  1  0
M  END
> <minimizedAffinity>
-8.96883

> <CNNscore>
0.8851314187

> <CNNaffinity>
7.8712997437

> <CNN_VS>
6.9671344757

> <CNNaffinity_variance>
0.0062894393

$$$$



 31 34  0  0  0  0  0  0  0  0999 V2000
   58.4136   15.2954   48.6935 C   0  0  0  0  0  0  0  0  0  0  0  0
   58.9078   15.7891   49.9050 C   0  0  0  0  0  0  0  0  0  0  0  0
   58.6571   15.1232   51.1137 C   0  0  0  0  0  0  0  0  0  0  0  0
   57.8842   13.9459   51.1016 C   0  0  0  0  0  0  0  0  0  0  0  0
   57.4184   13.0014   52.0682 C   0  0  0  0  0  0  0  0  0  0  0  0
   56.6879   12.0369   51.4905 N   0  0  0  0  0  0  0  0  0  0  0  0
   56.6963   12.3494   50.1875 N   0  0  0  0  0  0  0  0  0  0  0  0
   57.3945   13.4857   49.8846 C   0  0  0  0  0  0  0  0  0  0  0  0
   57.6332   14.1310   48.6651 C   0  0  0  0  0  0  0  0  0  0  0  0
   56.2384   11.8067   49.5056 H   0  0  0  0  0  0  0  0  0  0  0  0
   57.6857   13.0717   53.4764 C   0  0  0  0  0  0  0  0  0  0  0  0
   56.8238   12.6954   54.4376 C   0  0  0  0  0  0  0  0  0  0  0  0
   57.0826   12.7473   55.8777 C   0  0  0  0  0  0  0  0  0  0  0  0
   56.0764   12.9252   56.8247 C   0  0  0  0  0  0  0  0  0  0  0  0
   56.4135   12.9299   58.1792 C   0  0  0  0  0  0  0  0  0  0  0  0
   57.7402   12.7516   58.5461 C   0  0  0  0  0  0  0  0  0  0  0  0
   58.2455   12.7538   60.3612 Br  0  0  0  0  0  0  0  0  0  0  0  0
   58.6786   12.5668   57.5458 C   0  0  0  0  0  0  0  0  0  0  0  0
   58.3767   12.5539   56.2248 N   0  0  0  0  0  0  0  0  0  0  0  0
   58.7475   16.1494   47.1577 S   0  0  0  0  0  0  0  0  0  0  0  0
   61.3073   17.3130   46.7770 C   0  0  0  0  0  0  0  0  0  0  0  0
   62.3695   18.1202   47.2207 C   0  0  0  0  0  0  0  0  0  0  0  0
   62.3630   18.6640   48.5046 C   0  0  0  0  0  0  0  0  0  0  0  0
   61.2928   18.4132   49.3547 C   0  0  0  0  0  0  0  0  0  0  0  0
   60.2231   17.6287   48.9177 C   0  0  0  0  0  0  0  0  0  0  0  0
   60.2084   17.0797   47.6237 C   0  0  0  0  0  0  0  0  0  0  0  0
   61.8657   17.3240   43.0231 C   0  0  0  0  0  0  0  0  0  0  0  0
   61.6672   17.7055   44.3984 N   0  0  0  0  0  0  0  0  0  0  0  0
   61.4333   16.7836   45.3914 C   0  0  0  0  0  0  0  0  0  0  0  0
   61.2909   15.5835   45.1870 O   0  0  0  0  0  0  0  0  0  0  0  0
   61.7001   18.6604   44.6356 H   0  0  0  0  0  0  0  0  0  0  0  0
 27 28  1  0
 28 29  1  0
 29 30  2  0
 29 21  1  0
 21 22  2  0
 22 23  1  0
 23 24  2  0
 24 25  1  0
 25 26  2  0
 26 20  1  0
 20  1  1  0
  1  2  2  0
  2  3  1  0
  3  4  2  0
  4  5  1  0
  5 11  1  0
 11 12  2  0
 12 13  1  0
 13 14  2  0
 14 15  1  0
 15 16  2  0
 16 17  1  0
 16 18  1  0
 18 19  2  0
  5  6  2  0
  6  7  1  0
  7  8  1  0
  8  9  2  0
 26 21  1  0
  9  1  1  0
  8  4  1  0
 19 13  1  0
 28 31  1  0
  7 10  1  0
M  END
> <minimizedAffinity>
-10.33427

> <CNNscore>
0.8509879708

> <CNNaffinity>
7.8243575096

> <CNN_VS>
6.6584339142

> <CNNaffinity_variance>
0.0092236912

$$$$



 31 34  0  0  0  0  0  0  0  0999 V2000
   53.9769   11.4752   57.5802 C   0  0  0  0  0  0  0  0  0  0  0  0
   53.6560   12.0511   56.3469 C   0  0  0  0  0  0  0  0  0  0  0  0
   54.6543   12.5681   55.5083 C   0  0  0  0  0  0  0  0  0  0  0  0
   55.9982   12.5144   55.9264 C   0  0  0  0  0  0  0  0  0  0  0  0
   57.2657   12.9080   55.3956 C   0  0  0  0  0  0  0  0  0  0  0  0
   58.2596   12.6152   56.2466 N   0  0  0  0  0  0  0  0  0  0  0  0
   57.6453   12.0388   57.2887 N   0  0  0  0  0  0  0  0  0  0  0  0
   56.2865   11.9486   57.1632 C   0  0  0  0  0  0  0  0  0  0  0  0
   55.3083   11.4238   58.0166 C   0  0  0  0  0  0  0  0  0  0  0  0
   58.1313   11.7081   58.0784 H   0  0  0  0  0  0  0  0  0  0  0  0
   57.4591   13.5414   54.1226 C   0  0  0  0  0  0  0  0  0  0  0  0
   57.6507   12.8860   52.9641 C   0  0  0  0  0  0  0  0  0  0  0  0
   57.8367   13.5136   51.6544 C   0  0  0  0  0  0  0  0  0  0  0  0
   58.6207   14.6488   51.4602 C   0  0  0  0  0  0  0  0  0  0  0  0
   58.7663   15.1593   50.1693 C   0  0  0  0  0  0  0  0  0  0  0  0
   58.1313   14.5195   49.1139 C   0  0  0  0  0  0  0  0  0  0  0  0
   58.2945   15.1723   47.3541 Br  0  0  0  0  0  0  0  0  0  0  0  0
   57.3818   13.3886   49.3874 C   0  0  0  0  0  0  0  0  0  0  0  0
   57.2283   12.8708   50.6302 N   0  0  0  0  0  0  0  0  0  0  0  0
   52.6952   10.8117   58.6369 S   0  0  0  0  0  0  0  0  0  0  0  0
   50.4185    9.8765   57.2249 C   0  0  0  0  0  0  0  0  0  0  0  0
   49.8337    9.0853   56.2206 C   0  0  0  0  0  0  0  0  0  0  0  0
   50.6061    8.1968   55.4736 C   0  0  0  0  0  0  0  0  0  0  0  0
   51.9704    8.0953   55.7170 C   0  0  0  0  0  0  0  0  0  0  0  0
   52.5653    8.8905   56.6990 C   0  0  0  0  0  0  0  0  0  0  0  0
   51.8039    9.7982   57.4556 C   0  0  0  0  0  0  0  0  0  0  0  0
   48.2713   12.9242   57.9353 C   0  0  0  0  0  0  0  0  0  0  0  0
   49.1983   11.9822   57.3612 N   0  0  0  0  0  0  0  0  0  0  0  0
   49.4897   10.7788   57.9592 C   0  0  0  0  0  0  0  0  0  0  0  0
   49.0600   10.4416   59.0565 O   0  0  0  0  0  0  0  0  0  0  0  0
   49.6389   12.2083   56.5103 H   0  0  0  0  0  0  0  0  0  0  0  0
 27 28  1  0
 28 29  1  0
 29 30  2  0
 29 21  1  0
 21 22  2  0
 22 23  1  0
 23 24  2  0
 24 25  1  0
 25 26  2  0
 26 20  1  0
 20  1  1  0
  1  2  2  0
  2  3  1  0
  3  4  2  0
  4  5  1  0
  5 11  1  0
 11 12  2  0
 12 13  1  0
 13 14  2  0
 14 15  1  0
 15 16  2  0
 16 17  1  0
 16 18  1  0
 18 19  2  0
  5  6  2  0
  6  7  1  0
  7  8  1  0
  8  9  2  0
 26 21  1  0
  9  1  1  0
  8  4  1  0
 19 13  1  0
 28 31  1  0
  7 10  1  0
M  END
> <minimizedAffinity>
-8.09938

> <CNNscore>
0.5503432155

> <CNNaffinity>
7.0681977272

> <CNN_VS>
3.8899347782

> <CNNaffinity_variance>
0.0312120393

$$$$



 31 34  0  0  0  0  0  0  0  0999 V2000
   50.5335    5.4544   43.0499 C   0  0  0  0  0  0  0  0  0  0  0  0
   50.2178    4.6310   44.1353 C   0  0  0  0  0  0  0  0  0  0  0  0
   50.2795    5.1130   45.4510 C   0  0  0  0  0  0  0  0  0  0  0  0
   50.6786    6.4448   45.6764 C   0  0  0  0  0  0  0  0  0  0  0  0
   50.8628    7.2940   46.8114 C   0  0  0  0  0  0  0  0  0  0  0  0
   51.2761    8.5146   46.4414 N   0  0  0  0  0  0  0  0  0  0  0  0
   51.3429    8.4515   45.1046 N   0  0  0  0  0  0  0  0  0  0  0  0
   50.9997    7.2363   44.5795 C   0  0  0  0  0  0  0  0  0  0  0  0
   50.9434    6.7790   43.2572 C   0  0  0  0  0  0  0  0  0  0  0  0
   51.6161    9.2157   44.5473 H   0  0  0  0  0  0  0  0  0  0  0  0
   50.6441    6.8989   48.1735 C   0  0  0  0  0  0  0  0  0  0  0  0
   49.5975    7.2873   48.9232 C   0  0  0  0  0  0  0  0  0  0  0  0
   49.3502    6.8850   50.3091 C   0  0  0  0  0  0  0  0  0  0  0  0
   49.1141    7.7978   51.3347 C   0  0  0  0  0  0  0  0  0  0  0  0
   48.8561    7.3206   52.6209 C   0  0  0  0  0  0  0  0  0  0  0  0
   48.8362    5.9505   52.8420 C   0  0  0  0  0  0  0  0  0  0  0  0
   48.4963    5.2578   54.5608 Br  0  0  0  0  0  0  0  0  0  0  0  0
   49.0664    5.1090   51.7677 C   0  0  0  0  0  0  0  0  0  0  0  0
   49.3148    5.5467   50.5094 N   0  0  0  0  0  0  0  0  0  0  0  0
   50.4427    4.8301   41.3761 S   0  0  0  0  0  0  0  0  0  0  0  0
   51.7855    6.7506   39.7761 C   0  0  0  0  0  0  0  0  0  0  0  0
   52.9663    7.3675   39.3266 C   0  0  0  0  0  0  0  0  0  0  0  0
   54.2151    6.8821   39.7125 C   0  0  0  0  0  0  0  0  0  0  0  0
   54.2967    5.7812   40.5565 C   0  0  0  0  0  0  0  0  0  0  0  0
   53.1302    5.1724   41.0246 C   0  0  0  0  0  0  0  0  0  0  0  0
   51.8627    5.6537   40.6533 C   0  0  0  0  0  0  0  0  0  0  0  0
   48.7169    8.9835   39.7355 C   0  0  0  0  0  0  0  0  0  0  0  0
   49.9184    8.2815   40.1099 N   0  0  0  0  0  0  0  0  0  0  0  0
   50.5152    7.3544   39.2884 C   0  0  0  0  0  0  0  0  0  0  0  0
   50.0416    6.9862   38.2196 O   0  0  0  0  0  0  0  0  0  0  0  0
   50.3265    8.4725   40.9852 H   0  0  0  0  0  0  0  0  0  0  0  0
 27 28  1  0
 28 29  1  0
 29 30  2  0
 29 21  1  0
 21 22  2  0
 22 23  1  0
 23 24  2  0
 24 25  1  0
 25 26  2  0
 26 20  1  0
 20  1  1  0
  1  2  2  0
  2  3  1  0
  3  4  2  0
  4  5  1  0
  5 11  1  0
 11 12  2  0
 12 13  1  0
 13 14  2  0
 14 15  1  0
 15 16  2  0
 16 17  1  0
 16 18  1  0
 18 19  2  0
  5  6  2  0
  6  7  1  0
  7  8  1  0
  8  9  2  0
 26 21  1  0
  9  1  1  0
  8  4  1  0
 19 13  1  0
 28 31  1  0
  7 10  1  0
M  END
> <minimizedAffinity>
-5.41107

> <CNNscore>
0.5147960782

> <CNNaffinity>
5.9665188789

> <CNN_VS>
3.0715405941

> <CNNaffinity_variance>
0.1260867268

$$$$



 31 34  0  0  0  0  0  0  0  0999 V2000
   54.5769   10.2861   57.3445 C   0  0  0  0  0  0  0  0  0  0  0  0
   54.2311   10.6839   56.0491 C   0  0  0  0  0  0  0  0  0  0  0  0
   55.0760   11.5135   55.2973 C   0  0  0  0  0  0  0  0  0  0  0  0
   56.2845   11.9596   55.8666 C   0  0  0  0  0  0  0  0  0  0  0  0
   57.3833   12.7776   55.4582 C   0  0  0  0  0  0  0  0  0  0  0  0
   58.2987   12.8815   56.4323 N   0  0  0  0  0  0  0  0  0  0  0  0
   57.8042   12.1398   57.4329 N   0  0  0  0  0  0  0  0  0  0  0  0
   56.5961   11.5595   57.1611 C   0  0  0  0  0  0  0  0  0  0  0  0
   55.7708   10.7302   57.9303 C   0  0  0  0  0  0  0  0  0  0  0  0
   58.2714   12.0226   58.2915 H   0  0  0  0  0  0  0  0  0  0  0  0
   57.4976   13.4152   54.1777 C   0  0  0  0  0  0  0  0  0  0  0  0
   57.8281   12.7847   53.0368 C   0  0  0  0  0  0  0  0  0  0  0  0
   57.9371   13.4147   51.7196 C   0  0  0  0  0  0  0  0  0  0  0  0
   58.6601   14.5840   51.4940 C   0  0  0  0  0  0  0  0  0  0  0  0
   58.7348   15.0953   50.1973 C   0  0  0  0  0  0  0  0  0  0  0  0
   58.0920   14.4225   49.1675 C   0  0  0  0  0  0  0  0  0  0  0  0
   58.1606   15.0748   47.4012 Br  0  0  0  0  0  0  0  0  0  0  0  0
   57.4061   13.2594   49.4710 C   0  0  0  0  0  0  0  0  0  0  0  0
   57.3221   12.7402   50.7200 N   0  0  0  0  0  0  0  0  0  0  0  0
   53.4946    9.2210   58.2898 S   0  0  0  0  0  0  0  0  0  0  0  0
   51.4583    8.0379   56.7070 C   0  0  0  0  0  0  0  0  0  0  0  0
   50.2854    8.1362   55.9378 C   0  0  0  0  0  0  0  0  0  0  0  0
   49.7254    9.3798   55.6485 C   0  0  0  0  0  0  0  0  0  0  0  0
   50.3265   10.5362   56.1304 C   0  0  0  0  0  0  0  0  0  0  0  0
   51.4809   10.4494   56.9117 C   0  0  0  0  0  0  0  0  0  0  0  0
   52.0544    9.2038   57.2210 C   0  0  0  0  0  0  0  0  0  0  0  0
   53.8635    5.1023   56.6927 C   0  0  0  0  0  0  0  0  0  0  0  0
   53.2309    6.3799   56.4834 N   0  0  0  0  0  0  0  0  0  0  0  0
   51.9641    6.6574   56.9402 C   0  0  0  0  0  0  0  0  0  0  0  0
   51.2391    5.8311   57.4824 O   0  0  0  0  0  0  0  0  0  0  0  0
   53.7234    7.0792   55.9959 H   0  0  0  0  0  0  0  0  0  0  0  0
 27 28  1  0
 28 29  1  0
 29 30  2  0
 29 21  1  0
 21 22  2  0
 22 23  1  0
 23 24  2  0
 24 25  1  0
 25 26  2  0
 26 20  1  0
 20  1  1  0
  1  2  2  0
  2  3  1  0
  3  4  2  0
  4  5  1  0
  5 11  1  0
 11 12  2  0
 12 13  1  0
 13 14  2  0
 14 15  1  0
 15 16  2  0
 16 17  1  0
 16 18  1  0
 18 19  2  0
  5  6  2  0
  6  7  1  0
  7  8  1  0
  8  9  2  0
 26 21  1  0
  9  1  1  0
  8  4  1  0
 19 13  1  0
 28 31  1  0
  7 10  1  0
M  END
> <minimizedAffinity>
-7.93472

> <CNNscore>
0.4931803346

> <CNNaffinity>
7.2630119324

> <CNN_VS>
3.5819747448

> <CNNaffinity_variance>
0.1009885967

$$$$



 31 34  0  0  0  0  0  0  0  0999 V2000
   56.9066   11.4952   57.6530 C   0  0  0  0  0  0  0  0  0  0  0  0
   57.6742   12.6053   57.2868 C   0  0  0  0  0  0  0  0  0  0  0  0
   57.7702   13.0082   55.9467 C   0  0  0  0  0  0  0  0  0  0  0  0
   57.0902   12.2712   54.9577 C   0  0  0  0  0  0  0  0  0  0  0  0
   56.9291   12.3421   53.5392 C   0  0  0  0  0  0  0  0  0  0  0  0
   56.1512   11.3470   53.0893 N   0  0  0  0  0  0  0  0  0  0  0  0
   55.8140   10.6648   54.1923 N   0  0  0  0  0  0  0  0  0  0  0  0
   56.3457   11.1643   55.3490 C   0  0  0  0  0  0  0  0  0  0  0  0
   56.2324   10.7440   56.6799 C   0  0  0  0  0  0  0  0  0  0  0  0
   55.2324    9.8708   54.1716 H   0  0  0  0  0  0  0  0  0  0  0  0
   57.5243   13.3396   52.6965 C   0  0  0  0  0  0  0  0  0  0  0  0
   57.5453   13.2913   51.3528 C   0  0  0  0  0  0  0  0  0  0  0  0
   58.1356   14.3046   50.4761 C   0  0  0  0  0  0  0  0  0  0  0  0
   58.9026   15.3664   50.9506 C   0  0  0  0  0  0  0  0  0  0  0  0
   59.4523   16.2671   50.0369 C   0  0  0  0  0  0  0  0  0  0  0  0
   59.2249   16.0775   48.6808 C   0  0  0  0  0  0  0  0  0  0  0  0
   59.9424   17.2681   47.4089 Br  0  0  0  0  0  0  0  0  0  0  0  0
   58.4639   14.9901   48.2887 C   0  0  0  0  0  0  0  0  0  0  0  0
   57.9230   14.0994   49.1551 N   0  0  0  0  0  0  0  0  0  0  0  0
   56.7854   10.9966   59.3665 S   0  0  0  0  0  0  0  0  0  0  0  0
   59.0154    9.2510   59.5447 C   0  0  0  0  0  0  0  0  0  0  0  0
   59.5690    7.9586   59.5383 C   0  0  0  0  0  0  0  0  0  0  0  0
   58.7775    6.8459   59.2566 C   0  0  0  0  0  0  0  0  0  0  0  0
   57.4248    7.0121   58.9859 C   0  0  0  0  0  0  0  0  0  0  0  0
   56.8601    8.2893   59.0085 C   0  0  0  0  0  0  0  0  0  0  0  0
   57.6408    9.4215   59.2994 C   0  0  0  0  0  0  0  0  0  0  0  0
   61.0988   11.6537   61.6158 C   0  0  0  0  0  0  0  0  0  0  0  0
   60.1665   10.6455   61.1791 N   0  0  0  0  0  0  0  0  0  0  0  0
   59.9625   10.3581   59.8501 C   0  0  0  0  0  0  0  0  0  0  0  0
   60.4828   10.9800   58.9309 O   0  0  0  0  0  0  0  0  0  0  0  0
   59.6573   10.1445   61.8566 H   0  0  0  0  0  0  0  0  0  0  0  0
 27 28  1  0
 28 29  1  0
 29 30  2  0
 29 21  1  0
 21 22  2  0
 22 23  1  0
 23 24  2  0
 24 25  1  0
 25 26  2  0
 26 20  1  0
 20  1  1  0
  1  2  2  0
  2  3  1  0
  3  4  2  0
  4  5  1  0
  5 11  1  0
 11 12  2  0
 12 13  1  0
 13 14  2  0
 14 15  1  0
 15 16  2  0
 16 17  1  0
 16 18  1  0
 18 19  2  0
  5  6  2  0
  6  7  1  0
  7  8  1  0
  8  9  2  0
 26 21  1  0
  9  1  1  0
  8  4  1  0
 19 13  1  0
 28 31  1  0
  7 10  1  0
M  END
> <minimizedAffinity>
-8.59718

> <CNNscore>
0.3971661925

> <CNNaffinity>
6.8681330681

> <CNN_VS>
2.7277903557

> <CNNaffinity_variance>
0.1247844696

$$$$



 31 34  0  0  0  0  0  0  0  0999 V2000
   56.1275   12.3096   55.3361 C   0  0  0  0  0  0  0  0  0  0  0  0
   56.8110   13.5291   55.3759 C   0  0  0  0  0  0  0  0  0  0  0  0
   57.4290   14.0498   54.2296 C   0  0  0  0  0  0  0  0  0  0  0  0
   57.3670   13.3219   53.0254 C   0  0  0  0  0  0  0  0  0  0  0  0
   57.8389   13.4902   51.6866 C   0  0  0  0  0  0  0  0  0  0  0  0
   57.4894   12.4508   50.9152 N   0  0  0  0  0  0  0  0  0  0  0  0
   56.8019   11.6449   51.7357 N   0  0  0  0  0  0  0  0  0  0  0  0
   56.6924   12.1063   53.0184 C   0  0  0  0  0  0  0  0  0  0  0  0
   56.0657   11.5671   54.1485 C   0  0  0  0  0  0  0  0  0  0  0  0
   56.4086   10.7922   51.4400 H   0  0  0  0  0  0  0  0  0  0  0  0
   58.5955   14.6172   51.2210 C   0  0  0  0  0  0  0  0  0  0  0  0
   59.6641   14.5372   50.4085 C   0  0  0  0  0  0  0  0  0  0  0  0
   60.4405   15.6751   49.9125 C   0  0  0  0  0  0  0  0  0  0  0  0
   61.8170   15.6226   49.7036 C   0  0  0  0  0  0  0  0  0  0  0  0
   62.4692   16.7481   49.1975 C   0  0  0  0  0  0  0  0  0  0  0  0
   61.7286   17.8865   48.9108 C   0  0  0  0  0  0  0  0  0  0  0  0
   62.5639   19.4318   48.2296 Br  0  0  0  0  0  0  0  0  0  0  0  0
   60.3630   17.8541   49.1327 C   0  0  0  0  0  0  0  0  0  0  0  0
   59.7057   16.7733   49.6189 N   0  0  0  0  0  0  0  0  0  0  0  0
   55.3363   11.6604   56.8031 S   0  0  0  0  0  0  0  0  0  0  0  0
   56.6223    9.6522   58.3409 C   0  0  0  0  0  0  0  0  0  0  0  0
   57.7870    9.0368   58.8323 C   0  0  0  0  0  0  0  0  0  0  0  0
   59.0425    9.5937   58.5923 C   0  0  0  0  0  0  0  0  0  0  0  0
   59.1476   10.7657   57.8533 C   0  0  0  0  0  0  0  0  0  0  0  0
   57.9989   11.3752   57.3438 C   0  0  0  0  0  0  0  0  0  0  0  0
   56.7257   10.8231   57.5682 C   0  0  0  0  0  0  0  0  0  0  0  0
   53.8603    7.0536   58.1935 C   0  0  0  0  0  0  0  0  0  0  0  0
   55.0388    7.8431   57.9401 N   0  0  0  0  0  0  0  0  0  0  0  0
   55.3419    8.9680   58.6703 C   0  0  0  0  0  0  0  0  0  0  0  0
   54.6076    9.4402   59.5306 O   0  0  0  0  0  0  0  0  0  0  0  0
   55.6488    7.5671   57.2183 H   0  0  0  0  0  0  0  0  0  0  0  0
 27 28  1  0
 28 29  1  0
 29 30  2  0
 29 21  1  0
 21 22  2  0
 22 23  1  0
 23 24  2  0
 24 25  1  0
 25 26  2  0
 26 20  1  0
 20  1  1  0
  1  2  2  0
  2  3  1  0
  3  4  2  0
  4  5  1  0
  5 11  1  0
 11 12  2  0
 12 13  1  0
 13 14  2  0
 14 15  1  0
 15 16  2  0
 16 17  1  0
 16 18  1  0
 18 19  2  0
  5  6  2  0
  6  7  1  0
  7  8  1  0
  8  9  2  0
 26 21  1  0
  9  1  1  0
  8  4  1  0
 19 13  1  0
 28 31  1  0
  7 10  1  0
M  END
> <minimizedAffinity>
-8.91263

> <CNNscore>
0.3618437648

> <CNNaffinity>
7.0105519295

> <CNN_VS>
2.5367245674

> <CNNaffinity_variance>
0.0147327343

$$$$
