


 39 42  0  0  0  0  0  0  0  0999 V2000
   20.3782  -31.1345   13.8858 C   0  0  0  0  0  0  0  0  0  0  0  0
   21.1867  -32.1523   13.5459 C   0  0  0  0  0  0  0  0  0  0  0  0
   21.9593  -32.9751   14.5402 C   0  0  0  0  0  0  0  0  0  0  0  0
   21.1893  -34.1722   14.7747 O   0  0  0  0  0  0  0  0  0  0  0  0
   21.9592  -35.3077   14.3284 C   0  0  0  0  0  0  0  0  0  0  0  0
   23.0488  -34.7602   13.3986 C   0  0  0  0  0  0  0  0  0  0  0  0
   24.2475  -35.5364   13.3560 O   0  0  0  0  0  0  0  0  0  0  0  0
   23.3351  -33.4132   14.0343 C   0  0  0  0  0  0  0  0  0  0  0  0
   24.2354  -33.5943   15.1381 O   0  0  0  0  0  0  0  0  0  0  0  0
   24.6207  -35.6043   14.2487 H   0  0  0  0  0  0  0  0  0  0  0  0
   23.8578  -34.2343   15.7617 H   0  0  0  0  0  0  0  0  0  0  0  0
   21.0711  -36.2579   13.6805 N   0  0  0  0  0  0  0  0  0  0  0  0
   21.1100  -36.6741   12.3756 C   0  0  0  0  0  0  0  0  0  0  0  0
   20.1476  -37.5312   12.1021 N   0  0  0  0  0  0  0  0  0  0  0  0
   19.4425  -37.6568   13.2705 C   0  0  0  0  0  0  0  0  0  0  0  0
   18.3207  -38.3964   13.6226 C   0  0  0  0  0  0  0  0  0  0  0  0
   17.8408  -38.3158   14.8899 N   0  0  0  0  0  0  0  0  0  0  0  0
   18.4794  -37.5124   15.7700 C   0  0  0  0  0  0  0  0  0  0  0  0
   17.7678  -37.4455   17.5332 Br  0  0  0  0  0  0  0  0  0  0  0  0
   19.5813  -36.7566   15.5425 N   0  0  0  0  0  0  0  0  0  0  0  0
   19.9985  -36.8739   14.2694 C   0  0  0  0  0  0  0  0  0  0  0  0
   19.6066  -30.3080   12.9092 C   0  0  0  0  0  0  0  0  0  0  0  0
   17.6055  -30.9983   11.1025 O   0  0  0  0  0  0  0  0  0  0  0  0
   17.2958  -30.7772   12.2708 C   0  0  0  0  0  0  0  0  0  0  0  0
   18.2068  -30.4181   13.2375 N   0  0  0  0  0  0  0  0  0  0  0  0
   17.9021  -30.2359   14.1558 H   0  0  0  0  0  0  0  0  0  0  0  0
   15.8605  -30.8534   12.6564 C   0  0  0  0  0  0  0  0  0  0  0  0
   14.9276  -31.5867   11.9078 C   0  0  0  0  0  0  0  0  0  0  0  0
   13.5822  -31.6366   12.3215 C   0  0  0  0  0  0  0  0  0  0  0  0
   13.1534  -30.9597   13.4672 C   0  0  0  0  0  0  0  0  0  0  0  0
   14.0824  -30.2237   14.1850 C   0  0  0  0  0  0  0  0  0  0  0  0
   13.6698  -29.5512   15.2998 O   0  0  0  0  0  0  0  0  0  0  0  0
   15.4193  -30.1545   13.7897 C   0  0  0  0  0  0  0  0  0  0  0  0
   16.2376  -29.3753   14.5722 O   0  0  0  0  0  0  0  0  0  0  0  0
   12.7733  -29.5951   15.5685 H   0  0  0  0  0  0  0  0  0  0  0  0
   15.8872  -28.9307   15.3188 H   0  0  0  0  0  0  0  0  0  0  0  0
   12.6151  -32.4120   11.5352 N   0  0  0  0  0  0  0  0  0  0  0  0
   12.1866  -31.9126   10.4868 O   0  0  0  0  0  0  0  0  0  0  0  0
   12.2843  -33.5218   11.9760 O   0  0  0  0  0  0  0  0  0  0  0  0
 23 24  2  0
 24 25  1  0
 25 22  1  0
 22  1  1  0
  1  2  2  0
  3  2  1  0
  3  4  1  0
  4  5  1  0
  5 12  1  0
 12 13  1  0
 13 14  2  0
 14 15  1  0
 15 16  2  0
 16 17  1  0
 17 18  2  0
 18 19  1  0
 18 20  1  0
 20 21  2  0
  5  6  1  0
  6  7  1  0
  6  8  1  0
  8  9  1  0
 24 27  1  0
 27 28  2  0
 28 29  1  0
 29 37  1  0
 37 38  2  0
 37 39  1  0
 29 30  2  0
 30 31  1  0
 31 32  1  0
 31 33  2  0
 33 34  1  0
  8  3  1  0
 33 27  1  0
 21 12  1  0
 21 15  1  0
 25 26  1  0
  7 10  1  0
  9 11  1  0
 32 35  1  0
 34 36  1  0
M  CHG 1  37   1
M  CHG 1  39  -1
M  END
> <minimizedAffinity>
-10.09374

> <CNNscore>
0.4581543207

> <CNNaffinity>
6.8959808350

> <CNN_VS>
3.1594233513

> <CNNaffinity_variance>
0.0710417852

$$$$



 39 42  0  0  0  0  0  0  0  0999 V2000
   20.2145  -31.1662   13.5410 C   0  0  0  0  0  0  0  0  0  0  0  0
   20.0279  -32.4225   13.1030 C   0  0  0  0  0  0  0  0  0  0  0  0
   20.7548  -33.6179   13.6555 C   0  0  0  0  0  0  0  0  0  0  0  0
   20.9918  -34.5082   12.5456 O   0  0  0  0  0  0  0  0  0  0  0  0
   22.4162  -34.6373   12.3569 C   0  0  0  0  0  0  0  0  0  0  0  0
   23.0641  -33.4575   13.0917 C   0  0  0  0  0  0  0  0  0  0  0  0
   24.3859  -33.7041   13.5750 O   0  0  0  0  0  0  0  0  0  0  0  0
   22.1173  -33.2785   14.2630 C   0  0  0  0  0  0  0  0  0  0  0  0
   22.4528  -34.2248   15.2896 O   0  0  0  0  0  0  0  0  0  0  0  0
   24.3731  -34.4634   14.1785 H   0  0  0  0  0  0  0  0  0  0  0  0
   22.4335  -35.1219   14.9213 H   0  0  0  0  0  0  0  0  0  0  0  0
   22.7060  -34.6602   10.9332 N   0  0  0  0  0  0  0  0  0  0  0  0
   23.3919  -35.6235   10.2410 C   0  0  0  0  0  0  0  0  0  0  0  0
   23.4956  -35.3313    8.9605 N   0  0  0  0  0  0  0  0  0  0  0  0
   22.8726  -34.1186    8.8222 C   0  0  0  0  0  0  0  0  0  0  0  0
   22.6584  -33.2849    7.7321 C   0  0  0  0  0  0  0  0  0  0  0  0
   21.9892  -32.1170    7.9082 N   0  0  0  0  0  0  0  0  0  0  0  0
   21.5513  -31.8070    9.1492 C   0  0  0  0  0  0  0  0  0  0  0  0
   20.6126  -30.1626    9.3348 Br  0  0  0  0  0  0  0  0  0  0  0  0
   21.6933  -32.5434   10.2782 N   0  0  0  0  0  0  0  0  0  0  0  0
   22.3715  -33.6795   10.0371 C   0  0  0  0  0  0  0  0  0  0  0  0
   19.5012  -29.9698   13.0005 C   0  0  0  0  0  0  0  0  0  0  0  0
   17.6117  -30.9822   11.2256 O   0  0  0  0  0  0  0  0  0  0  0  0
   17.2446  -30.6393   12.3469 C   0  0  0  0  0  0  0  0  0  0  0  0
   18.0968  -30.1166   13.2925 N   0  0  0  0  0  0  0  0  0  0  0  0
   17.7466  -29.8421   14.1707 H   0  0  0  0  0  0  0  0  0  0  0  0
   15.8007  -30.7474   12.6905 C   0  0  0  0  0  0  0  0  0  0  0  0
   14.8965  -31.4579   11.8866 C   0  0  0  0  0  0  0  0  0  0  0  0
   13.5414  -31.5400   12.2617 C   0  0  0  0  0  0  0  0  0  0  0  0
   13.0746  -30.9175   13.4234 C   0  0  0  0  0  0  0  0  0  0  0  0
   13.9757  -30.2030   14.1964 C   0  0  0  0  0  0  0  0  0  0  0  0
   13.5260  -29.5835   15.3274 O   0  0  0  0  0  0  0  0  0  0  0  0
   15.3216  -30.1025   13.8403 C   0  0  0  0  0  0  0  0  0  0  0  0
   16.1097  -29.3489   14.6769 O   0  0  0  0  0  0  0  0  0  0  0  0
   12.6233  -29.6485   15.5699 H   0  0  0  0  0  0  0  0  0  0  0  0
   15.7345  -28.9405   15.4321 H   0  0  0  0  0  0  0  0  0  0  0  0
   12.6046  -32.2913   11.4175 N   0  0  0  0  0  0  0  0  0  0  0  0
   12.2805  -33.4292   11.7813 O   0  0  0  0  0  0  0  0  0  0  0  0
   12.1990  -31.7369   10.3863 O   0  0  0  0  0  0  0  0  0  0  0  0
 23 24  2  0
 24 25  1  0
 25 22  1  0
 22  1  1  0
  1  2  2  0
  3  2  1  0
  3  4  1  0
  4  5  1  0
  5 12  1  0
 12 13  1  0
 13 14  2  0
 14 15  1  0
 15 16  2  0
 16 17  1  0
 17 18  2  0
 18 19  1  0
 18 20  1  0
 20 21  2  0
  5  6  1  0
  6  7  1  0
  6  8  1  0
  8  9  1  0
 24 27  1  0
 27 28  2  0
 28 29  1  0
 29 37  1  0
 37 38  2  0
 37 39  1  0
 29 30  2  0
 30 31  1  0
 31 32  1  0
 31 33  2  0
 33 34  1  0
  8  3  1  0
 33 27  1  0
 21 12  1  0
 21 15  1  0
 25 26  1  0
  7 10  1  0
  9 11  1  0
 32 35  1  0
 34 36  1  0
M  CHG 1  37   1
M  CHG 1  39  -1
M  END
> <minimizedAffinity>
-10.33043

> <CNNscore>
0.4169464111

> <CNNaffinity>
6.7977366447

> <CNN_VS>
2.8342919350

> <CNNaffinity_variance>
0.0059087798

$$$$



 39 42  0  0  0  0  0  0  0  0999 V2000
   21.9929  -32.8778    8.9285 C   0  0  0  0  0  0  0  0  0  0  0  0
   22.6821  -33.4506    9.9295 C   0  0  0  0  0  0  0  0  0  0  0  0
   22.3910  -33.2170   11.3866 C   0  0  0  0  0  0  0  0  0  0  0  0
   21.2892  -34.0815   11.7327 O   0  0  0  0  0  0  0  0  0  0  0  0
   21.7431  -35.0301   12.7203 C   0  0  0  0  0  0  0  0  0  0  0  0
   23.2753  -35.0262   12.6600 C   0  0  0  0  0  0  0  0  0  0  0  0
   23.9255  -35.3588   13.8880 O   0  0  0  0  0  0  0  0  0  0  0  0
   23.5570  -33.5777   12.3091 C   0  0  0  0  0  0  0  0  0  0  0  0
   23.5078  -32.7845   13.5050 O   0  0  0  0  0  0  0  0  0  0  0  0
   23.6505  -34.7355   14.5786 H   0  0  0  0  0  0  0  0  0  0  0  0
   22.6497  -32.9084   13.9400 H   0  0  0  0  0  0  0  0  0  0  0  0
   21.1573  -36.3288   12.4350 N   0  0  0  0  0  0  0  0  0  0  0  0
   21.4454  -37.1562   11.3814 C   0  0  0  0  0  0  0  0  0  0  0  0
   20.7210  -38.2563   11.4055 N   0  0  0  0  0  0  0  0  0  0  0  0
   19.9143  -38.1253   12.5056 C   0  0  0  0  0  0  0  0  0  0  0  0
   18.9319  -38.9364   13.0592 C   0  0  0  0  0  0  0  0  0  0  0  0
   18.2891  -38.5305   14.1838 N   0  0  0  0  0  0  0  0  0  0  0  0
   18.6333  -37.3419   14.7285 C   0  0  0  0  0  0  0  0  0  0  0  0
   17.7056  -36.8286   16.3082 Br  0  0  0  0  0  0  0  0  0  0  0  0
   19.5772  -36.4770   14.2835 N   0  0  0  0  0  0  0  0  0  0  0  0
   20.1674  -36.9330   13.1644 C   0  0  0  0  0  0  0  0  0  0  0  0
   22.2721  -33.0992    7.4775 C   0  0  0  0  0  0  0  0  0  0  0  0
   21.5093  -30.5260    6.7414 O   0  0  0  0  0  0  0  0  0  0  0  0
   22.7010  -30.8228    6.7022 C   0  0  0  0  0  0  0  0  0  0  0  0
   23.1790  -32.0696    7.0342 N   0  0  0  0  0  0  0  0  0  0  0  0
   24.1429  -32.2592    6.9690 H   0  0  0  0  0  0  0  0  0  0  0  0
   23.6761  -29.8035    6.2280 C   0  0  0  0  0  0  0  0  0  0  0  0
   24.7546  -30.1374    5.3950 C   0  0  0  0  0  0  0  0  0  0  0  0
   25.6434  -29.1333    4.9643 C   0  0  0  0  0  0  0  0  0  0  0  0
   25.4754  -27.8025    5.3586 C   0  0  0  0  0  0  0  0  0  0  0  0
   24.4172  -27.4917    6.1974 C   0  0  0  0  0  0  0  0  0  0  0  0
   24.2518  -26.1957    6.5956 O   0  0  0  0  0  0  0  0  0  0  0  0
   23.5282  -28.4715    6.6422 C   0  0  0  0  0  0  0  0  0  0  0  0
   22.5330  -28.0411    7.4868 O   0  0  0  0  0  0  0  0  0  0  0  0
   24.8464  -25.5350    6.2992 H   0  0  0  0  0  0  0  0  0  0  0  0
   22.4831  -27.1375    7.7299 H   0  0  0  0  0  0  0  0  0  0  0  0
   26.7647  -29.4917    4.0874 N   0  0  0  0  0  0  0  0  0  0  0  0
   27.1179  -30.6776    4.0527 O   0  0  0  0  0  0  0  0  0  0  0  0
   27.2920  -28.5781    3.4373 O   0  0  0  0  0  0  0  0  0  0  0  0
 23 24  2  0
 24 25  1  0
 25 22  1  0
 22  1  1  0
  1  2  2  0
  3  2  1  0
  3  4  1  0
  4  5  1  0
  5 12  1  0
 12 13  1  0
 13 14  2  0
 14 15  1  0
 15 16  2  0
 16 17  1  0
 17 18  2  0
 18 19  1  0
 18 20  1  0
 20 21  2  0
  5  6  1  0
  6  7  1  0
  6  8  1  0
  8  9  1  0
 24 27  1  0
 27 28  2  0
 28 29  1  0
 29 37  1  0
 37 38  2  0
 37 39  1  0
 29 30  2  0
 30 31  1  0
 31 32  1  0
 31 33  2  0
 33 34  1  0
  8  3  1  0
 33 27  1  0
 21 12  1  0
 21 15  1  0
 25 26  1  0
  7 10  1  0
  9 11  1  0
 32 35  1  0
 34 36  1  0
M  CHG 1  37   1
M  CHG 1  39  -1
M  END
> <minimizedAffinity>
-7.04290

> <CNNscore>
0.3647370636

> <CNNaffinity>
5.5976185799

> <CNN_VS>
2.0416588783

> <CNNaffinity_variance>
0.0297050532

$$$$



 39 42  0  0  0  0  0  0  0  0999 V2000
   20.2487  -31.9718   13.8440 C   0  0  0  0  0  0  0  0  0  0  0  0
   21.2489  -32.6782   13.2911 C   0  0  0  0  0  0  0  0  0  0  0  0
   21.8691  -33.8910   13.9292 C   0  0  0  0  0  0  0  0  0  0  0  0
   22.3484  -34.7252   12.8544 O   0  0  0  0  0  0  0  0  0  0  0  0
   23.7833  -34.8307   12.9604 C   0  0  0  0  0  0  0  0  0  0  0  0
   24.2415  -33.6806   13.8653 C   0  0  0  0  0  0  0  0  0  0  0  0
   25.4391  -33.9363   14.6014 O   0  0  0  0  0  0  0  0  0  0  0  0
   23.0692  -33.5669   14.8210 C   0  0  0  0  0  0  0  0  0  0  0  0
   23.2034  -34.5573   15.8520 O   0  0  0  0  0  0  0  0  0  0  0  0
   25.3166  -34.7235   15.1548 H   0  0  0  0  0  0  0  0  0  0  0  0
   23.2785  -35.4361   15.4484 H   0  0  0  0  0  0  0  0  0  0  0  0
   24.3621  -34.7832   11.6285 N   0  0  0  0  0  0  0  0  0  0  0  0
   23.7018  -34.5962   10.4424 C   0  0  0  0  0  0  0  0  0  0  0  0
   24.5215  -34.6244    9.4115 N   0  0  0  0  0  0  0  0  0  0  0  0
   25.7592  -34.8631    9.9494 C   0  0  0  0  0  0  0  0  0  0  0  0
   27.0209  -35.0128    9.3881 C   0  0  0  0  0  0  0  0  0  0  0  0
   28.0862  -35.2451   10.1967 N   0  0  0  0  0  0  0  0  0  0  0  0
   27.8773  -35.3216   11.5303 C   0  0  0  0  0  0  0  0  0  0  0  0
   29.4077  -35.6403   12.6149 Br  0  0  0  0  0  0  0  0  0  0  0  0
   26.6996  -35.1831   12.1866 N   0  0  0  0  0  0  0  0  0  0  0  0
   25.6865  -34.9654   11.3293 C   0  0  0  0  0  0  0  0  0  0  0  0
   19.6247  -30.7649   13.2226 C   0  0  0  0  0  0  0  0  0  0  0  0
   17.6608  -30.9265   11.2574 O   0  0  0  0  0  0  0  0  0  0  0  0
   17.3159  -30.9014   12.4365 C   0  0  0  0  0  0  0  0  0  0  0  0
   18.2069  -30.8109   13.4811 N   0  0  0  0  0  0  0  0  0  0  0  0
   17.8754  -30.7775   14.4076 H   0  0  0  0  0  0  0  0  0  0  0  0
   15.8627  -30.9218   12.7566 C   0  0  0  0  0  0  0  0  0  0  0  0
   14.9436  -31.6574   11.9933 C   0  0  0  0  0  0  0  0  0  0  0  0
   13.5797  -31.6530   12.3448 C   0  0  0  0  0  0  0  0  0  0  0  0
   13.1191  -30.9197   13.4424 C   0  0  0  0  0  0  0  0  0  0  0  0
   14.0358  -30.1824   14.1746 C   0  0  0  0  0  0  0  0  0  0  0  0
   13.5928  -29.4551   15.2423 O   0  0  0  0  0  0  0  0  0  0  0  0
   15.3910  -30.1666   13.8404 C   0  0  0  0  0  0  0  0  0  0  0  0
   16.1954  -29.3805   14.6304 O   0  0  0  0  0  0  0  0  0  0  0  0
   12.6839  -29.4631   15.4699 H   0  0  0  0  0  0  0  0  0  0  0  0
   15.8245  -28.8971   15.3421 H   0  0  0  0  0  0  0  0  0  0  0  0
   12.6270  -32.4313   11.5439 N   0  0  0  0  0  0  0  0  0  0  0  0
   12.2951  -33.5485   11.9611 O   0  0  0  0  0  0  0  0  0  0  0  0
   12.2167  -31.9190   10.4929 O   0  0  0  0  0  0  0  0  0  0  0  0
 23 24  2  0
 24 25  1  0
 25 22  1  0
 22  1  1  0
  1  2  2  0
  3  2  1  0
  3  4  1  0
  4  5  1  0
  5 12  1  0
 12 13  1  0
 13 14  2  0
 14 15  1  0
 15 16  2  0
 16 17  1  0
 17 18  2  0
 18 19  1  0
 18 20  1  0
 20 21  2  0
  5  6  1  0
  6  7  1  0
  6  8  1  0
  8  9  1  0
 24 27  1  0
 27 28  2  0
 28 29  1  0
 29 37  1  0
 37 38  2  0
 37 39  1  0
 29 30  2  0
 30 31  1  0
 31 32  1  0
 31 33  2  0
 33 34  1  0
  8  3  1  0
 33 27  1  0
 21 12  1  0
 21 15  1  0
 25 26  1  0
  7 10  1  0
  9 11  1  0
 32 35  1  0
 34 36  1  0
M  CHG 1  37   1
M  CHG 1  39  -1
M  END
> <minimizedAffinity>
-9.75556

> <CNNscore>
0.3419125378

> <CNNaffinity>
6.2301468849

> <CNN_VS>
2.1301653385

> <CNNaffinity_variance>
0.1549279690

$$$$



 39 42  0  0  0  0  0  0  0  0999 V2000
   20.5285  -30.8427   10.6886 C   0  0  0  0  0  0  0  0  0  0  0  0
   19.5096  -30.9188   11.5609 C   0  0  0  0  0  0  0  0  0  0  0  0
   19.6897  -31.0599   13.0476 C   0  0  0  0  0  0  0  0  0  0  0  0
   19.3520  -32.4228   13.3784 O   0  0  0  0  0  0  0  0  0  0  0  0
   20.5280  -33.0721   13.9044 C   0  0  0  0  0  0  0  0  0  0  0  0
   21.7276  -32.2154   13.4816 C   0  0  0  0  0  0  0  0  0  0  0  0
   22.8497  -32.2766   14.3640 O   0  0  0  0  0  0  0  0  0  0  0  0
   21.1270  -30.8230   13.5150 C   0  0  0  0  0  0  0  0  0  0  0  0
   21.1361  -30.3377   14.8664 O   0  0  0  0  0  0  0  0  0  0  0  0
   22.5784  -31.9962   15.2521 H   0  0  0  0  0  0  0  0  0  0  0  0
   20.6677  -30.9654   15.4386 H   0  0  0  0  0  0  0  0  0  0  0  0
   20.5841  -34.4334   13.3994 N   0  0  0  0  0  0  0  0  0  0  0  0
   21.2559  -34.8813   12.2922 C   0  0  0  0  0  0  0  0  0  0  0  0
   21.0857  -36.1736   12.1010 N   0  0  0  0  0  0  0  0  0  0  0  0
   20.2508  -36.5743   13.1111 C   0  0  0  0  0  0  0  0  0  0  0  0
   19.6967  -37.8026   13.4483 C   0  0  0  0  0  0  0  0  0  0  0  0
   18.8876  -37.8926   14.5344 N   0  0  0  0  0  0  0  0  0  0  0  0
   18.6502  -36.7732   15.2546 C   0  0  0  0  0  0  0  0  0  0  0  0
   17.5160  -36.9607   16.7707 Br  0  0  0  0  0  0  0  0  0  0  0  0
   19.1408  -35.5305   15.0269 N   0  0  0  0  0  0  0  0  0  0  0  0
   19.9244  -35.5084   13.9341 C   0  0  0  0  0  0  0  0  0  0  0  0
   20.3644  -30.7043    9.2100 C   0  0  0  0  0  0  0  0  0  0  0  0
   21.3551  -30.7077    6.6093 O   0  0  0  0  0  0  0  0  0  0  0  0
   21.8130  -29.9007    7.4147 C   0  0  0  0  0  0  0  0  0  0  0  0
   21.4000  -29.8259    8.7251 N   0  0  0  0  0  0  0  0  0  0  0  0
   21.8127  -29.1708    9.3333 H   0  0  0  0  0  0  0  0  0  0  0  0
   22.9014  -28.9877    6.9714 C   0  0  0  0  0  0  0  0  0  0  0  0
   23.9301  -29.4163    6.1190 C   0  0  0  0  0  0  0  0  0  0  0  0
   24.9311  -28.5097    5.7191 C   0  0  0  0  0  0  0  0  0  0  0  0
   24.9241  -27.1841    6.1634 C   0  0  0  0  0  0  0  0  0  0  0  0
   23.9129  -26.7811    7.0206 C   0  0  0  0  0  0  0  0  0  0  0  0
   23.9042  -25.4905    7.4673 O   0  0  0  0  0  0  0  0  0  0  0  0
   22.9145  -27.6640    7.4353 C   0  0  0  0  0  0  0  0  0  0  0  0
   21.9801  -27.1501    8.3024 O   0  0  0  0  0  0  0  0  0  0  0  0
   24.5726  -24.8946    7.1913 H   0  0  0  0  0  0  0  0  0  0  0  0
   22.0389  -26.2568    8.5789 H   0  0  0  0  0  0  0  0  0  0  0  0
   25.9993  -28.9661    4.8217 N   0  0  0  0  0  0  0  0  0  0  0  0
   26.2366  -30.1799    4.7725 O   0  0  0  0  0  0  0  0  0  0  0  0
   26.6018  -28.1014    4.1699 O   0  0  0  0  0  0  0  0  0  0  0  0
 23 24  2  0
 24 25  1  0
 25 22  1  0
 22  1  1  0
  1  2  2  0
  3  2  1  0
  3  4  1  0
  4  5  1  0
  5 12  1  0
 12 13  1  0
 13 14  2  0
 14 15  1  0
 15 16  2  0
 16 17  1  0
 17 18  2  0
 18 19  1  0
 18 20  1  0
 20 21  2  0
  5  6  1  0
  6  7  1  0
  6  8  1  0
  8  9  1  0
 24 27  1  0
 27 28  2  0
 28 29  1  0
 29 37  1  0
 37 38  2  0
 37 39  1  0
 29 30  2  0
 30 31  1  0
 31 32  1  0
 31 33  2  0
 33 34  1  0
  8  3  1  0
 33 27  1  0
 21 12  1  0
 21 15  1  0
 25 26  1  0
  7 10  1  0
  9 11  1  0
 32 35  1  0
 34 36  1  0
M  CHG 1  37   1
M  CHG 1  39  -1
M  END
> <minimizedAffinity>
-8.81205

> <CNNscore>
0.3382900357

> <CNNaffinity>
6.0580439568

> <CNN_VS>
2.0493760109

> <CNNaffinity_variance>
0.0299360547

$$$$



 39 42  0  0  0  0  0  0  0  0999 V2000
   20.1642  -31.4171   13.6705 C   0  0  0  0  0  0  0  0  0  0  0  0
   20.1911  -32.5790   12.9963 C   0  0  0  0  0  0  0  0  0  0  0  0
   20.8585  -33.8269   13.5061 C   0  0  0  0  0  0  0  0  0  0  0  0
   20.9171  -34.7479   12.3974 O   0  0  0  0  0  0  0  0  0  0  0  0
   22.3023  -35.0039   12.0863 C   0  0  0  0  0  0  0  0  0  0  0  0
   23.1131  -33.8769   12.7375 C   0  0  0  0  0  0  0  0  0  0  0  0
   24.4466  -34.2329   13.1070 O   0  0  0  0  0  0  0  0  0  0  0  0
   22.2942  -33.6013   13.9841 C   0  0  0  0  0  0  0  0  0  0  0  0
   22.6373  -34.5610   14.9956 O   0  0  0  0  0  0  0  0  0  0  0  0
   24.4224  -34.9808   13.7242 H   0  0  0  0  0  0  0  0  0  0  0  0
   22.5075  -35.4573   14.6483 H   0  0  0  0  0  0  0  0  0  0  0  0
   22.4601  -35.0694   10.6434 N   0  0  0  0  0  0  0  0  0  0  0  0
   23.4138  -34.4446    9.8833 C   0  0  0  0  0  0  0  0  0  0  0  0
   23.2651  -34.6979    8.5990 N   0  0  0  0  0  0  0  0  0  0  0  0
   22.1564  -35.4997    8.5220 C   0  0  0  0  0  0  0  0  0  0  0  0
   21.4873  -36.0877    7.4562 C   0  0  0  0  0  0  0  0  0  0  0  0
   20.3910  -36.8509    7.6977 N   0  0  0  0  0  0  0  0  0  0  0  0
   19.9885  -37.0123    8.9783 C   0  0  0  0  0  0  0  0  0  0  0  0
   18.4517  -38.0987    9.2572 Br  0  0  0  0  0  0  0  0  0  0  0  0
   20.5652  -36.4977   10.0916 N   0  0  0  0  0  0  0  0  0  0  0  0
   21.6369  -35.7463    9.7827 C   0  0  0  0  0  0  0  0  0  0  0  0
   19.5070  -30.1700   13.1757 C   0  0  0  0  0  0  0  0  0  0  0  0
   17.6206  -31.0120   11.3108 O   0  0  0  0  0  0  0  0  0  0  0  0
   17.2420  -30.7163   12.4417 C   0  0  0  0  0  0  0  0  0  0  0  0
   18.0920  -30.2784   13.4312 N   0  0  0  0  0  0  0  0  0  0  0  0
   17.7331  -30.0384   14.3159 H   0  0  0  0  0  0  0  0  0  0  0  0
   15.7878  -30.7874   12.7499 C   0  0  0  0  0  0  0  0  0  0  0  0
   14.8916  -31.5064   11.9448 C   0  0  0  0  0  0  0  0  0  0  0  0
   13.5259  -31.5522   12.2862 C   0  0  0  0  0  0  0  0  0  0  0  0
   13.0409  -30.8850   13.4151 C   0  0  0  0  0  0  0  0  0  0  0  0
   13.9349  -30.1629   14.1892 C   0  0  0  0  0  0  0  0  0  0  0  0
   13.4679  -29.4999   15.2881 O   0  0  0  0  0  0  0  0  0  0  0  0
   15.2913  -30.0980   13.8660 C   0  0  0  0  0  0  0  0  0  0  0  0
   16.0715  -29.3327   14.6994 O   0  0  0  0  0  0  0  0  0  0  0  0
   12.5581  -29.5409   15.5084 H   0  0  0  0  0  0  0  0  0  0  0  0
   15.6847  -28.8939   15.4313 H   0  0  0  0  0  0  0  0  0  0  0  0
   12.5973  -32.3128   11.4412 N   0  0  0  0  0  0  0  0  0  0  0  0
   12.3125  -33.4671   11.7854 O   0  0  0  0  0  0  0  0  0  0  0  0
   12.1586  -31.7488   10.4288 O   0  0  0  0  0  0  0  0  0  0  0  0
 23 24  2  0
 24 25  1  0
 25 22  1  0
 22  1  1  0
  1  2  2  0
  3  2  1  0
  3  4  1  0
  4  5  1  0
  5 12  1  0
 12 13  1  0
 13 14  2  0
 14 15  1  0
 15 16  2  0
 16 17  1  0
 17 18  2  0
 18 19  1  0
 18 20  1  0
 20 21  2  0
  5  6  1  0
  6  7  1  0
  6  8  1  0
  8  9  1  0
 24 27  1  0
 27 28  2  0
 28 29  1  0
 29 37  1  0
 37 38  2  0
 37 39  1  0
 29 30  2  0
 30 31  1  0
 31 32  1  0
 31 33  2  0
 33 34  1  0
  8  3  1  0
 33 27  1  0
 21 12  1  0
 21 15  1  0
 25 26  1  0
  7 10  1  0
  9 11  1  0
 32 35  1  0
 34 36  1  0
M  CHG 1  37   1
M  CHG 1  39  -1
M  END
> <minimizedAffinity>
-9.78756

> <CNNscore>
0.3241766691

> <CNNaffinity>
6.2990508080

> <CNN_VS>
2.0420053005

> <CNNaffinity_variance>
0.1823828965

$$$$



 39 42  0  0  0  0  0  0  0  0999 V2000
   20.1194  -32.2683   14.1109 C   0  0  0  0  0  0  0  0  0  0  0  0
   21.4105  -32.6401   14.1142 C   0  0  0  0  0  0  0  0  0  0  0  0
   21.9607  -33.7451   14.9736 C   0  0  0  0  0  0  0  0  0  0  0  0
   21.2034  -34.9316   14.6582 O   0  0  0  0  0  0  0  0  0  0  0  0
   22.0986  -35.9099   14.0900 C   0  0  0  0  0  0  0  0  0  0  0  0
   23.3533  -35.1490   13.6445 C   0  0  0  0  0  0  0  0  0  0  0  0
   24.5575  -35.9178   13.6565 O   0  0  0  0  0  0  0  0  0  0  0  0
   23.4322  -34.0601   14.6974 C   0  0  0  0  0  0  0  0  0  0  0  0
   24.0566  -34.5891   15.8773 O   0  0  0  0  0  0  0  0  0  0  0  0
   24.7147  -36.2587   14.5510 H   0  0  0  0  0  0  0  0  0  0  0  0
   23.5687  -35.3716   16.1782 H   0  0  0  0  0  0  0  0  0  0  0  0
   21.4227  -36.5961   13.0021 N   0  0  0  0  0  0  0  0  0  0  0  0
   20.7289  -37.7759   13.0684 C   0  0  0  0  0  0  0  0  0  0  0  0
   20.2519  -38.1344   11.8939 N   0  0  0  0  0  0  0  0  0  0  0  0
   20.6739  -37.1600   11.0276 C   0  0  0  0  0  0  0  0  0  0  0  0
   20.5080  -36.9736    9.6611 C   0  0  0  0  0  0  0  0  0  0  0  0
   21.0550  -35.8828    9.0666 N   0  0  0  0  0  0  0  0  0  0  0  0
   21.7459  -35.0100    9.8341 C   0  0  0  0  0  0  0  0  0  0  0  0
   22.4826  -33.4956    8.9487 Br  0  0  0  0  0  0  0  0  0  0  0  0
   21.9630  -35.0840   11.1699 N   0  0  0  0  0  0  0  0  0  0  0  0
   21.4049  -36.1897   11.6940 C   0  0  0  0  0  0  0  0  0  0  0  0
   19.5596  -31.1719   13.2642 C   0  0  0  0  0  0  0  0  0  0  0  0
   17.6520  -30.9832   11.2467 O   0  0  0  0  0  0  0  0  0  0  0  0
   17.2734  -31.0371   12.4144 C   0  0  0  0  0  0  0  0  0  0  0  0
   18.1355  -31.1198   13.4837 N   0  0  0  0  0  0  0  0  0  0  0  0
   17.7789  -31.1434   14.4010 H   0  0  0  0  0  0  0  0  0  0  0  0
   15.8142  -30.9622   12.6968 C   0  0  0  0  0  0  0  0  0  0  0  0
   14.8667  -31.6104   11.8902 C   0  0  0  0  0  0  0  0  0  0  0  0
   13.4974  -31.5179   12.2068 C   0  0  0  0  0  0  0  0  0  0  0  0
   13.0599  -30.7823   13.3124 C   0  0  0  0  0  0  0  0  0  0  0  0
   14.0060  -30.1315   14.0879 C   0  0  0  0  0  0  0  0  0  0  0  0
   13.5863  -29.4024   15.1638 O   0  0  0  0  0  0  0  0  0  0  0  0
   15.3675  -30.2036   13.7888 C   0  0  0  0  0  0  0  0  0  0  0  0
   16.2035  -29.4977   14.6206 O   0  0  0  0  0  0  0  0  0  0  0  0
   12.6733  -29.3515   15.3679 H   0  0  0  0  0  0  0  0  0  0  0  0
   15.8483  -29.0076   15.3358 H   0  0  0  0  0  0  0  0  0  0  0  0
   12.5144  -32.2053   11.3606 N   0  0  0  0  0  0  0  0  0  0  0  0
   12.3066  -33.4071   11.5720 O   0  0  0  0  0  0  0  0  0  0  0  0
   11.9553  -31.5356   10.4807 O   0  0  0  0  0  0  0  0  0  0  0  0
 23 24  2  0
 24 25  1  0
 25 22  1  0
 22  1  1  0
  1  2  2  0
  3  2  1  0
  3  4  1  0
  4  5  1  0
  5 12  1  0
 12 13  1  0
 13 14  2  0
 14 15  1  0
 15 16  2  0
 16 17  1  0
 17 18  2  0
 18 19  1  0
 18 20  1  0
 20 21  2  0
  5  6  1  0
  6  7  1  0
  6  8  1  0
  8  9  1  0
 24 27  1  0
 27 28  2  0
 28 29  1  0
 29 37  1  0
 37 38  2  0
 37 39  1  0
 29 30  2  0
 30 31  1  0
 31 32  1  0
 31 33  2  0
 33 34  1  0
  8  3  1  0
 33 27  1  0
 21 12  1  0
 21 15  1  0
 25 26  1  0
  7 10  1  0
  9 11  1  0
 32 35  1  0
 34 36  1  0
M  CHG 1  37   1
M  CHG 1  39  -1
M  END
> <minimizedAffinity>
-9.63529

> <CNNscore>
0.3015129268

> <CNNaffinity>
6.0923404694

> <CNN_VS>
1.8369194269

> <CNNaffinity_variance>
0.1061807647

$$$$



 39 42  0  0  0  0  0  0  0  0999 V2000
   19.9718  -32.6736   13.0434 C   0  0  0  0  0  0  0  0  0  0  0  0
   21.2049  -33.0816   12.6999 C   0  0  0  0  0  0  0  0  0  0  0  0
   21.5660  -34.5163   12.4280 C   0  0  0  0  0  0  0  0  0  0  0  0
   22.8860  -34.7216   12.9724 O   0  0  0  0  0  0  0  0  0  0  0  0
   22.7995  -35.7002   14.0289 C   0  0  0  0  0  0  0  0  0  0  0  0
   21.3227  -35.7772   14.4348 C   0  0  0  0  0  0  0  0  0  0  0  0
   20.9083  -37.0415   14.9557 O   0  0  0  0  0  0  0  0  0  0  0  0
   20.6341  -35.5212   13.1078 C   0  0  0  0  0  0  0  0  0  0  0  0
   20.5891  -36.7439   12.3562 O   0  0  0  0  0  0  0  0  0  0  0  0
   21.0751  -37.7332   14.2964 H   0  0  0  0  0  0  0  0  0  0  0  0
   21.4879  -37.0942   12.2546 H   0  0  0  0  0  0  0  0  0  0  0  0
   23.6773  -35.3030   15.1165 N   0  0  0  0  0  0  0  0  0  0  0  0
   24.2982  -34.0928   15.2826 C   0  0  0  0  0  0  0  0  0  0  0  0
   25.0428  -34.0653   16.3691 N   0  0  0  0  0  0  0  0  0  0  0  0
   24.9181  -35.3157   16.9158 C   0  0  0  0  0  0  0  0  0  0  0  0
   25.4603  -35.9107   18.0478 C   0  0  0  0  0  0  0  0  0  0  0  0
   25.1428  -37.1976   18.3406 N   0  0  0  0  0  0  0  0  0  0  0  0
   24.3021  -37.8575   17.5125 C   0  0  0  0  0  0  0  0  0  0  0  0
   23.8860  -39.6550   17.9770 Br  0  0  0  0  0  0  0  0  0  0  0  0
   23.7087  -37.3784   16.3921 N   0  0  0  0  0  0  0  0  0  0  0  0
   24.0719  -36.1055   16.1542 C   0  0  0  0  0  0  0  0  0  0  0  0
   19.5995  -31.2529   13.3180 C   0  0  0  0  0  0  0  0  0  0  0  0
   17.7025  -30.9983   11.2976 O   0  0  0  0  0  0  0  0  0  0  0  0
   17.3181  -31.0806   12.4618 C   0  0  0  0  0  0  0  0  0  0  0  0
   18.1746  -31.1972   13.5324 N   0  0  0  0  0  0  0  0  0  0  0  0
   17.8137  -31.2427   14.4472 H   0  0  0  0  0  0  0  0  0  0  0  0
   15.8581  -31.0035   12.7395 C   0  0  0  0  0  0  0  0  0  0  0  0
   14.9140  -31.6715   11.9451 C   0  0  0  0  0  0  0  0  0  0  0  0
   13.5439  -31.5759   12.2569 C   0  0  0  0  0  0  0  0  0  0  0  0
   13.1021  -30.8178   13.3454 C   0  0  0  0  0  0  0  0  0  0  0  0
   14.0448  -30.1478   14.1086 C   0  0  0  0  0  0  0  0  0  0  0  0
   13.6210  -29.3968   15.1677 O   0  0  0  0  0  0  0  0  0  0  0  0
   15.4071  -30.2227   13.8140 C   0  0  0  0  0  0  0  0  0  0  0  0
   16.2395  -29.4968   14.6320 O   0  0  0  0  0  0  0  0  0  0  0  0
   12.7073  -29.3440   15.3687 H   0  0  0  0  0  0  0  0  0  0  0  0
   15.8815  -28.9924   15.3358 H   0  0  0  0  0  0  0  0  0  0  0  0
   12.5645  -32.2839   11.4237 N   0  0  0  0  0  0  0  0  0  0  0  0
   12.0789  -31.6794   10.4588 O   0  0  0  0  0  0  0  0  0  0  0  0
   12.2816  -33.4471   11.7438 O   0  0  0  0  0  0  0  0  0  0  0  0
 23 24  2  0
 24 25  1  0
 25 22  1  0
 22  1  1  0
  1  2  2  0
  3  2  1  0
  3  4  1  0
  4  5  1  0
  5 12  1  0
 12 13  1  0
 13 14  2  0
 14 15  1  0
 15 16  2  0
 16 17  1  0
 17 18  2  0
 18 19  1  0
 18 20  1  0
 20 21  2  0
  5  6  1  0
  6  7  1  0
  6  8  1  0
  8  9  1  0
 24 27  1  0
 27 28  2  0
 28 29  1  0
 29 37  1  0
 37 38  2  0
 37 39  1  0
 29 30  2  0
 30 31  1  0
 31 32  1  0
 31 33  2  0
 33 34  1  0
  8  3  1  0
 33 27  1  0
 21 12  1  0
 21 15  1  0
 25 26  1  0
  7 10  1  0
  9 11  1  0
 32 35  1  0
 34 36  1  0
M  CHG 1  37   1
M  CHG 1  39  -1
M  END
> <minimizedAffinity>
-9.77898

> <CNNscore>
0.2733227015

> <CNNaffinity>
5.2832813263

> <CNN_VS>
1.4440407753

> <CNNaffinity_variance>
0.9047775865

$$$$



 39 42  0  0  0  0  0  0  0  0999 V2000
   19.9373  -32.7404   13.4822 C   0  0  0  0  0  0  0  0  0  0  0  0
   20.9910  -33.2995   12.8641 C   0  0  0  0  0  0  0  0  0  0  0  0
   21.4054  -34.7336   13.0491 C   0  0  0  0  0  0  0  0  0  0  0  0
   22.6515  -34.8995   12.3415 O   0  0  0  0  0  0  0  0  0  0  0  0
   23.6797  -35.2361   13.2958 C   0  0  0  0  0  0  0  0  0  0  0  0
   23.1421  -34.8415   14.6767 C   0  0  0  0  0  0  0  0  0  0  0  0
   23.6533  -35.6153   15.7636 O   0  0  0  0  0  0  0  0  0  0  0  0
   21.6593  -35.1137   14.5091 C   0  0  0  0  0  0  0  0  0  0  0  0
   21.4114  -36.5140   14.7080 O   0  0  0  0  0  0  0  0  0  0  0  0
   23.4485  -36.5522   15.6180 H   0  0  0  0  0  0  0  0  0  0  0  0
   21.9619  -37.0296   14.0982 H   0  0  0  0  0  0  0  0  0  0  0  0
   24.9063  -34.5458   12.9349 N   0  0  0  0  0  0  0  0  0  0  0  0
   25.0304  -33.2651   12.4637 C   0  0  0  0  0  0  0  0  0  0  0  0
   26.2852  -32.9504   12.2147 N   0  0  0  0  0  0  0  0  0  0  0  0
   27.0000  -34.0806   12.5141 C   0  0  0  0  0  0  0  0  0  0  0  0
   28.3535  -34.3870   12.4524 C   0  0  0  0  0  0  0  0  0  0  0  0
   28.7743  -35.6222   12.8263 N   0  0  0  0  0  0  0  0  0  0  0  0
   27.8520  -36.5156   13.2497 C   0  0  0  0  0  0  0  0  0  0  0  0
   28.5002  -38.2273   13.7689 Br  0  0  0  0  0  0  0  0  0  0  0  0
   26.5145  -36.3258   13.3598 N   0  0  0  0  0  0  0  0  0  0  0  0
   26.1636  -35.0888   12.9656 C   0  0  0  0  0  0  0  0  0  0  0  0
   19.5155  -31.3175   13.3093 C   0  0  0  0  0  0  0  0  0  0  0  0
   17.6233  -31.0362   11.2881 O   0  0  0  0  0  0  0  0  0  0  0  0
   17.2371  -31.1150   12.4518 C   0  0  0  0  0  0  0  0  0  0  0  0
   18.0914  -31.2439   13.5228 N   0  0  0  0  0  0  0  0  0  0  0  0
   17.7292  -31.2859   14.4373 H   0  0  0  0  0  0  0  0  0  0  0  0
   15.7780  -31.0197   12.7287 C   0  0  0  0  0  0  0  0  0  0  0  0
   14.8258  -31.6715   11.9306 C   0  0  0  0  0  0  0  0  0  0  0  0
   13.4568  -31.5590   12.2417 C   0  0  0  0  0  0  0  0  0  0  0  0
   13.0242  -30.7998   13.3332 C   0  0  0  0  0  0  0  0  0  0  0  0
   13.9751  -30.1459   14.1001 C   0  0  0  0  0  0  0  0  0  0  0  0
   13.5604  -29.3939   15.1621 O   0  0  0  0  0  0  0  0  0  0  0  0
   15.3366  -30.2377   13.8063 C   0  0  0  0  0  0  0  0  0  0  0  0
   16.1779  -29.5265   14.6281 O   0  0  0  0  0  0  0  0  0  0  0  0
   12.6474  -29.3298   15.3627 H   0  0  0  0  0  0  0  0  0  0  0  0
   15.8260  -29.0204   15.3339 H   0  0  0  0  0  0  0  0  0  0  0  0
   12.4688  -32.2502   11.4046 N   0  0  0  0  0  0  0  0  0  0  0  0
   12.1320  -33.3958   11.7309 O   0  0  0  0  0  0  0  0  0  0  0  0
   12.0356  -31.6408   10.4165 O   0  0  0  0  0  0  0  0  0  0  0  0
 23 24  2  0
 24 25  1  0
 25 22  1  0
 22  1  1  0
  1  2  2  0
  3  2  1  0
  3  4  1  0
  4  5  1  0
  5 12  1  0
 12 13  1  0
 13 14  2  0
 14 15  1  0
 15 16  2  0
 16 17  1  0
 17 18  2  0
 18 19  1  0
 18 20  1  0
 20 21  2  0
  5  6  1  0
  6  7  1  0
  6  8  1  0
  8  9  1  0
 24 27  1  0
 27 28  2  0
 28 29  1  0
 29 37  1  0
 37 38  2  0
 37 39  1  0
 29 30  2  0
 30 31  1  0
 31 32  1  0
 31 33  2  0
 33 34  1  0
  8  3  1  0
 33 27  1  0
 21 12  1  0
 21 15  1  0
 25 26  1  0
  7 10  1  0
  9 11  1  0
 32 35  1  0
 34 36  1  0
M  CHG 1  37   1
M  CHG 1  39  -1
M  END
> <minimizedAffinity>
-9.75241

> <CNNscore>
0.2695522308

> <CNNaffinity>
5.6319079399

> <CNN_VS>
1.5180933475

> <CNNaffinity_variance>
0.2110538334

$$$$
