


 35 39  0  0  0  0  0  0  0  0999 V2000
   16.1006  -11.3143   19.9202 C   0  0  0  0  0  0  0  0  0  0  0  0
   17.4050  -11.5738   20.6734 C   0  0  0  0  0  0  0  0  0  0  0  0
   17.3856  -12.6646   21.7193 C   0  0  0  0  0  0  0  0  0  0  0  0
   16.6897  -12.6643   22.7262 O   0  0  0  0  0  0  0  0  0  0  0  0
   18.3335  -13.5950   21.4030 N   0  0  0  0  0  0  0  0  0  0  0  0
   18.9971  -13.3049   20.2489 C   0  0  0  0  0  0  0  0  0  0  0  0
   19.9342  -13.9245   19.7686 O   0  0  0  0  0  0  0  0  0  0  0  0
   18.3682  -12.1004   19.6124 C   0  0  0  0  0  0  0  0  0  0  0  0
   17.5014  -12.5140   18.4326 C   0  0  0  0  0  0  0  0  0  0  0  0
   17.6600  -11.6301   17.2048 C   0  0  0  0  0  0  0  0  0  0  0  0
   16.3252  -11.8042   16.5116 C   0  0  0  0  0  0  0  0  0  0  0  0
   15.3286  -11.9138   17.6580 C   0  0  0  0  0  0  0  0  0  0  0  0
   16.0931  -12.3324   18.8496 N   0  0  0  0  0  0  0  0  0  0  0  0
   12.6684  -11.2223   22.5759 C   0  0  0  0  0  0  0  0  0  0  0  0
   13.0257  -12.4154   21.9363 C   0  0  0  0  0  0  0  0  0  0  0  0
   14.1111  -12.4495   21.0582 C   0  0  0  0  0  0  0  0  0  0  0  0
   14.8596  -11.2930   20.7927 C   0  0  0  0  0  0  0  0  0  0  0  0
   14.4797  -10.0939   21.4149 C   0  0  0  0  0  0  0  0  0  0  0  0
   13.3979  -10.0585   22.2983 C   0  0  0  0  0  0  0  0  0  0  0  0
   11.5803  -10.3063   24.5097 N   0  0  0  0  0  0  0  0  0  0  0  0
   11.5687  -11.1993   23.5446 C   0  0  0  0  0  0  0  0  0  0  0  0
   10.5917  -12.0705   23.4195 N   0  0  0  0  0  0  0  0  0  0  0  0
   10.8471  -10.2814   25.1661 H   0  0  0  0  0  0  0  0  0  0  0  0
   12.3223   -9.6626   24.5758 H   0  0  0  0  0  0  0  0  0  0  0  0
    9.8454  -12.0687   24.0617 H   0  0  0  0  0  0  0  0  0  0  0  0
   10.6065  -12.7245   22.6838 H   0  0  0  0  0  0  0  0  0  0  0  0
   18.6725  -14.7158   22.2538 C   0  0  0  0  0  0  0  0  0  0  0  0
   19.5772  -14.2944   23.3905 C   0  0  0  0  0  0  0  0  0  0  0  0
   19.0576  -14.0999   24.6803 C   0  0  0  0  0  0  0  0  0  0  0  0
   19.8997  -13.7409   25.7346 C   0  0  0  0  0  0  0  0  0  0  0  0
   21.2634  -13.5828   25.5080 C   0  0  0  0  0  0  0  0  0  0  0  0
   22.0525  -13.2444   26.5378 F   0  0  0  0  0  0  0  0  0  0  0  0
   21.7955  -13.7816   24.2371 C   0  0  0  0  0  0  0  0  0  0  0  0
   23.6501  -13.5856   23.9242 Br  0  0  0  0  0  0  0  0  0  0  0  0
   20.9573  -14.1381   23.1790 C   0  0  0  0  0  0  0  0  0  0  0  0
 20 21  1  0
 21 22  2  0
 21 14  1  0
 14 15  2  0
 15 16  1  0
 16 17  2  0
  1 17  1  0
  1  2  1  0
  2  3  1  0
  3  4  2  0
  3  5  1  0
  5 27  1  0
 27 28  1  0
 28 29  2  0
 29 30  1  0
 30 31  2  0
 31 32  1  0
 31 33  1  0
 33 34  1  0
 33 35  2  0
  5  6  1  0
  6  7  2  0
  8  6  1  0
  8  9  1  0
  9 10  1  0
 10 11  1  0
 11 12  1  0
 12 13  1  0
 17 18  1  0
 18 19  2  0
 19 14  1  0
 13  1  1  0
  8  2  1  0
 13  9  1  0
 35 28  1  0
 20 23  1  0
 20 24  1  0
 22 25  1  0
 22 26  1  0
M  CHG 1  22   1
M  END
> <minimizedAffinity>
-10.86464

> <CNNscore>
0.9782909751

> <CNNaffinity>
8.2720785141

> <CNN_VS>
8.0924997330

> <CNNaffinity_variance>
0.1243811846

$$$$



 35 39  0  0  0  0  0  0  0  0999 V2000
   14.8788  -13.3035   19.9339 C   0  0  0  0  0  0  0  0  0  0  0  0
   16.3334  -13.5220   20.3494 C   0  0  0  0  0  0  0  0  0  0  0  0
   16.6018  -13.7164   21.8240 C   0  0  0  0  0  0  0  0  0  0  0  0
   16.3736  -12.8900   22.6976 O   0  0  0  0  0  0  0  0  0  0  0  0
   17.2219  -14.9194   22.0039 N   0  0  0  0  0  0  0  0  0  0  0  0
   17.3973  -15.6052   20.8397 C   0  0  0  0  0  0  0  0  0  0  0  0
   17.9798  -16.6698   20.6986 O   0  0  0  0  0  0  0  0  0  0  0  0
   16.7183  -14.8618   19.7270 C   0  0  0  0  0  0  0  0  0  0  0  0
   15.4078  -15.5399   19.3567 C   0  0  0  0  0  0  0  0  0  0  0  0
   15.1676  -15.6519   17.8587 C   0  0  0  0  0  0  0  0  0  0  0  0
   13.6566  -15.7076   17.7810 C   0  0  0  0  0  0  0  0  0  0  0  0
   13.1978  -14.7756   18.8947 C   0  0  0  0  0  0  0  0  0  0  0  0
   14.3185  -14.6679   19.8498 N   0  0  0  0  0  0  0  0  0  0  0  0
   12.8304  -10.5376   22.5788 C   0  0  0  0  0  0  0  0  0  0  0  0
   12.4770  -11.8924   22.5744 C   0  0  0  0  0  0  0  0  0  0  0  0
   13.1101  -12.7856   21.7075 C   0  0  0  0  0  0  0  0  0  0  0  0
   14.1045  -12.3464   20.8205 C   0  0  0  0  0  0  0  0  0  0  0  0
   14.4348  -10.9825   20.8096 C   0  0  0  0  0  0  0  0  0  0  0  0
   13.8069  -10.0880   21.6800 C   0  0  0  0  0  0  0  0  0  0  0  0
   12.8721   -8.5396   23.9086 N   0  0  0  0  0  0  0  0  0  0  0  0
   12.2108   -9.6116   23.5308 C   0  0  0  0  0  0  0  0  0  0  0  0
   11.0026   -9.8731   23.9793 N   0  0  0  0  0  0  0  0  0  0  0  0
   12.4660   -7.9104   24.5477 H   0  0  0  0  0  0  0  0  0  0  0  0
   13.7733   -8.3663   23.5523 H   0  0  0  0  0  0  0  0  0  0  0  0
   10.5719   -9.2614   24.6193 H   0  0  0  0  0  0  0  0  0  0  0  0
   10.5287  -10.6807   23.6751 H   0  0  0  0  0  0  0  0  0  0  0  0
   17.7338  -15.3751   23.2788 C   0  0  0  0  0  0  0  0  0  0  0  0
   19.1016  -14.7961   23.5653 C   0  0  0  0  0  0  0  0  0  0  0  0
   20.0766  -14.7387   22.5567 C   0  0  0  0  0  0  0  0  0  0  0  0
   21.3282  -14.1759   22.8149 C   0  0  0  0  0  0  0  0  0  0  0  0
   21.6083  -13.6613   24.0769 C   0  0  0  0  0  0  0  0  0  0  0  0
   22.8147  -13.1198   24.2983 F   0  0  0  0  0  0  0  0  0  0  0  0
   20.6489  -13.7018   25.0847 C   0  0  0  0  0  0  0  0  0  0  0  0
   21.0156  -12.9891   26.7975 Br  0  0  0  0  0  0  0  0  0  0  0  0
   19.3970  -14.2658   24.8323 C   0  0  0  0  0  0  0  0  0  0  0  0
 20 21  1  0
 21 22  2  0
 21 14  1  0
 14 15  2  0
 15 16  1  0
 16 17  2  0
  1 17  1  0
  1  2  1  0
  2  3  1  0
  3  4  2  0
  3  5  1  0
  5 27  1  0
 27 28  1  0
 28 29  2  0
 29 30  1  0
 30 31  2  0
 31 32  1  0
 31 33  1  0
 33 34  1  0
 33 35  2  0
  5  6  1  0
  6  7  2  0
  8  6  1  0
  8  9  1  0
  9 10  1  0
 10 11  1  0
 11 12  1  0
 12 13  1  0
 17 18  1  0
 18 19  2  0
 19 14  1  0
 13  1  1  0
  8  2  1  0
 13  9  1  0
 35 28  1  0
 20 23  1  0
 20 24  1  0
 22 25  1  0
 22 26  1  0
M  CHG 1  22   1
M  END
> <minimizedAffinity>
-9.90477

> <CNNscore>
0.8074637651

> <CNNaffinity>
7.5745863914

> <CNN_VS>
6.1162042618

> <CNNaffinity_variance>
0.2037367374

$$$$



 35 39  0  0  0  0  0  0  0  0999 V2000
   13.9863  -13.6515   19.7547 C   0  0  0  0  0  0  0  0  0  0  0  0
   15.4747  -13.9991   19.7694 C   0  0  0  0  0  0  0  0  0  0  0  0
   16.1200  -14.1864   21.1232 C   0  0  0  0  0  0  0  0  0  0  0  0
   16.2126  -13.3234   21.9861 O   0  0  0  0  0  0  0  0  0  0  0  0
   16.6597  -15.4391   21.1843 N   0  0  0  0  0  0  0  0  0  0  0  0
   16.4488  -16.1634   20.0497 C   0  0  0  0  0  0  0  0  0  0  0  0
   16.8762  -17.2817   19.8059 O   0  0  0  0  0  0  0  0  0  0  0  0
   15.5569  -15.3827   19.1296 C   0  0  0  0  0  0  0  0  0  0  0  0
   14.1418  -15.9401   19.1611 C   0  0  0  0  0  0  0  0  0  0  0  0
   13.4907  -16.0610   17.7916 C   0  0  0  0  0  0  0  0  0  0  0  0
   12.0174  -15.9735   18.1298 C   0  0  0  0  0  0  0  0  0  0  0  0
   11.9643  -14.9781   19.2812 C   0  0  0  0  0  0  0  0  0  0  0  0
   13.3091  -14.9575   19.8900 N   0  0  0  0  0  0  0  0  0  0  0  0
   12.6064  -10.6858   22.6081 C   0  0  0  0  0  0  0  0  0  0  0  0
   13.3908  -10.2939   21.5166 C   0  0  0  0  0  0  0  0  0  0  0  0
   13.8635  -11.2435   20.6083 C   0  0  0  0  0  0  0  0  0  0  0  0
   13.5707  -12.6057   20.7722 C   0  0  0  0  0  0  0  0  0  0  0  0
   12.8076  -12.9958   21.8834 C   0  0  0  0  0  0  0  0  0  0  0  0
   12.3286  -12.0472   22.7904 C   0  0  0  0  0  0  0  0  0  0  0  0
   10.8528   -9.8568   24.0223 N   0  0  0  0  0  0  0  0  0  0  0  0
   12.0584   -9.6838   23.5267 C   0  0  0  0  0  0  0  0  0  0  0  0
   12.7913   -8.6375   23.8386 N   0  0  0  0  0  0  0  0  0  0  0  0
   10.4743   -9.1904   24.6403 H   0  0  0  0  0  0  0  0  0  0  0  0
   10.3286  -10.6528   23.7754 H   0  0  0  0  0  0  0  0  0  0  0  0
   12.4382   -7.9551   24.4542 H   0  0  0  0  0  0  0  0  0  0  0  0
   13.6929   -8.5365   23.4565 H   0  0  0  0  0  0  0  0  0  0  0  0
   17.4609  -15.9140   22.2922 C   0  0  0  0  0  0  0  0  0  0  0  0
   18.7544  -15.1392   22.4125 C   0  0  0  0  0  0  0  0  0  0  0  0
   19.6102  -15.3465   23.5061 C   0  0  0  0  0  0  0  0  0  0  0  0
   20.8184  -14.6527   23.5994 C   0  0  0  0  0  0  0  0  0  0  0  0
   21.1806  -13.7563   22.5987 C   0  0  0  0  0  0  0  0  0  0  0  0
   22.3487  -13.1072   22.7075 F   0  0  0  0  0  0  0  0  0  0  0  0
   20.3476  -13.5469   21.5032 C   0  0  0  0  0  0  0  0  0  0  0  0
   20.8404  -12.3434   20.1304 Br  0  0  0  0  0  0  0  0  0  0  0  0
   19.1374  -14.2363   21.4066 C   0  0  0  0  0  0  0  0  0  0  0  0
 20 21  1  0
 21 22  2  0
 21 14  1  0
 14 15  2  0
 15 16  1  0
 16 17  2  0
  1 17  1  0
  1  2  1  0
  2  3  1  0
  3  4  2  0
  3  5  1  0
  5 27  1  0
 27 28  1  0
 28 29  2  0
 29 30  1  0
 30 31  2  0
 31 32  1  0
 31 33  1  0
 33 34  1  0
 33 35  2  0
  5  6  1  0
  6  7  2  0
  8  6  1  0
  8  9  1  0
  9 10  1  0
 10 11  1  0
 11 12  1  0
 12 13  1  0
 17 18  1  0
 18 19  2  0
 19 14  1  0
 13  1  1  0
  8  2  1  0
 13  9  1  0
 35 28  1  0
 20 23  1  0
 20 24  1  0
 22 25  1  0
 22 26  1  0
M  CHG 1  22   1
M  END
> <minimizedAffinity>
-9.22858

> <CNNscore>
0.5222549438

> <CNNaffinity>
7.1288485527

> <CNN_VS>
3.7230763435

> <CNNaffinity_variance>
0.3475856483

$$$$



 35 39  0  0  0  0  0  0  0  0999 V2000
   14.2282  -12.3352   19.2426 C   0  0  0  0  0  0  0  0  0  0  0  0
   15.4672  -11.4833   18.9677 C   0  0  0  0  0  0  0  0  0  0  0  0
   16.3272  -11.1229   20.1570 C   0  0  0  0  0  0  0  0  0  0  0  0
   15.9612  -10.4566   21.1163 O   0  0  0  0  0  0  0  0  0  0  0  0
   17.5946  -11.5814   19.9391 N   0  0  0  0  0  0  0  0  0  0  0  0
   17.7231  -12.2430   18.7549 C   0  0  0  0  0  0  0  0  0  0  0  0
   18.7528  -12.6955   18.2779 O   0  0  0  0  0  0  0  0  0  0  0  0
   16.3706  -12.3740   18.1185 C   0  0  0  0  0  0  0  0  0  0  0  0
   15.8378  -13.7888   18.2883 C   0  0  0  0  0  0  0  0  0  0  0  0
   15.1910  -14.3637   17.0373 C   0  0  0  0  0  0  0  0  0  0  0  0
   14.2259  -15.3777   17.6142 C   0  0  0  0  0  0  0  0  0  0  0  0
   13.7321  -14.7244   18.8982 C   0  0  0  0  0  0  0  0  0  0  0  0
   14.7432  -13.7193   19.2819 N   0  0  0  0  0  0  0  0  0  0  0  0
   12.0835  -10.9961   22.7708 C   0  0  0  0  0  0  0  0  0  0  0  0
   12.6326  -12.2834   22.7331 C   0  0  0  0  0  0  0  0  0  0  0  0
   13.3002  -12.7344   21.5924 C   0  0  0  0  0  0  0  0  0  0  0  0
   13.4286  -11.9143   20.4613 C   0  0  0  0  0  0  0  0  0  0  0  0
   12.8519  -10.6354   20.4945 C   0  0  0  0  0  0  0  0  0  0  0  0
   12.1886  -10.1798   21.6366 C   0  0  0  0  0  0  0  0  0  0  0  0
   11.2509   -9.2065   24.1369 N   0  0  0  0  0  0  0  0  0  0  0  0
   11.4372  -10.4997   23.9889 C   0  0  0  0  0  0  0  0  0  0  0  0
   11.0524  -11.3633   24.9028 N   0  0  0  0  0  0  0  0  0  0  0  0
   10.8179   -8.8615   24.9510 H   0  0  0  0  0  0  0  0  0  0  0  0
   11.5445   -8.5832   23.4336 H   0  0  0  0  0  0  0  0  0  0  0  0
   10.6167  -11.0466   25.7269 H   0  0  0  0  0  0  0  0  0  0  0  0
   11.1999  -12.3266   24.7630 H   0  0  0  0  0  0  0  0  0  0  0  0
   18.7097  -11.3060   20.8199 C   0  0  0  0  0  0  0  0  0  0  0  0
   19.2506  -12.5743   21.4418 C   0  0  0  0  0  0  0  0  0  0  0  0
   20.6307  -12.8325   21.4480 C   0  0  0  0  0  0  0  0  0  0  0  0
   21.1306  -13.9891   22.0498 C   0  0  0  0  0  0  0  0  0  0  0  0
   20.2568  -14.8875   22.6542 C   0  0  0  0  0  0  0  0  0  0  0  0
   20.7615  -15.9874   23.2314 F   0  0  0  0  0  0  0  0  0  0  0  0
   18.8868  -14.6410   22.6652 C   0  0  0  0  0  0  0  0  0  0  0  0
   17.6942  -15.8482   23.4996 Br  0  0  0  0  0  0  0  0  0  0  0  0
   18.3818  -13.4873   22.0626 C   0  0  0  0  0  0  0  0  0  0  0  0
 20 21  1  0
 21 22  2  0
 21 14  1  0
 14 15  2  0
 15 16  1  0
 16 17  2  0
  1 17  1  0
  1  2  1  0
  2  3  1  0
  3  4  2  0
  3  5  1  0
  5 27  1  0
 27 28  1  0
 28 29  2  0
 29 30  1  0
 30 31  2  0
 31 32  1  0
 31 33  1  0
 33 34  1  0
 33 35  2  0
  5  6  1  0
  6  7  2  0
  8  6  1  0
  8  9  1  0
  9 10  1  0
 10 11  1  0
 11 12  1  0
 12 13  1  0
 17 18  1  0
 18 19  2  0
 19 14  1  0
 13  1  1  0
  8  2  1  0
 13  9  1  0
 35 28  1  0
 20 23  1  0
 20 24  1  0
 22 25  1  0
 22 26  1  0
M  CHG 1  22   1
M  END
> <minimizedAffinity>
-9.14092

> <CNNscore>
0.5112786293

> <CNNaffinity>
7.0293540955

> <CNN_VS>
3.5939586163

> <CNNaffinity_variance>
0.2209170312

$$$$



 35 39  0  0  0  0  0  0  0  0999 V2000
   15.8894  -11.1691   19.7881 C   0  0  0  0  0  0  0  0  0  0  0  0
   17.2120  -11.4061   20.5165 C   0  0  0  0  0  0  0  0  0  0  0  0
   17.2267  -12.4860   21.5738 C   0  0  0  0  0  0  0  0  0  0  0  0
   16.5519  -12.4828   22.5950 O   0  0  0  0  0  0  0  0  0  0  0  0
   18.1782  -13.4091   21.2474 N   0  0  0  0  0  0  0  0  0  0  0  0
   18.8145  -13.1238   20.0767 C   0  0  0  0  0  0  0  0  0  0  0  0
   19.7483  -13.7380   19.5833 O   0  0  0  0  0  0  0  0  0  0  0  0
   18.1588  -11.9331   19.4411 C   0  0  0  0  0  0  0  0  0  0  0  0
   17.2725  -12.3687   18.2840 C   0  0  0  0  0  0  0  0  0  0  0  0
   17.3956  -11.4960   17.0441 C   0  0  0  0  0  0  0  0  0  0  0  0
   16.0487  -11.6921   16.3809 C   0  0  0  0  0  0  0  0  0  0  0  0
   15.0774  -11.8008   17.5488 C   0  0  0  0  0  0  0  0  0  0  0  0
   15.8712  -12.1983   18.7285 N   0  0  0  0  0  0  0  0  0  0  0  0
   12.5136  -11.1102   22.5162 C   0  0  0  0  0  0  0  0  0  0  0  0
   12.7916  -12.2635   21.7727 C   0  0  0  0  0  0  0  0  0  0  0  0
   13.8582  -12.2839   20.8714 C   0  0  0  0  0  0  0  0  0  0  0  0
   14.6666  -11.1523   20.6861 C   0  0  0  0  0  0  0  0  0  0  0  0
   14.3660   -9.9904   21.4133 C   0  0  0  0  0  0  0  0  0  0  0  0
   13.3032   -9.9693   22.3198 C   0  0  0  0  0  0  0  0  0  0  0  0
   10.6230  -12.1407   23.5773 N   0  0  0  0  0  0  0  0  0  0  0  0
   11.4337  -11.1077   23.5070 C   0  0  0  0  0  0  0  0  0  0  0  0
   11.3066  -10.0725   24.3078 N   0  0  0  0  0  0  0  0  0  0  0  0
    9.8940  -12.1502   24.2389 H   0  0  0  0  0  0  0  0  0  0  0  0
   10.7451  -12.9046   22.9684 H   0  0  0  0  0  0  0  0  0  0  0  0
   10.5865  -10.0549   24.9790 H   0  0  0  0  0  0  0  0  0  0  0  0
   11.9314   -9.3151   24.2362 H   0  0  0  0  0  0  0  0  0  0  0  0
   18.5475  -14.5171   22.1024 C   0  0  0  0  0  0  0  0  0  0  0  0
   17.6093  -15.6902   21.9250 C   0  0  0  0  0  0  0  0  0  0  0  0
   17.1117  -16.0188   20.6539 C   0  0  0  0  0  0  0  0  0  0  0  0
   16.2702  -17.1206   20.4876 C   0  0  0  0  0  0  0  0  0  0  0  0
   15.9291  -17.9028   21.5866 C   0  0  0  0  0  0  0  0  0  0  0  0
   15.1252  -18.9596   21.4004 F   0  0  0  0  0  0  0  0  0  0  0  0
   16.4221  -17.5960   22.8518 C   0  0  0  0  0  0  0  0  0  0  0  0
   15.9774  -18.6640   24.3476 Br  0  0  0  0  0  0  0  0  0  0  0  0
   17.2617  -16.4939   23.0237 C   0  0  0  0  0  0  0  0  0  0  0  0
 20 21  1  0
 21 22  2  0
 21 14  1  0
 14 15  2  0
 15 16  1  0
 16 17  2  0
  1 17  1  0
  1  2  1  0
  2  3  1  0
  3  4  2  0
  3  5  1  0
  5 27  1  0
 27 28  1  0
 28 29  2  0
 29 30  1  0
 30 31  2  0
 31 32  1  0
 31 33  1  0
 33 34  1  0
 33 35  2  0
  5  6  1  0
  6  7  2  0
  8  6  1  0
  8  9  1  0
  9 10  1  0
 10 11  1  0
 11 12  1  0
 12 13  1  0
 17 18  1  0
 18 19  2  0
 19 14  1  0
 13  1  1  0
  8  2  1  0
 13  9  1  0
 35 28  1  0
 20 23  1  0
 20 24  1  0
 22 25  1  0
 22 26  1  0
M  CHG 1  22   1
M  END
> <minimizedAffinity>
-9.27300

> <CNNscore>
0.4102821350

> <CNNaffinity>
6.8835167885

> <CNN_VS>
2.8241839409

> <CNNaffinity_variance>
0.1349336356

$$$$



 35 39  0  0  0  0  0  0  0  0999 V2000
   19.2949  -13.6182   23.7875 C   0  0  0  0  0  0  0  0  0  0  0  0
   18.2522  -14.7072   24.0389 C   0  0  0  0  0  0  0  0  0  0  0  0
   18.2058  -15.8507   23.0518 C   0  0  0  0  0  0  0  0  0  0  0  0
   17.9500  -15.7437   21.8596 O   0  0  0  0  0  0  0  0  0  0  0  0
   18.4025  -17.0220   23.7251 N   0  0  0  0  0  0  0  0  0  0  0  0
   18.6082  -16.8386   25.0595 C   0  0  0  0  0  0  0  0  0  0  0  0
   18.7425  -17.7100   25.9053 O   0  0  0  0  0  0  0  0  0  0  0  0
   18.6870  -15.3676   25.3448 C   0  0  0  0  0  0  0  0  0  0  0  0
   20.1320  -14.9450   25.5633 C   0  0  0  0  0  0  0  0  0  0  0  0
   20.3315  -13.9957   26.7351 C   0  0  0  0  0  0  0  0  0  0  0  0
   21.5924  -13.2580   26.3371 C   0  0  0  0  0  0  0  0  0  0  0  0
   21.4734  -13.1182   24.8253 C   0  0  0  0  0  0  0  0  0  0  0  0
   20.5364  -14.1653   24.3722 N   0  0  0  0  0  0  0  0  0  0  0  0
   19.4641  -12.4614   19.6073 C   0  0  0  0  0  0  0  0  0  0  0  0
   20.4895  -13.2384   20.1597 C   0  0  0  0  0  0  0  0  0  0  0  0
   20.4591  -13.5925   21.5103 C   0  0  0  0  0  0  0  0  0  0  0  0
   19.4095  -13.1735   22.3416 C   0  0  0  0  0  0  0  0  0  0  0  0
   18.3991  -12.3716   21.7889 C   0  0  0  0  0  0  0  0  0  0  0  0
   18.4242  -12.0208   20.4368 C   0  0  0  0  0  0  0  0  0  0  0  0
   20.6093  -11.9824   17.5527 N   0  0  0  0  0  0  0  0  0  0  0  0
   19.4630  -12.1415   18.1770 C   0  0  0  0  0  0  0  0  0  0  0  0
   18.3124  -12.0284   17.5506 N   0  0  0  0  0  0  0  0  0  0  0  0
   20.6210  -11.7673   16.5921 H   0  0  0  0  0  0  0  0  0  0  0  0
   21.4559  -12.0783   18.0460 H   0  0  0  0  0  0  0  0  0  0  0  0
   18.2939  -11.8139   16.5900 H   0  0  0  0  0  0  0  0  0  0  0  0
   17.4694  -12.1581   18.0424 H   0  0  0  0  0  0  0  0  0  0  0  0
   18.3003  -18.3280   23.1095 C   0  0  0  0  0  0  0  0  0  0  0  0
   17.1611  -19.1302   23.6983 C   0  0  0  0  0  0  0  0  0  0  0  0
   15.8611  -18.6010   23.7347 C   0  0  0  0  0  0  0  0  0  0  0  0
   14.8053  -19.3553   24.2506 C   0  0  0  0  0  0  0  0  0  0  0  0
   15.0410  -20.6423   24.7241 C   0  0  0  0  0  0  0  0  0  0  0  0
   14.0098  -21.3492   25.2083 F   0  0  0  0  0  0  0  0  0  0  0  0
   16.3223  -21.1849   24.6859 C   0  0  0  0  0  0  0  0  0  0  0  0
   16.6480  -22.9395   25.3113 Br  0  0  0  0  0  0  0  0  0  0  0  0
   17.3818  -20.4338   24.1734 C   0  0  0  0  0  0  0  0  0  0  0  0
 20 21  1  0
 21 22  2  0
 21 14  1  0
 14 15  2  0
 15 16  1  0
 16 17  2  0
  1 17  1  0
  1  2  1  0
  2  3  1  0
  3  4  2  0
  3  5  1  0
  5 27  1  0
 27 28  1  0
 28 29  2  0
 29 30  1  0
 30 31  2  0
 31 32  1  0
 31 33  1  0
 33 34  1  0
 33 35  2  0
  5  6  1  0
  6  7  2  0
  8  6  1  0
  8  9  1  0
  9 10  1  0
 10 11  1  0
 11 12  1  0
 12 13  1  0
 17 18  1  0
 18 19  2  0
 19 14  1  0
 13  1  1  0
  8  2  1  0
 13  9  1  0
 35 28  1  0
 20 23  1  0
 20 24  1  0
 22 25  1  0
 22 26  1  0
M  CHG 1  22   1
M  END
> <minimizedAffinity>
-7.57014

> <CNNscore>
0.3794185817

> <CNNaffinity>
6.2569041252

> <CNN_VS>
2.3739857674

> <CNNaffinity_variance>
0.4557749033

$$$$



 35 39  0  0  0  0  0  0  0  0999 V2000
   15.8099  -16.6345   21.2114 C   0  0  0  0  0  0  0  0  0  0  0  0
   14.5728  -15.7500   21.3647 C   0  0  0  0  0  0  0  0  0  0  0  0
   14.7166  -14.2983   20.9697 C   0  0  0  0  0  0  0  0  0  0  0  0
   15.4763  -13.4959   21.4960 O   0  0  0  0  0  0  0  0  0  0  0  0
   13.7986  -14.0127   20.0003 N   0  0  0  0  0  0  0  0  0  0  0  0
   13.0465  -15.0926   19.6472 C   0  0  0  0  0  0  0  0  0  0  0  0
   12.1126  -15.1075   18.8596 O   0  0  0  0  0  0  0  0  0  0  0  0
   13.5700  -16.3065   20.3571 C   0  0  0  0  0  0  0  0  0  0  0  0
   14.3771  -17.1738   19.4029 C   0  0  0  0  0  0  0  0  0  0  0  0
   14.0932  -18.6632   19.5255 C   0  0  0  0  0  0  0  0  0  0  0  0
   15.3866  -19.2764   19.0320 C   0  0  0  0  0  0  0  0  0  0  0  0
   16.4608  -18.3232   19.5389 C   0  0  0  0  0  0  0  0  0  0  0  0
   15.7987  -17.0272   19.7873 N   0  0  0  0  0  0  0  0  0  0  0  0
   19.4012  -14.6778   22.6659 C   0  0  0  0  0  0  0  0  0  0  0  0
   19.1585  -14.7601   21.2895 C   0  0  0  0  0  0  0  0  0  0  0  0
   18.0204  -15.4120   20.8098 C   0  0  0  0  0  0  0  0  0  0  0  0
   17.1030  -16.0027   21.6917 C   0  0  0  0  0  0  0  0  0  0  0  0
   17.3658  -15.9414   23.0688 C   0  0  0  0  0  0  0  0  0  0  0  0
   18.5006  -15.2848   23.5514 C   0  0  0  0  0  0  0  0  0  0  0  0
   20.6126  -13.6166   24.4459 N   0  0  0  0  0  0  0  0  0  0  0  0
   20.5622  -13.9407   23.1725 C   0  0  0  0  0  0  0  0  0  0  0  0
   21.5304  -13.6271   22.3397 N   0  0  0  0  0  0  0  0  0  0  0  0
   21.3875  -13.1215   24.7975 H   0  0  0  0  0  0  0  0  0  0  0  0
   19.8755  -13.8691   25.0477 H   0  0  0  0  0  0  0  0  0  0  0  0
   22.3173  -13.1322   22.6637 H   0  0  0  0  0  0  0  0  0  0  0  0
   21.4683  -13.8874   21.3923 H   0  0  0  0  0  0  0  0  0  0  0  0
   13.5739  -12.6826   19.4754 C   0  0  0  0  0  0  0  0  0  0  0  0
   13.4443  -11.6637   20.5858 C   0  0  0  0  0  0  0  0  0  0  0  0
   14.1580  -10.4557   20.5313 C   0  0  0  0  0  0  0  0  0  0  0  0
   14.0133   -9.5033   21.5422 C   0  0  0  0  0  0  0  0  0  0  0  0
   13.1506   -9.7489   22.6059 C   0  0  0  0  0  0  0  0  0  0  0  0
   13.0235   -8.8161   23.5606 F   0  0  0  0  0  0  0  0  0  0  0  0
   12.4285  -10.9373   22.6694 C   0  0  0  0  0  0  0  0  0  0  0  0
   11.2410  -11.2714   24.1025 Br  0  0  0  0  0  0  0  0  0  0  0  0
   12.5717  -11.8939   21.6625 C   0  0  0  0  0  0  0  0  0  0  0  0
 20 21  1  0
 21 22  2  0
 21 14  1  0
 14 15  2  0
 15 16  1  0
 16 17  2  0
  1 17  1  0
  1  2  1  0
  2  3  1  0
  3  4  2  0
  3  5  1  0
  5 27  1  0
 27 28  1  0
 28 29  2  0
 29 30  1  0
 30 31  2  0
 31 32  1  0
 31 33  1  0
 33 34  1  0
 33 35  2  0
  5  6  1  0
  6  7  2  0
  8  6  1  0
  8  9  1  0
  9 10  1  0
 10 11  1  0
 11 12  1  0
 12 13  1  0
 17 18  1  0
 18 19  2  0
 19 14  1  0
 13  1  1  0
  8  2  1  0
 13  9  1  0
 35 28  1  0
 20 23  1  0
 20 24  1  0
 22 25  1  0
 22 26  1  0
M  CHG 1  22   1
M  END
> <minimizedAffinity>
-7.84380

> <CNNscore>
0.3606382608

> <CNNaffinity>
7.0157985687

> <CNN_VS>
2.5301654339

> <CNNaffinity_variance>
0.2483966202

$$$$



 35 39  0  0  0  0  0  0  0  0999 V2000
   19.3160  -13.5127   23.5414 C   0  0  0  0  0  0  0  0  0  0  0  0
   18.1177  -14.4130   23.8409 C   0  0  0  0  0  0  0  0  0  0  0  0
   17.8338  -15.5241   22.8565 C   0  0  0  0  0  0  0  0  0  0  0  0
   17.5449  -15.3656   21.6777 O   0  0  0  0  0  0  0  0  0  0  0  0
   17.8616  -16.7174   23.5192 N   0  0  0  0  0  0  0  0  0  0  0  0
   18.1568  -16.5825   24.8426 C   0  0  0  0  0  0  0  0  0  0  0  0
   18.1815  -17.4711   25.6807 O   0  0  0  0  0  0  0  0  0  0  0  0
   18.4952  -15.1481   25.1246 C   0  0  0  0  0  0  0  0  0  0  0  0
   19.9992  -14.9763   25.2751 C   0  0  0  0  0  0  0  0  0  0  0  0
   20.4096  -14.0839   26.4367 C   0  0  0  0  0  0  0  0  0  0  0  0
   21.7568  -13.5653   25.9802 C   0  0  0  0  0  0  0  0  0  0  0  0
   21.5933  -13.3947   24.4758 C   0  0  0  0  0  0  0  0  0  0  0  0
   20.4735  -14.2656   24.0668 N   0  0  0  0  0  0  0  0  0  0  0  0
   19.4907  -12.3773   19.3555 C   0  0  0  0  0  0  0  0  0  0  0  0
   20.4454  -13.2557   19.8821 C   0  0  0  0  0  0  0  0  0  0  0  0
   20.4152  -13.6055   21.2337 C   0  0  0  0  0  0  0  0  0  0  0  0
   19.4368  -13.0814   22.0919 C   0  0  0  0  0  0  0  0  0  0  0  0
   18.4995  -12.1798   21.5646 C   0  0  0  0  0  0  0  0  0  0  0  0
   18.5241  -11.8328   20.2115 C   0  0  0  0  0  0  0  0  0  0  0  0
   20.6275  -11.9514   17.2846 N   0  0  0  0  0  0  0  0  0  0  0  0
   19.4840  -12.0583   17.9250 C   0  0  0  0  0  0  0  0  0  0  0  0
   18.3310  -11.8936   17.3147 N   0  0  0  0  0  0  0  0  0  0  0  0
   20.6354  -11.7375   16.3237 H   0  0  0  0  0  0  0  0  0  0  0  0
   21.4757  -12.0852   17.7661 H   0  0  0  0  0  0  0  0  0  0  0  0
   18.3087  -11.6789   16.3541 H   0  0  0  0  0  0  0  0  0  0  0  0
   17.4900  -11.9848   17.8183 H   0  0  0  0  0  0  0  0  0  0  0  0
   17.5127  -17.9824   22.9084 C   0  0  0  0  0  0  0  0  0  0  0  0
   18.6287  -18.4985   22.0275 C   0  0  0  0  0  0  0  0  0  0  0  0
   19.9683  -18.3792   22.4310 C   0  0  0  0  0  0  0  0  0  0  0  0
   20.9950  -18.8838   21.6304 C   0  0  0  0  0  0  0  0  0  0  0  0
   20.6889  -19.5162   20.4294 C   0  0  0  0  0  0  0  0  0  0  0  0
   21.6917  -19.9985   19.6816 F   0  0  0  0  0  0  0  0  0  0  0  0
   19.3652  -19.6512   20.0201 C   0  0  0  0  0  0  0  0  0  0  0  0
   18.9395  -20.5245   18.3978 Br  0  0  0  0  0  0  0  0  0  0  0  0
   18.3351  -19.1460   20.8157 C   0  0  0  0  0  0  0  0  0  0  0  0
 20 21  1  0
 21 22  2  0
 21 14  1  0
 14 15  2  0
 15 16  1  0
 16 17  2  0
  1 17  1  0
  1  2  1  0
  2  3  1  0
  3  4  2  0
  3  5  1  0
  5 27  1  0
 27 28  1  0
 28 29  2  0
 29 30  1  0
 30 31  2  0
 31 32  1  0
 31 33  1  0
 33 34  1  0
 33 35  2  0
  5  6  1  0
  6  7  2  0
  8  6  1  0
  8  9  1  0
  9 10  1  0
 10 11  1  0
 11 12  1  0
 12 13  1  0
 17 18  1  0
 18 19  2  0
 19 14  1  0
 13  1  1  0
  8  2  1  0
 13  9  1  0
 35 28  1  0
 20 23  1  0
 20 24  1  0
 22 25  1  0
 22 26  1  0
M  CHG 1  22   1
M  END
> <minimizedAffinity>
-7.69094

> <CNNscore>
0.2993032336

> <CNNaffinity>
6.3313269615

> <CNN_VS>
1.8949866295

> <CNNaffinity_variance>
0.5563123822

$$$$



 35 39  0  0  0  0  0  0  0  0999 V2000
   18.2496  -16.8059   22.7033 C   0  0  0  0  0  0  0  0  0  0  0  0
   17.3440  -15.5913   22.9052 C   0  0  0  0  0  0  0  0  0  0  0  0
   17.9627  -14.2313   22.6771 C   0  0  0  0  0  0  0  0  0  0  0  0
   18.8963  -13.7647   23.3165 O   0  0  0  0  0  0  0  0  0  0  0  0
   17.2514  -13.5804   21.7105 N   0  0  0  0  0  0  0  0  0  0  0  0
   16.2259  -14.3272   21.2131 C   0  0  0  0  0  0  0  0  0  0  0  0
   15.3925  -13.9713   20.3936 O   0  0  0  0  0  0  0  0  0  0  0  0
   16.2913  -15.7043   21.8054 C   0  0  0  0  0  0  0  0  0  0  0  0
   16.8518  -16.6923   20.7935 C   0  0  0  0  0  0  0  0  0  0  0  0
   16.1078  -18.0181   20.7416 C   0  0  0  0  0  0  0  0  0  0  0  0
   17.1757  -18.9636   20.2336 C   0  0  0  0  0  0  0  0  0  0  0  0
   18.4556  -18.4533   20.8821 C   0  0  0  0  0  0  0  0  0  0  0  0
   18.2168  -17.0423   21.2454 N   0  0  0  0  0  0  0  0  0  0  0  0
   22.2708  -16.5815   24.3222 C   0  0  0  0  0  0  0  0  0  0  0  0
   21.1789  -16.7473   25.1828 C   0  0  0  0  0  0  0  0  0  0  0  0
   19.8788  -16.7925   24.6750 C   0  0  0  0  0  0  0  0  0  0  0  0
   19.6380  -16.6660   23.2986 C   0  0  0  0  0  0  0  0  0  0  0  0
   20.7340  -16.4721   22.4439 C   0  0  0  0  0  0  0  0  0  0  0  0
   22.0361  -16.4323   22.9488 C   0  0  0  0  0  0  0  0  0  0  0  0
   24.6493  -16.4842   24.0129 N   0  0  0  0  0  0  0  0  0  0  0  0
   23.6391  -16.5961   24.8472 C   0  0  0  0  0  0  0  0  0  0  0  0
   23.8224  -16.7140   26.1440 N   0  0  0  0  0  0  0  0  0  0  0  0
   25.5727  -16.4927   24.3540 H   0  0  0  0  0  0  0  0  0  0  0  0
   24.4821  -16.3919   23.0471 H   0  0  0  0  0  0  0  0  0  0  0  0
   24.7350  -16.7255   26.5131 H   0  0  0  0  0  0  0  0  0  0  0  0
   23.0470  -16.7907   26.7458 H   0  0  0  0  0  0  0  0  0  0  0  0
   17.4921  -12.2059   21.3260 C   0  0  0  0  0  0  0  0  0  0  0  0
   18.3780  -12.1199   20.1030 C   0  0  0  0  0  0  0  0  0  0  0  0
   19.7714  -12.2449   20.2222 C   0  0  0  0  0  0  0  0  0  0  0  0
   20.5848  -12.1959   19.0883 C   0  0  0  0  0  0  0  0  0  0  0  0
   20.0109  -12.0304   17.8317 C   0  0  0  0  0  0  0  0  0  0  0  0
   20.8123  -11.9934   16.7574 F   0  0  0  0  0  0  0  0  0  0  0  0
   18.6303  -11.9149   17.6958 C   0  0  0  0  0  0  0  0  0  0  0  0
   17.8410  -11.7071   15.9900 Br  0  0  0  0  0  0  0  0  0  0  0  0
   17.8129  -11.9606   18.8267 C   0  0  0  0  0  0  0  0  0  0  0  0
 20 21  1  0
 21 22  2  0
 21 14  1  0
 14 15  2  0
 15 16  1  0
 16 17  2  0
  1 17  1  0
  1  2  1  0
  2  3  1  0
  3  4  2  0
  3  5  1  0
  5 27  1  0
 27 28  1  0
 28 29  2  0
 29 30  1  0
 30 31  2  0
 31 32  1  0
 31 33  1  0
 33 34  1  0
 33 35  2  0
  5  6  1  0
  6  7  2  0
  8  6  1  0
  8  9  1  0
  9 10  1  0
 10 11  1  0
 11 12  1  0
 12 13  1  0
 17 18  1  0
 18 19  2  0
 19 14  1  0
 13  1  1  0
  8  2  1  0
 13  9  1  0
 35 28  1  0
 20 23  1  0
 20 24  1  0
 22 25  1  0
 22 26  1  0
M  CHG 1  22   1
M  END
> <minimizedAffinity>
-7.09220

> <CNNscore>
0.2319141179

> <CNNaffinity>
5.8664412498

> <CNN_VS>
1.3605105877

> <CNNaffinity_variance>
0.3607550859

$$$$
