


 54 57  0  0  0  0  0  0  0  0999 V2000
   18.4696  -15.0668   22.5754 C   0  0  0  0  0  0  0  0  0  0  0  0
   19.5534  -14.8846   21.5012 C   0  0  0  0  0  0  0  0  0  0  0  0
   20.3384  -15.8140   21.2675 O   0  0  0  0  0  0  0  0  0  0  0  0
   19.6690  -13.6739   20.8654 N   0  0  0  0  0  0  0  0  0  0  0  0
   20.6517  -13.5003   19.8099 C   0  0  0  0  0  0  0  0  0  0  0  0
   20.4728  -12.0697   19.3224 C   0  0  0  0  0  0  0  0  0  0  0  0
   19.8502  -11.3644   20.5211 C   0  0  0  0  0  0  0  0  0  0  0  0
   18.9113  -12.4349   21.0960 C   0  0  0  0  0  0  0  0  0  0  0  0
   17.5466  -12.4473   20.3680 C   0  0  0  0  0  0  0  0  0  0  0  0
   17.2489  -13.2946   19.5343 O   0  0  0  0  0  0  0  0  0  0  0  0
   16.6787  -11.4449   20.7573 N   0  0  0  0  0  0  0  0  0  0  0  0
   16.8509  -10.9367   21.5828 H   0  0  0  0  0  0  0  0  0  0  0  0
   15.5162  -11.1433   19.9498 C   0  0  0  0  0  0  0  0  0  0  0  0
   14.2971  -11.0817   20.8398 C   0  0  0  0  0  0  0  0  0  0  0  0
   13.7993   -9.8414   21.2656 C   0  0  0  0  0  0  0  0  0  0  0  0
   12.7358   -9.7733   22.1693 C   0  0  0  0  0  0  0  0  0  0  0  0
   12.1635  -10.9488   22.6589 C   0  0  0  0  0  0  0  0  0  0  0  0
   12.6501  -12.1907   22.2325 C   0  0  0  0  0  0  0  0  0  0  0  0
   13.7098  -12.2567   21.3259 C   0  0  0  0  0  0  0  0  0  0  0  0
   11.0737  -10.8989   23.6731 C   0  0  0  0  0  0  0  0  0  0  0  0
   10.3662  -11.9267   24.0142 N   0  0  0  0  0  0  0  0  0  0  0  0
   10.7585   -9.7175   24.2805 N   0  0  0  0  0  0  0  0  0  0  0  0
   10.5478  -12.8055   23.6093 H   0  0  0  0  0  0  0  0  0  0  0  0
   11.2628   -8.9011   24.0606 H   0  0  0  0  0  0  0  0  0  0  0  0
   10.0269   -9.6821   24.9383 H   0  0  0  0  0  0  0  0  0  0  0  0
   18.6563  -13.9700   23.5876 N   0  0  0  0  0  0  0  0  0  0  0  0
   19.2933  -13.2876   23.1766 H   0  0  0  0  0  0  0  0  0  0  0  0
   19.2683  -14.3665   25.1107 S   0  0  0  0  0  0  0  0  0  0  0  0
   18.3037  -15.2011   25.7884 O   0  0  0  0  0  0  0  0  0  0  0  0
   19.7267  -13.1218   25.6904 O   0  0  0  0  0  0  0  0  0  0  0  0
   22.9914  -16.8785   24.2310 C   0  0  0  0  0  0  0  0  0  0  0  0
   21.7417  -17.4893   24.3952 C   0  0  0  0  0  0  0  0  0  0  0  0
   20.6044  -16.7200   24.6508 C   0  0  0  0  0  0  0  0  0  0  0  0
   20.7174  -15.3279   24.7596 C   0  0  0  0  0  0  0  0  0  0  0  0
   21.9485  -14.7004   24.5747 C   0  0  0  0  0  0  0  0  0  0  0  0
   23.0868  -15.4780   24.3337 C   0  0  0  0  0  0  0  0  0  0  0  0
   24.6021  -14.6643   24.1446 Cl  0  0  0  0  0  0  0  0  0  0  0  0
   24.1871  -18.9249   24.4108 C   0  0  0  0  0  0  0  0  0  0  0  0
   24.1529  -17.5688   23.9806 O   0  0  0  0  0  0  0  0  0  0  0  0
   17.1007  -14.8481   21.9058 C   0  0  0  0  0  0  0  0  0  0  0  0
   16.5106  -16.1270   21.3583 C   0  0  0  0  0  0  0  0  0  0  0  0
   15.9893  -16.9893   22.0548 O   0  0  0  0  0  0  0  0  0  0  0  0
   16.6510  -16.2364   19.9887 N   0  0  0  0  0  0  0  0  0  0  0  0
   17.2549  -15.6240   19.5096 H   0  0  0  0  0  0  0  0  0  0  0  0
   15.9158  -17.2467   19.2493 C   0  0  0  0  0  0  0  0  0  0  0  0
   15.5502  -16.8146   17.8525 C   0  0  0  0  0  0  0  0  0  0  0  0
   14.8038  -17.6628   17.0224 C   0  0  0  0  0  0  0  0  0  0  0  0
   14.4356  -17.2559   15.7367 C   0  0  0  0  0  0  0  0  0  0  0  0
   14.8257  -16.0023   15.2472 C   0  0  0  0  0  0  0  0  0  0  0  0
   15.5916  -15.1612   16.0633 C   0  0  0  0  0  0  0  0  0  0  0  0
   16.1250  -13.6040   15.5347 Cl  0  0  0  0  0  0  0  0  0  0  0  0
   15.9488  -15.5638   17.3584 C   0  0  0  0  0  0  0  0  0  0  0  0
   14.4224  -15.6267   13.9210 C   0  0  0  0  0  0  0  0  0  0  0  0
   14.1159  -15.2762   12.8552 N   0  0  0  0  0  0  0  0  0  0  0  0
 38 39  1  0
 39 31  1  0
 31 32  2  0
 32 33  1  0
 33 34  2  0
 34 28  1  0
 28 29  2  0
 28 30  2  0
 28 26  1  0
 26  1  1  0
  1 40  1  0
 40 41  1  0
 41 42  2  0
 41 43  1  0
 43 45  1  0
 45 46  1  0
 46 47  2  0
 47 48  1  0
 48 49  2  0
 49 53  1  0
 53 54  3  0
 49 50  1  0
 50 51  1  0
 50 52  2  0
  1  2  1  0
  2  3  2  0
  2  4  1  0
  4  5  1  0
  5  6  1  0
  6  7  1  0
  7  8  1  0
  8  9  1  0
  9 10  2  0
  9 11  1  0
 11 13  1  0
 13 14  1  0
 14 15  2  0
 15 16  1  0
 16 17  2  0
 17 20  1  0
 20 21  2  0
 20 22  1  0
 17 18  1  0
 18 19  2  0
 34 35  1  0
 35 36  2  0
 36 37  1  0
 36 31  1  0
 52 46  1  0
  8  4  1  0
 19 14  1  0
 26 27  1  0
 43 44  1  0
 11 12  1  0
 21 23  1  0
 22 24  1  0
 22 25  1  0
M  END
> <minimizedAffinity>
-9.08673

> <CNNscore>
0.6819369793

> <CNNaffinity>
8.3792505264

> <CNN_VS>
5.7141208649

> <CNNaffinity_variance>
0.2373337746

$$$$



 54 57  0  0  0  0  0  0  0  0999 V2000
   16.2684  -16.1115   21.7374 C   0  0  0  0  0  0  0  0  0  0  0  0
   17.7442  -16.0176   21.3191 C   0  0  0  0  0  0  0  0  0  0  0  0
   18.3611  -17.0533   21.0337 O   0  0  0  0  0  0  0  0  0  0  0  0
   18.3666  -14.7945   21.3295 N   0  0  0  0  0  0  0  0  0  0  0  0
   19.7448  -14.6787   20.8857 C   0  0  0  0  0  0  0  0  0  0  0  0
   20.0835  -13.1993   21.0008 C   0  0  0  0  0  0  0  0  0  0  0  0
   19.1085  -12.6960   22.0582 C   0  0  0  0  0  0  0  0  0  0  0  0
   17.8314  -13.4909   21.7495 C   0  0  0  0  0  0  0  0  0  0  0  0
   16.9983  -12.8202   20.6320 C   0  0  0  0  0  0  0  0  0  0  0  0
   17.4848  -12.0418   19.8203 O   0  0  0  0  0  0  0  0  0  0  0  0
   15.6684  -13.1949   20.6034 N   0  0  0  0  0  0  0  0  0  0  0  0
   15.3684  -13.9868   21.1055 H   0  0  0  0  0  0  0  0  0  0  0  0
   14.7173  -12.4215   19.8342 C   0  0  0  0  0  0  0  0  0  0  0  0
   13.8560  -11.6153   20.7776 C   0  0  0  0  0  0  0  0  0  0  0  0
   14.0858  -10.2410   20.9388 C   0  0  0  0  0  0  0  0  0  0  0  0
   13.3643   -9.5044   21.8819 C   0  0  0  0  0  0  0  0  0  0  0  0
   12.4080  -10.1396   22.6762 C   0  0  0  0  0  0  0  0  0  0  0  0
   12.1678  -11.5097   22.5157 C   0  0  0  0  0  0  0  0  0  0  0  0
   12.8863  -12.2432   21.5697 C   0  0  0  0  0  0  0  0  0  0  0  0
   11.6757   -9.3870   23.7327 C   0  0  0  0  0  0  0  0  0  0  0  0
   10.5346   -9.7590   24.2153 N   0  0  0  0  0  0  0  0  0  0  0  0
   12.1927   -8.2242   24.2269 N   0  0  0  0  0  0  0  0  0  0  0  0
   10.1127  -10.5896   23.8969 H   0  0  0  0  0  0  0  0  0  0  0  0
   13.0585   -7.8911   23.8971 H   0  0  0  0  0  0  0  0  0  0  0  0
   11.6998   -7.7187   24.9129 H   0  0  0  0  0  0  0  0  0  0  0  0
   15.4458  -16.0877   20.4784 N   0  0  0  0  0  0  0  0  0  0  0  0
   14.5374  -15.6922   20.7209 H   0  0  0  0  0  0  0  0  0  0  0  0
   15.1548  -17.5421   19.6713 S   0  0  0  0  0  0  0  0  0  0  0  0
   13.7374  -17.8158   19.7178 O   0  0  0  0  0  0  0  0  0  0  0  0
   16.1216  -18.4853   20.1922 O   0  0  0  0  0  0  0  0  0  0  0  0
   16.3312  -16.6522   15.3389 C   0  0  0  0  0  0  0  0  0  0  0  0
   15.8824  -15.6267   16.1809 C   0  0  0  0  0  0  0  0  0  0  0  0
   15.5361  -15.8980   17.5064 C   0  0  0  0  0  0  0  0  0  0  0  0
   15.6233  -17.2087   17.9930 C   0  0  0  0  0  0  0  0  0  0  0  0
   16.0912  -18.2378   17.1769 C   0  0  0  0  0  0  0  0  0  0  0  0
   16.4224  -17.9622   15.8455 C   0  0  0  0  0  0  0  0  0  0  0  0
   16.9658  -19.2728   14.8550 Cl  0  0  0  0  0  0  0  0  0  0  0  0
   15.7869  -15.6966   13.2317 C   0  0  0  0  0  0  0  0  0  0  0  0
   16.6865  -16.4625   14.0251 O   0  0  0  0  0  0  0  0  0  0  0  0
   16.0533  -17.4830   22.4028 C   0  0  0  0  0  0  0  0  0  0  0  0
   16.5290  -17.5142   23.8367 C   0  0  0  0  0  0  0  0  0  0  0  0
   16.5906  -18.5345   24.5117 O   0  0  0  0  0  0  0  0  0  0  0  0
   16.8569  -16.2618   24.3179 N   0  0  0  0  0  0  0  0  0  0  0  0
   16.5939  -15.4600   23.8109 H   0  0  0  0  0  0  0  0  0  0  0  0
   17.5862  -16.1175   25.5651 C   0  0  0  0  0  0  0  0  0  0  0  0
   18.9113  -15.4180   25.4029 C   0  0  0  0  0  0  0  0  0  0  0  0
   19.8041  -15.8181   24.3987 C   0  0  0  0  0  0  0  0  0  0  0  0
   21.0215  -15.1538   24.2237 C   0  0  0  0  0  0  0  0  0  0  0  0
   21.3805  -14.0912   25.0637 C   0  0  0  0  0  0  0  0  0  0  0  0
   20.5031  -13.7033   26.0833 C   0  0  0  0  0  0  0  0  0  0  0  0
   20.8718  -12.4112   27.1712 Cl  0  0  0  0  0  0  0  0  0  0  0  0
   19.2753  -14.3606   26.2497 C   0  0  0  0  0  0  0  0  0  0  0  0
   22.6404  -13.4377   24.8447 C   0  0  0  0  0  0  0  0  0  0  0  0
   23.6828  -12.9544   24.6644 N   0  0  0  0  0  0  0  0  0  0  0  0
 38 39  1  0
 39 31  1  0
 31 32  2  0
 32 33  1  0
 33 34  2  0
 34 28  1  0
 28 29  2  0
 28 30  2  0
 28 26  1  0
 26  1  1  0
  1 40  1  0
 40 41  1  0
 41 42  2  0
 41 43  1  0
 43 45  1  0
 45 46  1  0
 46 47  2  0
 47 48  1  0
 48 49  2  0
 49 53  1  0
 53 54  3  0
 49 50  1  0
 50 51  1  0
 50 52  2  0
  1  2  1  0
  2  3  2  0
  2  4  1  0
  4  5  1  0
  5  6  1  0
  6  7  1  0
  7  8  1  0
  8  9  1  0
  9 10  2  0
  9 11  1  0
 11 13  1  0
 13 14  1  0
 14 15  2  0
 15 16  1  0
 16 17  2  0
 17 20  1  0
 20 21  2  0
 20 22  1  0
 17 18  1  0
 18 19  2  0
 34 35  1  0
 35 36  2  0
 36 37  1  0
 36 31  1  0
 52 46  1  0
  8  4  1  0
 19 14  1  0
 26 27  1  0
 43 44  1  0
 11 12  1  0
 21 23  1  0
 22 24  1  0
 22 25  1  0
M  END
> <minimizedAffinity>
-10.19797

> <CNNscore>
0.6472089887

> <CNNaffinity>
8.5151643753

> <CNN_VS>
5.5110907555

> <CNNaffinity_variance>
0.3591821492

$$$$



 54 57  0  0  0  0  0  0  0  0999 V2000
   18.6496  -15.0845   22.9742 C   0  0  0  0  0  0  0  0  0  0  0  0
   19.6472  -14.9154   21.8175 C   0  0  0  0  0  0  0  0  0  0  0  0
   20.4647  -15.8165   21.5847 O   0  0  0  0  0  0  0  0  0  0  0  0
   19.6530  -13.7429   21.1045 N   0  0  0  0  0  0  0  0  0  0  0  0
   20.5516  -13.5864   19.9740 C   0  0  0  0  0  0  0  0  0  0  0  0
   20.2619  -12.2002   19.4163 C   0  0  0  0  0  0  0  0  0  0  0  0
   19.6833  -11.4534   20.6118 C   0  0  0  0  0  0  0  0  0  0  0  0
   18.8455  -12.5320   21.3138 C   0  0  0  0  0  0  0  0  0  0  0  0
   17.4378  -12.6596   20.6856 C   0  0  0  0  0  0  0  0  0  0  0  0
   17.0198  -13.7065   20.2052 O   0  0  0  0  0  0  0  0  0  0  0  0
   16.6780  -11.5064   20.7392 N   0  0  0  0  0  0  0  0  0  0  0  0
   16.9444  -10.7677   21.3329 H   0  0  0  0  0  0  0  0  0  0  0  0
   15.4903  -11.3864   19.9211 C   0  0  0  0  0  0  0  0  0  0  0  0
   14.2843  -11.2337   20.8178 C   0  0  0  0  0  0  0  0  0  0  0  0
   13.8709   -9.9581   21.2291 C   0  0  0  0  0  0  0  0  0  0  0  0
   12.8206   -9.8089   22.1386 C   0  0  0  0  0  0  0  0  0  0  0  0
   12.1770  -10.9380   22.6484 C   0  0  0  0  0  0  0  0  0  0  0  0
   12.5792  -12.2145   22.2366 C   0  0  0  0  0  0  0  0  0  0  0  0
   13.6258  -12.3615   21.3243 C   0  0  0  0  0  0  0  0  0  0  0  0
   11.1002  -10.8037   23.6688 C   0  0  0  0  0  0  0  0  0  0  0  0
   10.8248   -9.6955   24.2767 N   0  0  0  0  0  0  0  0  0  0  0  0
   10.3576  -11.8919   24.0265 N   0  0  0  0  0  0  0  0  0  0  0  0
   11.3276   -8.8772   24.0602 H   0  0  0  0  0  0  0  0  0  0  0  0
   10.5222  -12.7627   23.5976 H   0  0  0  0  0  0  0  0  0  0  0  0
    9.6574  -11.8059   24.7132 H   0  0  0  0  0  0  0  0  0  0  0  0
   18.8469  -13.9210   23.9068 N   0  0  0  0  0  0  0  0  0  0  0  0
   19.4589  -13.2569   23.4327 H   0  0  0  0  0  0  0  0  0  0  0  0
   19.5114  -14.2072   25.4325 S   0  0  0  0  0  0  0  0  0  0  0  0
   18.5582  -14.9615   26.2127 O   0  0  0  0  0  0  0  0  0  0  0  0
   20.0176  -12.9307   25.8906 O   0  0  0  0  0  0  0  0  0  0  0  0
   23.1464  -16.8669   24.6209 C   0  0  0  0  0  0  0  0  0  0  0  0
   21.9089  -17.4327   24.9535 C   0  0  0  0  0  0  0  0  0  0  0  0
   20.7977  -16.6199   25.1882 C   0  0  0  0  0  0  0  0  0  0  0  0
   20.9256  -15.2273   25.1059 C   0  0  0  0  0  0  0  0  0  0  0  0
   22.1431  -14.6474   24.7520 C   0  0  0  0  0  0  0  0  0  0  0  0
   23.2564  -15.4664   24.5327 C   0  0  0  0  0  0  0  0  0  0  0  0
   24.7578  -14.7067   24.1299 Cl  0  0  0  0  0  0  0  0  0  0  0  0
   24.2002  -18.5686   23.3390 C   0  0  0  0  0  0  0  0  0  0  0  0
   24.2826  -17.6009   24.3793 O   0  0  0  0  0  0  0  0  0  0  0  0
   17.2289  -14.9727   22.3917 C   0  0  0  0  0  0  0  0  0  0  0  0
   16.5425  -16.3136   22.2726 C   0  0  0  0  0  0  0  0  0  0  0  0
   16.9788  -17.3479   22.7629 O   0  0  0  0  0  0  0  0  0  0  0  0
   15.3844  -16.2560   21.5223 N   0  0  0  0  0  0  0  0  0  0  0  0
   15.1920  -15.4554   20.9826 H   0  0  0  0  0  0  0  0  0  0  0  0
   14.4482  -17.3657   21.5226 C   0  0  0  0  0  0  0  0  0  0  0  0
   14.6052  -18.2780   20.3332 C   0  0  0  0  0  0  0  0  0  0  0  0
   14.9465  -17.7525   19.0790 C   0  0  0  0  0  0  0  0  0  0  0  0
   15.1232  -18.5965   17.9787 C   0  0  0  0  0  0  0  0  0  0  0  0
   14.9399  -19.9799   18.1052 C   0  0  0  0  0  0  0  0  0  0  0  0
   14.5756  -20.5071   19.3500 C   0  0  0  0  0  0  0  0  0  0  0  0
   14.3181  -22.1995   19.5916 Cl  0  0  0  0  0  0  0  0  0  0  0  0
   14.4123  -19.6618   20.4571 C   0  0  0  0  0  0  0  0  0  0  0  0
   15.1343  -20.8074   16.9477 C   0  0  0  0  0  0  0  0  0  0  0  0
   15.2434  -21.4684   15.9969 N   0  0  0  0  0  0  0  0  0  0  0  0
 38 39  1  0
 39 31  1  0
 31 32  2  0
 32 33  1  0
 33 34  2  0
 34 28  1  0
 28 29  2  0
 28 30  2  0
 28 26  1  0
 26  1  1  0
  1 40  1  0
 40 41  1  0
 41 42  2  0
 41 43  1  0
 43 45  1  0
 45 46  1  0
 46 47  2  0
 47 48  1  0
 48 49  2  0
 49 53  1  0
 53 54  3  0
 49 50  1  0
 50 51  1  0
 50 52  2  0
  1  2  1  0
  2  3  2  0
  2  4  1  0
  4  5  1  0
  5  6  1  0
  6  7  1  0
  7  8  1  0
  8  9  1  0
  9 10  2  0
  9 11  1  0
 11 13  1  0
 13 14  1  0
 14 15  2  0
 15 16  1  0
 16 17  2  0
 17 20  1  0
 20 21  2  0
 20 22  1  0
 17 18  1  0
 18 19  2  0
 34 35  1  0
 35 36  2  0
 36 37  1  0
 36 31  1  0
 52 46  1  0
  8  4  1  0
 19 14  1  0
 26 27  1  0
 43 44  1  0
 11 12  1  0
 21 23  1  0
 22 24  1  0
 22 25  1  0
M  END
> <minimizedAffinity>
-9.21382

> <CNNscore>
0.5366447568

> <CNNaffinity>
8.4468574524

> <CNN_VS>
4.5329618454

> <CNNaffinity_variance>
0.2062228769

$$$$



 54 57  0  0  0  0  0  0  0  0999 V2000
   18.6231  -15.0804   22.7692 C   0  0  0  0  0  0  0  0  0  0  0  0
   19.6344  -14.8982   21.6265 C   0  0  0  0  0  0  0  0  0  0  0  0
   20.4470  -15.8016   21.3855 O   0  0  0  0  0  0  0  0  0  0  0  0
   19.6577  -13.7126   20.9357 N   0  0  0  0  0  0  0  0  0  0  0  0
   20.5697  -13.5426   19.8180 C   0  0  0  0  0  0  0  0  0  0  0  0
   20.2975  -12.1439   19.2833 C   0  0  0  0  0  0  0  0  0  0  0  0
   19.7122  -11.4146   20.4865 C   0  0  0  0  0  0  0  0  0  0  0  0
   18.8580  -12.4990   21.1592 C   0  0  0  0  0  0  0  0  0  0  0  0
   17.4561  -12.6029   20.5137 C   0  0  0  0  0  0  0  0  0  0  0  0
   17.0736  -13.6040   19.9197 O   0  0  0  0  0  0  0  0  0  0  0  0
   16.6587  -11.4879   20.6892 N   0  0  0  0  0  0  0  0  0  0  0  0
   16.8998  -10.8103   21.3615 H   0  0  0  0  0  0  0  0  0  0  0  0
   15.4689  -11.3178   19.8832 C   0  0  0  0  0  0  0  0  0  0  0  0
   14.2667  -11.2084   20.7914 C   0  0  0  0  0  0  0  0  0  0  0  0
   13.8006   -9.9476   21.1920 C   0  0  0  0  0  0  0  0  0  0  0  0
   12.7542   -9.8345   22.1112 C   0  0  0  0  0  0  0  0  0  0  0  0
   12.1676  -10.9849   22.6414 C   0  0  0  0  0  0  0  0  0  0  0  0
   12.6225  -12.2471   22.2404 C   0  0  0  0  0  0  0  0  0  0  0  0
   13.6650  -12.3582   21.3185 C   0  0  0  0  0  0  0  0  0  0  0  0
   11.0966  -10.8865   23.6720 C   0  0  0  0  0  0  0  0  0  0  0  0
   10.3815  -11.8926   24.0590 N   0  0  0  0  0  0  0  0  0  0  0  0
   10.8078   -9.6815   24.2451 N   0  0  0  0  0  0  0  0  0  0  0  0
   10.5442  -12.7867   23.6804 H   0  0  0  0  0  0  0  0  0  0  0  0
   11.3190   -8.8799   23.9897 H   0  0  0  0  0  0  0  0  0  0  0  0
   10.0884   -9.6143   24.9138 H   0  0  0  0  0  0  0  0  0  0  0  0
   18.8367  -13.9499   23.7381 N   0  0  0  0  0  0  0  0  0  0  0  0
   18.9891  -13.1060   23.1858 H   0  0  0  0  0  0  0  0  0  0  0  0
   20.1093  -14.0571   24.8428 S   0  0  0  0  0  0  0  0  0  0  0  0
   19.9656  -12.9951   25.8110 O   0  0  0  0  0  0  0  0  0  0  0  0
   21.3124  -14.1959   24.0498 O   0  0  0  0  0  0  0  0  0  0  0  0
   19.4279  -18.0539   26.9658 C   0  0  0  0  0  0  0  0  0  0  0  0
   18.5167  -17.0011   27.1183 C   0  0  0  0  0  0  0  0  0  0  0  0
   18.7196  -15.7865   26.4594 C   0  0  0  0  0  0  0  0  0  0  0  0
   19.8516  -15.6146   25.6523 C   0  0  0  0  0  0  0  0  0  0  0  0
   20.7564  -16.6594   25.4689 C   0  0  0  0  0  0  0  0  0  0  0  0
   20.5553  -17.8688   26.1437 C   0  0  0  0  0  0  0  0  0  0  0  0
   21.7191  -19.1291   25.9177 Cl  0  0  0  0  0  0  0  0  0  0  0  0
   19.2958  -20.4157   26.7332 C   0  0  0  0  0  0  0  0  0  0  0  0
   19.2965  -19.2744   27.5834 O   0  0  0  0  0  0  0  0  0  0  0  0
   17.2105  -14.9205   22.1784 C   0  0  0  0  0  0  0  0  0  0  0  0
   16.5233  -16.2465   21.9482 C   0  0  0  0  0  0  0  0  0  0  0  0
   16.9858  -17.3237   22.3032 O   0  0  0  0  0  0  0  0  0  0  0  0
   15.3305  -16.1182   21.2639 N   0  0  0  0  0  0  0  0  0  0  0  0
   15.1100  -15.2659   20.8232 H   0  0  0  0  0  0  0  0  0  0  0  0
   14.3989  -17.2292   21.1889 C   0  0  0  0  0  0  0  0  0  0  0  0
   14.6409  -18.1308   20.0056 C   0  0  0  0  0  0  0  0  0  0  0  0
   14.5107  -19.5206   20.1371 C   0  0  0  0  0  0  0  0  0  0  0  0
   14.7041  -20.3601   19.0363 C   0  0  0  0  0  0  0  0  0  0  0  0
   15.0538  -19.8287   17.7878 C   0  0  0  0  0  0  0  0  0  0  0  0
   15.2084  -18.4435   17.6569 C   0  0  0  0  0  0  0  0  0  0  0  0
   15.6493  -17.7055   16.1569 Cl  0  0  0  0  0  0  0  0  0  0  0  0
   15.0004  -17.6001   18.7580 C   0  0  0  0  0  0  0  0  0  0  0  0
   15.2403  -20.7299   16.6853 C   0  0  0  0  0  0  0  0  0  0  0  0
   15.4377  -21.4708   15.8107 N   0  0  0  0  0  0  0  0  0  0  0  0
 38 39  1  0
 39 31  1  0
 31 32  2  0
 32 33  1  0
 33 34  2  0
 34 28  1  0
 28 29  2  0
 28 30  2  0
 28 26  1  0
 26  1  1  0
  1 40  1  0
 40 41  1  0
 41 42  2  0
 41 43  1  0
 43 45  1  0
 45 46  1  0
 46 47  2  0
 47 48  1  0
 48 49  2  0
 49 53  1  0
 53 54  3  0
 49 50  1  0
 50 51  1  0
 50 52  2  0
  1  2  1  0
  2  3  2  0
  2  4  1  0
  4  5  1  0
  5  6  1  0
  6  7  1  0
  7  8  1  0
  8  9  1  0
  9 10  2  0
  9 11  1  0
 11 13  1  0
 13 14  1  0
 14 15  2  0
 15 16  1  0
 16 17  2  0
 17 20  1  0
 20 21  2  0
 20 22  1  0
 17 18  1  0
 18 19  2  0
 34 35  1  0
 35 36  2  0
 36 37  1  0
 36 31  1  0
 52 46  1  0
  8  4  1  0
 19 14  1  0
 26 27  1  0
 43 44  1  0
 11 12  1  0
 21 23  1  0
 22 24  1  0
 22 25  1  0
M  END
> <minimizedAffinity>
-9.23481

> <CNNscore>
0.5320194960

> <CNNaffinity>
8.3380298615

> <CNN_VS>
4.4359946251

> <CNNaffinity_variance>
0.3409764767

$$$$



 54 57  0  0  0  0  0  0  0  0999 V2000
   16.0543  -15.8232   22.3336 C   0  0  0  0  0  0  0  0  0  0  0  0
   17.1144  -15.3968   21.3060 C   0  0  0  0  0  0  0  0  0  0  0  0
   17.8810  -16.2487   20.8359 O   0  0  0  0  0  0  0  0  0  0  0  0
   17.2309  -14.0698   20.9757 N   0  0  0  0  0  0  0  0  0  0  0  0
   18.1903  -13.6555   19.9668 C   0  0  0  0  0  0  0  0  0  0  0  0
   18.0189  -12.1485   19.8408 C   0  0  0  0  0  0  0  0  0  0  0  0
   17.4347  -11.7465   21.1896 C   0  0  0  0  0  0  0  0  0  0  0  0
   16.4957  -12.9167   21.5161 C   0  0  0  0  0  0  0  0  0  0  0  0
   15.1139  -12.7444   20.8426 C   0  0  0  0  0  0  0  0  0  0  0  0
   14.9848  -12.3671   19.6839 O   0  0  0  0  0  0  0  0  0  0  0  0
   14.0387  -13.0811   21.6429 N   0  0  0  0  0  0  0  0  0  0  0  0
   14.1814  -13.5983   22.4683 H   0  0  0  0  0  0  0  0  0  0  0  0
   12.7026  -12.6723   21.2657 C   0  0  0  0  0  0  0  0  0  0  0  0
   12.3234  -11.4365   22.0472 C   0  0  0  0  0  0  0  0  0  0  0  0
   12.9376  -10.2082   21.7619 C   0  0  0  0  0  0  0  0  0  0  0  0
   12.6711   -9.0806   22.5429 C   0  0  0  0  0  0  0  0  0  0  0  0
   11.7891   -9.1745   23.6210 C   0  0  0  0  0  0  0  0  0  0  0  0
   11.1663  -10.3955   23.9072 C   0  0  0  0  0  0  0  0  0  0  0  0
   11.4303  -11.5200   23.1230 C   0  0  0  0  0  0  0  0  0  0  0  0
   11.5425   -8.0020   24.5060 C   0  0  0  0  0  0  0  0  0  0  0  0
   12.4275   -7.0905   24.7492 N   0  0  0  0  0  0  0  0  0  0  0  0
   10.3375   -7.8591   25.1317 N   0  0  0  0  0  0  0  0  0  0  0  0
   13.3151   -7.1409   24.3262 H   0  0  0  0  0  0  0  0  0  0  0  0
    9.6249   -8.5222   24.9848 H   0  0  0  0  0  0  0  0  0  0  0  0
   10.1813   -7.0928   25.7298 H   0  0  0  0  0  0  0  0  0  0  0  0
   14.7858  -16.1036   21.5755 N   0  0  0  0  0  0  0  0  0  0  0  0
   14.1320  -15.3525   21.7962 H   0  0  0  0  0  0  0  0  0  0  0  0
   13.9798  -17.5613   21.8529 S   0  0  0  0  0  0  0  0  0  0  0  0
   12.6066  -17.4125   21.4306 O   0  0  0  0  0  0  0  0  0  0  0  0
   14.3137  -17.9479   23.2073 O   0  0  0  0  0  0  0  0  0  0  0  0
   16.0893  -20.5648   19.1189 C   0  0  0  0  0  0  0  0  0  0  0  0
   15.5363  -20.9766   20.3381 C   0  0  0  0  0  0  0  0  0  0  0  0
   14.8817  -20.0611   21.1651 C   0  0  0  0  0  0  0  0  0  0  0  0
   14.7913  -18.7174   20.7795 C   0  0  0  0  0  0  0  0  0  0  0  0
   15.3141  -18.2941   19.5582 C   0  0  0  0  0  0  0  0  0  0  0  0
   15.9818  -19.2132   18.7410 C   0  0  0  0  0  0  0  0  0  0  0  0
   16.6471  -18.6415   17.2496 Cl  0  0  0  0  0  0  0  0  0  0  0  0
   15.9341  -22.2095   17.4099 C   0  0  0  0  0  0  0  0  0  0  0  0
   16.7492  -21.4060   18.2556 O   0  0  0  0  0  0  0  0  0  0  0  0
   16.5165  -17.1490   22.9652 C   0  0  0  0  0  0  0  0  0  0  0  0
   17.1332  -16.9579   24.3315 C   0  0  0  0  0  0  0  0  0  0  0  0
   17.6304  -17.8652   24.9871 O   0  0  0  0  0  0  0  0  0  0  0  0
   17.0472  -15.6539   24.7786 N   0  0  0  0  0  0  0  0  0  0  0  0
   16.4600  -15.0159   24.3123 H   0  0  0  0  0  0  0  0  0  0  0  0
   17.8153  -15.2159   25.9301 C   0  0  0  0  0  0  0  0  0  0  0  0
   19.1636  -14.6490   25.5664 C   0  0  0  0  0  0  0  0  0  0  0  0
   20.1311  -14.4337   26.5580 C   0  0  0  0  0  0  0  0  0  0  0  0
   21.3940  -13.9366   26.2231 C   0  0  0  0  0  0  0  0  0  0  0  0
   21.7069  -13.6236   24.8936 C   0  0  0  0  0  0  0  0  0  0  0  0
   20.7362  -13.8143   23.9030 C   0  0  0  0  0  0  0  0  0  0  0  0
   21.0339  -13.4434   22.2408 Cl  0  0  0  0  0  0  0  0  0  0  0  0
   19.4740  -14.3264   24.2371 C   0  0  0  0  0  0  0  0  0  0  0  0
   23.0177  -13.1174   24.5971 C   0  0  0  0  0  0  0  0  0  0  0  0
   24.0639  -12.6614   24.3726 N   0  0  0  0  0  0  0  0  0  0  0  0
 38 39  1  0
 39 31  1  0
 31 32  2  0
 32 33  1  0
 33 34  2  0
 34 28  1  0
 28 29  2  0
 28 30  2  0
 28 26  1  0
 26  1  1  0
  1 40  1  0
 40 41  1  0
 41 42  2  0
 41 43  1  0
 43 45  1  0
 45 46  1  0
 46 47  2  0
 47 48  1  0
 48 49  2  0
 49 53  1  0
 53 54  3  0
 49 50  1  0
 50 51  1  0
 50 52  2  0
  1  2  1  0
  2  3  2  0
  2  4  1  0
  4  5  1  0
  5  6  1  0
  6  7  1  0
  7  8  1  0
  8  9  1  0
  9 10  2  0
  9 11  1  0
 11 13  1  0
 13 14  1  0
 14 15  2  0
 15 16  1  0
 16 17  2  0
 17 20  1  0
 20 21  2  0
 20 22  1  0
 17 18  1  0
 18 19  2  0
 34 35  1  0
 35 36  2  0
 36 37  1  0
 36 31  1  0
 52 46  1  0
  8  4  1  0
 19 14  1  0
 26 27  1  0
 43 44  1  0
 11 12  1  0
 21 23  1  0
 22 24  1  0
 22 25  1  0
M  END
> <minimizedAffinity>
-9.99268

> <CNNscore>
0.4476175904

> <CNNaffinity>
8.6669111252

> <CNN_VS>
3.8794617653

> <CNNaffinity_variance>
0.1310116202

$$$$



 54 57  0  0  0  0  0  0  0  0999 V2000
   19.0446  -15.1435   23.1328 C   0  0  0  0  0  0  0  0  0  0  0  0
   19.9433  -14.8796   21.9144 C   0  0  0  0  0  0  0  0  0  0  0  0
   20.8390  -15.6882   21.6345 O   0  0  0  0  0  0  0  0  0  0  0  0
   19.7754  -13.7218   21.1969 N   0  0  0  0  0  0  0  0  0  0  0  0
   20.5789  -13.4809   20.0111 C   0  0  0  0  0  0  0  0  0  0  0  0
   20.1040  -12.1414   19.4663 C   0  0  0  0  0  0  0  0  0  0  0  0
   19.5223  -11.4487   20.6926 C   0  0  0  0  0  0  0  0  0  0  0  0
   18.8540  -12.6044   21.4513 C   0  0  0  0  0  0  0  0  0  0  0  0
   17.4324  -12.8930   20.9141 C   0  0  0  0  0  0  0  0  0  0  0  0
   17.0303  -14.0269   20.6817 O   0  0  0  0  0  0  0  0  0  0  0  0
   16.6423  -11.7714   20.7483 N   0  0  0  0  0  0  0  0  0  0  0  0
   16.9051  -10.9176   21.1621 H   0  0  0  0  0  0  0  0  0  0  0  0
   15.4279  -11.8537   19.9654 C   0  0  0  0  0  0  0  0  0  0  0  0
   14.2407  -11.5987   20.8640 C   0  0  0  0  0  0  0  0  0  0  0  0
   13.8948  -10.2858   21.2163 C   0  0  0  0  0  0  0  0  0  0  0  0
   12.8631  -10.0412   22.1264 C   0  0  0  0  0  0  0  0  0  0  0  0
   12.1708  -11.1112   22.6961 C   0  0  0  0  0  0  0  0  0  0  0  0
   12.5054  -12.4244   22.3436 C   0  0  0  0  0  0  0  0  0  0  0  0
   13.5335  -12.6668   21.4305 C   0  0  0  0  0  0  0  0  0  0  0  0
   11.1131  -10.8748   23.7180 C   0  0  0  0  0  0  0  0  0  0  0  0
   10.3765  -11.8145   24.2158 N   0  0  0  0  0  0  0  0  0  0  0  0
   10.8611   -9.6083   24.1608 N   0  0  0  0  0  0  0  0  0  0  0  0
   10.5125  -12.7480   23.9341 H   0  0  0  0  0  0  0  0  0  0  0  0
   11.3900   -8.8523   23.8173 H   0  0  0  0  0  0  0  0  0  0  0  0
   10.1504   -9.4509   24.8237 H   0  0  0  0  0  0  0  0  0  0  0  0
   19.0363  -13.8880   23.9610 N   0  0  0  0  0  0  0  0  0  0  0  0
   19.4536  -13.1509   23.3928 H   0  0  0  0  0  0  0  0  0  0  0  0
   19.8431  -13.8888   25.4444 S   0  0  0  0  0  0  0  0  0  0  0  0
   19.1125  -14.7311   26.3624 O   0  0  0  0  0  0  0  0  0  0  0  0
   20.1141  -12.4998   25.7493 O   0  0  0  0  0  0  0  0  0  0  0  0
   23.8826  -15.8157   24.4876 C   0  0  0  0  0  0  0  0  0  0  0  0
   23.6594  -14.4585   24.2226 C   0  0  0  0  0  0  0  0  0  0  0  0
   22.4304  -13.8692   24.5272 C   0  0  0  0  0  0  0  0  0  0  0  0
   21.4076  -14.6454   25.0874 C   0  0  0  0  0  0  0  0  0  0  0  0
   21.6196  -15.9918   25.3809 C   0  0  0  0  0  0  0  0  0  0  0  0
   22.8482  -16.5798   25.0596 C   0  0  0  0  0  0  0  0  0  0  0  0
   23.0602  -18.2615   25.4073 Cl  0  0  0  0  0  0  0  0  0  0  0  0
   25.0805  -17.2752   23.0439 C   0  0  0  0  0  0  0  0  0  0  0  0
   25.0625  -16.4644   24.2133 O   0  0  0  0  0  0  0  0  0  0  0  0
   17.6101  -15.3676   22.6207 C   0  0  0  0  0  0  0  0  0  0  0  0
   17.0435  -16.7026   23.0450 C   0  0  0  0  0  0  0  0  0  0  0  0
   15.8778  -17.0349   22.8682 O   0  0  0  0  0  0  0  0  0  0  0  0
   17.9735  -17.4984   23.6848 N   0  0  0  0  0  0  0  0  0  0  0  0
   18.8261  -17.1080   23.9846 H   0  0  0  0  0  0  0  0  0  0  0  0
   17.7047  -18.9058   23.9192 C   0  0  0  0  0  0  0  0  0  0  0  0
   17.1393  -19.1846   25.2882 C   0  0  0  0  0  0  0  0  0  0  0  0
   15.8655  -19.7541   25.4248 C   0  0  0  0  0  0  0  0  0  0  0  0
   15.3479  -20.0430   26.6908 C   0  0  0  0  0  0  0  0  0  0  0  0
   16.0839  -19.7474   27.8459 C   0  0  0  0  0  0  0  0  0  0  0  0
   17.3465  -19.1566   27.7157 C   0  0  0  0  0  0  0  0  0  0  0  0
   18.3162  -18.7485   29.0876 Cl  0  0  0  0  0  0  0  0  0  0  0  0
   17.8717  -18.8799   26.4450 C   0  0  0  0  0  0  0  0  0  0  0  0
   15.5122  -20.0639   29.1247 C   0  0  0  0  0  0  0  0  0  0  0  0
   15.0129  -20.2854   30.1515 N   0  0  0  0  0  0  0  0  0  0  0  0
 38 39  1  0
 39 31  1  0
 31 32  2  0
 32 33  1  0
 33 34  2  0
 34 28  1  0
 28 29  2  0
 28 30  2  0
 28 26  1  0
 26  1  1  0
  1 40  1  0
 40 41  1  0
 41 42  2  0
 41 43  1  0
 43 45  1  0
 45 46  1  0
 46 47  2  0
 47 48  1  0
 48 49  2  0
 49 53  1  0
 53 54  3  0
 49 50  1  0
 50 51  1  0
 50 52  2  0
  1  2  1  0
  2  3  2  0
  2  4  1  0
  4  5  1  0
  5  6  1  0
  6  7  1  0
  7  8  1  0
  8  9  1  0
  9 10  2  0
  9 11  1  0
 11 13  1  0
 13 14  1  0
 14 15  2  0
 15 16  1  0
 16 17  2  0
 17 20  1  0
 20 21  2  0
 20 22  1  0
 17 18  1  0
 18 19  2  0
 34 35  1  0
 35 36  2  0
 36 37  1  0
 36 31  1  0
 52 46  1  0
  8  4  1  0
 19 14  1  0
 26 27  1  0
 43 44  1  0
 11 12  1  0
 21 23  1  0
 22 24  1  0
 22 25  1  0
M  END
> <minimizedAffinity>
-8.92132

> <CNNscore>
0.4174503684

> <CNNaffinity>
8.0203161240

> <CNN_VS>
3.3480839729

> <CNNaffinity_variance>
0.2742362022

$$$$



 54 57  0  0  0  0  0  0  0  0999 V2000
   16.0333  -14.6903   19.6371 C   0  0  0  0  0  0  0  0  0  0  0  0
   15.8198  -16.1275   19.1364 C   0  0  0  0  0  0  0  0  0  0  0  0
   16.0867  -16.4060   17.9593 O   0  0  0  0  0  0  0  0  0  0  0  0
   15.2796  -17.0594   19.9868 N   0  0  0  0  0  0  0  0  0  0  0  0
   15.1209  -18.4351   19.5484 C   0  0  0  0  0  0  0  0  0  0  0  0
   14.5343  -19.1746   20.7423 C   0  0  0  0  0  0  0  0  0  0  0  0
   13.8428  -18.0719   21.5347 C   0  0  0  0  0  0  0  0  0  0  0  0
   14.7971  -16.8809   21.3644 C   0  0  0  0  0  0  0  0  0  0  0  0
   15.9523  -16.9240   22.3922 C   0  0  0  0  0  0  0  0  0  0  0  0
   17.1324  -16.9107   22.0624 O   0  0  0  0  0  0  0  0  0  0  0  0
   15.5458  -16.9462   23.7128 N   0  0  0  0  0  0  0  0  0  0  0  0
   14.6171  -16.7179   23.9467 H   0  0  0  0  0  0  0  0  0  0  0  0
   16.4873  -17.3055   24.7515 C   0  0  0  0  0  0  0  0  0  0  0  0
   16.0180  -18.5713   25.4294 C   0  0  0  0  0  0  0  0  0  0  0  0
   14.8361  -19.1979   25.0078 C   0  0  0  0  0  0  0  0  0  0  0  0
   14.3374  -20.3103   25.6908 C   0  0  0  0  0  0  0  0  0  0  0  0
   15.0167  -20.8029   26.8065 C   0  0  0  0  0  0  0  0  0  0  0  0
   16.2014  -20.1871   27.2287 C   0  0  0  0  0  0  0  0  0  0  0  0
   16.7006  -19.0786   26.5423 C   0  0  0  0  0  0  0  0  0  0  0  0
   14.4672  -21.9457   27.5880 C   0  0  0  0  0  0  0  0  0  0  0  0
   13.2075  -22.1019   27.8373 N   0  0  0  0  0  0  0  0  0  0  0  0
   15.3090  -22.8871   28.1065 N   0  0  0  0  0  0  0  0  0  0  0  0
   12.5528  -21.4541   27.4894 H   0  0  0  0  0  0  0  0  0  0  0  0
   16.2786  -22.8203   27.9496 H   0  0  0  0  0  0  0  0  0  0  0  0
   14.9464  -23.6328   28.6372 H   0  0  0  0  0  0  0  0  0  0  0  0
   17.3297  -14.6717   20.3997 N   0  0  0  0  0  0  0  0  0  0  0  0
   17.2353  -15.3358   21.1681 H   0  0  0  0  0  0  0  0  0  0  0  0
   17.8587  -13.2131   21.0658 S   0  0  0  0  0  0  0  0  0  0  0  0
   16.7051  -12.4721   21.5198 O   0  0  0  0  0  0  0  0  0  0  0  0
   18.7848  -12.6511   20.1055 O   0  0  0  0  0  0  0  0  0  0  0  0
   20.3086  -14.4618   24.7243 C   0  0  0  0  0  0  0  0  0  0  0  0
   18.9167  -14.6180   24.7111 C   0  0  0  0  0  0  0  0  0  0  0  0
   18.1722  -14.2483   23.5888 C   0  0  0  0  0  0  0  0  0  0  0  0
   18.8210  -13.7023   22.4737 C   0  0  0  0  0  0  0  0  0  0  0  0
   20.2080  -13.5623   22.4592 C   0  0  0  0  0  0  0  0  0  0  0  0
   20.9467  -13.9207   23.5924 C   0  0  0  0  0  0  0  0  0  0  0  0
   22.6622  -13.6991   23.5482 Cl  0  0  0  0  0  0  0  0  0  0  0  0
   21.5493  -16.1509   25.8455 C   0  0  0  0  0  0  0  0  0  0  0  0
   21.1059  -14.7997   25.7912 O   0  0  0  0  0  0  0  0  0  0  0  0
   16.2099  -13.7835   18.4055 C   0  0  0  0  0  0  0  0  0  0  0  0
   15.7034  -12.3793   18.6404 C   0  0  0  0  0  0  0  0  0  0  0  0
   16.2450  -11.3762   18.1924 O   0  0  0  0  0  0  0  0  0  0  0  0
   14.5803  -12.3441   19.4435 N   0  0  0  0  0  0  0  0  0  0  0  0
   14.3118  -13.1491   19.9426 H   0  0  0  0  0  0  0  0  0  0  0  0
   13.7921  -11.1302   19.5580 C   0  0  0  0  0  0  0  0  0  0  0  0
   13.1004  -10.9923   20.8900 C   0  0  0  0  0  0  0  0  0  0  0  0
   12.4354  -12.0879   21.4583 C   0  0  0  0  0  0  0  0  0  0  0  0
   11.8178  -11.9750   22.7073 C   0  0  0  0  0  0  0  0  0  0  0  0
   11.8332  -10.7584   23.4023 C   0  0  0  0  0  0  0  0  0  0  0  0
   12.4753   -9.6547   22.8282 C   0  0  0  0  0  0  0  0  0  0  0  0
   12.5319   -8.1143   23.6112 Cl  0  0  0  0  0  0  0  0  0  0  0  0
   13.1072   -9.7720   21.5816 C   0  0  0  0  0  0  0  0  0  0  0  0
   11.1871  -10.6905   24.6831 C   0  0  0  0  0  0  0  0  0  0  0  0
   10.6729  -10.6854   25.7263 N   0  0  0  0  0  0  0  0  0  0  0  0
 38 39  1  0
 39 31  1  0
 31 32  2  0
 32 33  1  0
 33 34  2  0
 34 28  1  0
 28 29  2  0
 28 30  2  0
 28 26  1  0
 26  1  1  0
  1 40  1  0
 40 41  1  0
 41 42  2  0
 41 43  1  0
 43 45  1  0
 45 46  1  0
 46 47  2  0
 47 48  1  0
 48 49  2  0
 49 53  1  0
 53 54  3  0
 49 50  1  0
 50 51  1  0
 50 52  2  0
  1  2  1  0
  2  3  2  0
  2  4  1  0
  4  5  1  0
  5  6  1  0
  6  7  1  0
  7  8  1  0
  8  9  1  0
  9 10  2  0
  9 11  1  0
 11 13  1  0
 13 14  1  0
 14 15  2  0
 15 16  1  0
 16 17  2  0
 17 20  1  0
 20 21  2  0
 20 22  1  0
 17 18  1  0
 18 19  2  0
 34 35  1  0
 35 36  2  0
 36 37  1  0
 36 31  1  0
 52 46  1  0
  8  4  1  0
 19 14  1  0
 26 27  1  0
 43 44  1  0
 11 12  1  0
 21 23  1  0
 22 24  1  0
 22 25  1  0
M  END
> <minimizedAffinity>
-8.26561

> <CNNscore>
0.3377875984

> <CNNaffinity>
8.1004209518

> <CNN_VS>
2.7362217903

> <CNNaffinity_variance>
0.0624340288

$$$$



 54 57  0  0  0  0  0  0  0  0999 V2000
   17.4194  -16.2852   22.0228 C   0  0  0  0  0  0  0  0  0  0  0  0
   16.1317  -17.0702   21.7273 C   0  0  0  0  0  0  0  0  0  0  0  0
   15.5538  -17.6582   22.6519 O   0  0  0  0  0  0  0  0  0  0  0  0
   15.6814  -17.1553   20.4337 N   0  0  0  0  0  0  0  0  0  0  0  0
   14.4377  -17.8471   20.1431 C   0  0  0  0  0  0  0  0  0  0  0  0
   14.2421  -17.7126   18.6397 C   0  0  0  0  0  0  0  0  0  0  0  0
   15.6583  -17.5029   18.1177 C   0  0  0  0  0  0  0  0  0  0  0  0
   16.2963  -16.6279   19.2065 C   0  0  0  0  0  0  0  0  0  0  0  0
   15.9743  -15.1297   18.9958 C   0  0  0  0  0  0  0  0  0  0  0  0
   15.8854  -14.6219   17.8842 O   0  0  0  0  0  0  0  0  0  0  0  0
   15.7633  -14.4180   20.1614 N   0  0  0  0  0  0  0  0  0  0  0  0
   15.6074  -14.8945   21.0087 H   0  0  0  0  0  0  0  0  0  0  0  0
   15.7719  -12.9710   20.1348 C   0  0  0  0  0  0  0  0  0  0  0  0
   14.5555  -12.4547   20.8668 C   0  0  0  0  0  0  0  0  0  0  0  0
   14.3392  -11.0739   20.9843 C   0  0  0  0  0  0  0  0  0  0  0  0
   13.2747  -10.5821   21.7442 C   0  0  0  0  0  0  0  0  0  0  0  0
   12.4187  -11.4704   22.3978 C   0  0  0  0  0  0  0  0  0  0  0  0
   12.6238  -12.8505   22.2789 C   0  0  0  0  0  0  0  0  0  0  0  0
   13.6853  -13.3401   21.5155 C   0  0  0  0  0  0  0  0  0  0  0  0
   11.3186  -10.9663   23.2664 C   0  0  0  0  0  0  0  0  0  0  0  0
   11.1729   -9.7214   23.5862 N   0  0  0  0  0  0  0  0  0  0  0  0
   10.4088  -11.8376   23.7924 N   0  0  0  0  0  0  0  0  0  0  0  0
   11.7992   -9.0469   23.2368 H   0  0  0  0  0  0  0  0  0  0  0  0
   10.4694  -12.7979   23.5841 H   0  0  0  0  0  0  0  0  0  0  0  0
    9.6920  -11.5057   24.3801 H   0  0  0  0  0  0  0  0  0  0  0  0
   17.1661  -15.4609   23.2552 N   0  0  0  0  0  0  0  0  0  0  0  0
   17.4881  -14.5141   23.0543 H   0  0  0  0  0  0  0  0  0  0  0  0
   17.8849  -15.9320   24.7088 S   0  0  0  0  0  0  0  0  0  0  0  0
   18.2195  -17.3343   24.6205 O   0  0  0  0  0  0  0  0  0  0  0  0
   17.0252  -15.4274   25.7584 O   0  0  0  0  0  0  0  0  0  0  0  0
   21.7723  -13.5223   24.8744 C   0  0  0  0  0  0  0  0  0  0  0  0
   21.5314  -14.4157   23.8228 C   0  0  0  0  0  0  0  0  0  0  0  0
   20.3390  -15.1406   23.7672 C   0  0  0  0  0  0  0  0  0  0  0  0
   19.3832  -14.9847   24.7794 C   0  0  0  0  0  0  0  0  0  0  0  0
   19.5948  -14.0820   25.8206 C   0  0  0  0  0  0  0  0  0  0  0  0
   20.7980  -13.3697   25.8787 C   0  0  0  0  0  0  0  0  0  0  0  0
   21.0374  -12.2851   27.2054 Cl  0  0  0  0  0  0  0  0  0  0  0  0
   24.0149  -13.1637   24.1733 C   0  0  0  0  0  0  0  0  0  0  0  0
   22.9208  -12.7780   24.9977 O   0  0  0  0  0  0  0  0  0  0  0  0
   18.5229  -17.3021   22.3671 C   0  0  0  0  0  0  0  0  0  0  0  0
   18.4047  -18.5801   21.5696 C   0  0  0  0  0  0  0  0  0  0  0  0
   18.6720  -18.6660   20.3773 O   0  0  0  0  0  0  0  0  0  0  0  0
   17.9305  -19.6370   22.3217 N   0  0  0  0  0  0  0  0  0  0  0  0
   17.5370  -19.4674   23.2080 H   0  0  0  0  0  0  0  0  0  0  0  0
   18.0072  -20.9960   21.8165 C   0  0  0  0  0  0  0  0  0  0  0  0
   16.6673  -21.5608   21.4198 C   0  0  0  0  0  0  0  0  0  0  0  0
   16.4265  -21.9450   20.0932 C   0  0  0  0  0  0  0  0  0  0  0  0
   15.1963  -22.4976   19.7251 C   0  0  0  0  0  0  0  0  0  0  0  0
   14.1748  -22.6557   20.6710 C   0  0  0  0  0  0  0  0  0  0  0  0
   14.4019  -22.2514   21.9920 C   0  0  0  0  0  0  0  0  0  0  0  0
   13.1933  -22.3998   23.2194 Cl  0  0  0  0  0  0  0  0  0  0  0  0
   15.6411  -21.7103   22.3643 C   0  0  0  0  0  0  0  0  0  0  0  0
   12.9285  -23.2298   20.2470 C   0  0  0  0  0  0  0  0  0  0  0  0
   11.8959  -23.6514   19.9173 N   0  0  0  0  0  0  0  0  0  0  0  0
 38 39  1  0
 39 31  1  0
 31 32  2  0
 32 33  1  0
 33 34  2  0
 34 28  1  0
 28 29  2  0
 28 30  2  0
 28 26  1  0
 26  1  1  0
  1 40  1  0
 40 41  1  0
 41 42  2  0
 41 43  1  0
 43 45  1  0
 45 46  1  0
 46 47  2  0
 47 48  1  0
 48 49  2  0
 49 53  1  0
 53 54  3  0
 49 50  1  0
 50 51  1  0
 50 52  2  0
  1  2  1  0
  2  3  2  0
  2  4  1  0
  4  5  1  0
  5  6  1  0
  6  7  1  0
  7  8  1  0
  8  9  1  0
  9 10  2  0
  9 11  1  0
 11 13  1  0
 13 14  1  0
 14 15  2  0
 15 16  1  0
 16 17  2  0
 17 20  1  0
 20 21  2  0
 20 22  1  0
 17 18  1  0
 18 19  2  0
 34 35  1  0
 35 36  2  0
 36 37  1  0
 36 31  1  0
 52 46  1  0
  8  4  1  0
 19 14  1  0
 26 27  1  0
 43 44  1  0
 11 12  1  0
 21 23  1  0
 22 24  1  0
 22 25  1  0
M  END
> <minimizedAffinity>
-7.56716

> <CNNscore>
0.3363720179

> <CNNaffinity>
7.7243218422

> <CNN_VS>
2.5982456207

> <CNNaffinity_variance>
0.3487426043

$$$$



 54 57  0  0  0  0  0  0  0  0999 V2000
   18.3771  -14.2022   21.1788 C   0  0  0  0  0  0  0  0  0  0  0  0
   18.2086  -13.7917   22.6501 C   0  0  0  0  0  0  0  0  0  0  0  0
   17.1131  -13.3639   23.0392 O   0  0  0  0  0  0  0  0  0  0  0  0
   19.2928  -13.8492   23.4896 N   0  0  0  0  0  0  0  0  0  0  0  0
   19.1396  -13.5168   24.8953 C   0  0  0  0  0  0  0  0  0  0  0  0
   20.5161  -13.7217   25.5114 C   0  0  0  0  0  0  0  0  0  0  0  0
   21.4604  -13.5561   24.3269 C   0  0  0  0  0  0  0  0  0  0  0  0
   20.6828  -14.2135   23.1774 C   0  0  0  0  0  0  0  0  0  0  0  0
   20.8877  -15.7465   23.1533 C   0  0  0  0  0  0  0  0  0  0  0  0
   21.0007  -16.3828   22.1123 O   0  0  0  0  0  0  0  0  0  0  0  0
   20.9652  -16.3354   24.4011 N   0  0  0  0  0  0  0  0  0  0  0  0
   21.1091  -15.7792   25.2007 H   0  0  0  0  0  0  0  0  0  0  0  0
   20.8345  -17.7708   24.5308 C   0  0  0  0  0  0  0  0  0  0  0  0
   20.1452  -18.0897   25.8366 C   0  0  0  0  0  0  0  0  0  0  0  0
   19.0057  -17.3695   26.2243 C   0  0  0  0  0  0  0  0  0  0  0  0
   18.4188  -17.5844   27.4740 C   0  0  0  0  0  0  0  0  0  0  0  0
   18.9715  -18.5208   28.3497 C   0  0  0  0  0  0  0  0  0  0  0  0
   20.1045  -19.2490   27.9665 C   0  0  0  0  0  0  0  0  0  0  0  0
   20.6869  -19.0362   26.7156 C   0  0  0  0  0  0  0  0  0  0  0  0
   18.4013  -18.7174   29.7117 C   0  0  0  0  0  0  0  0  0  0  0  0
   18.9062  -18.1931   30.7811 N   0  0  0  0  0  0  0  0  0  0  0  0
   17.3008  -19.5064   29.8849 N   0  0  0  0  0  0  0  0  0  0  0  0
   19.7005  -17.6148   30.7180 H   0  0  0  0  0  0  0  0  0  0  0  0
   16.8732  -19.9324   29.1072 H   0  0  0  0  0  0  0  0  0  0  0  0
   16.9348  -19.6494   30.7876 H   0  0  0  0  0  0  0  0  0  0  0  0
   17.0062  -14.5108   20.6422 N   0  0  0  0  0  0  0  0  0  0  0  0
   16.3864  -13.7634   20.9549 H   0  0  0  0  0  0  0  0  0  0  0  0
   16.2771  -15.9725   21.0701 S   0  0  0  0  0  0  0  0  0  0  0  0
   14.9131  -15.7059   21.4630 O   0  0  0  0  0  0  0  0  0  0  0  0
   17.2041  -16.6310   21.9660 O   0  0  0  0  0  0  0  0  0  0  0  0
   16.3015  -18.4096   17.1963 C   0  0  0  0  0  0  0  0  0  0  0  0
   16.9237  -18.9002   18.3513 C   0  0  0  0  0  0  0  0  0  0  0  0
   16.9041  -18.1609   19.5360 C   0  0  0  0  0  0  0  0  0  0  0  0
   16.2709  -16.9116   19.5650 C   0  0  0  0  0  0  0  0  0  0  0  0
   15.6251  -16.4182   18.4322 C   0  0  0  0  0  0  0  0  0  0  0  0
   15.6611  -17.1570   17.2442 C   0  0  0  0  0  0  0  0  0  0  0  0
   14.8779  -16.4946   15.8508 Cl  0  0  0  0  0  0  0  0  0  0  0  0
   15.3867  -20.1800   15.9008 C   0  0  0  0  0  0  0  0  0  0  0  0
   16.2818  -19.0777   15.9957 O   0  0  0  0  0  0  0  0  0  0  0  0
   18.9103  -12.9815   20.4069 C   0  0  0  0  0  0  0  0  0  0  0  0
   17.8449  -12.3128   19.5696 C   0  0  0  0  0  0  0  0  0  0  0  0
   17.7753  -12.4112   18.3506 O   0  0  0  0  0  0  0  0  0  0  0  0
   16.9744  -11.5496   20.3228 N   0  0  0  0  0  0  0  0  0  0  0  0
   17.1960  -11.3371   21.2582 H   0  0  0  0  0  0  0  0  0  0  0  0
   15.7355  -11.0581   19.7473 C   0  0  0  0  0  0  0  0  0  0  0  0
   14.5696  -11.1204   20.7004 C   0  0  0  0  0  0  0  0  0  0  0  0
   13.9758  -12.3517   21.0118 C   0  0  0  0  0  0  0  0  0  0  0  0
   12.9138  -12.4198   21.9182 C   0  0  0  0  0  0  0  0  0  0  0  0
   12.4096  -11.2560   22.5138 C   0  0  0  0  0  0  0  0  0  0  0  0
   12.9835  -10.0213   22.1879 C   0  0  0  0  0  0  0  0  0  0  0  0
   12.4160   -8.5360   22.8669 Cl  0  0  0  0  0  0  0  0  0  0  0  0
   14.0583   -9.9546   21.2894 C   0  0  0  0  0  0  0  0  0  0  0  0
   11.3189  -11.3753   23.4403 C   0  0  0  0  0  0  0  0  0  0  0  0
   10.4033  -11.4639   24.1520 N   0  0  0  0  0  0  0  0  0  0  0  0
 38 39  1  0
 39 31  1  0
 31 32  2  0
 32 33  1  0
 33 34  2  0
 34 28  1  0
 28 29  2  0
 28 30  2  0
 28 26  1  0
 26  1  1  0
  1 40  1  0
 40 41  1  0
 41 42  2  0
 41 43  1  0
 43 45  1  0
 45 46  1  0
 46 47  2  0
 47 48  1  0
 48 49  2  0
 49 53  1  0
 53 54  3  0
 49 50  1  0
 50 51  1  0
 50 52  2  0
  1  2  1  0
  2  3  2  0
  2  4  1  0
  4  5  1  0
  5  6  1  0
  6  7  1  0
  7  8  1  0
  8  9  1  0
  9 10  2  0
  9 11  1  0
 11 13  1  0
 13 14  1  0
 14 15  2  0
 15 16  1  0
 16 17  2  0
 17 20  1  0
 20 21  2  0
 20 22  1  0
 17 18  1  0
 18 19  2  0
 34 35  1  0
 35 36  2  0
 36 37  1  0
 36 31  1  0
 52 46  1  0
  8  4  1  0
 19 14  1  0
 26 27  1  0
 43 44  1  0
 11 12  1  0
 21 23  1  0
 22 24  1  0
 22 25  1  0
M  END
> <minimizedAffinity>
-8.53471

> <CNNscore>
0.3363098800

> <CNNaffinity>
8.1771097183

> <CNN_VS>
2.7500426769

> <CNNaffinity_variance>
0.0977652296

$$$$
