


 28 30  0  0  0  0  0  0  0  0999 V2000
    4.8472    5.1979   22.8162 C   0  0  0  0  0  0  0  0  0  0  0  0
    5.5960    6.0765   22.0769 C   0  0  0  0  0  0  0  0  0  0  0  0
    6.8881    6.0454   22.5630 N   0  0  0  0  0  0  0  0  0  0  0  0
    6.9973    5.1542   23.5829 N   0  0  0  0  0  0  0  0  0  0  0  0
    5.7621    4.6446   23.7444 C   0  0  0  0  0  0  0  0  0  0  0  0
    7.9874    6.8664   22.1438 C   0  0  0  0  0  0  0  0  0  0  0  0
    7.7761    7.7002   21.0255 C   0  0  0  0  0  0  0  0  0  0  0  0
    8.7615    8.5795   20.5927 C   0  0  0  0  0  0  0  0  0  0  0  0
    9.9735    8.6431   21.2657 C   0  0  0  0  0  0  0  0  0  0  0  0
   10.2327    7.8178   22.3670 C   0  0  0  0  0  0  0  0  0  0  0  0
   11.4865    7.9156   22.9911 C   0  0  0  0  0  0  0  0  0  0  0  0
   11.8091    7.0960   24.0606 C   0  0  0  0  0  0  0  0  0  0  0  0
   13.0127    7.2019   24.6380 F   0  0  0  0  0  0  0  0  0  0  0  0
   10.9072    6.1602   24.5242 C   0  0  0  0  0  0  0  0  0  0  0  0
    9.6534    6.0568   23.9141 C   0  0  0  0  0  0  0  0  0  0  0  0
    9.2513    6.8930   22.8312 C   0  0  0  0  0  0  0  0  0  0  0  0
    1.5100    4.4183   21.7241 N   0  0  0  0  0  0  0  0  0  0  0  0
    2.8192    4.7445   21.5212 C   0  0  0  0  0  0  0  0  0  0  0  0
    3.2471    4.8774   20.3830 O   0  0  0  0  0  0  0  0  0  0  0  0
    3.5016    4.8950   22.6966 N   0  0  0  0  0  0  0  0  0  0  0  0
    0.9116    4.2824   20.9543 H   0  0  0  0  0  0  0  0  0  0  0  0
    1.1638    4.3189   22.6403 H   0  0  0  0  0  0  0  0  0  0  0  0
    2.9915    4.7778   23.5304 H   0  0  0  0  0  0  0  0  0  0  0  0
    5.4637    3.6440   24.7748 C   0  0  0  0  0  0  0  0  0  0  0  0
    6.5643    3.0781   25.3548 N   0  0  0  0  0  0  0  0  0  0  0  0
    4.3223    3.3360   25.1069 O   0  0  0  0  0  0  0  0  0  0  0  0
    7.4662    3.3470   25.0658 H   0  0  0  0  0  0  0  0  0  0  0  0
    6.4552    2.4015   26.0616 H   0  0  0  0  0  0  0  0  0  0  0  0
 17 18  1  0
 18 19  2  0
 18 20  1  0
 20  1  1  0
  1  2  2  0
  2  3  1  0
  3  6  1  0
  6  7  2  0
  7  8  1  0
  8  9  2  0
  9 10  1  0
 10 11  2  0
 11 12  1  0
 12 13  1  0
 12 14  2  0
 14 15  1  0
 15 16  2  0
  3  4  1  0
  4  5  2  0
  5 24  1  0
 24 25  1  0
 24 26  2  0
  5  1  1  0
 16  6  1  0
 16 10  1  0
 17 21  1  0
 17 22  1  0
 20 23  1  0
 25 27  1  0
 25 28  1  0
M  END
> <minimizedAffinity>
-7.24413

> <CNNscore>
0.9428213835

> <CNNaffinity>
6.8635635376

> <CNN_VS>
6.4711146355

> <CNNaffinity_variance>
0.2432083935

$$$$



 28 30  0  0  0  0  0  0  0  0999 V2000
    5.1652    5.3157   22.0845 C   0  0  0  0  0  0  0  0  0  0  0  0
    5.8945    5.1136   23.2276 C   0  0  0  0  0  0  0  0  0  0  0  0
    7.2107    5.4270   22.9513 N   0  0  0  0  0  0  0  0  0  0  0  0
    7.3460    5.8462   21.6659 N   0  0  0  0  0  0  0  0  0  0  0  0
    6.1112    5.7728   21.1355 C   0  0  0  0  0  0  0  0  0  0  0  0
    8.3349    5.2817   23.8307 C   0  0  0  0  0  0  0  0  0  0  0  0
    9.4766    6.0604   23.5471 C   0  0  0  0  0  0  0  0  0  0  0  0
   10.5851    6.0359   24.3851 C   0  0  0  0  0  0  0  0  0  0  0  0
   10.5754    5.2355   25.5188 C   0  0  0  0  0  0  0  0  0  0  0  0
    9.4714    4.4305   25.8257 C   0  0  0  0  0  0  0  0  0  0  0  0
    9.5327    3.6277   26.9758 C   0  0  0  0  0  0  0  0  0  0  0  0
    8.4841    2.7841   27.3052 C   0  0  0  0  0  0  0  0  0  0  0  0
    8.5653    2.0227   28.4038 F   0  0  0  0  0  0  0  0  0  0  0  0
    7.3648    2.7096   26.5017 C   0  0  0  0  0  0  0  0  0  0  0  0
    7.2899    3.5081   25.3563 C   0  0  0  0  0  0  0  0  0  0  0  0
    8.3217    4.4185   24.9819 C   0  0  0  0  0  0  0  0  0  0  0  0
    1.7131    4.3075   22.1478 N   0  0  0  0  0  0  0  0  0  0  0  0
    3.0158    4.2381   22.5475 C   0  0  0  0  0  0  0  0  0  0  0  0
    3.3507    3.4316   23.4041 O   0  0  0  0  0  0  0  0  0  0  0  0
    3.8084    5.1309   21.8807 N   0  0  0  0  0  0  0  0  0  0  0  0
    1.0412    3.7138   22.5544 H   0  0  0  0  0  0  0  0  0  0  0  0
    1.4451    4.9514   21.4529 H   0  0  0  0  0  0  0  0  0  0  0  0
    3.3764    5.6911   21.1960 H   0  0  0  0  0  0  0  0  0  0  0  0
    5.8435    6.1335   19.7390 C   0  0  0  0  0  0  0  0  0  0  0  0
    6.9610    6.3200   18.9746 N   0  0  0  0  0  0  0  0  0  0  0  0
    4.7119    6.2529   19.2771 O   0  0  0  0  0  0  0  0  0  0  0  0
    7.8543    6.2168   19.3752 H   0  0  0  0  0  0  0  0  0  0  0  0
    6.8726    6.5575   18.0232 H   0  0  0  0  0  0  0  0  0  0  0  0
 17 18  1  0
 18 19  2  0
 18 20  1  0
 20  1  1  0
  1  2  2  0
  2  3  1  0
  3  6  1  0
  6  7  2  0
  7  8  1  0
  8  9  2  0
  9 10  1  0
 10 11  2  0
 11 12  1  0
 12 13  1  0
 12 14  2  0
 14 15  1  0
 15 16  2  0
  3  4  1  0
  4  5  2  0
  5 24  1  0
 24 25  1  0
 24 26  2  0
  5  1  1  0
 16  6  1  0
 16 10  1  0
 17 21  1  0
 17 22  1  0
 20 23  1  0
 25 27  1  0
 25 28  1  0
M  END
> <minimizedAffinity>
-7.39152

> <CNNscore>
0.9423002601

> <CNNaffinity>
7.0965499878

> <CNN_VS>
6.6870808601

> <CNNaffinity_variance>
0.3572978973

$$$$



 28 30  0  0  0  0  0  0  0  0999 V2000
    4.4417    5.9205   21.6570 C   0  0  0  0  0  0  0  0  0  0  0  0
    5.7082    6.4193   21.8202 C   0  0  0  0  0  0  0  0  0  0  0  0
    6.3024    5.7344   22.8616 N   0  0  0  0  0  0  0  0  0  0  0  0
    5.4601    4.7923   23.3608 N   0  0  0  0  0  0  0  0  0  0  0  0
    4.3297    4.9070   22.6393 C   0  0  0  0  0  0  0  0  0  0  0  0
    7.5949    5.9841   23.4320 C   0  0  0  0  0  0  0  0  0  0  0  0
    8.3060    7.1016   22.9462 C   0  0  0  0  0  0  0  0  0  0  0  0
    9.5340    7.4594   23.4899 C   0  0  0  0  0  0  0  0  0  0  0  0
   10.0744    6.7106   24.5259 C   0  0  0  0  0  0  0  0  0  0  0  0
    9.4121    5.5814   25.0232 C   0  0  0  0  0  0  0  0  0  0  0  0
   10.0220    4.8544   26.0578 C   0  0  0  0  0  0  0  0  0  0  0  0
    9.4286    3.7077   26.5606 C   0  0  0  0  0  0  0  0  0  0  0  0
   10.0300    3.0261   27.5439 F   0  0  0  0  0  0  0  0  0  0  0  0
    8.2321    3.2533   26.0449 C   0  0  0  0  0  0  0  0  0  0  0  0
    7.6124    3.9717   25.0178 C   0  0  0  0  0  0  0  0  0  0  0  0
    8.1572    5.1751   24.4808 C   0  0  0  0  0  0  0  0  0  0  0  0
    2.4918    6.7177   18.7417 N   0  0  0  0  0  0  0  0  0  0  0  0
    3.6323    6.3310   19.3829 C   0  0  0  0  0  0  0  0  0  0  0  0
    4.6388    6.0718   18.7378 O   0  0  0  0  0  0  0  0  0  0  0  0
    3.4751    6.2983   20.7408 N   0  0  0  0  0  0  0  0  0  0  0  0
    2.4766    6.7808   17.7593 H   0  0  0  0  0  0  0  0  0  0  0  0
    1.6840    6.9338   19.2613 H   0  0  0  0  0  0  0  0  0  0  0  0
    2.5979    6.5669   21.0981 H   0  0  0  0  0  0  0  0  0  0  0  0
    3.1594    4.0589   22.8900 C   0  0  0  0  0  0  0  0  0  0  0  0
    2.2460    4.0336   21.8736 N   0  0  0  0  0  0  0  0  0  0  0  0
    3.0034    3.4105   23.9212 O   0  0  0  0  0  0  0  0  0  0  0  0
    2.4006    4.5652   21.0595 H   0  0  0  0  0  0  0  0  0  0  0  0
    1.4334    3.4839   21.9556 H   0  0  0  0  0  0  0  0  0  0  0  0
 17 18  1  0
 18 19  2  0
 18 20  1  0
 20  1  1  0
  1  2  2  0
  2  3  1  0
  3  6  1  0
  6  7  2  0
  7  8  1  0
  8  9  2  0
  9 10  1  0
 10 11  2  0
 11 12  1  0
 12 13  1  0
 12 14  2  0
 14 15  1  0
 15 16  2  0
  3  4  1  0
  4  5  2  0
  5 24  1  0
 24 25  1  0
 24 26  2  0
  5  1  1  0
 16  6  1  0
 16 10  1  0
 17 21  1  0
 17 22  1  0
 20 23  1  0
 25 27  1  0
 25 28  1  0
M  END
> <minimizedAffinity>
-8.69864

> <CNNscore>
0.9415373206

> <CNNaffinity>
6.9406547546

> <CNN_VS>
6.5348854065

> <CNNaffinity_variance>
0.1637508422

$$$$



 28 30  0  0  0  0  0  0  0  0999 V2000
    4.7361    5.3674   22.0258 C   0  0  0  0  0  0  0  0  0  0  0  0
    5.8123    6.1646   21.7331 C   0  0  0  0  0  0  0  0  0  0  0  0
    6.7338    6.0230   22.7517 N   0  0  0  0  0  0  0  0  0  0  0  0
    6.2896    5.1393   23.6833 N   0  0  0  0  0  0  0  0  0  0  0  0
    5.0770    4.7460   23.2515 C   0  0  0  0  0  0  0  0  0  0  0  0
    7.9701    6.7353   22.9016 C   0  0  0  0  0  0  0  0  0  0  0  0
    8.4965    6.8402   24.2063 C   0  0  0  0  0  0  0  0  0  0  0  0
    9.7234    7.4516   24.4355 C   0  0  0  0  0  0  0  0  0  0  0  0
   10.4463    7.9688   23.3696 C   0  0  0  0  0  0  0  0  0  0  0  0
    9.9505    7.9052   22.0615 C   0  0  0  0  0  0  0  0  0  0  0  0
   10.7207    8.4659   21.0302 C   0  0  0  0  0  0  0  0  0  0  0  0
   10.2600    8.4642   19.7235 C   0  0  0  0  0  0  0  0  0  0  0  0
   11.0080    9.0092   18.7557 F   0  0  0  0  0  0  0  0  0  0  0  0
    9.0297    7.9212   19.4142 C   0  0  0  0  0  0  0  0  0  0  0  0
    8.2558    7.3553   20.4320 C   0  0  0  0  0  0  0  0  0  0  0  0
    8.6889    7.2984   21.7894 C   0  0  0  0  0  0  0  0  0  0  0  0
    2.0855    5.3425   19.5947 N   0  0  0  0  0  0  0  0  0  0  0  0
    3.3054    5.7248   20.0712 C   0  0  0  0  0  0  0  0  0  0  0  0
    4.0117    6.4754   19.4122 O   0  0  0  0  0  0  0  0  0  0  0  0
    3.5715    5.1861   21.2995 N   0  0  0  0  0  0  0  0  0  0  0  0
    1.7768    5.6646   18.7171 H   0  0  0  0  0  0  0  0  0  0  0  0
    1.5138    4.7446   20.1285 H   0  0  0  0  0  0  0  0  0  0  0  0
    2.8741    4.6201   21.7025 H   0  0  0  0  0  0  0  0  0  0  0  0
    4.2572    3.7904   24.0043 C   0  0  0  0  0  0  0  0  0  0  0  0
    4.8564    3.2832   25.1230 N   0  0  0  0  0  0  0  0  0  0  0  0
    3.1190    3.4694   23.6735 O   0  0  0  0  0  0  0  0  0  0  0  0
    5.7705    3.5610   25.3608 H   0  0  0  0  0  0  0  0  0  0  0  0
    4.3739    2.6400   25.6912 H   0  0  0  0  0  0  0  0  0  0  0  0
 17 18  1  0
 18 19  2  0
 18 20  1  0
 20  1  1  0
  1  2  2  0
  2  3  1  0
  3  6  1  0
  6  7  2  0
  7  8  1  0
  8  9  2  0
  9 10  1  0
 10 11  2  0
 11 12  1  0
 12 13  1  0
 12 14  2  0
 14 15  1  0
 15 16  2  0
  3  4  1  0
  4  5  2  0
  5 24  1  0
 24 25  1  0
 24 26  2  0
  5  1  1  0
 16  6  1  0
 16 10  1  0
 17 21  1  0
 17 22  1  0
 20 23  1  0
 25 27  1  0
 25 28  1  0
M  END
> <minimizedAffinity>
-8.43289

> <CNNscore>
0.9091588855

> <CNNaffinity>
6.8576388359

> <CNN_VS>
6.2346835136

> <CNNaffinity_variance>
0.1707793474

$$$$



 28 30  0  0  0  0  0  0  0  0999 V2000
    4.5432    5.9778   21.6307 C   0  0  0  0  0  0  0  0  0  0  0  0
    5.7572    6.6143   21.6523 C   0  0  0  0  0  0  0  0  0  0  0  0
    6.5161    6.0452   22.6558 N   0  0  0  0  0  0  0  0  0  0  0  0
    5.8314    5.0440   23.2682 N   0  0  0  0  0  0  0  0  0  0  0  0
    4.6336    5.0052   22.6557 C   0  0  0  0  0  0  0  0  0  0  0  0
    7.8206    6.4560   23.0892 C   0  0  0  0  0  0  0  0  0  0  0  0
    8.1587    6.2042   24.4355 C   0  0  0  0  0  0  0  0  0  0  0  0
    9.4249    6.5048   24.9232 C   0  0  0  0  0  0  0  0  0  0  0  0
   10.3754    7.0612   24.0787 C   0  0  0  0  0  0  0  0  0  0  0  0
   10.0747    7.3473   22.7412 C   0  0  0  0  0  0  0  0  0  0  0  0
   11.0735    7.9295   21.9447 C   0  0  0  0  0  0  0  0  0  0  0  0
   10.8175    8.2680   20.6258 C   0  0  0  0  0  0  0  0  0  0  0  0
   11.7827    8.8274   19.8852 F   0  0  0  0  0  0  0  0  0  0  0  0
    9.5716    8.0490   20.0747 C   0  0  0  0  0  0  0  0  0  0  0  0
    8.5701    7.4650   20.8564 C   0  0  0  0  0  0  0  0  0  0  0  0
    8.7818    7.0661   22.2091 C   0  0  0  0  0  0  0  0  0  0  0  0
    2.2743    6.5079   18.8907 N   0  0  0  0  0  0  0  0  0  0  0  0
    3.5086    6.3062   19.4360 C   0  0  0  0  0  0  0  0  0  0  0  0
    4.4937    6.2434   18.7134 O   0  0  0  0  0  0  0  0  0  0  0  0
    3.4608    6.2084   20.7990 N   0  0  0  0  0  0  0  0  0  0  0  0
    2.1755    6.5951   17.9150 H   0  0  0  0  0  0  0  0  0  0  0  0
    1.4825    6.5661   19.4728 H   0  0  0  0  0  0  0  0  0  0  0  0
    2.5798    6.3110   21.2262 H   0  0  0  0  0  0  0  0  0  0  0  0
    3.5910    4.0512   23.0492 C   0  0  0  0  0  0  0  0  0  0  0  0
    2.6046    3.8704   22.1207 N   0  0  0  0  0  0  0  0  0  0  0  0
    3.5955    3.4489   24.1194 O   0  0  0  0  0  0  0  0  0  0  0  0
    2.6300    4.3688   21.2720 H   0  0  0  0  0  0  0  0  0  0  0  0
    1.8686    3.2417   22.3004 H   0  0  0  0  0  0  0  0  0  0  0  0
 17 18  1  0
 18 19  2  0
 18 20  1  0
 20  1  1  0
  1  2  2  0
  2  3  1  0
  3  6  1  0
  6  7  2  0
  7  8  1  0
  8  9  2  0
  9 10  1  0
 10 11  2  0
 11 12  1  0
 12 13  1  0
 12 14  2  0
 14 15  1  0
 15 16  2  0
  3  4  1  0
  4  5  2  0
  5 24  1  0
 24 25  1  0
 24 26  2  0
  5  1  1  0
 16  6  1  0
 16 10  1  0
 17 21  1  0
 17 22  1  0
 20 23  1  0
 25 27  1  0
 25 28  1  0
M  END
> <minimizedAffinity>
-8.21000

> <CNNscore>
0.9078778028

> <CNNaffinity>
7.0406680107

> <CNN_VS>
6.3920660019

> <CNNaffinity_variance>
0.2850010693

$$$$



 28 30  0  0  0  0  0  0  0  0999 V2000
    4.8594    5.3163   21.9511 C   0  0  0  0  0  0  0  0  0  0  0  0
    5.9960    6.0011   21.6067 C   0  0  0  0  0  0  0  0  0  0  0  0
    6.9357    5.7868   22.5956 N   0  0  0  0  0  0  0  0  0  0  0  0
    6.4424    4.9646   23.5583 N   0  0  0  0  0  0  0  0  0  0  0  0
    5.1830    4.6838   23.1758 C   0  0  0  0  0  0  0  0  0  0  0  0
    8.2393    6.3785   22.6894 C   0  0  0  0  0  0  0  0  0  0  0  0
    8.4530    7.5775   21.9773 C   0  0  0  0  0  0  0  0  0  0  0  0
    9.6623    8.2566   22.0666 C   0  0  0  0  0  0  0  0  0  0  0  0
   10.6789    7.7532   22.8661 C   0  0  0  0  0  0  0  0  0  0  0  0
   10.5164    6.5551   23.5726 C   0  0  0  0  0  0  0  0  0  0  0  0
   11.5906    6.0886   24.3469 C   0  0  0  0  0  0  0  0  0  0  0  0
   11.4971    4.8898   25.0354 C   0  0  0  0  0  0  0  0  0  0  0  0
   12.5355    4.4605   25.7638 F   0  0  0  0  0  0  0  0  0  0  0  0
   10.3496    4.1270   24.9628 C   0  0  0  0  0  0  0  0  0  0  0  0
    9.2710    4.5836   24.1990 C   0  0  0  0  0  0  0  0  0  0  0  0
    9.2950    5.8230   23.4942 C   0  0  0  0  0  0  0  0  0  0  0  0
    2.1431    5.4784   19.5991 N   0  0  0  0  0  0  0  0  0  0  0  0
    3.4154    5.7363   20.0189 C   0  0  0  0  0  0  0  0  0  0  0  0
    4.1828    6.3594   19.2983 O   0  0  0  0  0  0  0  0  0  0  0  0
    3.6575    5.2373   21.2687 N   0  0  0  0  0  0  0  0  0  0  0  0
    1.8451    5.7870   18.7130 H   0  0  0  0  0  0  0  0  0  0  0  0
    1.5231    4.9836   20.1822 H   0  0  0  0  0  0  0  0  0  0  0  0
    2.9120    4.7821   21.7229 H   0  0  0  0  0  0  0  0  0  0  0  0
    4.3028    3.8237   23.9741 C   0  0  0  0  0  0  0  0  0  0  0  0
    4.8639    3.3464   25.1254 N   0  0  0  0  0  0  0  0  0  0  0  0
    3.1492    3.5529   23.6518 O   0  0  0  0  0  0  0  0  0  0  0  0
    5.7917    3.5822   25.3553 H   0  0  0  0  0  0  0  0  0  0  0  0
    4.3403    2.7668   25.7247 H   0  0  0  0  0  0  0  0  0  0  0  0
 17 18  1  0
 18 19  2  0
 18 20  1  0
 20  1  1  0
  1  2  2  0
  2  3  1  0
  3  6  1  0
  6  7  2  0
  7  8  1  0
  8  9  2  0
  9 10  1  0
 10 11  2  0
 11 12  1  0
 12 13  1  0
 12 14  2  0
 14 15  1  0
 15 16  2  0
  3  4  1  0
  4  5  2  0
  5 24  1  0
 24 25  1  0
 24 26  2  0
  5  1  1  0
 16  6  1  0
 16 10  1  0
 17 21  1  0
 17 22  1  0
 20 23  1  0
 25 27  1  0
 25 28  1  0
M  END
> <minimizedAffinity>
-7.44505

> <CNNscore>
0.8937738538

> <CNNaffinity>
6.9266066551

> <CNN_VS>
6.1908197403

> <CNNaffinity_variance>
0.3605942726

$$$$



 28 30  0  0  0  0  0  0  0  0999 V2000
    5.4863    5.3483   22.6473 C   0  0  0  0  0  0  0  0  0  0  0  0
    6.1987    5.0150   23.7701 C   0  0  0  0  0  0  0  0  0  0  0  0
    7.5344    5.2488   23.5094 N   0  0  0  0  0  0  0  0  0  0  0  0
    7.7004    5.7443   22.2551 N   0  0  0  0  0  0  0  0  0  0  0  0
    6.4637    5.7987   21.7270 C   0  0  0  0  0  0  0  0  0  0  0  0
    8.6447    4.9609   24.3711 C   0  0  0  0  0  0  0  0  0  0  0  0
    8.3917    4.1437   25.4929 C   0  0  0  0  0  0  0  0  0  0  0  0
    9.4212    3.7563   26.3424 C   0  0  0  0  0  0  0  0  0  0  0  0
   10.7195    4.1763   26.0892 C   0  0  0  0  0  0  0  0  0  0  0  0
   11.0111    5.0058   24.9992 C   0  0  0  0  0  0  0  0  0  0  0  0
   12.3414    5.4128   24.8102 C   0  0  0  0  0  0  0  0  0  0  0  0
   12.6788    6.2640   23.7703 C   0  0  0  0  0  0  0  0  0  0  0  0
   13.9528    6.6443   23.6112 F   0  0  0  0  0  0  0  0  0  0  0  0
   11.7105    6.7361   22.9081 C   0  0  0  0  0  0  0  0  0  0  0  0
   10.3829    6.3337   23.0830 C   0  0  0  0  0  0  0  0  0  0  0  0
    9.9787    5.4354   24.1141 C   0  0  0  0  0  0  0  0  0  0  0  0
    1.9977    4.4840   22.5103 N   0  0  0  0  0  0  0  0  0  0  0  0
    3.3035    4.2548   22.8325 C   0  0  0  0  0  0  0  0  0  0  0  0
    3.6206    3.2187   23.4003 O   0  0  0  0  0  0  0  0  0  0  0  0
    4.1196    5.2785   22.4380 N   0  0  0  0  0  0  0  0  0  0  0  0
    1.3095    3.8190   22.7417 H   0  0  0  0  0  0  0  0  0  0  0  0
    1.7435    5.3143   22.0465 H   0  0  0  0  0  0  0  0  0  0  0  0
    3.6986    6.0316   21.9639 H   0  0  0  0  0  0  0  0  0  0  0  0
    6.2234    6.2733   20.3600 C   0  0  0  0  0  0  0  0  0  0  0  0
    7.3390    6.7165   19.7066 N   0  0  0  0  0  0  0  0  0  0  0  0
    5.1164    6.2701   19.8285 O   0  0  0  0  0  0  0  0  0  0  0  0
    8.2123    6.7061   20.1609 H   0  0  0  0  0  0  0  0  0  0  0  0
    7.2693    7.0463   18.7815 H   0  0  0  0  0  0  0  0  0  0  0  0
 17 18  1  0
 18 19  2  0
 18 20  1  0
 20  1  1  0
  1  2  2  0
  2  3  1  0
  3  6  1  0
  6  7  2  0
  7  8  1  0
  8  9  2  0
  9 10  1  0
 10 11  2  0
 11 12  1  0
 12 13  1  0
 12 14  2  0
 14 15  1  0
 15 16  2  0
  3  4  1  0
  4  5  2  0
  5 24  1  0
 24 25  1  0
 24 26  2  0
  5  1  1  0
 16  6  1  0
 16 10  1  0
 17 21  1  0
 17 22  1  0
 20 23  1  0
 25 27  1  0
 25 28  1  0
M  END
> <minimizedAffinity>
-6.58965

> <CNNscore>
0.8397068977

> <CNNaffinity>
6.6736874580

> <CNN_VS>
5.6039414406

> <CNNaffinity_variance>
0.3030888140

$$$$



 28 30  0  0  0  0  0  0  0  0999 V2000
    4.7056    5.6791   21.5955 C   0  0  0  0  0  0  0  0  0  0  0  0
    5.8463    6.0504   22.2590 C   0  0  0  0  0  0  0  0  0  0  0  0
    6.7015    6.6275   21.3412 N   0  0  0  0  0  0  0  0  0  0  0  0
    6.1339    6.6575   20.1070 N   0  0  0  0  0  0  0  0  0  0  0  0
    4.9286    6.0772   20.2552 C   0  0  0  0  0  0  0  0  0  0  0  0
    8.0411    7.0832   21.5781 C   0  0  0  0  0  0  0  0  0  0  0  0
    8.4992    8.1643   20.7961 C   0  0  0  0  0  0  0  0  0  0  0  0
    9.7576    8.7159   21.0056 C   0  0  0  0  0  0  0  0  0  0  0  0
   10.5806    8.2002   21.9969 C   0  0  0  0  0  0  0  0  0  0  0  0
   10.1737    7.1137   22.7812 C   0  0  0  0  0  0  0  0  0  0  0  0
   11.0614    6.6255   23.7531 C   0  0  0  0  0  0  0  0  0  0  0  0
   10.7246    5.5291   24.5304 C   0  0  0  0  0  0  0  0  0  0  0  0
   11.5883    5.0761   25.4481 F   0  0  0  0  0  0  0  0  0  0  0  0
    9.5143    4.8901   24.3549 C   0  0  0  0  0  0  0  0  0  0  0  0
    8.6196    5.3702   23.3936 C   0  0  0  0  0  0  0  0  0  0  0  0
    8.8954    6.5124   22.5856 C   0  0  0  0  0  0  0  0  0  0  0  0
    2.2935    3.6378   23.3136 N   0  0  0  0  0  0  0  0  0  0  0  0
    3.5615    4.0105   22.9745 C   0  0  0  0  0  0  0  0  0  0  0  0
    4.5205    3.4098   23.4392 O   0  0  0  0  0  0  0  0  0  0  0  0
    3.5739    5.0618   22.1003 N   0  0  0  0  0  0  0  0  0  0  0  0
    2.1506    2.8904   23.9382 H   0  0  0  0  0  0  0  0  0  0  0  0
    1.5216    4.1163   22.9337 H   0  0  0  0  0  0  0  0  0  0  0  0
    2.7021    5.4100   21.8039 H   0  0  0  0  0  0  0  0  0  0  0  0
    4.0060    5.9052   19.1278 C   0  0  0  0  0  0  0  0  0  0  0  0
    2.7922    5.3727   19.4612 N   0  0  0  0  0  0  0  0  0  0  0  0
    4.2840    6.2184   17.9734 O   0  0  0  0  0  0  0  0  0  0  0  0
    2.6003    5.1320   20.3963 H   0  0  0  0  0  0  0  0  0  0  0  0
    2.1097    5.2298   18.7662 H   0  0  0  0  0  0  0  0  0  0  0  0
 17 18  1  0
 18 19  2  0
 18 20  1  0
 20  1  1  0
  1  2  2  0
  2  3  1  0
  3  6  1  0
  6  7  2  0
  7  8  1  0
  8  9  2  0
  9 10  1  0
 10 11  2  0
 11 12  1  0
 12 13  1  0
 12 14  2  0
 14 15  1  0
 15 16  2  0
  3  4  1  0
  4  5  2  0
  5 24  1  0
 24 25  1  0
 24 26  2  0
  5  1  1  0
 16  6  1  0
 16 10  1  0
 17 21  1  0
 17 22  1  0
 20 23  1  0
 25 27  1  0
 25 28  1  0
M  END
> <minimizedAffinity>
-7.50234

> <CNNscore>
0.7544612288

> <CNNaffinity>
6.8949475288

> <CNN_VS>
5.2019705772

> <CNNaffinity_variance>
0.3654044569

$$$$



 28 30  0  0  0  0  0  0  0  0999 V2000
    5.3069    5.1940   23.0754 C   0  0  0  0  0  0  0  0  0  0  0  0
    5.9738    6.1279   22.3253 C   0  0  0  0  0  0  0  0  0  0  0  0
    7.2925    6.1373   22.7351 N   0  0  0  0  0  0  0  0  0  0  0  0
    7.4984    5.2192   23.7153 N   0  0  0  0  0  0  0  0  0  0  0  0
    6.2971    4.6514   23.9297 C   0  0  0  0  0  0  0  0  0  0  0  0
    8.3301    7.0184   22.2823 C   0  0  0  0  0  0  0  0  0  0  0  0
    9.1823    7.5651   23.2648 C   0  0  0  0  0  0  0  0  0  0  0  0
   10.2568    8.3723   22.9107 C   0  0  0  0  0  0  0  0  0  0  0  0
   10.5005    8.6489   21.5727 C   0  0  0  0  0  0  0  0  0  0  0  0
    9.6667    8.1444   20.5670 C   0  0  0  0  0  0  0  0  0  0  0  0
    9.9550    8.4784   19.2342 C   0  0  0  0  0  0  0  0  0  0  0  0
    9.1407    8.0377   18.2035 C   0  0  0  0  0  0  0  0  0  0  0  0
    9.4307    8.3722   16.9397 F   0  0  0  0  0  0  0  0  0  0  0  0
    8.0244    7.2716   18.4700 C   0  0  0  0  0  0  0  0  0  0  0  0
    7.7297    6.9282   19.7930 C   0  0  0  0  0  0  0  0  0  0  0  0
    8.5463    7.3245   20.8929 C   0  0  0  0  0  0  0  0  0  0  0  0
    1.9391    4.3336   22.1511 N   0  0  0  0  0  0  0  0  0  0  0  0
    3.2164    4.7339   21.8867 C   0  0  0  0  0  0  0  0  0  0  0  0
    3.5596    4.9630   20.7351 O   0  0  0  0  0  0  0  0  0  0  0  0
    3.9704    4.8369   23.0227 N   0  0  0  0  0  0  0  0  0  0  0  0
    1.2959    4.2217   21.4143 H   0  0  0  0  0  0  0  0  0  0  0  0
    1.6608    4.1566   23.0787 H   0  0  0  0  0  0  0  0  0  0  0  0
    3.5239    4.6401   23.8778 H   0  0  0  0  0  0  0  0  0  0  0  0
    6.1018    3.6060   24.9401 C   0  0  0  0  0  0  0  0  0  0  0  0
    4.7953    3.2894   25.1868 N   0  0  0  0  0  0  0  0  0  0  0  0
    7.0278    3.0448   25.5193 O   0  0  0  0  0  0  0  0  0  0  0  0
    4.0758    3.7582   24.7054 H   0  0  0  0  0  0  0  0  0  0  0  0
    4.5737    2.5925   25.8460 H   0  0  0  0  0  0  0  0  0  0  0  0
 17 18  1  0
 18 19  2  0
 18 20  1  0
 20  1  1  0
  1  2  2  0
  2  3  1  0
  3  6  1  0
  6  7  2  0
  7  8  1  0
  8  9  2  0
  9 10  1  0
 10 11  2  0
 11 12  1  0
 12 13  1  0
 12 14  2  0
 14 15  1  0
 15 16  2  0
  3  4  1  0
  4  5  2  0
  5 24  1  0
 24 25  1  0
 24 26  2  0
  5  1  1  0
 16  6  1  0
 16 10  1  0
 17 21  1  0
 17 22  1  0
 20 23  1  0
 25 27  1  0
 25 28  1  0
M  END
> <minimizedAffinity>
-7.22334

> <CNNscore>
0.7120761871

> <CNNaffinity>
6.6262478828

> <CNN_VS>
4.7183933258

> <CNNaffinity_variance>
0.2518239319

$$$$
