


 33 35  0  0  0  0  0  0  0  0999 V2000
   91.8973   93.6416  -43.6658 C   0  0  0  0  0  0  0  0  0  0  0  0
   91.9456   92.7177  -44.7159 C   0  0  0  0  0  0  0  0  0  0  0  0
   91.4808   93.0704  -45.9846 C   0  0  0  0  0  0  0  0  0  0  0  0
   90.9767   94.3501  -46.2088 C   0  0  0  0  0  0  0  0  0  0  0  0
   90.9279   95.3015  -45.1708 C   0  0  0  0  0  0  0  0  0  0  0  0
   91.3869   94.9314  -43.8975 C   0  0  0  0  0  0  0  0  0  0  0  0
   91.3156   95.8681  -42.8939 O   0  0  0  0  0  0  0  0  0  0  0  0
   90.9715   96.7211  -43.0728 H   0  0  0  0  0  0  0  0  0  0  0  0
   92.7703   92.9017  -41.2904 C   0  0  0  0  0  0  0  0  0  0  0  0
   92.3673   93.2348  -42.3729 C   0  0  0  0  0  0  0  0  0  0  0  0
   91.4991   92.1115  -47.0476 C   0  0  0  0  0  0  0  0  0  0  0  0
   91.5371   91.2831  -47.9179 C   0  0  0  0  0  0  0  0  0  0  0  0
   91.6013   90.2748  -48.9828 C   0  0  0  0  0  0  0  0  0  0  0  0
   90.9643   90.7306  -50.1791 O   0  0  0  0  0  0  0  0  0  0  0  0
   89.6118   90.5571  -50.3039 C   0  0  0  0  0  0  0  0  0  0  0  0
   88.7034   91.4790  -50.8327 C   0  0  0  0  0  0  0  0  0  0  0  0
   87.3434   91.1576  -50.9193 C   0  0  0  0  0  0  0  0  0  0  0  0
   86.9024   89.9104  -50.4893 C   0  0  0  0  0  0  0  0  0  0  0  0
   85.6056   89.5971  -50.5965 F   0  0  0  0  0  0  0  0  0  0  0  0
   87.7932   88.9810  -49.9619 C   0  0  0  0  0  0  0  0  0  0  0  0
   89.1470   89.3094  -49.8687 C   0  0  0  0  0  0  0  0  0  0  0  0
   90.3450   96.6687  -45.4563 C   0  0  0  0  0  0  0  0  0  0  0  0
   90.5970   97.6363  -44.3719 N   0  0  0  0  0  0  0  0  0  0  0  0
   89.3603   98.3078  -43.9464 C   0  0  0  0  0  0  0  0  0  0  0  0
   89.5172   99.7989  -43.6222 C   0  0  0  0  0  0  0  0  0  0  0  0
   90.7918  100.0719  -42.8050 C   0  0  0  0  0  0  0  0  0  0  0  0
   92.0079   99.4747  -43.5633 C   0  0  0  0  0  0  0  0  0  0  0  0
   91.6361   98.5887  -44.7522 C   0  0  0  0  0  0  0  0  0  0  0  0
   91.0450  101.5130  -42.5026 N   0  0  0  0  0  0  0  0  0  0  0  0
   92.4447  101.8964  -42.7950 C   0  0  0  0  0  0  0  0  0  0  0  0
   92.5734  103.3383  -43.2803 C   0  0  0  0  0  0  0  0  0  0  0  0
   90.6057  101.9653  -41.1678 C   0  0  0  0  0  0  0  0  0  0  0  0
   91.4976  101.5695  -39.9915 C   0  0  0  0  0  0  0  0  0  0  0  0
  9 10  3  0
 10  1  1  0
  1  2  2  0
  2  3  1  0
  3 11  1  0
 11 12  3  0
 12 13  1  0
 13 14  1  0
 14 15  1  0
 15 16  2  0
 16 17  1  0
 17 18  2  0
 18 19  1  0
 18 20  1  0
 20 21  2  0
  3  4  2  0
  4  5  1  0
  5 22  1  0
 22 23  1  0
 23 24  1  0
 24 25  1  0
 25 26  1  0
 26 29  1  0
 29 30  1  0
 30 31  1  0
 29 32  1  0
 32 33  1  0
 26 27  1  0
 27 28  1  0
  5  6  2  0
  6  7  1  0
  6  1  1  0
 21 15  1  0
 28 23  1  0
  7  8  1  0
M  END
> <minimizedAffinity>
-7.22123

> <CNNscore>
0.9185845256

> <CNNaffinity>
5.4315733910

> <CNN_VS>
4.9893593788

> <CNNaffinity_variance>
1.0738129616

$$$$



 33 35  0  0  0  0  0  0  0  0999 V2000
   91.8900   93.6740  -43.6497 C   0  0  0  0  0  0  0  0  0  0  0  0
   91.9254   92.7624  -44.7109 C   0  0  0  0  0  0  0  0  0  0  0  0
   91.4747   93.1400  -45.9775 C   0  0  0  0  0  0  0  0  0  0  0  0
   90.9976   94.4323  -46.1884 C   0  0  0  0  0  0  0  0  0  0  0  0
   90.9624   95.3716  -45.1389 C   0  0  0  0  0  0  0  0  0  0  0  0
   91.4069   94.9767  -43.8679 C   0  0  0  0  0  0  0  0  0  0  0  0
   91.3491   95.9022  -42.8532 O   0  0  0  0  0  0  0  0  0  0  0  0
   91.0232   96.7641  -43.0232 H   0  0  0  0  0  0  0  0  0  0  0  0
   92.7370   92.8787  -41.2827 C   0  0  0  0  0  0  0  0  0  0  0  0
   92.3448   93.2420  -42.3596 C   0  0  0  0  0  0  0  0  0  0  0  0
   91.4794   92.1941  -47.0523 C   0  0  0  0  0  0  0  0  0  0  0  0
   91.4476   91.3878  -47.9433 C   0  0  0  0  0  0  0  0  0  0  0  0
   91.4096   90.3896  -49.0189 C   0  0  0  0  0  0  0  0  0  0  0  0
   90.1089   90.2964  -49.6056 O   0  0  0  0  0  0  0  0  0  0  0  0
   89.5769   89.0525  -49.8169 C   0  0  0  0  0  0  0  0  0  0  0  0
   90.1706   87.8305  -49.4872 C   0  0  0  0  0  0  0  0  0  0  0  0
   89.4985   86.6290  -49.7432 C   0  0  0  0  0  0  0  0  0  0  0  0
   88.2306   86.6582  -50.3144 C   0  0  0  0  0  0  0  0  0  0  0  0
   87.5807   85.5091  -50.5349 F   0  0  0  0  0  0  0  0  0  0  0  0
   87.6250   87.8656  -50.6473 C   0  0  0  0  0  0  0  0  0  0  0  0
   88.3028   89.0607  -50.3990 C   0  0  0  0  0  0  0  0  0  0  0  0
   90.4086   96.7537  -45.4103 C   0  0  0  0  0  0  0  0  0  0  0  0
   90.5978   97.6790  -44.2773 N   0  0  0  0  0  0  0  0  0  0  0  0
   89.3412   98.3458  -43.9063 C   0  0  0  0  0  0  0  0  0  0  0  0
   89.4873   99.8226  -43.5181 C   0  0  0  0  0  0  0  0  0  0  0  0
   90.7093  100.0541  -42.6126 C   0  0  0  0  0  0  0  0  0  0  0  0
   91.9670   99.4740  -43.3141 C   0  0  0  0  0  0  0  0  0  0  0  0
   91.6653   98.6351  -44.5559 C   0  0  0  0  0  0  0  0  0  0  0  0
   90.9525  101.4810  -42.2420 N   0  0  0  0  0  0  0  0  0  0  0  0
   92.3263  101.6876  -41.7306 C   0  0  0  0  0  0  0  0  0  0  0  0
   92.4441  101.4265  -40.2309 C   0  0  0  0  0  0  0  0  0  0  0  0
   89.9302  102.0900  -41.3683 C   0  0  0  0  0  0  0  0  0  0  0  0
   89.2560  103.3561  -41.8959 C   0  0  0  0  0  0  0  0  0  0  0  0
  9 10  3  0
 10  1  1  0
  1  2  2  0
  2  3  1  0
  3 11  1  0
 11 12  3  0
 12 13  1  0
 13 14  1  0
 14 15  1  0
 15 16  2  0
 16 17  1  0
 17 18  2  0
 18 19  1  0
 18 20  1  0
 20 21  2  0
  3  4  2  0
  4  5  1  0
  5 22  1  0
 22 23  1  0
 23 24  1  0
 24 25  1  0
 25 26  1  0
 26 29  1  0
 29 30  1  0
 30 31  1  0
 29 32  1  0
 32 33  1  0
 26 27  1  0
 27 28  1  0
  5  6  2  0
  6  7  1  0
  6  1  1  0
 21 15  1  0
 28 23  1  0
  7  8  1  0
M  END
> <minimizedAffinity>
-7.30612

> <CNNscore>
0.9123645425

> <CNNaffinity>
5.2812371254

> <CNN_VS>
4.8184132576

> <CNNaffinity_variance>
1.2344111204

$$$$



 33 35  0  0  0  0  0  0  0  0999 V2000
   91.7436   93.9635  -43.6515 C   0  0  0  0  0  0  0  0  0  0  0  0
   91.7971   93.0098  -44.6743 C   0  0  0  0  0  0  0  0  0  0  0  0
   91.4147   93.3501  -45.9736 C   0  0  0  0  0  0  0  0  0  0  0  0
   90.9882   94.6467  -46.2552 C   0  0  0  0  0  0  0  0  0  0  0  0
   90.9363   95.6274  -45.2451 C   0  0  0  0  0  0  0  0  0  0  0  0
   91.3118   95.2703  -43.9411 C   0  0  0  0  0  0  0  0  0  0  0  0
   91.2384   96.2366  -42.9663 O   0  0  0  0  0  0  0  0  0  0  0  0
   90.9475   97.1004  -43.1838 H   0  0  0  0  0  0  0  0  0  0  0  0
   92.4505   93.2511  -41.2133 C   0  0  0  0  0  0  0  0  0  0  0  0
   92.1273   93.5697  -42.3265 C   0  0  0  0  0  0  0  0  0  0  0  0
   91.4370   92.3626  -47.0100 C   0  0  0  0  0  0  0  0  0  0  0  0
   91.4277   91.5136  -47.8610 C   0  0  0  0  0  0  0  0  0  0  0  0
   91.4232   90.4649  -48.8881 C   0  0  0  0  0  0  0  0  0  0  0  0
   90.3072   90.5980  -49.7721 O   0  0  0  0  0  0  0  0  0  0  0  0
   89.6650   89.4619  -50.1866 C   0  0  0  0  0  0  0  0  0  0  0  0
   88.7363   89.3679  -51.2274 C   0  0  0  0  0  0  0  0  0  0  0  0
   88.1716   88.1300  -51.5579 C   0  0  0  0  0  0  0  0  0  0  0  0
   88.5499   86.9913  -50.8542 C   0  0  0  0  0  0  0  0  0  0  0  0
   88.0267   85.8057  -51.1890 F   0  0  0  0  0  0  0  0  0  0  0  0
   89.4736   87.0671  -49.8167 C   0  0  0  0  0  0  0  0  0  0  0  0
   90.0270   88.3051  -49.4845 C   0  0  0  0  0  0  0  0  0  0  0  0
   90.4387   97.0135  -45.5941 C   0  0  0  0  0  0  0  0  0  0  0  0
   89.1388   97.3286  -44.9723 N   0  0  0  0  0  0  0  0  0  0  0  0
   88.0299   97.1706  -45.9247 C   0  0  0  0  0  0  0  0  0  0  0  0
   86.9302   98.2342  -45.8132 C   0  0  0  0  0  0  0  0  0  0  0  0
   86.5713   98.5292  -44.3466 C   0  0  0  0  0  0  0  0  0  0  0  0
   87.8693   98.9022  -43.5807 C   0  0  0  0  0  0  0  0  0  0  0  0
   89.1573   98.6568  -44.3667 C   0  0  0  0  0  0  0  0  0  0  0  0
   85.5483   99.6014  -44.1559 N   0  0  0  0  0  0  0  0  0  0  0  0
   86.0381  100.6726  -43.2591 C   0  0  0  0  0  0  0  0  0  0  0  0
   85.2894  101.9898  -43.4481 C   0  0  0  0  0  0  0  0  0  0  0  0
   84.2001   99.1294  -43.7833 C   0  0  0  0  0  0  0  0  0  0  0  0
   83.1574   99.1085  -44.9006 C   0  0  0  0  0  0  0  0  0  0  0  0
  9 10  3  0
 10  1  1  0
  1  2  2  0
  2  3  1  0
  3 11  1  0
 11 12  3  0
 12 13  1  0
 13 14  1  0
 14 15  1  0
 15 16  2  0
 16 17  1  0
 17 18  2  0
 18 19  1  0
 18 20  1  0
 20 21  2  0
  3  4  2  0
  4  5  1  0
  5 22  1  0
 22 23  1  0
 23 24  1  0
 24 25  1  0
 25 26  1  0
 26 29  1  0
 29 30  1  0
 30 31  1  0
 29 32  1  0
 32 33  1  0
 26 27  1  0
 27 28  1  0
  5  6  2  0
  6  7  1  0
  6  1  1  0
 21 15  1  0
 28 23  1  0
  7  8  1  0
M  END
> <minimizedAffinity>
-7.03584

> <CNNscore>
0.8298283815

> <CNNaffinity>
5.0845685005

> <CNN_VS>
4.2193193436

> <CNNaffinity_variance>
1.2951329947

$$$$



 33 35  0  0  0  0  0  0  0  0999 V2000
   91.9538   93.7680  -43.5597 C   0  0  0  0  0  0  0  0  0  0  0  0
   92.0042   92.9032  -44.6588 C   0  0  0  0  0  0  0  0  0  0  0  0
   91.4643   93.2937  -45.8860 C   0  0  0  0  0  0  0  0  0  0  0  0
   90.8824   94.5529  -46.0198 C   0  0  0  0  0  0  0  0  0  0  0  0
   90.8295   95.4457  -44.9312 C   0  0  0  0  0  0  0  0  0  0  0  0
   91.3648   95.0373  -43.7001 C   0  0  0  0  0  0  0  0  0  0  0  0
   91.2887   95.9160  -42.6457 O   0  0  0  0  0  0  0  0  0  0  0  0
   90.8915   96.7564  -42.7639 H   0  0  0  0  0  0  0  0  0  0  0  0
   92.9743   92.9511  -41.2697 C   0  0  0  0  0  0  0  0  0  0  0  0
   92.5030   93.3226  -42.3115 C   0  0  0  0  0  0  0  0  0  0  0  0
   91.4860   92.3930  -46.9987 C   0  0  0  0  0  0  0  0  0  0  0  0
   91.4741   91.6172  -47.9169 C   0  0  0  0  0  0  0  0  0  0  0  0
   91.4648   90.6566  -49.0268 C   0  0  0  0  0  0  0  0  0  0  0  0
   90.3840   89.7276  -48.9107 O   0  0  0  0  0  0  0  0  0  0  0  0
   89.5805   89.5232  -50.0004 C   0  0  0  0  0  0  0  0  0  0  0  0
   88.8666   88.3581  -50.2966 C   0  0  0  0  0  0  0  0  0  0  0  0
   88.0628   88.2964  -51.4414 C   0  0  0  0  0  0  0  0  0  0  0  0
   87.9671   89.4054  -52.2755 C   0  0  0  0  0  0  0  0  0  0  0  0
   87.1785   89.3515  -53.3556 F   0  0  0  0  0  0  0  0  0  0  0  0
   88.6697   90.5728  -51.9947 C   0  0  0  0  0  0  0  0  0  0  0  0
   89.4774   90.6266  -50.8571 C   0  0  0  0  0  0  0  0  0  0  0  0
   90.1615   96.7909  -45.1181 C   0  0  0  0  0  0  0  0  0  0  0  0
   90.9867   97.7372  -45.8922 N   0  0  0  0  0  0  0  0  0  0  0  0
   92.2771   97.9936  -45.2360 C   0  0  0  0  0  0  0  0  0  0  0  0
   92.7599   99.4476  -45.3131 C   0  0  0  0  0  0  0  0  0  0  0  0
   92.5436  100.0448  -46.7143 C   0  0  0  0  0  0  0  0  0  0  0  0
   91.0517   99.8692  -47.1066 C   0  0  0  0  0  0  0  0  0  0  0  0
   90.2534   98.9703  -46.1623 C   0  0  0  0  0  0  0  0  0  0  0  0
   92.9343  101.4806  -46.8501 N   0  0  0  0  0  0  0  0  0  0  0  0
   92.2138  102.3382  -45.8822 C   0  0  0  0  0  0  0  0  0  0  0  0
   91.4822  103.4991  -46.5517 C   0  0  0  0  0  0  0  0  0  0  0  0
   92.8878  102.0211  -48.2230 C   0  0  0  0  0  0  0  0  0  0  0  0
   93.9913  101.5543  -49.1720 C   0  0  0  0  0  0  0  0  0  0  0  0
  9 10  3  0
 10  1  1  0
  1  2  2  0
  2  3  1  0
  3 11  1  0
 11 12  3  0
 12 13  1  0
 13 14  1  0
 14 15  1  0
 15 16  2  0
 16 17  1  0
 17 18  2  0
 18 19  1  0
 18 20  1  0
 20 21  2  0
  3  4  2  0
  4  5  1  0
  5 22  1  0
 22 23  1  0
 23 24  1  0
 24 25  1  0
 25 26  1  0
 26 29  1  0
 29 30  1  0
 30 31  1  0
 29 32  1  0
 32 33  1  0
 26 27  1  0
 27 28  1  0
  5  6  2  0
  6  7  1  0
  6  1  1  0
 21 15  1  0
 28 23  1  0
  7  8  1  0
M  END
> <minimizedAffinity>
-6.55931

> <CNNscore>
0.8102590442

> <CNNaffinity>
4.9850306511

> <CNN_VS>
4.0391659737

> <CNNaffinity_variance>
1.0828615427

$$$$



 33 35  0  0  0  0  0  0  0  0999 V2000
   91.7496   93.9819  -43.5068 C   0  0  0  0  0  0  0  0  0  0  0  0
   91.8455   92.9839  -44.4832 C   0  0  0  0  0  0  0  0  0  0  0  0
   91.4933   93.2586  -45.8063 C   0  0  0  0  0  0  0  0  0  0  0  0
   91.0547   94.5338  -46.1580 C   0  0  0  0  0  0  0  0  0  0  0  0
   90.9603   95.5583  -45.1955 C   0  0  0  0  0  0  0  0  0  0  0  0
   91.3057   95.2668  -43.8671 C   0  0  0  0  0  0  0  0  0  0  0  0
   91.1910   96.2749  -42.9397 O   0  0  0  0  0  0  0  0  0  0  0  0
   90.8928   97.1230  -43.2040 H   0  0  0  0  0  0  0  0  0  0  0  0
   92.4056   93.3713  -41.0270 C   0  0  0  0  0  0  0  0  0  0  0  0
   92.1032   93.6548  -42.1555 C   0  0  0  0  0  0  0  0  0  0  0  0
   91.5590   92.2258  -46.7956 C   0  0  0  0  0  0  0  0  0  0  0  0
   91.6197   91.3861  -47.6537 C   0  0  0  0  0  0  0  0  0  0  0  0
   91.6781   90.3671  -48.7087 C   0  0  0  0  0  0  0  0  0  0  0  0
   90.3710   89.9797  -49.1399 O   0  0  0  0  0  0  0  0  0  0  0  0
   89.8780   90.5241  -50.2956 C   0  0  0  0  0  0  0  0  0  0  0  0
   88.7455   90.0971  -50.9954 C   0  0  0  0  0  0  0  0  0  0  0  0
   88.3428   90.7648  -52.1584 C   0  0  0  0  0  0  0  0  0  0  0  0
   89.0675   91.8643  -52.6064 C   0  0  0  0  0  0  0  0  0  0  0  0
   88.6655   92.5155  -53.7045 F   0  0  0  0  0  0  0  0  0  0  0  0
   90.1959   92.3031  -51.9212 C   0  0  0  0  0  0  0  0  0  0  0  0
   90.5992   91.6284  -50.7673 C   0  0  0  0  0  0  0  0  0  0  0  0
   90.4510   96.9187  -45.6204 C   0  0  0  0  0  0  0  0  0  0  0  0
   89.1045   97.2153  -45.0965 N   0  0  0  0  0  0  0  0  0  0  0  0
   88.0881   97.1714  -46.1578 C   0  0  0  0  0  0  0  0  0  0  0  0
   87.0042   98.2519  -46.0549 C   0  0  0  0  0  0  0  0  0  0  0  0
   86.5136   98.4291  -44.6076 C   0  0  0  0  0  0  0  0  0  0  0  0
   87.7403   98.6978  -43.6946 C   0  0  0  0  0  0  0  0  0  0  0  0
   89.0919   98.4851  -44.3763 C   0  0  0  0  0  0  0  0  0  0  0  0
   85.4987   99.5092  -44.4183 N   0  0  0  0  0  0  0  0  0  0  0  0
   84.2208   98.9746  -43.8961 C   0  0  0  0  0  0  0  0  0  0  0  0
   83.7107   97.7775  -44.6948 C   0  0  0  0  0  0  0  0  0  0  0  0
   85.3024  100.4020  -45.5775 C   0  0  0  0  0  0  0  0  0  0  0  0
   85.0961  101.8835  -45.2635 C   0  0  0  0  0  0  0  0  0  0  0  0
  9 10  3  0
 10  1  1  0
  1  2  2  0
  2  3  1  0
  3 11  1  0
 11 12  3  0
 12 13  1  0
 13 14  1  0
 14 15  1  0
 15 16  2  0
 16 17  1  0
 17 18  2  0
 18 19  1  0
 18 20  1  0
 20 21  2  0
  3  4  2  0
  4  5  1  0
  5 22  1  0
 22 23  1  0
 23 24  1  0
 24 25  1  0
 25 26  1  0
 26 29  1  0
 29 30  1  0
 30 31  1  0
 29 32  1  0
 32 33  1  0
 26 27  1  0
 27 28  1  0
  5  6  2  0
  6  7  1  0
  6  1  1  0
 21 15  1  0
 28 23  1  0
  7  8  1  0
M  END
> <minimizedAffinity>
-6.95318

> <CNNscore>
0.8007863164

> <CNNaffinity>
5.0487041473

> <CNN_VS>
4.0429329872

> <CNNaffinity_variance>
1.2795689106

$$$$



 33 35  0  0  0  0  0  0  0  0999 V2000
   91.6612   94.0144  -43.6210 C   0  0  0  0  0  0  0  0  0  0  0  0
   91.7687   93.0207  -44.6006 C   0  0  0  0  0  0  0  0  0  0  0  0
   91.4652   93.3107  -45.9325 C   0  0  0  0  0  0  0  0  0  0  0  0
   91.0638   94.5967  -46.2894 C   0  0  0  0  0  0  0  0  0  0  0  0
   90.9588   95.6169  -45.3234 C   0  0  0  0  0  0  0  0  0  0  0  0
   91.2551   95.3102  -43.9866 C   0  0  0  0  0  0  0  0  0  0  0  0
   91.1306   96.3147  -43.0565 O   0  0  0  0  0  0  0  0  0  0  0  0
   90.8583   97.1702  -43.3244 H   0  0  0  0  0  0  0  0  0  0  0  0
   92.2236   93.3953  -41.1204 C   0  0  0  0  0  0  0  0  0  0  0  0
   91.9642   93.6718  -42.2612 C   0  0  0  0  0  0  0  0  0  0  0  0
   91.5422   92.2829  -46.9262 C   0  0  0  0  0  0  0  0  0  0  0  0
   91.5723   91.4059  -47.7478 C   0  0  0  0  0  0  0  0  0  0  0  0
   91.6110   90.3227  -48.7376 C   0  0  0  0  0  0  0  0  0  0  0  0
   91.1024   90.7481  -50.0045 O   0  0  0  0  0  0  0  0  0  0  0  0
   89.7604   90.6198  -50.2444 C   0  0  0  0  0  0  0  0  0  0  0  0
   88.9772   89.4902  -49.9886 C   0  0  0  0  0  0  0  0  0  0  0  0
   87.6048   89.5071  -50.2657 C   0  0  0  0  0  0  0  0  0  0  0  0
   87.0216   90.6588  -50.7838 C   0  0  0  0  0  0  0  0  0  0  0  0
   85.7052   90.6798  -51.0243 F   0  0  0  0  0  0  0  0  0  0  0  0
   87.7862   91.7918  -51.0429 C   0  0  0  0  0  0  0  0  0  0  0  0
   89.1561   91.7672  -50.7739 C   0  0  0  0  0  0  0  0  0  0  0  0
   90.4910   96.9900  -45.7552 C   0  0  0  0  0  0  0  0  0  0  0  0
   89.1690   97.3438  -45.2049 N   0  0  0  0  0  0  0  0  0  0  0  0
   88.1131   97.2416  -46.2227 C   0  0  0  0  0  0  0  0  0  0  0  0
   87.0481   98.3436  -46.1570 C   0  0  0  0  0  0  0  0  0  0  0  0
   86.6145   98.6295  -44.7089 C   0  0  0  0  0  0  0  0  0  0  0  0
   87.8778   98.9422  -43.8624 C   0  0  0  0  0  0  0  0  0  0  0  0
   89.2001   98.6609  -44.5762 C   0  0  0  0  0  0  0  0  0  0  0  0
   85.6216   99.7360  -44.5596 N   0  0  0  0  0  0  0  0  0  0  0  0
   86.1606  100.8495  -43.7465 C   0  0  0  0  0  0  0  0  0  0  0  0
   85.1735  101.3421  -42.6909 C   0  0  0  0  0  0  0  0  0  0  0  0
   84.2743   99.3212  -44.1214 C   0  0  0  0  0  0  0  0  0  0  0  0
   83.8733   97.8806  -44.4376 C   0  0  0  0  0  0  0  0  0  0  0  0
  9 10  3  0
 10  1  1  0
  1  2  2  0
  2  3  1  0
  3 11  1  0
 11 12  3  0
 12 13  1  0
 13 14  1  0
 14 15  1  0
 15 16  2  0
 16 17  1  0
 17 18  2  0
 18 19  1  0
 18 20  1  0
 20 21  2  0
  3  4  2  0
  4  5  1  0
  5 22  1  0
 22 23  1  0
 23 24  1  0
 24 25  1  0
 25 26  1  0
 26 29  1  0
 29 30  1  0
 30 31  1  0
 29 32  1  0
 32 33  1  0
 26 27  1  0
 27 28  1  0
  5  6  2  0
  6  7  1  0
  6  1  1  0
 21 15  1  0
 28 23  1  0
  7  8  1  0
M  END
> <minimizedAffinity>
-6.90636

> <CNNscore>
0.7452985644

> <CNNaffinity>
5.0202107430

> <CNN_VS>
3.7415559292

> <CNNaffinity_variance>
1.2070713043

$$$$



 33 35  0  0  0  0  0  0  0  0999 V2000
   89.5115   85.9141  -49.7431 C   0  0  0  0  0  0  0  0  0  0  0  0
   90.1729   87.0350  -49.2288 C   0  0  0  0  0  0  0  0  0  0  0  0
   89.7155   88.3201  -49.5280 C   0  0  0  0  0  0  0  0  0  0  0  0
   88.5902   88.4870  -50.3331 C   0  0  0  0  0  0  0  0  0  0  0  0
   87.9006   87.3742  -50.8536 C   0  0  0  0  0  0  0  0  0  0  0  0
   88.3768   86.0883  -50.5556 C   0  0  0  0  0  0  0  0  0  0  0  0
   87.7002   85.0160  -51.0863 O   0  0  0  0  0  0  0  0  0  0  0  0
   86.9466   85.1575  -51.6249 H   0  0  0  0  0  0  0  0  0  0  0  0
   90.4476   83.5159  -49.1734 C   0  0  0  0  0  0  0  0  0  0  0  0
   90.0234   84.6116  -49.4276 C   0  0  0  0  0  0  0  0  0  0  0  0
   90.4153   89.4651  -49.0292 C   0  0  0  0  0  0  0  0  0  0  0  0
   91.0252   90.4026  -48.5883 C   0  0  0  0  0  0  0  0  0  0  0  0
   91.7626   91.5441  -48.0335 C   0  0  0  0  0  0  0  0  0  0  0  0
   91.7150   91.5578  -46.6044 O   0  0  0  0  0  0  0  0  0  0  0  0
   91.5586   92.7607  -45.9691 C   0  0  0  0  0  0  0  0  0  0  0  0
   91.2152   93.9760  -46.5687 C   0  0  0  0  0  0  0  0  0  0  0  0
   91.0680   95.1296  -45.7888 C   0  0  0  0  0  0  0  0  0  0  0  0
   91.2516   95.0572  -44.4119 C   0  0  0  0  0  0  0  0  0  0  0  0
   91.0858   96.1563  -43.6664 F   0  0  0  0  0  0  0  0  0  0  0  0
   91.5922   93.8556  -43.7992 C   0  0  0  0  0  0  0  0  0  0  0  0
   91.7472   92.7099  -44.5820 C   0  0  0  0  0  0  0  0  0  0  0  0
   86.7010   87.6071  -51.7465 C   0  0  0  0  0  0  0  0  0  0  0  0
   85.4243   87.2677  -51.0904 N   0  0  0  0  0  0  0  0  0  0  0  0
   84.3015   87.3024  -52.0388 C   0  0  0  0  0  0  0  0  0  0  0  0
   83.0003   87.8859  -51.4735 C   0  0  0  0  0  0  0  0  0  0  0  0
   82.7154   87.3689  -50.0529 C   0  0  0  0  0  0  0  0  0  0  0  0
   83.9552   87.6501  -49.1617 C   0  0  0  0  0  0  0  0  0  0  0  0
   85.1896   88.1221  -49.9301 C   0  0  0  0  0  0  0  0  0  0  0  0
   81.4936   87.9419  -49.4114 N   0  0  0  0  0  0  0  0  0  0  0  0
   81.5890   87.9198  -47.9342 C   0  0  0  0  0  0  0  0  0  0  0  0
   81.3866   89.2977  -47.3084 C   0  0  0  0  0  0  0  0  0  0  0  0
   80.2102   87.3999  -49.8998 C   0  0  0  0  0  0  0  0  0  0  0  0
   79.8824   85.9641  -49.4912 C   0  0  0  0  0  0  0  0  0  0  0  0
  9 10  3  0
 10  1  1  0
  1  2  2  0
  2  3  1  0
  3 11  1  0
 11 12  3  0
 12 13  1  0
 13 14  1  0
 14 15  1  0
 15 16  2  0
 16 17  1  0
 17 18  2  0
 18 19  1  0
 18 20  1  0
 20 21  2  0
  3  4  2  0
  4  5  1  0
  5 22  1  0
 22 23  1  0
 23 24  1  0
 24 25  1  0
 25 26  1  0
 26 29  1  0
 29 30  1  0
 30 31  1  0
 29 32  1  0
 32 33  1  0
 26 27  1  0
 27 28  1  0
  5  6  2  0
  6  7  1  0
  6  1  1  0
 21 15  1  0
 28 23  1  0
  7  8  1  0
M  END
> <minimizedAffinity>
-5.45608

> <CNNscore>
0.5443873405

> <CNNaffinity>
4.3733196259

> <CNN_VS>
2.3807797432

> <CNNaffinity_variance>
1.5294824839

$$$$



 33 35  0  0  0  0  0  0  0  0999 V2000
   88.7269   90.9510  -52.4454 C   0  0  0  0  0  0  0  0  0  0  0  0
   89.6070   91.2993  -51.4146 C   0  0  0  0  0  0  0  0  0  0  0  0
   89.9203   90.3754  -50.4154 C   0  0  0  0  0  0  0  0  0  0  0  0
   89.3630   89.0985  -50.4504 C   0  0  0  0  0  0  0  0  0  0  0  0
   88.4833   88.7203  -51.4838 C   0  0  0  0  0  0  0  0  0  0  0  0
   88.1668   89.6613  -52.4755 C   0  0  0  0  0  0  0  0  0  0  0  0
   87.2938   89.2787  -53.4659 O   0  0  0  0  0  0  0  0  0  0  0  0
   86.9336   88.4137  -53.4645 H   0  0  0  0  0  0  0  0  0  0  0  0
   88.1648   92.7545  -54.2849 C   0  0  0  0  0  0  0  0  0  0  0  0
   88.4160   91.9342  -53.4427 C   0  0  0  0  0  0  0  0  0  0  0  0
   90.7933   90.7466  -49.3431 C   0  0  0  0  0  0  0  0  0  0  0  0
   91.5564   91.0581  -48.4680 C   0  0  0  0  0  0  0  0  0  0  0  0
   92.4963   91.4221  -47.4008 C   0  0  0  0  0  0  0  0  0  0  0  0
   91.8586   91.4416  -46.1211 O   0  0  0  0  0  0  0  0  0  0  0  0
   91.6633   92.6506  -45.5086 C   0  0  0  0  0  0  0  0  0  0  0  0
   91.6384   92.8870  -44.1309 C   0  0  0  0  0  0  0  0  0  0  0  0
   91.4491   94.1855  -43.6423 C   0  0  0  0  0  0  0  0  0  0  0  0
   91.2999   95.2416  -44.5352 C   0  0  0  0  0  0  0  0  0  0  0  0
   91.1440   96.4850  -44.0649 F   0  0  0  0  0  0  0  0  0  0  0  0
   91.3235   95.0239  -45.9090 C   0  0  0  0  0  0  0  0  0  0  0  0
   91.5031   93.7261  -46.3916 C   0  0  0  0  0  0  0  0  0  0  0  0
   87.8811   87.3319  -51.4625 C   0  0  0  0  0  0  0  0  0  0  0  0
   86.4795   87.3227  -51.0032 N   0  0  0  0  0  0  0  0  0  0  0  0
   85.5617   86.9015  -52.0717 C   0  0  0  0  0  0  0  0  0  0  0  0
   84.2333   87.6673  -52.1171 C   0  0  0  0  0  0  0  0  0  0  0  0
   83.6433   87.8659  -50.7103 C   0  0  0  0  0  0  0  0  0  0  0  0
   84.7137   88.5415  -49.8112 C   0  0  0  0  0  0  0  0  0  0  0  0
   86.1065   88.6155  -50.4369 C   0  0  0  0  0  0  0  0  0  0  0  0
   82.3774   88.6586  -50.6684 N   0  0  0  0  0  0  0  0  0  0  0  0
   82.4376   89.7336  -49.6524 C   0  0  0  0  0  0  0  0  0  0  0  0
   82.5166   89.1947  -48.2260 C   0  0  0  0  0  0  0  0  0  0  0  0
   81.1370   87.8637  -50.5728 C   0  0  0  0  0  0  0  0  0  0  0  0
   81.2236   86.4141  -51.0492 C   0  0  0  0  0  0  0  0  0  0  0  0
  9 10  3  0
 10  1  1  0
  1  2  2  0
  2  3  1  0
  3 11  1  0
 11 12  3  0
 12 13  1  0
 13 14  1  0
 14 15  1  0
 15 16  2  0
 16 17  1  0
 17 18  2  0
 18 19  1  0
 18 20  1  0
 20 21  2  0
  3  4  2  0
  4  5  1  0
  5 22  1  0
 22 23  1  0
 23 24  1  0
 24 25  1  0
 25 26  1  0
 26 29  1  0
 29 30  1  0
 30 31  1  0
 29 32  1  0
 32 33  1  0
 26 27  1  0
 27 28  1  0
  5  6  2  0
  6  7  1  0
  6  1  1  0
 21 15  1  0
 28 23  1  0
  7  8  1  0
M  END
> <minimizedAffinity>
-4.89814

> <CNNscore>
0.4542574286

> <CNNaffinity>
4.4179306030

> <CNN_VS>
2.0068778992

> <CNNaffinity_variance>
1.5010462999

$$$$



 33 35  0  0  0  0  0  0  0  0999 V2000
   89.4533   86.5186  -49.9718 C   0  0  0  0  0  0  0  0  0  0  0  0
   90.1659   87.5381  -49.3305 C   0  0  0  0  0  0  0  0  0  0  0  0
   89.7962   88.8731  -49.5076 C   0  0  0  0  0  0  0  0  0  0  0  0
   88.7075   89.1908  -50.3176 C   0  0  0  0  0  0  0  0  0  0  0  0
   87.9675   88.1817  -50.9649 C   0  0  0  0  0  0  0  0  0  0  0  0
   88.3559   86.8450  -50.7886 C   0  0  0  0  0  0  0  0  0  0  0  0
   87.6316   85.8763  -51.4417 O   0  0  0  0  0  0  0  0  0  0  0  0
   86.9044   86.1185  -51.9806 H   0  0  0  0  0  0  0  0  0  0  0  0
   90.2247   84.0238  -49.6067 C   0  0  0  0  0  0  0  0  0  0  0  0
   89.8758   85.1613  -49.7790 C   0  0  0  0  0  0  0  0  0  0  0  0
   90.5490   89.9157  -48.8783 C   0  0  0  0  0  0  0  0  0  0  0  0
   91.1976   90.7641  -48.3265 C   0  0  0  0  0  0  0  0  0  0  0  0
   91.9801   91.7973  -47.6372 C   0  0  0  0  0  0  0  0  0  0  0  0
   91.7070   91.8165  -46.2338 O   0  0  0  0  0  0  0  0  0  0  0  0
   91.5376   93.0284  -45.6194 C   0  0  0  0  0  0  0  0  0  0  0  0
   91.1990   94.2332  -46.2425 C   0  0  0  0  0  0  0  0  0  0  0  0
   91.0369   95.3981  -45.4827 C   0  0  0  0  0  0  0  0  0  0  0  0
   91.2009   95.3475  -44.1023 C   0  0  0  0  0  0  0  0  0  0  0  0
   91.0209   96.4574  -43.3763 F   0  0  0  0  0  0  0  0  0  0  0  0
   91.5365   94.1566  -43.4663 C   0  0  0  0  0  0  0  0  0  0  0  0
   91.7063   92.9996  -44.2291 C   0  0  0  0  0  0  0  0  0  0  0  0
   86.8113   88.5786  -51.8573 C   0  0  0  0  0  0  0  0  0  0  0  0
   85.6395   89.0548  -51.0983 N   0  0  0  0  0  0  0  0  0  0  0  0
   85.6931   90.5066  -50.8729 C   0  0  0  0  0  0  0  0  0  0  0  0
   85.2079   90.9608  -49.4904 C   0  0  0  0  0  0  0  0  0  0  0  0
   83.9266   90.2223  -49.0667 C   0  0  0  0  0  0  0  0  0  0  0  0
   84.1783   88.6931  -49.1597 C   0  0  0  0  0  0  0  0  0  0  0  0
   85.4867   88.3108  -49.8516 C   0  0  0  0  0  0  0  0  0  0  0  0
   83.4268   90.5684  -47.7018 N   0  0  0  0  0  0  0  0  0  0  0  0
   82.5601   91.7684  -47.7237 C   0  0  0  0  0  0  0  0  0  0  0  0
   81.0777   91.4243  -47.8475 C   0  0  0  0  0  0  0  0  0  0  0  0
   84.4603   90.6408  -46.6500 C   0  0  0  0  0  0  0  0  0  0  0  0
   84.3485   89.6182  -45.5197 C   0  0  0  0  0  0  0  0  0  0  0  0
  9 10  3  0
 10  1  1  0
  1  2  2  0
  2  3  1  0
  3 11  1  0
 11 12  3  0
 12 13  1  0
 13 14  1  0
 14 15  1  0
 15 16  2  0
 16 17  1  0
 17 18  2  0
 18 19  1  0
 18 20  1  0
 20 21  2  0
  3  4  2  0
  4  5  1  0
  5 22  1  0
 22 23  1  0
 23 24  1  0
 24 25  1  0
 25 26  1  0
 26 29  1  0
 29 30  1  0
 30 31  1  0
 29 32  1  0
 32 33  1  0
 26 27  1  0
 27 28  1  0
  5  6  2  0
  6  7  1  0
  6  1  1  0
 21 15  1  0
 28 23  1  0
  7  8  1  0
M  END
> <minimizedAffinity>
-6.14864

> <CNNscore>
0.4517456293

> <CNNaffinity>
4.7345485687

> <CNN_VS>
2.1388115883

> <CNNaffinity_variance>
1.5673049688

$$$$
