


 18 17  0  0  0  0  0  0  0  0999 V2000
   -1.5995   10.6197   18.6550 C   0  0  0  0  0  0  0  0  0  0  0  0
   -1.8032   11.9310   19.4201 C   0  0  0  0  0  0  0  0  0  0  0  0
   -1.8934   13.1955   18.5597 C   0  0  0  0  0  0  0  0  0  0  0  0
   -3.2221   13.4027   17.8263 C   0  0  0  0  0  0  0  0  0  0  0  0
   -3.5574   14.8528   17.4625 C   0  0  0  0  0  0  0  0  0  0  0  0
   -2.4449   15.8754   17.7133 C   0  0  0  0  0  0  0  0  0  0  0  0
   -2.9201   17.3267   17.6194 C   0  0  0  0  0  0  0  0  0  0  0  0
   -3.7321   18.7085   15.6739 C   0  0  0  0  0  0  0  0  0  0  0  0
   -3.9940   17.4888   16.5428 C   0  0  0  0  0  0  0  0  0  0  0  0
   -2.4716    9.4722   19.1714 C   0  0  0  0  0  0  0  0  0  0  0  0
   -2.0417    8.1339   18.5595 C   0  0  0  0  0  0  0  0  0  0  0  0
   -3.2106    7.3504   17.9405 C   0  0  0  0  0  0  0  0  0  0  0  0
   -3.0400    5.8040   17.7966 C   0  0  0  0  0  0  0  0  0  0  0  0
   -2.4404    5.2928   19.1222 C   0  0  0  0  0  0  0  0  0  0  0  0
   -4.4224    5.1422   17.6146 C   0  0  0  0  0  0  0  0  0  0  0  0
   -2.1129    5.4681   16.5954 C   0  0  0  0  0  0  0  0  0  0  0  0
   -2.3218    4.1126   15.9025 C   0  0  0  0  0  0  0  0  0  0  0  0
   -1.5110    2.9857   16.5281 C   0  0  0  0  0  0  0  0  0  0  0  0
  8  9  1  0
  9  7  1  0
  7  6  1  0
  6  5  1  0
  5  4  1  0
  4  3  1  0
  3  2  1  0
  2  1  1  0
  1 10  1  0
 10 11  1  0
 11 12  1  0
 12 13  1  0
 13 14  1  0
 13 15  1  0
 13 16  1  0
 16 17  1  0
 17 18  1  0
M  END
> <minimizedAffinity>
-6.18899

> <CNNscore>
0.8689671755

> <CNNaffinity>
6.1329970360

> <CNN_VS>
5.3293728828

> <CNNaffinity_variance>
0.5641042590

$$$$



 18 17  0  0  0  0  0  0  0  0999 V2000
   -1.9674    9.9097   17.4986 C   0  0  0  0  0  0  0  0  0  0  0  0
   -2.0454   11.2424   18.2497 C   0  0  0  0  0  0  0  0  0  0  0  0
   -3.3657   12.0074   18.1108 C   0  0  0  0  0  0  0  0  0  0  0  0
   -3.2390   13.4722   17.6814 C   0  0  0  0  0  0  0  0  0  0  0  0
   -2.0717   14.2452   18.3039 C   0  0  0  0  0  0  0  0  0  0  0  0
   -1.9710   15.7235   17.9156 C   0  0  0  0  0  0  0  0  0  0  0  0
   -2.8254   16.0932   16.7015 C   0  0  0  0  0  0  0  0  0  0  0  0
   -3.8018   18.3533   16.1604 C   0  0  0  0  0  0  0  0  0  0  0  0
   -3.8838   17.1351   17.0663 C   0  0  0  0  0  0  0  0  0  0  0  0
   -2.4611    8.7172   18.3222 C   0  0  0  0  0  0  0  0  0  0  0  0
   -1.6605    7.4515   17.9950 C   0  0  0  0  0  0  0  0  0  0  0  0
   -2.3976    6.5028   17.0356 C   0  0  0  0  0  0  0  0  0  0  0  0
   -2.5251    5.0061   17.4657 C   0  0  0  0  0  0  0  0  0  0  0  0
   -4.0253    4.7299   17.6923 C   0  0  0  0  0  0  0  0  0  0  0  0
   -2.0420    4.0920   16.3199 C   0  0  0  0  0  0  0  0  0  0  0  0
   -1.7044    4.7394   18.7582 C   0  0  0  0  0  0  0  0  0  0  0  0
   -0.2136    4.4076   18.5894 C   0  0  0  0  0  0  0  0  0  0  0  0
    0.6603    4.9851   19.6946 C   0  0  0  0  0  0  0  0  0  0  0  0
  8  9  1  0
  9  7  1  0
  7  6  1  0
  6  5  1  0
  5  4  1  0
  4  3  1  0
  3  2  1  0
  2  1  1  0
  1 10  1  0
 10 11  1  0
 11 12  1  0
 12 13  1  0
 13 14  1  0
 13 15  1  0
 13 16  1  0
 16 17  1  0
 17 18  1  0
M  END
> <minimizedAffinity>
-6.52447

> <CNNscore>
0.8613222837

> <CNNaffinity>
6.1103835106

> <CNN_VS>
5.2630095482

> <CNNaffinity_variance>
0.5840596557

$$$$



 18 17  0  0  0  0  0  0  0  0999 V2000
   -1.4194   10.2567   17.7323 C   0  0  0  0  0  0  0  0  0  0  0  0
   -1.9671   11.1011   18.8871 C   0  0  0  0  0  0  0  0  0  0  0  0
   -2.2167   12.5791   18.5698 C   0  0  0  0  0  0  0  0  0  0  0  0
   -3.4459   12.8709   17.7037 C   0  0  0  0  0  0  0  0  0  0  0  0
   -3.5816   14.3163   17.2139 C   0  0  0  0  0  0  0  0  0  0  0  0
   -2.3643   15.2154   17.4506 C   0  0  0  0  0  0  0  0  0  0  0  0
   -2.7314   16.6290   17.9067 C   0  0  0  0  0  0  0  0  0  0  0  0
   -3.6710   18.0774   16.0701 C   0  0  0  0  0  0  0  0  0  0  0  0
   -3.9986   17.1241   17.2083 C   0  0  0  0  0  0  0  0  0  0  0  0
   -2.0593    8.8691   17.6362 C   0  0  0  0  0  0  0  0  0  0  0  0
   -2.0584    8.1655   18.9982 C   0  0  0  0  0  0  0  0  0  0  0  0
   -1.2582    6.8528   18.9984 C   0  0  0  0  0  0  0  0  0  0  0  0
   -2.0704    5.5188   18.9504 C   0  0  0  0  0  0  0  0  0  0  0  0
   -2.8085    5.4905   17.5967 C   0  0  0  0  0  0  0  0  0  0  0  0
   -1.1018    4.3178   18.9882 C   0  0  0  0  0  0  0  0  0  0  0  0
   -3.0718    5.4485   20.1367 C   0  0  0  0  0  0  0  0  0  0  0  0
   -3.4386    4.0534   20.6664 C   0  0  0  0  0  0  0  0  0  0  0  0
   -4.7910    3.5584   20.1718 C   0  0  0  0  0  0  0  0  0  0  0  0
  8  9  1  0
  9  7  1  0
  7  6  1  0
  6  5  1  0
  5  4  1  0
  4  3  1  0
  3  2  1  0
  2  1  1  0
  1 10  1  0
 10 11  1  0
 11 12  1  0
 12 13  1  0
 13 14  1  0
 13 15  1  0
 13 16  1  0
 16 17  1  0
 17 18  1  0
M  END
> <minimizedAffinity>
-5.98283

> <CNNscore>
0.8465328217

> <CNNaffinity>
6.2793898582

> <CNN_VS>
5.3157095909

> <CNNaffinity_variance>
0.4098778069

$$$$



 18 17  0  0  0  0  0  0  0  0999 V2000
   -2.4679    9.4506   18.7853 C   0  0  0  0  0  0  0  0  0  0  0  0
   -3.0260   10.8414   18.4683 C   0  0  0  0  0  0  0  0  0  0  0  0
   -2.0186   11.9937   18.5378 C   0  0  0  0  0  0  0  0  0  0  0  0
   -2.5660   13.3741   18.1622 C   0  0  0  0  0  0  0  0  0  0  0  0
   -1.5873   14.5411   18.3282 C   0  0  0  0  0  0  0  0  0  0  0  0
   -2.1472   15.9295   18.0037 C   0  0  0  0  0  0  0  0  0  0  0  0
   -3.1421   15.9279   16.8414 C   0  0  0  0  0  0  0  0  0  0  0  0
   -3.7875   18.2585   16.1301 C   0  0  0  0  0  0  0  0  0  0  0  0
   -4.1622   17.0583   16.9847 C   0  0  0  0  0  0  0  0  0  0  0  0
   -1.9433    8.7100   17.5523 C   0  0  0  0  0  0  0  0  0  0  0  0
   -1.8437    7.2029   17.8148 C   0  0  0  0  0  0  0  0  0  0  0  0
   -1.1347    6.8665   19.1368 C   0  0  0  0  0  0  0  0  0  0  0  0
   -0.8364    5.3604   19.4266 C   0  0  0  0  0  0  0  0  0  0  0  0
   -1.1520    4.5828   18.1329 C   0  0  0  0  0  0  0  0  0  0  0  0
    0.6644    5.1770   19.7364 C   0  0  0  0  0  0  0  0  0  0  0  0
   -1.7033    4.8521   20.6120 C   0  0  0  0  0  0  0  0  0  0  0  0
   -3.2285    4.8648   20.4249 C   0  0  0  0  0  0  0  0  0  0  0  0
   -3.8985    3.5674   20.8567 C   0  0  0  0  0  0  0  0  0  0  0  0
  8  9  1  0
  9  7  1  0
  7  6  1  0
  6  5  1  0
  5  4  1  0
  4  3  1  0
  3  2  1  0
  2  1  1  0
  1 10  1  0
 10 11  1  0
 11 12  1  0
 12 13  1  0
 13 14  1  0
 13 15  1  0
 13 16  1  0
 16 17  1  0
 17 18  1  0
M  END
> <minimizedAffinity>
-6.47582

> <CNNscore>
0.8260185719

> <CNNaffinity>
6.1953845024

> <CNN_VS>
5.1175026894

> <CNNaffinity_variance>
0.5148116350

$$$$



 18 17  0  0  0  0  0  0  0  0999 V2000
   -2.0111    8.3663   17.8342 C   0  0  0  0  0  0  0  0  0  0  0  0
   -1.7131    9.8180   17.4468 C   0  0  0  0  0  0  0  0  0  0  0  0
   -2.2509   10.8856   18.4051 C   0  0  0  0  0  0  0  0  0  0  0  0
   -3.4459   11.6941   17.8907 C   0  0  0  0  0  0  0  0  0  0  0  0
   -3.2226   13.2057   17.7789 C   0  0  0  0  0  0  0  0  0  0  0  0
   -1.8781   13.7196   18.3025 C   0  0  0  0  0  0  0  0  0  0  0  0
   -1.6940   15.2286   18.1289 C   0  0  0  0  0  0  0  0  0  0  0  0
   -3.4429   16.8959   17.4109 C   0  0  0  0  0  0  0  0  0  0  0  0
   -2.5363   15.7587   16.9677 C   0  0  0  0  0  0  0  0  0  0  0  0
   -1.8949    8.1017   19.3377 C   0  0  0  0  0  0  0  0  0  0  0  0
   -2.2291    6.6426   19.6686 C   0  0  0  0  0  0  0  0  0  0  0  0
   -1.7630    5.6564   18.5852 C   0  0  0  0  0  0  0  0  0  0  0  0
   -0.5863    4.6953   18.9498 C   0  0  0  0  0  0  0  0  0  0  0  0
    0.7187    5.5005   18.7863 C   0  0  0  0  0  0  0  0  0  0  0  0
   -0.6999    4.2709   20.4293 C   0  0  0  0  0  0  0  0  0  0  0  0
   -0.5953    3.4479   18.0231 C   0  0  0  0  0  0  0  0  0  0  0  0
    0.7588    2.9635   17.4815 C   0  0  0  0  0  0  0  0  0  0  0  0
    0.6457    1.7324   16.5926 C   0  0  0  0  0  0  0  0  0  0  0  0
  8  9  1  0
  9  7  1  0
  7  6  1  0
  6  5  1  0
  5  4  1  0
  4  3  1  0
  3  2  1  0
  2  1  1  0
  1 10  1  0
 10 11  1  0
 11 12  1  0
 12 13  1  0
 13 14  1  0
 13 15  1  0
 13 16  1  0
 16 17  1  0
 17 18  1  0
M  END
> <minimizedAffinity>
-6.10064

> <CNNscore>
0.8121108413

> <CNNaffinity>
6.0031795502

> <CNN_VS>
4.8752470016

> <CNNaffinity_variance>
0.3539589345

$$$$



 18 17  0  0  0  0  0  0  0  0999 V2000
   -3.0004    9.4983   18.8043 C   0  0  0  0  0  0  0  0  0  0  0  0
   -3.8821   10.7317   19.0223 C   0  0  0  0  0  0  0  0  0  0  0  0
   -3.5050   11.9714   18.2046 C   0  0  0  0  0  0  0  0  0  0  0  0
   -2.0338   12.3911   18.2805 C   0  0  0  0  0  0  0  0  0  0  0  0
   -1.7833   13.8874   18.4944 C   0  0  0  0  0  0  0  0  0  0  0  0
   -2.6104   14.8319   17.6169 C   0  0  0  0  0  0  0  0  0  0  0  0
   -2.2238   16.3039   17.7748 C   0  0  0  0  0  0  0  0  0  0  0  0
   -4.1637   16.9364   16.2947 C   0  0  0  0  0  0  0  0  0  0  0  0
   -3.4385   17.2167   17.6012 C   0  0  0  0  0  0  0  0  0  0  0  0
   -2.9813    8.5446   20.0019 C   0  0  0  0  0  0  0  0  0  0  0  0
   -3.0537    7.0832   19.5446 C   0  0  0  0  0  0  0  0  0  0  0  0
   -2.6411    6.0871   20.6406 C   0  0  0  0  0  0  0  0  0  0  0  0
   -2.5328    4.5817   20.2365 C   0  0  0  0  0  0  0  0  0  0  0  0
   -1.2190    4.0473   20.8418 C   0  0  0  0  0  0  0  0  0  0  0  0
   -3.7003    3.7893   20.8618 C   0  0  0  0  0  0  0  0  0  0  0  0
   -2.5394    4.4316   18.6897 C   0  0  0  0  0  0  0  0  0  0  0  0
   -3.7415    3.7130   18.0573 C   0  0  0  0  0  0  0  0  0  0  0  0
   -4.7554    4.6663   17.4394 C   0  0  0  0  0  0  0  0  0  0  0  0
  8  9  1  0
  9  7  1  0
  7  6  1  0
  6  5  1  0
  5  4  1  0
  4  3  1  0
  3  2  1  0
  2  1  1  0
  1 10  1  0
 10 11  1  0
 11 12  1  0
 12 13  1  0
 13 14  1  0
 13 15  1  0
 13 16  1  0
 16 17  1  0
 17 18  1  0
M  END
> <minimizedAffinity>
-5.78588

> <CNNscore>
0.7926974893

> <CNNaffinity>
6.3986816406

> <CNN_VS>
5.0722188950

> <CNNaffinity_variance>
0.1537075043

$$$$



 18 17  0  0  0  0  0  0  0  0999 V2000
   -2.8750    7.5115   18.9624 C   0  0  0  0  0  0  0  0  0  0  0  0
   -2.7241    8.8568   18.2455 C   0  0  0  0  0  0  0  0  0  0  0  0
   -2.2849   10.0326   19.1241 C   0  0  0  0  0  0  0  0  0  0  0  0
   -3.2157   11.2490   19.1145 C   0  0  0  0  0  0  0  0  0  0  0  0
   -2.8751   12.3343   18.0880 C   0  0  0  0  0  0  0  0  0  0  0  0
   -1.7048   13.2521   18.4546 C   0  0  0  0  0  0  0  0  0  0  0  0
   -1.7312   14.5943   17.7207 C   0  0  0  0  0  0  0  0  0  0  0  0
   -3.0670   16.7239   17.5342 C   0  0  0  0  0  0  0  0  0  0  0  0
   -3.1249   15.2225   17.7662 C   0  0  0  0  0  0  0  0  0  0  0  0
   -1.6742    7.1527   19.8418 C   0  0  0  0  0  0  0  0  0  0  0  0
   -1.8257    5.7475   20.4358 C   0  0  0  0  0  0  0  0  0  0  0  0
   -1.5638    4.6292   19.4137 C   0  0  0  0  0  0  0  0  0  0  0  0
   -0.1997    3.8737   19.5124 C   0  0  0  0  0  0  0  0  0  0  0  0
    0.2586    3.5832   18.0690 C   0  0  0  0  0  0  0  0  0  0  0  0
    0.8554    4.7878   20.1705 C   0  0  0  0  0  0  0  0  0  0  0  0
   -0.3634    2.5587   20.3242 C   0  0  0  0  0  0  0  0  0  0  0  0
    0.8421    1.6069   20.3731 C   0  0  0  0  0  0  0  0  0  0  0  0
    0.5003    0.1814   19.9611 C   0  0  0  0  0  0  0  0  0  0  0  0
  8  9  1  0
  9  7  1  0
  7  6  1  0
  6  5  1  0
  5  4  1  0
  4  3  1  0
  3  2  1  0
  2  1  1  0
  1 10  1  0
 10 11  1  0
 11 12  1  0
 12 13  1  0
 13 14  1  0
 13 15  1  0
 13 16  1  0
 16 17  1  0
 17 18  1  0
M  END
> <minimizedAffinity>
-5.39001

> <CNNscore>
0.7856340408

> <CNNaffinity>
6.1838669777

> <CNN_VS>
4.8582563400

> <CNNaffinity_variance>
0.1149112880

$$$$



 18 17  0  0  0  0  0  0  0  0999 V2000
   -4.2919   10.9903   18.7858 C   0  0  0  0  0  0  0  0  0  0  0  0
   -3.4271   11.6757   17.7234 C   0  0  0  0  0  0  0  0  0  0  0  0
   -3.2895   13.1958   17.8576 C   0  0  0  0  0  0  0  0  0  0  0  0
   -1.9813   13.6884   18.4837 C   0  0  0  0  0  0  0  0  0  0  0  0
   -1.5333   15.0914   18.0614 C   0  0  0  0  0  0  0  0  0  0  0  0
   -2.4252   15.7923   17.0321 C   0  0  0  0  0  0  0  0  0  0  0  0
   -3.1224   17.0391   17.5798 C   0  0  0  0  0  0  0  0  0  0  0  0
   -3.7376   18.6777   15.7657 C   0  0  0  0  0  0  0  0  0  0  0  0
   -4.2187   17.5226   16.6294 C   0  0  0  0  0  0  0  0  0  0  0  0
   -3.4759   10.3007   19.8825 C   0  0  0  0  0  0  0  0  0  0  0  0
   -2.3789    9.4156   19.2799 C   0  0  0  0  0  0  0  0  0  0  0  0
   -2.9279    8.3318   18.3378 C   0  0  0  0  0  0  0  0  0  0  0  0
   -2.4425    6.8654   18.5731 C   0  0  0  0  0  0  0  0  0  0  0  0
   -3.5392    6.1550   19.3922 C   0  0  0  0  0  0  0  0  0  0  0  0
   -2.3138    6.1359   17.2191 C   0  0  0  0  0  0  0  0  0  0  0  0
   -1.0842    6.8562   19.3281 C   0  0  0  0  0  0  0  0  0  0  0  0
   -0.4287    5.4895   19.5810 C   0  0  0  0  0  0  0  0  0  0  0  0
    0.8937    5.3115   18.8475 C   0  0  0  0  0  0  0  0  0  0  0  0
  8  9  1  0
  9  7  1  0
  7  6  1  0
  6  5  1  0
  5  4  1  0
  4  3  1  0
  3  2  1  0
  2  1  1  0
  1 10  1  0
 10 11  1  0
 11 12  1  0
 12 13  1  0
 13 14  1  0
 13 15  1  0
 13 16  1  0
 16 17  1  0
 17 18  1  0
M  END
> <minimizedAffinity>
-6.85750

> <CNNscore>
0.7753407955

> <CNNaffinity>
6.3788475990

> <CNN_VS>
4.9457807541

> <CNNaffinity_variance>
0.6276723742

$$$$



 18 17  0  0  0  0  0  0  0  0999 V2000
   -1.9614    8.4436   17.9076 C   0  0  0  0  0  0  0  0  0  0  0  0
   -1.6545    9.8194   17.3082 C   0  0  0  0  0  0  0  0  0  0  0  0
   -1.8494   11.0129   18.2490 C   0  0  0  0  0  0  0  0  0  0  0  0
   -3.1853   11.7499   18.1140 C   0  0  0  0  0  0  0  0  0  0  0  0
   -3.0867   13.2408   17.7752 C   0  0  0  0  0  0  0  0  0  0  0  0
   -1.8202   13.9510   18.2629 C   0  0  0  0  0  0  0  0  0  0  0  0
   -1.8934   15.4747   18.1452 C   0  0  0  0  0  0  0  0  0  0  0  0
   -3.4154   17.3278   17.3683 C   0  0  0  0  0  0  0  0  0  0  0  0
   -2.9506   15.9008   17.1255 C   0  0  0  0  0  0  0  0  0  0  0  0
   -2.1185    8.4646   19.4304 C   0  0  0  0  0  0  0  0  0  0  0  0
   -2.8356    7.2046   19.9286 C   0  0  0  0  0  0  0  0  0  0  0  0
   -1.9249    5.9664   19.9638 C   0  0  0  0  0  0  0  0  0  0  0  0
   -2.5296    4.6178   19.4568 C   0  0  0  0  0  0  0  0  0  0  0  0
   -1.6880    4.1764   18.2423 C   0  0  0  0  0  0  0  0  0  0  0  0
   -2.3861    3.5389   20.5509 C   0  0  0  0  0  0  0  0  0  0  0  0
   -4.0224    4.8032   19.0669 C   0  0  0  0  0  0  0  0  0  0  0  0
   -4.5192    4.0669   17.8130 C   0  0  0  0  0  0  0  0  0  0  0  0
   -5.3203    2.8114   18.1301 C   0  0  0  0  0  0  0  0  0  0  0  0
  8  9  1  0
  9  7  1  0
  7  6  1  0
  6  5  1  0
  5  4  1  0
  4  3  1  0
  3  2  1  0
  2  1  1  0
  1 10  1  0
 10 11  1  0
 11 12  1  0
 12 13  1  0
 13 14  1  0
 13 15  1  0
 13 16  1  0
 16 17  1  0
 17 18  1  0
M  END
> <minimizedAffinity>
-5.90841

> <CNNscore>
0.7690192461

> <CNNaffinity>
6.3244895935

> <CNN_VS>
4.8636541367

> <CNNaffinity_variance>
0.1561347544

$$$$
