


 28 30  0  0  0  0  0  0  0  0999 V2000
  -36.7329   -3.0833    8.8551 C   0  0  0  0  0  0  0  0  0  0  0  0
  -37.0693   -4.0118    7.7328 C   0  0  0  0  0  0  0  0  0  0  0  0
  -38.2144   -4.0137    6.9508 C   0  0  0  0  0  0  0  0  0  0  0  0
  -38.1129   -5.0298    6.0360 N   0  0  0  0  0  0  0  0  0  0  0  0
  -36.9313   -5.7031    6.2136 C   0  0  0  0  0  0  0  0  0  0  0  0
  -36.3704   -6.7917    5.5661 C   0  0  0  0  0  0  0  0  0  0  0  0
  -36.9524   -7.4225    4.4769 N   0  0  0  0  0  0  0  0  0  0  0  0
  -35.1958   -7.2513    6.0139 N   0  0  0  0  0  0  0  0  0  0  0  0
  -34.6394   -6.6130    7.0589 C   0  0  0  0  0  0  0  0  0  0  0  0
  -33.1382   -7.2458    7.5871 Cl  0  0  0  0  0  0  0  0  0  0  0  0
  -35.0886   -5.5531    7.7430 N   0  0  0  0  0  0  0  0  0  0  0  0
  -36.2743   -5.1040    7.2791 C   0  0  0  0  0  0  0  0  0  0  0  0
  -38.7883   -5.2444    5.3527 H   0  0  0  0  0  0  0  0  0  0  0  0
  -37.8161   -7.1045    4.1275 H   0  0  0  0  0  0  0  0  0  0  0  0
  -36.5019   -8.1884    4.0531 H   0  0  0  0  0  0  0  0  0  0  0  0
  -35.1569   -0.3578    6.9769 C   0  0  0  0  0  0  0  0  0  0  0  0
  -35.5860   -1.8133    7.1267 C   0  0  0  0  0  0  0  0  0  0  0  0
  -36.4139   -1.7552    8.3302 N   0  0  0  0  0  0  0  0  0  0  0  0
  -35.6978   -0.8826    9.2776 C   0  0  0  0  0  0  0  0  0  0  0  0
  -34.7926    0.0138    8.4152 C   0  0  0  0  0  0  0  0  0  0  0  0
  -35.0193    1.3934    8.6684 O   0  0  0  0  0  0  0  0  0  0  0  0
  -35.9498    1.6053    8.4948 H   0  0  0  0  0  0  0  0  0  0  0  0
  -34.0222   -0.1997    5.9677 C   0  0  0  0  0  0  0  0  0  0  0  0
  -34.5472   -0.4002    4.2287 S   0  0  0  0  0  0  0  0  0  0  0  0
  -34.5201    1.3466    3.6982 C   0  0  0  0  0  0  0  0  0  0  0  0
  -33.4689    1.6072    2.6164 C   0  0  0  0  0  0  0  0  0  0  0  0
  -35.3307    2.5292    1.1294 C   0  0  0  0  0  0  0  0  0  0  0  0
  -33.8618    2.6003    1.5171 C   0  0  0  0  0  0  0  0  0  0  0  0
 27 28  1  0
 28 26  1  0
 26 25  1  0
 25 24  1  0
 24 23  1  0
 16 23  1  0
 16 17  1  0
 17 18  1  0
 18  1  1  0
  1  2  1  0
  2  3  2  0
  3  4  1  0
  4  5  1  0
  5  6  2  0
  6  7  1  0
  6  8  1  0
  8  9  2  0
  9 10  1  0
  9 11  1  0
 11 12  2  0
 18 19  1  0
 19 20  1  0
 20 21  1  0
 20 16  1  0
 12  2  1  0
 12  5  1  0
  4 13  1  0
  7 14  1  0
  7 15  1  0
 21 22  1  0
M  END
> <minimizedAffinity>
-9.28526

> <CNNscore>
0.9935528636

> <CNNaffinity>
9.0998163223

> <CNN_VS>
9.0411481857

> <CNNaffinity_variance>
0.1488323212

$$$$



 28 30  0  0  0  0  0  0  0  0999 V2000
  -34.2433   -0.4358    4.5072 C   0  0  0  0  0  0  0  0  0  0  0  0
  -34.6906   -0.3216    5.9290 C   0  0  0  0  0  0  0  0  0  0  0  0
  -34.3015    0.6247    6.8649 C   0  0  0  0  0  0  0  0  0  0  0  0
  -34.9553    0.3650    8.0416 N   0  0  0  0  0  0  0  0  0  0  0  0
  -35.7527   -0.7417    7.8995 C   0  0  0  0  0  0  0  0  0  0  0  0
  -36.5918   -1.4071    8.7782 C   0  0  0  0  0  0  0  0  0  0  0  0
  -36.8297   -0.9904   10.0792 N   0  0  0  0  0  0  0  0  0  0  0  0
  -37.2134   -2.5084    8.3399 N   0  0  0  0  0  0  0  0  0  0  0  0
  -36.9838   -2.8841    7.0690 C   0  0  0  0  0  0  0  0  0  0  0  0
  -37.8061   -4.2994    6.5651 Cl  0  0  0  0  0  0  0  0  0  0  0  0
  -36.2078   -2.3096    6.1412 N   0  0  0  0  0  0  0  0  0  0  0  0
  -35.5877   -1.2019    6.6007 C   0  0  0  0  0  0  0  0  0  0  0  0
  -34.8656    0.8947    8.8666 H   0  0  0  0  0  0  0  0  0  0  0  0
  -36.3852   -0.1835   10.4267 H   0  0  0  0  0  0  0  0  0  0  0  0
  -37.4430   -1.5013   10.6554 H   0  0  0  0  0  0  0  0  0  0  0  0
  -34.9306    2.3742    2.2552 C   0  0  0  0  0  0  0  0  0  0  0  0
  -35.3515    1.1024    2.9835 C   0  0  0  0  0  0  0  0  0  0  0  0
  -34.2177    0.8864    3.8806 N   0  0  0  0  0  0  0  0  0  0  0  0
  -33.0081    1.1586    3.0840 C   0  0  0  0  0  0  0  0  0  0  0  0
  -33.4602    2.0891    1.9455 C   0  0  0  0  0  0  0  0  0  0  0  0
  -32.6962    3.2863    1.9063 O   0  0  0  0  0  0  0  0  0  0  0  0
  -32.7744    3.7477    2.7560 H   0  0  0  0  0  0  0  0  0  0  0  0
  -35.8023    2.6443    1.0312 C   0  0  0  0  0  0  0  0  0  0  0  0
  -36.3667    4.3771    0.8941 S   0  0  0  0  0  0  0  0  0  0  0  0
  -38.1127    4.0947    0.4413 C   0  0  0  0  0  0  0  0  0  0  0  0
  -38.9996    3.8663    1.6680 C   0  0  0  0  0  0  0  0  0  0  0  0
  -41.2692    4.6531    0.7978 C   0  0  0  0  0  0  0  0  0  0  0  0
  -40.4626    3.5062    1.3869 C   0  0  0  0  0  0  0  0  0  0  0  0
 27 28  1  0
 28 26  1  0
 26 25  1  0
 25 24  1  0
 24 23  1  0
 16 23  1  0
 16 17  1  0
 17 18  1  0
 18  1  1  0
  1  2  1  0
  2  3  2  0
  3  4  1  0
  4  5  1  0
  5  6  2  0
  6  7  1  0
  6  8  1  0
  8  9  2  0
  9 10  1  0
  9 11  1  0
 11 12  2  0
 18 19  1  0
 19 20  1  0
 20 21  1  0
 20 16  1  0
 12  2  1  0
 12  5  1  0
  4 13  1  0
  7 14  1  0
  7 15  1  0
 21 22  1  0
M  END
> <minimizedAffinity>
-7.02678

> <CNNscore>
0.3301916718

> <CNNaffinity>
6.5677437782

> <CNN_VS>
2.1686143875

> <CNNaffinity_variance>
0.2069894522

$$$$



 28 30  0  0  0  0  0  0  0  0999 V2000
  -34.2392   -0.4312    4.5078 C   0  0  0  0  0  0  0  0  0  0  0  0
  -34.6879   -0.3216    5.9296 C   0  0  0  0  0  0  0  0  0  0  0  0
  -34.2999    0.6219    6.8688 C   0  0  0  0  0  0  0  0  0  0  0  0
  -34.9547    0.3583    8.0441 N   0  0  0  0  0  0  0  0  0  0  0  0
  -35.7515   -0.7483    7.8979 C   0  0  0  0  0  0  0  0  0  0  0  0
  -36.5911   -1.4168    8.7738 C   0  0  0  0  0  0  0  0  0  0  0  0
  -36.8303   -1.0041   10.0759 N   0  0  0  0  0  0  0  0  0  0  0  0
  -37.2119   -2.5169    8.3314 N   0  0  0  0  0  0  0  0  0  0  0  0
  -36.9811   -2.8885    7.0596 C   0  0  0  0  0  0  0  0  0  0  0  0
  -37.8024   -4.3026    6.5505 Cl  0  0  0  0  0  0  0  0  0  0  0  0
  -36.2044   -2.3108    6.1343 N   0  0  0  0  0  0  0  0  0  0  0  0
  -35.5851   -1.2043    6.5978 C   0  0  0  0  0  0  0  0  0  0  0  0
  -34.8659    0.8854    8.8708 H   0  0  0  0  0  0  0  0  0  0  0  0
  -36.3864   -0.1982   10.4263 H   0  0  0  0  0  0  0  0  0  0  0  0
  -37.4440   -1.5171   10.6499 H   0  0  0  0  0  0  0  0  0  0  0  0
  -34.9331    2.3829    2.2630 C   0  0  0  0  0  0  0  0  0  0  0  0
  -35.3511    1.1085    2.9882 C   0  0  0  0  0  0  0  0  0  0  0  0
  -34.2165    0.8926    3.8845 N   0  0  0  0  0  0  0  0  0  0  0  0
  -33.0078    1.1693    3.0882 C   0  0  0  0  0  0  0  0  0  0  0  0
  -33.4622    2.1016    1.9521 C   0  0  0  0  0  0  0  0  0  0  0  0
  -32.7006    3.3005    1.9157 O   0  0  0  0  0  0  0  0  0  0  0  0
  -32.7796    3.7597    2.7665 H   0  0  0  0  0  0  0  0  0  0  0  0
  -35.8056    2.6542    1.0399 C   0  0  0  0  0  0  0  0  0  0  0  0
  -35.7772    4.3949    0.4836 S   0  0  0  0  0  0  0  0  0  0  0  0
  -35.9489    4.1430   -1.3165 C   0  0  0  0  0  0  0  0  0  0  0  0
  -34.7073    3.4920   -1.9314 C   0  0  0  0  0  0  0  0  0  0  0  0
  -32.6892    4.9988   -2.3609 C   0  0  0  0  0  0  0  0  0  0  0  0
  -33.3544    4.0028   -1.4235 C   0  0  0  0  0  0  0  0  0  0  0  0
 27 28  1  0
 28 26  1  0
 26 25  1  0
 25 24  1  0
 24 23  1  0
 16 23  1  0
 16 17  1  0
 17 18  1  0
 18  1  1  0
  1  2  1  0
  2  3  2  0
  3  4  1  0
  4  5  1  0
  5  6  2  0
  6  7  1  0
  6  8  1  0
  8  9  2  0
  9 10  1  0
  9 11  1  0
 11 12  2  0
 18 19  1  0
 19 20  1  0
 20 21  1  0
 20 16  1  0
 12  2  1  0
 12  5  1  0
  4 13  1  0
  7 14  1  0
  7 15  1  0
 21 22  1  0
M  END
> <minimizedAffinity>
-6.83913

> <CNNscore>
0.2425473332

> <CNNaffinity>
6.4876480103

> <CNN_VS>
1.5735616684

> <CNNaffinity_variance>
0.3066386282

$$$$



 28 30  0  0  0  0  0  0  0  0999 V2000
  -34.2103   -0.5657    4.3170 C   0  0  0  0  0  0  0  0  0  0  0  0
  -34.3514   -0.5406    5.8050 C   0  0  0  0  0  0  0  0  0  0  0  0
  -33.5855    0.1714    6.7155 C   0  0  0  0  0  0  0  0  0  0  0  0
  -34.0568   -0.0895    7.9762 N   0  0  0  0  0  0  0  0  0  0  0  0
  -35.1059   -0.9704    7.9106 C   0  0  0  0  0  0  0  0  0  0  0  0
  -35.9044   -1.5459    8.8854 C   0  0  0  0  0  0  0  0  0  0  0  0
  -35.7959   -1.2577   10.2375 N   0  0  0  0  0  0  0  0  0  0  0  0
  -36.8384   -2.4215    8.4951 N   0  0  0  0  0  0  0  0  0  0  0  0
  -36.9396   -2.6720    7.1775 C   0  0  0  0  0  0  0  0  0  0  0  0
  -38.1514   -3.7999    6.7386 Cl  0  0  0  0  0  0  0  0  0  0  0  0
  -36.2317   -2.1646    6.1604 N   0  0  0  0  0  0  0  0  0  0  0  0
  -35.2938   -1.2851    6.5721 C   0  0  0  0  0  0  0  0  0  0  0  0
  -33.6956    0.2982    8.8059 H   0  0  0  0  0  0  0  0  0  0  0  0
  -35.1173   -0.6172   10.5514 H   0  0  0  0  0  0  0  0  0  0  0  0
  -36.3974   -1.6937   10.8835 H   0  0  0  0  0  0  0  0  0  0  0  0
  -34.9328    2.3982    2.2839 C   0  0  0  0  0  0  0  0  0  0  0  0
  -35.3396    1.0726    2.9181 C   0  0  0  0  0  0  0  0  0  0  0  0
  -34.1986    0.7995    3.7902 N   0  0  0  0  0  0  0  0  0  0  0  0
  -32.9961    1.1397    3.0092 C   0  0  0  0  0  0  0  0  0  0  0  0
  -33.4623    2.1486    1.9455 C   0  0  0  0  0  0  0  0  0  0  0  0
  -32.7075    3.3514    1.9910 O   0  0  0  0  0  0  0  0  0  0  0  0
  -32.7839    3.7478    2.8730 H   0  0  0  0  0  0  0  0  0  0  0  0
  -35.8142    2.7515    1.0884 C   0  0  0  0  0  0  0  0  0  0  0  0
  -36.7822    4.2855    1.3119 S   0  0  0  0  0  0  0  0  0  0  0  0
  -35.4558    5.4032    1.8822 C   0  0  0  0  0  0  0  0  0  0  0  0
  -36.0089    6.6782    2.5240 C   0  0  0  0  0  0  0  0  0  0  0  0
  -35.1631    7.6292    4.7394 C   0  0  0  0  0  0  0  0  0  0  0  0
  -34.9878    7.5776    3.2295 C   0  0  0  0  0  0  0  0  0  0  0  0
 27 28  1  0
 28 26  1  0
 26 25  1  0
 25 24  1  0
 24 23  1  0
 16 23  1  0
 16 17  1  0
 17 18  1  0
 18  1  1  0
  1  2  1  0
  2  3  2  0
  3  4  1  0
  4  5  1  0
  5  6  2  0
  6  7  1  0
  6  8  1  0
  8  9  2  0
  9 10  1  0
  9 11  1  0
 11 12  2  0
 18 19  1  0
 19 20  1  0
 20 21  1  0
 20 16  1  0
 12  2  1  0
 12  5  1  0
  4 13  1  0
  7 14  1  0
  7 15  1  0
 21 22  1  0
M  END
> <minimizedAffinity>
-6.53673

> <CNNscore>
0.2332509756

> <CNNaffinity>
6.5977439880

> <CNN_VS>
1.5389301777

> <CNNaffinity_variance>
0.1481388062

$$$$



 28 30  0  0  0  0  0  0  0  0999 V2000
  -33.1880   -0.3670    5.1970 C   0  0  0  0  0  0  0  0  0  0  0  0
  -34.1526   -0.4164    6.3381 C   0  0  0  0  0  0  0  0  0  0  0  0
  -34.5909    0.6404    7.1216 C   0  0  0  0  0  0  0  0  0  0  0  0
  -35.4737    0.1539    8.0509 N   0  0  0  0  0  0  0  0  0  0  0  0
  -35.6100   -1.2026    7.9018 C   0  0  0  0  0  0  0  0  0  0  0  0
  -36.3597   -2.1464    8.5845 C   0  0  0  0  0  0  0  0  0  0  0  0
  -37.2323   -1.8357    9.6165 N   0  0  0  0  0  0  0  0  0  0  0  0
  -36.2395   -3.4280    8.2179 N   0  0  0  0  0  0  0  0  0  0  0  0
  -35.4025   -3.7051    7.2021 C   0  0  0  0  0  0  0  0  0  0  0  0
  -35.2901   -5.3607    6.7783 Cl  0  0  0  0  0  0  0  0  0  0  0  0
  -34.6475   -2.8731    6.4736 N   0  0  0  0  0  0  0  0  0  0  0  0
  -34.7799   -1.5856    6.8577 C   0  0  0  0  0  0  0  0  0  0  0  0
  -35.9406    0.6979    8.7256 H   0  0  0  0  0  0  0  0  0  0  0  0
  -37.3396   -0.9008    9.9058 H   0  0  0  0  0  0  0  0  0  0  0  0
  -37.7446   -2.5500   10.0599 H   0  0  0  0  0  0  0  0  0  0  0  0
  -33.7549    1.6832    2.2111 C   0  0  0  0  0  0  0  0  0  0  0  0
  -32.8484    0.8765    3.1343 C   0  0  0  0  0  0  0  0  0  0  0  0
  -33.8197    0.2529    4.0316 N   0  0  0  0  0  0  0  0  0  0  0  0
  -34.8051    1.2988    4.3583 C   0  0  0  0  0  0  0  0  0  0  0  0
  -34.7368    2.3109    3.2018 C   0  0  0  0  0  0  0  0  0  0  0  0
  -36.0102    2.5217    2.6079 O   0  0  0  0  0  0  0  0  0  0  0  0
  -36.3591    1.6771    2.2827 H   0  0  0  0  0  0  0  0  0  0  0  0
  -32.9658    2.6839    1.3703 C   0  0  0  0  0  0  0  0  0  0  0  0
  -33.9426    4.1338    0.8378 S   0  0  0  0  0  0  0  0  0  0  0  0
  -34.4751    3.5548   -0.8098 C   0  0  0  0  0  0  0  0  0  0  0  0
  -35.7570    4.2467   -1.2806 C   0  0  0  0  0  0  0  0  0  0  0  0
  -37.7968    4.0938   -2.8113 C   0  0  0  0  0  0  0  0  0  0  0  0
  -36.8154    3.3439   -1.9239 C   0  0  0  0  0  0  0  0  0  0  0  0
 27 28  1  0
 28 26  1  0
 26 25  1  0
 25 24  1  0
 24 23  1  0
 16 23  1  0
 16 17  1  0
 17 18  1  0
 18  1  1  0
  1  2  1  0
  2  3  2  0
  3  4  1  0
  4  5  1  0
  5  6  2  0
  6  7  1  0
  6  8  1  0
  8  9  2  0
  9 10  1  0
  9 11  1  0
 11 12  2  0
 18 19  1  0
 19 20  1  0
 20 21  1  0
 20 16  1  0
 12  2  1  0
 12  5  1  0
  4 13  1  0
  7 14  1  0
  7 15  1  0
 21 22  1  0
M  END
> <minimizedAffinity>
-5.74510

> <CNNscore>
0.2082953602

> <CNNaffinity>
5.9048423767

> <CNN_VS>
1.2299512625

> <CNNaffinity_variance>
0.4949065149

$$$$



 28 30  0  0  0  0  0  0  0  0999 V2000
  -37.7054    5.0563    1.1890 C   0  0  0  0  0  0  0  0  0  0  0  0
  -38.8273    4.9440    0.2074 C   0  0  0  0  0  0  0  0  0  0  0  0
  -38.7464    4.6045   -1.1346 C   0  0  0  0  0  0  0  0  0  0  0  0
  -40.0120    4.6162   -1.6617 N   0  0  0  0  0  0  0  0  0  0  0  0
  -40.9181    4.9719   -0.6956 C   0  0  0  0  0  0  0  0  0  0  0  0
  -42.2933    5.1360   -0.7203 C   0  0  0  0  0  0  0  0  0  0  0  0
  -43.0770    4.8937   -1.8384 N   0  0  0  0  0  0  0  0  0  0  0  0
  -42.8971    5.5422    0.4030 N   0  0  0  0  0  0  0  0  0  0  0  0
  -42.1210    5.7528    1.4812 C   0  0  0  0  0  0  0  0  0  0  0  0
  -42.9489    6.2710    2.8881 Cl  0  0  0  0  0  0  0  0  0  0  0  0
  -40.7958    5.6129    1.6133 N   0  0  0  0  0  0  0  0  0  0  0  0
  -40.2034    5.2045    0.4710 C   0  0  0  0  0  0  0  0  0  0  0  0
  -40.2370    4.4011   -2.5957 H   0  0  0  0  0  0  0  0  0  0  0  0
  -42.6581    4.5941   -2.6775 H   0  0  0  0  0  0  0  0  0  0  0  0
  -44.0521    5.0212   -1.7932 H   0  0  0  0  0  0  0  0  0  0  0  0
  -34.6622    3.0340    0.8894 C   0  0  0  0  0  0  0  0  0  0  0  0
  -36.0447    3.3022    1.4741 C   0  0  0  0  0  0  0  0  0  0  0  0
  -36.5018    4.4208    0.6514 N   0  0  0  0  0  0  0  0  0  0  0  0
  -35.3468    5.3254    0.5127 C   0  0  0  0  0  0  0  0  0  0  0  0
  -34.1026    4.4495    0.7395 C   0  0  0  0  0  0  0  0  0  0  0  0
  -33.1908    4.5351   -0.3468 O   0  0  0  0  0  0  0  0  0  0  0  0
  -33.6362    4.2644   -1.1648 H   0  0  0  0  0  0  0  0  0  0  0  0
  -33.8365    2.1099    1.7811 C   0  0  0  0  0  0  0  0  0  0  0  0
  -34.5797    1.8102    3.4236 S   0  0  0  0  0  0  0  0  0  0  0  0
  -33.6747    0.2968    3.8967 C   0  0  0  0  0  0  0  0  0  0  0  0
  -34.6063   -0.7888    4.4417 C   0  0  0  0  0  0  0  0  0  0  0  0
  -35.6509   -1.8426    6.5216 C   0  0  0  0  0  0  0  0  0  0  0  0
  -35.1403   -0.5710    5.8618 C   0  0  0  0  0  0  0  0  0  0  0  0
 27 28  1  0
 28 26  1  0
 26 25  1  0
 25 24  1  0
 24 23  1  0
 16 23  1  0
 16 17  1  0
 17 18  1  0
 18  1  1  0
  1  2  1  0
  2  3  2  0
  3  4  1  0
  4  5  1  0
  5  6  2  0
  6  7  1  0
  6  8  1  0
  8  9  2  0
  9 10  1  0
  9 11  1  0
 11 12  2  0
 18 19  1  0
 19 20  1  0
 20 21  1  0
 20 16  1  0
 12  2  1  0
 12  5  1  0
  4 13  1  0
  7 14  1  0
  7 15  1  0
 21 22  1  0
M  END
> <minimizedAffinity>
-5.74845

> <CNNscore>
0.1930998564

> <CNNaffinity>
5.3017983437

> <CNN_VS>
1.0237765312

> <CNNaffinity_variance>
0.5057313442

$$$$



 28 30  0  0  0  0  0  0  0  0999 V2000
  -35.2106   -0.3112    3.8803 C   0  0  0  0  0  0  0  0  0  0  0  0
  -34.4351    0.7774    3.2108 C   0  0  0  0  0  0  0  0  0  0  0  0
  -33.0846    1.0608    3.3471 C   0  0  0  0  0  0  0  0  0  0  0  0
  -32.7853    2.1375    2.5529 N   0  0  0  0  0  0  0  0  0  0  0  0
  -33.9160    2.5747    1.9115 C   0  0  0  0  0  0  0  0  0  0  0  0
  -34.1439    3.6145    1.0251 C   0  0  0  0  0  0  0  0  0  0  0  0
  -33.1460    4.4503    0.5471 N   0  0  0  0  0  0  0  0  0  0  0  0
  -35.3976    3.8142    0.6012 N   0  0  0  0  0  0  0  0  0  0  0  0
  -36.3469    2.9803    1.0620 C   0  0  0  0  0  0  0  0  0  0  0  0
  -37.9304    3.2849    0.4851 Cl  0  0  0  0  0  0  0  0  0  0  0  0
  -36.2314    1.9454    1.9039 N   0  0  0  0  0  0  0  0  0  0  0  0
  -34.9614    1.7596    2.3225 C   0  0  0  0  0  0  0  0  0  0  0  0
  -31.8910    2.5378    2.4572 H   0  0  0  0  0  0  0  0  0  0  0  0
  -32.2153    4.3251    0.8429 H   0  0  0  0  0  0  0  0  0  0  0  0
  -33.3681    5.1689   -0.0881 H   0  0  0  0  0  0  0  0  0  0  0  0
  -34.9408   -1.4170    7.3652 C   0  0  0  0  0  0  0  0  0  0  0  0
  -35.3885   -1.6211    5.9220 C   0  0  0  0  0  0  0  0  0  0  0  0
  -34.7230   -0.5090    5.2458 N   0  0  0  0  0  0  0  0  0  0  0  0
  -34.8868    0.6618    6.1256 C   0  0  0  0  0  0  0  0  0  0  0  0
  -35.1093    0.0934    7.5377 C   0  0  0  0  0  0  0  0  0  0  0  0
  -34.1750    0.6168    8.4714 O   0  0  0  0  0  0  0  0  0  0  0  0
  -33.2738    0.4136    8.1756 H   0  0  0  0  0  0  0  0  0  0  0  0
  -35.7529   -2.2674    8.3389 C   0  0  0  0  0  0  0  0  0  0  0  0
  -37.0889   -3.2281    7.5438 S   0  0  0  0  0  0  0  0  0  0  0  0
  -36.4616   -4.9186    7.8303 C   0  0  0  0  0  0  0  0  0  0  0  0
  -35.1510   -5.1841    7.0850 C   0  0  0  0  0  0  0  0  0  0  0  0
  -36.2108   -7.0457    5.6925 C   0  0  0  0  0  0  0  0  0  0  0  0
  -34.9917   -6.5807    6.4741 C   0  0  0  0  0  0  0  0  0  0  0  0
 27 28  1  0
 28 26  1  0
 26 25  1  0
 25 24  1  0
 24 23  1  0
 16 23  1  0
 16 17  1  0
 17 18  1  0
 18  1  1  0
  1  2  1  0
  2  3  2  0
  3  4  1  0
  4  5  1  0
  5  6  2  0
  6  7  1  0
  6  8  1  0
  8  9  2  0
  9 10  1  0
  9 11  1  0
 11 12  2  0
 18 19  1  0
 19 20  1  0
 20 21  1  0
 20 16  1  0
 12  2  1  0
 12  5  1  0
  4 13  1  0
  7 14  1  0
  7 15  1  0
 21 22  1  0
M  END
> <minimizedAffinity>
-7.01165

> <CNNscore>
0.1661498696

> <CNNaffinity>
6.5864005089

> <CNN_VS>
1.0943295956

> <CNNaffinity_variance>
0.3000417352

$$$$



 28 30  0  0  0  0  0  0  0  0999 V2000
  -33.3609   -0.8301    5.1737 C   0  0  0  0  0  0  0  0  0  0  0  0
  -34.1576   -0.5666    6.4109 C   0  0  0  0  0  0  0  0  0  0  0  0
  -34.1325    0.5681    7.2075 C   0  0  0  0  0  0  0  0  0  0  0  0
  -35.0205    0.3943    8.2375 N   0  0  0  0  0  0  0  0  0  0  0  0
  -35.6149   -0.8379    8.1402 C   0  0  0  0  0  0  0  0  0  0  0  0
  -36.5568   -1.4848    8.9232 C   0  0  0  0  0  0  0  0  0  0  0  0
  -37.1596   -0.9113   10.0326 N   0  0  0  0  0  0  0  0  0  0  0  0
  -36.9095   -2.7296    8.5806 N   0  0  0  0  0  0  0  0  0  0  0  0
  -36.3273   -3.2597    7.4901 C   0  0  0  0  0  0  0  0  0  0  0  0
  -36.8176   -4.8540    7.1014 Cl  0  0  0  0  0  0  0  0  0  0  0  0
  -35.4224   -2.7195    6.6639 N   0  0  0  0  0  0  0  0  0  0  0  0
  -35.0773   -1.4653    7.0251 C   0  0  0  0  0  0  0  0  0  0  0  0
  -35.2044    1.0561    8.9428 H   0  0  0  0  0  0  0  0  0  0  0  0
  -36.9183    0.0031   10.3063 H   0  0  0  0  0  0  0  0  0  0  0  0
  -37.8287   -1.4186   10.5465 H   0  0  0  0  0  0  0  0  0  0  0  0
  -33.7403    1.5554    2.4159 C   0  0  0  0  0  0  0  0  0  0  0  0
  -32.8921    0.6460    3.2982 C   0  0  0  0  0  0  0  0  0  0  0  0
  -33.9170   -0.0780    4.0483 N   0  0  0  0  0  0  0  0  0  0  0  0
  -34.9303    0.9228    4.4270 C   0  0  0  0  0  0  0  0  0  0  0  0
  -34.7917    2.0633    3.4039 C   0  0  0  0  0  0  0  0  0  0  0  0
  -36.0236    2.3424    2.7534 O   0  0  0  0  0  0  0  0  0  0  0  0
  -36.3432    1.5417    2.3088 H   0  0  0  0  0  0  0  0  0  0  0  0
  -32.9038    2.6474    1.7534 C   0  0  0  0  0  0  0  0  0  0  0  0
  -33.8105    3.6089    0.4911 S   0  0  0  0  0  0  0  0  0  0  0  0
  -33.7676    5.2577    1.2741 C   0  0  0  0  0  0  0  0  0  0  0  0
  -33.2412    5.2032    2.7105 C   0  0  0  0  0  0  0  0  0  0  0  0
  -33.0044    7.5642    3.6578 C   0  0  0  0  0  0  0  0  0  0  0  0
  -33.7907    6.2624    3.6725 C   0  0  0  0  0  0  0  0  0  0  0  0
 27 28  1  0
 28 26  1  0
 26 25  1  0
 25 24  1  0
 24 23  1  0
 16 23  1  0
 16 17  1  0
 17 18  1  0
 18  1  1  0
  1  2  1  0
  2  3  2  0
  3  4  1  0
  4  5  1  0
  5  6  2  0
  6  7  1  0
  6  8  1  0
  8  9  2  0
  9 10  1  0
  9 11  1  0
 11 12  2  0
 18 19  1  0
 19 20  1  0
 20 21  1  0
 20 16  1  0
 12  2  1  0
 12  5  1  0
  4 13  1  0
  7 14  1  0
  7 15  1  0
 21 22  1  0
M  END
> <minimizedAffinity>
-6.10036

> <CNNscore>
0.1628406346

> <CNNaffinity>
5.8176803589

> <CNN_VS>
0.9473547339

> <CNNaffinity_variance>
0.4973482192

$$$$



 28 30  0  0  0  0  0  0  0  0999 V2000
  -34.1881    2.9151    2.2161 C   0  0  0  0  0  0  0  0  0  0  0  0
  -35.0527    3.0034    0.9998 C   0  0  0  0  0  0  0  0  0  0  0  0
  -36.3734    2.6014    0.8697 C   0  0  0  0  0  0  0  0  0  0  0  0
  -36.7830    2.8668   -0.4115 N   0  0  0  0  0  0  0  0  0  0  0  0
  -35.7523    3.4200   -1.1273 C   0  0  0  0  0  0  0  0  0  0  0  0
  -35.6521    3.8491   -2.4406 C   0  0  0  0  0  0  0  0  0  0  0  0
  -36.7097    3.8344   -3.3374 N   0  0  0  0  0  0  0  0  0  0  0  0
  -34.4688    4.3122   -2.8609 N   0  0  0  0  0  0  0  0  0  0  0  0
  -33.4616    4.3358   -1.9697 C   0  0  0  0  0  0  0  0  0  0  0  0
  -31.9728    4.9380   -2.5647 Cl  0  0  0  0  0  0  0  0  0  0  0  0
  -33.4566    3.9592   -0.6847 N   0  0  0  0  0  0  0  0  0  0  0  0
  -34.6569    3.4936   -0.2784 C   0  0  0  0  0  0  0  0  0  0  0  0
  -37.6839    2.6869   -0.7653 H   0  0  0  0  0  0  0  0  0  0  0  0
  -37.5908    3.4989   -3.0539 H   0  0  0  0  0  0  0  0  0  0  0  0
  -36.5795    4.1595   -4.2575 H   0  0  0  0  0  0  0  0  0  0  0  0
  -34.6297    0.1817    4.6189 C   0  0  0  0  0  0  0  0  0  0  0  0
  -34.9308    1.5889    4.1150 C   0  0  0  0  0  0  0  0  0  0  0  0
  -34.2833    1.5786    2.8044 N   0  0  0  0  0  0  0  0  0  0  0  0
  -32.9869    0.9039    2.9940 C   0  0  0  0  0  0  0  0  0  0  0  0
  -33.1566    0.0192    4.2410 C   0  0  0  0  0  0  0  0  0  0  0  0
  -32.8359   -1.3388    3.9733 O   0  0  0  0  0  0  0  0  0  0  0  0
  -33.4019   -1.6698    3.2585 H   0  0  0  0  0  0  0  0  0  0  0  0
  -34.9287    0.0344    6.1089 C   0  0  0  0  0  0  0  0  0  0  0  0
  -35.0550   -1.7006    6.6689 S   0  0  0  0  0  0  0  0  0  0  0  0
  -36.2810   -1.5011    8.0071 C   0  0  0  0  0  0  0  0  0  0  0  0
  -36.6208   -2.8312    8.6844 C   0  0  0  0  0  0  0  0  0  0  0  0
  -38.1480   -3.7398    6.8488 C   0  0  0  0  0  0  0  0  0  0  0  0
  -36.9512   -4.0005    7.7503 C   0  0  0  0  0  0  0  0  0  0  0  0
 27 28  1  0
 28 26  1  0
 26 25  1  0
 25 24  1  0
 24 23  1  0
 16 23  1  0
 16 17  1  0
 17 18  1  0
 18  1  1  0
  1  2  1  0
  2  3  2  0
  3  4  1  0
  4  5  1  0
  5  6  2  0
  6  7  1  0
  6  8  1  0
  8  9  2  0
  9 10  1  0
  9 11  1  0
 11 12  2  0
 18 19  1  0
 19 20  1  0
 20 21  1  0
 20 16  1  0
 12  2  1  0
 12  5  1  0
  4 13  1  0
  7 14  1  0
  7 15  1  0
 21 22  1  0
M  END
> <minimizedAffinity>
-6.63290

> <CNNscore>
0.1357716471

> <CNNaffinity>
5.7094283104

> <CNN_VS>
0.7751784921

> <CNNaffinity_variance>
0.3442870677

$$$$
