


 30 32  0  0  0  0  0  0  0  0999 V2000
   14.1289    9.6729    2.4734 N   0  0  0  0  0  0  0  0  0  0  0  0
   13.5672   10.2381    3.1102 H   0  0  0  0  0  0  0  0  0  0  0  0
   11.9404    9.6085    1.2652 O   0  0  0  0  0  0  0  0  0  0  0  0
   13.3544    9.6800    0.9775 S   0  0  0  0  0  0  0  0  0  0  0  0
   14.0271    8.7012    0.1535 O   0  0  0  0  0  0  0  0  0  0  0  0
   13.6617   11.3005    0.3127 C   0  0  0  0  0  0  0  0  0  0  0  0
   12.7069   12.3014    0.5379 C   0  0  0  0  0  0  0  0  0  0  0  0
   12.9388   13.5808    0.0641 C   0  0  0  0  0  0  0  0  0  0  0  0
   12.0310   14.5391    0.2868 F   0  0  0  0  0  0  0  0  0  0  0  0
   14.0968   13.8872   -0.6341 C   0  0  0  0  0  0  0  0  0  0  0  0
   15.0533   12.8911   -0.8827 C   0  0  0  0  0  0  0  0  0  0  0  0
   16.2189   13.1788   -1.5972 C   0  0  0  0  0  0  0  0  0  0  0  0
   17.1829   12.2806   -1.8898 N   0  0  0  0  0  0  0  0  0  0  0  0
   16.9806   11.0239   -1.4570 C   0  0  0  0  0  0  0  0  0  0  0  0
   15.8618   10.6266   -0.7393 C   0  0  0  0  0  0  0  0  0  0  0  0
   14.8560   11.5681   -0.4188 C   0  0  0  0  0  0  0  0  0  0  0  0
   14.3517    8.3702    3.1218 C   0  0  0  0  0  0  0  0  0  0  0  0
   12.9968    7.7423    3.4967 C   0  0  0  0  0  0  0  0  0  0  0  0
   12.4151    8.2223    4.7523 N   0  0  0  0  0  0  0  0  0  0  0  0
   13.1228    8.1584    5.4841 H   0  0  0  0  0  0  0  0  0  0  0  0
   11.9516    9.6032    4.6723 C   0  0  0  0  0  0  0  0  0  0  0  0
   10.4576    9.6343    4.7758 C   0  0  0  0  0  0  0  0  0  0  0  0
    9.6594   10.2485    3.8866 C   0  0  0  0  0  0  0  0  0  0  0  0
    8.1942   10.2834    3.9812 C   0  0  0  0  0  0  0  0  0  0  0  0
    7.3713   10.2605    2.8468 C   0  0  0  0  0  0  0  0  0  0  0  0
    5.9791   10.2636    2.9768 C   0  0  0  0  0  0  0  0  0  0  0  0
    5.4036   10.2798    4.2450 C   0  0  0  0  0  0  0  0  0  0  0  0
    3.5219   10.2835    4.4225 Br  0  0  0  0  0  0  0  0  0  0  0  0
    6.2061   10.2879    5.3831 C   0  0  0  0  0  0  0  0  0  0  0  0
    7.5978   10.2838    5.2494 C   0  0  0  0  0  0  0  0  0  0  0  0
  3  4  2  0
  4  5  2  0
  4  1  1  0
  1 17  1  0
 17 18  1  0
 18 19  1  0
 19 21  1  0
 21 22  1  0
 22 23  2  0
 23 24  1  0
 24 25  2  0
 25 26  1  0
 26 27  2  0
 27 28  1  0
 27 29  1  0
 29 30  2  0
  4  6  1  0
  6  7  2  0
  7  8  1  0
  8  9  1  0
  8 10  2  0
 10 11  1  0
 11 12  2  0
 12 13  1  0
 13 14  2  0
 14 15  1  0
 15 16  2  0
 30 24  1  0
 16  6  1  0
 16 11  1  0
  1  2  1  0
 19 20  1  0
M  END
> <minimizedAffinity>
-9.39631

> <CNNscore>
0.8413761258

> <CNNaffinity>
7.1679368019

> <CNN_VS>
6.0309309959

> <CNNaffinity_variance>
0.0182444155

$$$$



 30 32  0  0  0  0  0  0  0  0999 V2000
   10.0590    9.9013    3.4120 N   0  0  0  0  0  0  0  0  0  0  0  0
   10.0133   10.6410    2.7112 H   0  0  0  0  0  0  0  0  0  0  0  0
    8.7693   11.2948    5.0394 O   0  0  0  0  0  0  0  0  0  0  0  0
    8.6734   10.0221    4.3624 S   0  0  0  0  0  0  0  0  0  0  0  0
    8.5466    8.7724    5.0778 O   0  0  0  0  0  0  0  0  0  0  0  0
    7.3340   10.1584    3.2004 C   0  0  0  0  0  0  0  0  0  0  0  0
    7.6471   10.3049    1.8423 C   0  0  0  0  0  0  0  0  0  0  0  0
    6.6242   10.3751    0.9128 C   0  0  0  0  0  0  0  0  0  0  0  0
    6.9232   10.5062   -0.3855 F   0  0  0  0  0  0  0  0  0  0  0  0
    5.2955   10.3088    1.3035 C   0  0  0  0  0  0  0  0  0  0  0  0
    4.9667   10.1802    2.6615 C   0  0  0  0  0  0  0  0  0  0  0  0
    3.6330   10.1265    3.0742 C   0  0  0  0  0  0  0  0  0  0  0  0
    3.2289   10.0151    4.3571 N   0  0  0  0  0  0  0  0  0  0  0  0
    4.1986    9.9602    5.2869 C   0  0  0  0  0  0  0  0  0  0  0  0
    5.5533   10.0045    4.9911 C   0  0  0  0  0  0  0  0  0  0  0  0
    5.9808   10.1073    3.6467 C   0  0  0  0  0  0  0  0  0  0  0  0
   11.3627   10.0143    4.0864 C   0  0  0  0  0  0  0  0  0  0  0  0
   12.4690   10.2293    3.0374 C   0  0  0  0  0  0  0  0  0  0  0  0
   12.7815   11.6293    2.7411 N   0  0  0  0  0  0  0  0  0  0  0  0
   13.7722   11.7875    2.9247 H   0  0  0  0  0  0  0  0  0  0  0  0
   12.5008   11.9932    1.3565 C   0  0  0  0  0  0  0  0  0  0  0  0
   13.6145   11.5106    0.4788 C   0  0  0  0  0  0  0  0  0  0  0  0
   13.8371   11.9669   -0.7651 C   0  0  0  0  0  0  0  0  0  0  0  0
   14.9267   11.4988   -1.6317 C   0  0  0  0  0  0  0  0  0  0  0  0
   16.2006   11.1951   -1.1323 C   0  0  0  0  0  0  0  0  0  0  0  0
   17.2046   10.7221   -1.9828 C   0  0  0  0  0  0  0  0  0  0  0  0
   16.9345   10.5414   -3.3372 C   0  0  0  0  0  0  0  0  0  0  0  0
   18.2904    9.9015   -4.4881 Br  0  0  0  0  0  0  0  0  0  0  0  0
   15.6700   10.8243   -3.8475 C   0  0  0  0  0  0  0  0  0  0  0  0
   14.6682   11.2962   -2.9941 C   0  0  0  0  0  0  0  0  0  0  0  0
  3  4  2  0
  4  5  2  0
  4  1  1  0
  1 17  1  0
 17 18  1  0
 18 19  1  0
 19 21  1  0
 21 22  1  0
 22 23  2  0
 23 24  1  0
 24 25  2  0
 25 26  1  0
 26 27  2  0
 27 28  1  0
 27 29  1  0
 29 30  2  0
  4  6  1  0
  6  7  2  0
  7  8  1  0
  8  9  1  0
  8 10  2  0
 10 11  1  0
 11 12  2  0
 12 13  1  0
 13 14  2  0
 14 15  1  0
 15 16  2  0
 30 24  1  0
 16  6  1  0
 16 11  1  0
  1  2  1  0
 19 20  1  0
M  END
> <minimizedAffinity>
-9.20448

> <CNNscore>
0.7198858261

> <CNNaffinity>
6.8001732826

> <CNN_VS>
4.8953485489

> <CNNaffinity_variance>
0.3891371191

$$$$



 30 32  0  0  0  0  0  0  0  0999 V2000
   10.8197   10.0932    0.9815 N   0  0  0  0  0  0  0  0  0  0  0  0
   10.9213   10.6779    1.8111 H   0  0  0  0  0  0  0  0  0  0  0  0
    9.0234    8.4881    0.3102 O   0  0  0  0  0  0  0  0  0  0  0  0
    9.1705    9.8637    0.7264 S   0  0  0  0  0  0  0  0  0  0  0  0
    8.7145   10.9706   -0.0840 O   0  0  0  0  0  0  0  0  0  0  0  0
    8.4370    9.9927    2.3414 C   0  0  0  0  0  0  0  0  0  0  0  0
    9.2835    9.9645    3.4579 C   0  0  0  0  0  0  0  0  0  0  0  0
    8.7426   10.1009    4.7244 C   0  0  0  0  0  0  0  0  0  0  0  0
    9.5521   10.0830    5.7906 F   0  0  0  0  0  0  0  0  0  0  0  0
    7.3774   10.2592    4.9070 C   0  0  0  0  0  0  0  0  0  0  0  0
    6.5158   10.2713    3.7996 C   0  0  0  0  0  0  0  0  0  0  0  0
    5.1362   10.4152    3.9662 C   0  0  0  0  0  0  0  0  0  0  0  0
    4.2370   10.4261    2.9597 N   0  0  0  0  0  0  0  0  0  0  0  0
    4.7288   10.2799    1.7170 C   0  0  0  0  0  0  0  0  0  0  0  0
    6.0789   10.1304    1.4350 C   0  0  0  0  0  0  0  0  0  0  0  0
    7.0255   10.1323    2.4861 C   0  0  0  0  0  0  0  0  0  0  0  0
   11.6535    8.8967    1.1818 C   0  0  0  0  0  0  0  0  0  0  0  0
   12.9481    9.2877    1.9179 C   0  0  0  0  0  0  0  0  0  0  0  0
   14.1363    9.4006    1.0690 N   0  0  0  0  0  0  0  0  0  0  0  0
   13.9461    8.9384    0.1798 H   0  0  0  0  0  0  0  0  0  0  0  0
   14.5148   10.7841    0.8028 C   0  0  0  0  0  0  0  0  0  0  0  0
   15.0136   10.9025   -0.6046 C   0  0  0  0  0  0  0  0  0  0  0  0
   14.5210   10.1938   -1.6343 C   0  0  0  0  0  0  0  0  0  0  0  0
   15.0047   10.3043   -3.0167 C   0  0  0  0  0  0  0  0  0  0  0  0
   16.1511    9.6328   -3.4630 C   0  0  0  0  0  0  0  0  0  0  0  0
   16.5641    9.7371   -4.7948 C   0  0  0  0  0  0  0  0  0  0  0  0
   15.8247   10.5071   -5.6893 C   0  0  0  0  0  0  0  0  0  0  0  0
   16.3813   10.6486   -7.4900 Br  0  0  0  0  0  0  0  0  0  0  0  0
   14.6748   11.1692   -5.2662 C   0  0  0  0  0  0  0  0  0  0  0  0
   14.2643   11.0621   -3.9341 C   0  0  0  0  0  0  0  0  0  0  0  0
  3  4  2  0
  4  5  2  0
  4  1  1  0
  1 17  1  0
 17 18  1  0
 18 19  1  0
 19 21  1  0
 21 22  1  0
 22 23  2  0
 23 24  1  0
 24 25  2  0
 25 26  1  0
 26 27  2  0
 27 28  1  0
 27 29  1  0
 29 30  2  0
  4  6  1  0
  6  7  2  0
  7  8  1  0
  8  9  1  0
  8 10  2  0
 10 11  1  0
 11 12  2  0
 12 13  1  0
 13 14  2  0
 14 15  1  0
 15 16  2  0
 30 24  1  0
 16  6  1  0
 16 11  1  0
  1  2  1  0
 19 20  1  0
M  END
> <minimizedAffinity>
-8.31153

> <CNNscore>
0.6983866096

> <CNNaffinity>
6.6503510475

> <CNN_VS>
4.6445159912

> <CNNaffinity_variance>
0.4886537492

$$$$



 30 32  0  0  0  0  0  0  0  0999 V2000
   10.1691   10.3216    3.0723 N   0  0  0  0  0  0  0  0  0  0  0  0
   10.6047   11.2118    3.3138 H   0  0  0  0  0  0  0  0  0  0  0  0
    8.8086   11.2903    4.9336 O   0  0  0  0  0  0  0  0  0  0  0  0
    8.8457   10.1153    4.0939 S   0  0  0  0  0  0  0  0  0  0  0  0
    8.9404    8.7788    4.6365 O   0  0  0  0  0  0  0  0  0  0  0  0
    7.4268   10.2031    3.0252 C   0  0  0  0  0  0  0  0  0  0  0  0
    7.6423   10.3448    1.6478 C   0  0  0  0  0  0  0  0  0  0  0  0
    6.5568   10.3776    0.7899 C   0  0  0  0  0  0  0  0  0  0  0  0
    6.7628   10.5041   -0.5268 F   0  0  0  0  0  0  0  0  0  0  0  0
    5.2603   10.2785    1.2711 C   0  0  0  0  0  0  0  0  0  0  0  0
    5.0285   10.1543    2.6495 C   0  0  0  0  0  0  0  0  0  0  0  0
    3.7282   10.0678    3.1528 C   0  0  0  0  0  0  0  0  0  0  0  0
    3.4159    9.9580    4.4613 N   0  0  0  0  0  0  0  0  0  0  0  0
    4.4478    9.9390    5.3229 C   0  0  0  0  0  0  0  0  0  0  0  0
    5.7774   10.0177    4.9348 C   0  0  0  0  0  0  0  0  0  0  0  0
    6.1092   10.1190    3.5635 C   0  0  0  0  0  0  0  0  0  0  0  0
   11.2228    9.2940    3.1024 C   0  0  0  0  0  0  0  0  0  0  0  0
   12.3697    9.7037    2.1605 C   0  0  0  0  0  0  0  0  0  0  0  0
   12.7413    8.7007    1.1599 N   0  0  0  0  0  0  0  0  0  0  0  0
   12.9354    9.1764    0.2788 H   0  0  0  0  0  0  0  0  0  0  0  0
   13.9185    7.9276    1.5406 C   0  0  0  0  0  0  0  0  0  0  0  0
   14.6243    8.6168    2.6678 C   0  0  0  0  0  0  0  0  0  0  0  0
   14.8726    8.0425    3.8567 C   0  0  0  0  0  0  0  0  0  0  0  0
   15.5638    8.7117    4.9665 C   0  0  0  0  0  0  0  0  0  0  0  0
   14.9184    9.6344    5.8011 C   0  0  0  0  0  0  0  0  0  0  0  0
   15.6004   10.2285    6.8673 C   0  0  0  0  0  0  0  0  0  0  0  0
   16.9306    9.8938    7.1092 C   0  0  0  0  0  0  0  0  0  0  0  0
   17.8538   10.6956    8.5505 Br  0  0  0  0  0  0  0  0  0  0  0  0
   17.5830    8.9680    6.2988 C   0  0  0  0  0  0  0  0  0  0  0  0
   16.8977    8.3752    5.2341 C   0  0  0  0  0  0  0  0  0  0  0  0
  3  4  2  0
  4  5  2  0
  4  1  1  0
  1 17  1  0
 17 18  1  0
 18 19  1  0
 19 21  1  0
 21 22  1  0
 22 23  2  0
 23 24  1  0
 24 25  2  0
 25 26  1  0
 26 27  2  0
 27 28  1  0
 27 29  1  0
 29 30  2  0
  4  6  1  0
  6  7  2  0
  7  8  1  0
  8  9  1  0
  8 10  2  0
 10 11  1  0
 11 12  2  0
 12 13  1  0
 13 14  2  0
 14 15  1  0
 15 16  2  0
 30 24  1  0
 16  6  1  0
 16 11  1  0
  1  2  1  0
 19 20  1  0
M  END
> <minimizedAffinity>
-8.57114

> <CNNscore>
0.6747514009

> <CNNaffinity>
6.5605177879

> <CNN_VS>
4.4267187119

> <CNNaffinity_variance>
0.6899345517

$$$$



 30 32  0  0  0  0  0  0  0  0999 V2000
   14.7458    9.4594   -0.7094 N   0  0  0  0  0  0  0  0  0  0  0  0
   15.1647    8.5572   -0.4838 H   0  0  0  0  0  0  0  0  0  0  0  0
   17.0047   10.1520    0.1099 O   0  0  0  0  0  0  0  0  0  0  0  0
   15.9985   10.5786   -0.8349 S   0  0  0  0  0  0  0  0  0  0  0  0
   15.3940   11.8907   -0.7823 O   0  0  0  0  0  0  0  0  0  0  0  0
   16.6775   10.3228   -2.4586 C   0  0  0  0  0  0  0  0  0  0  0  0
   17.9842    9.8264   -2.5599 C   0  0  0  0  0  0  0  0  0  0  0  0
   18.5233    9.5823   -3.8109 C   0  0  0  0  0  0  0  0  0  0  0  0
   19.7683    9.0997   -3.9076 F   0  0  0  0  0  0  0  0  0  0  0  0
   17.7947    9.8261   -4.9649 C   0  0  0  0  0  0  0  0  0  0  0  0
   16.4918   10.3401   -4.8794 C   0  0  0  0  0  0  0  0  0  0  0  0
   15.7487   10.6053   -6.0323 C   0  0  0  0  0  0  0  0  0  0  0  0
   14.4966   11.1091   -6.0412 N   0  0  0  0  0  0  0  0  0  0  0  0
   13.9493   11.3723   -4.8417 C   0  0  0  0  0  0  0  0  0  0  0  0
   14.5946   11.1479   -3.6342 C   0  0  0  0  0  0  0  0  0  0  0  0
   15.9016   10.6071   -3.6205 C   0  0  0  0  0  0  0  0  0  0  0  0
   13.6951    9.7183    0.2886 C   0  0  0  0  0  0  0  0  0  0  0  0
   13.4587    8.4503    1.1293 C   0  0  0  0  0  0  0  0  0  0  0  0
   12.0585    8.0393    1.2547 N   0  0  0  0  0  0  0  0  0  0  0  0
   11.8597    7.8569    2.2384 H   0  0  0  0  0  0  0  0  0  0  0  0
   11.1244    9.0499    0.7707 C   0  0  0  0  0  0  0  0  0  0  0  0
    9.9377    9.1095    1.6828 C   0  0  0  0  0  0  0  0  0  0  0  0
    8.8814    9.9153    1.4834 C   0  0  0  0  0  0  0  0  0  0  0  0
    7.7145    9.9794    2.3731 C   0  0  0  0  0  0  0  0  0  0  0  0
    7.8327    9.8993    3.7674 C   0  0  0  0  0  0  0  0  0  0  0  0
    6.7021    9.9952    4.5845 C   0  0  0  0  0  0  0  0  0  0  0  0
    5.4475   10.1818    4.0090 C   0  0  0  0  0  0  0  0  0  0  0  0
    3.9182   10.3122    5.1121 Br  0  0  0  0  0  0  0  0  0  0  0  0
    5.3137   10.2782    2.6262 C   0  0  0  0  0  0  0  0  0  0  0  0
    6.4464   10.1828    1.8123 C   0  0  0  0  0  0  0  0  0  0  0  0
  3  4  2  0
  4  5  2  0
  4  1  1  0
  1 17  1  0
 17 18  1  0
 18 19  1  0
 19 21  1  0
 21 22  1  0
 22 23  2  0
 23 24  1  0
 24 25  2  0
 25 26  1  0
 26 27  2  0
 27 28  1  0
 27 29  1  0
 29 30  2  0
  4  6  1  0
  6  7  2  0
  7  8  1  0
  8  9  1  0
  8 10  2  0
 10 11  1  0
 11 12  2  0
 12 13  1  0
 13 14  2  0
 14 15  1  0
 15 16  2  0
 30 24  1  0
 16  6  1  0
 16 11  1  0
  1  2  1  0
 19 20  1  0
M  END
> <minimizedAffinity>
-9.42997

> <CNNscore>
0.6271787882

> <CNNaffinity>
6.2710781097

> <CNN_VS>
3.9330871105

> <CNNaffinity_variance>
0.5363692045

$$$$



 30 32  0  0  0  0  0  0  0  0999 V2000
   10.2365   10.3213    3.1709 N   0  0  0  0  0  0  0  0  0  0  0  0
   10.6838   11.2040    3.4187 H   0  0  0  0  0  0  0  0  0  0  0  0
    8.8281   11.3455    4.9657 O   0  0  0  0  0  0  0  0  0  0  0  0
    8.8797   10.1511    4.1546 S   0  0  0  0  0  0  0  0  0  0  0  0
    8.9439    8.8266    4.7303 O   0  0  0  0  0  0  0  0  0  0  0  0
    7.4960   10.2274    3.0399 C   0  0  0  0  0  0  0  0  0  0  0  0
    7.7555   10.3679    1.6700 C   0  0  0  0  0  0  0  0  0  0  0  0
    6.6985   10.3919    0.7770 C   0  0  0  0  0  0  0  0  0  0  0  0
    6.9466   10.5173   -0.5325 F   0  0  0  0  0  0  0  0  0  0  0  0
    5.3876   10.2851    1.2157 C   0  0  0  0  0  0  0  0  0  0  0  0
    5.1117   10.1619    2.5860 C   0  0  0  0  0  0  0  0  0  0  0  0
    3.7962   10.0678    3.0467 C   0  0  0  0  0  0  0  0  0  0  0  0
    3.4419    9.9583    4.3444 N   0  0  0  0  0  0  0  0  0  0  0  0
    4.4451    9.9478    5.2394 C   0  0  0  0  0  0  0  0  0  0  0  0
    5.7862   10.0347    4.8949 C   0  0  0  0  0  0  0  0  0  0  0  0
    6.1620   10.1356    3.5350 C   0  0  0  0  0  0  0  0  0  0  0  0
   11.2666    9.2719    3.2394 C   0  0  0  0  0  0  0  0  0  0  0  0
   12.6205    9.9019    3.6146 C   0  0  0  0  0  0  0  0  0  0  0  0
   13.5158   10.1695    2.4867 N   0  0  0  0  0  0  0  0  0  0  0  0
   14.0369   11.0246    2.6806 H   0  0  0  0  0  0  0  0  0  0  0  0
   14.4665    9.0891    2.2475 C   0  0  0  0  0  0  0  0  0  0  0  0
   14.8775    9.0965    0.8071 C   0  0  0  0  0  0  0  0  0  0  0  0
   14.4379    9.9938   -0.0910 C   0  0  0  0  0  0  0  0  0  0  0  0
   14.8361   10.0076   -1.5046 C   0  0  0  0  0  0  0  0  0  0  0  0
   14.4020   11.0004   -2.3936 C   0  0  0  0  0  0  0  0  0  0  0  0
   14.8269   10.9985   -3.7257 C   0  0  0  0  0  0  0  0  0  0  0  0
   15.6973   10.0070   -4.1720 C   0  0  0  0  0  0  0  0  0  0  0  0
   16.2730   10.0034   -5.9723 Br  0  0  0  0  0  0  0  0  0  0  0  0
   16.1501    9.0213   -3.2986 C   0  0  0  0  0  0  0  0  0  0  0  0
   15.7239    9.0267   -1.9671 C   0  0  0  0  0  0  0  0  0  0  0  0
  3  4  2  0
  4  5  2  0
  4  1  1  0
  1 17  1  0
 17 18  1  0
 18 19  1  0
 19 21  1  0
 21 22  1  0
 22 23  2  0
 23 24  1  0
 24 25  2  0
 25 26  1  0
 26 27  2  0
 27 28  1  0
 27 29  1  0
 29 30  2  0
  4  6  1  0
  6  7  2  0
  7  8  1  0
  8  9  1  0
  8 10  2  0
 10 11  1  0
 11 12  2  0
 12 13  1  0
 13 14  2  0
 14 15  1  0
 15 16  2  0
 30 24  1  0
 16  6  1  0
 16 11  1  0
  1  2  1  0
 19 20  1  0
M  END
> <minimizedAffinity>
-9.36126

> <CNNscore>
0.5239943266

> <CNNaffinity>
6.4651317596

> <CNN_VS>
3.3876924515

> <CNNaffinity_variance>
0.9890484214

$$$$



 30 32  0  0  0  0  0  0  0  0999 V2000
   15.1439   10.2819   -0.1600 N   0  0  0  0  0  0  0  0  0  0  0  0
   14.4363   10.0616   -0.8609 H   0  0  0  0  0  0  0  0  0  0  0  0
   16.9586    8.6138   -0.5822 O   0  0  0  0  0  0  0  0  0  0  0  0
   16.6501    9.9978   -0.8589 S   0  0  0  0  0  0  0  0  0  0  0  0
   17.5138   11.0810   -0.4460 O   0  0  0  0  0  0  0  0  0  0  0  0
   16.3703   10.1211   -2.6108 C   0  0  0  0  0  0  0  0  0  0  0  0
   15.0512   10.2597   -3.0633 C   0  0  0  0  0  0  0  0  0  0  0  0
   14.8084   10.3957   -4.4189 C   0  0  0  0  0  0  0  0  0  0  0  0
   13.5491   10.5371   -4.8505 F   0  0  0  0  0  0  0  0  0  0  0  0
   15.8476   10.3913   -5.3367 C   0  0  0  0  0  0  0  0  0  0  0  0
   17.1719   10.2353   -4.8999 C   0  0  0  0  0  0  0  0  0  0  0  0
   18.2298   10.2139   -5.8121 C   0  0  0  0  0  0  0  0  0  0  0  0
   19.5286   10.0576   -5.4799 N   0  0  0  0  0  0  0  0  0  0  0  0
   19.7972    9.9070   -4.1711 C   0  0  0  0  0  0  0  0  0  0  0  0
   18.8268    9.9129   -3.1795 C   0  0  0  0  0  0  0  0  0  0  0  0
   17.4661   10.0903   -3.5226 C   0  0  0  0  0  0  0  0  0  0  0  0
   14.8035    9.5310    1.0596 C   0  0  0  0  0  0  0  0  0  0  0  0
   13.2982    9.2080    1.0630 C   0  0  0  0  0  0  0  0  0  0  0  0
   12.7141    8.9796    2.3867 N   0  0  0  0  0  0  0  0  0  0  0  0
   13.4306    8.5825    2.9944 H   0  0  0  0  0  0  0  0  0  0  0  0
   12.2066   10.2011    3.0019 C   0  0  0  0  0  0  0  0  0  0  0  0
   10.7089   10.1756    2.9991 C   0  0  0  0  0  0  0  0  0  0  0  0
    9.9560   10.3663    4.0953 C   0  0  0  0  0  0  0  0  0  0  0  0
    8.4875   10.3426    4.1005 C   0  0  0  0  0  0  0  0  0  0  0  0
    7.7372   10.2650    2.9191 C   0  0  0  0  0  0  0  0  0  0  0  0
    6.3407   10.2133    2.9646 C   0  0  0  0  0  0  0  0  0  0  0  0
    5.6884   10.2291    4.1951 C   0  0  0  0  0  0  0  0  0  0  0  0
    3.8006   10.1587    4.2584 Br  0  0  0  0  0  0  0  0  0  0  0  0
    6.4187   10.2912    5.3793 C   0  0  0  0  0  0  0  0  0  0  0  0
    7.8150   10.3419    5.3300 C   0  0  0  0  0  0  0  0  0  0  0  0
  3  4  2  0
  4  5  2  0
  4  1  1  0
  1 17  1  0
 17 18  1  0
 18 19  1  0
 19 21  1  0
 21 22  1  0
 22 23  2  0
 23 24  1  0
 24 25  2  0
 25 26  1  0
 26 27  2  0
 27 28  1  0
 27 29  1  0
 29 30  2  0
  4  6  1  0
  6  7  2  0
  7  8  1  0
  8  9  1  0
  8 10  2  0
 10 11  1  0
 11 12  2  0
 12 13  1  0
 13 14  2  0
 14 15  1  0
 15 16  2  0
 30 24  1  0
 16  6  1  0
 16 11  1  0
  1  2  1  0
 19 20  1  0
M  END
> <minimizedAffinity>
-9.17464

> <CNNscore>
0.4821921289

> <CNNaffinity>
5.9170818329

> <CNN_VS>
2.8531703949

> <CNNaffinity_variance>
0.8629232049

$$$$



 30 32  0  0  0  0  0  0  0  0999 V2000
   14.6914   11.7201    0.1771 N   0  0  0  0  0  0  0  0  0  0  0  0
   15.4871   11.9231    0.7821 H   0  0  0  0  0  0  0  0  0  0  0  0
   16.1272   13.3232   -1.0966 O   0  0  0  0  0  0  0  0  0  0  0  0
   14.8150   12.7233   -1.1705 S   0  0  0  0  0  0  0  0  0  0  0  0
   13.6046   13.5122   -1.2171 O   0  0  0  0  0  0  0  0  0  0  0  0
   14.8343   11.6166   -2.5625 C   0  0  0  0  0  0  0  0  0  0  0  0
   14.4212   12.1100   -3.8074 C   0  0  0  0  0  0  0  0  0  0  0  0
   14.4622   11.2809   -4.9147 C   0  0  0  0  0  0  0  0  0  0  0  0
   14.0760   11.7548   -6.1057 F   0  0  0  0  0  0  0  0  0  0  0  0
   14.8996    9.9693   -4.8116 C   0  0  0  0  0  0  0  0  0  0  0  0
   15.2993    9.4561   -3.5683 C   0  0  0  0  0  0  0  0  0  0  0  0
   15.7289    8.1326   -3.4436 C   0  0  0  0  0  0  0  0  0  0  0  0
   16.1191    7.5565   -2.2871 N   0  0  0  0  0  0  0  0  0  0  0  0
   16.0760    8.3310   -1.1889 C   0  0  0  0  0  0  0  0  0  0  0  0
   15.6674    9.6568   -1.1963 C   0  0  0  0  0  0  0  0  0  0  0  0
   15.2710   10.2680   -2.4087 C   0  0  0  0  0  0  0  0  0  0  0  0
   13.4751   11.8267    0.9995 C   0  0  0  0  0  0  0  0  0  0  0  0
   13.2831   10.5297    1.8067 C   0  0  0  0  0  0  0  0  0  0  0  0
   12.3194   10.6183    2.9061 N   0  0  0  0  0  0  0  0  0  0  0  0
   11.4847   11.0980    2.5693 H   0  0  0  0  0  0  0  0  0  0  0  0
   11.9282    9.3122    3.4251 C   0  0  0  0  0  0  0  0  0  0  0  0
   10.4693    9.3273    3.7645 C   0  0  0  0  0  0  0  0  0  0  0  0
    9.6222   10.2962    3.3789 C   0  0  0  0  0  0  0  0  0  0  0  0
    8.1909   10.3180    3.7077 C   0  0  0  0  0  0  0  0  0  0  0  0
    7.1967   10.2384    2.7230 C   0  0  0  0  0  0  0  0  0  0  0  0
    5.8438   10.2308    3.0761 C   0  0  0  0  0  0  0  0  0  0  0  0
    5.4799   10.2930    4.4191 C   0  0  0  0  0  0  0  0  0  0  0  0
    3.6515   10.2823    4.8982 Br  0  0  0  0  0  0  0  0  0  0  0  0
    6.4549   10.3578    5.4113 C   0  0  0  0  0  0  0  0  0  0  0  0
    7.8067   10.3643    5.0547 C   0  0  0  0  0  0  0  0  0  0  0  0
  3  4  2  0
  4  5  2  0
  4  1  1  0
  1 17  1  0
 17 18  1  0
 18 19  1  0
 19 21  1  0
 21 22  1  0
 22 23  2  0
 23 24  1  0
 24 25  2  0
 25 26  1  0
 26 27  2  0
 27 28  1  0
 27 29  1  0
 29 30  2  0
  4  6  1  0
  6  7  2  0
  7  8  1  0
  8  9  1  0
  8 10  2  0
 10 11  1  0
 11 12  2  0
 12 13  1  0
 13 14  2  0
 14 15  1  0
 15 16  2  0
 30 24  1  0
 16  6  1  0
 16 11  1  0
  1  2  1  0
 19 20  1  0
M  END
> <minimizedAffinity>
-8.59352

> <CNNscore>
0.3494018018

> <CNNaffinity>
6.0688457489

> <CNN_VS>
2.1204657555

> <CNNaffinity_variance>
0.6482188702

$$$$



 30 32  0  0  0  0  0  0  0  0999 V2000
   11.1453    9.1917    2.6950 N   0  0  0  0  0  0  0  0  0  0  0  0
   11.4525   10.1639    2.6664 H   0  0  0  0  0  0  0  0  0  0  0  0
   10.0447   10.1242    4.7379 O   0  0  0  0  0  0  0  0  0  0  0  0
    9.8191    9.1131    3.7308 S   0  0  0  0  0  0  0  0  0  0  0  0
    9.6294    7.7190    4.0625 O   0  0  0  0  0  0  0  0  0  0  0  0
    8.4415    9.6638    2.7502 C   0  0  0  0  0  0  0  0  0  0  0  0
    8.6427    9.8637    1.3778 C   0  0  0  0  0  0  0  0  0  0  0  0
    7.5783   10.2556    0.5848 C   0  0  0  0  0  0  0  0  0  0  0  0
    7.7683   10.4380   -0.7277 F   0  0  0  0  0  0  0  0  0  0  0  0
    6.3184   10.4591    1.1265 C   0  0  0  0  0  0  0  0  0  0  0  0
    6.1061   10.2802    2.5020 C   0  0  0  0  0  0  0  0  0  0  0  0
    4.8466   10.4950    3.0669 C   0  0  0  0  0  0  0  0  0  0  0  0
    4.5583   10.3572    4.3782 N   0  0  0  0  0  0  0  0  0  0  0  0
    5.5749    9.9924    5.1789 C   0  0  0  0  0  0  0  0  0  0  0  0
    6.8644    9.7525    4.7266 C   0  0  0  0  0  0  0  0  0  0  0  0
    7.1670    9.8824    3.3510 C   0  0  0  0  0  0  0  0  0  0  0  0
   12.3204    8.3687    3.0252 C   0  0  0  0  0  0  0  0  0  0  0  0
   13.5488    8.8931    2.2593 C   0  0  0  0  0  0  0  0  0  0  0  0
   14.6855    9.2809    3.0977 N   0  0  0  0  0  0  0  0  0  0  0  0
   14.5006   10.2042    3.4898 H   0  0  0  0  0  0  0  0  0  0  0  0
   14.9264    8.3492    4.1942 C   0  0  0  0  0  0  0  0  0  0  0  0
   15.5805    9.0746    5.3299 C   0  0  0  0  0  0  0  0  0  0  0  0
   16.9103    9.2132    5.4613 C   0  0  0  0  0  0  0  0  0  0  0  0
   17.5589    9.9226    6.5718 C   0  0  0  0  0  0  0  0  0  0  0  0
   18.7246   10.6805    6.3950 C   0  0  0  0  0  0  0  0  0  0  0  0
   19.2968   11.3679    7.4699 C   0  0  0  0  0  0  0  0  0  0  0  0
   18.6982   11.3076    8.7260 C   0  0  0  0  0  0  0  0  0  0  0  0
   19.4701   12.2367   10.1798 Br  0  0  0  0  0  0  0  0  0  0  0  0
   17.5315   10.5713    8.9162 C   0  0  0  0  0  0  0  0  0  0  0  0
   16.9617    9.8859    7.8391 C   0  0  0  0  0  0  0  0  0  0  0  0
  3  4  2  0
  4  5  2  0
  4  1  1  0
  1 17  1  0
 17 18  1  0
 18 19  1  0
 19 21  1  0
 21 22  1  0
 22 23  2  0
 23 24  1  0
 24 25  2  0
 25 26  1  0
 26 27  2  0
 27 28  1  0
 27 29  1  0
 29 30  2  0
  4  6  1  0
  6  7  2  0
  7  8  1  0
  8  9  1  0
  8 10  2  0
 10 11  1  0
 11 12  2  0
 12 13  1  0
 13 14  2  0
 14 15  1  0
 15 16  2  0
 30 24  1  0
 16  6  1  0
 16 11  1  0
  1  2  1  0
 19 20  1  0
M  END
> <minimizedAffinity>
-7.99963

> <CNNscore>
0.1929765493

> <CNNaffinity>
5.8313879967

> <CNN_VS>
1.1253211498

> <CNNaffinity_variance>
0.4961365163

$$$$
