


 37 39  0  0  0  0  0  0  0  0999 V2000
   36.9385   -2.5325   -7.9859 C   0  0  0  0  0  0  0  0  0  0  0  0
   35.5261   -4.9845   -7.7911 O   0  0  0  0  0  0  0  0  0  0  0  0
   36.5822   -4.8418   -7.1840 C   0  0  0  0  0  0  0  0  0  0  0  0
   37.3430   -3.7010   -7.2506 N   0  0  0  0  0  0  0  0  0  0  0  0
   38.2041   -3.6817   -6.7738 H   0  0  0  0  0  0  0  0  0  0  0  0
   37.0925   -5.9525   -6.3229 C   0  0  0  0  0  0  0  0  0  0  0  0
   38.3917   -5.8184   -5.8077 C   0  0  0  0  0  0  0  0  0  0  0  0
   38.9278   -6.8266   -4.9932 C   0  0  0  0  0  0  0  0  0  0  0  0
   38.2107   -7.9765   -4.6654 C   0  0  0  0  0  0  0  0  0  0  0  0
   38.8935   -9.3472   -3.5435 Br  0  0  0  0  0  0  0  0  0  0  0  0
   36.9213   -8.1017   -5.1834 C   0  0  0  0  0  0  0  0  0  0  0  0
   36.1215   -9.1905   -4.9280 O   0  0  0  0  0  0  0  0  0  0  0  0
   36.3662   -7.1061   -6.0021 C   0  0  0  0  0  0  0  0  0  0  0  0
   35.0909   -7.3176   -6.4692 O   0  0  0  0  0  0  0  0  0  0  0  0
   36.4378   -9.8877   -4.3877 H   0  0  0  0  0  0  0  0  0  0  0  0
   34.6306   -8.0999   -6.2368 H   0  0  0  0  0  0  0  0  0  0  0  0
   40.2671   -6.6334   -4.4939 N   0  0  0  0  0  0  0  0  0  0  0  0
   41.0001   -7.6293   -4.4663 O   0  0  0  0  0  0  0  0  0  0  0  0
   40.5657   -5.4933   -4.1191 O   0  0  0  0  0  0  0  0  0  0  0  0
   36.6975   -2.8455   -9.4386 C   0  0  0  0  0  0  0  0  0  0  0  0
   36.2594   -2.0113  -10.4001 C   0  0  0  0  0  0  0  0  0  0  0  0
   35.9929   -2.3089  -11.8536 C   0  0  0  0  0  0  0  0  0  0  0  0
   34.8479   -1.4958  -12.2098 O   0  0  0  0  0  0  0  0  0  0  0  0
   35.2314   -0.6545  -13.3081 C   0  0  0  0  0  0  0  0  0  0  0  0
   36.7649   -0.5874  -13.2935 C   0  0  0  0  0  0  0  0  0  0  0  0
   37.3565   -0.2618  -14.5535 O   0  0  0  0  0  0  0  0  0  0  0  0
   37.0953   -2.0062  -12.8802 C   0  0  0  0  0  0  0  0  0  0  0  0
   36.9701   -2.8696  -14.0246 O   0  0  0  0  0  0  0  0  0  0  0  0
   37.0779   -0.9105  -15.2187 H   0  0  0  0  0  0  0  0  0  0  0  0
   36.0830   -2.7753  -14.4054 H   0  0  0  0  0  0  0  0  0  0  0  0
   34.6394    0.6972  -13.2005 N   0  0  0  0  0  0  0  0  0  0  0  0
   33.6262    1.0976  -14.0664 C   0  0  0  0  0  0  0  0  0  0  0  0
   33.0561    2.3097  -14.0561 C   0  0  0  0  0  0  0  0  0  0  0  0
   33.5343    3.2962  -13.0588 C   0  0  0  0  0  0  0  0  0  0  0  0
   33.0663    4.4281  -13.0082 O   0  0  0  0  0  0  0  0  0  0  0  0
   34.6040    2.8635  -12.1288 C   0  0  0  0  0  0  0  0  0  0  0  0
   35.0809    1.6185  -12.2537 C   0  0  0  0  0  0  0  0  0  0  0  0
  2  3  2  0
  3  4  1  0
  4  1  1  0
  1 20  1  0
 20 21  2  0
 22 21  1  0
 22 23  1  0
 23 24  1  0
 24 31  1  0
 31 32  1  0
 32 33  2  0
 33 34  1  0
 34 35  2  0
 34 36  1  0
 36 37  2  0
 24 25  1  0
 25 26  1  0
 25 27  1  0
 27 28  1  0
  3  6  1  0
  6  7  2  0
  7  8  1  0
  8 17  1  0
 17 18  2  0
 17 19  1  0
  8  9  2  0
  9 10  1  0
  9 11  1  0
 11 12  1  0
 11 13  2  0
 13 14  1  0
 27 22  1  0
 13  6  1  0
 37 31  1  0
  4  5  1  0
 26 29  1  0
 28 30  1  0
 12 15  1  0
 14 16  1  0
M  CHG 1  17   1
M  CHG 1  19  -1
M  END
> <minimizedAffinity>
-10.72808

> <CNNscore>
0.9471876621

> <CNNaffinity>
6.9503517151

> <CNN_VS>
6.5832872391

> <CNNaffinity_variance>
0.3700604439

$$$$



 37 39  0  0  0  0  0  0  0  0999 V2000
   35.6004   -3.4920   -9.0312 C   0  0  0  0  0  0  0  0  0  0  0  0
   36.5074   -5.2641   -7.0107 O   0  0  0  0  0  0  0  0  0  0  0  0
   37.0121   -4.1510   -7.1140 C   0  0  0  0  0  0  0  0  0  0  0  0
   36.6545   -3.2470   -8.0832 N   0  0  0  0  0  0  0  0  0  0  0  0
   37.1412   -2.3926   -8.1317 H   0  0  0  0  0  0  0  0  0  0  0  0
   38.0762   -3.7326   -6.1505 C   0  0  0  0  0  0  0  0  0  0  0  0
   39.0168   -4.7043   -5.7733 C   0  0  0  0  0  0  0  0  0  0  0  0
   40.0396   -4.3739   -4.8722 C   0  0  0  0  0  0  0  0  0  0  0  0
   40.1657   -3.0968   -4.3272 C   0  0  0  0  0  0  0  0  0  0  0  0
   41.5530   -2.6068   -3.1278 Br  0  0  0  0  0  0  0  0  0  0  0  0
   39.2253   -2.1384   -4.7066 C   0  0  0  0  0  0  0  0  0  0  0  0
   39.2497   -0.8473   -4.2343 O   0  0  0  0  0  0  0  0  0  0  0  0
   38.1926   -2.4479   -5.6050 C   0  0  0  0  0  0  0  0  0  0  0  0
   37.3109   -1.4410   -5.9177 O   0  0  0  0  0  0  0  0  0  0  0  0
   39.9160   -0.5815   -3.6315 H   0  0  0  0  0  0  0  0  0  0  0  0
   37.4153   -0.5916   -5.5362 H   0  0  0  0  0  0  0  0  0  0  0  0
   40.9758   -5.4137   -4.5216 N   0  0  0  0  0  0  0  0  0  0  0  0
   42.1306   -5.0576   -4.2582 O   0  0  0  0  0  0  0  0  0  0  0  0
   40.5513   -6.5752   -4.5304 O   0  0  0  0  0  0  0  0  0  0  0  0
   36.0232   -3.1466  -10.4341 C   0  0  0  0  0  0  0  0  0  0  0  0
   35.2367   -2.9700  -11.5124 C   0  0  0  0  0  0  0  0  0  0  0  0
   35.6404   -2.6440  -12.9277 C   0  0  0  0  0  0  0  0  0  0  0  0
   34.7098   -1.6250  -13.3688 O   0  0  0  0  0  0  0  0  0  0  0  0
   35.4729   -0.4753  -13.7652 C   0  0  0  0  0  0  0  0  0  0  0  0
   36.8434   -0.6043  -13.0861 C   0  0  0  0  0  0  0  0  0  0  0  0
   37.8967    0.1122  -13.7348 O   0  0  0  0  0  0  0  0  0  0  0  0
   37.0548   -2.1007  -13.1821 C   0  0  0  0  0  0  0  0  0  0  0  0
   37.4895   -2.4287  -14.5142 O   0  0  0  0  0  0  0  0  0  0  0  0
   37.9735   -0.1877  -14.6540 H   0  0  0  0  0  0  0  0  0  0  0  0
   36.8480   -2.0876  -15.1569 H   0  0  0  0  0  0  0  0  0  0  0  0
   34.8063    0.7884  -13.3810 N   0  0  0  0  0  0  0  0  0  0  0  0
   33.7663    1.3027  -14.1493 C   0  0  0  0  0  0  0  0  0  0  0  0
   33.1288    2.4517  -13.8892 C   0  0  0  0  0  0  0  0  0  0  0  0
   33.5575    3.2339  -12.7057 C   0  0  0  0  0  0  0  0  0  0  0  0
   33.0268    4.3020  -12.4224 O   0  0  0  0  0  0  0  0  0  0  0  0
   34.6563    2.6781  -11.8811 C   0  0  0  0  0  0  0  0  0  0  0  0
   35.2017    1.5155  -12.2606 C   0  0  0  0  0  0  0  0  0  0  0  0
  2  3  2  0
  3  4  1  0
  4  1  1  0
  1 20  1  0
 20 21  2  0
 22 21  1  0
 22 23  1  0
 23 24  1  0
 24 31  1  0
 31 32  1  0
 32 33  2  0
 33 34  1  0
 34 35  2  0
 34 36  1  0
 36 37  2  0
 24 25  1  0
 25 26  1  0
 25 27  1  0
 27 28  1  0
  3  6  1  0
  6  7  2  0
  7  8  1  0
  8 17  1  0
 17 18  2  0
 17 19  1  0
  8  9  2  0
  9 10  1  0
  9 11  1  0
 11 12  1  0
 11 13  2  0
 13 14  1  0
 27 22  1  0
 13  6  1  0
 37 31  1  0
  4  5  1  0
 26 29  1  0
 28 30  1  0
 12 15  1  0
 14 16  1  0
M  CHG 1  17   1
M  CHG 1  19  -1
M  END
> <minimizedAffinity>
-8.61151

> <CNNscore>
0.4908847213

> <CNNaffinity>
6.2839050293

> <CNN_VS>
3.0846729279

> <CNNaffinity_variance>
0.0075102835

$$$$



 37 39  0  0  0  0  0  0  0  0999 V2000
   39.9519   -2.5103   -7.5504 C   0  0  0  0  0  0  0  0  0  0  0  0
   37.4348   -3.6837   -6.9737 O   0  0  0  0  0  0  0  0  0  0  0  0
   38.4650   -4.2746   -6.6675 C   0  0  0  0  0  0  0  0  0  0  0  0
   39.7212   -3.7925   -6.9400 N   0  0  0  0  0  0  0  0  0  0  0  0
   40.4991   -4.3491   -6.7072 H   0  0  0  0  0  0  0  0  0  0  0  0
   38.3776   -5.5909   -5.9639 C   0  0  0  0  0  0  0  0  0  0  0  0
   39.5269   -6.0349   -5.2904 C   0  0  0  0  0  0  0  0  0  0  0  0
   39.5085   -7.2621   -4.6115 C   0  0  0  0  0  0  0  0  0  0  0  0
   38.3754   -8.0736   -4.5743 C   0  0  0  0  0  0  0  0  0  0  0  0
   38.3059   -9.7258   -3.6422 Br  0  0  0  0  0  0  0  0  0  0  0  0
   37.2388   -7.6250   -5.2478 C   0  0  0  0  0  0  0  0  0  0  0  0
   36.0648   -8.3399   -5.2799 O   0  0  0  0  0  0  0  0  0  0  0  0
   37.2358   -6.4015   -5.9352 C   0  0  0  0  0  0  0  0  0  0  0  0
   36.0719   -6.0433   -6.5726 O   0  0  0  0  0  0  0  0  0  0  0  0
   36.0063   -9.1646   -4.8389 H   0  0  0  0  0  0  0  0  0  0  0  0
   35.3246   -6.6072   -6.5350 H   0  0  0  0  0  0  0  0  0  0  0  0
   40.7189   -7.6657   -3.9388 N   0  0  0  0  0  0  0  0  0  0  0  0
   41.4948   -8.3889   -4.5749 O   0  0  0  0  0  0  0  0  0  0  0  0
   40.8721   -7.2700   -2.7772 O   0  0  0  0  0  0  0  0  0  0  0  0
   39.8834   -1.3943   -6.5423 C   0  0  0  0  0  0  0  0  0  0  0  0
   40.2788   -1.4201   -5.2557 C   0  0  0  0  0  0  0  0  0  0  0  0
   40.2009   -0.3221   -4.2258 C   0  0  0  0  0  0  0  0  0  0  0  0
   40.9097    0.8007   -4.8053 O   0  0  0  0  0  0  0  0  0  0  0  0
   40.0045    1.9141   -4.8530 C   0  0  0  0  0  0  0  0  0  0  0  0
   38.5873    1.3298   -4.7739 C   0  0  0  0  0  0  0  0  0  0  0  0
   37.5973    2.2385   -4.2865 O   0  0  0  0  0  0  0  0  0  0  0  0
   38.8163    0.1915   -3.8019 C   0  0  0  0  0  0  0  0  0  0  0  0
   38.8615    0.7190   -2.4637 O   0  0  0  0  0  0  0  0  0  0  0  0
   37.8546    2.5555   -3.4066 H   0  0  0  0  0  0  0  0  0  0  0  0
   39.5379    1.4124   -2.4122 H   0  0  0  0  0  0  0  0  0  0  0  0
   40.1808    2.7160   -6.0838 N   0  0  0  0  0  0  0  0  0  0  0  0
   40.9072    2.2131   -7.1589 C   0  0  0  0  0  0  0  0  0  0  0  0
   41.1381    2.8820   -8.2963 C   0  0  0  0  0  0  0  0  0  0  0  0
   40.5873    4.2520   -8.4229 C   0  0  0  0  0  0  0  0  0  0  0  0
   40.7773    4.9237   -9.4307 O   0  0  0  0  0  0  0  0  0  0  0  0
   39.8026    4.7808   -7.2824 C   0  0  0  0  0  0  0  0  0  0  0  0
   39.6509    3.9984   -6.2063 C   0  0  0  0  0  0  0  0  0  0  0  0
  2  3  2  0
  3  4  1  0
  4  1  1  0
  1 20  1  0
 20 21  2  0
 22 21  1  0
 22 23  1  0
 23 24  1  0
 24 31  1  0
 31 32  1  0
 32 33  2  0
 33 34  1  0
 34 35  2  0
 34 36  1  0
 36 37  2  0
 24 25  1  0
 25 26  1  0
 25 27  1  0
 27 28  1  0
  3  6  1  0
  6  7  2  0
  7  8  1  0
  8 17  1  0
 17 18  2  0
 17 19  1  0
  8  9  2  0
  9 10  1  0
  9 11  1  0
 11 12  1  0
 11 13  2  0
 13 14  1  0
 27 22  1  0
 13  6  1  0
 37 31  1  0
  4  5  1  0
 26 29  1  0
 28 30  1  0
 12 15  1  0
 14 16  1  0
M  CHG 1  17   1
M  CHG 1  19  -1
M  END
> <minimizedAffinity>
-6.43806

> <CNNscore>
0.3937602043

> <CNNaffinity>
4.9248108864

> <CNN_VS>
1.9391945601

> <CNNaffinity_variance>
0.3995347321

$$$$



 37 39  0  0  0  0  0  0  0  0999 V2000
   37.3266   -3.0312   -7.3985 C   0  0  0  0  0  0  0  0  0  0  0  0
   35.9875   -5.5263   -7.2360 O   0  0  0  0  0  0  0  0  0  0  0  0
   37.0521   -5.3686   -6.6476 C   0  0  0  0  0  0  0  0  0  0  0  0
   37.7792   -4.2054   -6.7014 N   0  0  0  0  0  0  0  0  0  0  0  0
   38.6495   -4.1734   -6.2423 H   0  0  0  0  0  0  0  0  0  0  0  0
   37.6116   -6.4851   -5.8255 C   0  0  0  0  0  0  0  0  0  0  0  0
   38.9231   -6.3338   -5.3474 C   0  0  0  0  0  0  0  0  0  0  0  0
   39.5047   -7.3465   -4.5706 C   0  0  0  0  0  0  0  0  0  0  0  0
   38.8220   -8.5176   -4.2448 C   0  0  0  0  0  0  0  0  0  0  0  0
   39.5673   -9.8955   -3.1727 Br  0  0  0  0  0  0  0  0  0  0  0  0
   37.5200   -8.6598   -4.7257 C   0  0  0  0  0  0  0  0  0  0  0  0
   36.7512   -9.7702   -4.4685 O   0  0  0  0  0  0  0  0  0  0  0  0
   36.9194   -7.6601   -5.5064 C   0  0  0  0  0  0  0  0  0  0  0  0
   35.6350   -7.8893   -5.9387 O   0  0  0  0  0  0  0  0  0  0  0  0
   37.0983  -10.4711   -3.9525 H   0  0  0  0  0  0  0  0  0  0  0  0
   35.1983   -8.6857   -5.7085 H   0  0  0  0  0  0  0  0  0  0  0  0
   40.8546   -7.1348   -4.1086 N   0  0  0  0  0  0  0  0  0  0  0  0
   41.7645   -7.5212   -4.8518 O   0  0  0  0  0  0  0  0  0  0  0  0
   40.9900   -6.6011   -3.0012 O   0  0  0  0  0  0  0  0  0  0  0  0
   37.3214   -1.8208   -6.5033 C   0  0  0  0  0  0  0  0  0  0  0  0
   38.3827   -1.1652   -5.9969 C   0  0  0  0  0  0  0  0  0  0  0  0
   38.3992    0.0344   -5.0844 C   0  0  0  0  0  0  0  0  0  0  0  0
   38.3611   -0.5037   -3.7398 O   0  0  0  0  0  0  0  0  0  0  0  0
   39.5152   -0.0161   -3.0387 C   0  0  0  0  0  0  0  0  0  0  0  0
   40.5301    0.4092   -4.1089 C   0  0  0  0  0  0  0  0  0  0  0  0
   41.4873    1.3752   -3.6683 O   0  0  0  0  0  0  0  0  0  0  0  0
   39.5987    0.9922   -5.1507 C   0  0  0  0  0  0  0  0  0  0  0  0
   39.2101    2.3168   -4.7440 O   0  0  0  0  0  0  0  0  0  0  0  0
   41.0250    2.1640   -3.3445 H   0  0  0  0  0  0  0  0  0  0  0  0
   38.8218    2.2815   -3.8558 H   0  0  0  0  0  0  0  0  0  0  0  0
   40.0889   -1.0418   -2.1400 N   0  0  0  0  0  0  0  0  0  0  0  0
   40.3829   -2.3160   -2.6158 C   0  0  0  0  0  0  0  0  0  0  0  0
   40.8764   -3.3097   -1.8652 C   0  0  0  0  0  0  0  0  0  0  0  0
   41.1260   -3.0404   -0.4294 C   0  0  0  0  0  0  0  0  0  0  0  0
   41.5605   -3.9117    0.3154 O   0  0  0  0  0  0  0  0  0  0  0  0
   40.8250   -1.6789    0.0726 C   0  0  0  0  0  0  0  0  0  0  0  0
   40.3354   -0.7828   -0.7937 C   0  0  0  0  0  0  0  0  0  0  0  0
  2  3  2  0
  3  4  1  0
  4  1  1  0
  1 20  1  0
 20 21  2  0
 22 21  1  0
 22 23  1  0
 23 24  1  0
 24 31  1  0
 31 32  1  0
 32 33  2  0
 33 34  1  0
 34 35  2  0
 34 36  1  0
 36 37  2  0
 24 25  1  0
 25 26  1  0
 25 27  1  0
 27 28  1  0
  3  6  1  0
  6  7  2  0
  7  8  1  0
  8 17  1  0
 17 18  2  0
 17 19  1  0
  8  9  2  0
  9 10  1  0
  9 11  1  0
 11 12  1  0
 11 13  2  0
 13 14  1  0
 27 22  1  0
 13  6  1  0
 37 31  1  0
  4  5  1  0
 26 29  1  0
 28 30  1  0
 12 15  1  0
 14 16  1  0
M  CHG 1  17   1
M  CHG 1  19  -1
M  END
> <minimizedAffinity>
-6.46493

> <CNNscore>
0.3787668347

> <CNNaffinity>
5.5368695259

> <CNN_VS>
2.0971825123

> <CNNaffinity_variance>
0.4076601565

$$$$



 37 39  0  0  0  0  0  0  0  0999 V2000
   35.4583   -4.2688   -8.5471 C   0  0  0  0  0  0  0  0  0  0  0  0
   34.9533   -6.6502   -7.0914 O   0  0  0  0  0  0  0  0  0  0  0  0
   36.0527   -6.1120   -7.0135 C   0  0  0  0  0  0  0  0  0  0  0  0
   36.3890   -4.9778   -7.7099 N   0  0  0  0  0  0  0  0  0  0  0  0
   37.3083   -4.6340   -7.6329 H   0  0  0  0  0  0  0  0  0  0  0  0
   37.1003   -6.7023   -6.1249 C   0  0  0  0  0  0  0  0  0  0  0  0
   38.3000   -5.9862   -5.9856 C   0  0  0  0  0  0  0  0  0  0  0  0
   39.3219   -6.4877   -5.1662 C   0  0  0  0  0  0  0  0  0  0  0  0
   39.1933   -7.6881   -4.4689 C   0  0  0  0  0  0  0  0  0  0  0  0
   40.5435   -8.3824   -3.3294 Br  0  0  0  0  0  0  0  0  0  0  0  0
   37.9984   -8.3935   -4.6149 C   0  0  0  0  0  0  0  0  0  0  0  0
   37.7589   -9.5876   -3.9765 O   0  0  0  0  0  0  0  0  0  0  0  0
   36.9638   -7.9113   -5.4313 C   0  0  0  0  0  0  0  0  0  0  0  0
   35.8247   -8.6757   -5.5169 O   0  0  0  0  0  0  0  0  0  0  0  0
   38.4128   -9.9596   -3.4180 H   0  0  0  0  0  0  0  0  0  0  0  0
   35.7635   -9.4803   -5.0406 H   0  0  0  0  0  0  0  0  0  0  0  0
   40.5313   -5.7085   -5.0628 N   0  0  0  0  0  0  0  0  0  0  0  0
   41.4212   -5.9496   -5.8872 O   0  0  0  0  0  0  0  0  0  0  0  0
   40.5850   -4.8770   -4.1489 O   0  0  0  0  0  0  0  0  0  0  0  0
   36.0974   -3.0716   -9.1989 C   0  0  0  0  0  0  0  0  0  0  0  0
   36.2818   -2.8492  -10.5138 C   0  0  0  0  0  0  0  0  0  0  0  0
   36.9359   -1.6687  -11.1852 C   0  0  0  0  0  0  0  0  0  0  0  0
   38.3428   -2.0044  -11.2698 O   0  0  0  0  0  0  0  0  0  0  0  0
   38.7250   -1.9490  -12.6526 C   0  0  0  0  0  0  0  0  0  0  0  0
   37.4321   -2.0782  -13.4697 C   0  0  0  0  0  0  0  0  0  0  0  0
   37.5079   -1.5353  -14.7900 O   0  0  0  0  0  0  0  0  0  0  0  0
   36.4806   -1.2827  -12.6010 C   0  0  0  0  0  0  0  0  0  0  0  0
   36.6941    0.1212  -12.8346 O   0  0  0  0  0  0  0  0  0  0  0  0
   37.7547   -0.5985  -14.7407 H   0  0  0  0  0  0  0  0  0  0  0  0
   37.6276    0.3361  -12.6817 H   0  0  0  0  0  0  0  0  0  0  0  0
   39.6844   -3.0194  -13.0030 N   0  0  0  0  0  0  0  0  0  0  0  0
   40.0085   -4.0099  -12.0807 C   0  0  0  0  0  0  0  0  0  0  0  0
   40.8860   -4.9966  -12.3058 C   0  0  0  0  0  0  0  0  0  0  0  0
   41.5626   -5.0401  -13.6237 C   0  0  0  0  0  0  0  0  0  0  0  0
   42.3887   -5.9068  -13.8867 O   0  0  0  0  0  0  0  0  0  0  0  0
   41.2062   -3.9924  -14.6094 C   0  0  0  0  0  0  0  0  0  0  0  0
   40.3093   -3.0665  -14.2470 C   0  0  0  0  0  0  0  0  0  0  0  0
  2  3  2  0
  3  4  1  0
  4  1  1  0
  1 20  1  0
 20 21  2  0
 22 21  1  0
 22 23  1  0
 23 24  1  0
 24 31  1  0
 31 32  1  0
 32 33  2  0
 33 34  1  0
 34 35  2  0
 34 36  1  0
 36 37  2  0
 24 25  1  0
 25 26  1  0
 25 27  1  0
 27 28  1  0
  3  6  1  0
  6  7  2  0
  7  8  1  0
  8 17  1  0
 17 18  2  0
 17 19  1  0
  8  9  2  0
  9 10  1  0
  9 11  1  0
 11 12  1  0
 11 13  2  0
 13 14  1  0
 27 22  1  0
 13  6  1  0
 37 31  1  0
  4  5  1  0
 26 29  1  0
 28 30  1  0
 12 15  1  0
 14 16  1  0
M  CHG 1  17   1
M  CHG 1  19  -1
M  END
> <minimizedAffinity>
-7.51144

> <CNNscore>
0.3646246195

> <CNNaffinity>
5.6550593376

> <CNN_VS>
2.0619738102

> <CNNaffinity_variance>
0.0945365354

$$$$



 37 39  0  0  0  0  0  0  0  0999 V2000
   40.6709   -1.1573  -14.6630 C   0  0  0  0  0  0  0  0  0  0  0  0
   43.2058   -2.1058  -15.5116 O   0  0  0  0  0  0  0  0  0  0  0  0
   43.0432   -1.7680  -14.3437 C   0  0  0  0  0  0  0  0  0  0  0  0
   41.8596   -1.2680  -13.8603 N   0  0  0  0  0  0  0  0  0  0  0  0
   41.8226   -0.9719  -12.9221 H   0  0  0  0  0  0  0  0  0  0  0  0
   44.1764   -1.8931  -13.3763 C   0  0  0  0  0  0  0  0  0  0  0  0
   45.4651   -2.0381  -13.9145 C   0  0  0  0  0  0  0  0  0  0  0  0
   46.5698   -2.1606  -13.0590 C   0  0  0  0  0  0  0  0  0  0  0  0
   46.4401   -2.1413  -11.6709 C   0  0  0  0  0  0  0  0  0  0  0  0
   47.9152   -2.2758  -10.4836 Br  0  0  0  0  0  0  0  0  0  0  0  0
   45.1556   -1.9986  -11.1454 C   0  0  0  0  0  0  0  0  0  0  0  0
   44.9063   -1.9662   -9.7936 O   0  0  0  0  0  0  0  0  0  0  0  0
   44.0361   -1.8767  -11.9829 C   0  0  0  0  0  0  0  0  0  0  0  0
   42.8103   -1.7440  -11.3757 O   0  0  0  0  0  0  0  0  0  0  0  0
   45.6143   -2.0430   -9.1847 H   0  0  0  0  0  0  0  0  0  0  0  0
   42.7490   -1.7365  -10.4407 H   0  0  0  0  0  0  0  0  0  0  0  0
   47.8682   -2.3074  -13.6697 N   0  0  0  0  0  0  0  0  0  0  0  0
   48.6043   -1.3136  -13.6587 O   0  0  0  0  0  0  0  0  0  0  0  0
   48.1308   -3.4082  -14.1686 O   0  0  0  0  0  0  0  0  0  0  0  0
   39.4872   -1.8054  -13.9958 C   0  0  0  0  0  0  0  0  0  0  0  0
   38.9150   -1.4694  -12.8244 C   0  0  0  0  0  0  0  0  0  0  0  0
   37.7438   -2.1164  -12.1301 C   0  0  0  0  0  0  0  0  0  0  0  0
   36.9158   -1.0206  -11.6692 O   0  0  0  0  0  0  0  0  0  0  0  0
   35.6086   -1.1882  -12.2388 C   0  0  0  0  0  0  0  0  0  0  0  0
   35.7767   -2.1056  -13.4579 C   0  0  0  0  0  0  0  0  0  0  0  0
   34.5915   -2.8075  -13.8402 O   0  0  0  0  0  0  0  0  0  0  0  0
   36.8362   -3.0553  -12.9397 C   0  0  0  0  0  0  0  0  0  0  0  0
   36.2154   -4.0253  -12.0768 O   0  0  0  0  0  0  0  0  0  0  0  0
   34.2735   -3.3366  -13.0919 H   0  0  0  0  0  0  0  0  0  0  0  0
   35.7296   -3.5678  -11.3728 H   0  0  0  0  0  0  0  0  0  0  0  0
   35.0058    0.1060  -12.6267 N   0  0  0  0  0  0  0  0  0  0  0  0
   35.2982    1.2654  -11.9147 C   0  0  0  0  0  0  0  0  0  0  0  0
   34.7755    2.4697  -12.1805 C   0  0  0  0  0  0  0  0  0  0  0  0
   33.8185    2.5807  -13.3067 C   0  0  0  0  0  0  0  0  0  0  0  0
   33.2917    3.6505  -13.5911 O   0  0  0  0  0  0  0  0  0  0  0  0
   33.5187    1.3478  -14.0723 C   0  0  0  0  0  0  0  0  0  0  0  0
   34.1168    0.2110  -13.6940 C   0  0  0  0  0  0  0  0  0  0  0  0
  2  3  2  0
  3  4  1  0
  4  1  1  0
  1 20  1  0
 20 21  2  0
 22 21  1  0
 22 23  1  0
 23 24  1  0
 24 31  1  0
 31 32  1  0
 32 33  2  0
 33 34  1  0
 34 35  2  0
 34 36  1  0
 36 37  2  0
 24 25  1  0
 25 26  1  0
 25 27  1  0
 27 28  1  0
  3  6  1  0
  6  7  2  0
  7  8  1  0
  8 17  1  0
 17 18  2  0
 17 19  1  0
  8  9  2  0
  9 10  1  0
  9 11  1  0
 11 12  1  0
 11 13  2  0
 13 14  1  0
 27 22  1  0
 13  6  1  0
 37 31  1  0
  4  5  1  0
 26 29  1  0
 28 30  1  0
 12 15  1  0
 14 16  1  0
M  CHG 1  17   1
M  CHG 1  19  -1
M  END
> <minimizedAffinity>
-6.49793

> <CNNscore>
0.3569326401

> <CNNaffinity>
5.8148427010

> <CNN_VS>
2.0755071640

> <CNNaffinity_variance>
0.0141388206

$$$$



 37 39  0  0  0  0  0  0  0  0999 V2000
   35.7599   -3.5844   -8.7006 C   0  0  0  0  0  0  0  0  0  0  0  0
   37.5469   -4.0955   -6.5580 O   0  0  0  0  0  0  0  0  0  0  0  0
   37.5362   -2.9903   -7.0897 C   0  0  0  0  0  0  0  0  0  0  0  0
   36.7269   -2.6714   -8.1518 N   0  0  0  0  0  0  0  0  0  0  0  0
   36.8121   -1.7779   -8.5562 H   0  0  0  0  0  0  0  0  0  0  0  0
   38.4432   -1.9177   -6.5775 C   0  0  0  0  0  0  0  0  0  0  0  0
   38.0201   -1.2094   -5.4414 C   0  0  0  0  0  0  0  0  0  0  0  0
   38.8265   -0.1909   -4.9126 C   0  0  0  0  0  0  0  0  0  0  0  0
   40.0545    0.1525   -5.4764 C   0  0  0  0  0  0  0  0  0  0  0  0
   41.1842    1.5053   -4.7710 Br  0  0  0  0  0  0  0  0  0  0  0  0
   40.4657   -0.5555   -6.6060 C   0  0  0  0  0  0  0  0  0  0  0  0
   41.6564   -0.3047   -7.2462 O   0  0  0  0  0  0  0  0  0  0  0  0
   39.6737   -1.5768   -7.1529 C   0  0  0  0  0  0  0  0  0  0  0  0
   40.1585   -2.2168   -8.2685 O   0  0  0  0  0  0  0  0  0  0  0  0
   42.2277    0.3659   -6.9270 H   0  0  0  0  0  0  0  0  0  0  0  0
   40.9856   -1.9659   -8.6303 H   0  0  0  0  0  0  0  0  0  0  0  0
   38.3390    0.5018   -3.7451 N   0  0  0  0  0  0  0  0  0  0  0  0
   38.5625   -0.0275   -2.6499 O   0  0  0  0  0  0  0  0  0  0  0  0
   37.7236    1.5573   -3.9368 O   0  0  0  0  0  0  0  0  0  0  0  0
   35.7478   -3.5430  -10.2054 C   0  0  0  0  0  0  0  0  0  0  0  0
   35.5886   -2.4674  -10.9993 C   0  0  0  0  0  0  0  0  0  0  0  0
   35.5534   -2.4070  -12.5051 C   0  0  0  0  0  0  0  0  0  0  0  0
   34.5273   -1.4365  -12.8279 O   0  0  0  0  0  0  0  0  0  0  0  0
   35.1315   -0.4079  -13.6268 C   0  0  0  0  0  0  0  0  0  0  0  0
   36.6424   -0.4821  -13.3664 C   0  0  0  0  0  0  0  0  0  0  0  0
   37.4519    0.0637  -14.4106 O   0  0  0  0  0  0  0  0  0  0  0  0
   36.8257   -1.9810  -13.2538 C   0  0  0  0  0  0  0  0  0  0  0  0
   36.8490   -2.5515  -14.5748 O   0  0  0  0  0  0  0  0  0  0  0  0
   37.2553   -0.3921  -15.2439 H   0  0  0  0  0  0  0  0  0  0  0  0
   36.0438   -2.2959  -15.0516 H   0  0  0  0  0  0  0  0  0  0  0  0
   34.6002    0.9323  -13.2944 N   0  0  0  0  0  0  0  0  0  0  0  0
   33.5615    1.4865  -14.0364 C   0  0  0  0  0  0  0  0  0  0  0  0
   33.0415    2.7021  -13.8213 C   0  0  0  0  0  0  0  0  0  0  0  0
   33.6086    3.5178  -12.7215 C   0  0  0  0  0  0  0  0  0  0  0  0
   33.1893    4.6449  -12.4836 O   0  0  0  0  0  0  0  0  0  0  0  0
   34.7056    2.9207  -11.9238 C   0  0  0  0  0  0  0  0  0  0  0  0
   35.1254    1.6921  -12.2518 C   0  0  0  0  0  0  0  0  0  0  0  0
  2  3  2  0
  3  4  1  0
  4  1  1  0
  1 20  1  0
 20 21  2  0
 22 21  1  0
 22 23  1  0
 23 24  1  0
 24 31  1  0
 31 32  1  0
 32 33  2  0
 33 34  1  0
 34 35  2  0
 34 36  1  0
 36 37  2  0
 24 25  1  0
 25 26  1  0
 25 27  1  0
 27 28  1  0
  3  6  1  0
  6  7  2  0
  7  8  1  0
  8 17  1  0
 17 18  2  0
 17 19  1  0
  8  9  2  0
  9 10  1  0
  9 11  1  0
 11 12  1  0
 11 13  2  0
 13 14  1  0
 27 22  1  0
 13  6  1  0
 37 31  1  0
  4  5  1  0
 26 29  1  0
 28 30  1  0
 12 15  1  0
 14 16  1  0
M  CHG 1  17   1
M  CHG 1  19  -1
M  END
> <minimizedAffinity>
-9.53123

> <CNNscore>
0.3434306979

> <CNNaffinity>
5.8832688332

> <CNN_VS>
2.0204951763

> <CNNaffinity_variance>
0.2063887864

$$$$



 37 39  0  0  0  0  0  0  0  0999 V2000
   43.8777   -5.3945   -9.8177 C   0  0  0  0  0  0  0  0  0  0  0  0
   42.6394   -6.8075   -7.6927 O   0  0  0  0  0  0  0  0  0  0  0  0
   43.5337   -7.3433   -8.3389 C   0  0  0  0  0  0  0  0  0  0  0  0
   44.1611   -6.7423   -9.4018 N   0  0  0  0  0  0  0  0  0  0  0  0
   44.8353   -7.2567   -9.9019 H   0  0  0  0  0  0  0  0  0  0  0  0
   43.9806   -8.7228   -7.9744 C   0  0  0  0  0  0  0  0  0  0  0  0
   43.7783   -9.1318   -6.6465 C   0  0  0  0  0  0  0  0  0  0  0  0
   44.1763  -10.4145   -6.2423 C   0  0  0  0  0  0  0  0  0  0  0  0
   44.7730  -11.3184   -7.1202 C   0  0  0  0  0  0  0  0  0  0  0  0
   45.2981  -13.0713   -6.6152 Br  0  0  0  0  0  0  0  0  0  0  0  0
   44.9716  -10.9024   -8.4371 C   0  0  0  0  0  0  0  0  0  0  0  0
   45.5498  -11.7072   -9.3903 O   0  0  0  0  0  0  0  0  0  0  0  0
   44.5830   -9.6227   -8.8625 C   0  0  0  0  0  0  0  0  0  0  0  0
   44.8216   -9.2996  -10.1769 O   0  0  0  0  0  0  0  0  0  0  0  0
   45.8298  -12.5726   -9.1655 H   0  0  0  0  0  0  0  0  0  0  0  0
   45.2265   -9.9236  -10.7467 H   0  0  0  0  0  0  0  0  0  0  0  0
   43.9433  -10.7779   -4.8660 N   0  0  0  0  0  0  0  0  0  0  0  0
   44.8571  -10.5439   -4.0660 O   0  0  0  0  0  0  0  0  0  0  0  0
   42.8576  -11.3086   -4.6033 O   0  0  0  0  0  0  0  0  0  0  0  0
   43.6243   -5.3117  -11.2993 C   0  0  0  0  0  0  0  0  0  0  0  0
   42.4370   -5.2432  -11.9302 C   0  0  0  0  0  0  0  0  0  0  0  0
   42.1610   -5.1797  -13.4107 C   0  0  0  0  0  0  0  0  0  0  0  0
   40.7604   -4.8277  -13.5268 O   0  0  0  0  0  0  0  0  0  0  0  0
   40.6736   -3.6205  -14.2990 C   0  0  0  0  0  0  0  0  0  0  0  0
   42.0536   -2.9526  -14.2239 C   0  0  0  0  0  0  0  0  0  0  0  0
   42.3412   -2.0619  -15.3043 O   0  0  0  0  0  0  0  0  0  0  0  0
   42.9490   -4.1731  -14.2630 C   0  0  0  0  0  0  0  0  0  0  0  0
   43.0534   -4.6351  -15.6220 O   0  0  0  0  0  0  0  0  0  0  0  0
   42.2704   -2.5402  -16.1453 H   0  0  0  0  0  0  0  0  0  0  0  0
   42.1656   -4.7963  -15.9778 H   0  0  0  0  0  0  0  0  0  0  0  0
   39.6174   -2.7165  -13.7926 N   0  0  0  0  0  0  0  0  0  0  0  0
   38.9273   -3.0189  -12.6227 C   0  0  0  0  0  0  0  0  0  0  0  0
   37.9403   -2.2718  -12.1108 C   0  0  0  0  0  0  0  0  0  0  0  0
   37.5509   -1.0397  -12.8366 C   0  0  0  0  0  0  0  0  0  0  0  0
   36.6442   -0.3215  -12.4306 O   0  0  0  0  0  0  0  0  0  0  0  0
   38.2960   -0.7123  -14.0751 C   0  0  0  0  0  0  0  0  0  0  0  0
   39.2619   -1.5519  -14.4691 C   0  0  0  0  0  0  0  0  0  0  0  0
  2  3  2  0
  3  4  1  0
  4  1  1  0
  1 20  1  0
 20 21  2  0
 22 21  1  0
 22 23  1  0
 23 24  1  0
 24 31  1  0
 31 32  1  0
 32 33  2  0
 33 34  1  0
 34 35  2  0
 34 36  1  0
 36 37  2  0
 24 25  1  0
 25 26  1  0
 25 27  1  0
 27 28  1  0
  3  6  1  0
  6  7  2  0
  7  8  1  0
  8 17  1  0
 17 18  2  0
 17 19  1  0
  8  9  2  0
  9 10  1  0
  9 11  1  0
 11 12  1  0
 11 13  2  0
 13 14  1  0
 27 22  1  0
 13  6  1  0
 37 31  1  0
  4  5  1  0
 26 29  1  0
 28 30  1  0
 12 15  1  0
 14 16  1  0
M  CHG 1  17   1
M  CHG 1  19  -1
M  END
> <minimizedAffinity>
-5.47895

> <CNNscore>
0.3351299763

> <CNNaffinity>
4.8796248436

> <CNN_VS>
1.6353085041

> <CNNaffinity_variance>
0.0429340452

$$$$



 37 39  0  0  0  0  0  0  0  0999 V2000
   45.2931   -7.3863  -10.2117 C   0  0  0  0  0  0  0  0  0  0  0  0
   43.4464   -8.9328   -8.7139 O   0  0  0  0  0  0  0  0  0  0  0  0
   44.5368   -9.4089   -9.0116 C   0  0  0  0  0  0  0  0  0  0  0  0
   45.4730   -8.7406   -9.7610 N   0  0  0  0  0  0  0  0  0  0  0  0
   46.3050   -9.2092  -10.0007 H   0  0  0  0  0  0  0  0  0  0  0  0
   44.8892  -10.7870   -8.5511 C   0  0  0  0  0  0  0  0  0  0  0  0
   44.6453  -11.0938   -7.2029 C   0  0  0  0  0  0  0  0  0  0  0  0
   44.9547  -12.3700   -6.7098 C   0  0  0  0  0  0  0  0  0  0  0  0
   45.5018  -13.3660   -7.5176 C   0  0  0  0  0  0  0  0  0  0  0  0
   45.9064  -15.1118   -6.8914 Br  0  0  0  0  0  0  0  0  0  0  0  0
   45.7422  -13.0512   -8.8554 C   0  0  0  0  0  0  0  0  0  0  0  0
   46.2782  -13.9523   -9.7449 O   0  0  0  0  0  0  0  0  0  0  0  0
   45.4423  -11.7802   -9.3692 C   0  0  0  0  0  0  0  0  0  0  0  0
   45.7167  -11.5603  -10.6979 O   0  0  0  0  0  0  0  0  0  0  0  0
   46.4990  -14.8172   -9.4599 H   0  0  0  0  0  0  0  0  0  0  0  0
   46.0869  -12.2451  -11.2194 H   0  0  0  0  0  0  0  0  0  0  0  0
   44.6827  -12.6262   -5.3167 N   0  0  0  0  0  0  0  0  0  0  0  0
   43.5553  -13.0520   -5.0387 O   0  0  0  0  0  0  0  0  0  0  0  0
   45.5922  -12.3828   -4.5148 O   0  0  0  0  0  0  0  0  0  0  0  0
   44.6869   -7.3346  -11.5887 C   0  0  0  0  0  0  0  0  0  0  0  0
   44.5381   -6.2587  -12.3842 C   0  0  0  0  0  0  0  0  0  0  0  0
   43.9171   -6.1818  -13.7556 C   0  0  0  0  0  0  0  0  0  0  0  0
   42.4933   -6.0423  -13.5265 O   0  0  0  0  0  0  0  0  0  0  0  0
   42.0613   -4.8339  -14.1701 C   0  0  0  0  0  0  0  0  0  0  0  0
   43.3140   -3.9676  -14.3609 C   0  0  0  0  0  0  0  0  0  0  0  0
   43.2140   -3.0032  -15.4113 O   0  0  0  0  0  0  0  0  0  0  0  0
   44.3359   -5.0356  -14.6891 C   0  0  0  0  0  0  0  0  0  0  0  0
   44.1824   -5.4246  -16.0662 O   0  0  0  0  0  0  0  0  0  0  0  0
   43.0155   -3.4544  -16.2467 H   0  0  0  0  0  0  0  0  0  0  0  0
   43.2672   -5.7050  -16.2229 H   0  0  0  0  0  0  0  0  0  0  0  0
   41.0380   -4.1206  -13.3743 N   0  0  0  0  0  0  0  0  0  0  0  0
   39.9019   -3.5991  -13.9857 C   0  0  0  0  0  0  0  0  0  0  0  0
   38.9428   -2.9171  -13.3460 C   0  0  0  0  0  0  0  0  0  0  0  0
   39.0980   -2.6976  -11.8885 C   0  0  0  0  0  0  0  0  0  0  0  0
   38.2649   -2.0669  -11.2476 O   0  0  0  0  0  0  0  0  0  0  0  0
   40.3019   -3.2652  -11.2367 C   0  0  0  0  0  0  0  0  0  0  0  0
   41.1790   -3.9269  -12.0021 C   0  0  0  0  0  0  0  0  0  0  0  0
  2  3  2  0
  3  4  1  0
  4  1  1  0
  1 20  1  0
 20 21  2  0
 22 21  1  0
 22 23  1  0
 23 24  1  0
 24 31  1  0
 31 32  1  0
 32 33  2  0
 33 34  1  0
 34 35  2  0
 34 36  1  0
 36 37  2  0
 24 25  1  0
 25 26  1  0
 25 27  1  0
 27 28  1  0
  3  6  1  0
  6  7  2  0
  7  8  1  0
  8 17  1  0
 17 18  2  0
 17 19  1  0
  8  9  2  0
  9 10  1  0
  9 11  1  0
 11 12  1  0
 11 13  2  0
 13 14  1  0
 27 22  1  0
 13  6  1  0
 37 31  1  0
  4  5  1  0
 26 29  1  0
 28 30  1  0
 12 15  1  0
 14 16  1  0
M  CHG 1  17   1
M  CHG 1  19  -1
M  END
> <minimizedAffinity>
-5.35127

> <CNNscore>
0.2901314497

> <CNNaffinity>
4.6580414772

> <CNN_VS>
1.3514443636

> <CNNaffinity_variance>
0.1787119359

$$$$
