


 60 64  0  0  0  0  0  0  0  0999 V2000
  -28.5893  -31.6384   16.4502 P   0  0  0  0  0  0  0  0  0  0  0  0
  -29.8022  -32.2501   15.7861 O   0  0  0  0  0  0  0  0  0  0  0  0
  -27.9241  -32.3865   17.5859 O   0  0  0  0  0  0  0  0  0  0  0  0
  -27.4838  -31.3661   15.3310 O   0  0  0  0  0  0  0  0  0  0  0  0
  -26.7285  -32.2262   14.2287 P   0  0  0  0  0  0  0  0  0  0  0  0
  -26.2615  -31.3791   13.0664 O   0  0  0  0  0  0  0  0  0  0  0  0
  -27.4900  -33.4926   13.9497 O   0  0  0  0  0  0  0  0  0  0  0  0
  -25.4021  -32.6209   15.1037 O   0  0  0  0  0  0  0  0  0  0  0  0
  -22.6294  -33.9932   15.4894 C   0  0  0  0  0  0  0  0  0  0  0  0
  -23.0431  -32.5351   15.4557 C   0  0  0  0  0  0  0  0  0  0  0  0
  -24.1567  -32.5289   14.4289 C   0  0  0  0  0  0  0  0  0  0  0  0
  -23.9153  -33.7934   13.5951 C   0  0  0  0  0  0  0  0  0  0  0  0
  -22.7170  -34.4420   14.1238 O   0  0  0  0  0  0  0  0  0  0  0  0
  -17.7211  -33.4000   14.9598 C   0  0  0  0  0  0  0  0  0  0  0  0
  -18.9262  -33.8604   15.7180 C   0  0  0  0  0  0  0  0  0  0  0  0
  -20.1807  -33.7637   15.2691 C   0  0  0  0  0  0  0  0  0  0  0  0
  -21.2733  -34.1936   15.9945 N   0  0  0  0  0  0  0  0  0  0  0  0
  -21.1289  -34.6847   17.2838 C   0  0  0  0  0  0  0  0  0  0  0  0
  -22.0542  -34.9604   18.0401 O   0  0  0  0  0  0  0  0  0  0  0  0
  -19.8378  -34.8534   17.7141 N   0  0  0  0  0  0  0  0  0  0  0  0
  -18.7100  -34.4638   17.0495 C   0  0  0  0  0  0  0  0  0  0  0  0
  -17.5898  -34.5866   17.5333 O   0  0  0  0  0  0  0  0  0  0  0  0
  -19.7120  -35.2970   18.5840 H   0  0  0  0  0  0  0  0  0  0  0  0
  -23.7565  -33.4935   12.0980 C   0  0  0  0  0  0  0  0  0  0  0  0
  -22.3834  -33.6402   11.7359 O   0  0  0  0  0  0  0  0  0  0  0  0
  -21.5891  -32.3572   11.1940 P   0  0  0  0  0  0  0  0  0  0  0  0
  -20.1607  -32.5955   10.8335 O   0  0  0  0  0  0  0  0  0  0  0  0
  -21.8374  -31.2777   12.3495 O   0  0  0  0  0  0  0  0  0  0  0  0
  -22.4699  -31.7717    9.9985 O   0  0  0  0  0  0  0  0  0  0  0  0
  -21.3415  -31.5335   13.1429 H   0  0  0  0  0  0  0  0  0  0  0  0
  -22.3962  -32.3549    9.2268 H   0  0  0  0  0  0  0  0  0  0  0  0
  -28.9748  -30.1705   16.9937 O   0  0  0  0  0  0  0  0  0  0  0  0
  -29.6716  -29.2601   16.1668 C   0  0  0  0  0  0  0  0  0  0  0  0
  -30.6702  -28.4463   17.0257 C   0  0  0  0  0  0  0  0  0  0  0  0
  -30.0584  -27.1489   17.3246 O   0  0  0  0  0  0  0  0  0  0  0  0
  -30.7505  -26.1445   16.5473 C   0  0  0  0  0  0  0  0  0  0  0  0
  -31.5418  -26.8990   15.4784 C   0  0  0  0  0  0  0  0  0  0  0  0
  -32.6357  -26.1627   14.9346 O   0  0  0  0  0  0  0  0  0  0  0  0
  -31.9825  -28.1112   16.3010 C   0  0  0  0  0  0  0  0  0  0  0  0
  -33.2313  -25.8923   15.6509 H   0  0  0  0  0  0  0  0  0  0  0  0
  -29.8033  -25.1808   16.0300 N   0  0  0  0  0  0  0  0  0  0  0  0
  -29.5933  -23.8975   16.4647 C   0  0  0  0  0  0  0  0  0  0  0  0
  -28.6738  -23.2745   15.7481 N   0  0  0  0  0  0  0  0  0  0  0  0
  -28.2823  -24.2010   14.8053 C   0  0  0  0  0  0  0  0  0  0  0  0
  -27.3394  -24.1501   13.7693 C   0  0  0  0  0  0  0  0  0  0  0  0
  -26.5889  -23.0105   13.4884 N   0  0  0  0  0  0  0  0  0  0  0  0
  -27.1275  -25.2581   13.0251 N   0  0  0  0  0  0  0  0  0  0  0  0
  -27.8772  -26.3580   13.2801 C   0  0  0  0  0  0  0  0  0  0  0  0
  -27.5425  -27.8701   12.1780 Br  0  0  0  0  0  0  0  0  0  0  0  0
  -28.8252  -26.5039   14.2272 N   0  0  0  0  0  0  0  0  0  0  0  0
  -28.9651  -25.3930   14.9651 C   0  0  0  0  0  0  0  0  0  0  0  0
  -26.7237  -22.1900   14.0155 H   0  0  0  0  0  0  0  0  0  0  0  0
  -25.9237  -23.0256   12.7627 H   0  0  0  0  0  0  0  0  0  0  0  0
  -32.9997  -27.6550   17.1905 O   0  0  0  0  0  0  0  0  0  0  0  0
  -34.4389  -28.3512   17.2062 P   0  0  0  0  0  0  0  0  0  0  0  0
  -35.3604  -28.1070   16.0649 O   0  0  0  0  0  0  0  0  0  0  0  0
  -34.9998  -28.2053   18.6884 O   0  0  0  0  0  0  0  0  0  0  0  0
  -34.0025  -29.8995   17.3105 O   0  0  0  0  0  0  0  0  0  0  0  0
  -35.3232  -27.3009   18.8241 H   0  0  0  0  0  0  0  0  0  0  0  0
  -33.6209  -30.1855   16.4658 H   0  0  0  0  0  0  0  0  0  0  0  0
 14 15  1  0
 15 16  2  0
 16 17  1  0
  9 17  1  0
  9 10  1  0
 10 11  1  0
 11  8  1  0
  8  5  1  0
  5  6  2  0
  5  7  1  0
  5  4  1  0
  4  1  1  0
  1  2  2  0
  1  3  1  0
  1 32  1  0
 32 33  1  0
 34 33  1  0
 34 35  1  0
 35 36  1  0
 36 41  1  0
 41 42  1  0
 42 43  2  0
 43 44  1  0
 44 45  2  0
 45 46  1  0
 45 47  1  0
 47 48  2  0
 48 49  1  0
 48 50  1  0
 50 51  2  0
 36 37  1  0
 37 38  1  0
 37 39  1  0
 39 54  1  0
 54 55  1  0
 55 56  2  0
 55 57  1  0
 55 58  1  0
 11 12  1  0
 12 24  1  0
 24 25  1  0
 25 26  1  0
 26 27  2  0
 26 28  1  0
 26 29  1  0
 12 13  1  0
 17 18  1  0
 18 19  2  0
 18 20  1  0
 20 21  1  0
 21 22  2  0
 21 15  1  0
 13  9  1  0
 39 34  1  0
 51 41  1  0
 51 44  1  0
 46 52  1  0
 46 53  1  0
 38 40  1  0
 57 59  1  0
 58 60  1  0
 28 30  1  0
 29 31  1  0
 20 23  1  0
M  CHG 1   3  -1
M  CHG 1   7  -1
M  END
> <minimizedAffinity>
-7.70805

> <CNNscore>
0.8637747765

> <CNNaffinity>
6.3914227486

> <CNN_VS>
5.5207495689

> <CNNaffinity_variance>
0.2599687874

$$$$



 60 64  0  0  0  0  0  0  0  0999 V2000
  -29.0681  -33.9842   13.7174 P   0  0  0  0  0  0  0  0  0  0  0  0
  -30.5189  -34.2290   14.0663 O   0  0  0  0  0  0  0  0  0  0  0  0
  -28.1659  -35.1748   13.4713 O   0  0  0  0  0  0  0  0  0  0  0  0
  -29.0100  -33.0515   12.4230 O   0  0  0  0  0  0  0  0  0  0  0  0
  -29.3478  -33.2077   10.8781 P   0  0  0  0  0  0  0  0  0  0  0  0
  -30.6891  -32.6054   10.5245 O   0  0  0  0  0  0  0  0  0  0  0  0
  -29.0302  -34.6037   10.4179 O   0  0  0  0  0  0  0  0  0  0  0  0
  -28.1962  -32.2086   10.2813 O   0  0  0  0  0  0  0  0  0  0  0  0
  -27.1854  -29.3213   10.8828 C   0  0  0  0  0  0  0  0  0  0  0  0
  -28.5315  -29.9877   11.0884 C   0  0  0  0  0  0  0  0  0  0  0  0
  -28.6301  -30.9138    9.8937 C   0  0  0  0  0  0  0  0  0  0  0  0
  -27.6585  -30.3186    8.8670 C   0  0  0  0  0  0  0  0  0  0  0  0
  -27.0792  -29.1156    9.4614 O   0  0  0  0  0  0  0  0  0  0  0  0
  -29.2523  -25.6952   13.5852 C   0  0  0  0  0  0  0  0  0  0  0  0
  -28.0863  -26.3409   12.9050 C   0  0  0  0  0  0  0  0  0  0  0  0
  -28.1594  -27.4701   12.1948 C   0  0  0  0  0  0  0  0  0  0  0  0
  -27.0642  -28.0444   11.5823 N   0  0  0  0  0  0  0  0  0  0  0  0
  -25.7932  -27.5118   11.7414 C   0  0  0  0  0  0  0  0  0  0  0  0
  -24.7564  -28.0330   11.3443 O   0  0  0  0  0  0  0  0  0  0  0  0
  -25.7300  -26.3140   12.4061 N   0  0  0  0  0  0  0  0  0  0  0  0
  -26.7694  -25.6816   13.0267 C   0  0  0  0  0  0  0  0  0  0  0  0
  -26.6184  -24.6439   13.6626 O   0  0  0  0  0  0  0  0  0  0  0  0
  -24.8530  -25.8680   12.4391 H   0  0  0  0  0  0  0  0  0  0  0  0
  -28.3378  -29.9922    7.5297 C   0  0  0  0  0  0  0  0  0  0  0  0
  -29.7533  -29.9841    7.7151 O   0  0  0  0  0  0  0  0  0  0  0  0
  -30.6261  -28.8925    6.9295 P   0  0  0  0  0  0  0  0  0  0  0  0
  -31.8604  -28.4351    7.6327 O   0  0  0  0  0  0  0  0  0  0  0  0
  -30.8612  -29.5893    5.5077 O   0  0  0  0  0  0  0  0  0  0  0  0
  -29.6174  -27.7127    6.5577 O   0  0  0  0  0  0  0  0  0  0  0  0
  -31.4710  -30.3366    5.6107 H   0  0  0  0  0  0  0  0  0  0  0  0
  -29.3985  -27.2102    7.3581 H   0  0  0  0  0  0  0  0  0  0  0  0
  -28.3934  -33.0938   14.8796 O   0  0  0  0  0  0  0  0  0  0  0  0
  -27.2578  -33.5660   15.5764 C   0  0  0  0  0  0  0  0  0  0  0  0
  -27.5103  -33.4626   17.1006 C   0  0  0  0  0  0  0  0  0  0  0  0
  -26.3960  -34.1184   17.7899 O   0  0  0  0  0  0  0  0  0  0  0  0
  -25.5893  -33.0876   18.4055 C   0  0  0  0  0  0  0  0  0  0  0  0
  -26.0126  -31.7682   17.7590 C   0  0  0  0  0  0  0  0  0  0  0  0
  -25.7023  -30.6127   18.5356 O   0  0  0  0  0  0  0  0  0  0  0  0
  -27.5159  -32.0215   17.6322 C   0  0  0  0  0  0  0  0  0  0  0  0
  -26.1111  -30.6925   19.4116 H   0  0  0  0  0  0  0  0  0  0  0  0
  -24.1856  -33.4076   18.2621 N   0  0  0  0  0  0  0  0  0  0  0  0
  -23.3341  -33.8870   19.2239 C   0  0  0  0  0  0  0  0  0  0  0  0
  -22.1036  -34.0401   18.7664 N   0  0  0  0  0  0  0  0  0  0  0  0
  -22.1693  -33.6320   17.4512 C   0  0  0  0  0  0  0  0  0  0  0  0
  -21.2047  -33.5651   16.4363 C   0  0  0  0  0  0  0  0  0  0  0  0
  -19.8719  -33.9168   16.6386 N   0  0  0  0  0  0  0  0  0  0  0  0
  -21.5836  -33.1676   15.2015 N   0  0  0  0  0  0  0  0  0  0  0  0
  -22.8739  -32.7989   15.0115 C   0  0  0  0  0  0  0  0  0  0  0  0
  -23.3288  -32.2274   13.2567 Br  0  0  0  0  0  0  0  0  0  0  0  0
  -23.8696  -32.7975   15.9200 N   0  0  0  0  0  0  0  0  0  0  0  0
  -23.4525  -33.2415   17.1146 C   0  0  0  0  0  0  0  0  0  0  0  0
  -19.5698  -34.2098   17.5286 H   0  0  0  0  0  0  0  0  0  0  0  0
  -19.2322  -33.8723   15.8916 H   0  0  0  0  0  0  0  0  0  0  0  0
  -28.0604  -31.9236   18.9468 O   0  0  0  0  0  0  0  0  0  0  0  0
  -29.0422  -30.7224   19.3333 P   0  0  0  0  0  0  0  0  0  0  0  0
  -28.6706  -29.8361   20.4682 O   0  0  0  0  0  0  0  0  0  0  0  0
  -30.5220  -31.3044   19.2687 O   0  0  0  0  0  0  0  0  0  0  0  0
  -29.0803  -29.9267   17.9319 O   0  0  0  0  0  0  0  0  0  0  0  0
  -30.6953  -31.8360   20.0613 H   0  0  0  0  0  0  0  0  0  0  0  0
  -28.2283  -29.4861   17.7870 H   0  0  0  0  0  0  0  0  0  0  0  0
 14 15  1  0
 15 16  2  0
 16 17  1  0
  9 17  1  0
  9 10  1  0
 10 11  1  0
 11  8  1  0
  8  5  1  0
  5  6  2  0
  5  7  1  0
  5  4  1  0
  4  1  1  0
  1  2  2  0
  1  3  1  0
  1 32  1  0
 32 33  1  0
 34 33  1  0
 34 35  1  0
 35 36  1  0
 36 41  1  0
 41 42  1  0
 42 43  2  0
 43 44  1  0
 44 45  2  0
 45 46  1  0
 45 47  1  0
 47 48  2  0
 48 49  1  0
 48 50  1  0
 50 51  2  0
 36 37  1  0
 37 38  1  0
 37 39  1  0
 39 54  1  0
 54 55  1  0
 55 56  2  0
 55 57  1  0
 55 58  1  0
 11 12  1  0
 12 24  1  0
 24 25  1  0
 25 26  1  0
 26 27  2  0
 26 28  1  0
 26 29  1  0
 12 13  1  0
 17 18  1  0
 18 19  2  0
 18 20  1  0
 20 21  1  0
 21 22  2  0
 21 15  1  0
 13  9  1  0
 39 34  1  0
 51 41  1  0
 51 44  1  0
 46 52  1  0
 46 53  1  0
 38 40  1  0
 57 59  1  0
 58 60  1  0
 28 30  1  0
 29 31  1  0
 20 23  1  0
M  CHG 1   3  -1
M  CHG 1   7  -1
M  END
> <minimizedAffinity>
-8.48543

> <CNNscore>
0.6569903493

> <CNNaffinity>
5.8895416260

> <CNN_VS>
3.8693718910

> <CNNaffinity_variance>
0.7130878568

$$$$



 60 64  0  0  0  0  0  0  0  0999 V2000
  -29.8472  -29.2888   18.0176 P   0  0  0  0  0  0  0  0  0  0  0  0
  -31.1794  -30.0031   17.9798 O   0  0  0  0  0  0  0  0  0  0  0  0
  -29.4393  -28.5718   19.2870 O   0  0  0  0  0  0  0  0  0  0  0  0
  -28.6998  -30.3400   17.6602 O   0  0  0  0  0  0  0  0  0  0  0  0
  -27.5833  -31.1386   18.4607 P   0  0  0  0  0  0  0  0  0  0  0  0
  -28.1612  -31.9162   19.6218 O   0  0  0  0  0  0  0  0  0  0  0  0
  -26.3861  -30.2592   18.6947 O   0  0  0  0  0  0  0  0  0  0  0  0
  -27.1894  -32.2236   17.2996 O   0  0  0  0  0  0  0  0  0  0  0  0
  -24.5259  -33.7301   16.7028 C   0  0  0  0  0  0  0  0  0  0  0  0
  -24.8066  -32.3586   17.2846 C   0  0  0  0  0  0  0  0  0  0  0  0
  -26.0405  -31.9203   16.5231 C   0  0  0  0  0  0  0  0  0  0  0  0
  -26.0266  -32.7736   15.2486 C   0  0  0  0  0  0  0  0  0  0  0  0
  -24.8328  -33.6152   15.3005 O   0  0  0  0  0  0  0  0  0  0  0  0
  -19.9718  -34.3923   14.8198 C   0  0  0  0  0  0  0  0  0  0  0  0
  -20.9593  -34.4276   15.9435 C   0  0  0  0  0  0  0  0  0  0  0  0
  -22.2526  -34.1169   15.8196 C   0  0  0  0  0  0  0  0  0  0  0  0
  -23.1388  -34.1546   16.8769 N   0  0  0  0  0  0  0  0  0  0  0  0
  -22.7078  -34.4459   18.1629 C   0  0  0  0  0  0  0  0  0  0  0  0
  -23.4006  -34.3697   19.1721 O   0  0  0  0  0  0  0  0  0  0  0  0
  -21.3984  -34.8372   18.2761 N   0  0  0  0  0  0  0  0  0  0  0  0
  -20.4682  -34.8363   17.2760 C   0  0  0  0  0  0  0  0  0  0  0  0
  -19.2952  -35.1350   17.4729 O   0  0  0  0  0  0  0  0  0  0  0  0
  -21.1008  -35.1480   19.1616 H   0  0  0  0  0  0  0  0  0  0  0  0
  -26.0397  -31.9257   13.9690 C   0  0  0  0  0  0  0  0  0  0  0  0
  -24.6992  -31.7551   13.5086 O   0  0  0  0  0  0  0  0  0  0  0  0
  -24.3753  -30.5380   12.5164 P   0  0  0  0  0  0  0  0  0  0  0  0
  -25.4921  -29.5706   12.3062 O   0  0  0  0  0  0  0  0  0  0  0  0
  -23.8558  -31.2872   11.2008 O   0  0  0  0  0  0  0  0  0  0  0  0
  -23.0349  -29.8699   13.0686 O   0  0  0  0  0  0  0  0  0  0  0  0
  -24.5989  -31.7390   10.7712 H   0  0  0  0  0  0  0  0  0  0  0  0
  -23.2299  -29.3782   13.8817 H   0  0  0  0  0  0  0  0  0  0  0  0
  -29.7935  -28.2174   16.8142 O   0  0  0  0  0  0  0  0  0  0  0  0
  -30.9715  -27.5682   16.3795 C   0  0  0  0  0  0  0  0  0  0  0  0
  -31.3545  -26.4640   17.3951 C   0  0  0  0  0  0  0  0  0  0  0  0
  -30.2430  -25.5124   17.4705 O   0  0  0  0  0  0  0  0  0  0  0  0
  -30.6605  -24.2925   16.8149 C   0  0  0  0  0  0  0  0  0  0  0  0
  -31.9052  -24.6474   16.0007 C   0  0  0  0  0  0  0  0  0  0  0  0
  -32.7300  -23.5289   15.6795 O   0  0  0  0  0  0  0  0  0  0  0  0
  -32.5697  -25.6255   16.9712 C   0  0  0  0  0  0  0  0  0  0  0  0
  -32.9927  -23.0759   16.4959 H   0  0  0  0  0  0  0  0  0  0  0  0
  -29.5664  -23.7489   16.0399 N   0  0  0  0  0  0  0  0  0  0  0  0
  -29.0010  -22.5046   16.1486 C   0  0  0  0  0  0  0  0  0  0  0  0
  -28.0390  -22.3167   15.2619 N   0  0  0  0  0  0  0  0  0  0  0  0
  -27.9917  -23.4945   14.5468 C   0  0  0  0  0  0  0  0  0  0  0  0
  -27.1825  -23.9194   13.4840 C   0  0  0  0  0  0  0  0  0  0  0  0
  -26.2090  -23.1074   12.9062 N   0  0  0  0  0  0  0  0  0  0  0  0
  -27.3316  -25.1774   13.0132 N   0  0  0  0  0  0  0  0  0  0  0  0
  -28.2973  -25.9578   13.5564 C   0  0  0  0  0  0  0  0  0  0  0  0
  -28.4662  -27.7053   12.8277 Br  0  0  0  0  0  0  0  0  0  0  0  0
  -29.1445  -25.6400   14.5555 N   0  0  0  0  0  0  0  0  0  0  0  0
  -28.9259  -24.3998   15.0161 C   0  0  0  0  0  0  0  0  0  0  0  0
  -26.0799  -22.1869   13.2306 H   0  0  0  0  0  0  0  0  0  0  0  0
  -25.6502  -23.4541   12.1736 H   0  0  0  0  0  0  0  0  0  0  0  0
  -33.0985  -24.8453   18.0416 O   0  0  0  0  0  0  0  0  0  0  0  0
  -34.5529  -25.1520   18.6306 P   0  0  0  0  0  0  0  0  0  0  0  0
  -35.0810  -26.5390   18.5371 O   0  0  0  0  0  0  0  0  0  0  0  0
  -35.4890  -23.9444   18.1855 O   0  0  0  0  0  0  0  0  0  0  0  0
  -34.3422  -24.6870   20.1596 O   0  0  0  0  0  0  0  0  0  0  0  0
  -35.7328  -24.0510   17.2528 H   0  0  0  0  0  0  0  0  0  0  0  0
  -33.7728  -25.3257   20.6163 H   0  0  0  0  0  0  0  0  0  0  0  0
 14 15  1  0
 15 16  2  0
 16 17  1  0
  9 17  1  0
  9 10  1  0
 10 11  1  0
 11  8  1  0
  8  5  1  0
  5  6  2  0
  5  7  1  0
  5  4  1  0
  4  1  1  0
  1  2  2  0
  1  3  1  0
  1 32  1  0
 32 33  1  0
 34 33  1  0
 34 35  1  0
 35 36  1  0
 36 41  1  0
 41 42  1  0
 42 43  2  0
 43 44  1  0
 44 45  2  0
 45 46  1  0
 45 47  1  0
 47 48  2  0
 48 49  1  0
 48 50  1  0
 50 51  2  0
 36 37  1  0
 37 38  1  0
 37 39  1  0
 39 54  1  0
 54 55  1  0
 55 56  2  0
 55 57  1  0
 55 58  1  0
 11 12  1  0
 12 24  1  0
 24 25  1  0
 25 26  1  0
 26 27  2  0
 26 28  1  0
 26 29  1  0
 12 13  1  0
 17 18  1  0
 18 19  2  0
 18 20  1  0
 20 21  1  0
 21 22  2  0
 21 15  1  0
 13  9  1  0
 39 34  1  0
 51 41  1  0
 51 44  1  0
 46 52  1  0
 46 53  1  0
 38 40  1  0
 57 59  1  0
 58 60  1  0
 28 30  1  0
 29 31  1  0
 20 23  1  0
M  CHG 1   3  -1
M  CHG 1   7  -1
M  END
> <minimizedAffinity>
-9.21239

> <CNNscore>
0.6054817438

> <CNNaffinity>
5.8193268776

> <CNN_VS>
3.5234961510

> <CNNaffinity_variance>
0.7996718884

$$$$



 60 64  0  0  0  0  0  0  0  0999 V2000
  -29.9115  -29.1424   17.1084 P   0  0  0  0  0  0  0  0  0  0  0  0
  -31.2371  -29.8683   17.1519 O   0  0  0  0  0  0  0  0  0  0  0  0
  -29.6120  -28.1057   18.1703 O   0  0  0  0  0  0  0  0  0  0  0  0
  -28.7401  -30.2268   17.1404 O   0  0  0  0  0  0  0  0  0  0  0  0
  -28.5521  -31.7295   16.6590 P   0  0  0  0  0  0  0  0  0  0  0  0
  -28.8331  -31.8940   15.1823 O   0  0  0  0  0  0  0  0  0  0  0  0
  -29.2025  -32.6705   17.6352 O   0  0  0  0  0  0  0  0  0  0  0  0
  -26.9309  -31.8414   16.8586 O   0  0  0  0  0  0  0  0  0  0  0  0
  -24.1819  -33.2819   17.1562 C   0  0  0  0  0  0  0  0  0  0  0  0
  -24.8142  -32.5328   15.9997 C   0  0  0  0  0  0  0  0  0  0  0  0
  -26.2818  -32.8800   16.1410 C   0  0  0  0  0  0  0  0  0  0  0  0
  -26.2913  -34.1740   16.9644 C   0  0  0  0  0  0  0  0  0  0  0  0
  -24.8995  -34.5279   17.2361 O   0  0  0  0  0  0  0  0  0  0  0  0
  -20.1770  -33.2570   14.2094 C   0  0  0  0  0  0  0  0  0  0  0  0
  -20.8524  -33.4809   15.5257 C   0  0  0  0  0  0  0  0  0  0  0  0
  -22.1630  -33.3284   15.7354 C   0  0  0  0  0  0  0  0  0  0  0  0
  -22.7567  -33.5382   16.9634 N   0  0  0  0  0  0  0  0  0  0  0  0
  -21.9975  -33.8470   18.0827 C   0  0  0  0  0  0  0  0  0  0  0  0
  -22.4287  -33.9169   19.2287 O   0  0  0  0  0  0  0  0  0  0  0  0
  -20.6654  -34.0767   17.8521 N   0  0  0  0  0  0  0  0  0  0  0  0
  -20.0115  -33.9011   16.6659 C   0  0  0  0  0  0  0  0  0  0  0  0
  -18.8005  -34.0611   16.5561 O   0  0  0  0  0  0  0  0  0  0  0  0
  -20.1300  -34.3984   18.6131 H   0  0  0  0  0  0  0  0  0  0  0  0
  -27.0162  -35.3238   16.2510 C   0  0  0  0  0  0  0  0  0  0  0  0
  -27.0498  -35.0557   14.8492 O   0  0  0  0  0  0  0  0  0  0  0  0
  -27.0924  -36.2926   13.8300 P   0  0  0  0  0  0  0  0  0  0  0  0
  -26.8361  -35.9512   12.4000 O   0  0  0  0  0  0  0  0  0  0  0  0
  -28.5193  -36.9501   14.1364 O   0  0  0  0  0  0  0  0  0  0  0  0
  -26.0902  -37.3831   14.4252 O   0  0  0  0  0  0  0  0  0  0  0  0
  -29.2214  -36.3645   13.8125 H   0  0  0  0  0  0  0  0  0  0  0  0
  -25.1757  -37.0873   14.2944 H   0  0  0  0  0  0  0  0  0  0  0  0
  -29.7528  -28.4282   15.6719 O   0  0  0  0  0  0  0  0  0  0  0  0
  -30.5062  -27.2741   15.3581 C   0  0  0  0  0  0  0  0  0  0  0  0
  -29.5467  -26.0809   15.1280 C   0  0  0  0  0  0  0  0  0  0  0  0
  -28.3530  -26.5846   14.4438 O   0  0  0  0  0  0  0  0  0  0  0  0
  -28.3937  -26.1105   13.0778 C   0  0  0  0  0  0  0  0  0  0  0  0
  -29.8242  -25.6293   12.8330 C   0  0  0  0  0  0  0  0  0  0  0  0
  -29.9523  -24.7085   11.7513 O   0  0  0  0  0  0  0  0  0  0  0  0
  -30.1140  -24.9991   14.1965 C   0  0  0  0  0  0  0  0  0  0  0  0
  -29.3736  -23.9455   11.9058 H   0  0  0  0  0  0  0  0  0  0  0  0
  -27.9447  -27.1524   12.1798 N   0  0  0  0  0  0  0  0  0  0  0  0
  -26.6658  -27.6155   12.0082 C   0  0  0  0  0  0  0  0  0  0  0  0
  -26.5975  -28.5539   11.0799 N   0  0  0  0  0  0  0  0  0  0  0  0
  -27.8936  -28.6924   10.6309 C   0  0  0  0  0  0  0  0  0  0  0  0
  -28.4717  -29.5272    9.6645 C   0  0  0  0  0  0  0  0  0  0  0  0
  -27.7286  -30.4282    8.9048 N   0  0  0  0  0  0  0  0  0  0  0  0
  -29.8089  -29.4779    9.4757 N   0  0  0  0  0  0  0  0  0  0  0  0
  -30.5280  -28.5819   10.1947 C   0  0  0  0  0  0  0  0  0  0  0  0
  -32.3986  -28.5511    9.8586 Br  0  0  0  0  0  0  0  0  0  0  0  0
  -30.0708  -27.7177   11.1225 N   0  0  0  0  0  0  0  0  0  0  0  0
  -28.7476  -27.8375   11.3035 C   0  0  0  0  0  0  0  0  0  0  0  0
  -26.7528  -30.4840    9.0228 H   0  0  0  0  0  0  0  0  0  0  0  0
  -28.1793  -31.0090    8.2501 H   0  0  0  0  0  0  0  0  0  0  0  0
  -29.3716  -23.7826   14.2520 O   0  0  0  0  0  0  0  0  0  0  0  0
  -30.0857  -22.4117   14.6608 P   0  0  0  0  0  0  0  0  0  0  0  0
  -31.2627  -21.9594   13.8725 O   0  0  0  0  0  0  0  0  0  0  0  0
  -28.9250  -21.3682   14.9715 O   0  0  0  0  0  0  0  0  0  0  0  0
  -30.4725  -22.7401   16.1909 O   0  0  0  0  0  0  0  0  0  0  0  0
  -28.5509  -21.0429   14.1378 H   0  0  0  0  0  0  0  0  0  0  0  0
  -31.1949  -23.3871   16.2100 H   0  0  0  0  0  0  0  0  0  0  0  0
 14 15  1  0
 15 16  2  0
 16 17  1  0
  9 17  1  0
  9 10  1  0
 10 11  1  0
 11  8  1  0
  8  5  1  0
  5  6  2  0
  5  7  1  0
  5  4  1  0
  4  1  1  0
  1  2  2  0
  1  3  1  0
  1 32  1  0
 32 33  1  0
 34 33  1  0
 34 35  1  0
 35 36  1  0
 36 41  1  0
 41 42  1  0
 42 43  2  0
 43 44  1  0
 44 45  2  0
 45 46  1  0
 45 47  1  0
 47 48  2  0
 48 49  1  0
 48 50  1  0
 50 51  2  0
 36 37  1  0
 37 38  1  0
 37 39  1  0
 39 54  1  0
 54 55  1  0
 55 56  2  0
 55 57  1  0
 55 58  1  0
 11 12  1  0
 12 24  1  0
 24 25  1  0
 25 26  1  0
 26 27  2  0
 26 28  1  0
 26 29  1  0
 12 13  1  0
 17 18  1  0
 18 19  2  0
 18 20  1  0
 20 21  1  0
 21 22  2  0
 21 15  1  0
 13  9  1  0
 39 34  1  0
 51 41  1  0
 51 44  1  0
 46 52  1  0
 46 53  1  0
 38 40  1  0
 57 59  1  0
 58 60  1  0
 28 30  1  0
 29 31  1  0
 20 23  1  0
M  CHG 1   3  -1
M  CHG 1   7  -1
M  END
> <minimizedAffinity>
-7.59850

> <CNNscore>
0.5792896152

> <CNNaffinity>
6.0909461975

> <CNN_VS>
3.5284218788

> <CNNaffinity_variance>
0.1886173338

$$$$



 60 64  0  0  0  0  0  0  0  0999 V2000
  -28.6709  -31.5135   16.8692 P   0  0  0  0  0  0  0  0  0  0  0  0
  -29.9602  -32.0942   16.3337 O   0  0  0  0  0  0  0  0  0  0  0  0
  -28.1382  -32.0175   18.1937 O   0  0  0  0  0  0  0  0  0  0  0  0
  -27.5292  -31.7213   15.7726 O   0  0  0  0  0  0  0  0  0  0  0  0
  -27.0616  -32.8951   14.8090 P   0  0  0  0  0  0  0  0  0  0  0  0
  -27.1185  -32.4931   13.3523 O   0  0  0  0  0  0  0  0  0  0  0  0
  -27.6902  -34.1937   15.2331 O   0  0  0  0  0  0  0  0  0  0  0  0
  -25.4820  -32.9389   15.2377 O   0  0  0  0  0  0  0  0  0  0  0  0
  -22.4647  -33.7009   15.0511 C   0  0  0  0  0  0  0  0  0  0  0  0
  -23.2196  -32.4461   14.6590 C   0  0  0  0  0  0  0  0  0  0  0  0
  -24.5454  -32.9939   14.1724 C   0  0  0  0  0  0  0  0  0  0  0  0
  -24.2463  -34.4538   13.8098 C   0  0  0  0  0  0  0  0  0  0  0  0
  -22.8249  -34.6829   14.0613 O   0  0  0  0  0  0  0  0  0  0  0  0
  -18.1695  -33.6811   17.5561 C   0  0  0  0  0  0  0  0  0  0  0  0
  -18.9716  -33.5493   16.2998 C   0  0  0  0  0  0  0  0  0  0  0  0
  -20.3034  -33.6388   16.2436 C   0  0  0  0  0  0  0  0  0  0  0  0
  -21.0154  -33.5173   15.0677 N   0  0  0  0  0  0  0  0  0  0  0  0
  -20.3675  -33.3723   13.8496 C   0  0  0  0  0  0  0  0  0  0  0  0
  -20.9167  -33.3917   12.7531 O   0  0  0  0  0  0  0  0  0  0  0  0
  -19.0080  -33.2054   13.9161 N   0  0  0  0  0  0  0  0  0  0  0  0
  -18.2390  -33.3010   15.0407 C   0  0  0  0  0  0  0  0  0  0  0  0
  -17.0165  -33.2079   15.0076 O   0  0  0  0  0  0  0  0  0  0  0  0
  -18.5426  -32.9971   13.0739 H   0  0  0  0  0  0  0  0  0  0  0  0
  -24.6021  -34.7865   12.3540 C   0  0  0  0  0  0  0  0  0  0  0  0
  -25.8278  -35.5180   12.3289 O   0  0  0  0  0  0  0  0  0  0  0  0
  -25.8428  -37.0148   12.9033 P   0  0  0  0  0  0  0  0  0  0  0  0
  -26.7309  -37.9690   12.1769 O   0  0  0  0  0  0  0  0  0  0  0  0
  -26.1887  -36.7928   14.4504 O   0  0  0  0  0  0  0  0  0  0  0  0
  -24.3150  -37.4726   12.9676 O   0  0  0  0  0  0  0  0  0  0  0  0
  -27.1114  -36.5067   14.5376 H   0  0  0  0  0  0  0  0  0  0  0  0
  -23.9893  -37.6393   12.0692 H   0  0  0  0  0  0  0  0  0  0  0  0
  -28.8256  -29.9130   16.9837 O   0  0  0  0  0  0  0  0  0  0  0  0
  -29.7724  -29.2258   16.1904 C   0  0  0  0  0  0  0  0  0  0  0  0
  -30.7248  -28.4211   17.1084 C   0  0  0  0  0  0  0  0  0  0  0  0
  -30.0850  -27.1385   17.4122 O   0  0  0  0  0  0  0  0  0  0  0  0
  -30.7955  -26.1077   16.6876 C   0  0  0  0  0  0  0  0  0  0  0  0
  -31.6391  -26.8272   15.6348 C   0  0  0  0  0  0  0  0  0  0  0  0
  -32.7450  -26.0654   15.1538 O   0  0  0  0  0  0  0  0  0  0  0  0
  -32.0613  -28.0535   16.4462 C   0  0  0  0  0  0  0  0  0  0  0  0
  -33.3073  -25.8052   15.9001 H   0  0  0  0  0  0  0  0  0  0  0  0
  -29.8580  -25.1431   16.1546 N   0  0  0  0  0  0  0  0  0  0  0  0
  -29.6409  -23.8602   16.5867 C   0  0  0  0  0  0  0  0  0  0  0  0
  -28.7346  -23.2361   15.8545 N   0  0  0  0  0  0  0  0  0  0  0  0
  -28.3594  -24.1615   14.9040 C   0  0  0  0  0  0  0  0  0  0  0  0
  -27.4351  -24.1091   13.8514 C   0  0  0  0  0  0  0  0  0  0  0  0
  -26.6902  -22.9689   13.5584 N   0  0  0  0  0  0  0  0  0  0  0  0
  -27.2359  -25.2163   13.1026 N   0  0  0  0  0  0  0  0  0  0  0  0
  -27.9805  -26.3167   13.3698 C   0  0  0  0  0  0  0  0  0  0  0  0
  -27.6647  -27.8276   12.2604 Br  0  0  0  0  0  0  0  0  0  0  0  0
  -28.9115  -26.4640   14.3333 N   0  0  0  0  0  0  0  0  0  0  0  0
  -29.0387  -25.3539   15.0747 C   0  0  0  0  0  0  0  0  0  0  0  0
  -26.8160  -22.1490   14.0886 H   0  0  0  0  0  0  0  0  0  0  0  0
  -26.0380  -22.9830   12.8210 H   0  0  0  0  0  0  0  0  0  0  0  0
  -33.0355  -27.6068   17.3873 O   0  0  0  0  0  0  0  0  0  0  0  0
  -34.4642  -28.3185   17.4789 P   0  0  0  0  0  0  0  0  0  0  0  0
  -35.2579  -28.4852   16.2325 O   0  0  0  0  0  0  0  0  0  0  0  0
  -35.1832  -27.7326   18.7722 O   0  0  0  0  0  0  0  0  0  0  0  0
  -34.0336  -29.7354   18.1157 O   0  0  0  0  0  0  0  0  0  0  0  0
  -35.5242  -26.8454   18.5786 H   0  0  0  0  0  0  0  0  0  0  0  0
  -33.5612  -30.2590   17.4497 H   0  0  0  0  0  0  0  0  0  0  0  0
 14 15  1  0
 15 16  2  0
 16 17  1  0
  9 17  1  0
  9 10  1  0
 10 11  1  0
 11  8  1  0
  8  5  1  0
  5  6  2  0
  5  7  1  0
  5  4  1  0
  4  1  1  0
  1  2  2  0
  1  3  1  0
  1 32  1  0
 32 33  1  0
 34 33  1  0
 34 35  1  0
 35 36  1  0
 36 41  1  0
 41 42  1  0
 42 43  2  0
 43 44  1  0
 44 45  2  0
 45 46  1  0
 45 47  1  0
 47 48  2  0
 48 49  1  0
 48 50  1  0
 50 51  2  0
 36 37  1  0
 37 38  1  0
 37 39  1  0
 39 54  1  0
 54 55  1  0
 55 56  2  0
 55 57  1  0
 55 58  1  0
 11 12  1  0
 12 24  1  0
 24 25  1  0
 25 26  1  0
 26 27  2  0
 26 28  1  0
 26 29  1  0
 12 13  1  0
 17 18  1  0
 18 19  2  0
 18 20  1  0
 20 21  1  0
 21 22  2  0
 21 15  1  0
 13  9  1  0
 39 34  1  0
 51 41  1  0
 51 44  1  0
 46 52  1  0
 46 53  1  0
 38 40  1  0
 57 59  1  0
 58 60  1  0
 28 30  1  0
 29 31  1  0
 20 23  1  0
M  CHG 1   3  -1
M  CHG 1   7  -1
M  END
> <minimizedAffinity>
-7.05519

> <CNNscore>
0.4458718896

> <CNNaffinity>
5.8773589134

> <CNN_VS>
2.6205492020

> <CNNaffinity_variance>
0.4520856142

$$$$



 60 64  0  0  0  0  0  0  0  0999 V2000
  -27.5340  -35.3262   11.4474 P   0  0  0  0  0  0  0  0  0  0  0  0
  -26.2955  -36.1138   11.0841 O   0  0  0  0  0  0  0  0  0  0  0  0
  -28.7898  -35.5205   10.6246 O   0  0  0  0  0  0  0  0  0  0  0  0
  -27.8971  -35.6303   12.9722 O   0  0  0  0  0  0  0  0  0  0  0  0
  -28.9051  -35.0446   14.0520 P   0  0  0  0  0  0  0  0  0  0  0  0
  -29.1908  -36.0335   15.1599 O   0  0  0  0  0  0  0  0  0  0  0  0
  -30.0572  -34.3622   13.3675 O   0  0  0  0  0  0  0  0  0  0  0  0
  -27.9345  -33.8839   14.6776 O   0  0  0  0  0  0  0  0  0  0  0  0
  -25.1896  -33.3895   16.0708 C   0  0  0  0  0  0  0  0  0  0  0  0
  -26.0211  -34.6435   15.8851 C   0  0  0  0  0  0  0  0  0  0  0  0
  -27.4391  -34.1205   15.9866 C   0  0  0  0  0  0  0  0  0  0  0  0
  -27.3044  -32.7946   16.7458 C   0  0  0  0  0  0  0  0  0  0  0  0
  -25.8892  -32.6165   17.0643 O   0  0  0  0  0  0  0  0  0  0  0  0
  -20.2983  -33.4238   15.1777 C   0  0  0  0  0  0  0  0  0  0  0  0
  -21.4852  -33.6363   16.0638 C   0  0  0  0  0  0  0  0  0  0  0  0
  -22.7529  -33.4658   15.6785 C   0  0  0  0  0  0  0  0  0  0  0  0
  -23.8275  -33.6653   16.5211 N   0  0  0  0  0  0  0  0  0  0  0  0
  -23.6398  -33.9824   17.8586 C   0  0  0  0  0  0  0  0  0  0  0  0
  -24.5306  -34.0445   18.6994 O   0  0  0  0  0  0  0  0  0  0  0  0
  -22.3445  -34.2304   18.2341 N   0  0  0  0  0  0  0  0  0  0  0  0
  -21.2346  -34.0658   17.4554 C   0  0  0  0  0  0  0  0  0  0  0  0
  -20.1002  -34.2423   17.8868 O   0  0  0  0  0  0  0  0  0  0  0  0
  -22.2010  -34.5580   19.1514 H   0  0  0  0  0  0  0  0  0  0  0  0
  -28.1587  -32.7535   18.0206 C   0  0  0  0  0  0  0  0  0  0  0  0
  -28.8463  -31.5038   18.0813 O   0  0  0  0  0  0  0  0  0  0  0  0
  -28.4749  -30.4774   19.2556 P   0  0  0  0  0  0  0  0  0  0  0  0
  -27.3714  -29.5222   18.9440 O   0  0  0  0  0  0  0  0  0  0  0  0
  -28.2142  -31.4490   20.5007 O   0  0  0  0  0  0  0  0  0  0  0  0
  -29.8458  -29.7712   19.6676 O   0  0  0  0  0  0  0  0  0  0  0  0
  -27.3902  -31.9410   20.3599 H   0  0  0  0  0  0  0  0  0  0  0  0
  -30.1090  -29.1466   18.9737 H   0  0  0  0  0  0  0  0  0  0  0  0
  -27.1783  -33.7539   11.4295 O   0  0  0  0  0  0  0  0  0  0  0  0
  -28.0164  -32.8371   10.7549 C   0  0  0  0  0  0  0  0  0  0  0  0
  -27.3118  -32.3495    9.4652 C   0  0  0  0  0  0  0  0  0  0  0  0
  -27.3412  -30.8846    9.4590 O   0  0  0  0  0  0  0  0  0  0  0  0
  -25.9980  -30.4147    9.7183 C   0  0  0  0  0  0  0  0  0  0  0  0
  -25.2219  -31.6135   10.2644 C   0  0  0  0  0  0  0  0  0  0  0  0
  -23.8063  -31.5015   10.1306 O   0  0  0  0  0  0  0  0  0  0  0  0
  -25.8225  -32.7191    9.3942 C   0  0  0  0  0  0  0  0  0  0  0  0
  -23.5796  -31.3639    9.1976 H   0  0  0  0  0  0  0  0  0  0  0  0
  -26.0376  -29.2681   10.6000 N   0  0  0  0  0  0  0  0  0  0  0  0
  -24.9760  -28.5518   11.0894 C   0  0  0  0  0  0  0  0  0  0  0  0
  -25.3624  -27.5815   11.8995 N   0  0  0  0  0  0  0  0  0  0  0  0
  -26.7366  -27.6869   11.9359 C   0  0  0  0  0  0  0  0  0  0  0  0
  -27.7208  -26.9459   12.6045 C   0  0  0  0  0  0  0  0  0  0  0  0
  -27.4179  -25.8841   13.4541 N   0  0  0  0  0  0  0  0  0  0  0  0
  -29.0206  -27.2539   12.4000 N   0  0  0  0  0  0  0  0  0  0  0  0
  -29.3144  -28.3044   11.5956 C   0  0  0  0  0  0  0  0  0  0  0  0
  -31.1615  -28.6951   11.3743 Br  0  0  0  0  0  0  0  0  0  0  0  0
  -28.4497  -29.0969   10.9315 N   0  0  0  0  0  0  0  0  0  0  0  0
  -27.1780  -28.7222   11.1323 C   0  0  0  0  0  0  0  0  0  0  0  0
  -26.4790  -25.6389   13.6201 H   0  0  0  0  0  0  0  0  0  0  0  0
  -28.1427  -25.3789   13.8884 H   0  0  0  0  0  0  0  0  0  0  0  0
  -25.2776  -32.5530    8.0866 O   0  0  0  0  0  0  0  0  0  0  0  0
  -25.2321  -33.7799    7.0624 P   0  0  0  0  0  0  0  0  0  0  0  0
  -25.7490  -35.1005    7.5099 O   0  0  0  0  0  0  0  0  0  0  0  0
  -23.8164  -33.7169    6.3382 O   0  0  0  0  0  0  0  0  0  0  0  0
  -26.1023  -33.1688    5.8509 O   0  0  0  0  0  0  0  0  0  0  0  0
  -23.1323  -34.0579    6.9354 H   0  0  0  0  0  0  0  0  0  0  0  0
  -27.0354  -33.1258    6.1126 H   0  0  0  0  0  0  0  0  0  0  0  0
 14 15  1  0
 15 16  2  0
 16 17  1  0
  9 17  1  0
  9 10  1  0
 10 11  1  0
 11  8  1  0
  8  5  1  0
  5  6  2  0
  5  7  1  0
  5  4  1  0
  4  1  1  0
  1  2  2  0
  1  3  1  0
  1 32  1  0
 32 33  1  0
 34 33  1  0
 34 35  1  0
 35 36  1  0
 36 41  1  0
 41 42  1  0
 42 43  2  0
 43 44  1  0
 44 45  2  0
 45 46  1  0
 45 47  1  0
 47 48  2  0
 48 49  1  0
 48 50  1  0
 50 51  2  0
 36 37  1  0
 37 38  1  0
 37 39  1  0
 39 54  1  0
 54 55  1  0
 55 56  2  0
 55 57  1  0
 55 58  1  0
 11 12  1  0
 12 24  1  0
 24 25  1  0
 25 26  1  0
 26 27  2  0
 26 28  1  0
 26 29  1  0
 12 13  1  0
 17 18  1  0
 18 19  2  0
 18 20  1  0
 20 21  1  0
 21 22  2  0
 21 15  1  0
 13  9  1  0
 39 34  1  0
 51 41  1  0
 51 44  1  0
 46 52  1  0
 46 53  1  0
 38 40  1  0
 57 59  1  0
 58 60  1  0
 28 30  1  0
 29 31  1  0
 20 23  1  0
M  CHG 1   3  -1
M  CHG 1   7  -1
M  END
> <minimizedAffinity>
-8.12903

> <CNNscore>
0.3644229770

> <CNNaffinity>
5.8441596031

> <CNN_VS>
2.1297459602

> <CNNaffinity_variance>
0.1610880643

$$$$



 60 64  0  0  0  0  0  0  0  0999 V2000
  -28.4106  -31.4149   14.9871 P   0  0  0  0  0  0  0  0  0  0  0  0
  -29.4547  -32.4719   14.7062 O   0  0  0  0  0  0  0  0  0  0  0  0
  -28.5009  -30.6239   16.2747 O   0  0  0  0  0  0  0  0  0  0  0  0
  -26.9700  -32.1014   14.9356 O   0  0  0  0  0  0  0  0  0  0  0  0
  -26.0125  -32.6797   13.8069 P   0  0  0  0  0  0  0  0  0  0  0  0
  -25.5600  -31.6086   12.8401 O   0  0  0  0  0  0  0  0  0  0  0  0
  -26.5718  -33.9653   13.2630 O   0  0  0  0  0  0  0  0  0  0  0  0
  -24.7288  -33.0516   14.7527 O   0  0  0  0  0  0  0  0  0  0  0  0
  -21.9407  -34.3035   15.3689 C   0  0  0  0  0  0  0  0  0  0  0  0
  -22.3961  -32.8650   15.2220 C   0  0  0  0  0  0  0  0  0  0  0  0
  -23.4518  -32.9591   14.1397 C   0  0  0  0  0  0  0  0  0  0  0  0
  -23.1271  -34.2635   13.4010 C   0  0  0  0  0  0  0  0  0  0  0  0
  -21.9402  -34.8377   14.0316 O   0  0  0  0  0  0  0  0  0  0  0  0
  -17.0350  -33.5472   15.0768 C   0  0  0  0  0  0  0  0  0  0  0  0
  -18.2633  -34.0168   15.7908 C   0  0  0  0  0  0  0  0  0  0  0  0
  -19.4934  -33.9904   15.2704 C   0  0  0  0  0  0  0  0  0  0  0  0
  -20.6087  -34.4268   15.9561 N   0  0  0  0  0  0  0  0  0  0  0  0
  -20.5192  -34.8494   17.2744 C   0  0  0  0  0  0  0  0  0  0  0  0
  -21.4749  -35.1239   17.9924 O   0  0  0  0  0  0  0  0  0  0  0  0
  -19.2490  -34.9471   17.7819 N   0  0  0  0  0  0  0  0  0  0  0  0
  -18.1005  -34.5466   17.1607 C   0  0  0  0  0  0  0  0  0  0  0  0
  -17.0055  -34.6026   17.7100 O   0  0  0  0  0  0  0  0  0  0  0  0
  -19.1563  -35.3432   18.6785 H   0  0  0  0  0  0  0  0  0  0  0  0
  -22.8961  -34.0506   11.8984 C   0  0  0  0  0  0  0  0  0  0  0  0
  -21.6675  -34.6729   11.5224 O   0  0  0  0  0  0  0  0  0  0  0  0
  -21.7184  -36.1071   10.8076 P   0  0  0  0  0  0  0  0  0  0  0  0
  -21.2910  -37.2588   11.6550 O   0  0  0  0  0  0  0  0  0  0  0  0
  -20.8536  -35.8686    9.4818 O   0  0  0  0  0  0  0  0  0  0  0  0
  -23.1953  -36.2489   10.2189 O   0  0  0  0  0  0  0  0  0  0  0  0
  -19.9188  -35.7663    9.7196 H   0  0  0  0  0  0  0  0  0  0  0  0
  -23.8199  -36.3997   10.9456 H   0  0  0  0  0  0  0  0  0  0  0  0
  -28.3922  -30.3605   13.7678 O   0  0  0  0  0  0  0  0  0  0  0  0
  -29.3120  -29.2877   13.7340 C   0  0  0  0  0  0  0  0  0  0  0  0
  -28.6064  -28.0227   13.1868 C   0  0  0  0  0  0  0  0  0  0  0  0
  -27.7491  -28.4292   12.0703 O   0  0  0  0  0  0  0  0  0  0  0  0
  -28.3592  -27.9525   10.8486 C   0  0  0  0  0  0  0  0  0  0  0  0
  -29.7993  -27.5820   11.2043 C   0  0  0  0  0  0  0  0  0  0  0  0
  -30.4080  -26.6682   10.2938 O   0  0  0  0  0  0  0  0  0  0  0  0
  -29.5690  -26.9832   12.5931 C   0  0  0  0  0  0  0  0  0  0  0  0
  -29.8694  -25.8636   10.2347 H   0  0  0  0  0  0  0  0  0  0  0  0
  -28.2314  -28.9519    9.8101 N   0  0  0  0  0  0  0  0  0  0  0  0
  -27.3632  -30.0123    9.7715 C   0  0  0  0  0  0  0  0  0  0  0  0
  -27.4859  -30.7146    8.6585 N   0  0  0  0  0  0  0  0  0  0  0  0
  -28.4747  -30.0682    7.9478 C   0  0  0  0  0  0  0  0  0  0  0  0
  -29.0622  -30.3276    6.7018 C   0  0  0  0  0  0  0  0  0  0  0  0
  -28.6673  -31.3873    5.8882 N   0  0  0  0  0  0  0  0  0  0  0  0
  -30.0715  -29.5348    6.2789 N   0  0  0  0  0  0  0  0  0  0  0  0
  -30.4369  -28.4873    7.0574 C   0  0  0  0  0  0  0  0  0  0  0  0
  -31.8457  -27.4011    6.3876 Br  0  0  0  0  0  0  0  0  0  0  0  0
  -29.9218  -28.1328    8.2515 N   0  0  0  0  0  0  0  0  0  0  0  0
  -28.9562  -28.9756    8.6457 C   0  0  0  0  0  0  0  0  0  0  0  0
  -27.9345  -31.9800    6.1729 H   0  0  0  0  0  0  0  0  0  0  0  0
  -29.1210  -31.5435    5.0286 H   0  0  0  0  0  0  0  0  0  0  0  0
  -28.9509  -25.7133   12.3945 O   0  0  0  0  0  0  0  0  0  0  0  0
  -28.0384  -25.0653   13.5363 P   0  0  0  0  0  0  0  0  0  0  0  0
  -28.1541  -23.6059   13.7975 O   0  0  0  0  0  0  0  0  0  0  0  0
  -26.5887  -25.7025   13.3779 O   0  0  0  0  0  0  0  0  0  0  0  0
  -28.5048  -25.9453   14.8039 O   0  0  0  0  0  0  0  0  0  0  0  0
  -26.1311  -25.2834   12.6324 H   0  0  0  0  0  0  0  0  0  0  0  0
  -29.4049  -25.6908   15.0606 H   0  0  0  0  0  0  0  0  0  0  0  0
 14 15  1  0
 15 16  2  0
 16 17  1  0
  9 17  1  0
  9 10  1  0
 10 11  1  0
 11  8  1  0
  8  5  1  0
  5  6  2  0
  5  7  1  0
  5  4  1  0
  4  1  1  0
  1  2  2  0
  1  3  1  0
  1 32  1  0
 32 33  1  0
 34 33  1  0
 34 35  1  0
 35 36  1  0
 36 41  1  0
 41 42  1  0
 42 43  2  0
 43 44  1  0
 44 45  2  0
 45 46  1  0
 45 47  1  0
 47 48  2  0
 48 49  1  0
 48 50  1  0
 50 51  2  0
 36 37  1  0
 37 38  1  0
 37 39  1  0
 39 54  1  0
 54 55  1  0
 55 56  2  0
 55 57  1  0
 55 58  1  0
 11 12  1  0
 12 24  1  0
 24 25  1  0
 25 26  1  0
 26 27  2  0
 26 28  1  0
 26 29  1  0
 12 13  1  0
 17 18  1  0
 18 19  2  0
 18 20  1  0
 20 21  1  0
 21 22  2  0
 21 15  1  0
 13  9  1  0
 39 34  1  0
 51 41  1  0
 51 44  1  0
 46 52  1  0
 46 53  1  0
 38 40  1  0
 57 59  1  0
 58 60  1  0
 28 30  1  0
 29 31  1  0
 20 23  1  0
M  CHG 1   3  -1
M  CHG 1   7  -1
M  END
> <minimizedAffinity>
-6.97401

> <CNNscore>
0.3624894619

> <CNNaffinity>
5.6190719604

> <CNN_VS>
2.0368542671

> <CNNaffinity_variance>
0.1531850249

$$$$



 60 64  0  0  0  0  0  0  0  0999 V2000
  -30.1243  -29.5091   17.0154 P   0  0  0  0  0  0  0  0  0  0  0  0
  -31.1167  -30.6376   16.8482 O   0  0  0  0  0  0  0  0  0  0  0  0
  -30.5124  -28.3155   17.8621 O   0  0  0  0  0  0  0  0  0  0  0  0
  -28.7705  -30.1107   17.6107 O   0  0  0  0  0  0  0  0  0  0  0  0
  -28.1451  -30.3223   19.0561 P   0  0  0  0  0  0  0  0  0  0  0  0
  -29.1849  -30.2113   20.1485 O   0  0  0  0  0  0  0  0  0  0  0  0
  -26.8650  -29.5436   19.1847 O   0  0  0  0  0  0  0  0  0  0  0  0
  -27.7566  -31.9067   18.9168 O   0  0  0  0  0  0  0  0  0  0  0  0
  -25.2556  -33.5526   18.0472 C   0  0  0  0  0  0  0  0  0  0  0  0
  -25.7296  -32.1595   17.6825 C   0  0  0  0  0  0  0  0  0  0  0  0
  -27.2362  -32.3157   17.6610 C   0  0  0  0  0  0  0  0  0  0  0  0
  -27.4621  -33.8197   17.4625 C   0  0  0  0  0  0  0  0  0  0  0  0
  -26.1467  -34.4477   17.3554 O   0  0  0  0  0  0  0  0  0  0  0  0
  -21.8598  -34.0841   14.4543 C   0  0  0  0  0  0  0  0  0  0  0  0
  -22.2703  -34.0294   15.8921 C   0  0  0  0  0  0  0  0  0  0  0  0
  -23.5283  -33.8640   16.3104 C   0  0  0  0  0  0  0  0  0  0  0  0
  -23.8755  -33.8130   17.6452 N   0  0  0  0  0  0  0  0  0  0  0  0
  -22.9083  -33.8521   18.6389 C   0  0  0  0  0  0  0  0  0  0  0  0
  -23.1198  -33.6789   19.8346 O   0  0  0  0  0  0  0  0  0  0  0  0
  -21.6281  -34.0968   18.2127 N   0  0  0  0  0  0  0  0  0  0  0  0
  -21.2121  -34.1707   16.9139 C   0  0  0  0  0  0  0  0  0  0  0  0
  -20.0334  -34.3237   16.6119 O   0  0  0  0  0  0  0  0  0  0  0  0
  -20.9447  -34.2320   18.9083 H   0  0  0  0  0  0  0  0  0  0  0  0
  -28.3165  -34.1313   16.2258 C   0  0  0  0  0  0  0  0  0  0  0  0
  -28.4326  -35.5470   16.0836 O   0  0  0  0  0  0  0  0  0  0  0  0
  -27.5537  -36.2825   14.9623 P   0  0  0  0  0  0  0  0  0  0  0  0
  -28.3266  -37.0856   13.9699 O   0  0  0  0  0  0  0  0  0  0  0  0
  -26.4895  -37.1019   15.8330 O   0  0  0  0  0  0  0  0  0  0  0  0
  -26.6426  -35.1469   14.3079 O   0  0  0  0  0  0  0  0  0  0  0  0
  -26.9373  -37.8331   16.2865 H   0  0  0  0  0  0  0  0  0  0  0  0
  -27.1905  -34.5764   13.7464 H   0  0  0  0  0  0  0  0  0  0  0  0
  -29.7079  -28.9583   15.5588 O   0  0  0  0  0  0  0  0  0  0  0  0
  -30.2656  -27.7593   15.0594 C   0  0  0  0  0  0  0  0  0  0  0  0
  -29.1328  -26.7387   14.7898 C   0  0  0  0  0  0  0  0  0  0  0  0
  -28.2173  -27.3266   13.8085 O   0  0  0  0  0  0  0  0  0  0  0  0
  -28.4033  -26.6270   12.5563 C   0  0  0  0  0  0  0  0  0  0  0  0
  -29.7193  -25.8593   12.6849 C   0  0  0  0  0  0  0  0  0  0  0  0
  -29.8431  -24.7597   11.7850 O   0  0  0  0  0  0  0  0  0  0  0  0
  -29.6170  -25.4291   14.1494 C   0  0  0  0  0  0  0  0  0  0  0  0
  -29.0976  -24.1523   11.9121 H   0  0  0  0  0  0  0  0  0  0  0  0
  -28.3558  -27.5643   11.4550 N   0  0  0  0  0  0  0  0  0  0  0  0
  -29.2639  -27.7070   10.4379 C   0  0  0  0  0  0  0  0  0  0  0  0
  -28.9350  -28.6851    9.6119 N   0  0  0  0  0  0  0  0  0  0  0  0
  -27.7645  -29.1974   10.1296 C   0  0  0  0  0  0  0  0  0  0  0  0
  -26.9224  -30.2354    9.7072 C   0  0  0  0  0  0  0  0  0  0  0  0
  -27.1906  -31.0136    8.5832 N   0  0  0  0  0  0  0  0  0  0  0  0
  -25.7887  -30.4789   10.4012 N   0  0  0  0  0  0  0  0  0  0  0  0
  -25.5417  -29.7405   11.5105 C   0  0  0  0  0  0  0  0  0  0  0  0
  -23.9422  -30.1551   12.4501 Br  0  0  0  0  0  0  0  0  0  0  0  0
  -26.2947  -28.7444   12.0182 N   0  0  0  0  0  0  0  0  0  0  0  0
  -27.3828  -28.5134   11.2694 C   0  0  0  0  0  0  0  0  0  0  0  0
  -28.0097  -30.8568    8.0599 H   0  0  0  0  0  0  0  0  0  0  0  0
  -26.5611  -31.7204    8.3122 H   0  0  0  0  0  0  0  0  0  0  0  0
  -28.6360  -24.3953   14.2054 O   0  0  0  0  0  0  0  0  0  0  0  0
  -28.9967  -22.9639   14.8195 P   0  0  0  0  0  0  0  0  0  0  0  0
  -30.3927  -22.4669   14.6948 O   0  0  0  0  0  0  0  0  0  0  0  0
  -27.7992  -21.9884   14.4360 O   0  0  0  0  0  0  0  0  0  0  0  0
  -28.5746  -23.2017   16.3570 O   0  0  0  0  0  0  0  0  0  0  0  0
  -27.8827  -21.7238   13.5066 H   0  0  0  0  0  0  0  0  0  0  0  0
  -29.2131  -23.7976   16.7792 H   0  0  0  0  0  0  0  0  0  0  0  0
 14 15  1  0
 15 16  2  0
 16 17  1  0
  9 17  1  0
  9 10  1  0
 10 11  1  0
 11  8  1  0
  8  5  1  0
  5  6  2  0
  5  7  1  0
  5  4  1  0
  4  1  1  0
  1  2  2  0
  1  3  1  0
  1 32  1  0
 32 33  1  0
 34 33  1  0
 34 35  1  0
 35 36  1  0
 36 41  1  0
 41 42  1  0
 42 43  2  0
 43 44  1  0
 44 45  2  0
 45 46  1  0
 45 47  1  0
 47 48  2  0
 48 49  1  0
 48 50  1  0
 50 51  2  0
 36 37  1  0
 37 38  1  0
 37 39  1  0
 39 54  1  0
 54 55  1  0
 55 56  2  0
 55 57  1  0
 55 58  1  0
 11 12  1  0
 12 24  1  0
 24 25  1  0
 25 26  1  0
 26 27  2  0
 26 28  1  0
 26 29  1  0
 12 13  1  0
 17 18  1  0
 18 19  2  0
 18 20  1  0
 20 21  1  0
 21 22  2  0
 21 15  1  0
 13  9  1  0
 39 34  1  0
 51 41  1  0
 51 44  1  0
 46 52  1  0
 46 53  1  0
 38 40  1  0
 57 59  1  0
 58 60  1  0
 28 30  1  0
 29 31  1  0
 20 23  1  0
M  CHG 1   3  -1
M  CHG 1   7  -1
M  END
> <minimizedAffinity>
-8.85951

> <CNNscore>
0.3482757211

> <CNNaffinity>
5.6599349976

> <CNN_VS>
1.9712179899

> <CNNaffinity_variance>
0.6195158362

$$$$



 60 64  0  0  0  0  0  0  0  0999 V2000
  -29.2195  -34.5175   13.7184 P   0  0  0  0  0  0  0  0  0  0  0  0
  -30.6123  -33.9290   13.7194 O   0  0  0  0  0  0  0  0  0  0  0  0
  -29.0044  -35.8846   14.3323 O   0  0  0  0  0  0  0  0  0  0  0  0
  -28.6944  -34.5706   12.2115 O   0  0  0  0  0  0  0  0  0  0  0  0
  -27.4633  -35.2216   11.4461 P   0  0  0  0  0  0  0  0  0  0  0  0
  -27.8444  -35.7113   10.0670 O   0  0  0  0  0  0  0  0  0  0  0  0
  -26.7111  -36.1432   12.3661 O   0  0  0  0  0  0  0  0  0  0  0  0
  -26.5645  -33.8676   11.2477 O   0  0  0  0  0  0  0  0  0  0  0  0
  -26.2410  -30.7670   11.2024 C   0  0  0  0  0  0  0  0  0  0  0  0
  -27.4517  -31.6573   11.4022 C   0  0  0  0  0  0  0  0  0  0  0  0
  -27.1590  -32.8276   10.4860 C   0  0  0  0  0  0  0  0  0  0  0  0
  -26.1499  -32.2759    9.4712 C   0  0  0  0  0  0  0  0  0  0  0  0
  -25.9237  -30.8702    9.8014 O   0  0  0  0  0  0  0  0  0  0  0  0
  -29.4461  -27.0925   12.1762 C   0  0  0  0  0  0  0  0  0  0  0  0
  -28.0608  -27.6435   12.0481 C   0  0  0  0  0  0  0  0  0  0  0  0
  -27.7792  -28.8905   11.6604 C   0  0  0  0  0  0  0  0  0  0  0  0
  -26.4899  -29.3716   11.5562 N   0  0  0  0  0  0  0  0  0  0  0  0
  -25.4031  -28.5955   11.9317 C   0  0  0  0  0  0  0  0  0  0  0  0
  -24.2439  -28.9910   11.9961 O   0  0  0  0  0  0  0  0  0  0  0  0
  -25.6868  -27.2939   12.2571 N   0  0  0  0  0  0  0  0  0  0  0  0
  -26.9324  -26.7452   12.3699 C   0  0  0  0  0  0  0  0  0  0  0  0
  -27.1071  -25.5874   12.7348 O   0  0  0  0  0  0  0  0  0  0  0  0
  -24.9206  -26.6990   12.4252 H   0  0  0  0  0  0  0  0  0  0  0  0
  -26.6289  -32.4240    8.0203 C   0  0  0  0  0  0  0  0  0  0  0  0
  -26.6976  -31.1318    7.4174 O   0  0  0  0  0  0  0  0  0  0  0  0
  -28.0198  -30.7315    6.6037 P   0  0  0  0  0  0  0  0  0  0  0  0
  -28.4106  -29.2936    6.6872 O   0  0  0  0  0  0  0  0  0  0  0  0
  -29.1014  -31.7729    7.1587 O   0  0  0  0  0  0  0  0  0  0  0  0
  -27.7901  -31.2549    5.1134 O   0  0  0  0  0  0  0  0  0  0  0  0
  -29.3233  -31.5504    8.0764 H   0  0  0  0  0  0  0  0  0  0  0  0
  -27.1398  -30.6890    4.6686 H   0  0  0  0  0  0  0  0  0  0  0  0
  -28.2170  -33.4906   14.4527 O   0  0  0  0  0  0  0  0  0  0  0  0
  -27.1510  -33.9731   15.2457 C   0  0  0  0  0  0  0  0  0  0  0  0
  -27.5124  -33.8163   16.7431 C   0  0  0  0  0  0  0  0  0  0  0  0
  -26.4412  -34.4274   17.5342 O   0  0  0  0  0  0  0  0  0  0  0  0
  -25.6942  -33.3613   18.1646 C   0  0  0  0  0  0  0  0  0  0  0  0
  -26.0881  -32.0742   17.4392 C   0  0  0  0  0  0  0  0  0  0  0  0
  -25.8494  -30.8853   18.1902 O   0  0  0  0  0  0  0  0  0  0  0  0
  -27.5752  -32.3564   17.2167 C   0  0  0  0  0  0  0  0  0  0  0  0
  -26.3183  -30.9386   19.0376 H   0  0  0  0  0  0  0  0  0  0  0  0
  -24.2796  -33.6637   18.1330 N   0  0  0  0  0  0  0  0  0  0  0  0
  -23.4260  -33.7858   19.1989 C   0  0  0  0  0  0  0  0  0  0  0  0
  -22.1857  -34.0351   18.8162 N   0  0  0  0  0  0  0  0  0  0  0  0
  -22.2474  -34.0666   17.4393 C   0  0  0  0  0  0  0  0  0  0  0  0
  -21.2727  -34.2925   16.4575 C   0  0  0  0  0  0  0  0  0  0  0  0
  -19.9324  -34.5180   16.7637 N   0  0  0  0  0  0  0  0  0  0  0  0
  -21.6481  -34.3189   15.1596 N   0  0  0  0  0  0  0  0  0  0  0  0
  -22.9466  -34.0720   14.8598 C   0  0  0  0  0  0  0  0  0  0  0  0
  -23.3968  -34.1004   13.0133 Br  0  0  0  0  0  0  0  0  0  0  0  0
  -23.9532  -33.8160   15.7189 N   0  0  0  0  0  0  0  0  0  0  0  0
  -23.5377  -33.8452   16.9935 C   0  0  0  0  0  0  0  0  0  0  0  0
  -19.6326  -34.5042   17.7014 H   0  0  0  0  0  0  0  0  0  0  0  0
  -19.2851  -34.6911   16.0425 H   0  0  0  0  0  0  0  0  0  0  0  0
  -28.2129  -32.2177   18.4849 O   0  0  0  0  0  0  0  0  0  0  0  0
  -28.8343  -30.8147   18.9339 P   0  0  0  0  0  0  0  0  0  0  0  0
  -28.9009  -29.7137   17.9366 O   0  0  0  0  0  0  0  0  0  0  0  0
  -28.2544  -30.5019   20.3825 O   0  0  0  0  0  0  0  0  0  0  0  0
  -30.2998  -31.2929   19.4055 O   0  0  0  0  0  0  0  0  0  0  0  0
  -27.3403  -30.1873   20.3039 H   0  0  0  0  0  0  0  0  0  0  0  0
  -30.8263  -31.5362   18.6280 H   0  0  0  0  0  0  0  0  0  0  0  0
 14 15  1  0
 15 16  2  0
 16 17  1  0
  9 17  1  0
  9 10  1  0
 10 11  1  0
 11  8  1  0
  8  5  1  0
  5  6  2  0
  5  7  1  0
  5  4  1  0
  4  1  1  0
  1  2  2  0
  1  3  1  0
  1 32  1  0
 32 33  1  0
 34 33  1  0
 34 35  1  0
 35 36  1  0
 36 41  1  0
 41 42  1  0
 42 43  2  0
 43 44  1  0
 44 45  2  0
 45 46  1  0
 45 47  1  0
 47 48  2  0
 48 49  1  0
 48 50  1  0
 50 51  2  0
 36 37  1  0
 37 38  1  0
 37 39  1  0
 39 54  1  0
 54 55  1  0
 55 56  2  0
 55 57  1  0
 55 58  1  0
 11 12  1  0
 12 24  1  0
 24 25  1  0
 25 26  1  0
 26 27  2  0
 26 28  1  0
 26 29  1  0
 12 13  1  0
 17 18  1  0
 18 19  2  0
 18 20  1  0
 20 21  1  0
 21 22  2  0
 21 15  1  0
 13  9  1  0
 39 34  1  0
 51 41  1  0
 51 44  1  0
 46 52  1  0
 46 53  1  0
 38 40  1  0
 57 59  1  0
 58 60  1  0
 28 30  1  0
 29 31  1  0
 20 23  1  0
M  CHG 1   3  -1
M  CHG 1   7  -1
M  END
> <minimizedAffinity>
-8.73025

> <CNNscore>
0.3460567892

> <CNNaffinity>
5.6174454689

> <CNN_VS>
1.9439551830

> <CNNaffinity_variance>
0.5791004300

$$$$
