


 20 20  0  0  0  0  0  0  0  0999 V2000
   -7.0673   11.4696   31.3645 C   0  0  0  0  0  0  0  0  0  0  0  0
   -7.1501   10.9327   32.7885 C   0  0  0  0  0  0  0  0  0  0  0  0
   -6.4745   11.5042   33.8080 C   0  0  0  0  0  0  0  0  0  0  0  0
   -5.5336   12.6866   33.6744 C   0  0  0  0  0  0  0  0  0  0  0  0
   -5.1381   12.8831   32.2025 C   0  0  0  0  0  0  0  0  0  0  0  0
   -6.3632   12.8584   31.2863 C   0  0  0  0  0  0  0  0  0  0  0  0
   -4.2704   12.3434   34.5235 C   0  0  0  0  0  0  0  0  0  0  0  0
   -4.1382   11.4183   35.3122 O   0  0  0  0  0  0  0  0  0  0  0  0
   -3.2163   13.1619   34.2970 O   0  0  0  0  0  0  0  0  0  0  0  0
   -3.2984   13.8761   33.6961 H   0  0  0  0  0  0  0  0  0  0  0  0
   -9.0609   12.7847   31.3365 C   0  0  0  0  0  0  0  0  0  0  0  0
   -8.3974   11.6243   30.8463 O   0  0  0  0  0  0  0  0  0  0  0  0
   -6.2993   13.7790   34.1912 O   0  0  0  0  0  0  0  0  0  0  0  0
   -6.9882   13.5407   35.4093 C   0  0  0  0  0  0  0  0  0  0  0  0
   -5.8510   13.1144   29.9602 O   0  0  0  0  0  0  0  0  0  0  0  0
   -4.9062   12.1460   29.5200 C   0  0  0  0  0  0  0  0  0  0  0  0
   -7.9618    9.6808   33.0369 C   0  0  0  0  0  0  0  0  0  0  0  0
   -7.2530    8.3847   32.6417 C   0  0  0  0  0  0  0  0  0  0  0  0
   -7.7404    7.9351   31.3799 O   0  0  0  0  0  0  0  0  0  0  0  0
   -8.6946    7.7718   31.4414 H   0  0  0  0  0  0  0  0  0  0  0  0
 11 12  1  0
  1 12  1  0
  1  2  1  0
  2 17  1  0
 17 18  1  0
 18 19  1  0
  2  3  2  0
  3  4  1  0
  4 13  1  0
 13 14  1  0
  4  7  1  0
  7  8  2  0
  7  9  1  0
  4  5  1  0
  5  6  1  0
  6 15  1  0
 15 16  1  0
  6  1  1  0
 19 20  1  0
  9 10  1  0
M  END
> <minimizedAffinity>
-3.89922

> <CNNscore>
0.4125925303

> <CNNaffinity>
3.4123313427

> <CNN_VS>
1.4079024792

> <CNNaffinity_variance>
0.3757453263

$$$$



 20 20  0  0  0  0  0  0  0  0999 V2000
   -7.4819   12.3327   31.9074 C   0  0  0  0  0  0  0  0  0  0  0  0
   -6.8322   10.9956   32.2436 C   0  0  0  0  0  0  0  0  0  0  0  0
   -6.1846   10.7891   33.4100 C   0  0  0  0  0  0  0  0  0  0  0  0
   -5.9774   11.8361   34.4879 C   0  0  0  0  0  0  0  0  0  0  0  0
   -6.2320   13.2397   33.9167 C   0  0  0  0  0  0  0  0  0  0  0  0
   -7.5446   13.2947   33.1327 C   0  0  0  0  0  0  0  0  0  0  0  0
   -4.4913   11.7096   34.9462 C   0  0  0  0  0  0  0  0  0  0  0  0
   -4.0097   10.8447   35.6641 O   0  0  0  0  0  0  0  0  0  0  0  0
   -3.6748   12.6596   34.4335 O   0  0  0  0  0  0  0  0  0  0  0  0
   -4.0254   13.3305   33.8813 H   0  0  0  0  0  0  0  0  0  0  0  0
   -9.1212   12.7027   30.2103 C   0  0  0  0  0  0  0  0  0  0  0  0
   -8.8281   12.0991   31.4659 O   0  0  0  0  0  0  0  0  0  0  0  0
   -6.9265   11.4684   35.4932 O   0  0  0  0  0  0  0  0  0  0  0  0
   -7.3130   10.1028   35.5208 C   0  0  0  0  0  0  0  0  0  0  0  0
   -7.6800   14.6707   32.7145 O   0  0  0  0  0  0  0  0  0  0  0  0
   -8.9033   15.2706   33.1246 C   0  0  0  0  0  0  0  0  0  0  0  0
   -6.8626    9.9010   31.2001 C   0  0  0  0  0  0  0  0  0  0  0  0
   -6.0424   10.2066   29.9462 C   0  0  0  0  0  0  0  0  0  0  0  0
   -6.9095   10.3248   28.8210 O   0  0  0  0  0  0  0  0  0  0  0  0
   -7.3896    9.4915   28.6938 H   0  0  0  0  0  0  0  0  0  0  0  0
 11 12  1  0
  1 12  1  0
  1  2  1  0
  2 17  1  0
 17 18  1  0
 18 19  1  0
  2  3  2  0
  3  4  1  0
  4 13  1  0
 13 14  1  0
  4  7  1  0
  7  8  2  0
  7  9  1  0
  4  5  1  0
  5  6  1  0
  6 15  1  0
 15 16  1  0
  6  1  1  0
 19 20  1  0
  9 10  1  0
M  END
> <minimizedAffinity>
-3.36180

> <CNNscore>
0.3491644561

> <CNNaffinity>
3.1544764042

> <CNN_VS>
1.1014310122

> <CNNaffinity_variance>
0.3659216166

$$$$



 20 20  0  0  0  0  0  0  0  0999 V2000
    7.4462   16.9107   15.6532 C   0  0  0  0  0  0  0  0  0  0  0  0
    7.1125   15.9635   16.7997 C   0  0  0  0  0  0  0  0  0  0  0  0
    5.9515   15.2761   16.8437 C   0  0  0  0  0  0  0  0  0  0  0  0
    4.8362   15.3847   15.8213 C   0  0  0  0  0  0  0  0  0  0  0  0
    5.0184   16.6535   14.9738 C   0  0  0  0  0  0  0  0  0  0  0  0
    6.4533   16.7804   14.4583 C   0  0  0  0  0  0  0  0  0  0  0  0
    3.5040   15.4710   16.6289 C   0  0  0  0  0  0  0  0  0  0  0  0
    2.3771   15.6312   16.1818 O   0  0  0  0  0  0  0  0  0  0  0  0
    3.6576   15.3022   17.9631 O   0  0  0  0  0  0  0  0  0  0  0  0
    4.5132   15.1780   18.3242 H   0  0  0  0  0  0  0  0  0  0  0  0
    8.8024   15.4367   14.3521 C   0  0  0  0  0  0  0  0  0  0  0  0
    8.7612   16.6055   15.1639 O   0  0  0  0  0  0  0  0  0  0  0  0
    4.9719   14.1844   15.0548 O   0  0  0  0  0  0  0  0  0  0  0  0
    5.0101   12.9714   15.7913 C   0  0  0  0  0  0  0  0  0  0  0  0
    6.4586   17.9694   13.6380 O   0  0  0  0  0  0  0  0  0  0  0  0
    6.6019   17.6994   12.2485 C   0  0  0  0  0  0  0  0  0  0  0  0
    8.0907   15.8553   17.9483 C   0  0  0  0  0  0  0  0  0  0  0  0
    7.9189   16.9303   19.0223 C   0  0  0  0  0  0  0  0  0  0  0  0
    7.0524   16.4516   20.0479 O   0  0  0  0  0  0  0  0  0  0  0  0
    6.1862   16.2395   19.6664 H   0  0  0  0  0  0  0  0  0  0  0  0
 11 12  1  0
  1 12  1  0
  1  2  1  0
  2 17  1  0
 17 18  1  0
 18 19  1  0
  2  3  2  0
  3  4  1  0
  4 13  1  0
 13 14  1  0
  4  7  1  0
  7  8  2  0
  7  9  1  0
  4  5  1  0
  5  6  1  0
  6 15  1  0
 15 16  1  0
  6  1  1  0
 19 20  1  0
  9 10  1  0
M  END
> <minimizedAffinity>
-3.08727

> <CNNscore>
0.3256053627

> <CNNaffinity>
2.9989039898

> <CNN_VS>
0.9764592052

> <CNNaffinity_variance>
0.7179009318

$$$$



 20 20  0  0  0  0  0  0  0  0999 V2000
   -7.8305   10.6707   29.9453 C   0  0  0  0  0  0  0  0  0  0  0  0
   -8.1012   10.8945   31.4284 C   0  0  0  0  0  0  0  0  0  0  0  0
   -7.4351   11.8257   32.1437 C   0  0  0  0  0  0  0  0  0  0  0  0
   -6.3295   12.7124   31.6030 C   0  0  0  0  0  0  0  0  0  0  0  0
   -5.7944   12.1419   30.2802 C   0  0  0  0  0  0  0  0  0  0  0  0
   -6.9338   11.7845   29.3238 C   0  0  0  0  0  0  0  0  0  0  0  0
   -5.1988   12.7132   32.6781 C   0  0  0  0  0  0  0  0  0  0  0  0
   -5.2945   12.3855   33.8524 O   0  0  0  0  0  0  0  0  0  0  0  0
   -3.9873   13.0844   32.2021 O   0  0  0  0  0  0  0  0  0  0  0  0
   -3.8942   13.3388   31.3051 H   0  0  0  0  0  0  0  0  0  0  0  0
   -9.5899   11.9775   28.9959 C   0  0  0  0  0  0  0  0  0  0  0  0
   -9.0801   10.6704   29.2381 O   0  0  0  0  0  0  0  0  0  0  0  0
   -6.9724   13.9797   31.4379 O   0  0  0  0  0  0  0  0  0  0  0  0
   -7.8634   14.3699   32.4719 C   0  0  0  0  0  0  0  0  0  0  0  0
   -6.2868   11.3260   28.1165 O   0  0  0  0  0  0  0  0  0  0  0  0
   -6.0515    9.9230   28.0965 C   0  0  0  0  0  0  0  0  0  0  0  0
   -9.0983    9.9912   32.1197 C   0  0  0  0  0  0  0  0  0  0  0  0
   -8.7661    8.5016   32.0252 C   0  0  0  0  0  0  0  0  0  0  0  0
   -9.9584    7.7329   32.1649 O   0  0  0  0  0  0  0  0  0  0  0  0
  -10.3622    7.9164   33.0276 H   0  0  0  0  0  0  0  0  0  0  0  0
 11 12  1  0
  1 12  1  0
  1  2  1  0
  2 17  1  0
 17 18  1  0
 18 19  1  0
  2  3  2  0
  3  4  1  0
  4 13  1  0
 13 14  1  0
  4  7  1  0
  7  8  2  0
  7  9  1  0
  4  5  1  0
  5  6  1  0
  6 15  1  0
 15 16  1  0
  6  1  1  0
 19 20  1  0
  9 10  1  0
M  END
> <minimizedAffinity>
-3.37327

> <CNNscore>
0.3063180149

> <CNNaffinity>
3.8527050018

> <CNN_VS>
1.1801528931

> <CNNaffinity_variance>
0.4458458126

$$$$



 20 20  0  0  0  0  0  0  0  0999 V2000
    3.0487   14.1759   24.0355 C   0  0  0  0  0  0  0  0  0  0  0  0
    3.0723   13.7523   22.5716 C   0  0  0  0  0  0  0  0  0  0  0  0
    3.4907   14.5838   21.5939 C   0  0  0  0  0  0  0  0  0  0  0  0
    3.9320   16.0201   21.8021 C   0  0  0  0  0  0  0  0  0  0  0  0
    3.4599   16.5238   23.1750 C   0  0  0  0  0  0  0  0  0  0  0  0
    3.7938   15.5229   24.2829 C   0  0  0  0  0  0  0  0  0  0  0  0
    3.2609   16.8567   20.6689 C   0  0  0  0  0  0  0  0  0  0  0  0
    3.3136   18.0686   20.5140 O   0  0  0  0  0  0  0  0  0  0  0  0
    2.5932   16.1119   19.7570 O   0  0  0  0  0  0  0  0  0  0  0  0
    2.5419   15.1819   19.8587 H   0  0  0  0  0  0  0  0  0  0  0  0
    2.9801   12.8270   26.0054 C   0  0  0  0  0  0  0  0  0  0  0  0
    3.6979   13.1663   24.8236 O   0  0  0  0  0  0  0  0  0  0  0  0
    5.3571   15.9465   21.7010 O   0  0  0  0  0  0  0  0  0  0  0  0
    5.9181   16.3360   20.4565 C   0  0  0  0  0  0  0  0  0  0  0  0
    3.3534   16.1503   25.5072 O   0  0  0  0  0  0  0  0  0  0  0  0
    2.7869   17.4407   25.3115 C   0  0  0  0  0  0  0  0  0  0  0  0
    2.5425   12.3817   22.2130 C   0  0  0  0  0  0  0  0  0  0  0  0
    3.2778   11.2268   22.8943 C   0  0  0  0  0  0  0  0  0  0  0  0
    3.6397   10.2476   21.9237 O   0  0  0  0  0  0  0  0  0  0  0  0
    2.8395    9.9077   21.4934 H   0  0  0  0  0  0  0  0  0  0  0  0
 11 12  1  0
  1 12  1  0
  1  2  1  0
  2 17  1  0
 17 18  1  0
 18 19  1  0
  2  3  2  0
  3  4  1  0
  4 13  1  0
 13 14  1  0
  4  7  1  0
  7  8  2  0
  7  9  1  0
  4  5  1  0
  5  6  1  0
  6 15  1  0
 15 16  1  0
  6  1  1  0
 19 20  1  0
  9 10  1  0
M  END
> <minimizedAffinity>
-5.87922

> <CNNscore>
0.2633048296

> <CNNaffinity>
3.5908625126

> <CNN_VS>
0.9454914331

> <CNNaffinity_variance>
0.4857632220

$$$$



 20 20  0  0  0  0  0  0  0  0999 V2000
    7.2538   14.8545   15.0831 C   0  0  0  0  0  0  0  0  0  0  0  0
    6.2070   15.3674   16.0650 C   0  0  0  0  0  0  0  0  0  0  0  0
    6.5454   16.0620   17.1720 C   0  0  0  0  0  0  0  0  0  0  0  0
    7.9658   16.3742   17.6035 C   0  0  0  0  0  0  0  0  0  0  0  0
    8.9560   15.4656   16.8582 C   0  0  0  0  0  0  0  0  0  0  0  0
    8.6716   15.4431   15.3551 C   0  0  0  0  0  0  0  0  0  0  0  0
    8.0337   16.0908   19.1363 C   0  0  0  0  0  0  0  0  0  0  0  0
    7.2575   16.4828   19.9962 O   0  0  0  0  0  0  0  0  0  0  0  0
    9.0568   15.2834   19.5017 O   0  0  0  0  0  0  0  0  0  0  0  0
    9.6618   14.9729   18.8571 H   0  0  0  0  0  0  0  0  0  0  0  0
    6.7468   14.1286   12.8648 C   0  0  0  0  0  0  0  0  0  0  0  0
    6.8708   15.2347   13.7525 O   0  0  0  0  0  0  0  0  0  0  0  0
    8.1193   17.7551   17.2627 O   0  0  0  0  0  0  0  0  0  0  0  0
    9.3347   18.3686   17.6648 C   0  0  0  0  0  0  0  0  0  0  0  0
    9.7050   14.6099   14.7854 O   0  0  0  0  0  0  0  0  0  0  0  0
   10.9717   15.2528   14.7042 C   0  0  0  0  0  0  0  0  0  0  0  0
    4.7566   15.0192   15.8139 C   0  0  0  0  0  0  0  0  0  0  0  0
    3.8675   15.1014   17.0553 C   0  0  0  0  0  0  0  0  0  0  0  0
    2.5856   15.6109   16.6962 O   0  0  0  0  0  0  0  0  0  0  0  0
    2.6851   16.4972   16.3149 H   0  0  0  0  0  0  0  0  0  0  0  0
 11 12  1  0
  1 12  1  0
  1  2  1  0
  2 17  1  0
 17 18  1  0
 18 19  1  0
  2  3  2  0
  3  4  1  0
  4 13  1  0
 13 14  1  0
  4  7  1  0
  7  8  2  0
  7  9  1  0
  4  5  1  0
  5  6  1  0
  6 15  1  0
 15 16  1  0
  6  1  1  0
 19 20  1  0
  9 10  1  0
M  END
> <minimizedAffinity>
-3.41419

> <CNNscore>
0.2474496961

> <CNNaffinity>
2.9043567181

> <CNN_VS>
0.7186821699

> <CNNaffinity_variance>
0.6706317067

$$$$



 20 20  0  0  0  0  0  0  0  0999 V2000
   -6.9814   12.2006   29.5821 C   0  0  0  0  0  0  0  0  0  0  0  0
   -7.9434   11.9999   30.7471 C   0  0  0  0  0  0  0  0  0  0  0  0
   -8.2664   10.7712   31.2035 C   0  0  0  0  0  0  0  0  0  0  0  0
   -7.7742    9.4649   30.6100 C   0  0  0  0  0  0  0  0  0  0  0  0
   -7.2064    9.7051   29.2024 C   0  0  0  0  0  0  0  0  0  0  0  0
   -6.2377   10.8891   29.1848 C   0  0  0  0  0  0  0  0  0  0  0  0
   -9.0144    8.5216   30.5296 C   0  0  0  0  0  0  0  0  0  0  0  0
   -9.9505    8.5957   29.7463 O   0  0  0  0  0  0  0  0  0  0  0  0
   -8.9863    7.4990   31.4160 O   0  0  0  0  0  0  0  0  0  0  0  0
   -8.2772    7.4255   32.0240 H   0  0  0  0  0  0  0  0  0  0  0  0
   -5.0043   12.6498   30.8446 C   0  0  0  0  0  0  0  0  0  0  0  0
   -5.9897   13.1687   29.9577 O   0  0  0  0  0  0  0  0  0  0  0  0
   -6.7777    9.0329   31.5412 O   0  0  0  0  0  0  0  0  0  0  0  0
   -6.7536    9.7063   32.7907 C   0  0  0  0  0  0  0  0  0  0  0  0
   -5.7429   10.9552   27.8293 O   0  0  0  0  0  0  0  0  0  0  0  0
   -6.7645   11.1677   26.8622 C   0  0  0  0  0  0  0  0  0  0  0  0
   -8.6005   13.2202   31.3529 C   0  0  0  0  0  0  0  0  0  0  0  0
   -9.4881   14.0014   30.3832 C   0  0  0  0  0  0  0  0  0  0  0  0
   -9.6324   15.3445   30.8385 O   0  0  0  0  0  0  0  0  0  0  0  0
  -10.0416   15.3455   31.7180 H   0  0  0  0  0  0  0  0  0  0  0  0
 11 12  1  0
  1 12  1  0
  1  2  1  0
  2 17  1  0
 17 18  1  0
 18 19  1  0
  2  3  2  0
  3  4  1  0
  4 13  1  0
 13 14  1  0
  4  7  1  0
  7  8  2  0
  7  9  1  0
  4  5  1  0
  5  6  1  0
  6 15  1  0
 15 16  1  0
  6  1  1  0
 19 20  1  0
  9 10  1  0
M  END
> <minimizedAffinity>
-3.38432

> <CNNscore>
0.2468950897

> <CNNaffinity>
3.3967845440

> <CNN_VS>
0.8386494517

> <CNNaffinity_variance>
0.6678690910

$$$$



 20 20  0  0  0  0  0  0  0  0999 V2000
    2.9247   16.1898   24.7256 C   0  0  0  0  0  0  0  0  0  0  0  0
    3.4212   14.8317   24.2439 C   0  0  0  0  0  0  0  0  0  0  0  0
    3.9071   14.6495   22.9976 C   0  0  0  0  0  0  0  0  0  0  0  0
    3.9773   15.7203   21.9254 C   0  0  0  0  0  0  0  0  0  0  0  0
    3.0660   16.9004   22.2971 C   0  0  0  0  0  0  0  0  0  0  0  0
    3.2890   17.3450   23.7440 C   0  0  0  0  0  0  0  0  0  0  0  0
    3.4765   15.0565   20.6053 C   0  0  0  0  0  0  0  0  0  0  0  0
    3.0232   15.6205   19.6194 O   0  0  0  0  0  0  0  0  0  0  0  0
    3.6181   13.7106   20.5780 O   0  0  0  0  0  0  0  0  0  0  0  0
    3.9636   13.2607   21.3238 H   0  0  0  0  0  0  0  0  0  0  0  0
    2.6070   16.9733   26.9593 C   0  0  0  0  0  0  0  0  0  0  0  0
    3.5315   16.4855   25.9928 O   0  0  0  0  0  0  0  0  0  0  0  0
    5.3625   16.0774   21.9046 O   0  0  0  0  0  0  0  0  0  0  0  0
    5.9009   16.4259   20.6381 C   0  0  0  0  0  0  0  0  0  0  0  0
    2.4219   18.4853   23.9290 O   0  0  0  0  0  0  0  0  0  0  0  0
    1.8514   18.9668   22.7178 C   0  0  0  0  0  0  0  0  0  0  0  0
    3.2942   13.6490   25.1782 C   0  0  0  0  0  0  0  0  0  0  0  0
    2.7178   12.3923   24.5250 C   0  0  0  0  0  0  0  0  0  0  0  0
    3.6264   11.3059   24.6869 O   0  0  0  0  0  0  0  0  0  0  0  0
    4.4720   11.5260   24.2658 H   0  0  0  0  0  0  0  0  0  0  0  0
 11 12  1  0
  1 12  1  0
  1  2  1  0
  2 17  1  0
 17 18  1  0
 18 19  1  0
  2  3  2  0
  3  4  1  0
  4 13  1  0
 13 14  1  0
  4  7  1  0
  7  8  2  0
  7  9  1  0
  4  5  1  0
  5  6  1  0
  6 15  1  0
 15 16  1  0
  6  1  1  0
 19 20  1  0
  9 10  1  0
M  END
> <minimizedAffinity>
-5.31218

> <CNNscore>
0.2273012251

> <CNNaffinity>
3.7057030201

> <CNN_VS>
0.8423108459

> <CNNaffinity_variance>
0.3434619009

$$$$



 20 20  0  0  0  0  0  0  0  0999 V2000
    7.2641   14.9344   15.7127 C   0  0  0  0  0  0  0  0  0  0  0  0
    5.9748   14.8525   14.9040 C   0  0  0  0  0  0  0  0  0  0  0  0
    4.8505   15.4953   15.2849 C   0  0  0  0  0  0  0  0  0  0  0  0
    4.7043   16.3177   16.5511 C   0  0  0  0  0  0  0  0  0  0  0  0
    5.8458   15.9921   17.5271 C   0  0  0  0  0  0  0  0  0  0  0  0
    7.2059   16.0233   16.8271 C   0  0  0  0  0  0  0  0  0  0  0  0
    3.3346   15.9172   17.1819 C   0  0  0  0  0  0  0  0  0  0  0  0
    2.8151   16.3891   18.1833 O   0  0  0  0  0  0  0  0  0  0  0  0
    2.6645   14.9693   16.4857 O   0  0  0  0  0  0  0  0  0  0  0  0
    3.0463   14.5959   15.7158 H   0  0  0  0  0  0  0  0  0  0  0  0
    8.3892   16.6506   14.4906 C   0  0  0  0  0  0  0  0  0  0  0  0
    8.3471   15.2689   14.8312 O   0  0  0  0  0  0  0  0  0  0  0  0
    4.7510   17.6666   16.0770 O   0  0  0  0  0  0  0  0  0  0  0  0
    3.9073   17.9740   14.9774 C   0  0  0  0  0  0  0  0  0  0  0  0
    8.1744   15.7639   17.8669 O   0  0  0  0  0  0  0  0  0  0  0  0
    7.9665   16.5386   19.0420 C   0  0  0  0  0  0  0  0  0  0  0  0
    5.9515   13.9649   13.6795 C   0  0  0  0  0  0  0  0  0  0  0  0
    4.6188   13.2523   13.4464 C   0  0  0  0  0  0  0  0  0  0  0  0
    4.8346   11.8462   13.3544 O   0  0  0  0  0  0  0  0  0  0  0  0
    5.4315   11.6585   12.6132 H   0  0  0  0  0  0  0  0  0  0  0  0
 11 12  1  0
  1 12  1  0
  1  2  1  0
  2 17  1  0
 17 18  1  0
 18 19  1  0
  2  3  2  0
  3  4  1  0
  4 13  1  0
 13 14  1  0
  4  7  1  0
  7  8  2  0
  7  9  1  0
  4  5  1  0
  5  6  1  0
  6 15  1  0
 15 16  1  0
  6  1  1  0
 19 20  1  0
  9 10  1  0
M  END
> <minimizedAffinity>
-3.11879

> <CNNscore>
0.2235024720

> <CNNaffinity>
3.1014051437

> <CNN_VS>
0.6931717396

> <CNNaffinity_variance>
0.4391281605

$$$$
