


 17 18  0  0  0  0  0  0  0  0999 V2000
   13.6709    9.8721   -2.3405 C   0  0  0  0  0  0  0  0  0  0  0  0
   13.5918   10.1145   -0.9622 C   0  0  0  0  0  0  0  0  0  0  0  0
   14.7861   10.4122   -0.3043 C   0  0  0  0  0  0  0  0  0  0  0  0
   14.9019   10.6733    1.0255 O   0  0  0  0  0  0  0  0  0  0  0  0
   16.2137   10.9173    1.2702 C   0  0  0  0  0  0  0  0  0  0  0  0
   16.9629   10.8110    0.1144 C   0  0  0  0  0  0  0  0  0  0  0  0
   16.0296   10.4821   -0.9176 C   0  0  0  0  0  0  0  0  0  0  0  0
   16.1023   10.2386   -2.2996 C   0  0  0  0  0  0  0  0  0  0  0  0
   14.9180    9.9354   -2.9925 C   0  0  0  0  0  0  0  0  0  0  0  0
   15.0536    9.6387   -4.6948 Cl  0  0  0  0  0  0  0  0  0  0  0  0
   12.8086    9.3877   -4.5185 C   0  0  0  0  0  0  0  0  0  0  0  0
   12.5862    9.5643   -3.1255 O   0  0  0  0  0  0  0  0  0  0  0  0
   18.4368   10.9988   -0.0173 C   0  0  0  0  0  0  0  0  0  0  0  0
   19.1713   10.8010    1.2870 C   0  0  0  0  0  0  0  0  0  0  0  0
   19.6289   11.6483    2.0344 O   0  0  0  0  0  0  0  0  0  0  0  0
   19.2883    9.4922    1.6017 O   0  0  0  0  0  0  0  0  0  0  0  0
   18.9372    8.8394    1.0285 H   0  0  0  0  0  0  0  0  0  0  0  0
 11 12  1  0
 12  1  1  0
  1  2  2  0
  2  3  1  0
  3  4  1  0
  4  5  1  0
  5  6  2  0
  6 13  1  0
 13 14  1  0
 14 15  2  0
 14 16  1  0
  6  7  1  0
  7  8  1  0
  8  9  2  0
  9 10  1  0
  9  1  1  0
  7  3  2  0
 16 17  1  0
M  END
> <minimizedAffinity>
-7.66803

> <CNNscore>
0.6222376227

> <CNNaffinity>
4.1196842194

> <CNN_VS>
2.5634224415

> <CNNaffinity_variance>
0.8001850247

$$$$



 17 18  0  0  0  0  0  0  0  0999 V2000
   14.0688    9.8150    7.3196 C   0  0  0  0  0  0  0  0  0  0  0  0
   14.3978   10.4732    6.1266 C   0  0  0  0  0  0  0  0  0  0  0  0
   15.6224   10.1462    5.5425 C   0  0  0  0  0  0  0  0  0  0  0  0
   16.1067   10.6820    4.3900 O   0  0  0  0  0  0  0  0  0  0  0  0
   17.3126   10.1053    4.1591 C   0  0  0  0  0  0  0  0  0  0  0  0
   17.6294    9.2007    5.1539 C   0  0  0  0  0  0  0  0  0  0  0  0
   16.5232    9.2249    6.0595 C   0  0  0  0  0  0  0  0  0  0  0  0
   16.1875    8.5681    7.2554 C   0  0  0  0  0  0  0  0  0  0  0  0
   14.9615    8.8746    7.8700 C   0  0  0  0  0  0  0  0  0  0  0  0
   14.5888    8.0440    9.3448 Cl  0  0  0  0  0  0  0  0  0  0  0  0
   12.9312   10.9788    9.0726 C   0  0  0  0  0  0  0  0  0  0  0  0
   12.9032   10.0301    8.0143 O   0  0  0  0  0  0  0  0  0  0  0  0
   18.8701    8.3787    5.2543 C   0  0  0  0  0  0  0  0  0  0  0  0
   19.2650    7.7511    3.9389 C   0  0  0  0  0  0  0  0  0  0  0  0
   19.6654    8.3011    2.9274 O   0  0  0  0  0  0  0  0  0  0  0  0
   19.1397    6.4061    3.9688 O   0  0  0  0  0  0  0  0  0  0  0  0
   18.8321    5.9814    4.7453 H   0  0  0  0  0  0  0  0  0  0  0  0
 11 12  1  0
 12  1  1  0
  1  2  2  0
  2  3  1  0
  3  4  1  0
  4  5  1  0
  5  6  2  0
  6 13  1  0
 13 14  1  0
 14 15  2  0
 14 16  1  0
  6  7  1  0
  7  8  1  0
  8  9  2  0
  9 10  1  0
  9  1  1  0
  7  3  2  0
 16 17  1  0
M  END
> <minimizedAffinity>
-5.76576

> <CNNscore>
0.4551707506

> <CNNaffinity>
3.9382679462

> <CNN_VS>
1.7925844193

> <CNNaffinity_variance>
0.4756568372

$$$$



 17 18  0  0  0  0  0  0  0  0999 V2000
   20.1395    7.6220    4.7227 C   0  0  0  0  0  0  0  0  0  0  0  0
   18.9171    7.2250    4.1633 C   0  0  0  0  0  0  0  0  0  0  0  0
   17.9525    8.2178    3.9854 C   0  0  0  0  0  0  0  0  0  0  0  0
   16.7136    8.0189    3.4607 O   0  0  0  0  0  0  0  0  0  0  0  0
   16.0872    9.2222    3.4523 C   0  0  0  0  0  0  0  0  0  0  0  0
   16.9004   10.2093    3.9743 C   0  0  0  0  0  0  0  0  0  0  0  0
   18.1227    9.5539    4.3222 C   0  0  0  0  0  0  0  0  0  0  0  0
   19.3504    9.9457    4.8821 C   0  0  0  0  0  0  0  0  0  0  0  0
   20.3435    8.9705    5.0754 C   0  0  0  0  0  0  0  0  0  0  0  0
   21.8411    9.4963    5.7716 Cl  0  0  0  0  0  0  0  0  0  0  0  0
   21.6908    6.0168    3.8632 C   0  0  0  0  0  0  0  0  0  0  0  0
   21.1847    6.7632    4.9623 O   0  0  0  0  0  0  0  0  0  0  0  0
   16.5629   11.6529    4.1392 C   0  0  0  0  0  0  0  0  0  0  0  0
   17.0489   12.5030    2.9898 C   0  0  0  0  0  0  0  0  0  0  0  0
   17.4539   12.1412    1.8986 O   0  0  0  0  0  0  0  0  0  0  0  0
   16.9882   13.8209    3.2819 O   0  0  0  0  0  0  0  0  0  0  0  0
   16.6771   14.1011    4.1201 H   0  0  0  0  0  0  0  0  0  0  0  0
 11 12  1  0
 12  1  1  0
  1  2  2  0
  2  3  1  0
  3  4  1  0
  4  5  1  0
  5  6  2  0
  6 13  1  0
 13 14  1  0
 14 15  2  0
 14 16  1  0
  6  7  1  0
  7  8  1  0
  8  9  2  0
  9 10  1  0
  9  1  1  0
  7  3  2  0
 16 17  1  0
M  END
> <minimizedAffinity>
-4.56166

> <CNNscore>
0.4029963017

> <CNNaffinity>
3.7430679798

> <CNN_VS>
1.5084425211

> <CNNaffinity_variance>
0.2536408901

$$$$



 17 18  0  0  0  0  0  0  0  0999 V2000
   21.1350    7.2991    4.9970 C   0  0  0  0  0  0  0  0  0  0  0  0
   21.7402    8.3600    5.6844 C   0  0  0  0  0  0  0  0  0  0  0  0
   23.1129    8.2606    5.9160 C   0  0  0  0  0  0  0  0  0  0  0  0
   23.8655    9.1892    6.5651 O   0  0  0  0  0  0  0  0  0  0  0  0
   25.1412    8.7281    6.5793 C   0  0  0  0  0  0  0  0  0  0  0  0
   25.2329    7.5007    5.9521 C   0  0  0  0  0  0  0  0  0  0  0  0
   23.9063    7.1939    5.5158 C   0  0  0  0  0  0  0  0  0  0  0  0
   23.2938    6.1336    4.8266 C   0  0  0  0  0  0  0  0  0  0  0  0
   21.9125    6.2019    4.5774 C   0  0  0  0  0  0  0  0  0  0  0  0
   21.1972    4.8715    3.7275 Cl  0  0  0  0  0  0  0  0  0  0  0  0
   19.0111    8.3993    4.9834 C   0  0  0  0  0  0  0  0  0  0  0  0
   19.7954    7.2490    4.6962 O   0  0  0  0  0  0  0  0  0  0  0  0
   26.4627    6.6752    5.7758 C   0  0  0  0  0  0  0  0  0  0  0  0
   26.9393    6.6327    4.3436 C   0  0  0  0  0  0  0  0  0  0  0  0
   26.6943    7.4139    3.4405 O   0  0  0  0  0  0  0  0  0  0  0  0
   27.7415    5.5698    4.1148 O   0  0  0  0  0  0  0  0  0  0  0  0
   27.9310    4.9681    4.8076 H   0  0  0  0  0  0  0  0  0  0  0  0
 11 12  1  0
 12  1  1  0
  1  2  2  0
  2  3  1  0
  3  4  1  0
  4  5  1  0
  5  6  2  0
  6 13  1  0
 13 14  1  0
 14 15  2  0
 14 16  1  0
  6  7  1  0
  7  8  1  0
  8  9  2  0
  9 10  1  0
  9  1  1  0
  7  3  2  0
 16 17  1  0
M  END
> <minimizedAffinity>
-4.95072

> <CNNscore>
0.2944030166

> <CNNaffinity>
3.7632167339

> <CNN_VS>
1.1079024076

> <CNNaffinity_variance>
0.1819548607

$$$$



 17 18  0  0  0  0  0  0  0  0999 V2000
   14.5275    9.5115    5.0418 C   0  0  0  0  0  0  0  0  0  0  0  0
   14.1090    9.9360    3.7732 C   0  0  0  0  0  0  0  0  0  0  0  0
   15.1062   10.1674    2.8245 C   0  0  0  0  0  0  0  0  0  0  0  0
   14.8891   10.5825    1.5476 O   0  0  0  0  0  0  0  0  0  0  0  0
   16.1030   10.6844    0.9506 C   0  0  0  0  0  0  0  0  0  0  0  0
   17.1170   10.3476    1.8261 C   0  0  0  0  0  0  0  0  0  0  0  0
   16.4662   10.0073    3.0529 C   0  0  0  0  0  0  0  0  0  0  0  0
   16.8793    9.5810    4.3264 C   0  0  0  0  0  0  0  0  0  0  0  0
   15.9005    9.3395    5.3054 C   0  0  0  0  0  0  0  0  0  0  0  0
   16.4541    8.8185    6.8630 Cl  0  0  0  0  0  0  0  0  0  0  0  0
   13.6667   10.1444    7.1819 C   0  0  0  0  0  0  0  0  0  0  0  0
   13.6682    9.2458    6.0803 O   0  0  0  0  0  0  0  0  0  0  0  0
   18.5814   10.3462    1.5418 C   0  0  0  0  0  0  0  0  0  0  0  0
   19.0232   11.5458    0.7383 C   0  0  0  0  0  0  0  0  0  0  0  0
   18.4770   12.6306    0.6344 O   0  0  0  0  0  0  0  0  0  0  0  0
   20.1838   11.3119    0.0873 O   0  0  0  0  0  0  0  0  0  0  0  0
   20.6053   10.4787    0.1658 H   0  0  0  0  0  0  0  0  0  0  0  0
 11 12  1  0
 12  1  1  0
  1  2  2  0
  2  3  1  0
  3  4  1  0
  4  5  1  0
  5  6  2  0
  6 13  1  0
 13 14  1  0
 14 15  2  0
 14 16  1  0
  6  7  1  0
  7  8  1  0
  8  9  2  0
  9 10  1  0
  9  1  1  0
  7  3  2  0
 16 17  1  0
M  END
> <minimizedAffinity>
-6.26757

> <CNNscore>
0.2882463038

> <CNNaffinity>
3.4891860485

> <CNN_VS>
1.0057449341

> <CNNaffinity_variance>
0.4724035263

$$$$



 17 18  0  0  0  0  0  0  0  0999 V2000
   15.2937   10.0929   -1.5326 C   0  0  0  0  0  0  0  0  0  0  0  0
   16.6643   10.3724   -1.6229 C   0  0  0  0  0  0  0  0  0  0  0  0
   17.3163   10.7221   -0.4396 C   0  0  0  0  0  0  0  0  0  0  0  0
   18.6378   11.0265   -0.3357 O   0  0  0  0  0  0  0  0  0  0  0  0
   18.8807   11.3045    0.9697 C   0  0  0  0  0  0  0  0  0  0  0  0
   17.7287   11.1933    1.7240 C   0  0  0  0  0  0  0  0  0  0  0  0
   16.7040   10.8105    0.8033 C   0  0  0  0  0  0  0  0  0  0  0  0
   15.3299   10.5286    0.8874 C   0  0  0  0  0  0  0  0  0  0  0  0
   14.6429   10.1736   -0.2859 C   0  0  0  0  0  0  0  0  0  0  0  0
   12.9491    9.8376   -0.1375 Cl  0  0  0  0  0  0  0  0  0  0  0  0
   15.0311    9.9849   -3.9077 C   0  0  0  0  0  0  0  0  0  0  0  0
   14.5141    9.7378   -2.6067 O   0  0  0  0  0  0  0  0  0  0  0  0
   17.5929   11.4291    3.1906 C   0  0  0  0  0  0  0  0  0  0  0  0
   16.5921   12.5107    3.5198 C   0  0  0  0  0  0  0  0  0  0  0  0
   15.4817   12.3917    4.0084 O   0  0  0  0  0  0  0  0  0  0  0  0
   17.0642   13.7390    3.2134 O   0  0  0  0  0  0  0  0  0  0  0  0
   17.9175   13.8327    2.8378 H   0  0  0  0  0  0  0  0  0  0  0  0
 11 12  1  0
 12  1  1  0
  1  2  2  0
  2  3  1  0
  3  4  1  0
  4  5  1  0
  5  6  2  0
  6 13  1  0
 13 14  1  0
 14 15  2  0
 14 16  1  0
  6  7  1  0
  7  8  1  0
  8  9  2  0
  9 10  1  0
  9  1  1  0
  7  3  2  0
 16 17  1  0
M  END
> <minimizedAffinity>
-6.69547

> <CNNscore>
0.2602607906

> <CNNaffinity>
3.9058685303

> <CNN_VS>
1.0165444613

> <CNNaffinity_variance>
0.4278527200

$$$$



 17 18  0  0  0  0  0  0  0  0999 V2000
   18.0995   20.7962   -4.2965 C   0  0  0  0  0  0  0  0  0  0  0  0
   18.7397   19.8875   -3.4425 C   0  0  0  0  0  0  0  0  0  0  0  0
   19.8477   19.2121   -3.9561 C   0  0  0  0  0  0  0  0  0  0  0  0
   20.5897   18.2971   -3.2763 O   0  0  0  0  0  0  0  0  0  0  0  0
   21.5708   17.8786   -4.1144 C   0  0  0  0  0  0  0  0  0  0  0  0
   21.4759   18.5044   -5.3422 C   0  0  0  0  0  0  0  0  0  0  0  0
   20.3494   19.3791   -5.2398 C   0  0  0  0  0  0  0  0  0  0  0  0
   19.7037   20.2918   -6.0909 C   0  0  0  0  0  0  0  0  0  0  0  0
   18.5841   20.9884   -5.6052 C   0  0  0  0  0  0  0  0  0  0  0  0
   17.8160   22.1016   -6.6890 Cl  0  0  0  0  0  0  0  0  0  0  0  0
   17.2052   22.6785   -3.1223 C   0  0  0  0  0  0  0  0  0  0  0  0
   16.9969   21.5337   -3.9390 O   0  0  0  0  0  0  0  0  0  0  0  0
   22.3655   18.3004   -6.5220 C   0  0  0  0  0  0  0  0  0  0  0  0
   21.6279   17.7660   -7.7263 C   0  0  0  0  0  0  0  0  0  0  0  0
   21.4153   18.3197   -8.7913 O   0  0  0  0  0  0  0  0  0  0  0  0
   21.1859   16.5054   -7.5233 O   0  0  0  0  0  0  0  0  0  0  0  0
   21.3483   16.0781   -6.7054 H   0  0  0  0  0  0  0  0  0  0  0  0
 11 12  1  0
 12  1  1  0
  1  2  2  0
  2  3  1  0
  3  4  1  0
  4  5  1  0
  5  6  2  0
  6 13  1  0
 13 14  1  0
 14 15  2  0
 14 16  1  0
  6  7  1  0
  7  8  1  0
  8  9  2  0
  9 10  1  0
  9  1  1  0
  7  3  2  0
 16 17  1  0
M  END
> <minimizedAffinity>
-4.77405

> <CNNscore>
0.2568616569

> <CNNaffinity>
3.1784763336

> <CNN_VS>
0.8164287210

> <CNNaffinity_variance>
0.4378111362

$$$$



 17 18  0  0  0  0  0  0  0  0999 V2000
   16.1601   19.6133   -7.5303 C   0  0  0  0  0  0  0  0  0  0  0  0
   17.2668   18.9524   -8.0809 C   0  0  0  0  0  0  0  0  0  0  0  0
   18.4147   18.8779   -7.2906 C   0  0  0  0  0  0  0  0  0  0  0  0
   19.5792   18.2789   -7.6580 O   0  0  0  0  0  0  0  0  0  0  0  0
   20.4420   18.4164   -6.6202 C   0  0  0  0  0  0  0  0  0  0  0  0
   19.8578   19.1075   -5.5766 C   0  0  0  0  0  0  0  0  0  0  0  0
   18.5300   19.4090   -6.0130 C   0  0  0  0  0  0  0  0  0  0  0  0
   17.4169   20.0698   -5.4664 C   0  0  0  0  0  0  0  0  0  0  0  0
   16.2450   20.1632   -6.2362 C   0  0  0  0  0  0  0  0  0  0  0  0
   14.8975   20.9893   -5.5250 Cl  0  0  0  0  0  0  0  0  0  0  0  0
   14.8998   20.7384   -9.2237 C   0  0  0  0  0  0  0  0  0  0  0  0
   14.9619   19.7712   -8.1836 O   0  0  0  0  0  0  0  0  0  0  0  0
   20.4900   19.4626   -4.2730 C   0  0  0  0  0  0  0  0  0  0  0  0
   20.7172   20.9473   -4.1174 C   0  0  0  0  0  0  0  0  0  0  0  0
   21.0382   21.7577   -4.9695 O   0  0  0  0  0  0  0  0  0  0  0  0
   20.5103   21.3543   -2.8457 O   0  0  0  0  0  0  0  0  0  0  0  0
   20.2634   20.7330   -2.1892 H   0  0  0  0  0  0  0  0  0  0  0  0
 11 12  1  0
 12  1  1  0
  1  2  2  0
  2  3  1  0
  3  4  1  0
  4  5  1  0
  5  6  2  0
  6 13  1  0
 13 14  1  0
 14 15  2  0
 14 16  1  0
  6  7  1  0
  7  8  1  0
  8  9  2  0
  9 10  1  0
  9  1  1  0
  7  3  2  0
 16 17  1  0
M  END
> <minimizedAffinity>
-4.07335

> <CNNscore>
0.2384575307

> <CNNaffinity>
3.3621492386

> <CNN_VS>
0.8017297983

> <CNNaffinity_variance>
0.2246085554

$$$$



 17 18  0  0  0  0  0  0  0  0999 V2000
    9.3017   10.5804  -12.0583 C   0  0  0  0  0  0  0  0  0  0  0  0
    9.5248   11.8127  -11.4289 C   0  0  0  0  0  0  0  0  0  0  0  0
    8.4954   12.3071  -10.6267 C   0  0  0  0  0  0  0  0  0  0  0  0
    8.5331   13.4819   -9.9422 O   0  0  0  0  0  0  0  0  0  0  0  0
    7.3517   13.5980   -9.2858 C   0  0  0  0  0  0  0  0  0  0  0  0
    6.5340   12.5137   -9.5388 C   0  0  0  0  0  0  0  0  0  0  0  0
    7.2819   11.6668  -10.4151 C   0  0  0  0  0  0  0  0  0  0  0  0
    7.0644   10.4314  -11.0484 C   0  0  0  0  0  0  0  0  0  0  0  0
    8.0807    9.9053  -11.8639 C   0  0  0  0  0  0  0  0  0  0  0  0
    7.7694    8.3813  -12.6283 Cl  0  0  0  0  0  0  0  0  0  0  0  0
   11.4680    9.5991  -12.3155 C   0  0  0  0  0  0  0  0  0  0  0  0
   10.2155    9.9654  -12.8795 O   0  0  0  0  0  0  0  0  0  0  0  0
    5.1592   12.2859   -9.0069 C   0  0  0  0  0  0  0  0  0  0  0  0
    5.1294   11.3001   -7.8635 C   0  0  0  0  0  0  0  0  0  0  0  0
    5.7480   10.2562   -7.7474 O   0  0  0  0  0  0  0  0  0  0  0  0
    4.2949   11.7007   -6.8793 O   0  0  0  0  0  0  0  0  0  0  0  0
    3.8185   12.5028   -6.9666 H   0  0  0  0  0  0  0  0  0  0  0  0
 11 12  1  0
 12  1  1  0
  1  2  2  0
  2  3  1  0
  3  4  1  0
  4  5  1  0
  5  6  2  0
  6 13  1  0
 13 14  1  0
 14 15  2  0
 14 16  1  0
  6  7  1  0
  7  8  1  0
  8  9  2  0
  9 10  1  0
  9  1  1  0
  7  3  2  0
 16 17  1  0
M  END
> <minimizedAffinity>
-4.17991

> <CNNscore>
0.2302778065

> <CNNaffinity>
3.2840788364

> <CNN_VS>
0.7562505007

> <CNNaffinity_variance>
0.2733494341

$$$$
