


 21 23  0  0  0  0  0  0  0  0999 V2000
    8.5185   10.1585    4.9394 S   0  0  0  0  0  0  0  0  0  0  0  0
    7.7653    9.7424    6.1021 O   0  0  0  0  0  0  0  0  0  0  0  0
    9.1755   11.4493    4.9075 O   0  0  0  0  0  0  0  0  0  0  0  0
    7.4195   10.0577    3.5340 C   0  0  0  0  0  0  0  0  0  0  0  0
    8.0089   10.0875    2.2587 C   0  0  0  0  0  0  0  0  0  0  0  0
    7.2160    9.9910    1.1215 C   0  0  0  0  0  0  0  0  0  0  0  0
    5.8361    9.8660    1.2525 C   0  0  0  0  0  0  0  0  0  0  0  0
    5.2304    9.8446    2.5216 C   0  0  0  0  0  0  0  0  0  0  0  0
    3.8443    9.7232    2.6543 C   0  0  0  0  0  0  0  0  0  0  0  0
    3.1797    9.6974    3.8298 N   0  0  0  0  0  0  0  0  0  0  0  0
    3.9302    9.8096    4.9393 C   0  0  0  0  0  0  0  0  0  0  0  0
    5.3117    9.9327    4.9261 C   0  0  0  0  0  0  0  0  0  0  0  0
    6.0099    9.9476    3.6966 C   0  0  0  0  0  0  0  0  0  0  0  0
   11.5849   10.0346    3.3510 C   0  0  0  0  0  0  0  0  0  0  0  0
   10.3511    9.1401    3.2239 C   0  0  0  0  0  0  0  0  0  0  0  0
   10.7866    7.7757    2.6283 C   0  0  0  0  0  0  0  0  0  0  0  0
    9.6949    6.8050    2.4775 N   0  0  0  0  0  0  0  0  0  0  0  0
    8.7527    6.8655    3.6035 C   0  0  0  0  0  0  0  0  0  0  0  0
    9.2945    7.5628    4.8640 C   0  0  0  0  0  0  0  0  0  0  0  0
    9.7164    8.9777    4.5908 N   0  0  0  0  0  0  0  0  0  0  0  0
   10.0916    5.8666    2.4289 H   0  0  0  0  0  0  0  0  0  0  0  0
 15 14  1  0
 15 16  1  0
 16 17  1  0
 17 18  1  0
 18 19  1  0
 19 20  1  0
 20  1  1  0
  1  2  2  0
  1  3  2  0
  1  4  1  0
  4  5  2  0
  5  6  1  0
  6  7  2  0
  7  8  1  0
  8  9  2  0
  9 10  1  0
 10 11  2  0
 11 12  1  0
 12 13  2  0
 20 15  1  0
 13  4  1  0
 13  8  1  0
 17 21  1  0
M  END
> <minimizedAffinity>
-8.44625

> <CNNscore>
0.9803735018

> <CNNaffinity>
6.1078147888

> <CNN_VS>
5.9879398346

> <CNNaffinity_variance>
0.4276983738

$$$$



 21 23  0  0  0  0  0  0  0  0999 V2000
    8.5732    9.7863    4.4986 S   0  0  0  0  0  0  0  0  0  0  0  0
    8.2616    8.7058    5.4083 O   0  0  0  0  0  0  0  0  0  0  0  0
    8.7772   11.1328    4.9926 O   0  0  0  0  0  0  0  0  0  0  0  0
    7.2760    9.8339    3.2705 C   0  0  0  0  0  0  0  0  0  0  0  0
    7.6726    9.8448    1.9224 C   0  0  0  0  0  0  0  0  0  0  0  0
    6.7163    9.8592    0.9142 C   0  0  0  0  0  0  0  0  0  0  0  0
    5.3649    9.8638    1.2467 C   0  0  0  0  0  0  0  0  0  0  0  0
    4.9522    9.8629    2.5912 C   0  0  0  0  0  0  0  0  0  0  0  0
    3.5953    9.8716    2.9264 C   0  0  0  0  0  0  0  0  0  0  0  0
    3.1105    9.8748    4.1870 N   0  0  0  0  0  0  0  0  0  0  0  0
    4.0226    9.8810    5.1744 C   0  0  0  0  0  0  0  0  0  0  0  0
    5.3926    9.8709    4.9580 C   0  0  0  0  0  0  0  0  0  0  0  0
    5.9015    9.8552    3.6389 C   0  0  0  0  0  0  0  0  0  0  0  0
   10.9582    7.2857    4.4890 C   0  0  0  0  0  0  0  0  0  0  0  0
   11.0980    8.8071    4.4237 C   0  0  0  0  0  0  0  0  0  0  0  0
   12.4853    9.1526    3.8221 C   0  0  0  0  0  0  0  0  0  0  0  0
   12.7407   10.5916    3.6768 N   0  0  0  0  0  0  0  0  0  0  0  0
   11.5365   11.3184    3.2514 C   0  0  0  0  0  0  0  0  0  0  0  0
   10.4327   10.4388    2.6378 C   0  0  0  0  0  0  0  0  0  0  0  0
    9.9678    9.3709    3.5856 N   0  0  0  0  0  0  0  0  0  0  0  0
   13.4727   10.7285    2.9798 H   0  0  0  0  0  0  0  0  0  0  0  0
 15 14  1  0
 15 16  1  0
 16 17  1  0
 17 18  1  0
 18 19  1  0
 19 20  1  0
 20  1  1  0
  1  2  2  0
  1  3  2  0
  1  4  1  0
  4  5  2  0
  5  6  1  0
  6  7  2  0
  7  8  1  0
  8  9  2  0
  9 10  1  0
 10 11  2  0
 11 12  1  0
 12 13  2  0
 20 15  1  0
 13  4  1  0
 13  8  1  0
 17 21  1  0
M  END
> <minimizedAffinity>
-8.47810

> <CNNscore>
0.9111742973

> <CNNaffinity>
6.0056366920

> <CNN_VS>
5.4721817970

> <CNNaffinity_variance>
0.0062848292

$$$$



 21 23  0  0  0  0  0  0  0  0999 V2000
   10.4971    9.8052    3.9149 S   0  0  0  0  0  0  0  0  0  0  0  0
   10.0759    9.7792    5.2984 O   0  0  0  0  0  0  0  0  0  0  0  0
   11.4353   10.8048    3.4467 O   0  0  0  0  0  0  0  0  0  0  0  0
    9.0203    9.9151    2.9149 C   0  0  0  0  0  0  0  0  0  0  0  0
    9.1890    9.8800    1.5202 C   0  0  0  0  0  0  0  0  0  0  0  0
    8.0822    9.9388    0.6821 C   0  0  0  0  0  0  0  0  0  0  0  0
    6.8068   10.0337    1.2310 C   0  0  0  0  0  0  0  0  0  0  0  0
    6.6222   10.0798    2.6245 C   0  0  0  0  0  0  0  0  0  0  0  0
    5.3421   10.1791    3.1768 C   0  0  0  0  0  0  0  0  0  0  0  0
    5.0729   10.2324    4.4993 N   0  0  0  0  0  0  0  0  0  0  0  0
    6.1341   10.1966    5.3236 C   0  0  0  0  0  0  0  0  0  0  0  0
    7.4465   10.0969    4.8863 C   0  0  0  0  0  0  0  0  0  0  0  0
    7.7291   10.0286    3.5026 C   0  0  0  0  0  0  0  0  0  0  0  0
   12.7627    7.5521    5.2310 C   0  0  0  0  0  0  0  0  0  0  0  0
   12.6201    8.1250    3.8204 C   0  0  0  0  0  0  0  0  0  0  0  0
   13.3361    7.1756    2.8244 C   0  0  0  0  0  0  0  0  0  0  0  0
   13.2517    7.5965    1.4199 N   0  0  0  0  0  0  0  0  0  0  0  0
   11.9350    8.1650    1.0997 C   0  0  0  0  0  0  0  0  0  0  0  0
   10.8191    7.8174    2.1009 C   0  0  0  0  0  0  0  0  0  0  0  0
   11.1471    8.2718    3.4940 N   0  0  0  0  0  0  0  0  0  0  0  0
   13.4161    6.7867    0.8219 H   0  0  0  0  0  0  0  0  0  0  0  0
 15 14  1  0
 15 16  1  0
 16 17  1  0
 17 18  1  0
 18 19  1  0
 19 20  1  0
 20  1  1  0
  1  2  2  0
  1  3  2  0
  1  4  1  0
  4  5  2  0
  5  6  1  0
  6  7  2  0
  7  8  1  0
  8  9  2  0
  9 10  1  0
 10 11  2  0
 11 12  1  0
 12 13  2  0
 20 15  1  0
 13  4  1  0
 13  8  1  0
 17 21  1  0
M  END
> <minimizedAffinity>
-8.23830

> <CNNscore>
0.5333172679

> <CNNaffinity>
6.0681586266

> <CNN_VS>
3.2362537384

> <CNNaffinity_variance>
0.0478300788

$$$$



 21 23  0  0  0  0  0  0  0  0999 V2000
   16.6160   10.5328   -0.6696 S   0  0  0  0  0  0  0  0  0  0  0  0
   15.6807   11.6142   -0.8889 O   0  0  0  0  0  0  0  0  0  0  0  0
   17.6310   10.6308    0.3594 O   0  0  0  0  0  0  0  0  0  0  0  0
   17.4310   10.2148   -2.2278 C   0  0  0  0  0  0  0  0  0  0  0  0
   18.8100    9.9480   -2.1847 C   0  0  0  0  0  0  0  0  0  0  0  0
   19.5036    9.6702   -3.3564 C   0  0  0  0  0  0  0  0  0  0  0  0
   18.8257    9.6590   -4.5719 C   0  0  0  0  0  0  0  0  0  0  0  0
   17.4478    9.9337   -4.6325 C   0  0  0  0  0  0  0  0  0  0  0  0
   16.7668    9.9266   -5.8531 C   0  0  0  0  0  0  0  0  0  0  0  0
   15.4491   10.1816   -6.0045 N   0  0  0  0  0  0  0  0  0  0  0  0
   14.7673   10.4716   -4.8830 C   0  0  0  0  0  0  0  0  0  0  0  0
   15.3397   10.5050   -3.6200 C   0  0  0  0  0  0  0  0  0  0  0  0
   16.7164   10.2263   -3.4585 C   0  0  0  0  0  0  0  0  0  0  0  0
   13.6871    9.5991    0.9087 C   0  0  0  0  0  0  0  0  0  0  0  0
   15.1019    9.0256    0.9962 C   0  0  0  0  0  0  0  0  0  0  0  0
   15.0158    7.5713    1.5288 C   0  0  0  0  0  0  0  0  0  0  0  0
   16.3116    6.8885    1.6364 N   0  0  0  0  0  0  0  0  0  0  0  0
   17.1998    7.2254    0.5152 C   0  0  0  0  0  0  0  0  0  0  0  0
   16.4926    7.8257   -0.7129 C   0  0  0  0  0  0  0  0  0  0  0  0
   15.7432    9.0826   -0.3761 N   0  0  0  0  0  0  0  0  0  0  0  0
   16.1545    5.8807    1.6420 H   0  0  0  0  0  0  0  0  0  0  0  0
 15 14  1  0
 15 16  1  0
 16 17  1  0
 17 18  1  0
 18 19  1  0
 19 20  1  0
 20  1  1  0
  1  2  2  0
  1  3  2  0
  1  4  1  0
  4  5  2  0
  5  6  1  0
  6  7  2  0
  7  8  1  0
  8  9  2  0
  9 10  1  0
 10 11  2  0
 11 12  1  0
 12 13  2  0
 20 15  1  0
 13  4  1  0
 13  8  1  0
 17 21  1  0
M  END
> <minimizedAffinity>
-7.48736

> <CNNscore>
0.2382917553

> <CNNaffinity>
4.2891941071

> <CNN_VS>
1.0220795870

> <CNNaffinity_variance>
0.4029240310

$$$$



 21 23  0  0  0  0  0  0  0  0999 V2000
   11.1820   10.6017    2.5176 S   0  0  0  0  0  0  0  0  0  0  0  0
   11.8292   11.7296    3.1510 O   0  0  0  0  0  0  0  0  0  0  0  0
   10.9597   10.5852    1.0862 O   0  0  0  0  0  0  0  0  0  0  0  0
    9.6063   10.3727    3.3289 C   0  0  0  0  0  0  0  0  0  0  0  0
    9.5935   10.4467    4.7322 C   0  0  0  0  0  0  0  0  0  0  0  0
    8.3993   10.3001    5.4274 C   0  0  0  0  0  0  0  0  0  0  0  0
    7.2172   10.0786    4.7270 C   0  0  0  0  0  0  0  0  0  0  0  0
    7.2152    9.9923    3.3232 C   0  0  0  0  0  0  0  0  0  0  0  0
    6.0292    9.7659    2.6190 C   0  0  0  0  0  0  0  0  0  0  0  0
    5.9354    9.6656    1.2754 N   0  0  0  0  0  0  0  0  0  0  0  0
    7.0848    9.7854    0.5888 C   0  0  0  0  0  0  0  0  0  0  0  0
    8.3171   10.0132    1.1829 C   0  0  0  0  0  0  0  0  0  0  0  0
    8.4151   10.1306    2.5886 C   0  0  0  0  0  0  0  0  0  0  0  0
   10.6244    7.1930    2.4111 C   0  0  0  0  0  0  0  0  0  0  0  0
   11.1729    8.0866    3.5242 C   0  0  0  0  0  0  0  0  0  0  0  0
   11.9735    7.2056    4.5187 C   0  0  0  0  0  0  0  0  0  0  0  0
   12.5823    7.9479    5.6302 N   0  0  0  0  0  0  0  0  0  0  0  0
   13.1038    9.2507    5.1944 C   0  0  0  0  0  0  0  0  0  0  0  0
   13.3116    9.3896    3.6758 C   0  0  0  0  0  0  0  0  0  0  0  0
   12.0406    9.1660    2.9080 N   0  0  0  0  0  0  0  0  0  0  0  0
   13.3496    7.3967    6.0145 H   0  0  0  0  0  0  0  0  0  0  0  0
 15 14  1  0
 15 16  1  0
 16 17  1  0
 17 18  1  0
 18 19  1  0
 19 20  1  0
 20  1  1  0
  1  2  2  0
  1  3  2  0
  1  4  1  0
  4  5  2  0
  5  6  1  0
  6  7  2  0
  7  8  1  0
  8  9  2  0
  9 10  1  0
 10 11  2  0
 11 12  1  0
 12 13  2  0
 20 15  1  0
 13  4  1  0
 13  8  1  0
 17 21  1  0
M  END
> <minimizedAffinity>
-7.37392

> <CNNscore>
0.2084508389

> <CNNaffinity>
5.0585055351

> <CNN_VS>
1.0544496775

> <CNNaffinity_variance>
0.2249984890

$$$$



 21 23  0  0  0  0  0  0  0  0999 V2000
    9.8122    8.5126    1.0694 S   0  0  0  0  0  0  0  0  0  0  0  0
    9.6109    8.6216   -0.3588 O   0  0  0  0  0  0  0  0  0  0  0  0
    9.9937    7.2179    1.6935 O   0  0  0  0  0  0  0  0  0  0  0  0
    8.4311    9.3242    1.8612 C   0  0  0  0  0  0  0  0  0  0  0  0
    7.3871    9.7650    1.0303 C   0  0  0  0  0  0  0  0  0  0  0  0
    6.2717   10.3845    1.5808 C   0  0  0  0  0  0  0  0  0  0  0  0
    6.1949   10.5669    2.9585 C   0  0  0  0  0  0  0  0  0  0  0  0
    7.2358   10.1401    3.8024 C   0  0  0  0  0  0  0  0  0  0  0  0
    7.1615   10.3262    5.1856 C   0  0  0  0  0  0  0  0  0  0  0  0
    8.1129    9.9518    6.0681 N   0  0  0  0  0  0  0  0  0  0  0  0
    9.2076    9.3687    5.5499 C   0  0  0  0  0  0  0  0  0  0  0  0
    9.3866    9.1324    4.1950 C   0  0  0  0  0  0  0  0  0  0  0  0
    8.3861    9.5127    3.2712 C   0  0  0  0  0  0  0  0  0  0  0  0
   11.1319   11.5933    0.2276 C   0  0  0  0  0  0  0  0  0  0  0  0
   11.7932   10.2216    0.3666 C   0  0  0  0  0  0  0  0  0  0  0  0
   13.3156   10.4243    0.5841 C   0  0  0  0  0  0  0  0  0  0  0  0
   14.0729    9.1785    0.7614 N   0  0  0  0  0  0  0  0  0  0  0  0
   13.3257    8.1954    1.5580 C   0  0  0  0  0  0  0  0  0  0  0  0
   12.1666    8.7792    2.3852 C   0  0  0  0  0  0  0  0  0  0  0  0
   11.1554    9.4815    1.5256 N   0  0  0  0  0  0  0  0  0  0  0  0
   14.9504    9.3901    1.2363 H   0  0  0  0  0  0  0  0  0  0  0  0
 15 14  1  0
 15 16  1  0
 16 17  1  0
 17 18  1  0
 18 19  1  0
 19 20  1  0
 20  1  1  0
  1  2  2  0
  1  3  2  0
  1  4  1  0
  4  5  2  0
  5  6  1  0
  6  7  2  0
  7  8  1  0
  8  9  2  0
  9 10  1  0
 10 11  2  0
 11 12  1  0
 12 13  2  0
 20 15  1  0
 13  4  1  0
 13  8  1  0
 17 21  1  0
M  END
> <minimizedAffinity>
-7.44863

> <CNNscore>
0.1753570884

> <CNNaffinity>
4.4627671242

> <CNN_VS>
0.7825778723

> <CNNaffinity_variance>
0.8324206471

$$$$



 21 23  0  0  0  0  0  0  0  0999 V2000
   10.6114    9.7336    3.2942 S   0  0  0  0  0  0  0  0  0  0  0  0
   10.5423    8.6798    4.2827 O   0  0  0  0  0  0  0  0  0  0  0  0
   10.9700   11.0839    3.6773 O   0  0  0  0  0  0  0  0  0  0  0  0
    9.0264    9.7902    2.4707 C   0  0  0  0  0  0  0  0  0  0  0  0
    9.0230    9.6026    1.0781 C   0  0  0  0  0  0  0  0  0  0  0  0
    7.8239    9.6122    0.3760 C   0  0  0  0  0  0  0  0  0  0  0  0
    6.6274    9.8098    1.0590 C   0  0  0  0  0  0  0  0  0  0  0  0
    6.6152   10.0087    2.4511 C   0  0  0  0  0  0  0  0  0  0  0  0
    5.4146   10.2111    3.1375 C   0  0  0  0  0  0  0  0  0  0  0  0
    5.3099   10.4129    4.4689 N   0  0  0  0  0  0  0  0  0  0  0  0
    6.4626   10.4262    5.1603 C   0  0  0  0  0  0  0  0  0  0  0  0
    7.7094   10.2344    4.5836 C   0  0  0  0  0  0  0  0  0  0  0  0
    7.8194   10.0108    3.1918 C   0  0  0  0  0  0  0  0  0  0  0  0
   12.9288    7.2314    2.7372 C   0  0  0  0  0  0  0  0  0  0  0  0
   13.0221    8.7464    2.5510 C   0  0  0  0  0  0  0  0  0  0  0  0
   14.1734    9.0543    1.5580 C   0  0  0  0  0  0  0  0  0  0  0  0
   14.3557   10.4821    1.2666 N   0  0  0  0  0  0  0  0  0  0  0  0
   13.0697   11.1861    1.1658 C   0  0  0  0  0  0  0  0  0  0  0  0
   11.8489   10.2755    0.9447 C   0  0  0  0  0  0  0  0  0  0  0  0
   11.6910    9.2641    2.0433 N   0  0  0  0  0  0  0  0  0  0  0  0
   14.8547   10.5777    0.3822 H   0  0  0  0  0  0  0  0  0  0  0  0
 15 14  1  0
 15 16  1  0
 16 17  1  0
 17 18  1  0
 18 19  1  0
 19 20  1  0
 20  1  1  0
  1  2  2  0
  1  3  2  0
  1  4  1  0
  4  5  2  0
  5  6  1  0
  6  7  2  0
  7  8  1  0
  8  9  2  0
  9 10  1  0
 10 11  2  0
 11 12  1  0
 12 13  2  0
 20 15  1  0
 13  4  1  0
 13  8  1  0
 17 21  1  0
M  END
> <minimizedAffinity>
-7.72341

> <CNNscore>
0.1731010079

> <CNNaffinity>
5.1971716881

> <CNN_VS>
0.8996356726

> <CNNaffinity_variance>
0.1234706864

$$$$



 21 23  0  0  0  0  0  0  0  0999 V2000
    9.2220    9.8285    4.2111 S   0  0  0  0  0  0  0  0  0  0  0  0
    8.7886    8.8121    5.1445 O   0  0  0  0  0  0  0  0  0  0  0  0
    9.4274   11.1942    4.6484 O   0  0  0  0  0  0  0  0  0  0  0  0
    8.0470    9.8452    2.8648 C   0  0  0  0  0  0  0  0  0  0  0  0
    6.6843    9.8047    3.2056 C   0  0  0  0  0  0  0  0  0  0  0  0
    5.7152    9.8371    2.2102 C   0  0  0  0  0  0  0  0  0  0  0  0
    6.1014    9.9086    0.8750 C   0  0  0  0  0  0  0  0  0  0  0  0
    7.4612    9.9398    0.5174 C   0  0  0  0  0  0  0  0  0  0  0  0
    7.8502   10.0076   -0.8234 C   0  0  0  0  0  0  0  0  0  0  0  0
    9.1291   10.0382   -1.2564 N   0  0  0  0  0  0  0  0  0  0  0  0
   10.0794    9.9877   -0.3070 C   0  0  0  0  0  0  0  0  0  0  0  0
    9.8085    9.9213    1.0516 C   0  0  0  0  0  0  0  0  0  0  0  0
    8.4701    9.9015    1.5071 C   0  0  0  0  0  0  0  0  0  0  0  0
   10.3969    7.0183    2.5790 C   0  0  0  0  0  0  0  0  0  0  0  0
   11.0105    7.8593    3.6991 C   0  0  0  0  0  0  0  0  0  0  0  0
   12.5422    7.6149    3.7209 C   0  0  0  0  0  0  0  0  0  0  0  0
   13.2640    8.3884    4.7397 N   0  0  0  0  0  0  0  0  0  0  0  0
   12.7188    9.7456    4.8809 C   0  0  0  0  0  0  0  0  0  0  0  0
   11.8544   10.2221    3.7001 C   0  0  0  0  0  0  0  0  0  0  0  0
   10.6795    9.3188    3.4582 N   0  0  0  0  0  0  0  0  0  0  0  0
   14.2458    8.4531    4.4710 H   0  0  0  0  0  0  0  0  0  0  0  0
 15 14  1  0
 15 16  1  0
 16 17  1  0
 17 18  1  0
 18 19  1  0
 19 20  1  0
 20  1  1  0
  1  2  2  0
  1  3  2  0
  1  4  1  0
  4  5  2  0
  5  6  1  0
  6  7  2  0
  7  8  1  0
  8  9  2  0
  9 10  1  0
 10 11  2  0
 11 12  1  0
 12 13  2  0
 20 15  1  0
 13  4  1  0
 13  8  1  0
 17 21  1  0
M  END
> <minimizedAffinity>
-7.61354

> <CNNscore>
0.1718355864

> <CNNaffinity>
4.6057105064

> <CNN_VS>
0.7914249897

> <CNNaffinity_variance>
1.1694107056

$$$$



 21 23  0  0  0  0  0  0  0  0999 V2000
   11.0696   10.1968    2.9108 S   0  0  0  0  0  0  0  0  0  0  0  0
   11.6871   11.4131    3.3920 O   0  0  0  0  0  0  0  0  0  0  0  0
   10.9658    9.9326    1.4902 O   0  0  0  0  0  0  0  0  0  0  0  0
    9.4277   10.1245    3.6124 C   0  0  0  0  0  0  0  0  0  0  0  0
    9.3284   10.1798    5.0130 C   0  0  0  0  0  0  0  0  0  0  0  0
    8.0814   10.1506    5.6255 C   0  0  0  0  0  0  0  0  0  0  0  0
    6.9324   10.0653    4.8449 C   0  0  0  0  0  0  0  0  0  0  0  0
    7.0157    9.9993    3.4425 C   0  0  0  0  0  0  0  0  0  0  0  0
    5.8626    9.9096    2.6577 C   0  0  0  0  0  0  0  0  0  0  0  0
    5.8492    9.8387    1.3090 N   0  0  0  0  0  0  0  0  0  0  0  0
    7.0483    9.8458    0.7016 C   0  0  0  0  0  0  0  0  0  0  0  0
    8.2551    9.9336    1.3797 C   0  0  0  0  0  0  0  0  0  0  0  0
    8.2702   10.0202    2.7909 C   0  0  0  0  0  0  0  0  0  0  0  0
   12.7362    9.4694    5.8492 C   0  0  0  0  0  0  0  0  0  0  0  0
   13.1124    9.2083    4.3902 C   0  0  0  0  0  0  0  0  0  0  0  0
   14.1653    8.0701    4.3452 C   0  0  0  0  0  0  0  0  0  0  0  0
   14.5965    7.6977    2.9915 N   0  0  0  0  0  0  0  0  0  0  0  0
   13.4793    7.7243    2.0373 C   0  0  0  0  0  0  0  0  0  0  0  0
   12.0802    7.6929    2.6776 C   0  0  0  0  0  0  0  0  0  0  0  0
   11.8612    8.8449    3.6155 N   0  0  0  0  0  0  0  0  0  0  0  0
   14.9870    6.7558    3.0167 H   0  0  0  0  0  0  0  0  0  0  0  0
 15 14  1  0
 15 16  1  0
 16 17  1  0
 17 18  1  0
 18 19  1  0
 19 20  1  0
 20  1  1  0
  1  2  2  0
  1  3  2  0
  1  4  1  0
  4  5  2  0
  5  6  1  0
  6  7  2  0
  7  8  1  0
  8  9  2  0
  9 10  1  0
 10 11  2  0
 11 12  1  0
 12 13  2  0
 20 15  1  0
 13  4  1  0
 13  8  1  0
 17 21  1  0
M  END
> <minimizedAffinity>
-7.90736

> <CNNscore>
0.1582292020

> <CNNaffinity>
4.7513375282

> <CNN_VS>
0.7518003583

> <CNNaffinity_variance>
0.3762052357

$$$$
