


 59 63  0  0  0  0  0  0  0  0999 V2000
  -30.0450  -29.4400   18.6080 P   0  0  0  0  0  0  0  0  0  0  0  0
  -31.4764  -29.5566   18.1675 O   0  0  0  0  0  0  0  0  0  0  0  0
  -29.7872  -29.1120   20.0783 O   0  0  0  0  0  0  0  0  0  0  0  0
  -29.3577  -28.2361   17.7689 O   0  0  0  0  0  0  0  0  0  0  0  0
  -30.1905  -27.4726   16.9139 C   0  0  0  0  0  0  0  0  0  0  0  0
  -31.7018  -24.8084   16.0154 C   0  0  0  0  0  0  0  0  0  0  0  0
  -32.1652  -25.7831   17.0917 C   0  0  0  0  0  0  0  0  0  0  0  0
  -30.8268  -26.2853   17.6519 C   0  0  0  0  0  0  0  0  0  0  0  0
  -29.9240  -25.1398   17.6071 O   0  0  0  0  0  0  0  0  0  0  0  0
  -30.5117  -24.1605   16.7262 C   0  0  0  0  0  0  0  0  0  0  0  0
  -29.4770  -23.6389   15.8516 N   0  0  0  0  0  0  0  0  0  0  0  0
  -29.0250  -22.3413   15.8453 C   0  0  0  0  0  0  0  0  0  0  0  0
  -28.0587  -22.1496   14.9702 N   0  0  0  0  0  0  0  0  0  0  0  0
  -27.8676  -23.3940   14.3924 C   0  0  0  0  0  0  0  0  0  0  0  0
  -26.9830  -23.8594   13.4049 C   0  0  0  0  0  0  0  0  0  0  0  0
  -26.0421  -23.0427   12.7816 N   0  0  0  0  0  0  0  0  0  0  0  0
  -27.0657  -25.1518   13.0088 N   0  0  0  0  0  0  0  0  0  0  0  0
  -27.9890  -25.9436   13.6018 C   0  0  0  0  0  0  0  0  0  0  0  0
  -28.8925  -25.5969   14.5345 N   0  0  0  0  0  0  0  0  0  0  0  0
  -28.7638  -24.3157   14.9041 C   0  0  0  0  0  0  0  0  0  0  0  0
  -25.9571  -22.0984   13.0469 H   0  0  0  0  0  0  0  0  0  0  0  0
  -25.4621  -23.4098   12.0758 H   0  0  0  0  0  0  0  0  0  0  0  0
  -32.6126  -22.6600   16.4173 C   0  0  0  0  0  0  0  0  0  0  0  0
  -32.6678  -23.8304   15.6057 O   0  0  0  0  0  0  0  0  0  0  0  0
  -32.9109  -25.0966   18.1032 O   0  0  0  0  0  0  0  0  0  0  0  0
  -33.1966  -25.8621   19.4825 P   0  0  0  0  0  0  0  0  0  0  0  0
  -34.3555  -25.4379   20.3215 O   0  0  0  0  0  0  0  0  0  0  0  0
  -31.7940  -26.0157   20.2133 O   0  0  0  0  0  0  0  0  0  0  0  0
  -33.3664  -27.3793   18.9794 O   0  0  0  0  0  0  0  0  0  0  0  0
  -31.5301  -25.1614   20.5893 H   0  0  0  0  0  0  0  0  0  0  0  0
  -34.2023  -27.4677   18.4953 H   0  0  0  0  0  0  0  0  0  0  0  0
  -29.1587  -30.6946   18.2065 O   0  0  0  0  0  0  0  0  0  0  0  0
  -27.6278  -31.0776   18.4372 P   0  0  0  0  0  0  0  0  0  0  0  0
  -27.4921  -32.4659   19.0388 O   0  0  0  0  0  0  0  0  0  0  0  0
  -26.8170  -29.9254   18.9588 O   0  0  0  0  0  0  0  0  0  0  0  0
  -27.2125  -31.2661   16.8691 O   0  0  0  0  0  0  0  0  0  0  0  0
  -26.1660  -32.1710   16.5948 C   0  0  0  0  0  0  0  0  0  0  0  0
  -25.3653  -32.4261   17.8524 C   0  0  0  0  0  0  0  0  0  0  0  0
  -24.8364  -33.8393   17.6633 C   0  0  0  0  0  0  0  0  0  0  0  0
  -25.5488  -34.4451   16.5687 O   0  0  0  0  0  0  0  0  0  0  0  0
  -26.6478  -33.5699   16.2379 C   0  0  0  0  0  0  0  0  0  0  0  0
  -23.3993  -33.9199   17.4062 N   0  0  0  0  0  0  0  0  0  0  0  0
  -22.9152  -33.9609   16.1099 C   0  0  0  0  0  0  0  0  0  0  0  0
  -21.6113  -34.0815   15.8327 C   0  0  0  0  0  0  0  0  0  0  0  0
  -21.0462  -34.1196   14.4496 C   0  0  0  0  0  0  0  0  0  0  0  0
  -20.6641  -34.1770   16.9701 C   0  0  0  0  0  0  0  0  0  0  0  0
  -19.4719  -34.4233   16.8225 O   0  0  0  0  0  0  0  0  0  0  0  0
  -21.2083  -33.9949   18.2101 N   0  0  0  0  0  0  0  0  0  0  0  0
  -22.5429  -33.9126   18.5002 C   0  0  0  0  0  0  0  0  0  0  0  0
  -22.9050  -33.8662   19.6755 O   0  0  0  0  0  0  0  0  0  0  0  0
  -20.5816  -33.9153   18.9652 H   0  0  0  0  0  0  0  0  0  0  0  0
  -27.0123  -33.7593   14.7669 C   0  0  0  0  0  0  0  0  0  0  0  0
  -28.3650  -34.1409   14.6265 O   0  0  0  0  0  0  0  0  0  0  0  0
  -28.6945  -35.7041   14.6381 P   0  0  0  0  0  0  0  0  0  0  0  0
  -29.4404  -36.2258   13.4531 O   0  0  0  0  0  0  0  0  0  0  0  0
  -29.4276  -35.9473   16.0312 O   0  0  0  0  0  0  0  0  0  0  0  0
  -27.2973  -36.4365   14.8886 O   0  0  0  0  0  0  0  0  0  0  0  0
  -30.3082  -35.5412   16.0084 H   0  0  0  0  0  0  0  0  0  0  0  0
  -26.7447  -36.3589   14.0952 H   0  0  0  0  0  0  0  0  0  0  0  0
 23 24  1  0
  6 24  1  0
  6  7  1  0
  7 25  1  0
 25 26  1  0
 26 27  2  0
 26 28  1  0
 26 29  1  0
  7  8  1  0
  8  5  1  0
  5  4  1  0
  4  1  1  0
  1  2  2  0
  1  3  1  0
  1 32  1  0
 32 33  1  0
 33 34  2  0
 33 35  1  0
 33 36  1  0
 37 36  1  0
 37 38  1  0
 38 39  1  0
 39 42  1  0
 42 43  1  0
 43 44  2  0
 44 45  1  0
 44 46  1  0
 46 47  2  0
 46 48  1  0
 48 49  1  0
 49 50  2  0
 39 40  1  0
 40 41  1  0
 41 52  1  0
 52 53  1  0
 53 54  1  0
 54 55  2  0
 54 56  1  0
 54 57  1  0
  8  9  1  0
  9 10  1  0
 10 11  1  0
 11 12  1  0
 12 13  2  0
 13 14  1  0
 14 15  2  0
 15 16  1  0
 15 17  1  0
 17 18  2  0
 18 19  1  0
 19 20  2  0
 10  6  1  0
 20 11  1  0
 41 37  1  0
 20 14  1  0
 49 42  1  0
 28 30  1  0
 29 31  1  0
 48 51  1  0
 56 58  1  0
 57 59  1  0
 16 21  1  0
 16 22  1  0
M  CHG 1   3  -1
M  CHG 1  35  -1
M  END
> <minimizedAffinity>
-9.05330

> <CNNscore>
0.9106131196

> <CNNaffinity>
5.9705963135

> <CNN_VS>
5.4369034767

> <CNNaffinity_variance>
0.7848362923

$$$$



 59 63  0  0  0  0  0  0  0  0999 V2000
  -27.8943  -31.8678   16.1683 P   0  0  0  0  0  0  0  0  0  0  0  0
  -28.9142  -32.7952   15.5718 O   0  0  0  0  0  0  0  0  0  0  0  0
  -27.7102  -31.9081   17.6851 O   0  0  0  0  0  0  0  0  0  0  0  0
  -28.3373  -30.3470   15.8263 O   0  0  0  0  0  0  0  0  0  0  0  0
  -29.6897  -30.1215   15.4694 C   0  0  0  0  0  0  0  0  0  0  0  0
  -31.4454  -27.4770   15.1323 C   0  0  0  0  0  0  0  0  0  0  0  0
  -31.7773  -28.6663   16.0259 C   0  0  0  0  0  0  0  0  0  0  0  0
  -30.3777  -29.1460   16.4360 C   0  0  0  0  0  0  0  0  0  0  0  0
  -29.5693  -27.9388   16.5715 O   0  0  0  0  0  0  0  0  0  0  0  0
  -30.2744  -26.8697   15.9079 C   0  0  0  0  0  0  0  0  0  0  0  0
  -29.3285  -26.1123   15.1086 N   0  0  0  0  0  0  0  0  0  0  0  0
  -28.6670  -26.5878   14.0020 C   0  0  0  0  0  0  0  0  0  0  0  0
  -27.8906  -25.6772   13.4504 N   0  0  0  0  0  0  0  0  0  0  0  0
  -28.0731  -24.5502   14.2348 C   0  0  0  0  0  0  0  0  0  0  0  0
  -27.5437  -23.2502   14.1715 C   0  0  0  0  0  0  0  0  0  0  0  0
  -26.6478  -22.8417   13.1858 N   0  0  0  0  0  0  0  0  0  0  0  0
  -27.8869  -22.3565   15.1293 N   0  0  0  0  0  0  0  0  0  0  0  0
  -28.7452  -22.7550   16.0966 C   0  0  0  0  0  0  0  0  0  0  0  0
  -29.2897  -23.9727   16.2621 N   0  0  0  0  0  0  0  0  0  0  0  0
  -28.9331  -24.8173   15.2854 C   0  0  0  0  0  0  0  0  0  0  0  0
  -26.3784  -23.4679   12.4755 H   0  0  0  0  0  0  0  0  0  0  0  0
  -26.2842  -21.9270   13.1997 H   0  0  0  0  0  0  0  0  0  0  0  0
  -32.8417  -26.3765   13.5683 C   0  0  0  0  0  0  0  0  0  0  0  0
  -32.5033  -26.5267   14.9447 O   0  0  0  0  0  0  0  0  0  0  0  0
  -32.5218  -28.2404   17.1724 O   0  0  0  0  0  0  0  0  0  0  0  0
  -33.9907  -28.8455   17.3878 P   0  0  0  0  0  0  0  0  0  0  0  0
  -34.1401  -30.1609   18.0764 O   0  0  0  0  0  0  0  0  0  0  0  0
  -34.7627  -28.6592   16.0115 O   0  0  0  0  0  0  0  0  0  0  0  0
  -34.7048  -27.6691   18.2184 O   0  0  0  0  0  0  0  0  0  0  0  0
  -34.4435  -29.3136   15.3706 H   0  0  0  0  0  0  0  0  0  0  0  0
  -34.3394  -27.6396   19.1165 H   0  0  0  0  0  0  0  0  0  0  0  0
  -26.4665  -31.9773   15.4824 O   0  0  0  0  0  0  0  0  0  0  0  0
  -25.9840  -32.2209   13.9819 P   0  0  0  0  0  0  0  0  0  0  0  0
  -26.8474  -31.4544   12.9946 O   0  0  0  0  0  0  0  0  0  0  0  0
  -25.5969  -33.6496   13.7251 O   0  0  0  0  0  0  0  0  0  0  0  0
  -24.5929  -31.3692   14.0602 O   0  0  0  0  0  0  0  0  0  0  0  0
  -23.4020  -32.1118   14.2001 C   0  0  0  0  0  0  0  0  0  0  0  0
  -23.4311  -32.8890   15.4974 C   0  0  0  0  0  0  0  0  0  0  0  0
  -22.5780  -34.1132   15.2041 C   0  0  0  0  0  0  0  0  0  0  0  0
  -22.3721  -34.1895   13.7813 O   0  0  0  0  0  0  0  0  0  0  0  0
  -23.2517  -33.2221   13.1700 C   0  0  0  0  0  0  0  0  0  0  0  0
  -21.2813  -34.1250   15.8798 N   0  0  0  0  0  0  0  0  0  0  0  0
  -20.1295  -33.7605   15.2037 C   0  0  0  0  0  0  0  0  0  0  0  0
  -18.9184  -33.8023   15.7719 C   0  0  0  0  0  0  0  0  0  0  0  0
  -17.6523  -33.4086   15.0821 C   0  0  0  0  0  0  0  0  0  0  0  0
  -18.8255  -34.2627   17.1788 C   0  0  0  0  0  0  0  0  0  0  0  0
  -17.7550  -34.4634   17.7425 O   0  0  0  0  0  0  0  0  0  0  0  0
  -20.0176  -34.4748   17.8119 N   0  0  0  0  0  0  0  0  0  0  0  0
  -21.2534  -34.4730   17.2245 C   0  0  0  0  0  0  0  0  0  0  0  0
  -22.2389  -34.7956   17.8872 O   0  0  0  0  0  0  0  0  0  0  0  0
  -19.9843  -34.6447   18.7811 H   0  0  0  0  0  0  0  0  0  0  0  0
  -22.6538  -32.7748   11.8377 C   0  0  0  0  0  0  0  0  0  0  0  0
  -21.5837  -33.6144   11.4567 O   0  0  0  0  0  0  0  0  0  0  0  0
  -21.5461  -34.1180    9.9411 P   0  0  0  0  0  0  0  0  0  0  0  0
  -20.2145  -34.5648    9.4313 O   0  0  0  0  0  0  0  0  0  0  0  0
  -22.1992  -32.9274    9.1084 O   0  0  0  0  0  0  0  0  0  0  0  0
  -22.6819  -35.2357    9.8307 O   0  0  0  0  0  0  0  0  0  0  0  0
  -21.5940  -32.1694    9.0991 H   0  0  0  0  0  0  0  0  0  0  0  0
  -22.3999  -36.0314   10.3083 H   0  0  0  0  0  0  0  0  0  0  0  0
 23 24  1  0
  6 24  1  0
  6  7  1  0
  7 25  1  0
 25 26  1  0
 26 27  2  0
 26 28  1  0
 26 29  1  0
  7  8  1  0
  8  5  1  0
  5  4  1  0
  4  1  1  0
  1  2  2  0
  1  3  1  0
  1 32  1  0
 32 33  1  0
 33 34  2  0
 33 35  1  0
 33 36  1  0
 37 36  1  0
 37 38  1  0
 38 39  1  0
 39 42  1  0
 42 43  1  0
 43 44  2  0
 44 45  1  0
 44 46  1  0
 46 47  2  0
 46 48  1  0
 48 49  1  0
 49 50  2  0
 39 40  1  0
 40 41  1  0
 41 52  1  0
 52 53  1  0
 53 54  1  0
 54 55  2  0
 54 56  1  0
 54 57  1  0
  8  9  1  0
  9 10  1  0
 10 11  1  0
 11 12  1  0
 12 13  2  0
 13 14  1  0
 14 15  2  0
 15 16  1  0
 15 17  1  0
 17 18  2  0
 18 19  1  0
 19 20  2  0
 10  6  1  0
 20 11  1  0
 41 37  1  0
 20 14  1  0
 49 42  1  0
 28 30  1  0
 29 31  1  0
 48 51  1  0
 56 58  1  0
 57 59  1  0
 16 21  1  0
 16 22  1  0
M  CHG 1   3  -1
M  CHG 1  35  -1
M  END
> <minimizedAffinity>
-7.24021

> <CNNscore>
0.8806037307

> <CNNaffinity>
6.4053673744

> <CNN_VS>
5.6405901909

> <CNNaffinity_variance>
0.2928914726

$$$$



 59 63  0  0  0  0  0  0  0  0999 V2000
  -28.3181  -30.3582   18.8986 P   0  0  0  0  0  0  0  0  0  0  0  0
  -29.0809  -30.3102   20.1917 O   0  0  0  0  0  0  0  0  0  0  0  0
  -26.8647  -29.8859   18.9225 O   0  0  0  0  0  0  0  0  0  0  0  0
  -29.0696  -29.3927   17.8360 O   0  0  0  0  0  0  0  0  0  0  0  0
  -29.6453  -28.1958   18.3292 C   0  0  0  0  0  0  0  0  0  0  0  0
  -30.7214  -27.8487   15.3441 C   0  0  0  0  0  0  0  0  0  0  0  0
  -31.3453  -28.7215   16.4267 C   0  0  0  0  0  0  0  0  0  0  0  0
  -31.0178  -27.9223   17.6961 C   0  0  0  0  0  0  0  0  0  0  0  0
  -31.1097  -26.5170   17.3138 O   0  0  0  0  0  0  0  0  0  0  0  0
  -31.0792  -26.4581   15.8730 C   0  0  0  0  0  0  0  0  0  0  0  0
  -30.1812  -25.3917   15.4684 N   0  0  0  0  0  0  0  0  0  0  0  0
  -30.2391  -24.0943   15.9173 C   0  0  0  0  0  0  0  0  0  0  0  0
  -29.2833  -23.3431   15.4089 N   0  0  0  0  0  0  0  0  0  0  0  0
  -28.5620  -24.2064   14.6007 C   0  0  0  0  0  0  0  0  0  0  0  0
  -27.4235  -24.0298   13.7963 C   0  0  0  0  0  0  0  0  0  0  0  0
  -26.7592  -22.8111   13.6767 N   0  0  0  0  0  0  0  0  0  0  0  0
  -26.9648  -25.0784   13.0723 N   0  0  0  0  0  0  0  0  0  0  0  0
  -27.6171  -26.2594   13.1749 C   0  0  0  0  0  0  0  0  0  0  0  0
  -28.7210  -26.5295   13.8926 N   0  0  0  0  0  0  0  0  0  0  0  0
  -29.1292  -25.4685   14.6012 C   0  0  0  0  0  0  0  0  0  0  0  0
  -27.0681  -22.0297   14.1898 H   0  0  0  0  0  0  0  0  0  0  0  0
  -25.9809  -22.7313   13.0791 H   0  0  0  0  0  0  0  0  0  0  0  0
  -30.8292  -29.3181   13.4903 C   0  0  0  0  0  0  0  0  0  0  0  0
  -31.2231  -28.0531   14.0159 O   0  0  0  0  0  0  0  0  0  0  0  0
  -32.7618  -28.8166   16.2406 O   0  0  0  0  0  0  0  0  0  0  0  0
  -33.5558  -29.9528   17.0460 P   0  0  0  0  0  0  0  0  0  0  0  0
  -34.3693  -29.5654   18.2355 O   0  0  0  0  0  0  0  0  0  0  0  0
  -32.5477  -31.1679   17.2254 O   0  0  0  0  0  0  0  0  0  0  0  0
  -34.4782  -30.5820   15.8897 O   0  0  0  0  0  0  0  0  0  0  0  0
  -31.8977  -30.9502   17.9117 H   0  0  0  0  0  0  0  0  0  0  0  0
  -35.1727  -29.9488   15.6497 H   0  0  0  0  0  0  0  0  0  0  0  0
  -28.3779  -31.7751   18.1847 O   0  0  0  0  0  0  0  0  0  0  0  0
  -27.2667  -32.8278   17.7367 P   0  0  0  0  0  0  0  0  0  0  0  0
  -27.8050  -33.7825   16.6849 O   0  0  0  0  0  0  0  0  0  0  0  0
  -26.4490  -33.3305   18.8925 O   0  0  0  0  0  0  0  0  0  0  0  0
  -26.3121  -31.7955   16.9060 O   0  0  0  0  0  0  0  0  0  0  0  0
  -25.1245  -32.3282   16.3628 C   0  0  0  0  0  0  0  0  0  0  0  0
  -24.4112  -33.1601   17.4054 C   0  0  0  0  0  0  0  0  0  0  0  0
  -23.6671  -34.2039   16.5872 C   0  0  0  0  0  0  0  0  0  0  0  0
  -24.1824  -34.1753   15.2432 O   0  0  0  0  0  0  0  0  0  0  0  0
  -25.3632  -33.3453   15.2561 C   0  0  0  0  0  0  0  0  0  0  0  0
  -22.2164  -34.0250   16.5507 N   0  0  0  0  0  0  0  0  0  0  0  0
  -21.5843  -33.6171   15.3885 C   0  0  0  0  0  0  0  0  0  0  0  0
  -20.2551  -33.4866   15.3007 C   0  0  0  0  0  0  0  0  0  0  0  0
  -19.5340  -33.0400   14.0701 C   0  0  0  0  0  0  0  0  0  0  0  0
  -19.4444  -33.7985   16.5030 C   0  0  0  0  0  0  0  0  0  0  0  0
  -18.2188  -33.8394   16.4852 O   0  0  0  0  0  0  0  0  0  0  0  0
  -20.1521  -34.0635   17.6414 N   0  0  0  0  0  0  0  0  0  0  0  0
  -21.5065  -34.2380   17.7259 C   0  0  0  0  0  0  0  0  0  0  0  0
  -22.0059  -34.5894   18.7943 O   0  0  0  0  0  0  0  0  0  0  0  0
  -19.6396  -34.1355   18.4789 H   0  0  0  0  0  0  0  0  0  0  0  0
  -25.5626  -32.7384   13.8688 C   0  0  0  0  0  0  0  0  0  0  0  0
  -25.1241  -31.3961   13.8367 O   0  0  0  0  0  0  0  0  0  0  0  0
  -24.1026  -30.9822   12.6803 P   0  0  0  0  0  0  0  0  0  0  0  0
  -22.7715  -31.6607   12.7074 O   0  0  0  0  0  0  0  0  0  0  0  0
  -24.0284  -29.3931   12.7629 O   0  0  0  0  0  0  0  0  0  0  0  0
  -24.8978  -31.1867   11.3102 O   0  0  0  0  0  0  0  0  0  0  0  0
  -23.5576  -29.1330   13.5701 H   0  0  0  0  0  0  0  0  0  0  0  0
  -25.0115  -32.1350   11.1408 H   0  0  0  0  0  0  0  0  0  0  0  0
 23 24  1  0
  6 24  1  0
  6  7  1  0
  7 25  1  0
 25 26  1  0
 26 27  2  0
 26 28  1  0
 26 29  1  0
  7  8  1  0
  8  5  1  0
  5  4  1  0
  4  1  1  0
  1  2  2  0
  1  3  1  0
  1 32  1  0
 32 33  1  0
 33 34  2  0
 33 35  1  0
 33 36  1  0
 37 36  1  0
 37 38  1  0
 38 39  1  0
 39 42  1  0
 42 43  1  0
 43 44  2  0
 44 45  1  0
 44 46  1  0
 46 47  2  0
 46 48  1  0
 48 49  1  0
 49 50  2  0
 39 40  1  0
 40 41  1  0
 41 52  1  0
 52 53  1  0
 53 54  1  0
 54 55  2  0
 54 56  1  0
 54 57  1  0
  8  9  1  0
  9 10  1  0
 10 11  1  0
 11 12  1  0
 12 13  2  0
 13 14  1  0
 14 15  2  0
 15 16  1  0
 15 17  1  0
 17 18  2  0
 18 19  1  0
 19 20  2  0
 10  6  1  0
 20 11  1  0
 41 37  1  0
 20 14  1  0
 49 42  1  0
 28 30  1  0
 29 31  1  0
 48 51  1  0
 56 58  1  0
 57 59  1  0
 16 21  1  0
 16 22  1  0
M  CHG 1   3  -1
M  CHG 1  35  -1
M  END
> <minimizedAffinity>
-8.49671

> <CNNscore>
0.8672964573

> <CNNaffinity>
5.9836940765

> <CNN_VS>
5.1896367073

> <CNNaffinity_variance>
0.9722687602

$$$$



 59 63  0  0  0  0  0  0  0  0999 V2000
  -29.6852  -29.5106   18.5983 P   0  0  0  0  0  0  0  0  0  0  0  0
  -31.0538  -29.9059   18.1220 O   0  0  0  0  0  0  0  0  0  0  0  0
  -29.4042  -29.6198   20.0967 O   0  0  0  0  0  0  0  0  0  0  0  0
  -29.4556  -27.9499   18.2276 O   0  0  0  0  0  0  0  0  0  0  0  0
  -30.4008  -27.3324   17.3714 C   0  0  0  0  0  0  0  0  0  0  0  0
  -31.8290  -24.7100   16.2434 C   0  0  0  0  0  0  0  0  0  0  0  0
  -32.3203  -25.5718   17.4005 C   0  0  0  0  0  0  0  0  0  0  0  0
  -30.9972  -26.0656   18.0028 C   0  0  0  0  0  0  0  0  0  0  0  0
  -30.0586  -24.9577   17.8584 O   0  0  0  0  0  0  0  0  0  0  0  0
  -30.6171  -24.0408   16.8952 C   0  0  0  0  0  0  0  0  0  0  0  0
  -29.5686  -23.6307   15.9787 N   0  0  0  0  0  0  0  0  0  0  0  0
  -29.0253  -22.3705   15.9094 C   0  0  0  0  0  0  0  0  0  0  0  0
  -28.0685  -22.2843   15.0075 N   0  0  0  0  0  0  0  0  0  0  0  0
  -27.9805  -23.5612   14.4779 C   0  0  0  0  0  0  0  0  0  0  0  0
  -27.1548  -24.1284   13.4926 C   0  0  0  0  0  0  0  0  0  0  0  0
  -26.1728  -23.4074   12.8167 N   0  0  0  0  0  0  0  0  0  0  0  0
  -27.3390  -25.4262   13.1521 N   0  0  0  0  0  0  0  0  0  0  0  0
  -28.3023  -26.1249   13.7963 C   0  0  0  0  0  0  0  0  0  0  0  0
  -29.1566  -25.6768   14.7322 N   0  0  0  0  0  0  0  0  0  0  0  0
  -28.9280  -24.3946   15.0456 C   0  0  0  0  0  0  0  0  0  0  0  0
  -26.0144  -22.4619   13.0409 H   0  0  0  0  0  0  0  0  0  0  0  0
  -25.6373  -23.8434   12.1150 H   0  0  0  0  0  0  0  0  0  0  0  0
  -33.9618  -24.3541   15.2782 C   0  0  0  0  0  0  0  0  0  0  0  0
  -32.7644  -23.7412   15.7496 O   0  0  0  0  0  0  0  0  0  0  0  0
  -33.0413  -24.7763   18.3480 O   0  0  0  0  0  0  0  0  0  0  0  0
  -34.0133  -25.5251   19.3799 P   0  0  0  0  0  0  0  0  0  0  0  0
  -34.5293  -26.8826   19.0365 O   0  0  0  0  0  0  0  0  0  0  0  0
  -35.0781  -24.4483   19.8608 O   0  0  0  0  0  0  0  0  0  0  0  0
  -33.1053  -25.5657   20.7057 O   0  0  0  0  0  0  0  0  0  0  0  0
  -35.7265  -24.2973   19.1554 H   0  0  0  0  0  0  0  0  0  0  0  0
  -32.3794  -26.1969   20.5813 H   0  0  0  0  0  0  0  0  0  0  0  0
  -28.5113  -30.2322   17.8095 O   0  0  0  0  0  0  0  0  0  0  0  0
  -27.3442  -31.2279   18.2453 P   0  0  0  0  0  0  0  0  0  0  0  0
  -27.8369  -32.2416   19.2637 O   0  0  0  0  0  0  0  0  0  0  0  0
  -26.0263  -30.5290   18.4240 O   0  0  0  0  0  0  0  0  0  0  0  0
  -27.2403  -32.0657   16.8474 O   0  0  0  0  0  0  0  0  0  0  0  0
  -25.9451  -32.4189   16.4148 C   0  0  0  0  0  0  0  0  0  0  0  0
  -25.3908  -33.5157   17.2967 C   0  0  0  0  0  0  0  0  0  0  0  0
  -24.4518  -34.2793   16.3760 C   0  0  0  0  0  0  0  0  0  0  0  0
  -24.7116  -33.8651   15.0219 O   0  0  0  0  0  0  0  0  0  0  0  0
  -25.9190  -33.0744   15.0414 C   0  0  0  0  0  0  0  0  0  0  0  0
  -23.0314  -34.0971   16.6714 N   0  0  0  0  0  0  0  0  0  0  0  0
  -22.1381  -33.7671   15.6666 C   0  0  0  0  0  0  0  0  0  0  0  0
  -20.8242  -33.6371   15.8867 C   0  0  0  0  0  0  0  0  0  0  0  0
  -19.8277  -33.2728   14.8340 C   0  0  0  0  0  0  0  0  0  0  0  0
  -20.3240  -33.8624   17.2647 C   0  0  0  0  0  0  0  0  0  0  0  0
  -19.1294  -33.8991   17.5398 O   0  0  0  0  0  0  0  0  0  0  0  0
  -21.2834  -34.0518   18.2189 N   0  0  0  0  0  0  0  0  0  0  0  0
  -22.6216  -34.2259   17.9926 C   0  0  0  0  0  0  0  0  0  0  0  0
  -23.3632  -34.5055   18.9340 O   0  0  0  0  0  0  0  0  0  0  0  0
  -20.9840  -34.0640   19.1567 H   0  0  0  0  0  0  0  0  0  0  0  0
  -25.8931  -32.0937   13.8709 C   0  0  0  0  0  0  0  0  0  0  0  0
  -24.7900  -31.2170   13.9704 O   0  0  0  0  0  0  0  0  0  0  0  0
  -24.2708  -30.5305   12.6246 P   0  0  0  0  0  0  0  0  0  0  0  0
  -24.4144  -31.3409   11.3774 O   0  0  0  0  0  0  0  0  0  0  0  0
  -22.7744  -30.0927   12.9513 O   0  0  0  0  0  0  0  0  0  0  0  0
  -25.0027  -29.1126   12.5547 O   0  0  0  0  0  0  0  0  0  0  0  0
  -22.2146  -30.8817   13.0210 H   0  0  0  0  0  0  0  0  0  0  0  0
  -25.9433  -29.2436   12.3573 H   0  0  0  0  0  0  0  0  0  0  0  0
 23 24  1  0
  6 24  1  0
  6  7  1  0
  7 25  1  0
 25 26  1  0
 26 27  2  0
 26 28  1  0
 26 29  1  0
  7  8  1  0
  8  5  1  0
  5  4  1  0
  4  1  1  0
  1  2  2  0
  1  3  1  0
  1 32  1  0
 32 33  1  0
 33 34  2  0
 33 35  1  0
 33 36  1  0
 37 36  1  0
 37 38  1  0
 38 39  1  0
 39 42  1  0
 42 43  1  0
 43 44  2  0
 44 45  1  0
 44 46  1  0
 46 47  2  0
 46 48  1  0
 48 49  1  0
 49 50  2  0
 39 40  1  0
 40 41  1  0
 41 52  1  0
 52 53  1  0
 53 54  1  0
 54 55  2  0
 54 56  1  0
 54 57  1  0
  8  9  1  0
  9 10  1  0
 10 11  1  0
 11 12  1  0
 12 13  2  0
 13 14  1  0
 14 15  2  0
 15 16  1  0
 15 17  1  0
 17 18  2  0
 18 19  1  0
 19 20  2  0
 10  6  1  0
 20 11  1  0
 41 37  1  0
 20 14  1  0
 49 42  1  0
 28 30  1  0
 29 31  1  0
 48 51  1  0
 56 58  1  0
 57 59  1  0
 16 21  1  0
 16 22  1  0
M  CHG 1   3  -1
M  CHG 1  35  -1
M  END
> <minimizedAffinity>
-9.28258

> <CNNscore>
0.6951842308

> <CNNaffinity>
6.0399136543

> <CNN_VS>
4.1988525391

> <CNNaffinity_variance>
0.5351817012

$$$$



 59 63  0  0  0  0  0  0  0  0999 V2000
  -30.2198  -28.6122   17.7754 P   0  0  0  0  0  0  0  0  0  0  0  0
  -31.1339  -29.7992   17.8844 O   0  0  0  0  0  0  0  0  0  0  0  0
  -30.7622  -27.2627   18.2450 O   0  0  0  0  0  0  0  0  0  0  0  0
  -29.8457  -28.4082   16.2120 O   0  0  0  0  0  0  0  0  0  0  0  0
  -30.4343  -27.3124   15.5335 C   0  0  0  0  0  0  0  0  0  0  0  0
  -29.8662  -25.5729   12.9181 C   0  0  0  0  0  0  0  0  0  0  0  0
  -29.9124  -25.0516   14.3495 C   0  0  0  0  0  0  0  0  0  0  0  0
  -29.3875  -26.2608   15.1368 C   0  0  0  0  0  0  0  0  0  0  0  0
  -28.3725  -26.8757   14.2877 O   0  0  0  0  0  0  0  0  0  0  0  0
  -28.5525  -26.3568   12.9540 C   0  0  0  0  0  0  0  0  0  0  0  0
  -28.4607  -27.4553   12.0095 N   0  0  0  0  0  0  0  0  0  0  0  0
  -29.5299  -28.0742   11.4078 C   0  0  0  0  0  0  0  0  0  0  0  0
  -29.1571  -29.0212   10.5709 N   0  0  0  0  0  0  0  0  0  0  0  0
  -27.7731  -29.0012   10.6249 C   0  0  0  0  0  0  0  0  0  0  0  0
  -26.7836  -29.7503    9.9660 C   0  0  0  0  0  0  0  0  0  0  0  0
  -27.0772  -30.7476    9.0386 N   0  0  0  0  0  0  0  0  0  0  0  0
  -25.4827  -29.5238   10.2666 N   0  0  0  0  0  0  0  0  0  0  0  0
  -25.1953  -28.5661   11.1782 C   0  0  0  0  0  0  0  0  0  0  0  0
  -26.0595  -27.8117   11.8787 N   0  0  0  0  0  0  0  0  0  0  0  0
  -27.3310  -28.0607   11.5385 C   0  0  0  0  0  0  0  0  0  0  0  0
  -28.0131  -30.9367    8.7986 H   0  0  0  0  0  0  0  0  0  0  0  0
  -26.3487  -31.2634    8.6231 H   0  0  0  0  0  0  0  0  0  0  0  0
  -31.1458  -24.3858   11.3180 C   0  0  0  0  0  0  0  0  0  0  0  0
  -29.8544  -24.5706   11.8921 O   0  0  0  0  0  0  0  0  0  0  0  0
  -29.0367  -23.9293   14.5036 O   0  0  0  0  0  0  0  0  0  0  0  0
  -29.4023  -22.8316   15.6134 P   0  0  0  0  0  0  0  0  0  0  0  0
  -28.3105  -21.9996   16.1987 O   0  0  0  0  0  0  0  0  0  0  0  0
  -30.4004  -23.5330   16.6315 O   0  0  0  0  0  0  0  0  0  0  0  0
  -30.4696  -21.9223   14.8273 O   0  0  0  0  0  0  0  0  0  0  0  0
  -29.9049  -24.1391   17.2043 H   0  0  0  0  0  0  0  0  0  0  0  0
  -30.0140  -21.4077   14.1429 H   0  0  0  0  0  0  0  0  0  0  0  0
  -28.7998  -28.8476   18.4455 O   0  0  0  0  0  0  0  0  0  0  0  0
  -27.9814  -30.1534   18.8564 P   0  0  0  0  0  0  0  0  0  0  0  0
  -28.8282  -31.0913   19.6995 O   0  0  0  0  0  0  0  0  0  0  0  0
  -26.5585  -29.8487   19.2299 O   0  0  0  0  0  0  0  0  0  0  0  0
  -27.9353  -30.8536   17.3818 O   0  0  0  0  0  0  0  0  0  0  0  0
  -27.0157  -31.9091   17.2098 C   0  0  0  0  0  0  0  0  0  0  0  0
  -25.9342  -31.8244   18.2639 C   0  0  0  0  0  0  0  0  0  0  0  0
  -25.5086  -33.2709   18.4616 C   0  0  0  0  0  0  0  0  0  0  0  0
  -26.4878  -34.1193   17.8339 O   0  0  0  0  0  0  0  0  0  0  0  0
  -27.6099  -33.2846   17.4767 C   0  0  0  0  0  0  0  0  0  0  0  0
  -24.1837  -33.5913   17.9324 N   0  0  0  0  0  0  0  0  0  0  0  0
  -23.9782  -33.7109   16.5685 C   0  0  0  0  0  0  0  0  0  0  0  0
  -22.7926  -34.0482   16.0469 C   0  0  0  0  0  0  0  0  0  0  0  0
  -22.5254  -34.1784   14.5821 C   0  0  0  0  0  0  0  0  0  0  0  0
  -21.6688  -34.3032   16.9807 C   0  0  0  0  0  0  0  0  0  0  0  0
  -20.5862  -34.7458   16.6117 O   0  0  0  0  0  0  0  0  0  0  0  0
  -21.9201  -34.0342   18.2965 N   0  0  0  0  0  0  0  0  0  0  0  0
  -23.1392  -33.7296   18.8380 C   0  0  0  0  0  0  0  0  0  0  0  0
  -23.2498  -33.6248   20.0592 O   0  0  0  0  0  0  0  0  0  0  0  0
  -21.1526  -34.0621   18.9123 H   0  0  0  0  0  0  0  0  0  0  0  0
  -28.3346  -33.9050   16.2840 C   0  0  0  0  0  0  0  0  0  0  0  0
  -28.2221  -35.3129   16.3009 O   0  0  0  0  0  0  0  0  0  0  0  0
  -27.5479  -36.0133   15.0333 P   0  0  0  0  0  0  0  0  0  0  0  0
  -26.4994  -37.0359   15.3295 O   0  0  0  0  0  0  0  0  0  0  0  0
  -27.0436  -34.8025   14.1293 O   0  0  0  0  0  0  0  0  0  0  0  0
  -28.7594  -36.5740   14.1563 O   0  0  0  0  0  0  0  0  0  0  0  0
  -26.2916  -34.3679   14.5612 H   0  0  0  0  0  0  0  0  0  0  0  0
  -29.1617  -37.3323   14.6080 H   0  0  0  0  0  0  0  0  0  0  0  0
 23 24  1  0
  6 24  1  0
  6  7  1  0
  7 25  1  0
 25 26  1  0
 26 27  2  0
 26 28  1  0
 26 29  1  0
  7  8  1  0
  8  5  1  0
  5  4  1  0
  4  1  1  0
  1  2  2  0
  1  3  1  0
  1 32  1  0
 32 33  1  0
 33 34  2  0
 33 35  1  0
 33 36  1  0
 37 36  1  0
 37 38  1  0
 38 39  1  0
 39 42  1  0
 42 43  1  0
 43 44  2  0
 44 45  1  0
 44 46  1  0
 46 47  2  0
 46 48  1  0
 48 49  1  0
 49 50  2  0
 39 40  1  0
 40 41  1  0
 41 52  1  0
 52 53  1  0
 53 54  1  0
 54 55  2  0
 54 56  1  0
 54 57  1  0
  8  9  1  0
  9 10  1  0
 10 11  1  0
 11 12  1  0
 12 13  2  0
 13 14  1  0
 14 15  2  0
 15 16  1  0
 15 17  1  0
 17 18  2  0
 18 19  1  0
 19 20  2  0
 10  6  1  0
 20 11  1  0
 41 37  1  0
 20 14  1  0
 49 42  1  0
 28 30  1  0
 29 31  1  0
 48 51  1  0
 56 58  1  0
 57 59  1  0
 16 21  1  0
 16 22  1  0
M  CHG 1   3  -1
M  CHG 1  35  -1
M  END
> <minimizedAffinity>
-8.55412

> <CNNscore>
0.6136986017

> <CNNaffinity>
5.6120963097

> <CNN_VS>
3.4441356659

> <CNNaffinity_variance>
0.9498268962

$$$$



 59 63  0  0  0  0  0  0  0  0999 V2000
  -29.8230  -34.8404   15.1833 P   0  0  0  0  0  0  0  0  0  0  0  0
  -30.5526  -35.1281   13.9022 O   0  0  0  0  0  0  0  0  0  0  0  0
  -29.9374  -35.8734   16.3039 O   0  0  0  0  0  0  0  0  0  0  0  0
  -30.4156  -33.4644   15.8008 O   0  0  0  0  0  0  0  0  0  0  0  0
  -29.8970  -33.0257   17.0442 C   0  0  0  0  0  0  0  0  0  0  0  0
  -32.3832  -31.1180   16.4368 C   0  0  0  0  0  0  0  0  0  0  0  0
  -32.3982  -32.3552   17.3268 C   0  0  0  0  0  0  0  0  0  0  0  0
  -30.9739  -32.3420   17.8999 C   0  0  0  0  0  0  0  0  0  0  0  0
  -30.6338  -30.9349   18.0832 O   0  0  0  0  0  0  0  0  0  0  0  0
  -31.5756  -30.1590   17.3141 C   0  0  0  0  0  0  0  0  0  0  0  0
  -30.8525  -29.1241   16.5974 N   0  0  0  0  0  0  0  0  0  0  0  0
  -30.1243  -29.3174   15.4483 C   0  0  0  0  0  0  0  0  0  0  0  0
  -29.5961  -28.1992   14.9936 N   0  0  0  0  0  0  0  0  0  0  0  0
  -30.0191  -27.2311   15.8894 C   0  0  0  0  0  0  0  0  0  0  0  0
  -29.8106  -25.8433   15.9603 C   0  0  0  0  0  0  0  0  0  0  0  0
  -29.0588  -25.1390   15.0224 N   0  0  0  0  0  0  0  0  0  0  0  0
  -30.3310  -25.1559   17.0046 N   0  0  0  0  0  0  0  0  0  0  0  0
  -31.0490  -25.8399   17.9252 C   0  0  0  0  0  0  0  0  0  0  0  0
  -31.2891  -27.1618   17.9645 N   0  0  0  0  0  0  0  0  0  0  0  0
  -30.7676  -27.7968   16.9064 C   0  0  0  0  0  0  0  0  0  0  0  0
  -28.6670  -25.6098   14.2517 H   0  0  0  0  0  0  0  0  0  0  0  0
  -28.9194  -24.1704   15.1303 H   0  0  0  0  0  0  0  0  0  0  0  0
  -34.5193  -31.5519   15.5116 C   0  0  0  0  0  0  0  0  0  0  0  0
  -33.6690  -30.5748   16.1066 O   0  0  0  0  0  0  0  0  0  0  0  0
  -33.3653  -32.2096   18.3727 O   0  0  0  0  0  0  0  0  0  0  0  0
  -33.7285  -33.5001   19.2518 P   0  0  0  0  0  0  0  0  0  0  0  0
  -35.1599  -33.8910   19.4102 O   0  0  0  0  0  0  0  0  0  0  0  0
  -32.8551  -33.4057   20.5758 O   0  0  0  0  0  0  0  0  0  0  0  0
  -32.8913  -34.6478   18.4998 O   0  0  0  0  0  0  0  0  0  0  0  0
  -33.2330  -32.7344   21.1653 H   0  0  0  0  0  0  0  0  0  0  0  0
  -33.3013  -34.8373   17.6414 H   0  0  0  0  0  0  0  0  0  0  0  0
  -28.2884  -34.4937   14.9696 O   0  0  0  0  0  0  0  0  0  0  0  0
  -26.9922  -35.3767   14.6798 P   0  0  0  0  0  0  0  0  0  0  0  0
  -27.0787  -36.0524   13.3220 O   0  0  0  0  0  0  0  0  0  0  0  0
  -26.5258  -36.1319   15.8919 O   0  0  0  0  0  0  0  0  0  0  0  0
  -25.9374  -34.1491   14.4625 O   0  0  0  0  0  0  0  0  0  0  0  0
  -24.8771  -34.0533   15.3877 C   0  0  0  0  0  0  0  0  0  0  0  0
  -23.6021  -33.6708   14.6693 C   0  0  0  0  0  0  0  0  0  0  0  0
  -22.8108  -32.9074   15.7198 C   0  0  0  0  0  0  0  0  0  0  0  0
  -23.6951  -32.5949   16.8122 O   0  0  0  0  0  0  0  0  0  0  0  0
  -25.0356  -32.9102   16.3800 C   0  0  0  0  0  0  0  0  0  0  0  0
  -21.6420  -33.6192   16.2348 N   0  0  0  0  0  0  0  0  0  0  0  0
  -20.4158  -33.5146   15.6007 C   0  0  0  0  0  0  0  0  0  0  0  0
  -19.3336  -34.1861   16.0127 C   0  0  0  0  0  0  0  0  0  0  0  0
  -17.9903  -34.0942   15.3641 C   0  0  0  0  0  0  0  0  0  0  0  0
  -19.4731  -35.0738   17.1927 C   0  0  0  0  0  0  0  0  0  0  0  0
  -18.5815  -35.8294   17.5643 O   0  0  0  0  0  0  0  0  0  0  0  0
  -20.6766  -35.0168   17.8370 N   0  0  0  0  0  0  0  0  0  0  0  0
  -21.7962  -34.3650   17.3968 C   0  0  0  0  0  0  0  0  0  0  0  0
  -22.8524  -34.4908   18.0157 O   0  0  0  0  0  0  0  0  0  0  0  0
  -20.7446  -35.4889   18.6983 H   0  0  0  0  0  0  0  0  0  0  0  0
  -25.8889  -33.2446   17.6018 C   0  0  0  0  0  0  0  0  0  0  0  0
  -25.8351  -32.2042   18.5557 O   0  0  0  0  0  0  0  0  0  0  0  0
  -27.0228  -31.1358   18.5483 P   0  0  0  0  0  0  0  0  0  0  0  0
  -27.6390  -30.8494   17.2175 O   0  0  0  0  0  0  0  0  0  0  0  0
  -26.4134  -29.8563   19.2757 O   0  0  0  0  0  0  0  0  0  0  0  0
  -28.0688  -31.6476   19.6415 O   0  0  0  0  0  0  0  0  0  0  0  0
  -25.7487  -29.4442   18.7020 H   0  0  0  0  0  0  0  0  0  0  0  0
  -28.5180  -32.4418   19.3123 H   0  0  0  0  0  0  0  0  0  0  0  0
 23 24  1  0
  6 24  1  0
  6  7  1  0
  7 25  1  0
 25 26  1  0
 26 27  2  0
 26 28  1  0
 26 29  1  0
  7  8  1  0
  8  5  1  0
  5  4  1  0
  4  1  1  0
  1  2  2  0
  1  3  1  0
  1 32  1  0
 32 33  1  0
 33 34  2  0
 33 35  1  0
 33 36  1  0
 37 36  1  0
 37 38  1  0
 38 39  1  0
 39 42  1  0
 42 43  1  0
 43 44  2  0
 44 45  1  0
 44 46  1  0
 46 47  2  0
 46 48  1  0
 48 49  1  0
 49 50  2  0
 39 40  1  0
 40 41  1  0
 41 52  1  0
 52 53  1  0
 53 54  1  0
 54 55  2  0
 54 56  1  0
 54 57  1  0
  8  9  1  0
  9 10  1  0
 10 11  1  0
 11 12  1  0
 12 13  2  0
 13 14  1  0
 14 15  2  0
 15 16  1  0
 15 17  1  0
 17 18  2  0
 18 19  1  0
 19 20  2  0
 10  6  1  0
 20 11  1  0
 41 37  1  0
 20 14  1  0
 49 42  1  0
 28 30  1  0
 29 31  1  0
 48 51  1  0
 56 58  1  0
 57 59  1  0
 16 21  1  0
 16 22  1  0
M  CHG 1   3  -1
M  CHG 1  35  -1
M  END
> <minimizedAffinity>
-7.65192

> <CNNscore>
0.6064527035

> <CNNaffinity>
6.0407886505

> <CNN_VS>
3.6634526253

> <CNNaffinity_variance>
0.0011576982

$$$$



 59 63  0  0  0  0  0  0  0  0999 V2000
  -26.8111  -36.5213   13.2395 P   0  0  0  0  0  0  0  0  0  0  0  0
  -26.2669  -36.7530   14.6203 O   0  0  0  0  0  0  0  0  0  0  0  0
  -27.0953  -37.7532   12.3807 O   0  0  0  0  0  0  0  0  0  0  0  0
  -25.7212  -35.6565   12.4086 O   0  0  0  0  0  0  0  0  0  0  0  0
  -24.3684  -36.0734   12.4684 C   0  0  0  0  0  0  0  0  0  0  0  0
  -22.6004  -34.6278   10.2383 C   0  0  0  0  0  0  0  0  0  0  0  0
  -22.3928  -36.0406   10.7710 C   0  0  0  0  0  0  0  0  0  0  0  0
  -23.8337  -36.4687   11.0838 C   0  0  0  0  0  0  0  0  0  0  0  0
  -24.6613  -35.8608   10.0471 O   0  0  0  0  0  0  0  0  0  0  0  0
  -23.8751  -34.8293    9.4160 C   0  0  0  0  0  0  0  0  0  0  0  0
  -24.7009  -33.6465    9.2537 N   0  0  0  0  0  0  0  0  0  0  0  0
  -24.8542  -32.6527   10.1903 C   0  0  0  0  0  0  0  0  0  0  0  0
  -25.6381  -31.6811    9.7688 N   0  0  0  0  0  0  0  0  0  0  0  0
  -25.9970  -32.0620    8.4863 C   0  0  0  0  0  0  0  0  0  0  0  0
  -26.8010  -31.4593    7.5040 C   0  0  0  0  0  0  0  0  0  0  0  0
  -27.4347  -30.2324    7.6884 N   0  0  0  0  0  0  0  0  0  0  0  0
  -27.0038  -32.1109    6.3342 N   0  0  0  0  0  0  0  0  0  0  0  0
  -26.4017  -33.3098    6.1583 C   0  0  0  0  0  0  0  0  0  0  0  0
  -25.6357  -33.9819    7.0348 N   0  0  0  0  0  0  0  0  0  0  0  0
  -25.4523  -33.2938    8.1694 C   0  0  0  0  0  0  0  0  0  0  0  0
  -27.3075  -29.7339    8.5278 H   0  0  0  0  0  0  0  0  0  0  0  0
  -28.0098  -29.8639    6.9793 H   0  0  0  0  0  0  0  0  0  0  0  0
  -21.2920  -32.7257    9.7120 C   0  0  0  0  0  0  0  0  0  0  0  0
  -21.5330  -34.1032    9.4365 O   0  0  0  0  0  0  0  0  0  0  0  0
  -21.8244  -36.8799    9.7597 O   0  0  0  0  0  0  0  0  0  0  0  0
  -20.9602  -38.1471   10.2264 P   0  0  0  0  0  0  0  0  0  0  0  0
  -21.6007  -39.1859   11.0852 O   0  0  0  0  0  0  0  0  0  0  0  0
  -19.5528  -37.5839   10.7026 O   0  0  0  0  0  0  0  0  0  0  0  0
  -20.5013  -38.7616    8.8137 O   0  0  0  0  0  0  0  0  0  0  0  0
  -19.6499  -37.1637   11.5714 H   0  0  0  0  0  0  0  0  0  0  0  0
  -21.2663  -39.1612    8.3711 H   0  0  0  0  0  0  0  0  0  0  0  0
  -28.0913  -35.5824   13.2168 O   0  0  0  0  0  0  0  0  0  0  0  0
  -29.0477  -35.0006   14.3527 P   0  0  0  0  0  0  0  0  0  0  0  0
  -28.7745  -35.6602   15.6935 O   0  0  0  0  0  0  0  0  0  0  0  0
  -30.4534  -34.7845   13.8685 O   0  0  0  0  0  0  0  0  0  0  0  0
  -28.3655  -33.5219   14.4746 O   0  0  0  0  0  0  0  0  0  0  0  0
  -27.4132  -33.3457   15.4999 C   0  0  0  0  0  0  0  0  0  0  0  0
  -26.0369  -33.1702   14.8975 C   0  0  0  0  0  0  0  0  0  0  0  0
  -25.3086  -32.2989   15.9089 C   0  0  0  0  0  0  0  0  0  0  0  0
  -26.2817  -31.7547   16.8196 O   0  0  0  0  0  0  0  0  0  0  0  0
  -27.5862  -32.0479   16.2759 C   0  0  0  0  0  0  0  0  0  0  0  0
  -24.2706  -32.9919   16.6706 N   0  0  0  0  0  0  0  0  0  0  0  0
  -22.9351  -32.8512   16.3340 C   0  0  0  0  0  0  0  0  0  0  0  0
  -21.9590  -33.5044   16.9761 C   0  0  0  0  0  0  0  0  0  0  0  0
  -20.5059  -33.3737   16.6519 C   0  0  0  0  0  0  0  0  0  0  0  0
  -22.3417  -34.4116   18.0853 C   0  0  0  0  0  0  0  0  0  0  0  0
  -21.5399  -35.1526   18.6438 O   0  0  0  0  0  0  0  0  0  0  0  0
  -23.6614  -34.3905   18.4385 N   0  0  0  0  0  0  0  0  0  0  0  0
  -24.6671  -33.7573   17.7602 C   0  0  0  0  0  0  0  0  0  0  0  0
  -25.8331  -33.9153   18.1207 O   0  0  0  0  0  0  0  0  0  0  0  0
  -23.9122  -34.8761   19.2574 H   0  0  0  0  0  0  0  0  0  0  0  0
  -28.5984  -32.1214   17.4173 C   0  0  0  0  0  0  0  0  0  0  0  0
  -28.9495  -30.8286   17.8653 O   0  0  0  0  0  0  0  0  0  0  0  0
  -28.5060  -30.4155   19.3434 P   0  0  0  0  0  0  0  0  0  0  0  0
  -29.4335  -29.5003   20.0747 O   0  0  0  0  0  0  0  0  0  0  0  0
  -27.0273  -29.8481   19.1727 O   0  0  0  0  0  0  0  0  0  0  0  0
  -28.2267  -31.7894   20.1087 O   0  0  0  0  0  0  0  0  0  0  0  0
  -27.0593  -28.9958   18.7108 H   0  0  0  0  0  0  0  0  0  0  0  0
  -29.0676  -32.2429   20.2762 H   0  0  0  0  0  0  0  0  0  0  0  0
 23 24  1  0
  6 24  1  0
  6  7  1  0
  7 25  1  0
 25 26  1  0
 26 27  2  0
 26 28  1  0
 26 29  1  0
  7  8  1  0
  8  5  1  0
  5  4  1  0
  4  1  1  0
  1  2  2  0
  1  3  1  0
  1 32  1  0
 32 33  1  0
 33 34  2  0
 33 35  1  0
 33 36  1  0
 37 36  1  0
 37 38  1  0
 38 39  1  0
 39 42  1  0
 42 43  1  0
 43 44  2  0
 44 45  1  0
 44 46  1  0
 46 47  2  0
 46 48  1  0
 48 49  1  0
 49 50  2  0
 39 40  1  0
 40 41  1  0
 41 52  1  0
 52 53  1  0
 53 54  1  0
 54 55  2  0
 54 56  1  0
 54 57  1  0
  8  9  1  0
  9 10  1  0
 10 11  1  0
 11 12  1  0
 12 13  2  0
 13 14  1  0
 14 15  2  0
 15 16  1  0
 15 17  1  0
 17 18  2  0
 18 19  1  0
 19 20  2  0
 10  6  1  0
 20 11  1  0
 41 37  1  0
 20 14  1  0
 49 42  1  0
 28 30  1  0
 29 31  1  0
 48 51  1  0
 56 58  1  0
 57 59  1  0
 16 21  1  0
 16 22  1  0
M  CHG 1   3  -1
M  CHG 1  35  -1
M  END
> <minimizedAffinity>
-7.92003

> <CNNscore>
0.5300966501

> <CNNaffinity>
5.6135897636

> <CNN_VS>
2.9757452011

> <CNNaffinity_variance>
0.4515035152

$$$$



 59 63  0  0  0  0  0  0  0  0999 V2000
  -28.9956  -31.0929   15.8071 P   0  0  0  0  0  0  0  0  0  0  0  0
  -30.0788  -32.0414   15.3791 O   0  0  0  0  0  0  0  0  0  0  0  0
  -28.4447  -31.2493   17.2242 O   0  0  0  0  0  0  0  0  0  0  0  0
  -29.5902  -29.5870   15.7376 O   0  0  0  0  0  0  0  0  0  0  0  0
  -30.9809  -29.4197   15.9505 C   0  0  0  0  0  0  0  0  0  0  0  0
  -31.9613  -26.4111   15.5302 C   0  0  0  0  0  0  0  0  0  0  0  0
  -32.5202  -27.4035   16.5430 C   0  0  0  0  0  0  0  0  0  0  0  0
  -31.2747  -28.2346   16.8824 C   0  0  0  0  0  0  0  0  0  0  0  0
  -30.1549  -27.2994   16.8538 O   0  0  0  0  0  0  0  0  0  0  0  0
  -30.5982  -26.1154   16.1597 C   0  0  0  0  0  0  0  0  0  0  0  0
  -29.5624  -25.7045   15.2293 N   0  0  0  0  0  0  0  0  0  0  0  0
  -29.0834  -26.4656   14.1903 C   0  0  0  0  0  0  0  0  0  0  0  0
  -28.1659  -25.8346   13.4859 N   0  0  0  0  0  0  0  0  0  0  0  0
  -28.0588  -24.5949   14.0945 C   0  0  0  0  0  0  0  0  0  0  0  0
  -27.2709  -23.4643   13.8200 C   0  0  0  0  0  0  0  0  0  0  0  0
  -26.3688  -23.4060   12.7599 N   0  0  0  0  0  0  0  0  0  0  0  0
  -27.3597  -22.3901   14.6398 N   0  0  0  0  0  0  0  0  0  0  0  0
  -28.2240  -22.4496   15.6792 C   0  0  0  0  0  0  0  0  0  0  0  0
  -29.0032  -23.4828   16.0426 N   0  0  0  0  0  0  0  0  0  0  0  0
  -28.8921  -24.5153   15.1963 C   0  0  0  0  0  0  0  0  0  0  0  0
  -26.2806  -24.1706   12.1460 H   0  0  0  0  0  0  0  0  0  0  0  0
  -25.8196  -22.6003   12.6247 H   0  0  0  0  0  0  0  0  0  0  0  0
  -31.9054  -24.0495   15.3669 C   0  0  0  0  0  0  0  0  0  0  0  0
  -32.7283  -25.2131   15.3461 O   0  0  0  0  0  0  0  0  0  0  0  0
  -33.0024  -26.7181   17.7040 O   0  0  0  0  0  0  0  0  0  0  0  0
  -31.9374  -26.2747   18.8172 P   0  0  0  0  0  0  0  0  0  0  0  0
  -31.0440  -25.1110   18.5444 O   0  0  0  0  0  0  0  0  0  0  0  0
  -31.2476  -27.6076   19.3393 O   0  0  0  0  0  0  0  0  0  0  0  0
  -32.8905  -25.9934   20.0806 O   0  0  0  0  0  0  0  0  0  0  0  0
  -30.6177  -27.9274   18.6746 H   0  0  0  0  0  0  0  0  0  0  0  0
  -33.4035  -25.1850   19.9250 H   0  0  0  0  0  0  0  0  0  0  0  0
  -27.7750  -31.0326   14.7936 O   0  0  0  0  0  0  0  0  0  0  0  0
  -27.6692  -30.9220   13.2061 P   0  0  0  0  0  0  0  0  0  0  0  0
  -28.1592  -29.5708   12.7144 O   0  0  0  0  0  0  0  0  0  0  0  0
  -28.0726  -32.1914   12.5112 O   0  0  0  0  0  0  0  0  0  0  0  0
  -26.0419  -30.8324   13.1027 O   0  0  0  0  0  0  0  0  0  0  0  0
  -25.3115  -31.9035   13.6583 C   0  0  0  0  0  0  0  0  0  0  0  0
  -25.7525  -32.1397   15.0857 C   0  0  0  0  0  0  0  0  0  0  0  0
  -25.5135  -33.6267   15.2961 C   0  0  0  0  0  0  0  0  0  0  0  0
  -25.2844  -34.2333   14.0107 O   0  0  0  0  0  0  0  0  0  0  0  0
  -25.6108  -33.2470   13.0087 C   0  0  0  0  0  0  0  0  0  0  0  0
  -24.3950  -33.9417   16.1836 N   0  0  0  0  0  0  0  0  0  0  0  0
  -23.1016  -34.0056   15.6941 C   0  0  0  0  0  0  0  0  0  0  0  0
  -22.0572  -34.3361   16.4632 C   0  0  0  0  0  0  0  0  0  0  0  0
  -20.6453  -34.4070   15.9780 C   0  0  0  0  0  0  0  0  0  0  0  0
  -22.3147  -34.6458   17.8907 C   0  0  0  0  0  0  0  0  0  0  0  0
  -21.4506  -35.0867   18.6409 O   0  0  0  0  0  0  0  0  0  0  0  0
  -23.5932  -34.4301   18.3216 N   0  0  0  0  0  0  0  0  0  0  0  0
  -24.6704  -34.1327   17.5320 C   0  0  0  0  0  0  0  0  0  0  0  0
  -25.7925  -34.0789   18.0342 O   0  0  0  0  0  0  0  0  0  0  0  0
  -23.7545  -34.4947   19.2907 H   0  0  0  0  0  0  0  0  0  0  0  0
  -24.8043  -33.5338   11.7439 C   0  0  0  0  0  0  0  0  0  0  0  0
  -24.7500  -32.3949   10.9100 O   0  0  0  0  0  0  0  0  0  0  0  0
  -24.0997  -32.5727    9.4617 P   0  0  0  0  0  0  0  0  0  0  0  0
  -24.9949  -32.2831    8.3009 O   0  0  0  0  0  0  0  0  0  0  0  0
  -23.4989  -34.0479    9.4721 O   0  0  0  0  0  0  0  0  0  0  0  0
  -22.7668  -31.6927    9.4776 O   0  0  0  0  0  0  0  0  0  0  0  0
  -24.2238  -34.6924    9.4638 H   0  0  0  0  0  0  0  0  0  0  0  0
  -23.0007  -30.7514    9.4729 H   0  0  0  0  0  0  0  0  0  0  0  0
 23 24  1  0
  6 24  1  0
  6  7  1  0
  7 25  1  0
 25 26  1  0
 26 27  2  0
 26 28  1  0
 26 29  1  0
  7  8  1  0
  8  5  1  0
  5  4  1  0
  4  1  1  0
  1  2  2  0
  1  3  1  0
  1 32  1  0
 32 33  1  0
 33 34  2  0
 33 35  1  0
 33 36  1  0
 37 36  1  0
 37 38  1  0
 38 39  1  0
 39 42  1  0
 42 43  1  0
 43 44  2  0
 44 45  1  0
 44 46  1  0
 46 47  2  0
 46 48  1  0
 48 49  1  0
 49 50  2  0
 39 40  1  0
 40 41  1  0
 41 52  1  0
 52 53  1  0
 53 54  1  0
 54 55  2  0
 54 56  1  0
 54 57  1  0
  8  9  1  0
  9 10  1  0
 10 11  1  0
 11 12  1  0
 12 13  2  0
 13 14  1  0
 14 15  2  0
 15 16  1  0
 15 17  1  0
 17 18  2  0
 18 19  1  0
 19 20  2  0
 10  6  1  0
 20 11  1  0
 41 37  1  0
 20 14  1  0
 49 42  1  0
 28 30  1  0
 29 31  1  0
 48 51  1  0
 56 58  1  0
 57 59  1  0
 16 21  1  0
 16 22  1  0
M  CHG 1   3  -1
M  CHG 1  35  -1
M  END
> <minimizedAffinity>
-6.89635

> <CNNscore>
0.4968666434

> <CNNaffinity>
5.5742220879

> <CNN_VS>
2.7696449757

> <CNNaffinity_variance>
0.4487024844

$$$$



 59 63  0  0  0  0  0  0  0  0999 V2000
  -29.3738  -34.5415   13.7857 P   0  0  0  0  0  0  0  0  0  0  0  0
  -30.1224  -35.7765   13.3725 O   0  0  0  0  0  0  0  0  0  0  0  0
  -29.8646  -33.2043   13.2316 O   0  0  0  0  0  0  0  0  0  0  0  0
  -27.8433  -34.6868   13.2733 O   0  0  0  0  0  0  0  0  0  0  0  0
  -27.5840  -34.4433   11.9019 C   0  0  0  0  0  0  0  0  0  0  0  0
  -25.5674  -36.8602   12.4319 C   0  0  0  0  0  0  0  0  0  0  0  0
  -27.0306  -36.9858   12.0241 C   0  0  0  0  0  0  0  0  0  0  0  0
  -27.2185  -35.7345   11.1545 C   0  0  0  0  0  0  0  0  0  0  0  0
  -25.9554  -35.5505   10.4474 O   0  0  0  0  0  0  0  0  0  0  0  0
  -24.9614  -36.3472   11.1238 C   0  0  0  0  0  0  0  0  0  0  0  0
  -23.7512  -35.5586   11.2693 N   0  0  0  0  0  0  0  0  0  0  0  0
  -22.6470  -35.9293   11.9984 C   0  0  0  0  0  0  0  0  0  0  0  0
  -21.6791  -35.0375   11.9337 N   0  0  0  0  0  0  0  0  0  0  0  0
  -22.1809  -34.0463   11.1064 C   0  0  0  0  0  0  0  0  0  0  0  0
  -21.6425  -32.8373   10.6343 C   0  0  0  0  0  0  0  0  0  0  0  0
  -20.3616  -32.3971   10.9606 N   0  0  0  0  0  0  0  0  0  0  0  0
  -22.4101  -32.0395    9.8543 N   0  0  0  0  0  0  0  0  0  0  0  0
  -23.6601  -32.4575    9.5482 C   0  0  0  0  0  0  0  0  0  0  0  0
  -24.2770  -33.5778    9.9617 N   0  0  0  0  0  0  0  0  0  0  0  0
  -23.4759  -34.3402   10.7177 C   0  0  0  0  0  0  0  0  0  0  0  0
  -19.7788  -32.9540   11.5258 H   0  0  0  0  0  0  0  0  0  0  0  0
  -20.0392  -31.5292   10.6259 H   0  0  0  0  0  0  0  0  0  0  0  0
  -24.5187  -38.8752   11.7631 C   0  0  0  0  0  0  0  0  0  0  0  0
  -24.9370  -38.0737   12.8650 O   0  0  0  0  0  0  0  0  0  0  0  0
  -27.2364  -38.1738   11.2517 O   0  0  0  0  0  0  0  0  0  0  0  0
  -28.7419  -38.6734   11.0194 P   0  0  0  0  0  0  0  0  0  0  0  0
  -29.4904  -38.1905    9.8222 O   0  0  0  0  0  0  0  0  0  0  0  0
  -29.4769  -38.5623   12.4238 O   0  0  0  0  0  0  0  0  0  0  0  0
  -28.5492  -40.2688   10.9810 O   0  0  0  0  0  0  0  0  0  0  0  0
  -29.6749  -37.6317   12.6124 H   0  0  0  0  0  0  0  0  0  0  0  0
  -28.0990  -40.5204   10.1595 H   0  0  0  0  0  0  0  0  0  0  0  0
  -29.2032  -34.4055   15.3584 O   0  0  0  0  0  0  0  0  0  0  0  0
  -28.4224  -33.3768   16.2942 P   0  0  0  0  0  0  0  0  0  0  0  0
  -29.3238  -32.8372   17.3914 O   0  0  0  0  0  0  0  0  0  0  0  0
  -27.5164  -32.4638   15.5179 O   0  0  0  0  0  0  0  0  0  0  0  0
  -27.4580  -34.4579   17.0479 O   0  0  0  0  0  0  0  0  0  0  0  0
  -26.1218  -34.0666   17.2730 C   0  0  0  0  0  0  0  0  0  0  0  0
  -25.2617  -34.4784   16.0988 C   0  0  0  0  0  0  0  0  0  0  0  0
  -24.1535  -33.4372   16.0803 C   0  0  0  0  0  0  0  0  0  0  0  0
  -24.5398  -32.3515   16.9433 O   0  0  0  0  0  0  0  0  0  0  0  0
  -25.9243  -32.5577   17.2954 C   0  0  0  0  0  0  0  0  0  0  0  0
  -22.8434  -33.9382   16.4935 N   0  0  0  0  0  0  0  0  0  0  0  0
  -21.8243  -34.0956   15.5697 C   0  0  0  0  0  0  0  0  0  0  0  0
  -20.6266  -34.5945   15.8984 C   0  0  0  0  0  0  0  0  0  0  0  0
  -19.4970  -34.7714   14.9359 C   0  0  0  0  0  0  0  0  0  0  0  0
  -20.4018  -34.9917   17.3097 C   0  0  0  0  0  0  0  0  0  0  0  0
  -19.3918  -35.5798   17.6812 O   0  0  0  0  0  0  0  0  0  0  0  0
  -21.4086  -34.6806   18.1794 N   0  0  0  0  0  0  0  0  0  0  0  0
  -22.6481  -34.2094   17.8420 C   0  0  0  0  0  0  0  0  0  0  0  0
  -23.5051  -34.0808   18.7157 O   0  0  0  0  0  0  0  0  0  0  0  0
  -21.2251  -34.8073   19.1384 H   0  0  0  0  0  0  0  0  0  0  0  0
  -26.1991  -31.9019   18.6471 C   0  0  0  0  0  0  0  0  0  0  0  0
  -26.5540  -30.5440   18.4871 O   0  0  0  0  0  0  0  0  0  0  0  0
  -27.9150  -30.0536   19.1648 P   0  0  0  0  0  0  0  0  0  0  0  0
  -28.8959  -29.3854   18.2570 O   0  0  0  0  0  0  0  0  0  0  0  0
  -27.4476  -29.1572   20.3959 O   0  0  0  0  0  0  0  0  0  0  0  0
  -28.5066  -31.3325   19.9168 O   0  0  0  0  0  0  0  0  0  0  0  0
  -27.0608  -28.3311   20.0660 H   0  0  0  0  0  0  0  0  0  0  0  0
  -28.8325  -31.9702   19.2626 H   0  0  0  0  0  0  0  0  0  0  0  0
 23 24  1  0
  6 24  1  0
  6  7  1  0
  7 25  1  0
 25 26  1  0
 26 27  2  0
 26 28  1  0
 26 29  1  0
  7  8  1  0
  8  5  1  0
  5  4  1  0
  4  1  1  0
  1  2  2  0
  1  3  1  0
  1 32  1  0
 32 33  1  0
 33 34  2  0
 33 35  1  0
 33 36  1  0
 37 36  1  0
 37 38  1  0
 38 39  1  0
 39 42  1  0
 42 43  1  0
 43 44  2  0
 44 45  1  0
 44 46  1  0
 46 47  2  0
 46 48  1  0
 48 49  1  0
 49 50  2  0
 39 40  1  0
 40 41  1  0
 41 52  1  0
 52 53  1  0
 53 54  1  0
 54 55  2  0
 54 56  1  0
 54 57  1  0
  8  9  1  0
  9 10  1  0
 10 11  1  0
 11 12  1  0
 12 13  2  0
 13 14  1  0
 14 15  2  0
 15 16  1  0
 15 17  1  0
 17 18  2  0
 18 19  1  0
 19 20  2  0
 10  6  1  0
 20 11  1  0
 41 37  1  0
 20 14  1  0
 49 42  1  0
 28 30  1  0
 29 31  1  0
 48 51  1  0
 56 58  1  0
 57 59  1  0
 16 21  1  0
 16 22  1  0
M  CHG 1   3  -1
M  CHG 1  35  -1
M  END
> <minimizedAffinity>
-7.07017

> <CNNscore>
0.4383188784

> <CNNaffinity>
5.2750992775

> <CNN_VS>
2.3121755123

> <CNNaffinity_variance>
0.6650906205

$$$$
