


 28 30  0  0  0  0  0  0  0  0999 V2000
  -36.7233   -3.0297    8.7667 C   0  0  0  0  0  0  0  0  0  0  0  0
  -37.0571   -3.9912    7.6716 C   0  0  0  0  0  0  0  0  0  0  0  0
  -38.1814   -3.9846    6.8595 C   0  0  0  0  0  0  0  0  0  0  0  0
  -38.0908   -5.0383    5.9875 N   0  0  0  0  0  0  0  0  0  0  0  0
  -36.9271   -5.7295    6.2089 C   0  0  0  0  0  0  0  0  0  0  0  0
  -36.3747   -6.8450    5.6076 C   0  0  0  0  0  0  0  0  0  0  0  0
  -36.9975   -7.5660    4.6017 N   0  0  0  0  0  0  0  0  0  0  0  0
  -35.1745   -7.2567    6.0355 N   0  0  0  0  0  0  0  0  0  0  0  0
  -34.5759   -6.5687    7.0304 C   0  0  0  0  0  0  0  0  0  0  0  0
  -32.8696   -7.2086    7.5868 Br  0  0  0  0  0  0  0  0  0  0  0  0
  -35.0453   -5.4902    7.6743 N   0  0  0  0  0  0  0  0  0  0  0  0
  -36.2539   -5.0842    7.2344 C   0  0  0  0  0  0  0  0  0  0  0  0
  -38.7617   -5.2653    5.3036 H   0  0  0  0  0  0  0  0  0  0  0  0
  -37.8803   -7.2849    4.2687 H   0  0  0  0  0  0  0  0  0  0  0  0
  -36.5572   -8.3594    4.2198 H   0  0  0  0  0  0  0  0  0  0  0  0
  -35.3234   -0.0192    7.1771 C   0  0  0  0  0  0  0  0  0  0  0  0
  -36.3763   -1.1221    7.3100 C   0  0  0  0  0  0  0  0  0  0  0  0
  -35.7688   -2.0306    8.2813 N   0  0  0  0  0  0  0  0  0  0  0  0
  -35.2351   -1.1566    9.3374 C   0  0  0  0  0  0  0  0  0  0  0  0
  -34.8737    0.1638    8.6327 C   0  0  0  0  0  0  0  0  0  0  0  0
  -35.6189    1.2353    9.2205 O   0  0  0  0  0  0  0  0  0  0  0  0
  -36.5675    1.0432    9.1553 H   0  0  0  0  0  0  0  0  0  0  0  0
  -34.1745   -0.4716    6.2622 C   0  0  0  0  0  0  0  0  0  0  0  0
  -34.6288   -0.4131    4.4885 S   0  0  0  0  0  0  0  0  0  0  0  0
  -33.1079    0.2944    3.7689 C   0  0  0  0  0  0  0  0  0  0  0  0
  -33.3985    1.4790    2.8513 C   0  0  0  0  0  0  0  0  0  0  0  0
  -35.3232    2.3003    1.4381 C   0  0  0  0  0  0  0  0  0  0  0  0
  -34.8997    1.7754    2.8033 C   0  0  0  0  0  0  0  0  0  0  0  0
 27 28  1  0
 28 26  1  0
 26 25  1  0
 25 24  1  0
 24 23  1  0
 16 23  1  0
 16 17  1  0
 17 18  1  0
 18  1  1  0
  1  2  1  0
  2  3  2  0
  3  4  1  0
  4  5  1  0
  5  6  2  0
  6  7  1  0
  6  8  1  0
  8  9  2  0
  9 10  1  0
  9 11  1  0
 11 12  2  0
 18 19  1  0
 19 20  1  0
 20 21  1  0
 20 16  1  0
 12  2  1  0
 12  5  1  0
  4 13  1  0
  7 14  1  0
  7 15  1  0
 21 22  1  0
M  END
> <minimizedAffinity>
-8.75366

> <CNNscore>
0.9929941893

> <CNNaffinity>
9.1485776901

> <CNN_VS>
9.0844841003

> <CNNaffinity_variance>
0.1397651583

$$$$



 28 30  0  0  0  0  0  0  0  0999 V2000
  -35.8183   -2.0420    7.5410 C   0  0  0  0  0  0  0  0  0  0  0  0
  -36.5087   -3.2707    7.0421 C   0  0  0  0  0  0  0  0  0  0  0  0
  -37.8018   -3.3685    6.5503 C   0  0  0  0  0  0  0  0  0  0  0  0
  -38.0337   -4.6735    6.2008 N   0  0  0  0  0  0  0  0  0  0  0  0
  -36.9162   -5.4292    6.4481 C   0  0  0  0  0  0  0  0  0  0  0  0
  -36.6384   -6.7715    6.2695 C   0  0  0  0  0  0  0  0  0  0  0  0
  -37.5626   -7.6949    5.8080 N   0  0  0  0  0  0  0  0  0  0  0  0
  -35.4078   -7.2018    6.5752 N   0  0  0  0  0  0  0  0  0  0  0  0
  -34.5125   -6.3082    7.0457 C   0  0  0  0  0  0  0  0  0  0  0  0
  -32.7812   -6.9893    7.4570 Br  0  0  0  0  0  0  0  0  0  0  0  0
  -34.7025   -4.9982    7.2604 N   0  0  0  0  0  0  0  0  0  0  0  0
  -35.9449   -4.5761    6.9482 C   0  0  0  0  0  0  0  0  0  0  0  0
  -38.8773   -5.0173    5.8276 H   0  0  0  0  0  0  0  0  0  0  0  0
  -38.4744   -7.4050    5.5762 H   0  0  0  0  0  0  0  0  0  0  0  0
  -37.3074   -8.6409    5.7120 H   0  0  0  0  0  0  0  0  0  0  0  0
  -33.9065    0.2879    5.4277 C   0  0  0  0  0  0  0  0  0  0  0  0
  -34.3670   -0.2529    6.7835 C   0  0  0  0  0  0  0  0  0  0  0  0
  -35.4160   -1.2010    6.4115 N   0  0  0  0  0  0  0  0  0  0  0  0
  -34.8617   -1.9556    5.2769 C   0  0  0  0  0  0  0  0  0  0  0  0
  -33.9029   -0.9824    4.5669 C   0  0  0  0  0  0  0  0  0  0  0  0
  -32.5833   -1.5370    4.5585 O   0  0  0  0  0  0  0  0  0  0  0  0
  -32.3018   -1.7154    5.4695 H   0  0  0  0  0  0  0  0  0  0  0  0
  -34.8881    1.3476    4.9030 C   0  0  0  0  0  0  0  0  0  0  0  0
  -34.9775    1.3728    3.0735 S   0  0  0  0  0  0  0  0  0  0  0  0
  -33.2849    1.9134    2.6557 C   0  0  0  0  0  0  0  0  0  0  0  0
  -33.2685    2.9524    1.5377 C   0  0  0  0  0  0  0  0  0  0  0  0
  -34.7081    3.3650   -0.4954 C   0  0  0  0  0  0  0  0  0  0  0  0
  -34.6846    3.2178    1.0201 C   0  0  0  0  0  0  0  0  0  0  0  0
 27 28  1  0
 28 26  1  0
 26 25  1  0
 25 24  1  0
 24 23  1  0
 16 23  1  0
 16 17  1  0
 17 18  1  0
 18  1  1  0
  1  2  1  0
  2  3  2  0
  3  4  1  0
  4  5  1  0
  5  6  2  0
  6  7  1  0
  6  8  1  0
  8  9  2  0
  9 10  1  0
  9 11  1  0
 11 12  2  0
 18 19  1  0
 19 20  1  0
 20 21  1  0
 20 16  1  0
 12  2  1  0
 12  5  1  0
  4 13  1  0
  7 14  1  0
  7 15  1  0
 21 22  1  0
M  END
> <minimizedAffinity>
-5.05999

> <CNNscore>
0.4175861478

> <CNNaffinity>
8.2442045212

> <CNN_VS>
3.4426655769

> <CNNaffinity_variance>
0.4878140986

$$$$



 28 30  0  0  0  0  0  0  0  0999 V2000
  -27.2616  -11.8384    1.0561 C   0  0  0  0  0  0  0  0  0  0  0  0
  -26.4336  -11.2011    2.1255 C   0  0  0  0  0  0  0  0  0  0  0  0
  -25.5552  -10.1367    1.9877 C   0  0  0  0  0  0  0  0  0  0  0  0
  -25.0059   -9.8681    3.2145 N   0  0  0  0  0  0  0  0  0  0  0  0
  -25.5124  -10.7311    4.1525 C   0  0  0  0  0  0  0  0  0  0  0  0
  -25.2894  -10.8710    5.5095 C   0  0  0  0  0  0  0  0  0  0  0  0
  -24.3748  -10.1128    6.2223 N   0  0  0  0  0  0  0  0  0  0  0  0
  -25.9902  -11.8045    6.1657 N   0  0  0  0  0  0  0  0  0  0  0  0
  -26.8659  -12.5591    5.4691 C   0  0  0  0  0  0  0  0  0  0  0  0
  -27.8302  -13.8649    6.4669 Br  0  0  0  0  0  0  0  0  0  0  0  0
  -27.1320  -12.4982    4.1563 N   0  0  0  0  0  0  0  0  0  0  0  0
  -26.4212  -11.5542    3.5061 C   0  0  0  0  0  0  0  0  0  0  0  0
  -24.3457   -9.1605    3.3955 H   0  0  0  0  0  0  0  0  0  0  0  0
  -23.8465   -9.4198    5.7641 H   0  0  0  0  0  0  0  0  0  0  0  0
  -24.2531  -10.2670    7.1870 H   0  0  0  0  0  0  0  0  0  0  0  0
  -30.3437  -10.5695   -0.5060 C   0  0  0  0  0  0  0  0  0  0  0  0
  -29.0562  -11.3972   -0.5142 C   0  0  0  0  0  0  0  0  0  0  0  0
  -28.3943  -10.9735    0.7187 N   0  0  0  0  0  0  0  0  0  0  0  0
  -29.4568  -10.9623    1.7362 C   0  0  0  0  0  0  0  0  0  0  0  0
  -30.7532  -10.6391    0.9711 C   0  0  0  0  0  0  0  0  0  0  0  0
  -31.6877  -11.7090    1.1467 O   0  0  0  0  0  0  0  0  0  0  0  0
  -31.2898  -12.5393    0.8412 H   0  0  0  0  0  0  0  0  0  0  0  0
  -30.0682   -9.1305   -0.9698 C   0  0  0  0  0  0  0  0  0  0  0  0
  -31.5834   -8.2812   -1.5513 S   0  0  0  0  0  0  0  0  0  0  0  0
  -31.5337   -8.6745   -3.3330 C   0  0  0  0  0  0  0  0  0  0  0  0
  -32.8212   -8.2767   -4.0498 C   0  0  0  0  0  0  0  0  0  0  0  0
  -33.7821   -6.5851   -5.6595 C   0  0  0  0  0  0  0  0  0  0  0  0
  -32.5266   -7.3183   -5.2067 C   0  0  0  0  0  0  0  0  0  0  0  0
 27 28  1  0
 28 26  1  0
 26 25  1  0
 25 24  1  0
 24 23  1  0
 16 23  1  0
 16 17  1  0
 17 18  1  0
 18  1  1  0
  1  2  1  0
  2  3  2  0
  3  4  1  0
  4  5  1  0
  5  6  2  0
  6  7  1  0
  6  8  1  0
  8  9  2  0
  9 10  1  0
  9 11  1  0
 11 12  2  0
 18 19  1  0
 19 20  1  0
 20 21  1  0
 20 16  1  0
 12  2  1  0
 12  5  1  0
  4 13  1  0
  7 14  1  0
  7 15  1  0
 21 22  1  0
M  END
> <minimizedAffinity>
-6.93115

> <CNNscore>
0.3387299478

> <CNNaffinity>
5.6132221222

> <CNN_VS>
1.9013664722

> <CNNaffinity_variance>
0.2210402936

$$$$



 28 30  0  0  0  0  0  0  0  0999 V2000
  -40.0541    4.5790   -0.4403 C   0  0  0  0  0  0  0  0  0  0  0  0
  -40.3843    5.8829    0.2123 C   0  0  0  0  0  0  0  0  0  0  0  0
  -39.5257    6.9454    0.4517 C   0  0  0  0  0  0  0  0  0  0  0  0
  -40.2349    7.9440    1.0672 N   0  0  0  0  0  0  0  0  0  0  0  0
  -41.5411    7.5581    1.2290 C   0  0  0  0  0  0  0  0  0  0  0  0
  -42.6403    8.1908    1.7786 C   0  0  0  0  0  0  0  0  0  0  0  0
  -42.5922    9.4412    2.3734 N   0  0  0  0  0  0  0  0  0  0  0  0
  -43.8144    7.5477    1.7443 N   0  0  0  0  0  0  0  0  0  0  0  0
  -43.8590    6.3202    1.1850 C   0  0  0  0  0  0  0  0  0  0  0  0
  -45.5617    5.4653    1.1681 Br  0  0  0  0  0  0  0  0  0  0  0  0
  -42.8429    5.6324    0.6439 N   0  0  0  0  0  0  0  0  0  0  0  0
  -41.6662    6.2901    0.6833 C   0  0  0  0  0  0  0  0  0  0  0  0
  -39.8620    8.8098    1.3510 H   0  0  0  0  0  0  0  0  0  0  0  0
  -41.7417    9.9355    2.4121 H   0  0  0  0  0  0  0  0  0  0  0  0
  -43.4086    9.8353    2.7575 H   0  0  0  0  0  0  0  0  0  0  0  0
  -36.6165    3.2848   -0.6812 C   0  0  0  0  0  0  0  0  0  0  0  0
  -38.0097    3.3343   -0.0495 C   0  0  0  0  0  0  0  0  0  0  0  0
  -38.6142    4.4981   -0.6958 N   0  0  0  0  0  0  0  0  0  0  0  0
  -38.2702    4.3638   -2.1198 C   0  0  0  0  0  0  0  0  0  0  0  0
  -36.9237    3.6178   -2.1473 C   0  0  0  0  0  0  0  0  0  0  0  0
  -37.0711    2.3983   -2.8821 O   0  0  0  0  0  0  0  0  0  0  0  0
  -37.7698    1.8601   -2.4784 H   0  0  0  0  0  0  0  0  0  0  0  0
  -35.6864    4.3196   -0.0286 C   0  0  0  0  0  0  0  0  0  0  0  0
  -35.3514    3.9455    1.7331 S   0  0  0  0  0  0  0  0  0  0  0  0
  -34.9020    2.1796    1.6285 C   0  0  0  0  0  0  0  0  0  0  0  0
  -34.7035    1.5502    3.0048 C   0  0  0  0  0  0  0  0  0  0  0  0
  -33.2572   -0.2186    4.0798 C   0  0  0  0  0  0  0  0  0  0  0  0
  -33.2883    0.9834    3.1455 C   0  0  0  0  0  0  0  0  0  0  0  0
 27 28  1  0
 28 26  1  0
 26 25  1  0
 25 24  1  0
 24 23  1  0
 16 23  1  0
 16 17  1  0
 17 18  1  0
 18  1  1  0
  1  2  1  0
  2  3  2  0
  3  4  1  0
  4  5  1  0
  5  6  2  0
  6  7  1  0
  6  8  1  0
  8  9  2  0
  9 10  1  0
  9 11  1  0
 11 12  2  0
 18 19  1  0
 19 20  1  0
 20 21  1  0
 20 16  1  0
 12  2  1  0
 12  5  1  0
  4 13  1  0
  7 14  1  0
  7 15  1  0
 21 22  1  0
M  END
> <minimizedAffinity>
-5.27386

> <CNNscore>
0.3014578223

> <CNNaffinity>
5.7157859802

> <CNN_VS>
1.7230683565

> <CNNaffinity_variance>
0.0196872111

$$$$



 28 30  0  0  0  0  0  0  0  0999 V2000
  -33.4599   -0.4892    4.5461 C   0  0  0  0  0  0  0  0  0  0  0  0
  -34.3180   -0.3511    5.7625 C   0  0  0  0  0  0  0  0  0  0  0  0
  -34.7462    0.8243    6.3614 C   0  0  0  0  0  0  0  0  0  0  0  0
  -35.5144    0.5001    7.4494 N   0  0  0  0  0  0  0  0  0  0  0  0
  -35.6022   -0.8633    7.5699 C   0  0  0  0  0  0  0  0  0  0  0  0
  -36.2493   -1.6807    8.4777 C   0  0  0  0  0  0  0  0  0  0  0  0
  -36.9544   -1.2091    9.5731 N   0  0  0  0  0  0  0  0  0  0  0  0
  -36.1753   -3.0046    8.2910 N   0  0  0  0  0  0  0  0  0  0  0  0
  -35.4705   -3.4670    7.2370 C   0  0  0  0  0  0  0  0  0  0  0  0
  -35.4102   -5.3603    7.0312 Br  0  0  0  0  0  0  0  0  0  0  0  0
  -34.8053   -2.7479    6.3213 N   0  0  0  0  0  0  0  0  0  0  0  0
  -34.8876   -1.4162    6.5188 C   0  0  0  0  0  0  0  0  0  0  0  0
  -35.9400    1.1496    8.0546 H   0  0  0  0  0  0  0  0  0  0  0  0
  -37.0243   -0.2403    9.7336 H   0  0  0  0  0  0  0  0  0  0  0  0
  -37.3856   -1.8428   10.1910 H   0  0  0  0  0  0  0  0  0  0  0  0
  -34.9748    2.3810    2.8091 C   0  0  0  0  0  0  0  0  0  0  0  0
  -34.8313    1.4363    4.0048 C   0  0  0  0  0  0  0  0  0  0  0  0
  -33.9535    0.3896    3.4836 N   0  0  0  0  0  0  0  0  0  0  0  0
  -32.8899    1.1083    2.7650 C   0  0  0  0  0  0  0  0  0  0  0  0
  -33.5448    2.4042    2.2530 C   0  0  0  0  0  0  0  0  0  0  0  0
  -32.8514    3.5331    2.7949 O   0  0  0  0  0  0  0  0  0  0  0  0
  -32.8630    3.4852    3.7637 H   0  0  0  0  0  0  0  0  0  0  0  0
  -35.9878    1.8256    1.7957 C   0  0  0  0  0  0  0  0  0  0  0  0
  -36.3788    3.0262    0.4685 S   0  0  0  0  0  0  0  0  0  0  0  0
  -36.8086    4.4998    1.4559 C   0  0  0  0  0  0  0  0  0  0  0  0
  -38.3040    4.5839    1.7498 C   0  0  0  0  0  0  0  0  0  0  0  0
  -40.4335    3.2700    1.4103 C   0  0  0  0  0  0  0  0  0  0  0  0
  -39.0964    3.6762    0.8053 C   0  0  0  0  0  0  0  0  0  0  0  0
 27 28  1  0
 28 26  1  0
 26 25  1  0
 25 24  1  0
 24 23  1  0
 16 23  1  0
 16 17  1  0
 17 18  1  0
 18  1  1  0
  1  2  1  0
  2  3  2  0
  3  4  1  0
  4  5  1  0
  5  6  2  0
  6  7  1  0
  6  8  1  0
  8  9  2  0
  9 10  1  0
  9 11  1  0
 11 12  2  0
 18 19  1  0
 19 20  1  0
 20 21  1  0
 20 16  1  0
 12  2  1  0
 12  5  1  0
  4 13  1  0
  7 14  1  0
  7 15  1  0
 21 22  1  0
M  END
> <minimizedAffinity>
-6.09958

> <CNNscore>
0.2679140270

> <CNNaffinity>
7.2596869469

> <CNN_VS>
1.9449719191

> <CNNaffinity_variance>
0.0651777610

$$$$



 28 30  0  0  0  0  0  0  0  0999 V2000
  -37.8337    5.1146    0.0899 C   0  0  0  0  0  0  0  0  0  0  0  0
  -39.1611    4.6695    0.6144 C   0  0  0  0  0  0  0  0  0  0  0  0
  -39.5717    3.3700    0.8714 C   0  0  0  0  0  0  0  0  0  0  0  0
  -40.8578    3.4085    1.3439 N   0  0  0  0  0  0  0  0  0  0  0  0
  -41.2938    4.7074    1.4070 C   0  0  0  0  0  0  0  0  0  0  0  0
  -42.4890    5.2726    1.8105 C   0  0  0  0  0  0  0  0  0  0  0  0
  -43.5913    4.5373    2.2153 N   0  0  0  0  0  0  0  0  0  0  0  0
  -42.5867    6.6080    1.7938 N   0  0  0  0  0  0  0  0  0  0  0  0
  -41.5216    7.3255    1.3790 C   0  0  0  0  0  0  0  0  0  0  0  0
  -41.7301    9.2195    1.3838 Br  0  0  0  0  0  0  0  0  0  0  0  0
  -40.3361    6.8590    0.9605 N   0  0  0  0  0  0  0  0  0  0  0  0
  -40.2490    5.5133    0.9825 C   0  0  0  0  0  0  0  0  0  0  0  0
  -41.3898    2.6207    1.6000 H   0  0  0  0  0  0  0  0  0  0  0  0
  -43.5462    3.5540    2.2367 H   0  0  0  0  0  0  0  0  0  0  0  0
  -44.4196    4.9980    2.4814 H   0  0  0  0  0  0  0  0  0  0  0  0
  -34.8664    3.0150    0.6703 C   0  0  0  0  0  0  0  0  0  0  0  0
  -36.1066    3.4259   -0.1270 C   0  0  0  0  0  0  0  0  0  0  0  0
  -36.7588    4.3836    0.7647 N   0  0  0  0  0  0  0  0  0  0  0  0
  -35.6728    5.2451    1.2573 C   0  0  0  0  0  0  0  0  0  0  0  0
  -34.4160    4.3558    1.2650 C   0  0  0  0  0  0  0  0  0  0  0  0
  -33.4203    4.9332    0.4141 O   0  0  0  0  0  0  0  0  0  0  0  0
  -33.7800    5.0360   -0.4809 H   0  0  0  0  0  0  0  0  0  0  0  0
  -35.2319    1.9877    1.7533 C   0  0  0  0  0  0  0  0  0  0  0  0
  -33.8467    1.6666    2.9082 S   0  0  0  0  0  0  0  0  0  0  0  0
  -34.7501    1.0104    4.3521 C   0  0  0  0  0  0  0  0  0  0  0  0
  -34.9218   -0.5049    4.2878 C   0  0  0  0  0  0  0  0  0  0  0  0
  -34.8830   -0.1050    6.7808 C   0  0  0  0  0  0  0  0  0  0  0  0
  -35.2611   -1.0735    5.6682 C   0  0  0  0  0  0  0  0  0  0  0  0
 27 28  1  0
 28 26  1  0
 26 25  1  0
 25 24  1  0
 24 23  1  0
 16 23  1  0
 16 17  1  0
 17 18  1  0
 18  1  1  0
  1  2  1  0
  2  3  2  0
  3  4  1  0
  4  5  1  0
  5  6  2  0
  6  7  1  0
  6  8  1  0
  8  9  2  0
  9 10  1  0
  9 11  1  0
 11 12  2  0
 18 19  1  0
 19 20  1  0
 20 21  1  0
 20 16  1  0
 12  2  1  0
 12  5  1  0
  4 13  1  0
  7 14  1  0
  7 15  1  0
 21 22  1  0
M  END
> <minimizedAffinity>
-6.19931

> <CNNscore>
0.2112163901

> <CNNaffinity>
5.1162819862

> <CNN_VS>
1.0806425810

> <CNNaffinity_variance>
0.6276118159

$$$$



 28 30  0  0  0  0  0  0  0  0999 V2000
  -39.2159    4.5279   -0.7819 C   0  0  0  0  0  0  0  0  0  0  0  0
  -40.2443    4.9997    0.1954 C   0  0  0  0  0  0  0  0  0  0  0  0
  -40.0740    5.2252    1.5532 C   0  0  0  0  0  0  0  0  0  0  0  0
  -41.2680    5.6527    2.0734 N   0  0  0  0  0  0  0  0  0  0  0  0
  -42.2134    5.7173    1.0818 C   0  0  0  0  0  0  0  0  0  0  0  0
  -43.5457    6.0860    1.0846 C   0  0  0  0  0  0  0  0  0  0  0  0
  -44.2443    6.4422    2.2268 N   0  0  0  0  0  0  0  0  0  0  0  0
  -44.1979    6.0833   -0.0849 N   0  0  0  0  0  0  0  0  0  0  0  0
  -43.5251    5.7155   -1.1955 C   0  0  0  0  0  0  0  0  0  0  0  0
  -44.5143    5.7377   -2.8239 Br  0  0  0  0  0  0  0  0  0  0  0  0
  -42.2430    5.3328   -1.2840 N   0  0  0  0  0  0  0  0  0  0  0  0
  -41.5961    5.3403   -0.1005 C   0  0  0  0  0  0  0  0  0  0  0  0
  -41.4238    5.8796    3.0186 H   0  0  0  0  0  0  0  0  0  0  0  0
  -43.7886    6.4524    3.0994 H   0  0  0  0  0  0  0  0  0  0  0  0
  -45.1964    6.6851    2.1658 H   0  0  0  0  0  0  0  0  0  0  0  0
  -35.7644    3.4700   -0.0623 C   0  0  0  0  0  0  0  0  0  0  0  0
  -37.1408    3.2753   -0.7028 C   0  0  0  0  0  0  0  0  0  0  0  0
  -37.9276    4.3542   -0.1072 N   0  0  0  0  0  0  0  0  0  0  0  0
  -37.0584    5.5393   -0.1722 C   0  0  0  0  0  0  0  0  0  0  0  0
  -35.6199    4.9975   -0.0850 C   0  0  0  0  0  0  0  0  0  0  0  0
  -34.8961    5.3806   -1.2590 O   0  0  0  0  0  0  0  0  0  0  0  0
  -35.3563    5.0482   -2.0455 H   0  0  0  0  0  0  0  0  0  0  0  0
  -35.7435    2.9014    1.3653 C   0  0  0  0  0  0  0  0  0  0  0  0
  -34.0724    2.3490    1.8733 S   0  0  0  0  0  0  0  0  0  0  0  0
  -34.4864    1.2390    3.2618 C   0  0  0  0  0  0  0  0  0  0  0  0
  -33.2664    0.4845    3.7834 C   0  0  0  0  0  0  0  0  0  0  0  0
  -34.1421   -0.3639    5.9946 C   0  0  0  0  0  0  0  0  0  0  0  0
  -33.6907   -0.7449    4.5911 C   0  0  0  0  0  0  0  0  0  0  0  0
 27 28  1  0
 28 26  1  0
 26 25  1  0
 25 24  1  0
 24 23  1  0
 16 23  1  0
 16 17  1  0
 17 18  1  0
 18  1  1  0
  1  2  1  0
  2  3  2  0
  3  4  1  0
  4  5  1  0
  5  6  2  0
  6  7  1  0
  6  8  1  0
  8  9  2  0
  9 10  1  0
  9 11  1  0
 11 12  2  0
 18 19  1  0
 19 20  1  0
 20 21  1  0
 20 16  1  0
 12  2  1  0
 12  5  1  0
  4 13  1  0
  7 14  1  0
  7 15  1  0
 21 22  1  0
M  END
> <minimizedAffinity>
-5.11426

> <CNNscore>
0.2010472566

> <CNNaffinity>
5.2565312386

> <CNN_VS>
1.0568112135

> <CNNaffinity_variance>
0.3177537620

$$$$



 28 30  0  0  0  0  0  0  0  0999 V2000
  -38.8683    3.6809    0.5678 C   0  0  0  0  0  0  0  0  0  0  0  0
  -37.5705    3.9801   -0.1115 C   0  0  0  0  0  0  0  0  0  0  0  0
  -37.3713    4.7655   -1.2370 C   0  0  0  0  0  0  0  0  0  0  0  0
  -36.0310    4.7773   -1.5240 N   0  0  0  0  0  0  0  0  0  0  0  0
  -35.3495    4.0209   -0.6050 C   0  0  0  0  0  0  0  0  0  0  0  0
  -34.0086    3.7224   -0.4516 C   0  0  0  0  0  0  0  0  0  0  0  0
  -33.0208    4.1402   -1.3286 N   0  0  0  0  0  0  0  0  0  0  0  0
  -33.6506    2.9738    0.5995 N   0  0  0  0  0  0  0  0  0  0  0  0
  -34.6139    2.5472    1.4430 C   0  0  0  0  0  0  0  0  0  0  0  0
  -34.0326    1.4896    2.9174 Br  0  0  0  0  0  0  0  0  0  0  0  0
  -35.9322    2.7787    1.3605 N   0  0  0  0  0  0  0  0  0  0  0  0
  -36.2807    3.5342    0.2990 C   0  0  0  0  0  0  0  0  0  0  0  0
  -35.6186    5.2576   -2.2780 H   0  0  0  0  0  0  0  0  0  0  0  0
  -33.2569    4.6915   -2.1094 H   0  0  0  0  0  0  0  0  0  0  0  0
  -32.0829    3.8859   -1.1711 H   0  0  0  0  0  0  0  0  0  0  0  0
  -41.8879    5.7400    0.1292 C   0  0  0  0  0  0  0  0  0  0  0  0
  -41.0351    4.5000   -0.1500 C   0  0  0  0  0  0  0  0  0  0  0  0
  -39.7590    4.8400    0.4773 N   0  0  0  0  0  0  0  0  0  0  0  0
  -40.1183    5.4164    1.7822 C   0  0  0  0  0  0  0  0  0  0  0  0
  -41.4955    6.0728    1.5749 C   0  0  0  0  0  0  0  0  0  0  0  0
  -42.4446    5.4768    2.4653 O   0  0  0  0  0  0  0  0  0  0  0  0
  -42.4775    4.5200    2.3096 H   0  0  0  0  0  0  0  0  0  0  0  0
  -41.5367    6.8728   -0.8480 C   0  0  0  0  0  0  0  0  0  0  0  0
  -41.4911    6.3051   -2.5891 S   0  0  0  0  0  0  0  0  0  0  0  0
  -43.2395    5.8485   -2.8460 C   0  0  0  0  0  0  0  0  0  0  0  0
  -43.4264    4.3425   -3.0097 C   0  0  0  0  0  0  0  0  0  0  0  0
  -45.6985    3.2590   -3.2093 C   0  0  0  0  0  0  0  0  0  0  0  0
  -44.6087    4.0378   -3.9335 C   0  0  0  0  0  0  0  0  0  0  0  0
 27 28  1  0
 28 26  1  0
 26 25  1  0
 25 24  1  0
 24 23  1  0
 16 23  1  0
 16 17  1  0
 17 18  1  0
 18  1  1  0
  1  2  1  0
  2  3  2  0
  3  4  1  0
  4  5  1  0
  5  6  2  0
  6  7  1  0
  6  8  1  0
  8  9  2  0
  9 10  1  0
  9 11  1  0
 11 12  2  0
 18 19  1  0
 19 20  1  0
 20 21  1  0
 20 16  1  0
 12  2  1  0
 12  5  1  0
  4 13  1  0
  7 14  1  0
  7 15  1  0
 21 22  1  0
M  END
> <minimizedAffinity>
-4.50736

> <CNNscore>
0.1986845732

> <CNNaffinity>
4.9667344093

> <CNN_VS>
0.9868134856

> <CNNaffinity_variance>
0.2316067964

$$$$



 28 30  0  0  0  0  0  0  0  0999 V2000
  -36.6865    4.2741    0.1376 C   0  0  0  0  0  0  0  0  0  0  0  0
  -38.1075    4.5015    0.5428 C   0  0  0  0  0  0  0  0  0  0  0  0
  -38.6013    4.6563    1.8295 C   0  0  0  0  0  0  0  0  0  0  0  0
  -39.9568    4.8450    1.7525 N   0  0  0  0  0  0  0  0  0  0  0  0
  -40.3580    4.8231    0.4411 C   0  0  0  0  0  0  0  0  0  0  0  0
  -41.5946    4.9674   -0.1596 C   0  0  0  0  0  0  0  0  0  0  0  0
  -42.7787    5.1236    0.5425 N   0  0  0  0  0  0  0  0  0  0  0  0
  -41.6473    4.9397   -1.4973 N   0  0  0  0  0  0  0  0  0  0  0  0
  -40.4978    4.7656   -2.1827 C   0  0  0  0  0  0  0  0  0  0  0  0
  -40.6469    4.7393   -4.0820 Br  0  0  0  0  0  0  0  0  0  0  0  0
  -39.2646    4.6053   -1.6809 N   0  0  0  0  0  0  0  0  0  0  0  0
  -39.2236    4.6359   -0.3331 C   0  0  0  0  0  0  0  0  0  0  0  0
  -40.5539    4.9767    2.5241 H   0  0  0  0  0  0  0  0  0  0  0  0
  -42.7681    5.1472    1.5266 H   0  0  0  0  0  0  0  0  0  0  0  0
  -43.6309    5.2109    0.0572 H   0  0  0  0  0  0  0  0  0  0  0  0
  -34.1369    2.5497    2.1564 C   0  0  0  0  0  0  0  0  0  0  0  0
  -35.0435    2.6759    0.9297 C   0  0  0  0  0  0  0  0  0  0  0  0
  -35.9094    3.7992    1.2846 N   0  0  0  0  0  0  0  0  0  0  0  0
  -35.0052    4.8125    1.8501 C   0  0  0  0  0  0  0  0  0  0  0  0
  -33.8497    4.0200    2.4881 C   0  0  0  0  0  0  0  0  0  0  0  0
  -32.6147    4.4044    1.8750 O   0  0  0  0  0  0  0  0  0  0  0  0
  -32.6673    4.2521    0.9185 H   0  0  0  0  0  0  0  0  0  0  0  0
  -34.8651    1.8236    3.2984 C   0  0  0  0  0  0  0  0  0  0  0  0
  -33.8936    0.4221    3.9675 S   0  0  0  0  0  0  0  0  0  0  0  0
  -34.7526    0.1360    5.5523 C   0  0  0  0  0  0  0  0  0  0  0  0
  -35.2106   -1.3115    5.7095 C   0  0  0  0  0  0  0  0  0  0  0  0
  -36.8345   -2.7961    6.9486 C   0  0  0  0  0  0  0  0  0  0  0  0
  -36.0755   -1.4761    6.9621 C   0  0  0  0  0  0  0  0  0  0  0  0
 27 28  1  0
 28 26  1  0
 26 25  1  0
 25 24  1  0
 24 23  1  0
 16 23  1  0
 16 17  1  0
 17 18  1  0
 18  1  1  0
  1  2  1  0
  2  3  2  0
  3  4  1  0
  4  5  1  0
  5  6  2  0
  6  7  1  0
  6  8  1  0
  8  9  2  0
  9 10  1  0
  9 11  1  0
 11 12  2  0
 18 19  1  0
 19 20  1  0
 20 21  1  0
 20 16  1  0
 12  2  1  0
 12  5  1  0
  4 13  1  0
  7 14  1  0
  7 15  1  0
 21 22  1  0
M  END
> <minimizedAffinity>
-6.03093

> <CNNscore>
0.1895988286

> <CNNaffinity>
5.4158515930

> <CNN_VS>
1.0268391371

> <CNNaffinity_variance>
0.3696430624

$$$$
