


 27 30  0  0  0  0  0  0  0  0999 V2000
   -6.0600    7.2088   24.8917 C   0  0  0  0  0  0  0  0  0  0  0  0
   -6.0635    8.3409   25.7194 C   0  0  0  0  0  0  0  0  0  0  0  0
   -6.8028    8.3454   26.8954 C   0  0  0  0  0  0  0  0  0  0  0  0
   -6.7749    9.4768   27.6557 O   0  0  0  0  0  0  0  0  0  0  0  0
   -7.5413    7.2314   27.2795 C   0  0  0  0  0  0  0  0  0  0  0  0
   -7.5423    6.0798   26.4761 C   0  0  0  0  0  0  0  0  0  0  0  0
   -6.8171    6.0892   25.2737 C   0  0  0  0  0  0  0  0  0  0  0  0
   -6.7808    4.9967   24.4458 O   0  0  0  0  0  0  0  0  0  0  0  0
   -7.9849    4.2237   24.4869 C   0  0  0  0  0  0  0  0  0  0  0  0
   -8.2500    3.7026   25.9008 C   0  0  0  0  0  0  0  0  0  0  0  0
   -7.1734    2.7758   26.4757 C   0  0  0  0  0  0  0  0  0  0  0  0
   -7.4704    2.8093   27.9636 C   0  0  0  0  0  0  0  0  0  0  0  0
   -7.7900    4.2731   28.2412 C   0  0  0  0  0  0  0  0  0  0  0  0
   -8.3193    4.8592   26.9149 C   0  0  0  0  0  0  0  0  0  0  0  0
   -6.2705   10.2158   27.3776 H   0  0  0  0  0  0  0  0  0  0  0  0
   -7.9155    3.0938   23.4699 C   0  0  0  0  0  0  0  0  0  0  0  0
   -8.9854    2.1863   23.3603 C   0  0  0  0  0  0  0  0  0  0  0  0
   -8.9410    1.1270   22.4473 C   0  0  0  0  0  0  0  0  0  0  0  0
   -7.8206    0.9648   21.6377 C   0  0  0  0  0  0  0  0  0  0  0  0
   -7.7489   -0.0625   20.7404 O   0  0  0  0  0  0  0  0  0  0  0  0
   -6.7543    1.8540   21.7385 C   0  0  0  0  0  0  0  0  0  0  0  0
   -5.6684    1.7021   20.9660 F   0  0  0  0  0  0  0  0  0  0  0  0
   -6.7952    2.9108   22.6440 C   0  0  0  0  0  0  0  0  0  0  0  0
   -8.4602   -0.6676   20.6632 H   0  0  0  0  0  0  0  0  0  0  0  0
   -5.2801    7.2291   23.5997 C   0  0  0  0  0  0  0  0  0  0  0  0
   -6.3434    7.8539   21.5663 C   0  0  0  0  0  0  0  0  0  0  0  0
   -5.6849    8.2984   22.7431 O   0  0  0  0  0  0  0  0  0  0  0  0
 26 27  1  0
 27 25  1  0
 25  1  1  0
  1  2  2  0
  2  3  1  0
  3  4  1  0
  3  5  2  0
  5  6  1  0
  6  7  2  0
  7  8  1  0
  8  9  1  0
  9 16  1  0
 16 17  2  0
 17 18  1  0
 18 19  2  0
 19 20  1  0
 19 21  1  0
 21 22  1  0
 21 23  2  0
  9 10  1  0
 10 11  1  0
 11 12  1  0
 12 13  1  0
 14 13  1  0
  7  1  1  0
 23 16  1  0
 14 10  1  0
 14  6  1  0
  4 15  1  0
 20 24  1  0
M  END
> <minimizedAffinity>
-10.31686

> <CNNscore>
0.9579710960

> <CNNaffinity>
8.0479698181

> <CNN_VS>
7.7097225189

> <CNNaffinity_variance>
0.4615617990

$$$$



 27 30  0  0  0  0  0  0  0  0999 V2000
   -8.0809    6.3735   26.5890 C   0  0  0  0  0  0  0  0  0  0  0  0
   -7.7542    7.4842   27.3805 C   0  0  0  0  0  0  0  0  0  0  0  0
   -6.6978    8.3120   27.0224 C   0  0  0  0  0  0  0  0  0  0  0  0
   -6.4213    9.3718   27.8343 O   0  0  0  0  0  0  0  0  0  0  0  0
   -5.9538    8.0648   25.8738 C   0  0  0  0  0  0  0  0  0  0  0  0
   -6.2701    6.9680   25.0561 C   0  0  0  0  0  0  0  0  0  0  0  0
   -7.3201    6.1169   25.4366 C   0  0  0  0  0  0  0  0  0  0  0  0
   -7.6754    5.0290   24.6812 O   0  0  0  0  0  0  0  0  0  0  0  0
   -6.5685    4.4453   23.9862 C   0  0  0  0  0  0  0  0  0  0  0  0
   -5.9269    5.4576   23.0352 C   0  0  0  0  0  0  0  0  0  0  0  0
   -6.8407    5.9952   21.9286 C   0  0  0  0  0  0  0  0  0  0  0  0
   -6.1098    7.2461   21.4767 C   0  0  0  0  0  0  0  0  0  0  0  0
   -5.6252    7.8776   22.7761 C   0  0  0  0  0  0  0  0  0  0  0  0
   -5.4802    6.7230   23.7903 C   0  0  0  0  0  0  0  0  0  0  0  0
   -6.9357    9.5194   28.6035 H   0  0  0  0  0  0  0  0  0  0  0  0
   -7.0143    3.1860   23.2573 C   0  0  0  0  0  0  0  0  0  0  0  0
   -8.1415    2.4775   23.7130 C   0  0  0  0  0  0  0  0  0  0  0  0
   -8.5632    1.3064   23.0738 C   0  0  0  0  0  0  0  0  0  0  0  0
   -7.8557    0.8319   21.9733 C   0  0  0  0  0  0  0  0  0  0  0  0
   -8.2428   -0.3106   21.3326 O   0  0  0  0  0  0  0  0  0  0  0  0
   -6.7371    1.5220   21.5145 C   0  0  0  0  0  0  0  0  0  0  0  0
   -6.0463    1.0690   20.4579 F   0  0  0  0  0  0  0  0  0  0  0  0
   -6.3153    2.6889   22.1460 C   0  0  0  0  0  0  0  0  0  0  0  0
   -8.9940   -0.7840   21.6319 H   0  0  0  0  0  0  0  0  0  0  0  0
   -9.2090    5.4625   27.0075 C   0  0  0  0  0  0  0  0  0  0  0  0
   -8.0717    3.9699   28.4686 C   0  0  0  0  0  0  0  0  0  0  0  0
   -8.7637    4.1249   27.2384 O   0  0  0  0  0  0  0  0  0  0  0  0
 26 27  1  0
 27 25  1  0
 25  1  1  0
  1  2  2  0
  2  3  1  0
  3  4  1  0
  3  5  2  0
  5  6  1  0
  6  7  2  0
  7  8  1  0
  8  9  1  0
  9 16  1  0
 16 17  2  0
 17 18  1  0
 18 19  2  0
 19 20  1  0
 19 21  1  0
 21 22  1  0
 21 23  2  0
  9 10  1  0
 10 11  1  0
 11 12  1  0
 12 13  1  0
 14 13  1  0
  7  1  1  0
 23 16  1  0
 14 10  1  0
 14  6  1  0
  4 15  1  0
 20 24  1  0
M  END
> <minimizedAffinity>
-9.56786

> <CNNscore>
0.9105896950

> <CNNaffinity>
7.9231071472

> <CNN_VS>
7.2146997452

> <CNNaffinity_variance>
0.4266626835

$$$$



 27 30  0  0  0  0  0  0  0  0999 V2000
   -8.1112    6.3128   26.4385 C   0  0  0  0  0  0  0  0  0  0  0  0
   -7.8592    7.4087   27.2765 C   0  0  0  0  0  0  0  0  0  0  0  0
   -6.8559    8.3156   26.9595 C   0  0  0  0  0  0  0  0  0  0  0  0
   -6.6508    9.3568   27.8155 O   0  0  0  0  0  0  0  0  0  0  0  0
   -6.0927    8.1630   25.8071 C   0  0  0  0  0  0  0  0  0  0  0  0
   -6.3352    7.0826   24.9435 C   0  0  0  0  0  0  0  0  0  0  0  0
   -7.3307    6.1520   25.2820 C   0  0  0  0  0  0  0  0  0  0  0  0
   -7.6129    5.0755   24.4809 O   0  0  0  0  0  0  0  0  0  0  0  0
   -6.4681    4.5917   23.7706 C   0  0  0  0  0  0  0  0  0  0  0  0
   -5.8879    5.6805   22.8658 C   0  0  0  0  0  0  0  0  0  0  0  0
   -6.8292    6.2039   21.7754 C   0  0  0  0  0  0  0  0  0  0  0  0
   -6.1771    7.5159   21.3795 C   0  0  0  0  0  0  0  0  0  0  0  0
   -5.7393    8.1233   22.7067 C   0  0  0  0  0  0  0  0  0  0  0  0
   -5.5258    6.9398   23.6744 C   0  0  0  0  0  0  0  0  0  0  0  0
   -7.1769    9.4401   28.5863 H   0  0  0  0  0  0  0  0  0  0  0  0
   -6.8300    3.3376   22.9883 C   0  0  0  0  0  0  0  0  0  0  0  0
   -5.8865    2.7610   22.1179 C   0  0  0  0  0  0  0  0  0  0  0  0
   -6.1980    1.6189   21.3720 C   0  0  0  0  0  0  0  0  0  0  0  0
   -7.4610    1.0460   21.4886 C   0  0  0  0  0  0  0  0  0  0  0  0
   -7.7933   -0.0668   20.7697 O   0  0  0  0  0  0  0  0  0  0  0  0
   -8.4043    1.6086   22.3440 C   0  0  0  0  0  0  0  0  0  0  0  0
   -9.6256    1.0662   22.4585 F   0  0  0  0  0  0  0  0  0  0  0  0
   -8.0979    2.7436   23.0897 C   0  0  0  0  0  0  0  0  0  0  0  0
   -7.1671   -0.4547   20.1906 H   0  0  0  0  0  0  0  0  0  0  0  0
   -9.1811    5.3160   26.8121 C   0  0  0  0  0  0  0  0  0  0  0  0
   -8.1224    3.9788   28.4695 C   0  0  0  0  0  0  0  0  0  0  0  0
   -8.6344    4.0392   27.1465 O   0  0  0  0  0  0  0  0  0  0  0  0
 26 27  1  0
 27 25  1  0
 25  1  1  0
  1  2  2  0
  2  3  1  0
  3  4  1  0
  3  5  2  0
  5  6  1  0
  6  7  2  0
  7  8  1  0
  8  9  1  0
  9 16  1  0
 16 17  2  0
 17 18  1  0
 18 19  2  0
 19 20  1  0
 19 21  1  0
 21 22  1  0
 21 23  2  0
  9 10  1  0
 10 11  1  0
 11 12  1  0
 12 13  1  0
 14 13  1  0
  7  1  1  0
 23 16  1  0
 14 10  1  0
 14  6  1  0
  4 15  1  0
 20 24  1  0
M  END
> <minimizedAffinity>
-10.18201

> <CNNscore>
0.8849883676

> <CNNaffinity>
7.8524947166

> <CNN_VS>
6.9493665695

> <CNNaffinity_variance>
0.3464262187

$$$$



 27 30  0  0  0  0  0  0  0  0999 V2000
   -6.2570    4.2067   26.8920 C   0  0  0  0  0  0  0  0  0  0  0  0
   -5.3702    4.9486   27.6858 C   0  0  0  0  0  0  0  0  0  0  0  0
   -4.4878    5.8458   27.0977 C   0  0  0  0  0  0  0  0  0  0  0  0
   -3.6436    6.5329   27.9186 O   0  0  0  0  0  0  0  0  0  0  0  0
   -4.4725    6.0339   25.7199 C   0  0  0  0  0  0  0  0  0  0  0  0
   -5.3607    5.3146   24.9041 C   0  0  0  0  0  0  0  0  0  0  0  0
   -6.2312    4.3875   25.4994 C   0  0  0  0  0  0  0  0  0  0  0  0
   -7.1199    3.6537   24.7563 O   0  0  0  0  0  0  0  0  0  0  0  0
   -6.6401    3.3610   23.4397 C   0  0  0  0  0  0  0  0  0  0  0  0
   -6.3649    4.6489   22.6611 C   0  0  0  0  0  0  0  0  0  0  0  0
   -7.5782    5.5585   22.4392 C   0  0  0  0  0  0  0  0  0  0  0  0
   -6.9340    6.8850   22.0805 C   0  0  0  0  0  0  0  0  0  0  0  0
   -5.7580    6.9942   23.0433 C   0  0  0  0  0  0  0  0  0  0  0  0
   -5.3638    5.5476   23.4102 C   0  0  0  0  0  0  0  0  0  0  0  0
   -3.6711    6.3904   28.8443 H   0  0  0  0  0  0  0  0  0  0  0  0
   -7.6264    2.4585   22.7127 C   0  0  0  0  0  0  0  0  0  0  0  0
   -8.9730    2.4247   23.1199 C   0  0  0  0  0  0  0  0  0  0  0  0
   -9.8978    1.5907   22.4821 C   0  0  0  0  0  0  0  0  0  0  0  0
   -9.4800    0.7788   21.4318 C   0  0  0  0  0  0  0  0  0  0  0  0
  -10.3606   -0.0478   20.7937 O   0  0  0  0  0  0  0  0  0  0  0  0
   -8.1500    0.8008   21.0213 C   0  0  0  0  0  0  0  0  0  0  0  0
   -7.7376    0.0178   20.0135 F   0  0  0  0  0  0  0  0  0  0  0  0
   -7.2269    1.6308   21.6516 C   0  0  0  0  0  0  0  0  0  0  0  0
  -11.2584   -0.0716   21.0607 H   0  0  0  0  0  0  0  0  0  0  0  0
   -7.1868    3.2103   27.5402 C   0  0  0  0  0  0  0  0  0  0  0  0
   -8.5721    3.1540   29.4725 C   0  0  0  0  0  0  0  0  0  0  0  0
   -8.2269    3.8485   28.2831 O   0  0  0  0  0  0  0  0  0  0  0  0
 26 27  1  0
 27 25  1  0
 25  1  1  0
  1  2  2  0
  2  3  1  0
  3  4  1  0
  3  5  2  0
  5  6  1  0
  6  7  2  0
  7  8  1  0
  8  9  1  0
  9 16  1  0
 16 17  2  0
 17 18  1  0
 18 19  2  0
 19 20  1  0
 19 21  1  0
 21 22  1  0
 21 23  2  0
  9 10  1  0
 10 11  1  0
 11 12  1  0
 12 13  1  0
 14 13  1  0
  7  1  1  0
 23 16  1  0
 14 10  1  0
 14  6  1  0
  4 15  1  0
 20 24  1  0
M  END
> <minimizedAffinity>
-7.65313

> <CNNscore>
0.8279548287

> <CNNaffinity>
7.8035302162

> <CNN_VS>
6.4609704018

> <CNNaffinity_variance>
0.4349338114

$$$$



 27 30  0  0  0  0  0  0  0  0999 V2000
   -5.1588    6.7328   24.5089 C   0  0  0  0  0  0  0  0  0  0  0  0
   -5.0038    7.8901   25.2858 C   0  0  0  0  0  0  0  0  0  0  0  0
   -5.7240    8.0436   26.4636 C   0  0  0  0  0  0  0  0  0  0  0  0
   -5.5386    9.1930   27.1731 O   0  0  0  0  0  0  0  0  0  0  0  0
   -6.5997    7.0553   26.8998 C   0  0  0  0  0  0  0  0  0  0  0  0
   -6.7616    5.8804   26.1481 C   0  0  0  0  0  0  0  0  0  0  0  0
   -6.0537    5.7413   24.9433 C   0  0  0  0  0  0  0  0  0  0  0  0
   -6.1710    4.6190   24.1644 O   0  0  0  0  0  0  0  0  0  0  0  0
   -7.4665    4.0153   24.2448 C   0  0  0  0  0  0  0  0  0  0  0  0
   -7.7840    3.5957   25.6814 C   0  0  0  0  0  0  0  0  0  0  0  0
   -6.8340    2.5598   26.2921 C   0  0  0  0  0  0  0  0  0  0  0  0
   -7.1088    2.6967   27.7783 C   0  0  0  0  0  0  0  0  0  0  0  0
   -7.2287    4.2006   27.9924 C   0  0  0  0  0  0  0  0  0  0  0  0
   -7.6890    4.7940   26.6438 C   0  0  0  0  0  0  0  0  0  0  0  0
   -4.9435    9.8457   26.8604 H   0  0  0  0  0  0  0  0  0  0  0  0
   -7.5579    2.8433   23.2784 C   0  0  0  0  0  0  0  0  0  0  0  0
   -6.3846    2.3145   22.7092 C   0  0  0  0  0  0  0  0  0  0  0  0
   -6.4400    1.2496   21.8034 C   0  0  0  0  0  0  0  0  0  0  0  0
   -7.6737    0.7070   21.4560 C   0  0  0  0  0  0  0  0  0  0  0  0
   -7.7574   -0.3304   20.5715 O   0  0  0  0  0  0  0  0  0  0  0  0
   -8.8419    1.2231   22.0098 C   0  0  0  0  0  0  0  0  0  0  0  0
  -10.0354    0.7099   21.6767 F   0  0  0  0  0  0  0  0  0  0  0  0
   -8.7913    2.2812   22.9133 C   0  0  0  0  0  0  0  0  0  0  0  0
   -6.9782   -0.6865   20.1920 H   0  0  0  0  0  0  0  0  0  0  0  0
   -4.3963    6.5934   23.2140 C   0  0  0  0  0  0  0  0  0  0  0  0
   -5.6085    7.9114   21.6490 C   0  0  0  0  0  0  0  0  0  0  0  0
   -5.2605    6.6029   22.0764 O   0  0  0  0  0  0  0  0  0  0  0  0
 26 27  1  0
 27 25  1  0
 25  1  1  0
  1  2  2  0
  2  3  1  0
  3  4  1  0
  3  5  2  0
  5  6  1  0
  6  7  2  0
  7  8  1  0
  8  9  1  0
  9 16  1  0
 16 17  2  0
 17 18  1  0
 18 19  2  0
 19 20  1  0
 19 21  1  0
 21 22  1  0
 21 23  2  0
  9 10  1  0
 10 11  1  0
 11 12  1  0
 12 13  1  0
 14 13  1  0
  7  1  1  0
 23 16  1  0
 14 10  1  0
 14  6  1  0
  4 15  1  0
 20 24  1  0
M  END
> <minimizedAffinity>
-9.11918

> <CNNscore>
0.7561655641

> <CNNaffinity>
7.4510140419

> <CNN_VS>
5.6342000961

> <CNNaffinity_variance>
0.1831804365

$$$$



 27 30  0  0  0  0  0  0  0  0999 V2000
   -4.4391   -1.0741   34.2458 C   0  0  0  0  0  0  0  0  0  0  0  0
   -3.1894   -0.4410   34.3103 C   0  0  0  0  0  0  0  0  0  0  0  0
   -2.0222   -1.1811   34.1710 C   0  0  0  0  0  0  0  0  0  0  0  0
   -0.8363   -0.5131   34.2509 O   0  0  0  0  0  0  0  0  0  0  0  0
   -2.0681   -2.5541   33.9555 C   0  0  0  0  0  0  0  0  0  0  0  0
   -3.3070   -3.2096   33.8716 C   0  0  0  0  0  0  0  0  0  0  0  0
   -4.4840   -2.4629   34.0417 C   0  0  0  0  0  0  0  0  0  0  0  0
   -5.7232   -3.0459   33.9729 O   0  0  0  0  0  0  0  0  0  0  0  0
   -5.7287   -4.4033   34.4273 C   0  0  0  0  0  0  0  0  0  0  0  0
   -4.7842   -5.2637   33.5854 C   0  0  0  0  0  0  0  0  0  0  0  0
   -5.1244   -5.3518   32.0937 C   0  0  0  0  0  0  0  0  0  0  0  0
   -3.8246   -5.8492   31.4884 C   0  0  0  0  0  0  0  0  0  0  0  0
   -2.7501   -5.0635   32.2301 C   0  0  0  0  0  0  0  0  0  0  0  0
   -3.3526   -4.6970   33.6031 C   0  0  0  0  0  0  0  0  0  0  0  0
   -0.8289    0.4124   34.3967 H   0  0  0  0  0  0  0  0  0  0  0  0
   -7.1489   -4.9501   34.4234 C   0  0  0  0  0  0  0  0  0  0  0  0
   -8.1756   -4.2223   33.7938 C   0  0  0  0  0  0  0  0  0  0  0  0
   -9.4937   -4.6915   33.7908 C   0  0  0  0  0  0  0  0  0  0  0  0
   -9.7961   -5.8938   34.4233 C   0  0  0  0  0  0  0  0  0  0  0  0
  -11.0748   -6.3735   34.4389 O   0  0  0  0  0  0  0  0  0  0  0  0
   -8.7899   -6.6218   35.0522 C   0  0  0  0  0  0  0  0  0  0  0  0
   -9.0733   -7.7787   35.6687 F   0  0  0  0  0  0  0  0  0  0  0  0
   -7.4766   -6.1598   35.0557 C   0  0  0  0  0  0  0  0  0  0  0  0
  -11.7608   -5.8927   34.0191 H   0  0  0  0  0  0  0  0  0  0  0  0
   -5.6986   -0.2640   34.4328 C   0  0  0  0  0  0  0  0  0  0  0  0
   -6.1257    1.5414   32.9449 C   0  0  0  0  0  0  0  0  0  0  0  0
   -6.2632    0.1491   33.1872 O   0  0  0  0  0  0  0  0  0  0  0  0
 26 27  1  0
 27 25  1  0
 25  1  1  0
  1  2  2  0
  2  3  1  0
  3  4  1  0
  3  5  2  0
  5  6  1  0
  6  7  2  0
  7  8  1  0
  8  9  1  0
  9 16  1  0
 16 17  2  0
 17 18  1  0
 18 19  2  0
 19 20  1  0
 19 21  1  0
 21 22  1  0
 21 23  2  0
  9 10  1  0
 10 11  1  0
 11 12  1  0
 12 13  1  0
 14 13  1  0
  7  1  1  0
 23 16  1  0
 14 10  1  0
 14  6  1  0
  4 15  1  0
 20 24  1  0
M  END
> <minimizedAffinity>
-5.75138

> <CNNscore>
0.5682751536

> <CNNaffinity>
5.0419268608

> <CNN_VS>
2.8652017117

> <CNNaffinity_variance>
0.0907833576

$$$$



 27 30  0  0  0  0  0  0  0  0999 V2000
   -6.5477    2.7411   21.8379 C   0  0  0  0  0  0  0  0  0  0  0  0
   -7.0232    1.4492   21.5699 C   0  0  0  0  0  0  0  0  0  0  0  0
   -7.6475    0.7124   22.5684 C   0  0  0  0  0  0  0  0  0  0  0  0
   -8.0818   -0.5406   22.2522 O   0  0  0  0  0  0  0  0  0  0  0  0
   -7.8224    1.2405   23.8429 C   0  0  0  0  0  0  0  0  0  0  0  0
   -7.3689    2.5375   24.1327 C   0  0  0  0  0  0  0  0  0  0  0  0
   -6.7127    3.2682   23.1292 C   0  0  0  0  0  0  0  0  0  0  0  0
   -6.2455    4.5381   23.3514 O   0  0  0  0  0  0  0  0  0  0  0  0
   -5.8320    4.7530   24.7049 C   0  0  0  0  0  0  0  0  0  0  0  0
   -6.9963    4.5309   25.6723 C   0  0  0  0  0  0  0  0  0  0  0  0
   -8.1998    5.4604   25.4815 C   0  0  0  0  0  0  0  0  0  0  0  0
   -9.3021    4.7285   26.2248 C   0  0  0  0  0  0  0  0  0  0  0  0
   -9.0906    3.2670   25.8489 C   0  0  0  0  0  0  0  0  0  0  0  0
   -7.5918    3.1203   25.5100 C   0  0  0  0  0  0  0  0  0  0  0  0
   -7.9534   -0.8765   21.3870 H   0  0  0  0  0  0  0  0  0  0  0  0
   -5.2288    6.1423   24.8528 C   0  0  0  0  0  0  0  0  0  0  0  0
   -4.4193    6.6649   23.8273 C   0  0  0  0  0  0  0  0  0  0  0  0
   -3.8364    7.9315   23.9442 C   0  0  0  0  0  0  0  0  0  0  0  0
   -4.0564    8.6851   25.0934 C   0  0  0  0  0  0  0  0  0  0  0  0
   -3.4969    9.9230   25.2358 O   0  0  0  0  0  0  0  0  0  0  0  0
   -4.8529    8.1782   26.1164 C   0  0  0  0  0  0  0  0  0  0  0  0
   -5.0659    8.8954   27.2296 F   0  0  0  0  0  0  0  0  0  0  0  0
   -5.4367    6.9194   26.0033 C   0  0  0  0  0  0  0  0  0  0  0  0
   -2.9589   10.2751   24.5542 H   0  0  0  0  0  0  0  0  0  0  0  0
   -5.8409    3.5178   20.7540 C   0  0  0  0  0  0  0  0  0  0  0  0
   -6.0508    5.8858   20.8183 C   0  0  0  0  0  0  0  0  0  0  0  0
   -5.3063    4.7515   21.2368 O   0  0  0  0  0  0  0  0  0  0  0  0
 26 27  1  0
 27 25  1  0
 25  1  1  0
  1  2  2  0
  2  3  1  0
  3  4  1  0
  3  5  2  0
  5  6  1  0
  6  7  2  0
  7  8  1  0
  8  9  1  0
  9 16  1  0
 16 17  2  0
 17 18  1  0
 18 19  2  0
 19 20  1  0
 19 21  1  0
 21 22  1  0
 21 23  2  0
  9 10  1  0
 10 11  1  0
 11 12  1  0
 12 13  1  0
 14 13  1  0
  7  1  1  0
 23 16  1  0
 14 10  1  0
 14  6  1  0
  4 15  1  0
 20 24  1  0
M  END
> <minimizedAffinity>
-5.85271

> <CNNscore>
0.4769406915

> <CNNaffinity>
6.9076066017

> <CNN_VS>
3.2945187092

> <CNNaffinity_variance>
0.1342989504

$$$$



 27 30  0  0  0  0  0  0  0  0999 V2000
   -7.5452    2.0609   24.8355 C   0  0  0  0  0  0  0  0  0  0  0  0
   -7.8096    0.9600   24.0078 C   0  0  0  0  0  0  0  0  0  0  0  0
   -7.8593    1.1177   22.6286 C   0  0  0  0  0  0  0  0  0  0  0  0
   -8.1286    0.0138   21.8751 O   0  0  0  0  0  0  0  0  0  0  0  0
   -7.6389    2.3595   22.0429 C   0  0  0  0  0  0  0  0  0  0  0  0
   -7.3572    3.4746   22.8485 C   0  0  0  0  0  0  0  0  0  0  0  0
   -7.3363    3.3174   24.2437 C   0  0  0  0  0  0  0  0  0  0  0  0
   -7.0694    4.3682   25.0831 O   0  0  0  0  0  0  0  0  0  0  0  0
   -7.5168    5.6254   24.5650 C   0  0  0  0  0  0  0  0  0  0  0  0
   -6.8373    5.9377   23.2302 C   0  0  0  0  0  0  0  0  0  0  0  0
   -5.3103    6.0587   23.2790 C   0  0  0  0  0  0  0  0  0  0  0  0
   -4.9214    5.9083   21.8197 C   0  0  0  0  0  0  0  0  0  0  0  0
   -5.8261    4.7922   21.3119 C   0  0  0  0  0  0  0  0  0  0  0  0
   -7.0847    4.8156   22.2053 C   0  0  0  0  0  0  0  0  0  0  0  0
   -8.2738   -0.8132   22.2909 H   0  0  0  0  0  0  0  0  0  0  0  0
   -7.2849    6.7256   25.5905 C   0  0  0  0  0  0  0  0  0  0  0  0
   -8.3562    7.1793   26.3821 C   0  0  0  0  0  0  0  0  0  0  0  0
   -8.1765    8.2023   27.3197 C   0  0  0  0  0  0  0  0  0  0  0  0
   -6.9209    8.7836   27.4695 C   0  0  0  0  0  0  0  0  0  0  0  0
   -6.7179    9.7864   28.3743 O   0  0  0  0  0  0  0  0  0  0  0  0
   -5.8536    8.3458   26.6902 C   0  0  0  0  0  0  0  0  0  0  0  0
   -4.6415    8.9039   26.8243 F   0  0  0  0  0  0  0  0  0  0  0  0
   -6.0274    7.3266   25.7578 C   0  0  0  0  0  0  0  0  0  0  0  0
   -7.4283   10.0898   28.9046 H   0  0  0  0  0  0  0  0  0  0  0  0
   -7.5278    1.8830   26.3341 C   0  0  0  0  0  0  0  0  0  0  0  0
   -7.3988    3.3735   28.1827 C   0  0  0  0  0  0  0  0  0  0  0  0
   -6.7832    2.9109   26.9898 O   0  0  0  0  0  0  0  0  0  0  0  0
 26 27  1  0
 27 25  1  0
 25  1  1  0
  1  2  2  0
  2  3  1  0
  3  4  1  0
  3  5  2  0
  5  6  1  0
  6  7  2  0
  7  8  1  0
  8  9  1  0
  9 16  1  0
 16 17  2  0
 17 18  1  0
 18 19  2  0
 19 20  1  0
 19 21  1  0
 21 22  1  0
 21 23  2  0
  9 10  1  0
 10 11  1  0
 11 12  1  0
 12 13  1  0
 14 13  1  0
  7  1  1  0
 23 16  1  0
 14 10  1  0
 14  6  1  0
  4 15  1  0
 20 24  1  0
M  END
> <minimizedAffinity>
-6.33596

> <CNNscore>
0.4120853245

> <CNNaffinity>
6.5869736671

> <CNN_VS>
2.7143952847

> <CNNaffinity_variance>
0.1474611014

$$$$



 27 30  0  0  0  0  0  0  0  0999 V2000
   -4.1877    1.6533   34.0092 C   0  0  0  0  0  0  0  0  0  0  0  0
   -5.5296    1.9597   33.7405 C   0  0  0  0  0  0  0  0  0  0  0  0
   -5.9678    3.2773   33.7797 C   0  0  0  0  0  0  0  0  0  0  0  0
   -7.2847    3.5139   33.5181 O   0  0  0  0  0  0  0  0  0  0  0  0
   -5.0890    4.3142   34.0736 C   0  0  0  0  0  0  0  0  0  0  0  0
   -3.7371    4.0356   34.3315 C   0  0  0  0  0  0  0  0  0  0  0  0
   -3.3040    2.7000   34.3193 C   0  0  0  0  0  0  0  0  0  0  0  0
   -1.9974    2.3641   34.5652 O   0  0  0  0  0  0  0  0  0  0  0  0
   -1.3507    3.2618   35.4735 C   0  0  0  0  0  0  0  0  0  0  0  0
   -1.3475    4.6883   34.9204 C   0  0  0  0  0  0  0  0  0  0  0  0
   -0.6077    4.8797   33.5920 C   0  0  0  0  0  0  0  0  0  0  0  0
   -1.1527    6.2079   33.1000 C   0  0  0  0  0  0  0  0  0  0  0  0
   -2.6405    6.1357   33.4211 C   0  0  0  0  0  0  0  0  0  0  0  0
   -2.7784    5.1695   34.6170 C   0  0  0  0  0  0  0  0  0  0  0  0
   -7.8592    2.8000   33.3223 H   0  0  0  0  0  0  0  0  0  0  0  0
    0.0560    2.7699   35.7818 C   0  0  0  0  0  0  0  0  0  0  0  0
    0.7610    3.3099   36.8733 C   0  0  0  0  0  0  0  0  0  0  0  0
    2.0626    2.8902   37.1690 C   0  0  0  0  0  0  0  0  0  0  0  0
    2.6718    1.9274   36.3699 C   0  0  0  0  0  0  0  0  0  0  0  0
    3.9428    1.5020   36.6333 O   0  0  0  0  0  0  0  0  0  0  0  0
    1.9861    1.3875   35.2853 C   0  0  0  0  0  0  0  0  0  0  0  0
    2.5675    0.4630   34.5067 F   0  0  0  0  0  0  0  0  0  0  0  0
    0.6901    1.8005   34.9888 C   0  0  0  0  0  0  0  0  0  0  0  0
    4.4147    1.8578   37.3604 H   0  0  0  0  0  0  0  0  0  0  0  0
   -3.7319    0.2147   33.9969 C   0  0  0  0  0  0  0  0  0  0  0  0
   -4.5757   -1.6358   32.7643 C   0  0  0  0  0  0  0  0  0  0  0  0
   -4.8174   -0.6925   33.7976 O   0  0  0  0  0  0  0  0  0  0  0  0
 26 27  1  0
 27 25  1  0
 25  1  1  0
  1  2  2  0
  2  3  1  0
  3  4  1  0
  3  5  2  0
  5  6  1  0
  6  7  2  0
  7  8  1  0
  8  9  1  0
  9 16  1  0
 16 17  2  0
 17 18  1  0
 18 19  2  0
 19 20  1  0
 19 21  1  0
 21 22  1  0
 21 23  2  0
  9 10  1  0
 10 11  1  0
 11 12  1  0
 12 13  1  0
 14 13  1  0
  7  1  1  0
 23 16  1  0
 14 10  1  0
 14  6  1  0
  4 15  1  0
 20 24  1  0
M  END
> <minimizedAffinity>
-4.80478

> <CNNscore>
0.3724885285

> <CNNaffinity>
4.8278751373

> <CNN_VS>
1.7983281612

> <CNNaffinity_variance>
0.1259088516

$$$$
