


 50 53  0  0  0  0  0  0  0  0999 V2000
   -7.3829   25.2191   -3.8626 C   0  0  0  0  0  0  0  0  0  0  0  0
   -7.7017   27.5711   -4.4773 N   0  0  0  0  0  0  0  0  0  0  0  0
   -7.3692   26.3126   -4.9317 C   0  0  0  0  0  0  0  0  0  0  0  0
   -7.1297   26.0902   -6.1186 O   0  0  0  0  0  0  0  0  0  0  0  0
   -8.1196   27.6865   -3.5934 H   0  0  0  0  0  0  0  0  0  0  0  0
   -7.4272   28.7313   -5.3213 C   0  0  0  0  0  0  0  0  0  0  0  0
   -7.6739   28.4073   -6.7849 C   0  0  0  0  0  0  0  0  0  0  0  0
   -8.0600   31.1035   -5.2154 N   0  0  0  0  0  0  0  0  0  0  0  0
   -8.3998   29.8239   -4.8460 C   0  0  0  0  0  0  0  0  0  0  0  0
   -9.3748   29.5675   -4.1328 O   0  0  0  0  0  0  0  0  0  0  0  0
   -7.3510   31.2367   -5.8853 H   0  0  0  0  0  0  0  0  0  0  0  0
  -10.2104   31.9962   -4.4330 C   0  0  0  0  0  0  0  0  0  0  0  0
   -8.7267   32.2769   -4.6370 C   0  0  0  0  0  0  0  0  0  0  0  0
   -8.0686   32.7121   -3.3059 C   0  0  0  0  0  0  0  0  0  0  0  0
   -6.7561   32.3649   -3.1552 N   0  0  0  0  0  0  0  0  0  0  0  0
   -8.6231   33.3941   -2.4485 O   0  0  0  0  0  0  0  0  0  0  0  0
   -6.3096   31.8181   -3.8414 H   0  0  0  0  0  0  0  0  0  0  0  0
   -6.2566   32.6614   -2.3603 H   0  0  0  0  0  0  0  0  0  0  0  0
   -7.5486   23.8179   -4.4800 C   0  0  0  0  0  0  0  0  0  0  0  0
   -6.3476   23.3123   -5.1868 C   0  0  0  0  0  0  0  0  0  0  0  0
   -5.0341   23.7120   -5.2451 C   0  0  0  0  0  0  0  0  0  0  0  0
   -4.4071   22.7665   -6.1018 C   0  0  0  0  0  0  0  0  0  0  0  0
   -5.3089   21.8709   -6.5384 N   0  0  0  0  0  0  0  0  0  0  0  0
   -6.5169   22.2254   -5.9817 O   0  0  0  0  0  0  0  0  0  0  0  0
   -3.0012   22.6784   -6.4844 C   0  0  0  0  0  0  0  0  0  0  0  0
   -2.5772   21.8181   -7.5044 C   0  0  0  0  0  0  0  0  0  0  0  0
   -1.2219   21.7465   -7.8598 C   0  0  0  0  0  0  0  0  0  0  0  0
   -0.2548   22.5345   -7.2121 C   0  0  0  0  0  0  0  0  0  0  0  0
   -0.6964   23.4022   -6.1982 C   0  0  0  0  0  0  0  0  0  0  0  0
   -2.0449   23.4693   -5.8351 C   0  0  0  0  0  0  0  0  0  0  0  0
    1.1726   22.4605   -7.5823 C   0  0  0  0  0  0  0  0  0  0  0  0
    1.9454   23.6206   -7.7501 C   0  0  0  0  0  0  0  0  0  0  0  0
    3.2979   23.5311   -8.0762 C   0  0  0  0  0  0  0  0  0  0  0  0
    4.0094   24.6586   -8.2202 F   0  0  0  0  0  0  0  0  0  0  0  0
    3.9229   22.3026   -8.2429 C   0  0  0  0  0  0  0  0  0  0  0  0
    3.1716   21.1452   -8.0842 C   0  0  0  0  0  0  0  0  0  0  0  0
    3.9228   19.6060   -8.2755 Cl  0  0  0  0  0  0  0  0  0  0  0  0
    1.8128   21.2171   -7.7597 C   0  0  0  0  0  0  0  0  0  0  0  0
   -8.4196   25.5492   -2.7754 C   0  0  0  0  0  0  0  0  0  0  0  0
   -7.7961   25.5905   -1.0885 P   0  0  0  0  0  0  0  0  0  0  0  0
   -8.0884   24.3149   -0.3525 O   0  0  0  0  0  0  0  0  0  0  0  0
   -6.1925   25.6506   -1.3133 O   0  0  0  0  0  0  0  0  0  0  0  0
   -5.8983   24.8420   -1.7612 H   0  0  0  0  0  0  0  0  0  0  0  0
   -8.2407   27.0947   -0.2717 C   0  0  0  0  0  0  0  0  0  0  0  0
   -9.0151   27.0969    0.8999 C   0  0  0  0  0  0  0  0  0  0  0  0
   -9.3572   28.2969    1.5262 C   0  0  0  0  0  0  0  0  0  0  0  0
   -8.9204   29.5068    0.9892 C   0  0  0  0  0  0  0  0  0  0  0  0
   -9.3755   31.1288    1.8395 Br  0  0  0  0  0  0  0  0  0  0  0  0
   -8.1553   29.5281   -0.1744 C   0  0  0  0  0  0  0  0  0  0  0  0
   -7.8281   28.3270   -0.8062 C   0  0  0  0  0  0  0  0  0  0  0  0
 13 12  1  0
 13  8  1  0
  8  9  1  0
  9 10  2  0
  9  6  1  0
  6  7  1  0
  6  2  1  0
  2  3  1  0
  3  4  2  0
  3  1  1  0
  1 19  1  0
 19 20  1  0
 20 21  2  0
 21 22  1  0
 22 25  1  0
 25 26  2  0
 26 27  1  0
 27 28  2  0
 28 31  1  0
 31 32  2  0
 32 33  1  0
 33 34  1  0
 33 35  2  0
 35 36  1  0
 36 37  1  0
 36 38  2  0
 28 29  1  0
 29 30  2  0
 22 23  2  0
 23 24  1  0
  1 39  1  0
 39 40  1  0
 40 41  2  0
 40 42  1  0
 40 44  1  0
 44 45  2  0
 45 46  1  0
 46 47  2  0
 47 48  1  0
 47 49  1  0
 49 50  2  0
 13 14  1  0
 14 15  1  0
 14 16  2  0
 24 20  1  0
 50 44  1  0
 30 25  1  0
 38 31  1  0
  8 11  1  0
  2  5  1  0
 42 43  1  0
 15 17  1  0
 15 18  1  0
M  END
> <minimizedAffinity>
-10.52516

> <CNNscore>
0.8217691183

> <CNNaffinity>
8.3686723709

> <CNN_VS>
6.8771166801

> <CNNaffinity_variance>
0.1529502124

$$$$



 50 53  0  0  0  0  0  0  0  0999 V2000
   -7.2091   25.0256   -3.9263 C   0  0  0  0  0  0  0  0  0  0  0  0
   -7.7250   27.3792   -4.3802 N   0  0  0  0  0  0  0  0  0  0  0  0
   -8.2032   26.0862   -4.4016 C   0  0  0  0  0  0  0  0  0  0  0  0
   -9.3594   25.8241   -4.7332 O   0  0  0  0  0  0  0  0  0  0  0  0
   -6.8981   27.5958   -3.8918 H   0  0  0  0  0  0  0  0  0  0  0  0
   -8.4585   28.4242   -5.0900 C   0  0  0  0  0  0  0  0  0  0  0  0
   -8.3979   29.7392   -4.3319 C   0  0  0  0  0  0  0  0  0  0  0  0
   -8.1253   29.6683   -7.1828 N   0  0  0  0  0  0  0  0  0  0  0  0
   -7.7600   28.5622   -6.4533 C   0  0  0  0  0  0  0  0  0  0  0  0
   -6.9794   27.7050   -6.8789 O   0  0  0  0  0  0  0  0  0  0  0  0
   -8.6485   30.3790   -6.7464 H   0  0  0  0  0  0  0  0  0  0  0  0
   -6.2540   29.6290   -8.7735 C   0  0  0  0  0  0  0  0  0  0  0  0
   -7.7556   29.8180   -8.5959 C   0  0  0  0  0  0  0  0  0  0  0  0
   -8.5369   28.8351   -9.5002 C   0  0  0  0  0  0  0  0  0  0  0  0
   -9.8854   29.0419   -9.5696 N   0  0  0  0  0  0  0  0  0  0  0  0
   -8.0154   27.9642  -10.1910 O   0  0  0  0  0  0  0  0  0  0  0  0
  -10.3055   29.7396   -9.0165 H   0  0  0  0  0  0  0  0  0  0  0  0
  -10.4372   28.4931  -10.1726 H   0  0  0  0  0  0  0  0  0  0  0  0
   -7.3874   23.6954   -4.6818 C   0  0  0  0  0  0  0  0  0  0  0  0
   -6.1814   23.2375   -5.4122 C   0  0  0  0  0  0  0  0  0  0  0  0
   -4.8425   23.5353   -5.3276 C   0  0  0  0  0  0  0  0  0  0  0  0
   -4.2286   22.7205   -6.3177 C   0  0  0  0  0  0  0  0  0  0  0  0
   -5.1602   21.9974   -6.9622 N   0  0  0  0  0  0  0  0  0  0  0  0
   -6.3739   22.3361   -6.4082 O   0  0  0  0  0  0  0  0  0  0  0  0
   -2.8106   22.5941   -6.6400 C   0  0  0  0  0  0  0  0  0  0  0  0
   -1.8522   23.4225   -6.0435 C   0  0  0  0  0  0  0  0  0  0  0  0
   -0.4932   23.2869   -6.3644 C   0  0  0  0  0  0  0  0  0  0  0  0
   -0.0532   22.3186   -7.2835 C   0  0  0  0  0  0  0  0  0  0  0  0
   -1.0250   21.4862   -7.8655 C   0  0  0  0  0  0  0  0  0  0  0  0
   -2.3812   21.6247   -7.5551 C   0  0  0  0  0  0  0  0  0  0  0  0
    1.3760   22.1743   -7.6249 C   0  0  0  0  0  0  0  0  0  0  0  0
    1.9958   20.9149   -7.6591 C   0  0  0  0  0  0  0  0  0  0  0  0
    3.3405   20.7952   -8.0071 C   0  0  0  0  0  0  0  0  0  0  0  0
    3.8992   19.5766   -8.0390 F   0  0  0  0  0  0  0  0  0  0  0  0
    4.1064   21.9070   -8.3311 C   0  0  0  0  0  0  0  0  0  0  0  0
    3.5093   23.1606   -8.2984 C   0  0  0  0  0  0  0  0  0  0  0  0
    4.4328   24.5576   -8.7051 Cl  0  0  0  0  0  0  0  0  0  0  0  0
    2.1619   23.2988   -7.9487 C   0  0  0  0  0  0  0  0  0  0  0  0
   -7.2681   24.8874   -2.3955 C   0  0  0  0  0  0  0  0  0  0  0  0
   -8.5378   25.8598   -1.5719 P   0  0  0  0  0  0  0  0  0  0  0  0
   -8.2908   27.3343   -1.7100 O   0  0  0  0  0  0  0  0  0  0  0  0
   -9.8582   25.5170   -2.4463 O   0  0  0  0  0  0  0  0  0  0  0  0
   -9.7332   25.8284   -3.3564 H   0  0  0  0  0  0  0  0  0  0  0  0
   -8.8532   25.2602    0.0616 C   0  0  0  0  0  0  0  0  0  0  0  0
   -9.3799   23.9781    0.2879 C   0  0  0  0  0  0  0  0  0  0  0  0
   -9.6242   23.5266    1.5863 C   0  0  0  0  0  0  0  0  0  0  0  0
   -9.3361   24.3524    2.6717 C   0  0  0  0  0  0  0  0  0  0  0  0
   -9.6584   23.7400    4.4273 Br  0  0  0  0  0  0  0  0  0  0  0  0
   -8.8176   25.6292    2.4701 C   0  0  0  0  0  0  0  0  0  0  0  0
   -8.5889   26.0828    1.1698 C   0  0  0  0  0  0  0  0  0  0  0  0
 13 12  1  0
 13  8  1  0
  8  9  1  0
  9 10  2  0
  9  6  1  0
  6  7  1  0
  6  2  1  0
  2  3  1  0
  3  4  2  0
  3  1  1  0
  1 19  1  0
 19 20  1  0
 20 21  2  0
 21 22  1  0
 22 25  1  0
 25 26  2  0
 26 27  1  0
 27 28  2  0
 28 31  1  0
 31 32  2  0
 32 33  1  0
 33 34  1  0
 33 35  2  0
 35 36  1  0
 36 37  1  0
 36 38  2  0
 28 29  1  0
 29 30  2  0
 22 23  2  0
 23 24  1  0
  1 39  1  0
 39 40  1  0
 40 41  2  0
 40 42  1  0
 40 44  1  0
 44 45  2  0
 45 46  1  0
 46 47  2  0
 47 48  1  0
 47 49  1  0
 49 50  2  0
 13 14  1  0
 14 15  1  0
 14 16  2  0
 24 20  1  0
 50 44  1  0
 30 25  1  0
 38 31  1  0
  8 11  1  0
  2  5  1  0
 42 43  1  0
 15 17  1  0
 15 18  1  0
M  END
> <minimizedAffinity>
-11.84110

> <CNNscore>
0.7953361273

> <CNNaffinity>
8.2284469604

> <CNN_VS>
6.5443811417

> <CNNaffinity_variance>
0.4849655628

$$$$



 50 53  0  0  0  0  0  0  0  0999 V2000
   -8.5657   25.7324   -2.2410 C   0  0  0  0  0  0  0  0  0  0  0  0
   -8.0411   27.5486   -3.8023 N   0  0  0  0  0  0  0  0  0  0  0  0
   -8.2632   27.2118   -2.4840 C   0  0  0  0  0  0  0  0  0  0  0  0
   -8.1736   28.0382   -1.5760 O   0  0  0  0  0  0  0  0  0  0  0  0
   -7.8785   26.8477   -4.4743 H   0  0  0  0  0  0  0  0  0  0  0  0
   -8.0496   28.9565   -4.1914 C   0  0  0  0  0  0  0  0  0  0  0  0
   -7.1699   29.7798   -3.2662 C   0  0  0  0  0  0  0  0  0  0  0  0
   -7.6847   30.1747   -6.2942 N   0  0  0  0  0  0  0  0  0  0  0  0
   -7.4933   28.9895   -5.6249 C   0  0  0  0  0  0  0  0  0  0  0  0
   -6.9725   27.9996   -6.1482 O   0  0  0  0  0  0  0  0  0  0  0  0
   -7.9871   30.9655   -5.7917 H   0  0  0  0  0  0  0  0  0  0  0  0
   -6.3990   29.2849   -8.1885 C   0  0  0  0  0  0  0  0  0  0  0  0
   -7.4500   30.2923   -7.7388 C   0  0  0  0  0  0  0  0  0  0  0  0
   -8.7562   30.1119   -8.5485 C   0  0  0  0  0  0  0  0  0  0  0  0
   -9.0998   28.8210   -8.8342 N   0  0  0  0  0  0  0  0  0  0  0  0
   -9.5082   31.0293   -8.8653 O   0  0  0  0  0  0  0  0  0  0  0  0
   -8.4983   28.0839   -8.5810 H   0  0  0  0  0  0  0  0  0  0  0  0
   -9.9490   28.6277   -9.2932 H   0  0  0  0  0  0  0  0  0  0  0  0
   -9.0437   25.0282   -3.5246 C   0  0  0  0  0  0  0  0  0  0  0  0
   -7.9784   24.3103   -4.2644 C   0  0  0  0  0  0  0  0  0  0  0  0
   -6.6393   24.5384   -4.4722 C   0  0  0  0  0  0  0  0  0  0  0  0
   -6.2054   23.4412   -5.2652 C   0  0  0  0  0  0  0  0  0  0  0  0
   -7.2393   22.6229   -5.5253 N   0  0  0  0  0  0  0  0  0  0  0  0
   -8.3425   23.1773   -4.9167 O   0  0  0  0  0  0  0  0  0  0  0  0
   -4.8602   23.1433   -5.7470 C   0  0  0  0  0  0  0  0  0  0  0  0
   -3.7368   23.7850   -5.2115 C   0  0  0  0  0  0  0  0  0  0  0  0
   -2.4508   23.4861   -5.6860 C   0  0  0  0  0  0  0  0  0  0  0  0
   -2.2502   22.5359   -6.7023 C   0  0  0  0  0  0  0  0  0  0  0  0
   -3.3859   21.8911   -7.2222 C   0  0  0  0  0  0  0  0  0  0  0  0
   -4.6697   22.1932   -6.7582 C   0  0  0  0  0  0  0  0  0  0  0  0
   -0.8984   22.2201   -7.2052 C   0  0  0  0  0  0  0  0  0  0  0  0
   -0.6568   21.0770   -7.9839 C   0  0  0  0  0  0  0  0  0  0  0  0
    0.6216   20.8074   -8.4705 C   0  0  0  0  0  0  0  0  0  0  0  0
    0.8161   19.7119   -9.2189 F   0  0  0  0  0  0  0  0  0  0  0  0
    1.6904   21.6534   -8.2064 C   0  0  0  0  0  0  0  0  0  0  0  0
    1.4689   22.7866   -7.4344 C   0  0  0  0  0  0  0  0  0  0  0  0
    2.7746   23.8600   -7.0983 Cl  0  0  0  0  0  0  0  0  0  0  0  0
    0.1930   23.0706   -6.9359 C   0  0  0  0  0  0  0  0  0  0  0  0
   -9.5226   25.5728   -1.0475 C   0  0  0  0  0  0  0  0  0  0  0  0
   -8.8701   24.6633    0.3607 P   0  0  0  0  0  0  0  0  0  0  0  0
   -9.4785   23.2953    0.4738 O   0  0  0  0  0  0  0  0  0  0  0  0
   -7.3161   24.4577   -0.0498 O   0  0  0  0  0  0  0  0  0  0  0  0
   -7.2627   23.9173   -0.8536 H   0  0  0  0  0  0  0  0  0  0  0  0
   -8.8709   25.6530    1.8261 C   0  0  0  0  0  0  0  0  0  0  0  0
   -9.5931   26.8550    1.9042 C   0  0  0  0  0  0  0  0  0  0  0  0
   -9.5766   27.6223    3.0704 C   0  0  0  0  0  0  0  0  0  0  0  0
   -8.8424   27.1892    4.1733 C   0  0  0  0  0  0  0  0  0  0  0  0
   -8.8260   28.2216    5.7529 Br  0  0  0  0  0  0  0  0  0  0  0  0
   -8.1152   26.0027    4.1163 C   0  0  0  0  0  0  0  0  0  0  0  0
   -8.1219   25.2460    2.9433 C   0  0  0  0  0  0  0  0  0  0  0  0
 13 12  1  0
 13  8  1  0
  8  9  1  0
  9 10  2  0
  9  6  1  0
  6  7  1  0
  6  2  1  0
  2  3  1  0
  3  4  2  0
  3  1  1  0
  1 19  1  0
 19 20  1  0
 20 21  2  0
 21 22  1  0
 22 25  1  0
 25 26  2  0
 26 27  1  0
 27 28  2  0
 28 31  1  0
 31 32  2  0
 32 33  1  0
 33 34  1  0
 33 35  2  0
 35 36  1  0
 36 37  1  0
 36 38  2  0
 28 29  1  0
 29 30  2  0
 22 23  2  0
 23 24  1  0
  1 39  1  0
 39 40  1  0
 40 41  2  0
 40 42  1  0
 40 44  1  0
 44 45  2  0
 45 46  1  0
 46 47  2  0
 47 48  1  0
 47 49  1  0
 49 50  2  0
 13 14  1  0
 14 15  1  0
 14 16  2  0
 24 20  1  0
 50 44  1  0
 30 25  1  0
 38 31  1  0
  8 11  1  0
  2  5  1  0
 42 43  1  0
 15 17  1  0
 15 18  1  0
M  END
> <minimizedAffinity>
-11.44542

> <CNNscore>
0.7446773052

> <CNNaffinity>
8.3297910690

> <CNN_VS>
6.2030062675

> <CNNaffinity_variance>
0.3608006537

$$$$



 50 53  0  0  0  0  0  0  0  0999 V2000
   -8.5414   25.8410   -2.5017 C   0  0  0  0  0  0  0  0  0  0  0  0
   -7.9485   28.1683   -2.0081 N   0  0  0  0  0  0  0  0  0  0  0  0
   -8.3428   27.2785   -2.9846 C   0  0  0  0  0  0  0  0  0  0  0  0
   -8.5624   27.6359   -4.1420 O   0  0  0  0  0  0  0  0  0  0  0  0
   -8.0118   27.9231   -1.0567 H   0  0  0  0  0  0  0  0  0  0  0  0
   -7.4357   29.4787   -2.4002 C   0  0  0  0  0  0  0  0  0  0  0  0
   -8.5623   30.3835   -2.8689 C   0  0  0  0  0  0  0  0  0  0  0  0
   -6.6860   31.4284   -1.1057 N   0  0  0  0  0  0  0  0  0  0  0  0
   -6.7784   30.0573   -1.1357 C   0  0  0  0  0  0  0  0  0  0  0  0
   -6.3143   29.3336   -0.2492 O   0  0  0  0  0  0  0  0  0  0  0  0
   -7.1823   31.9570   -1.7716 H   0  0  0  0  0  0  0  0  0  0  0  0
   -5.3042   31.1323    0.9034 C   0  0  0  0  0  0  0  0  0  0  0  0
   -5.8663   32.1253   -0.1065 C   0  0  0  0  0  0  0  0  0  0  0  0
   -4.7239   32.9346   -0.7655 C   0  0  0  0  0  0  0  0  0  0  0  0
   -3.9714   32.2551   -1.6810 N   0  0  0  0  0  0  0  0  0  0  0  0
   -4.5193   34.1296   -0.5717 O   0  0  0  0  0  0  0  0  0  0  0  0
   -4.1339   31.2969   -1.8379 H   0  0  0  0  0  0  0  0  0  0  0  0
   -3.2666   32.7237   -2.1839 H   0  0  0  0  0  0  0  0  0  0  0  0
   -9.0069   24.9145   -3.6405 C   0  0  0  0  0  0  0  0  0  0  0  0
   -7.9133   24.1814   -4.3218 C   0  0  0  0  0  0  0  0  0  0  0  0
   -6.6030   24.4751   -4.6136 C   0  0  0  0  0  0  0  0  0  0  0  0
   -6.1110   23.3144   -5.2707 C   0  0  0  0  0  0  0  0  0  0  0  0
   -7.0863   22.3959   -5.3761 N   0  0  0  0  0  0  0  0  0  0  0  0
   -8.2093   22.9469   -4.8014 O   0  0  0  0  0  0  0  0  0  0  0  0
   -4.7626   23.0517   -5.7641 C   0  0  0  0  0  0  0  0  0  0  0  0
   -3.6504   23.7136   -5.2299 C   0  0  0  0  0  0  0  0  0  0  0  0
   -2.3613   23.4484   -5.7156 C   0  0  0  0  0  0  0  0  0  0  0  0
   -2.1461   22.5125   -6.7421 C   0  0  0  0  0  0  0  0  0  0  0  0
   -3.2704   21.8470   -7.2608 C   0  0  0  0  0  0  0  0  0  0  0  0
   -4.5576   22.1156   -6.7856 C   0  0  0  0  0  0  0  0  0  0  0  0
   -0.7910   22.2322   -7.2569 C   0  0  0  0  0  0  0  0  0  0  0  0
   -0.5351   21.1192   -8.0737 C   0  0  0  0  0  0  0  0  0  0  0  0
    0.7460   20.8835   -8.5706 C   0  0  0  0  0  0  0  0  0  0  0  0
    0.9542   19.8163   -9.3554 F   0  0  0  0  0  0  0  0  0  0  0  0
    1.8037   21.7345   -8.2795 C   0  0  0  0  0  0  0  0  0  0  0  0
    1.5681   22.8381   -7.4697 C   0  0  0  0  0  0  0  0  0  0  0  0
    2.8597   23.9173   -7.0993 Cl  0  0  0  0  0  0  0  0  0  0  0  0
    0.2893   23.0879   -6.9605 C   0  0  0  0  0  0  0  0  0  0  0  0
   -9.4533   25.8156   -1.2634 C   0  0  0  0  0  0  0  0  0  0  0  0
   -8.7991   24.9490    0.1708 P   0  0  0  0  0  0  0  0  0  0  0  0
   -9.4964   23.6391    0.3992 O   0  0  0  0  0  0  0  0  0  0  0  0
   -7.2853   24.6048   -0.2934 O   0  0  0  0  0  0  0  0  0  0  0  0
   -7.3093   24.0134   -1.0619 H   0  0  0  0  0  0  0  0  0  0  0  0
   -8.6588   26.0246    1.5675 C   0  0  0  0  0  0  0  0  0  0  0  0
   -8.8961   27.4048    1.4625 C   0  0  0  0  0  0  0  0  0  0  0  0
   -8.7761   28.2358    2.5780 C   0  0  0  0  0  0  0  0  0  0  0  0
   -8.4247   27.6911    3.8121 C   0  0  0  0  0  0  0  0  0  0  0  0
   -8.2702   28.8122    5.3221 Br  0  0  0  0  0  0  0  0  0  0  0  0
   -8.1804   26.3257    3.9379 C   0  0  0  0  0  0  0  0  0  0  0  0
   -8.2865   25.5004    2.8170 C   0  0  0  0  0  0  0  0  0  0  0  0
 13 12  1  0
 13  8  1  0
  8  9  1  0
  9 10  2  0
  9  6  1  0
  6  7  1  0
  6  2  1  0
  2  3  1  0
  3  4  2  0
  3  1  1  0
  1 19  1  0
 19 20  1  0
 20 21  2  0
 21 22  1  0
 22 25  1  0
 25 26  2  0
 26 27  1  0
 27 28  2  0
 28 31  1  0
 31 32  2  0
 32 33  1  0
 33 34  1  0
 33 35  2  0
 35 36  1  0
 36 37  1  0
 36 38  2  0
 28 29  1  0
 29 30  2  0
 22 23  2  0
 23 24  1  0
  1 39  1  0
 39 40  1  0
 40 41  2  0
 40 42  1  0
 40 44  1  0
 44 45  2  0
 45 46  1  0
 46 47  2  0
 47 48  1  0
 47 49  1  0
 49 50  2  0
 13 14  1  0
 14 15  1  0
 14 16  2  0
 24 20  1  0
 50 44  1  0
 30 25  1  0
 38 31  1  0
  8 11  1  0
  2  5  1  0
 42 43  1  0
 15 17  1  0
 15 18  1  0
M  END
> <minimizedAffinity>
-10.31313

> <CNNscore>
0.7050364017

> <CNNaffinity>
8.0253095627

> <CNN_VS>
5.6581354141

> <CNNaffinity_variance>
0.3098770082

$$$$



 50 53  0  0  0  0  0  0  0  0999 V2000
   -8.4994   26.0985   -2.6164 C   0  0  0  0  0  0  0  0  0  0  0  0
   -7.4796   28.2409   -3.2340 N   0  0  0  0  0  0  0  0  0  0  0  0
   -8.5486   27.3927   -3.4300 C   0  0  0  0  0  0  0  0  0  0  0  0
   -9.4884   27.6879   -4.1683 O   0  0  0  0  0  0  0  0  0  0  0  0
   -6.8701   28.1056   -2.4729 H   0  0  0  0  0  0  0  0  0  0  0  0
   -7.2611   29.3428   -4.1679 C   0  0  0  0  0  0  0  0  0  0  0  0
   -8.0408   29.1263   -5.4535 C   0  0  0  0  0  0  0  0  0  0  0  0
   -9.0286   31.0108   -3.8040 N   0  0  0  0  0  0  0  0  0  0  0  0
   -7.7671   30.6015   -3.4432 C   0  0  0  0  0  0  0  0  0  0  0  0
   -7.0608   31.2266   -2.6460 O   0  0  0  0  0  0  0  0  0  0  0  0
   -9.5919   30.4094   -4.3427 H   0  0  0  0  0  0  0  0  0  0  0  0
   -9.2561   33.3616   -4.4789 C   0  0  0  0  0  0  0  0  0  0  0  0
   -9.5581   32.3215   -3.4071 C   0  0  0  0  0  0  0  0  0  0  0  0
  -11.0776   32.2632   -3.1203 C   0  0  0  0  0  0  0  0  0  0  0  0
  -11.4979   32.9577   -2.0217 N   0  0  0  0  0  0  0  0  0  0  0  0
  -11.8997   31.7112   -3.8464 O   0  0  0  0  0  0  0  0  0  0  0  0
  -10.8403   33.4010   -1.4383 H   0  0  0  0  0  0  0  0  0  0  0  0
  -12.4584   33.0150   -1.8133 H   0  0  0  0  0  0  0  0  0  0  0  0
   -8.9888   24.8895   -3.4354 C   0  0  0  0  0  0  0  0  0  0  0  0
   -7.9232   24.1857   -4.1882 C   0  0  0  0  0  0  0  0  0  0  0  0
   -6.5949   24.4422   -4.4294 C   0  0  0  0  0  0  0  0  0  0  0  0
   -6.1524   23.3435   -5.2156 C   0  0  0  0  0  0  0  0  0  0  0  0
   -7.1718   22.4971   -5.4401 N   0  0  0  0  0  0  0  0  0  0  0  0
   -8.2743   23.0345   -4.8151 O   0  0  0  0  0  0  0  0  0  0  0  0
   -4.8114   23.0703   -5.7231 C   0  0  0  0  0  0  0  0  0  0  0  0
   -4.5971   22.1449   -6.7517 C   0  0  0  0  0  0  0  0  0  0  0  0
   -3.3014   21.8949   -7.2279 C   0  0  0  0  0  0  0  0  0  0  0  0
   -2.1861   22.5648   -6.6957 C   0  0  0  0  0  0  0  0  0  0  0  0
   -2.4175   23.4998   -5.6718 C   0  0  0  0  0  0  0  0  0  0  0  0
   -3.7063   23.7445   -5.1884 C   0  0  0  0  0  0  0  0  0  0  0  0
   -0.8209   22.3030   -7.1933 C   0  0  0  0  0  0  0  0  0  0  0  0
   -0.5351   21.1814   -7.9881 C   0  0  0  0  0  0  0  0  0  0  0  0
    0.7550   20.9630   -8.4692 C   0  0  0  0  0  0  0  0  0  0  0  0
    0.9919   19.8869   -9.2333 F   0  0  0  0  0  0  0  0  0  0  0  0
    1.7927   21.8402   -8.1835 C   0  0  0  0  0  0  0  0  0  0  0  0
    1.5274   22.9527   -7.3953 C   0  0  0  0  0  0  0  0  0  0  0  0
    2.7936   24.0640   -7.0323 Cl  0  0  0  0  0  0  0  0  0  0  0  0
    0.2392   23.1854   -6.9022 C   0  0  0  0  0  0  0  0  0  0  0  0
   -9.2315   26.2830   -1.2763 C   0  0  0  0  0  0  0  0  0  0  0  0
   -8.8493   25.0699   -0.0042 P   0  0  0  0  0  0  0  0  0  0  0  0
   -9.4750   23.7367   -0.2963 O   0  0  0  0  0  0  0  0  0  0  0  0
   -7.2477   24.8876   -0.1694 O   0  0  0  0  0  0  0  0  0  0  0  0
   -7.0524   24.5266   -1.0483 H   0  0  0  0  0  0  0  0  0  0  0  0
   -9.1106   25.7283    1.6162 C   0  0  0  0  0  0  0  0  0  0  0  0
   -8.4452   26.8829    2.0595 C   0  0  0  0  0  0  0  0  0  0  0  0
   -8.6644   27.3831    3.3444 C   0  0  0  0  0  0  0  0  0  0  0  0
   -9.5584   26.7358    4.1958 C   0  0  0  0  0  0  0  0  0  0  0  0
   -9.8614   27.4158    5.9298 Br  0  0  0  0  0  0  0  0  0  0  0  0
  -10.2256   25.5867    3.7784 C   0  0  0  0  0  0  0  0  0  0  0  0
   -9.9924   25.0809    2.4983 C   0  0  0  0  0  0  0  0  0  0  0  0
 13 12  1  0
 13  8  1  0
  8  9  1  0
  9 10  2  0
  9  6  1  0
  6  7  1  0
  6  2  1  0
  2  3  1  0
  3  4  2  0
  3  1  1  0
  1 19  1  0
 19 20  1  0
 20 21  2  0
 21 22  1  0
 22 25  1  0
 25 26  2  0
 26 27  1  0
 27 28  2  0
 28 31  1  0
 31 32  2  0
 32 33  1  0
 33 34  1  0
 33 35  2  0
 35 36  1  0
 36 37  1  0
 36 38  2  0
 28 29  1  0
 29 30  2  0
 22 23  2  0
 23 24  1  0
  1 39  1  0
 39 40  1  0
 40 41  2  0
 40 42  1  0
 40 44  1  0
 44 45  2  0
 45 46  1  0
 46 47  2  0
 47 48  1  0
 47 49  1  0
 49 50  2  0
 13 14  1  0
 14 15  1  0
 14 16  2  0
 24 20  1  0
 50 44  1  0
 30 25  1  0
 38 31  1  0
  8 11  1  0
  2  5  1  0
 42 43  1  0
 15 17  1  0
 15 18  1  0
M  END
> <minimizedAffinity>
-10.05494

> <CNNscore>
0.6605590582

> <CNNaffinity>
8.0337896347

> <CNN_VS>
5.3067927361

> <CNNaffinity_variance>
0.1895184070

$$$$



 50 53  0  0  0  0  0  0  0  0999 V2000
   -8.6638   25.8615   -2.4541 C   0  0  0  0  0  0  0  0  0  0  0  0
   -8.4923   27.4633   -4.3025 N   0  0  0  0  0  0  0  0  0  0  0  0
   -8.4058   27.2894   -2.9376 C   0  0  0  0  0  0  0  0  0  0  0  0
   -8.0956   28.2100   -2.1815 O   0  0  0  0  0  0  0  0  0  0  0  0
   -8.5006   26.6837   -4.9038 H   0  0  0  0  0  0  0  0  0  0  0  0
   -8.5717   28.8164   -4.8470 C   0  0  0  0  0  0  0  0  0  0  0  0
   -7.9295   29.8188   -3.9034 C   0  0  0  0  0  0  0  0  0  0  0  0
   -8.0494   29.8204   -7.0283 N   0  0  0  0  0  0  0  0  0  0  0  0
   -7.8026   28.7690   -6.1781 C   0  0  0  0  0  0  0  0  0  0  0  0
   -7.0701   27.8209   -6.4778 O   0  0  0  0  0  0  0  0  0  0  0  0
   -8.5371   30.6059   -6.6903 H   0  0  0  0  0  0  0  0  0  0  0  0
   -6.1282   29.4347   -8.5096 C   0  0  0  0  0  0  0  0  0  0  0  0
   -7.6046   29.8027   -8.4275 C   0  0  0  0  0  0  0  0  0  0  0  0
   -8.4535   28.8356   -9.2869 C   0  0  0  0  0  0  0  0  0  0  0  0
   -9.7936   29.0983   -9.3213 N   0  0  0  0  0  0  0  0  0  0  0  0
   -7.9901   27.9292   -9.9734 O   0  0  0  0  0  0  0  0  0  0  0  0
  -10.1671   29.8246   -8.7716 H   0  0  0  0  0  0  0  0  0  0  0  0
  -10.3859   28.5613   -9.8959 H   0  0  0  0  0  0  0  0  0  0  0  0
   -9.1194   24.9425   -3.6030 C   0  0  0  0  0  0  0  0  0  0  0  0
   -8.0198   24.2142   -4.2797 C   0  0  0  0  0  0  0  0  0  0  0  0
   -6.7097   24.5138   -4.5667 C   0  0  0  0  0  0  0  0  0  0  0  0
   -6.2099   23.3552   -5.2215 C   0  0  0  0  0  0  0  0  0  0  0  0
   -7.1806   22.4322   -5.3303 N   0  0  0  0  0  0  0  0  0  0  0  0
   -8.3083   22.9782   -4.7601 O   0  0  0  0  0  0  0  0  0  0  0  0
   -4.8584   23.0984   -5.7095 C   0  0  0  0  0  0  0  0  0  0  0  0
   -3.7538   23.7812   -5.1862 C   0  0  0  0  0  0  0  0  0  0  0  0
   -2.4615   23.5216   -5.6665 C   0  0  0  0  0  0  0  0  0  0  0  0
   -2.2356   22.5706   -6.6768 C   0  0  0  0  0  0  0  0  0  0  0  0
   -3.3524   21.8843   -7.1845 C   0  0  0  0  0  0  0  0  0  0  0  0
   -4.6427   22.1473   -6.7147 C   0  0  0  0  0  0  0  0  0  0  0  0
   -0.8772   22.2960   -7.1860 C   0  0  0  0  0  0  0  0  0  0  0  0
   -0.6106   21.1769   -7.9909 C   0  0  0  0  0  0  0  0  0  0  0  0
    0.6733   20.9465   -8.4828 C   0  0  0  0  0  0  0  0  0  0  0  0
    0.8918   19.8732   -9.2564 F   0  0  0  0  0  0  0  0  0  0  0  0
    1.7235   21.8090   -8.1982 C   0  0  0  0  0  0  0  0  0  0  0  0
    1.4774   22.9188   -7.4000 C   0  0  0  0  0  0  0  0  0  0  0  0
    2.7595   24.0120   -7.0380 Cl  0  0  0  0  0  0  0  0  0  0  0  0
    0.1955   23.1634   -6.8961 C   0  0  0  0  0  0  0  0  0  0  0  0
   -9.6166   25.8714   -1.2467 C   0  0  0  0  0  0  0  0  0  0  0  0
   -8.8385   25.6790    0.3637 P   0  0  0  0  0  0  0  0  0  0  0  0
   -7.5915   24.8462    0.2867 O   0  0  0  0  0  0  0  0  0  0  0  0
   -8.3760   27.1933    0.7081 O   0  0  0  0  0  0  0  0  0  0  0  0
   -7.7248   27.4894    0.0529 H   0  0  0  0  0  0  0  0  0  0  0  0
  -10.0175   25.2252    1.6012 C   0  0  0  0  0  0  0  0  0  0  0  0
   -9.8790   24.0492    2.3563 C   0  0  0  0  0  0  0  0  0  0  0  0
  -10.8240   23.7090    3.3259 C   0  0  0  0  0  0  0  0  0  0  0  0
  -11.9138   24.5476    3.5544 C   0  0  0  0  0  0  0  0  0  0  0  0
  -13.1874   24.0927    4.8705 Br  0  0  0  0  0  0  0  0  0  0  0  0
  -12.0733   25.7164    2.8140 C   0  0  0  0  0  0  0  0  0  0  0  0
  -11.1343   26.0455    1.8348 C   0  0  0  0  0  0  0  0  0  0  0  0
 13 12  1  0
 13  8  1  0
  8  9  1  0
  9 10  2  0
  9  6  1  0
  6  7  1  0
  6  2  1  0
  2  3  1  0
  3  4  2  0
  3  1  1  0
  1 19  1  0
 19 20  1  0
 20 21  2  0
 21 22  1  0
 22 25  1  0
 25 26  2  0
 26 27  1  0
 27 28  2  0
 28 31  1  0
 31 32  2  0
 32 33  1  0
 33 34  1  0
 33 35  2  0
 35 36  1  0
 36 37  1  0
 36 38  2  0
 28 29  1  0
 29 30  2  0
 22 23  2  0
 23 24  1  0
  1 39  1  0
 39 40  1  0
 40 41  2  0
 40 42  1  0
 40 44  1  0
 44 45  2  0
 45 46  1  0
 46 47  2  0
 47 48  1  0
 47 49  1  0
 49 50  2  0
 13 14  1  0
 14 15  1  0
 14 16  2  0
 24 20  1  0
 50 44  1  0
 30 25  1  0
 38 31  1  0
  8 11  1  0
  2  5  1  0
 42 43  1  0
 15 17  1  0
 15 18  1  0
M  END
> <minimizedAffinity>
-11.54751

> <CNNscore>
0.6235388517

> <CNNaffinity>
7.9483551979

> <CNN_VS>
4.9561080933

> <CNNaffinity_variance>
0.7329055667

$$$$



 50 53  0  0  0  0  0  0  0  0999 V2000
   -7.2188   24.7626   -4.0866 C   0  0  0  0  0  0  0  0  0  0  0  0
   -8.2716   26.9432   -4.4717 N   0  0  0  0  0  0  0  0  0  0  0  0
   -8.0402   25.6859   -4.9878 C   0  0  0  0  0  0  0  0  0  0  0  0
   -8.5060   25.3296   -6.0701 O   0  0  0  0  0  0  0  0  0  0  0  0
   -8.1040   27.1287   -3.5194 H   0  0  0  0  0  0  0  0  0  0  0  0
   -8.7679   27.9972   -5.3529 C   0  0  0  0  0  0  0  0  0  0  0  0
   -9.0268   29.2764   -4.5755 C   0  0  0  0  0  0  0  0  0  0  0  0
   -8.0819   28.7271   -7.5969 N   0  0  0  0  0  0  0  0  0  0  0  0
   -7.6563   28.2207   -6.3921 C   0  0  0  0  0  0  0  0  0  0  0  0
   -6.4824   27.9058   -6.1732 O   0  0  0  0  0  0  0  0  0  0  0  0
   -8.9988   29.0775   -7.6726 H   0  0  0  0  0  0  0  0  0  0  0  0
   -7.7595   27.8606   -9.8726 C   0  0  0  0  0  0  0  0  0  0  0  0
   -7.2049   28.7593   -8.7740 C   0  0  0  0  0  0  0  0  0  0  0  0
   -7.0052   30.2004   -9.3011 C   0  0  0  0  0  0  0  0  0  0  0  0
   -8.1301   30.9741   -9.3443 N   0  0  0  0  0  0  0  0  0  0  0  0
   -5.9168   30.6866   -9.5955 O   0  0  0  0  0  0  0  0  0  0  0  0
   -9.0037   30.5862   -9.1086 H   0  0  0  0  0  0  0  0  0  0  0  0
   -8.0672   31.9197   -9.6112 H   0  0  0  0  0  0  0  0  0  0  0  0
   -6.5849   23.6049   -4.8803 C   0  0  0  0  0  0  0  0  0  0  0  0
   -5.1160   23.7092   -5.0509 C   0  0  0  0  0  0  0  0  0  0  0  0
   -4.2006   23.0775   -5.8579 C   0  0  0  0  0  0  0  0  0  0  0  0
   -2.9532   23.6709   -5.5216 C   0  0  0  0  0  0  0  0  0  0  0  0
   -3.1250   24.5884   -4.5548 N   0  0  0  0  0  0  0  0  0  0  0  0
   -4.4680   24.5951   -4.2529 O   0  0  0  0  0  0  0  0  0  0  0  0
   -1.6385   23.4141   -6.1012 C   0  0  0  0  0  0  0  0  0  0  0  0
   -0.4863   24.0240   -5.5904 C   0  0  0  0  0  0  0  0  0  0  0  0
    0.7697   23.7653   -6.1593 C   0  0  0  0  0  0  0  0  0  0  0  0
    0.9111   22.8877   -7.2483 C   0  0  0  0  0  0  0  0  0  0  0  0
   -0.2524   22.2735   -7.7431 C   0  0  0  0  0  0  0  0  0  0  0  0
   -1.5069   22.5362   -7.1845 C   0  0  0  0  0  0  0  0  0  0  0  0
    2.2312   22.6145   -7.8506 C   0  0  0  0  0  0  0  0  0  0  0  0
    3.1468   23.6481   -8.1046 C   0  0  0  0  0  0  0  0  0  0  0  0
    4.3983   23.3687   -8.6516 C   0  0  0  0  0  0  0  0  0  0  0  0
    5.2527   24.3782   -8.8731 F   0  0  0  0  0  0  0  0  0  0  0  0
    4.7804   22.0699   -8.9597 C   0  0  0  0  0  0  0  0  0  0  0  0
    3.8847   21.0362   -8.7181 C   0  0  0  0  0  0  0  0  0  0  0  0
    4.3351   19.4129   -9.0815 Cl  0  0  0  0  0  0  0  0  0  0  0  0
    2.6239   21.2994   -8.1721 C   0  0  0  0  0  0  0  0  0  0  0  0
   -8.0595   24.3074   -2.8817 C   0  0  0  0  0  0  0  0  0  0  0  0
   -8.7236   25.6235   -1.8508 P   0  0  0  0  0  0  0  0  0  0  0  0
   -7.8269   26.8277   -1.8343 O   0  0  0  0  0  0  0  0  0  0  0  0
  -10.0680   26.0453   -2.6509 O   0  0  0  0  0  0  0  0  0  0  0  0
   -9.8290   26.3907   -3.5252 H   0  0  0  0  0  0  0  0  0  0  0  0
   -9.2520   25.0091   -0.2790 C   0  0  0  0  0  0  0  0  0  0  0  0
   -9.0586   23.6685    0.0921 C   0  0  0  0  0  0  0  0  0  0  0  0
   -9.4871   23.2044    1.3371 C   0  0  0  0  0  0  0  0  0  0  0  0
  -10.1070   24.0807    2.2264 C   0  0  0  0  0  0  0  0  0  0  0  0
  -10.6792   23.4562    3.9127 Br  0  0  0  0  0  0  0  0  0  0  0  0
  -10.3131   25.4131    1.8772 C   0  0  0  0  0  0  0  0  0  0  0  0
   -9.8970   25.8698    0.6254 C   0  0  0  0  0  0  0  0  0  0  0  0
 13 12  1  0
 13  8  1  0
  8  9  1  0
  9 10  2  0
  9  6  1  0
  6  7  1  0
  6  2  1  0
  2  3  1  0
  3  4  2  0
  3  1  1  0
  1 19  1  0
 19 20  1  0
 20 21  2  0
 21 22  1  0
 22 25  1  0
 25 26  2  0
 26 27  1  0
 27 28  2  0
 28 31  1  0
 31 32  2  0
 32 33  1  0
 33 34  1  0
 33 35  2  0
 35 36  1  0
 36 37  1  0
 36 38  2  0
 28 29  1  0
 29 30  2  0
 22 23  2  0
 23 24  1  0
  1 39  1  0
 39 40  1  0
 40 41  2  0
 40 42  1  0
 40 44  1  0
 44 45  2  0
 45 46  1  0
 46 47  2  0
 47 48  1  0
 47 49  1  0
 49 50  2  0
 13 14  1  0
 14 15  1  0
 14 16  2  0
 24 20  1  0
 50 44  1  0
 30 25  1  0
 38 31  1  0
  8 11  1  0
  2  5  1  0
 42 43  1  0
 15 17  1  0
 15 18  1  0
M  END
> <minimizedAffinity>
-8.96616

> <CNNscore>
0.6021149755

> <CNNaffinity>
7.4450206757

> <CNN_VS>
4.4827585220

> <CNNaffinity_variance>
0.9635226727

$$$$



 50 53  0  0  0  0  0  0  0  0999 V2000
   -8.0117   24.4415   -5.2375 C   0  0  0  0  0  0  0  0  0  0  0  0
   -8.0421   24.5839   -2.7900 N   0  0  0  0  0  0  0  0  0  0  0  0
   -8.8069   24.5645   -3.9369 C   0  0  0  0  0  0  0  0  0  0  0  0
  -10.0371   24.5949   -3.9007 O   0  0  0  0  0  0  0  0  0  0  0  0
   -7.0945   24.3185   -2.8194 H   0  0  0  0  0  0  0  0  0  0  0  0
   -8.6527   25.0023   -1.5307 C   0  0  0  0  0  0  0  0  0  0  0  0
   -8.6941   23.8518   -0.5397 C   0  0  0  0  0  0  0  0  0  0  0  0
   -8.4325   27.1833   -0.4199 N   0  0  0  0  0  0  0  0  0  0  0  0
   -7.7581   26.1338   -0.9968 C   0  0  0  0  0  0  0  0  0  0  0  0
   -6.5313   26.1205   -1.1380 O   0  0  0  0  0  0  0  0  0  0  0  0
   -9.3914   27.0847   -0.2195 H   0  0  0  0  0  0  0  0  0  0  0  0
   -8.0516   29.4929   -1.1644 C   0  0  0  0  0  0  0  0  0  0  0  0
   -7.7605   28.4475   -0.0945 C   0  0  0  0  0  0  0  0  0  0  0  0
   -8.1706   28.9720    1.3023 C   0  0  0  0  0  0  0  0  0  0  0  0
   -8.3064   28.0207    2.2733 N   0  0  0  0  0  0  0  0  0  0  0  0
   -8.2976   30.1595    1.5875 O   0  0  0  0  0  0  0  0  0  0  0  0
   -8.2050   27.0680    2.0467 H   0  0  0  0  0  0  0  0  0  0  0  0
   -8.5058   28.2879    3.1996 H   0  0  0  0  0  0  0  0  0  0  0  0
   -7.2451   23.1080   -5.3150 C   0  0  0  0  0  0  0  0  0  0  0  0
   -5.7725   23.2508   -5.4082 C   0  0  0  0  0  0  0  0  0  0  0  0
   -4.7962   22.6226   -6.1434 C   0  0  0  0  0  0  0  0  0  0  0  0
   -3.5866   23.2627   -5.7582 C   0  0  0  0  0  0  0  0  0  0  0  0
   -3.8376   24.2033   -4.8318 N   0  0  0  0  0  0  0  0  0  0  0  0
   -5.1950   24.1791   -4.6042 O   0  0  0  0  0  0  0  0  0  0  0  0
   -2.2350   23.0278   -6.2566 C   0  0  0  0  0  0  0  0  0  0  0  0
   -1.9881   22.1125   -7.2870 C   0  0  0  0  0  0  0  0  0  0  0  0
   -0.6827   21.8995   -7.7544 C   0  0  0  0  0  0  0  0  0  0  0  0
    0.4101   22.5972   -7.2113 C   0  0  0  0  0  0  0  0  0  0  0  0
    0.1460   23.5215   -6.1858 C   0  0  0  0  0  0  0  0  0  0  0  0
   -1.1526   23.7295   -5.7111 C   0  0  0  0  0  0  0  0  0  0  0  0
    1.7856   22.3743   -7.6996 C   0  0  0  0  0  0  0  0  0  0  0  0
    2.3104   21.0797   -7.8406 C   0  0  0  0  0  0  0  0  0  0  0  0
    3.6031   20.8873   -8.3260 C   0  0  0  0  0  0  0  0  0  0  0  0
    4.0704   19.6372   -8.4571 F   0  0  0  0  0  0  0  0  0  0  0  0
    4.4086   21.9593   -8.6859 C   0  0  0  0  0  0  0  0  0  0  0  0
    3.9058   23.2468   -8.5490 C   0  0  0  0  0  0  0  0  0  0  0  0
    4.8794   24.5964   -8.9968 Cl  0  0  0  0  0  0  0  0  0  0  0  0
    2.6119   23.4578   -8.0609 C   0  0  0  0  0  0  0  0  0  0  0  0
   -7.1274   25.6834   -5.4412 C   0  0  0  0  0  0  0  0  0  0  0  0
   -7.9740   27.2681   -5.3531 P   0  0  0  0  0  0  0  0  0  0  0  0
   -9.4470   27.1030   -5.1135 O   0  0  0  0  0  0  0  0  0  0  0  0
   -7.3462   27.9219   -4.0100 O   0  0  0  0  0  0  0  0  0  0  0  0
   -7.5783   27.3734   -3.2444 H   0  0  0  0  0  0  0  0  0  0  0  0
   -7.5037   28.3273   -6.6889 C   0  0  0  0  0  0  0  0  0  0  0  0
   -7.3460   27.8400   -7.9965 C   0  0  0  0  0  0  0  0  0  0  0  0
   -6.9707   28.6939   -9.0353 C   0  0  0  0  0  0  0  0  0  0  0  0
   -6.7570   30.0467   -8.7760 C   0  0  0  0  0  0  0  0  0  0  0  0
   -6.2576   31.2034  -10.1809 Br  0  0  0  0  0  0  0  0  0  0  0  0
   -6.9033   30.5505   -7.4858 C   0  0  0  0  0  0  0  0  0  0  0  0
   -7.2638   29.6906   -6.4469 C   0  0  0  0  0  0  0  0  0  0  0  0
 13 12  1  0
 13  8  1  0
  8  9  1  0
  9 10  2  0
  9  6  1  0
  6  7  1  0
  6  2  1  0
  2  3  1  0
  3  4  2  0
  3  1  1  0
  1 19  1  0
 19 20  1  0
 20 21  2  0
 21 22  1  0
 22 25  1  0
 25 26  2  0
 26 27  1  0
 27 28  2  0
 28 31  1  0
 31 32  2  0
 32 33  1  0
 33 34  1  0
 33 35  2  0
 35 36  1  0
 36 37  1  0
 36 38  2  0
 28 29  1  0
 29 30  2  0
 22 23  2  0
 23 24  1  0
  1 39  1  0
 39 40  1  0
 40 41  2  0
 40 42  1  0
 40 44  1  0
 44 45  2  0
 45 46  1  0
 46 47  2  0
 47 48  1  0
 47 49  1  0
 49 50  2  0
 13 14  1  0
 14 15  1  0
 14 16  2  0
 24 20  1  0
 50 44  1  0
 30 25  1  0
 38 31  1  0
  8 11  1  0
  2  5  1  0
 42 43  1  0
 15 17  1  0
 15 18  1  0
M  END
> <minimizedAffinity>
-11.55894

> <CNNscore>
0.5118101239

> <CNNaffinity>
7.5175204277

> <CNN_VS>
3.8475430012

> <CNNaffinity_variance>
0.9478175044

$$$$



 50 53  0  0  0  0  0  0  0  0999 V2000
   -8.0930   28.4615   -4.5041 C   0  0  0  0  0  0  0  0  0  0  0  0
   -8.0634   30.8251   -5.1552 N   0  0  0  0  0  0  0  0  0  0  0  0
   -8.8178   29.8033   -4.6190 C   0  0  0  0  0  0  0  0  0  0  0  0
   -9.9692   29.9823   -4.2217 O   0  0  0  0  0  0  0  0  0  0  0  0
   -7.0871   30.7307   -5.2407 H   0  0  0  0  0  0  0  0  0  0  0  0
   -8.7279   32.0492   -5.5953 C   0  0  0  0  0  0  0  0  0  0  0  0
   -8.4828   33.1820   -4.6133 C   0  0  0  0  0  0  0  0  0  0  0  0
   -6.9061   31.7685   -7.2204 N   0  0  0  0  0  0  0  0  0  0  0  0
   -8.1072   32.3848   -6.9619 C   0  0  0  0  0  0  0  0  0  0  0  0
   -8.6249   33.1972   -7.7346 O   0  0  0  0  0  0  0  0  0  0  0  0
   -6.6052   31.0389   -6.6318 H   0  0  0  0  0  0  0  0  0  0  0  0
   -6.8743   32.1968   -9.6388 C   0  0  0  0  0  0  0  0  0  0  0  0
   -6.0599   32.1698   -8.3512 C   0  0  0  0  0  0  0  0  0  0  0  0
   -5.3874   33.5416   -8.1057 C   0  0  0  0  0  0  0  0  0  0  0  0
   -4.1781   33.5009   -7.4716 N   0  0  0  0  0  0  0  0  0  0  0  0
   -5.8320   34.6137   -8.5064 O   0  0  0  0  0  0  0  0  0  0  0  0
   -3.8198   32.6423   -7.1495 H   0  0  0  0  0  0  0  0  0  0  0  0
   -3.6649   34.3301   -7.3367 H   0  0  0  0  0  0  0  0  0  0  0  0
   -6.8460   28.4062   -5.4062 C   0  0  0  0  0  0  0  0  0  0  0  0
   -7.1378   28.4296   -6.8595 C   0  0  0  0  0  0  0  0  0  0  0  0
   -8.2479   28.1401   -7.6160 C   0  0  0  0  0  0  0  0  0  0  0  0
   -7.8466   28.3923   -8.9564 C   0  0  0  0  0  0  0  0  0  0  0  0
   -6.5633   28.7900   -8.9863 N   0  0  0  0  0  0  0  0  0  0  0  0
   -6.1220   28.7937   -7.6824 O   0  0  0  0  0  0  0  0  0  0  0  0
   -8.6409   28.2940  -10.1770 C   0  0  0  0  0  0  0  0  0  0  0  0
   -8.3216   27.3713  -11.1806 C   0  0  0  0  0  0  0  0  0  0  0  0
   -9.0964   27.2898  -12.3473 C   0  0  0  0  0  0  0  0  0  0  0  0
  -10.2129   28.1215  -12.5418 C   0  0  0  0  0  0  0  0  0  0  0  0
  -10.5286   29.0347  -11.5209 C   0  0  0  0  0  0  0  0  0  0  0  0
   -9.7531   29.1250  -10.3610 C   0  0  0  0  0  0  0  0  0  0  0  0
  -11.0295   28.0396  -13.7692 C   0  0  0  0  0  0  0  0  0  0  0  0
  -11.8678   26.9410  -14.0176 C   0  0  0  0  0  0  0  0  0  0  0  0
  -12.6501   26.8920  -15.1705 C   0  0  0  0  0  0  0  0  0  0  0  0
  -13.4468   25.8324  -15.3726 F   0  0  0  0  0  0  0  0  0  0  0  0
  -12.6294   27.9195  -16.1040 C   0  0  0  0  0  0  0  0  0  0  0  0
  -11.8025   29.0118  -15.8751 C   0  0  0  0  0  0  0  0  0  0  0  0
  -11.7633   30.3066  -17.0117 Cl  0  0  0  0  0  0  0  0  0  0  0  0
  -11.0090   29.0757  -14.7248 C   0  0  0  0  0  0  0  0  0  0  0  0
   -9.0785   27.3021   -4.7287 C   0  0  0  0  0  0  0  0  0  0  0  0
   -8.7668   25.8146   -3.7664 P   0  0  0  0  0  0  0  0  0  0  0  0
   -8.5821   26.1201   -2.3080 O   0  0  0  0  0  0  0  0  0  0  0  0
  -10.1666   25.0108   -3.9080 O   0  0  0  0  0  0  0  0  0  0  0  0
  -10.8797   25.5297   -3.5041 H   0  0  0  0  0  0  0  0  0  0  0  0
   -7.5320   24.8010   -4.5248 C   0  0  0  0  0  0  0  0  0  0  0  0
   -6.1649   24.9791   -4.2571 C   0  0  0  0  0  0  0  0  0  0  0  0
   -5.2070   24.1693   -4.8701 C   0  0  0  0  0  0  0  0  0  0  0  0
   -5.6095   23.1675   -5.7518 C   0  0  0  0  0  0  0  0  0  0  0  0
   -4.3160   22.0671   -6.5745 Br  0  0  0  0  0  0  0  0  0  0  0  0
   -6.9597   22.9763   -6.0352 C   0  0  0  0  0  0  0  0  0  0  0  0
   -7.9136   23.7980   -5.4320 C   0  0  0  0  0  0  0  0  0  0  0  0
 13 12  1  0
 13  8  1  0
  8  9  1  0
  9 10  2  0
  9  6  1  0
  6  7  1  0
  6  2  1  0
  2  3  1  0
  3  4  2  0
  3  1  1  0
  1 19  1  0
 19 20  1  0
 20 21  2  0
 21 22  1  0
 22 25  1  0
 25 26  2  0
 26 27  1  0
 27 28  2  0
 28 31  1  0
 31 32  2  0
 32 33  1  0
 33 34  1  0
 33 35  2  0
 35 36  1  0
 36 37  1  0
 36 38  2  0
 28 29  1  0
 29 30  2  0
 22 23  2  0
 23 24  1  0
  1 39  1  0
 39 40  1  0
 40 41  2  0
 40 42  1  0
 40 44  1  0
 44 45  2  0
 45 46  1  0
 46 47  2  0
 47 48  1  0
 47 49  1  0
 49 50  2  0
 13 14  1  0
 14 15  1  0
 14 16  2  0
 24 20  1  0
 50 44  1  0
 30 25  1  0
 38 31  1  0
  8 11  1  0
  2  5  1  0
 42 43  1  0
 15 17  1  0
 15 18  1  0
M  END
> <minimizedAffinity>
-8.56009

> <CNNscore>
0.4533167481

> <CNNaffinity>
7.5235733986

> <CNN_VS>
3.4105618000

> <CNNaffinity_variance>
0.3039126694

$$$$
