


 26 27  0  0  0  0  0  0  0  0999 V2000
   33.7969   22.8219   27.7736 C   0  0  0  0  0  0  0  0  0  0  0  0
   33.6191   21.4324   28.0338 O   0  0  0  0  0  0  0  0  0  0  0  0
   32.2816   21.0019   27.6941 C   0  0  0  0  0  0  0  0  0  0  0  0
   31.8112   21.5846   26.3371 C   0  0  0  0  0  0  0  0  0  0  0  0
   30.9669   22.7136   26.6247 O   0  0  0  0  0  0  0  0  0  0  0  0
   33.0191   22.0263   25.4884 C   0  0  0  0  0  0  0  0  0  0  0  0
   33.8230   20.8954   25.1316 O   0  0  0  0  0  0  0  0  0  0  0  0
   33.8508   23.0830   26.2422 C   0  0  0  0  0  0  0  0  0  0  0  0
   33.3500   24.3933   25.9339 O   0  0  0  0  0  0  0  0  0  0  0  0
   31.4685   23.3718   27.1308 H   0  0  0  0  0  0  0  0  0  0  0  0
   34.1629   20.4736   25.9363 H   0  0  0  0  0  0  0  0  0  0  0  0
   32.4237   24.4596   26.2140 H   0  0  0  0  0  0  0  0  0  0  0  0
   34.1106   24.8837   29.6311 O   0  0  0  0  0  0  0  0  0  0  0  0
   35.0647   24.1469   29.4029 C   0  0  0  0  0  0  0  0  0  0  0  0
   35.0262   23.1584   28.4471 N   0  0  0  0  0  0  0  0  0  0  0  0
   35.8517   22.6727   28.2193 H   0  0  0  0  0  0  0  0  0  0  0  0
   36.3258   24.2772   30.1836 C   0  0  0  0  0  0  0  0  0  0  0  0
   37.2468   23.2261   30.2925 C   0  0  0  0  0  0  0  0  0  0  0  0
   38.4208   23.3990   31.0333 C   0  0  0  0  0  0  0  0  0  0  0  0
   38.6770   24.6197   31.6574 C   0  0  0  0  0  0  0  0  0  0  0  0
   40.1217   24.8264   32.5671 Cl  0  0  0  0  0  0  0  0  0  0  0  0
   37.7734   25.6743   31.5427 C   0  0  0  0  0  0  0  0  0  0  0  0
   36.6002   25.5049   30.8023 C   0  0  0  0  0  0  0  0  0  0  0  0
   32.2707   19.4673   27.7053 C   0  0  0  0  0  0  0  0  0  0  0  0
   30.9502   18.9415   27.6950 O   0  0  0  0  0  0  0  0  0  0  0  0
   30.4786   19.2361   28.4898 H   0  0  0  0  0  0  0  0  0  0  0  0
 13 14  2  0
 14 15  1  0
  1 15  1  0
  1  2  1  0
  2  3  1  0
  3 24  1  0
 24 25  1  0
  3  4  1  0
  4  5  1  0
  4  6  1  0
  6  7  1  0
  6  8  1  0
  8  9  1  0
 14 17  1  0
 17 18  2  0
 18 19  1  0
 19 20  2  0
 20 21  1  0
 20 22  1  0
 22 23  2  0
  8  1  1  0
 23 17  1  0
 15 16  1  0
 25 26  1  0
  5 10  1  0
  7 11  1  0
  9 12  1  0
M  END
> <minimizedAffinity>
-9.07173

> <CNNscore>
0.9106273651

> <CNNaffinity>
4.3253798485

> <CNN_VS>
3.9388091564

> <CNNaffinity_variance>
0.5049073100

$$$$



 26 27  0  0  0  0  0  0  0  0999 V2000
   32.6597   20.4864   26.3324 C   0  0  0  0  0  0  0  0  0  0  0  0
   33.7864   21.3585   26.3222 O   0  0  0  0  0  0  0  0  0  0  0  0
   33.5308   22.5365   25.5242 C   0  0  0  0  0  0  0  0  0  0  0  0
   32.1211   23.1233   25.7902 C   0  0  0  0  0  0  0  0  0  0  0  0
   31.2632   22.6783   24.7243 O   0  0  0  0  0  0  0  0  0  0  0  0
   31.5784   22.6372   27.1480 C   0  0  0  0  0  0  0  0  0  0  0  0
   32.3831   23.1417   28.2206 O   0  0  0  0  0  0  0  0  0  0  0  0
   31.5102   21.0975   27.1819 C   0  0  0  0  0  0  0  0  0  0  0  0
   30.2320   20.6654   26.6897 O   0  0  0  0  0  0  0  0  0  0  0  0
   31.2397   21.7087   24.7117 H   0  0  0  0  0  0  0  0  0  0  0  0
   33.2903   22.8114   28.1272 H   0  0  0  0  0  0  0  0  0  0  0  0
   30.1185   20.9681   25.7752 H   0  0  0  0  0  0  0  0  0  0  0  0
   32.3364   19.6255   28.9695 O   0  0  0  0  0  0  0  0  0  0  0  0
   32.8935   18.8792   28.1708 C   0  0  0  0  0  0  0  0  0  0  0  0
   33.1674   19.2512   26.8752 N   0  0  0  0  0  0  0  0  0  0  0  0
   33.7192   18.6643   26.3092 H   0  0  0  0  0  0  0  0  0  0  0  0
   33.2850   17.4992   28.5701 C   0  0  0  0  0  0  0  0  0  0  0  0
   33.7917   16.5723   27.6487 C   0  0  0  0  0  0  0  0  0  0  0  0
   34.1508   15.2888   28.0736 C   0  0  0  0  0  0  0  0  0  0  0  0
   34.0105   14.9348   29.4153 C   0  0  0  0  0  0  0  0  0  0  0  0
   34.4532   13.3553   29.9319 Cl  0  0  0  0  0  0  0  0  0  0  0  0
   33.5206   15.8546   30.3404 C   0  0  0  0  0  0  0  0  0  0  0  0
   33.1621   17.1380   29.9191 C   0  0  0  0  0  0  0  0  0  0  0  0
   34.6481   23.5471   25.8168 C   0  0  0  0  0  0  0  0  0  0  0  0
   34.1370   24.7938   26.2694 O   0  0  0  0  0  0  0  0  0  0  0  0
   33.5743   25.1816   25.5810 H   0  0  0  0  0  0  0  0  0  0  0  0
 13 14  2  0
 14 15  1  0
  1 15  1  0
  1  2  1  0
  2  3  1  0
  3 24  1  0
 24 25  1  0
  3  4  1  0
  4  5  1  0
  4  6  1  0
  6  7  1  0
  6  8  1  0
  8  9  1  0
 14 17  1  0
 17 18  2  0
 18 19  1  0
 19 20  2  0
 20 21  1  0
 20 22  1  0
 22 23  2  0
  8  1  1  0
 23 17  1  0
 15 16  1  0
 25 26  1  0
  5 10  1  0
  7 11  1  0
  9 12  1  0
M  END
> <minimizedAffinity>
19.17280

> <CNNscore>
0.7329940796

> <CNNaffinity>
4.5356097221

> <CNN_VS>
3.3245751858

> <CNNaffinity_variance>
0.3590855896

$$$$



 26 27  0  0  0  0  0  0  0  0999 V2000
   32.9796   23.3335   28.1383 C   0  0  0  0  0  0  0  0  0  0  0  0
   32.9983   21.9346   28.4079 O   0  0  0  0  0  0  0  0  0  0  0  0
   32.0072   21.2354   27.6214 C   0  0  0  0  0  0  0  0  0  0  0  0
   31.9836   21.7230   26.1503 C   0  0  0  0  0  0  0  0  0  0  0  0
   30.8858   22.6440   26.0214 O   0  0  0  0  0  0  0  0  0  0  0  0
   33.3090   22.4212   25.7889 C   0  0  0  0  0  0  0  0  0  0  0  0
   34.3971   21.4906   25.8390 O   0  0  0  0  0  0  0  0  0  0  0  0
   33.5602   23.6200   26.7250 C   0  0  0  0  0  0  0  0  0  0  0  0
   32.9633   24.7986   26.1618 O   0  0  0  0  0  0  0  0  0  0  0  0
   31.0135   23.3868   26.6321 H   0  0  0  0  0  0  0  0  0  0  0  0
   34.4814   21.1398   26.7394 H   0  0  0  0  0  0  0  0  0  0  0  0
   32.0073   24.6638   26.0683 H   0  0  0  0  0  0  0  0  0  0  0  0
   31.9588   24.7692   30.3054 O   0  0  0  0  0  0  0  0  0  0  0  0
   33.1638   24.5417   30.2652 C   0  0  0  0  0  0  0  0  0  0  0  0
   33.7646   23.9136   29.1991 N   0  0  0  0  0  0  0  0  0  0  0  0
   34.7468   23.8593   29.1600 H   0  0  0  0  0  0  0  0  0  0  0  0
   34.0446   24.9223   31.4037 C   0  0  0  0  0  0  0  0  0  0  0  0
   33.5821   24.9510   32.7266 C   0  0  0  0  0  0  0  0  0  0  0  0
   34.4500   25.3101   33.7632 C   0  0  0  0  0  0  0  0  0  0  0  0
   35.7770   25.6328   33.4801 C   0  0  0  0  0  0  0  0  0  0  0  0
   36.8394   26.0739   34.7585 Cl  0  0  0  0  0  0  0  0  0  0  0  0
   36.2486   25.5933   32.1694 C   0  0  0  0  0  0  0  0  0  0  0  0
   35.3842   25.2338   31.1319 C   0  0  0  0  0  0  0  0  0  0  0  0
   32.3006   19.7332   27.7335 C   0  0  0  0  0  0  0  0  0  0  0  0
   31.1111   18.9552   27.7470 O   0  0  0  0  0  0  0  0  0  0  0  0
   30.5738   19.1994   28.5168 H   0  0  0  0  0  0  0  0  0  0  0  0
 13 14  2  0
 14 15  1  0
  1 15  1  0
  1  2  1  0
  2  3  1  0
  3 24  1  0
 24 25  1  0
  3  4  1  0
  4  5  1  0
  4  6  1  0
  6  7  1  0
  6  8  1  0
  8  9  1  0
 14 17  1  0
 17 18  2  0
 18 19  1  0
 19 20  2  0
 20 21  1  0
 20 22  1  0
 22 23  2  0
  8  1  1  0
 23 17  1  0
 15 16  1  0
 25 26  1  0
  5 10  1  0
  7 11  1  0
  9 12  1  0
M  END
> <minimizedAffinity>
-9.35116

> <CNNscore>
0.4914623201

> <CNNaffinity>
3.9789588451

> <CNN_VS>
1.9555083513

> <CNNaffinity_variance>
0.3472660482

$$$$



 26 27  0  0  0  0  0  0  0  0999 V2000
   34.0657   23.2779   26.8948 C   0  0  0  0  0  0  0  0  0  0  0  0
   32.8709   23.9924   27.1981 O   0  0  0  0  0  0  0  0  0  0  0  0
   31.8803   23.8234   26.1591 C   0  0  0  0  0  0  0  0  0  0  0  0
   31.7825   22.3513   25.6840 C   0  0  0  0  0  0  0  0  0  0  0  0
   32.5327   22.2445   24.4611 O   0  0  0  0  0  0  0  0  0  0  0  0
   32.3610   21.3983   26.7479 C   0  0  0  0  0  0  0  0  0  0  0  0
   31.5718   21.4408   27.9429 O   0  0  0  0  0  0  0  0  0  0  0  0
   33.8333   21.7480   27.0421 C   0  0  0  0  0  0  0  0  0  0  0  0
   34.6855   21.0177   26.1459 O   0  0  0  0  0  0  0  0  0  0  0  0
   33.4550   22.4968   24.6245 H   0  0  0  0  0  0  0  0  0  0  0  0
   31.5867   22.3392   28.3084 H   0  0  0  0  0  0  0  0  0  0  0  0
   34.4778   21.2628   25.2306 H   0  0  0  0  0  0  0  0  0  0  0  0
   33.8206   23.2364   29.6765 O   0  0  0  0  0  0  0  0  0  0  0  0
   34.8607   23.6610   29.1836 C   0  0  0  0  0  0  0  0  0  0  0  0
   35.0379   23.7933   27.8259 N   0  0  0  0  0  0  0  0  0  0  0  0
   35.8419   24.2475   27.4846 H   0  0  0  0  0  0  0  0  0  0  0  0
   36.0110   24.0378   30.0507 C   0  0  0  0  0  0  0  0  0  0  0  0
   37.1502   23.2298   30.1701 C   0  0  0  0  0  0  0  0  0  0  0  0
   38.2079   23.6297   30.9936 C   0  0  0  0  0  0  0  0  0  0  0  0
   38.1307   24.8356   31.6901 C   0  0  0  0  0  0  0  0  0  0  0  0
   39.4339   25.3219   32.7014 Cl  0  0  0  0  0  0  0  0  0  0  0  0
   37.0078   25.6514   31.5662 C   0  0  0  0  0  0  0  0  0  0  0  0
   35.9501   25.2551   30.7433 C   0  0  0  0  0  0  0  0  0  0  0  0
   30.5448   24.3518   26.7001 C   0  0  0  0  0  0  0  0  0  0  0  0
   30.7075   25.0749   27.9130 O   0  0  0  0  0  0  0  0  0  0  0  0
   31.0786   24.4892   28.5913 H   0  0  0  0  0  0  0  0  0  0  0  0
 13 14  2  0
 14 15  1  0
  1 15  1  0
  1  2  1  0
  2  3  1  0
  3 24  1  0
 24 25  1  0
  3  4  1  0
  4  5  1  0
  4  6  1  0
  6  7  1  0
  6  8  1  0
  8  9  1  0
 14 17  1  0
 17 18  2  0
 18 19  1  0
 19 20  2  0
 20 21  1  0
 20 22  1  0
 22 23  2  0
  8  1  1  0
 23 17  1  0
 15 16  1  0
 25 26  1  0
  5 10  1  0
  7 11  1  0
  9 12  1  0
M  END
> <minimizedAffinity>
-7.96863

> <CNNscore>
0.4100124538

> <CNNaffinity>
4.5810780525

> <CNN_VS>
1.8782989979

> <CNNaffinity_variance>
0.3398175538

$$$$



 26 27  0  0  0  0  0  0  0  0999 V2000
   37.3340   25.3249   31.8420 C   0  0  0  0  0  0  0  0  0  0  0  0
   37.4727   25.6791   33.2151 O   0  0  0  0  0  0  0  0  0  0  0  0
   36.3731   26.5068   33.6572 C   0  0  0  0  0  0  0  0  0  0  0  0
   35.0080   25.9812   33.1446 C   0  0  0  0  0  0  0  0  0  0  0  0
   34.6468   26.7724   31.9985 O   0  0  0  0  0  0  0  0  0  0  0  0
   35.1115   24.4943   32.7534 C   0  0  0  0  0  0  0  0  0  0  0  0
   35.3939   23.6902   33.9049 O   0  0  0  0  0  0  0  0  0  0  0  0
   36.1822   24.2967   31.6621 C   0  0  0  0  0  0  0  0  0  0  0  0
   35.5759   24.4368   30.3677 O   0  0  0  0  0  0  0  0  0  0  0  0
   35.3313   26.6852   31.3168 H   0  0  0  0  0  0  0  0  0  0  0  0
   36.2451   23.9577   34.2853 H   0  0  0  0  0  0  0  0  0  0  0  0
   35.1965   25.3254   30.2828 H   0  0  0  0  0  0  0  0  0  0  0  0
   39.7627   26.0210   33.0324 O   0  0  0  0  0  0  0  0  0  0  0  0
   39.7583   25.1469   32.1714 C   0  0  0  0  0  0  0  0  0  0  0  0
   38.6244   24.7969   31.4759 N   0  0  0  0  0  0  0  0  0  0  0  0
   38.6952   24.1755   30.7156 H   0  0  0  0  0  0  0  0  0  0  0  0
   41.0020   24.3935   31.8508 C   0  0  0  0  0  0  0  0  0  0  0  0
   41.9850   24.1330   32.8155 C   0  0  0  0  0  0  0  0  0  0  0  0
   43.1343   23.4159   32.4667 C   0  0  0  0  0  0  0  0  0  0  0  0
   43.2978   22.9548   31.1606 C   0  0  0  0  0  0  0  0  0  0  0  0
   44.7130   22.0740   30.7375 Cl  0  0  0  0  0  0  0  0  0  0  0  0
   42.3190   23.1974   30.1989 C   0  0  0  0  0  0  0  0  0  0  0  0
   41.1693   23.9126   30.5447 C   0  0  0  0  0  0  0  0  0  0  0  0
   36.4326   26.5790   35.1890 C   0  0  0  0  0  0  0  0  0  0  0  0
   35.1584   26.3726   35.7843 O   0  0  0  0  0  0  0  0  0  0  0  0
   34.5477   27.0661   35.4893 H   0  0  0  0  0  0  0  0  0  0  0  0
 13 14  2  0
 14 15  1  0
  1 15  1  0
  1  2  1  0
  2  3  1  0
  3 24  1  0
 24 25  1  0
  3  4  1  0
  4  5  1  0
  4  6  1  0
  6  7  1  0
  6  8  1  0
  8  9  1  0
 14 17  1  0
 17 18  2  0
 18 19  1  0
 19 20  2  0
 20 21  1  0
 20 22  1  0
 22 23  2  0
  8  1  1  0
 23 17  1  0
 15 16  1  0
 25 26  1  0
  5 10  1  0
  7 11  1  0
  9 12  1  0
M  END
> <minimizedAffinity>
-2.94908

> <CNNscore>
0.3800685406

> <CNNaffinity>
4.0323548317

> <CNN_VS>
1.5325711966

> <CNNaffinity_variance>
0.3488461971

$$$$



 26 27  0  0  0  0  0  0  0  0999 V2000
   30.5488   23.3905   26.3162 C   0  0  0  0  0  0  0  0  0  0  0  0
   30.4227   21.9873   26.5291 O   0  0  0  0  0  0  0  0  0  0  0  0
   31.3261   21.2445   25.6796 C   0  0  0  0  0  0  0  0  0  0  0  0
   32.7390   21.8803   25.6380 C   0  0  0  0  0  0  0  0  0  0  0  0
   32.8293   22.6455   24.4229 O   0  0  0  0  0  0  0  0  0  0  0  0
   32.9590   22.7938   26.8594 C   0  0  0  0  0  0  0  0  0  0  0  0
   32.9485   22.0264   28.0691 O   0  0  0  0  0  0  0  0  0  0  0  0
   31.8939   23.9075   26.8992 C   0  0  0  0  0  0  0  0  0  0  0  0
   32.3638   25.0440   26.1574 O   0  0  0  0  0  0  0  0  0  0  0  0
   32.1404   23.3282   24.4188 H   0  0  0  0  0  0  0  0  0  0  0  0
   32.0855   21.5956   28.1713 H   0  0  0  0  0  0  0  0  0  0  0  0
   32.5193   24.7864   25.2352 H   0  0  0  0  0  0  0  0  0  0  0  0
   27.8897   22.8831   25.6296 O   0  0  0  0  0  0  0  0  0  0  0  0
   28.1210   23.5892   26.6059 C   0  0  0  0  0  0  0  0  0  0  0  0
   29.3955   23.9573   26.9695 N   0  0  0  0  0  0  0  0  0  0  0  0
   29.5222   24.6187   27.6876 H   0  0  0  0  0  0  0  0  0  0  0  0
   27.0102   24.0698   27.4731 C   0  0  0  0  0  0  0  0  0  0  0  0
   26.8757   25.4177   27.8334 C   0  0  0  0  0  0  0  0  0  0  0  0
   25.8114   25.8214   28.6463 C   0  0  0  0  0  0  0  0  0  0  0  0
   24.8809   24.8831   29.0923 C   0  0  0  0  0  0  0  0  0  0  0  0
   23.5745   25.3851   30.0918 Cl  0  0  0  0  0  0  0  0  0  0  0  0
   24.9992   23.5434   28.7274 C   0  0  0  0  0  0  0  0  0  0  0  0
   26.0609   23.1373   27.9144 C   0  0  0  0  0  0  0  0  0  0  0  0
   31.3530   19.7956   26.1848 C   0  0  0  0  0  0  0  0  0  0  0  0
   31.1454   19.7145   27.5887 O   0  0  0  0  0  0  0  0  0  0  0  0
   31.8547   20.1904   28.0484 H   0  0  0  0  0  0  0  0  0  0  0  0
 13 14  2  0
 14 15  1  0
  1 15  1  0
  1  2  1  0
  2  3  1  0
  3 24  1  0
 24 25  1  0
  3  4  1  0
  4  5  1  0
  4  6  1  0
  6  7  1  0
  6  8  1  0
  8  9  1  0
 14 17  1  0
 17 18  2  0
 18 19  1  0
 19 20  2  0
 20 21  1  0
 20 22  1  0
 22 23  2  0
  8  1  1  0
 23 17  1  0
 15 16  1  0
 25 26  1  0
  5 10  1  0
  7 11  1  0
  9 12  1  0
M  END
> <minimizedAffinity>
-7.54520

> <CNNscore>
0.3591830730

> <CNNaffinity>
4.6322526932

> <CNN_VS>
1.6638267040

> <CNNaffinity_variance>
0.0909797624

$$$$



 26 27  0  0  0  0  0  0  0  0999 V2000
   32.7154   23.4795   28.0578 C   0  0  0  0  0  0  0  0  0  0  0  0
   32.3631   22.0990   28.0625 O   0  0  0  0  0  0  0  0  0  0  0  0
   31.5303   21.7661   26.9288 C   0  0  0  0  0  0  0  0  0  0  0  0
   32.0488   22.4110   25.6182 C   0  0  0  0  0  0  0  0  0  0  0  0
   31.2550   23.5860   25.3752 O   0  0  0  0  0  0  0  0  0  0  0  0
   33.5359   22.7921   25.7525 C   0  0  0  0  0  0  0  0  0  0  0  0
   34.3424   21.6194   25.9165 O   0  0  0  0  0  0  0  0  0  0  0  0
   33.7379   23.7731   26.9244 C   0  0  0  0  0  0  0  0  0  0  0  0
   33.5937   25.1207   26.4489 O   0  0  0  0  0  0  0  0  0  0  0  0
   31.3449   24.1973   26.1229 H   0  0  0  0  0  0  0  0  0  0  0  0
   34.0793   21.1569   26.7275 H   0  0  0  0  0  0  0  0  0  0  0  0
   32.7032   25.2413   26.0840 H   0  0  0  0  0  0  0  0  0  0  0  0
   35.3528   24.2002   28.6272 O   0  0  0  0  0  0  0  0  0  0  0  0
   34.5465   24.1410   29.5500 C   0  0  0  0  0  0  0  0  0  0  0  0
   33.2494   23.7178   29.3754 N   0  0  0  0  0  0  0  0  0  0  0  0
   32.6764   23.5752   30.1631 H   0  0  0  0  0  0  0  0  0  0  0  0
   34.9379   24.5562   30.9253 C   0  0  0  0  0  0  0  0  0  0  0  0
   34.0030   25.0344   31.8538 C   0  0  0  0  0  0  0  0  0  0  0  0
   34.4189   25.4073   33.1362 C   0  0  0  0  0  0  0  0  0  0  0  0
   35.7629   25.2966   33.4921 C   0  0  0  0  0  0  0  0  0  0  0  0
   36.2686   25.7568   35.0700 Cl  0  0  0  0  0  0  0  0  0  0  0  0
   36.6966   24.8091   32.5797 C   0  0  0  0  0  0  0  0  0  0  0  0
   36.2838   24.4347   31.2981 C   0  0  0  0  0  0  0  0  0  0  0  0
   31.4597   20.2357   26.8378 C   0  0  0  0  0  0  0  0  0  0  0  0
   31.2817   19.7869   25.5009 O   0  0  0  0  0  0  0  0  0  0  0  0
   30.4450   20.1325   25.1525 H   0  0  0  0  0  0  0  0  0  0  0  0
 13 14  2  0
 14 15  1  0
  1 15  1  0
  1  2  1  0
  2  3  1  0
  3 24  1  0
 24 25  1  0
  3  4  1  0
  4  5  1  0
  4  6  1  0
  6  7  1  0
  6  8  1  0
  8  9  1  0
 14 17  1  0
 17 18  2  0
 18 19  1  0
 19 20  2  0
 20 21  1  0
 20 22  1  0
 22 23  2  0
  8  1  1  0
 23 17  1  0
 15 16  1  0
 25 26  1  0
  5 10  1  0
  7 11  1  0
  9 12  1  0
M  END
> <minimizedAffinity>
-9.29748

> <CNNscore>
0.3535352051

> <CNNaffinity>
3.9398515224

> <CNN_VS>
1.3928762674

> <CNNaffinity_variance>
0.6150934696

$$$$



 26 27  0  0  0  0  0  0  0  0999 V2000
   34.1996   22.1143   26.4405 C   0  0  0  0  0  0  0  0  0  0  0  0
   32.9426   22.1399   25.7703 O   0  0  0  0  0  0  0  0  0  0  0  0
   31.9939   21.2494   26.4000 C   0  0  0  0  0  0  0  0  0  0  0  0
   32.0306   21.3607   27.9455 C   0  0  0  0  0  0  0  0  0  0  0  0
   32.8153   20.2592   28.4363 O   0  0  0  0  0  0  0  0  0  0  0  0
   32.6619   22.6981   28.3783 C   0  0  0  0  0  0  0  0  0  0  0  0
   31.8445   23.7981   27.9606 O   0  0  0  0  0  0  0  0  0  0  0  0
   34.0926   22.8256   27.8186 C   0  0  0  0  0  0  0  0  0  0  0  0
   35.0234   22.2595   28.7544 O   0  0  0  0  0  0  0  0  0  0  0  0
   33.7093   20.3073   28.0628 H   0  0  0  0  0  0  0  0  0  0  0  0
   31.7757   23.8007   26.9931 H   0  0  0  0  0  0  0  0  0  0  0  0
   34.8173   21.3211   28.8879 H   0  0  0  0  0  0  0  0  0  0  0  0
   34.3899   24.8764   26.0741 O   0  0  0  0  0  0  0  0  0  0  0  0
   35.1749   24.1478   25.4757 C   0  0  0  0  0  0  0  0  0  0  0  0
   35.1035   22.7753   25.5328 N   0  0  0  0  0  0  0  0  0  0  0  0
   35.6792   22.2356   24.9441 H   0  0  0  0  0  0  0  0  0  0  0  0
   36.2783   24.7294   24.6625 C   0  0  0  0  0  0  0  0  0  0  0  0
   36.5088   26.1106   24.5987 C   0  0  0  0  0  0  0  0  0  0  0  0
   37.5621   26.6087   23.8246 C   0  0  0  0  0  0  0  0  0  0  0  0
   38.3864   25.7297   23.1222 C   0  0  0  0  0  0  0  0  0  0  0  0
   39.6796   26.3478   22.1718 Cl  0  0  0  0  0  0  0  0  0  0  0  0
   38.1728   24.3545   23.1912 C   0  0  0  0  0  0  0  0  0  0  0  0
   37.1220   23.8538   23.9647 C   0  0  0  0  0  0  0  0  0  0  0  0
   30.6068   21.5665   25.8250 C   0  0  0  0  0  0  0  0  0  0  0  0
   30.2468   22.9282   26.0162 O   0  0  0  0  0  0  0  0  0  0  0  0
   30.2138   23.1236   26.9658 H   0  0  0  0  0  0  0  0  0  0  0  0
 13 14  2  0
 14 15  1  0
  1 15  1  0
  1  2  1  0
  2  3  1  0
  3 24  1  0
 24 25  1  0
  3  4  1  0
  4  5  1  0
  4  6  1  0
  6  7  1  0
  6  8  1  0
  8  9  1  0
 14 17  1  0
 17 18  2  0
 18 19  1  0
 19 20  2  0
 20 21  1  0
 20 22  1  0
 22 23  2  0
  8  1  1  0
 23 17  1  0
 15 16  1  0
 25 26  1  0
  5 10  1  0
  7 11  1  0
  9 12  1  0
M  END
> <minimizedAffinity>
3.30360

> <CNNscore>
0.3144192994

> <CNNaffinity>
4.0521202087

> <CNN_VS>
1.2740647793

> <CNNaffinity_variance>
0.3603962958

$$$$



 26 27  0  0  0  0  0  0  0  0999 V2000
   39.4174   26.1041   33.1716 C   0  0  0  0  0  0  0  0  0  0  0  0
   39.8522   26.4622   34.4804 O   0  0  0  0  0  0  0  0  0  0  0  0
   39.2026   27.6701   34.9370 C   0  0  0  0  0  0  0  0  0  0  0  0
   37.6862   27.6707   34.6161 C   0  0  0  0  0  0  0  0  0  0  0  0
   37.4985   28.4684   33.4335 O   0  0  0  0  0  0  0  0  0  0  0  0
   37.1822   26.2347   34.3746 C   0  0  0  0  0  0  0  0  0  0  0  0
   37.2933   25.4552   35.5715 O   0  0  0  0  0  0  0  0  0  0  0  0
   37.9545   25.5801   33.2121 C   0  0  0  0  0  0  0  0  0  0  0  0
   37.2818   25.8603   31.9745 O   0  0  0  0  0  0  0  0  0  0  0  0
   38.0087   28.0871   32.7020 H   0  0  0  0  0  0  0  0  0  0  0  0
   38.2245   25.4029   35.8380 H   0  0  0  0  0  0  0  0  0  0  0  0
   37.2497   26.8196   31.8339 H   0  0  0  0  0  0  0  0  0  0  0  0
   39.5702   25.0262   30.5998 O   0  0  0  0  0  0  0  0  0  0  0  0
   40.4079   24.6886   31.4302 C   0  0  0  0  0  0  0  0  0  0  0  0
   40.3630   25.1053   32.7403 N   0  0  0  0  0  0  0  0  0  0  0  0
   40.9870   24.7150   33.3942 H   0  0  0  0  0  0  0  0  0  0  0  0
   41.5482   23.8131   31.0428 C   0  0  0  0  0  0  0  0  0  0  0  0
   41.5790   23.1265   29.8211 C   0  0  0  0  0  0  0  0  0  0  0  0
   42.6757   22.3197   29.4999 C   0  0  0  0  0  0  0  0  0  0  0  0
   43.7408   22.2045   30.3929 C   0  0  0  0  0  0  0  0  0  0  0  0
   45.0862   21.2109   29.9928 Cl  0  0  0  0  0  0  0  0  0  0  0  0
   43.7245   22.8946   31.6034 C   0  0  0  0  0  0  0  0  0  0  0  0
   42.6308   23.7023   31.9266 C   0  0  0  0  0  0  0  0  0  0  0  0
   39.4809   27.8074   36.4400 C   0  0  0  0  0  0  0  0  0  0  0  0
   39.8391   29.1354   36.7987 O   0  0  0  0  0  0  0  0  0  0  0  0
   40.6521   29.3878   36.3336 H   0  0  0  0  0  0  0  0  0  0  0  0
 13 14  2  0
 14 15  1  0
  1 15  1  0
  1  2  1  0
  2  3  1  0
  3 24  1  0
 24 25  1  0
  3  4  1  0
  4  5  1  0
  4  6  1  0
  6  7  1  0
  6  8  1  0
  8  9  1  0
 14 17  1  0
 17 18  2  0
 18 19  1  0
 19 20  2  0
 20 21  1  0
 20 22  1  0
 22 23  2  0
  8  1  1  0
 23 17  1  0
 15 16  1  0
 25 26  1  0
  5 10  1  0
  7 11  1  0
  9 12  1  0
M  END
> <minimizedAffinity>
-2.16947

> <CNNscore>
0.2212006301

> <CNNaffinity>
3.7966098785

> <CNN_VS>
0.8398125172

> <CNNaffinity_variance>
0.9718915820

$$$$
