


 29 31  0  0  0  0  0  0  0  0999 V2000
    2.8333  -10.2743   -5.5096 C   0  0  0  0  0  0  0  0  0  0  0  0
    1.7727  -10.1534   -6.4208 C   0  0  0  0  0  0  0  0  0  0  0  0
    1.9469  -10.4831   -7.7678 C   0  0  0  0  0  0  0  0  0  0  0  0
    0.5749  -10.3335   -8.8104 Cl  0  0  0  0  0  0  0  0  0  0  0  0
    3.1917  -10.9325   -8.2411 C   0  0  0  0  0  0  0  0  0  0  0  0
    4.2521  -11.0342   -7.3205 C   0  0  0  0  0  0  0  0  0  0  0  0
    4.0830  -10.7046   -5.9677 C   0  0  0  0  0  0  0  0  0  0  0  0
    5.6286  -10.8181   -4.8695 Br  0  0  0  0  0  0  0  0  0  0  0  0
    3.4344  -11.2869   -9.6467 C   0  0  0  0  0  0  0  0  0  0  0  0
    4.7326  -11.5574  -10.1027 C   0  0  0  0  0  0  0  0  0  0  0  0
    4.9727  -11.8858  -11.4429 C   0  0  0  0  0  0  0  0  0  0  0  0
    3.9203  -11.9495  -12.3636 C   0  0  0  0  0  0  0  0  0  0  0  0
    4.1145  -12.2913  -13.7906 C   0  0  0  0  0  0  0  0  0  0  0  0
    5.4886  -12.5916  -14.3119 C   0  0  0  0  0  0  0  0  0  0  0  0
    3.0419  -12.3272  -14.6005 C   0  0  0  0  0  0  0  0  0  0  0  0
    1.6728  -12.0380  -14.1173 C   0  0  0  0  0  0  0  0  0  0  0  0
    0.7149  -12.0773  -14.8813 O   0  0  0  0  0  0  0  0  0  0  0  0
    1.5431  -11.7286  -12.7945 N   0  0  0  0  0  0  0  0  0  0  0  0
    2.6217  -11.6756  -11.9032 C   0  0  0  0  0  0  0  0  0  0  0  0
    2.3779  -11.3474  -10.5661 C   0  0  0  0  0  0  0  0  0  0  0  0
    0.6427  -11.5322  -12.4483 H   0  0  0  0  0  0  0  0  0  0  0  0
    2.7914   -8.6056   -3.7336 N   0  0  0  0  0  0  0  0  0  0  0  0
    2.5240   -9.9021   -4.1060 C   0  0  0  0  0  0  0  0  0  0  0  0
    2.1126  -10.7590   -3.3333 O   0  0  0  0  0  0  0  0  0  0  0  0
    3.1910   -7.9907   -4.3904 H   0  0  0  0  0  0  0  0  0  0  0  0
    2.4997   -8.1202   -2.3970 C   0  0  0  0  0  0  0  0  0  0  0  0
    3.1907   -6.7916   -2.0726 C   0  0  0  0  0  0  0  0  0  0  0  0
    1.5491   -6.6544   -0.3572 C   0  0  0  0  0  0  0  0  0  0  0  0
    2.3489   -5.9410   -1.2900 O   0  0  0  0  0  0  0  0  0  0  0  0
 28 29  1  0
 29 27  1  0
 27 26  1  0
 26 22  1  0
 22 23  1  0
 23 24  2  0
 23  1  1  0
  1  2  2  0
  2  3  1  0
  3  4  1  0
  3  5  2  0
  5  9  1  0
  9 10  2  0
 10 11  1  0
 11 12  2  0
 12 13  1  0
 13 14  1  0
 13 15  2  0
 15 16  1  0
 16 17  2  0
 16 18  1  0
 18 19  1  0
 19 20  2  0
  5  6  1  0
  6  7  2  0
  7  8  1  0
  7  1  1  0
 20  9  1  0
 19 12  1  0
 22 25  1  0
 18 21  1  0
M  END
> <minimizedAffinity>
-10.88909

> <CNNscore>
0.8862214684

> <CNNaffinity>
7.5200734138

> <CNN_VS>
6.6644506454

> <CNNaffinity_variance>
0.0034363959

$$$$



 29 31  0  0  0  0  0  0  0  0999 V2000
    2.7525  -10.3522   -5.5677 C   0  0  0  0  0  0  0  0  0  0  0  0
    1.6895  -10.2943   -6.4823 C   0  0  0  0  0  0  0  0  0  0  0  0
    1.8853  -10.6214   -7.8269 C   0  0  0  0  0  0  0  0  0  0  0  0
    0.5102  -10.5525   -8.8740 Cl  0  0  0  0  0  0  0  0  0  0  0  0
    3.1541  -11.0050   -8.2945 C   0  0  0  0  0  0  0  0  0  0  0  0
    4.2158  -11.0437   -7.3706 C   0  0  0  0  0  0  0  0  0  0  0  0
    4.0250  -10.7164   -6.0201 C   0  0  0  0  0  0  0  0  0  0  0  0
    5.5714  -10.7395   -4.9172 Br  0  0  0  0  0  0  0  0  0  0  0  0
    3.4199  -11.3534   -9.6974 C   0  0  0  0  0  0  0  0  0  0  0  0
    4.7321  -11.5551  -10.1485 C   0  0  0  0  0  0  0  0  0  0  0  0
    4.9937  -11.8774  -11.4862 C   0  0  0  0  0  0  0  0  0  0  0  0
    3.9490  -12.0035  -12.4092 C   0  0  0  0  0  0  0  0  0  0  0  0
    4.1656  -12.3421  -13.8338 C   0  0  0  0  0  0  0  0  0  0  0  0
    5.5555  -12.5699  -14.3498 C   0  0  0  0  0  0  0  0  0  0  0  0
    3.0989  -12.4410  -14.6462 C   0  0  0  0  0  0  0  0  0  0  0  0
    1.7147  -12.2243  -14.1682 C   0  0  0  0  0  0  0  0  0  0  0  0
    0.7625  -12.3201  -14.9343 O   0  0  0  0  0  0  0  0  0  0  0  0
    1.5645  -11.9151  -12.8475 N   0  0  0  0  0  0  0  0  0  0  0  0
    2.6360  -11.7984  -11.9537 C   0  0  0  0  0  0  0  0  0  0  0  0
    2.3709  -11.4765  -10.6191 C   0  0  0  0  0  0  0  0  0  0  0  0
    0.6537  -11.7662  -12.5047 H   0  0  0  0  0  0  0  0  0  0  0  0
    2.3120  -11.0232   -3.2663 N   0  0  0  0  0  0  0  0  0  0  0  0
    2.4193   -9.9897   -4.1670 C   0  0  0  0  0  0  0  0  0  0  0  0
    2.1946   -8.8186   -3.8862 O   0  0  0  0  0  0  0  0  0  0  0  0
    2.4348  -11.9480   -3.5808 H   0  0  0  0  0  0  0  0  0  0  0  0
    2.0224  -10.7860   -1.8637 C   0  0  0  0  0  0  0  0  0  0  0  0
    1.9352  -12.0740   -1.0386 C   0  0  0  0  0  0  0  0  0  0  0  0
    0.2487  -13.7501   -0.9881 C   0  0  0  0  0  0  0  0  0  0  0  0
    1.2589  -13.1103   -1.7554 O   0  0  0  0  0  0  0  0  0  0  0  0
 28 29  1  0
 29 27  1  0
 27 26  1  0
 26 22  1  0
 22 23  1  0
 23 24  2  0
 23  1  1  0
  1  2  2  0
  2  3  1  0
  3  4  1  0
  3  5  2  0
  5  9  1  0
  9 10  2  0
 10 11  1  0
 11 12  2  0
 12 13  1  0
 13 14  1  0
 13 15  2  0
 15 16  1  0
 16 17  2  0
 16 18  1  0
 18 19  1  0
 19 20  2  0
  5  6  1  0
  6  7  2  0
  7  8  1  0
  7  1  1  0
 20  9  1  0
 19 12  1  0
 22 25  1  0
 18 21  1  0
M  END
> <minimizedAffinity>
-10.34050

> <CNNscore>
0.7763594985

> <CNNaffinity>
7.3893837929

> <CNN_VS>
5.7368183136

> <CNNaffinity_variance>
0.0787425414

$$$$



 29 31  0  0  0  0  0  0  0  0999 V2000
    2.5650  -10.7429   -6.3872 C   0  0  0  0  0  0  0  0  0  0  0  0
    3.0308   -9.7221   -7.2303 C   0  0  0  0  0  0  0  0  0  0  0  0
    3.2802   -9.9707   -8.5828 C   0  0  0  0  0  0  0  0  0  0  0  0
    3.8212   -8.6441   -9.5521 Cl  0  0  0  0  0  0  0  0  0  0  0  0
    3.0800  -11.2517   -9.1256 C   0  0  0  0  0  0  0  0  0  0  0  0
    2.6279  -12.2711   -8.2661 C   0  0  0  0  0  0  0  0  0  0  0  0
    2.3762  -12.0273   -6.9079 C   0  0  0  0  0  0  0  0  0  0  0  0
    1.8480  -13.5233   -5.8634 Br  0  0  0  0  0  0  0  0  0  0  0  0
    3.3316  -11.5724  -10.5377 C   0  0  0  0  0  0  0  0  0  0  0  0
    4.6193  -11.9133  -10.9757 C   0  0  0  0  0  0  0  0  0  0  0  0
    4.8685  -12.2101  -12.3216 C   0  0  0  0  0  0  0  0  0  0  0  0
    3.8360  -12.1710  -13.2660 C   0  0  0  0  0  0  0  0  0  0  0  0
    4.0406  -12.4751  -14.7001 C   0  0  0  0  0  0  0  0  0  0  0  0
    5.4035  -12.8486  -15.2029 C   0  0  0  0  0  0  0  0  0  0  0  0
    2.9872  -12.4106  -15.5332 C   0  0  0  0  0  0  0  0  0  0  0  0
    1.6294  -12.0473  -15.0688 C   0  0  0  0  0  0  0  0  0  0  0  0
    0.6891  -11.9956  -15.8536 O   0  0  0  0  0  0  0  0  0  0  0  0
    1.4895  -11.7762  -13.7386 N   0  0  0  0  0  0  0  0  0  0  0  0
    2.5480  -11.8268  -12.8234 C   0  0  0  0  0  0  0  0  0  0  0  0
    2.2953  -11.5297  -11.4807 C   0  0  0  0  0  0  0  0  0  0  0  0
    0.5962  -11.5319  -13.4045 H   0  0  0  0  0  0  0  0  0  0  0  0
    2.6757  -11.2745   -4.0111 N   0  0  0  0  0  0  0  0  0  0  0  0
    2.3296  -10.3552   -4.9734 C   0  0  0  0  0  0  0  0  0  0  0  0
    1.7898   -9.2838   -4.7256 O   0  0  0  0  0  0  0  0  0  0  0  0
    3.0379  -12.1467   -4.2893 H   0  0  0  0  0  0  0  0  0  0  0  0
    2.5208  -10.9923   -2.5956 C   0  0  0  0  0  0  0  0  0  0  0  0
    3.7077  -10.2293   -1.9983 C   0  0  0  0  0  0  0  0  0  0  0  0
    6.0768  -10.0214   -1.9852 C   0  0  0  0  0  0  0  0  0  0  0  0
    4.9511  -10.6990   -2.5258 O   0  0  0  0  0  0  0  0  0  0  0  0
 28 29  1  0
 29 27  1  0
 27 26  1  0
 26 22  1  0
 22 23  1  0
 23 24  2  0
 23  1  1  0
  1  2  2  0
  2  3  1  0
  3  4  1  0
  3  5  2  0
  5  9  1  0
  9 10  2  0
 10 11  1  0
 11 12  2  0
 12 13  1  0
 13 14  1  0
 13 15  2  0
 15 16  1  0
 16 17  2  0
 16 18  1  0
 18 19  1  0
 19 20  2  0
  5  6  1  0
  6  7  2  0
  7  8  1  0
  7  1  1  0
 20  9  1  0
 19 12  1  0
 22 25  1  0
 18 21  1  0
M  END
> <minimizedAffinity>
-9.13134

> <CNNscore>
0.5722448826

> <CNNaffinity>
7.1311049461

> <CNN_VS>
4.0807385445

> <CNNaffinity_variance>
0.0209683552

$$$$



 29 31  0  0  0  0  0  0  0  0999 V2000
    6.2976  -11.0990   -2.9483 C   0  0  0  0  0  0  0  0  0  0  0  0
    5.2038  -11.6224   -3.6551 C   0  0  0  0  0  0  0  0  0  0  0  0
    3.9036  -11.4899   -3.1597 C   0  0  0  0  0  0  0  0  0  0  0  0
    2.6152  -12.1377   -4.1149 Cl  0  0  0  0  0  0  0  0  0  0  0  0
    3.6646  -10.8389   -1.9371 C   0  0  0  0  0  0  0  0  0  0  0  0
    4.7716  -10.3325   -1.2297 C   0  0  0  0  0  0  0  0  0  0  0  0
    6.0785  -10.4627   -1.7221 C   0  0  0  0  0  0  0  0  0  0  0  0
    7.4705   -9.7984   -0.6134 Br  0  0  0  0  0  0  0  0  0  0  0  0
    2.3206  -10.6761   -1.3649 C   0  0  0  0  0  0  0  0  0  0  0  0
    1.8142  -11.6104   -0.4502 C   0  0  0  0  0  0  0  0  0  0  0  0
    0.5305  -11.4672    0.0914 C   0  0  0  0  0  0  0  0  0  0  0  0
   -0.2821  -10.3863   -0.2702 C   0  0  0  0  0  0  0  0  0  0  0  0
   -1.6454  -10.1841    0.2697 C   0  0  0  0  0  0  0  0  0  0  0  0
   -2.2171  -11.1608    1.2541 C   0  0  0  0  0  0  0  0  0  0  0  0
   -2.3519   -9.1151   -0.1375 C   0  0  0  0  0  0  0  0  0  0  0  0
   -1.8162   -8.1318   -1.1058 C   0  0  0  0  0  0  0  0  0  0  0  0
   -2.4860   -7.1677   -1.4588 O   0  0  0  0  0  0  0  0  0  0  0  0
   -0.5552   -8.3596   -1.5752 N   0  0  0  0  0  0  0  0  0  0  0  0
    0.2282   -9.4538   -1.1886 C   0  0  0  0  0  0  0  0  0  0  0  0
    1.5091   -9.5934   -1.7314 C   0  0  0  0  0  0  0  0  0  0  0  0
   -0.1759   -7.7201   -2.2205 H   0  0  0  0  0  0  0  0  0  0  0  0
    8.2823  -12.4707   -3.2950 N   0  0  0  0  0  0  0  0  0  0  0  0
    7.6272  -11.2954   -3.5791 C   0  0  0  0  0  0  0  0  0  0  0  0
    8.1080  -10.3981   -4.2606 O   0  0  0  0  0  0  0  0  0  0  0  0
    7.8652  -13.1153   -2.6789 H   0  0  0  0  0  0  0  0  0  0  0  0
    9.5729  -12.7854   -3.8802 C   0  0  0  0  0  0  0  0  0  0  0  0
    9.5908  -14.1288   -4.6169 C   0  0  0  0  0  0  0  0  0  0  0  0
   10.7423  -15.1851   -2.8240 C   0  0  0  0  0  0  0  0  0  0  0  0
    9.6261  -15.2273   -3.7021 O   0  0  0  0  0  0  0  0  0  0  0  0
 28 29  1  0
 29 27  1  0
 27 26  1  0
 26 22  1  0
 22 23  1  0
 23 24  2  0
 23  1  1  0
  1  2  2  0
  2  3  1  0
  3  4  1  0
  3  5  2  0
  5  9  1  0
  9 10  2  0
 10 11  1  0
 11 12  2  0
 12 13  1  0
 13 14  1  0
 13 15  2  0
 15 16  1  0
 16 17  2  0
 16 18  1  0
 18 19  1  0
 19 20  2  0
  5  6  1  0
  6  7  2  0
  7  8  1  0
  7  1  1  0
 20  9  1  0
 19 12  1  0
 22 25  1  0
 18 21  1  0
M  END
> <minimizedAffinity>
-5.34783

> <CNNscore>
0.4931629002

> <CNNaffinity>
5.9914069176

> <CNN_VS>
2.9547395706

> <CNNaffinity_variance>
0.2226899713

$$$$



 29 31  0  0  0  0  0  0  0  0999 V2000
    0.6182  -12.6035   -0.6882 C   0  0  0  0  0  0  0  0  0  0  0  0
   -0.5400  -12.8776    0.0556 C   0  0  0  0  0  0  0  0  0  0  0  0
   -1.3373  -13.9853   -0.2459 C   0  0  0  0  0  0  0  0  0  0  0  0
   -2.7275  -14.2622    0.7453 Cl  0  0  0  0  0  0  0  0  0  0  0  0
   -1.0019  -14.8427   -1.3081 C   0  0  0  0  0  0  0  0  0  0  0  0
    0.1534  -14.5479   -2.0568 C   0  0  0  0  0  0  0  0  0  0  0  0
    0.9570  -13.4376   -1.7587 C   0  0  0  0  0  0  0  0  0  0  0  0
    2.4359  -13.1299   -2.9104 Br  0  0  0  0  0  0  0  0  0  0  0  0
   -1.8057  -16.0174   -1.6745 C   0  0  0  0  0  0  0  0  0  0  0  0
   -3.2032  -15.9325   -1.7516 C   0  0  0  0  0  0  0  0  0  0  0  0
   -3.9763  -17.0502   -2.0901 C   0  0  0  0  0  0  0  0  0  0  0  0
   -3.3716  -18.2839   -2.3579 C   0  0  0  0  0  0  0  0  0  0  0  0
   -4.1375  -19.4976   -2.7205 C   0  0  0  0  0  0  0  0  0  0  0  0
   -5.6333  -19.4421   -2.8175 C   0  0  0  0  0  0  0  0  0  0  0  0
   -3.4684  -20.6390   -2.9597 C   0  0  0  0  0  0  0  0  0  0  0  0
   -1.9932  -20.7268   -2.8745 C   0  0  0  0  0  0  0  0  0  0  0  0
   -1.4121  -21.7831   -3.0968 O   0  0  0  0  0  0  0  0  0  0  0  0
   -1.3303  -19.5825   -2.5376 N   0  0  0  0  0  0  0  0  0  0  0  0
   -1.9715  -18.3652   -2.2774 C   0  0  0  0  0  0  0  0  0  0  0  0
   -1.1963  -17.2516   -1.9396 C   0  0  0  0  0  0  0  0  0  0  0  0
   -0.3483  -19.6145   -2.4742 H   0  0  0  0  0  0  0  0  0  0  0  0
    1.0675  -10.2158   -0.8819 N   0  0  0  0  0  0  0  0  0  0  0  0
    1.3862  -11.4043   -0.2681 C   0  0  0  0  0  0  0  0  0  0  0  0
    2.2963  -11.5268    0.5427 O   0  0  0  0  0  0  0  0  0  0  0  0
    0.3724  -10.2074   -1.5790 H   0  0  0  0  0  0  0  0  0  0  0  0
    1.7294   -8.9731   -0.5285 C   0  0  0  0  0  0  0  0  0  0  0  0
    0.8344   -7.7415   -0.7013 C   0  0  0  0  0  0  0  0  0  0  0  0
    1.8738   -7.1946    1.3667 C   0  0  0  0  0  0  0  0  0  0  0  0
    0.7718   -6.9672    0.4992 O   0  0  0  0  0  0  0  0  0  0  0  0
 28 29  1  0
 29 27  1  0
 27 26  1  0
 26 22  1  0
 22 23  1  0
 23 24  2  0
 23  1  1  0
  1  2  2  0
  2  3  1  0
  3  4  1  0
  3  5  2  0
  5  9  1  0
  9 10  2  0
 10 11  1  0
 11 12  2  0
 12 13  1  0
 13 14  1  0
 13 15  2  0
 15 16  1  0
 16 17  2  0
 16 18  1  0
 18 19  1  0
 19 20  2  0
  5  6  1  0
  6  7  2  0
  7  8  1  0
  7  1  1  0
 20  9  1  0
 19 12  1  0
 22 25  1  0
 18 21  1  0
M  END
> <minimizedAffinity>
-5.47475

> <CNNscore>
0.4853999019

> <CNNaffinity>
5.6459898949

> <CNN_VS>
2.7405629158

> <CNNaffinity_variance>
0.0895069838

$$$$



 29 31  0  0  0  0  0  0  0  0999 V2000
   -1.0337  -19.7494   -1.7301 C   0  0  0  0  0  0  0  0  0  0  0  0
   -2.0983  -20.6220   -2.0039 C   0  0  0  0  0  0  0  0  0  0  0  0
   -3.2374  -20.1704   -2.6762 C   0  0  0  0  0  0  0  0  0  0  0  0
   -4.4847  -21.3247   -2.9984 Cl  0  0  0  0  0  0  0  0  0  0  0  0
   -3.3459  -18.8293   -3.0830 C   0  0  0  0  0  0  0  0  0  0  0  0
   -2.2782  -17.9601   -2.7883 C   0  0  0  0  0  0  0  0  0  0  0  0
   -1.1328  -18.4079   -2.1138 C   0  0  0  0  0  0  0  0  0  0  0  0
    0.1840  -17.0968   -1.7200 Br  0  0  0  0  0  0  0  0  0  0  0  0
   -4.5216  -18.2977   -3.7868 C   0  0  0  0  0  0  0  0  0  0  0  0
   -5.5504  -17.6587   -3.0801 C   0  0  0  0  0  0  0  0  0  0  0  0
   -6.6784  -17.1587   -3.7428 C   0  0  0  0  0  0  0  0  0  0  0  0
   -6.8085  -17.2873   -5.1306 C   0  0  0  0  0  0  0  0  0  0  0  0
   -7.9769  -16.7784   -5.8834 C   0  0  0  0  0  0  0  0  0  0  0  0
   -9.0935  -16.0850   -5.1606 C   0  0  0  0  0  0  0  0  0  0  0  0
   -8.0137  -16.9491   -7.2165 C   0  0  0  0  0  0  0  0  0  0  0  0
   -6.9277  -17.6270   -7.9599 C   0  0  0  0  0  0  0  0  0  0  0  0
   -6.9913  -17.7688   -9.1759 O   0  0  0  0  0  0  0  0  0  0  0  0
   -5.8711  -18.0785   -7.2236 N   0  0  0  0  0  0  0  0  0  0  0  0
   -5.7766  -17.9301   -5.8345 C   0  0  0  0  0  0  0  0  0  0  0  0
   -4.6490  -18.4307   -5.1765 C   0  0  0  0  0  0  0  0  0  0  0  0
   -5.1356  -18.5330   -7.6946 H   0  0  0  0  0  0  0  0  0  0  0  0
    1.3382  -19.7195   -1.1696 N   0  0  0  0  0  0  0  0  0  0  0  0
    0.1240  -20.3471   -1.0181 C   0  0  0  0  0  0  0  0  0  0  0  0
   -0.0284  -21.3877   -0.3900 O   0  0  0  0  0  0  0  0  0  0  0  0
    1.3991  -18.9270   -1.7506 H   0  0  0  0  0  0  0  0  0  0  0  0
    2.5323  -20.1952   -0.4951 C   0  0  0  0  0  0  0  0  0  0  0  0
    3.3761  -21.1410   -1.3560 C   0  0  0  0  0  0  0  0  0  0  0  0
    5.0008  -22.4058   -0.1657 C   0  0  0  0  0  0  0  0  0  0  0  0
    4.7250  -21.2130   -0.8868 O   0  0  0  0  0  0  0  0  0  0  0  0
 28 29  1  0
 29 27  1  0
 27 26  1  0
 26 22  1  0
 22 23  1  0
 23 24  2  0
 23  1  1  0
  1  2  2  0
  2  3  1  0
  3  4  1  0
  3  5  2  0
  5  9  1  0
  9 10  2  0
 10 11  1  0
 11 12  2  0
 12 13  1  0
 13 14  1  0
 13 15  2  0
 15 16  1  0
 16 17  2  0
 16 18  1  0
 18 19  1  0
 19 20  2  0
  5  6  1  0
  6  7  2  0
  7  8  1  0
  7  1  1  0
 20  9  1  0
 19 12  1  0
 22 25  1  0
 18 21  1  0
M  END
> <minimizedAffinity>
-6.05407

> <CNNscore>
0.4403069913

> <CNNaffinity>
5.9394659996

> <CNN_VS>
2.6151883602

> <CNNaffinity_variance>
0.0931979492

$$$$



 29 31  0  0  0  0  0  0  0  0999 V2000
    2.7801  -11.5507  -10.2359 C   0  0  0  0  0  0  0  0  0  0  0  0
    2.3269  -12.6324   -9.4649 C   0  0  0  0  0  0  0  0  0  0  0  0
    2.2254  -12.5263   -8.0750 C   0  0  0  0  0  0  0  0  0  0  0  0
    1.6263  -13.8997   -7.2108 Cl  0  0  0  0  0  0  0  0  0  0  0  0
    2.5858  -11.3370   -7.4182 C   0  0  0  0  0  0  0  0  0  0  0  0
    3.0542  -10.2646   -8.2010 C   0  0  0  0  0  0  0  0  0  0  0  0
    3.1582  -10.3656   -9.5962 C   0  0  0  0  0  0  0  0  0  0  0  0
    3.8824   -8.8613  -10.5019 Br  0  0  0  0  0  0  0  0  0  0  0  0
    2.5059  -11.1707   -5.9600 C   0  0  0  0  0  0  0  0  0  0  0  0
    2.4232   -9.8927   -5.3890 C   0  0  0  0  0  0  0  0  0  0  0  0
    2.3570   -9.7261   -3.9999 C   0  0  0  0  0  0  0  0  0  0  0  0
    2.3748  -10.8341   -3.1447 C   0  0  0  0  0  0  0  0  0  0  0  0
    2.3072  -10.7184   -1.6706 C   0  0  0  0  0  0  0  0  0  0  0  0
    2.2127   -9.3675   -1.0257 C   0  0  0  0  0  0  0  0  0  0  0  0
    2.3311  -11.8406   -0.9305 C   0  0  0  0  0  0  0  0  0  0  0  0
    2.4217  -13.1886   -1.5357 C   0  0  0  0  0  0  0  0  0  0  0  0
    2.4431  -14.1931   -0.8334 O   0  0  0  0  0  0  0  0  0  0  0  0
    2.4810  -13.2452   -2.8979 N   0  0  0  0  0  0  0  0  0  0  0  0
    2.4600  -12.1125   -3.7208 C   0  0  0  0  0  0  0  0  0  0  0  0
    2.5263  -12.2829   -5.1070 C   0  0  0  0  0  0  0  0  0  0  0  0
    2.5418  -14.1301   -3.3251 H   0  0  0  0  0  0  0  0  0  0  0  0
    1.6370  -11.9537  -12.3505 N   0  0  0  0  0  0  0  0  0  0  0  0
    2.8371  -11.7817  -11.7014 C   0  0  0  0  0  0  0  0  0  0  0  0
    3.9266  -11.8724  -12.2540 O   0  0  0  0  0  0  0  0  0  0  0  0
    0.8029  -11.9406  -11.8277 H   0  0  0  0  0  0  0  0  0  0  0  0
    1.5682  -12.1541  -13.7866 C   0  0  0  0  0  0  0  0  0  0  0  0
    2.9077  -12.5696  -14.4034 C   0  0  0  0  0  0  0  0  0  0  0  0
    4.5616  -11.8827  -15.9684 C   0  0  0  0  0  0  0  0  0  0  0  0
    3.1945  -11.8195  -15.5866 O   0  0  0  0  0  0  0  0  0  0  0  0
 28 29  1  0
 29 27  1  0
 27 26  1  0
 26 22  1  0
 22 23  1  0
 23 24  2  0
 23  1  1  0
  1  2  2  0
  2  3  1  0
  3  4  1  0
  3  5  2  0
  5  9  1  0
  9 10  2  0
 10 11  1  0
 11 12  2  0
 12 13  1  0
 13 14  1  0
 13 15  2  0
 15 16  1  0
 16 17  2  0
 16 18  1  0
 18 19  1  0
 19 20  2  0
  5  6  1  0
  6  7  2  0
  7  8  1  0
  7  1  1  0
 20  9  1  0
 19 12  1  0
 22 25  1  0
 18 21  1  0
M  END
> <minimizedAffinity>
-9.02620

> <CNNscore>
0.3516346812

> <CNNaffinity>
6.7507739067

> <CNN_VS>
2.3738062382

> <CNNaffinity_variance>
0.0147657841

$$$$



 29 31  0  0  0  0  0  0  0  0999 V2000
    2.8008  -11.6039  -10.1541 C   0  0  0  0  0  0  0  0  0  0  0  0
    2.3583  -12.6770   -9.3651 C   0  0  0  0  0  0  0  0  0  0  0  0
    2.2670  -12.5524   -7.9760 C   0  0  0  0  0  0  0  0  0  0  0  0
    1.6807  -13.9166   -7.0887 Cl  0  0  0  0  0  0  0  0  0  0  0  0
    2.6270  -11.3527   -7.3381 C   0  0  0  0  0  0  0  0  0  0  0  0
    3.0846  -10.2890   -8.1390 C   0  0  0  0  0  0  0  0  0  0  0  0
    3.1783  -10.4085   -9.5334 C   0  0  0  0  0  0  0  0  0  0  0  0
    3.8888   -8.9134  -10.4649 Br  0  0  0  0  0  0  0  0  0  0  0  0
    2.5575  -11.1670   -5.8818 C   0  0  0  0  0  0  0  0  0  0  0  0
    2.4217  -12.2691   -5.0255 C   0  0  0  0  0  0  0  0  0  0  0  0
    2.3447  -12.0990   -3.6374 C   0  0  0  0  0  0  0  0  0  0  0  0
    2.3986  -10.8209   -3.0691 C   0  0  0  0  0  0  0  0  0  0  0  0
    2.3223  -10.5812   -1.6104 C   0  0  0  0  0  0  0  0  0  0  0  0
    2.1821  -11.7369   -0.6645 C   0  0  0  0  0  0  0  0  0  0  0  0
    2.3820   -9.3168   -1.1572 C   0  0  0  0  0  0  0  0  0  0  0  0
    2.5221   -8.1548   -2.0635 C   0  0  0  0  0  0  0  0  0  0  0  0
    2.5721   -7.0133   -1.6195 O   0  0  0  0  0  0  0  0  0  0  0  0
    2.5892   -8.4251   -3.3995 N   0  0  0  0  0  0  0  0  0  0  0  0
    2.5324   -9.7195   -3.9306 C   0  0  0  0  0  0  0  0  0  0  0  0
    2.6096   -9.8852   -5.3168 C   0  0  0  0  0  0  0  0  0  0  0  0
    2.6825   -7.6693   -4.0235 H   0  0  0  0  0  0  0  0  0  0  0  0
    1.6427  -11.9027  -12.2778 N   0  0  0  0  0  0  0  0  0  0  0  0
    2.8476  -11.8544  -11.6168 C   0  0  0  0  0  0  0  0  0  0  0  0
    3.9266  -12.0676  -12.1562 O   0  0  0  0  0  0  0  0  0  0  0  0
    0.8095  -11.7946  -11.7646 H   0  0  0  0  0  0  0  0  0  0  0  0
    1.5675  -12.1091  -13.7127 C   0  0  0  0  0  0  0  0  0  0  0  0
    2.9124  -12.4910  -14.3395 C   0  0  0  0  0  0  0  0  0  0  0  0
    4.4969  -11.8442  -15.9910 C   0  0  0  0  0  0  0  0  0  0  0  0
    3.1468  -11.7734  -15.5539 O   0  0  0  0  0  0  0  0  0  0  0  0
 28 29  1  0
 29 27  1  0
 27 26  1  0
 26 22  1  0
 22 23  1  0
 23 24  2  0
 23  1  1  0
  1  2  2  0
  2  3  1  0
  3  4  1  0
  3  5  2  0
  5  9  1  0
  9 10  2  0
 10 11  1  0
 11 12  2  0
 12 13  1  0
 13 14  1  0
 13 15  2  0
 15 16  1  0
 16 17  2  0
 16 18  1  0
 18 19  1  0
 19 20  2  0
  5  6  1  0
  6  7  2  0
  7  8  1  0
  7  1  1  0
 20  9  1  0
 19 12  1  0
 22 25  1  0
 18 21  1  0
M  END
> <minimizedAffinity>
-9.65279

> <CNNscore>
0.3446956277

> <CNNaffinity>
6.6396446228

> <CNN_VS>
2.2886564732

> <CNNaffinity_variance>
0.1989238262

$$$$



 29 31  0  0  0  0  0  0  0  0999 V2000
   10.1740  -21.2997  -14.5625 C   0  0  0  0  0  0  0  0  0  0  0  0
    9.0529  -20.6595  -14.0118 C   0  0  0  0  0  0  0  0  0  0  0  0
    8.8557  -20.6285  -12.6285 C   0  0  0  0  0  0  0  0  0  0  0  0
    7.4631  -19.7887  -12.0389 Cl  0  0  0  0  0  0  0  0  0  0  0  0
    9.7707  -21.2475  -11.7593 C   0  0  0  0  0  0  0  0  0  0  0  0
   10.8826  -21.9002  -12.3248 C   0  0  0  0  0  0  0  0  0  0  0  0
   11.0854  -21.9346  -13.7123 C   0  0  0  0  0  0  0  0  0  0  0  0
   12.5883  -22.9223  -14.3236 Br  0  0  0  0  0  0  0  0  0  0  0  0
    9.6111  -21.2522  -10.2983 C   0  0  0  0  0  0  0  0  0  0  0  0
   10.2515  -20.2893   -9.5053 C   0  0  0  0  0  0  0  0  0  0  0  0
   10.1122  -20.2937   -8.1117 C   0  0  0  0  0  0  0  0  0  0  0  0
    9.3304  -21.2638   -7.4738 C   0  0  0  0  0  0  0  0  0  0  0  0
    9.1472  -21.3172   -6.0060 C   0  0  0  0  0  0  0  0  0  0  0  0
    9.8131  -20.3000   -5.1274 C   0  0  0  0  0  0  0  0  0  0  0  0
    8.3771  -22.2877   -5.4836 C   0  0  0  0  0  0  0  0  0  0  0  0
    7.7047  -23.3051   -6.3227 C   0  0  0  0  0  0  0  0  0  0  0  0
    7.0100  -24.1788   -5.8160 O   0  0  0  0  0  0  0  0  0  0  0  0
    7.9023  -23.2152   -7.6700 N   0  0  0  0  0  0  0  0  0  0  0  0
    8.6923  -22.2280   -8.2717 C   0  0  0  0  0  0  0  0  0  0  0  0
    8.8290  -22.2270   -9.6632 C   0  0  0  0  0  0  0  0  0  0  0  0
    7.4659  -23.8802   -8.2501 H   0  0  0  0  0  0  0  0  0  0  0  0
   10.9697  -20.2031  -16.5886 N   0  0  0  0  0  0  0  0  0  0  0  0
   10.2780  -21.2590  -16.0430 C   0  0  0  0  0  0  0  0  0  0  0  0
    9.7034  -22.1110  -16.7098 O   0  0  0  0  0  0  0  0  0  0  0  0
   11.3433  -19.5150  -15.9918 H   0  0  0  0  0  0  0  0  0  0  0  0
   11.1634  -20.0769  -18.0217 C   0  0  0  0  0  0  0  0  0  0  0  0
   10.1238  -19.1748  -18.6946 C   0  0  0  0  0  0  0  0  0  0  0  0
   11.4822  -18.7937  -20.6093 C   0  0  0  0  0  0  0  0  0  0  0  0
   10.7428  -18.2077  -19.5469 O   0  0  0  0  0  0  0  0  0  0  0  0
 28 29  1  0
 29 27  1  0
 27 26  1  0
 26 22  1  0
 22 23  1  0
 23 24  2  0
 23  1  1  0
  1  2  2  0
  2  3  1  0
  3  4  1  0
  3  5  2  0
  5  9  1  0
  9 10  2  0
 10 11  1  0
 11 12  2  0
 12 13  1  0
 13 14  1  0
 13 15  2  0
 15 16  1  0
 16 17  2  0
 16 18  1  0
 18 19  1  0
 19 20  2  0
  5  6  1  0
  6  7  2  0
  7  8  1  0
  7  1  1  0
 20  9  1  0
 19 12  1  0
 22 25  1  0
 18 21  1  0
M  END
> <minimizedAffinity>
-6.64327

> <CNNscore>
0.3262233734

> <CNNaffinity>
5.1578226089

> <CNN_VS>
1.6826022863

> <CNNaffinity_variance>
0.0333743505

$$$$
