


 24 26  0  0  0  0  0  0  0  0999 V2000
  -12.4569    5.5961   14.1387 C   0  0  0  0  0  0  0  0  0  0  0  0
  -12.3267    4.1799   13.6619 C   0  0  0  0  0  0  0  0  0  0  0  0
  -12.5641    3.1450   14.4867 C   0  0  0  0  0  0  0  0  0  0  0  0
  -12.4430    1.7366   14.0476 C   0  0  0  0  0  0  0  0  0  0  0  0
  -12.6671    0.8142   14.8233 O   0  0  0  0  0  0  0  0  0  0  0  0
  -12.0744    1.5292   12.7500 N   0  0  0  0  0  0  0  0  0  0  0  0
  -11.8139    2.5655   11.8449 C   0  0  0  0  0  0  0  0  0  0  0  0
  -11.4423    2.2424   10.5363 C   0  0  0  0  0  0  0  0  0  0  0  0
  -11.1724    3.2551    9.6057 C   0  0  0  0  0  0  0  0  0  0  0  0
  -11.2895    4.5899   10.0183 C   0  0  0  0  0  0  0  0  0  0  0  0
  -11.6619    4.9097   11.3300 C   0  0  0  0  0  0  0  0  0  0  0  0
  -11.9299    3.9016   12.2633 C   0  0  0  0  0  0  0  0  0  0  0  0
  -11.9870    0.6011   12.4333 H   0  0  0  0  0  0  0  0  0  0  0  0
  -10.7899    2.9241    8.2262 C   0  0  0  0  0  0  0  0  0  0  0  0
  -10.8537    3.9254    7.2423 C   0  0  0  0  0  0  0  0  0  0  0  0
  -10.4972    3.6533    5.9179 C   0  0  0  0  0  0  0  0  0  0  0  0
  -10.6123    4.9319    4.7584 Cl  0  0  0  0  0  0  0  0  0  0  0  0
  -10.0302    2.3838    5.5391 C   0  0  0  0  0  0  0  0  0  0  0  0
   -9.7887    2.0508    4.1950 N   0  0  0  0  0  0  0  0  0  0  0  0
  -10.0155    1.3725    6.5041 C   0  0  0  0  0  0  0  0  0  0  0  0
  -10.3724    1.6393    7.8329 C   0  0  0  0  0  0  0  0  0  0  0  0
  -10.3033    0.3223    8.9548 Cl  0  0  0  0  0  0  0  0  0  0  0  0
   -9.7961    2.7530    3.5050 H   0  0  0  0  0  0  0  0  0  0  0  0
   -9.6123    1.1155    3.9436 H   0  0  0  0  0  0  0  0  0  0  0  0
  1  2  1  0
  2  3  2  0
  3  4  1  0
  4  5  2  0
  4  6  1  0
  6  7  1  0
  7  8  2  0
  8  9  1  0
  9 14  1  0
 14 15  2  0
 15 16  1  0
 16 17  1  0
 16 18  2  0
 18 19  1  0
 18 20  1  0
 20 21  2  0
 21 22  1  0
  9 10  2  0
 10 11  1  0
 11 12  2  0
 12  2  1  0
 12  7  1  0
 21 14  1  0
  6 13  1  0
 19 23  1  0
 19 24  1  0
M  END
> <minimizedAffinity>
-11.97536

> <CNNscore>
0.9221867323

> <CNNaffinity>
7.1131873131

> <CNN_VS>
6.5596871376

> <CNNaffinity_variance>
0.0675445572

$$$$



 24 26  0  0  0  0  0  0  0  0999 V2000
  -12.6029    6.3251   13.9782 C   0  0  0  0  0  0  0  0  0  0  0  0
  -12.3396    4.8507   13.8954 C   0  0  0  0  0  0  0  0  0  0  0  0
  -12.4696    4.0605   14.9754 C   0  0  0  0  0  0  0  0  0  0  0  0
  -12.2158    2.6030   14.9271 C   0  0  0  0  0  0  0  0  0  0  0  0
  -12.3439    1.9085   15.9292 O   0  0  0  0  0  0  0  0  0  0  0  0
  -11.8383    2.0867   13.7216 N   0  0  0  0  0  0  0  0  0  0  0  0
  -11.6860    2.8587   12.5632 C   0  0  0  0  0  0  0  0  0  0  0  0
  -11.2943    2.2287   11.3779 C   0  0  0  0  0  0  0  0  0  0  0  0
  -11.1305    2.9720   10.2010 C   0  0  0  0  0  0  0  0  0  0  0  0
  -11.3733    4.3522   10.2434 C   0  0  0  0  0  0  0  0  0  0  0  0
  -11.7655    4.9797   11.4325 C   0  0  0  0  0  0  0  0  0  0  0  0
  -11.9278    4.2417   12.6107 C   0  0  0  0  0  0  0  0  0  0  0  0
  -11.6637    1.1196   13.6632 H   0  0  0  0  0  0  0  0  0  0  0  0
  -10.7277    2.3163    8.9493 C   0  0  0  0  0  0  0  0  0  0  0  0
  -10.2506    0.9953    8.9947 C   0  0  0  0  0  0  0  0  0  0  0  0
   -9.8583    0.3339    7.8269 C   0  0  0  0  0  0  0  0  0  0  0  0
   -9.2697   -1.2872    7.9609 Cl  0  0  0  0  0  0  0  0  0  0  0  0
   -9.9638    0.9553    6.5715 C   0  0  0  0  0  0  0  0  0  0  0  0
   -9.4580    0.3607    5.4026 N   0  0  0  0  0  0  0  0  0  0  0  0
  -10.3883    2.2865    6.5291 C   0  0  0  0  0  0  0  0  0  0  0  0
  -10.7822    2.9547    7.6966 C   0  0  0  0  0  0  0  0  0  0  0  0
  -11.3091    4.5960    7.5343 Cl  0  0  0  0  0  0  0  0  0  0  0  0
   -9.1555   -0.5760    5.4181 H   0  0  0  0  0  0  0  0  0  0  0  0
   -9.4064    0.8810    4.5684 H   0  0  0  0  0  0  0  0  0  0  0  0
  1  2  1  0
  2  3  2  0
  3  4  1  0
  4  5  2  0
  4  6  1  0
  6  7  1  0
  7  8  2  0
  8  9  1  0
  9 14  1  0
 14 15  2  0
 15 16  1  0
 16 17  1  0
 16 18  2  0
 18 19  1  0
 18 20  1  0
 20 21  2  0
 21 22  1  0
  9 10  2  0
 10 11  1  0
 11 12  2  0
 12  2  1  0
 12  7  1  0
 21 14  1  0
  6 13  1  0
 19 23  1  0
 19 24  1  0
M  END
> <minimizedAffinity>
-10.31641

> <CNNscore>
0.9188557863

> <CNNaffinity>
7.3475203514

> <CNN_VS>
6.7513117790

> <CNNaffinity_variance>
0.0286576282

$$$$



 24 26  0  0  0  0  0  0  0  0999 V2000
  -17.8121   -3.6235    1.5485 C   0  0  0  0  0  0  0  0  0  0  0  0
  -18.2231   -2.2115    1.8442 C   0  0  0  0  0  0  0  0  0  0  0  0
  -19.5206   -1.8686    1.9258 C   0  0  0  0  0  0  0  0  0  0  0  0
  -19.9587   -0.4845    2.2144 C   0  0  0  0  0  0  0  0  0  0  0  0
  -21.1499   -0.2031    2.2835 O   0  0  0  0  0  0  0  0  0  0  0  0
  -18.9751    0.4437    2.3971 N   0  0  0  0  0  0  0  0  0  0  0  0
  -17.6085    0.1470    2.3242 C   0  0  0  0  0  0  0  0  0  0  0  0
  -16.6820    1.1744    2.5275 C   0  0  0  0  0  0  0  0  0  0  0  0
  -15.3069    0.9122    2.4595 C   0  0  0  0  0  0  0  0  0  0  0  0
  -14.8893   -0.3986    2.1893 C   0  0  0  0  0  0  0  0  0  0  0  0
  -15.8202   -1.4250    1.9861 C   0  0  0  0  0  0  0  0  0  0  0  0
  -17.1944   -1.1673    2.0507 C   0  0  0  0  0  0  0  0  0  0  0  0
  -19.2406    1.3718    2.5906 H   0  0  0  0  0  0  0  0  0  0  0  0
  -14.3267    1.9843    2.6806 C   0  0  0  0  0  0  0  0  0  0  0  0
  -14.0162    2.8532    1.6207 C   0  0  0  0  0  0  0  0  0  0  0  0
  -13.0904    3.8875    1.7889 C   0  0  0  0  0  0  0  0  0  0  0  0
  -12.7489    4.9104    0.4363 Cl  0  0  0  0  0  0  0  0  0  0  0  0
  -12.4717    4.1119    3.0299 C   0  0  0  0  0  0  0  0  0  0  0  0
  -11.4466    5.0603    3.1891 N   0  0  0  0  0  0  0  0  0  0  0  0
  -12.7392    3.2176    4.0705 C   0  0  0  0  0  0  0  0  0  0  0  0
  -13.6658    2.1787    3.9074 C   0  0  0  0  0  0  0  0  0  0  0  0
  -13.9391    1.1368    5.2629 Cl  0  0  0  0  0  0  0  0  0  0  0  0
  -11.2475    5.6962    2.4644 H   0  0  0  0  0  0  0  0  0  0  0  0
  -10.9277    5.0887    4.0252 H   0  0  0  0  0  0  0  0  0  0  0  0
  1  2  1  0
  2  3  2  0
  3  4  1  0
  4  5  2  0
  4  6  1  0
  6  7  1  0
  7  8  2  0
  8  9  1  0
  9 14  1  0
 14 15  2  0
 15 16  1  0
 16 17  1  0
 16 18  2  0
 18 19  1  0
 18 20  1  0
 20 21  2  0
 21 22  1  0
  9 10  2  0
 10 11  1  0
 11 12  2  0
 12  2  1  0
 12  7  1  0
 21 14  1  0
  6 13  1  0
 19 23  1  0
 19 24  1  0
M  END
> <minimizedAffinity>
-5.52176

> <CNNscore>
0.4188005626

> <CNNaffinity>
4.9776463509

> <CNN_VS>
2.0846409798

> <CNNaffinity_variance>
0.0037250516

$$$$



 24 26  0  0  0  0  0  0  0  0999 V2000
  -18.2329   -3.5300    0.5663 C   0  0  0  0  0  0  0  0  0  0  0  0
  -18.5035   -2.2166    1.2385 C   0  0  0  0  0  0  0  0  0  0  0  0
  -19.7572   -1.7490    1.3694 C   0  0  0  0  0  0  0  0  0  0  0  0
  -20.0574   -0.4567    2.0259 C   0  0  0  0  0  0  0  0  0  0  0  0
  -21.2117   -0.0575    2.1310 O   0  0  0  0  0  0  0  0  0  0  0  0
  -18.9915    0.2514    2.5003 N   0  0  0  0  0  0  0  0  0  0  0  0
  -17.6647   -0.1835    2.3932 C   0  0  0  0  0  0  0  0  0  0  0  0
  -16.6459    0.6204    2.9136 C   0  0  0  0  0  0  0  0  0  0  0  0
  -15.3071    0.2160    2.8214 C   0  0  0  0  0  0  0  0  0  0  0  0
  -15.0204   -1.0090    2.2028 C   0  0  0  0  0  0  0  0  0  0  0  0
  -16.0436   -1.8116    1.6826 C   0  0  0  0  0  0  0  0  0  0  0  0
  -17.3817   -1.4105    1.7702 C   0  0  0  0  0  0  0  0  0  0  0  0
  -19.1647    1.1143    2.9414 H   0  0  0  0  0  0  0  0  0  0  0  0
  -14.2313    1.0508    3.3736 C   0  0  0  0  0  0  0  0  0  0  0  0
  -14.0971    1.1548    4.7685 C   0  0  0  0  0  0  0  0  0  0  0  0
  -13.0862    1.9372    5.3354 C   0  0  0  0  0  0  0  0  0  0  0  0
  -12.9893    2.0279    7.0601 Cl  0  0  0  0  0  0  0  0  0  0  0  0
  -12.1537    2.6116    4.5299 C   0  0  0  0  0  0  0  0  0  0  0  0
  -11.2113    3.5033    5.0707 N   0  0  0  0  0  0  0  0  0  0  0  0
  -12.3167    2.5521    3.1428 C   0  0  0  0  0  0  0  0  0  0  0  0
  -13.3284    1.7700    2.5691 C   0  0  0  0  0  0  0  0  0  0  0  0
  -13.4344    1.7494    0.8410 Cl  0  0  0  0  0  0  0  0  0  0  0  0
  -11.0862    3.5556    6.0458 H   0  0  0  0  0  0  0  0  0  0  0  0
  -10.6765    4.0756    4.4743 H   0  0  0  0  0  0  0  0  0  0  0  0
  1  2  1  0
  2  3  2  0
  3  4  1  0
  4  5  2  0
  4  6  1  0
  6  7  1  0
  7  8  2  0
  8  9  1  0
  9 14  1  0
 14 15  2  0
 15 16  1  0
 16 17  1  0
 16 18  2  0
 18 19  1  0
 18 20  1  0
 20 21  2  0
 21 22  1  0
  9 10  2  0
 10 11  1  0
 11 12  2  0
 12  2  1  0
 12  7  1  0
 21 14  1  0
  6 13  1  0
 19 23  1  0
 19 24  1  0
M  END
> <minimizedAffinity>
-6.52449

> <CNNscore>
0.3771495521

> <CNNaffinity>
4.8399996758

> <CNN_VS>
1.8254036903

> <CNNaffinity_variance>
0.0342790298

$$$$



 24 26  0  0  0  0  0  0  0  0999 V2000
  -18.7843    1.8882    0.4078 C   0  0  0  0  0  0  0  0  0  0  0  0
  -17.9900    0.7924    1.0547 C   0  0  0  0  0  0  0  0  0  0  0  0
  -18.4668   -0.4627    1.1242 C   0  0  0  0  0  0  0  0  0  0  0  0
  -17.7088   -1.5655    1.7569 C   0  0  0  0  0  0  0  0  0  0  0  0
  -18.1703   -2.7003    1.8039 O   0  0  0  0  0  0  0  0  0  0  0  0
  -16.4864   -1.2499    2.2751 N   0  0  0  0  0  0  0  0  0  0  0  0
  -15.9376    0.0377    2.2331 C   0  0  0  0  0  0  0  0  0  0  0  0
  -14.6754    0.2531    2.7949 C   0  0  0  0  0  0  0  0  0  0  0  0
  -14.0979    1.5300    2.7718 C   0  0  0  0  0  0  0  0  0  0  0  0
  -14.8126    2.5755    2.1703 C   0  0  0  0  0  0  0  0  0  0  0  0
  -16.0766    2.3560    1.6087 C   0  0  0  0  0  0  0  0  0  0  0  0
  -16.6582    1.0830    1.6317 C   0  0  0  0  0  0  0  0  0  0  0  0
  -15.9622   -1.9660    2.7013 H   0  0  0  0  0  0  0  0  0  0  0  0
  -12.7682    1.7628    3.3520 C   0  0  0  0  0  0  0  0  0  0  0  0
  -11.6600    1.8714    2.4949 C   0  0  0  0  0  0  0  0  0  0  0  0
  -10.3775    2.0945    3.0054 C   0  0  0  0  0  0  0  0  0  0  0  0
   -9.0590    2.2051    1.8911 Cl  0  0  0  0  0  0  0  0  0  0  0  0
  -10.1639    2.2534    4.3847 C   0  0  0  0  0  0  0  0  0  0  0  0
   -8.8724    2.3500    4.9308 N   0  0  0  0  0  0  0  0  0  0  0  0
  -11.2557    2.0938    5.2430 C   0  0  0  0  0  0  0  0  0  0  0  0
  -12.5433    1.8694    4.7368 C   0  0  0  0  0  0  0  0  0  0  0  0
  -13.8306    1.7037    5.8828 Cl  0  0  0  0  0  0  0  0  0  0  0  0
   -8.0944    2.4626    4.3381 H   0  0  0  0  0  0  0  0  0  0  0  0
   -8.7457    2.3051    5.9061 H   0  0  0  0  0  0  0  0  0  0  0  0
  1  2  1  0
  2  3  2  0
  3  4  1  0
  4  5  2  0
  4  6  1  0
  6  7  1  0
  7  8  2  0
  8  9  1  0
  9 14  1  0
 14 15  2  0
 15 16  1  0
 16 17  1  0
 16 18  2  0
 18 19  1  0
 18 20  1  0
 20 21  2  0
 21 22  1  0
  9 10  2  0
 10 11  1  0
 11 12  2  0
 12  2  1  0
 12  7  1  0
 21 14  1  0
  6 13  1  0
 19 23  1  0
 19 24  1  0
M  END
> <minimizedAffinity>
-5.63087

> <CNNscore>
0.3618923724

> <CNNaffinity>
5.1326141357

> <CNN_VS>
1.8574539423

> <CNNaffinity_variance>
0.1245657131

$$$$



 24 26  0  0  0  0  0  0  0  0999 V2000
   -9.4936    2.0103    5.5976 C   0  0  0  0  0  0  0  0  0  0  0  0
  -10.8711    2.0065    6.1915 C   0  0  0  0  0  0  0  0  0  0  0  0
  -11.9319    1.5836    5.4819 C   0  0  0  0  0  0  0  0  0  0  0  0
  -13.3035    1.5688    6.0381 C   0  0  0  0  0  0  0  0  0  0  0  0
  -14.2508    1.1762    5.3662 O   0  0  0  0  0  0  0  0  0  0  0  0
  -13.4487    2.0093    7.3216 N   0  0  0  0  0  0  0  0  0  0  0  0
  -12.3828    2.4616    8.1093 C   0  0  0  0  0  0  0  0  0  0  0  0
  -12.6419    2.8922    9.4141 C   0  0  0  0  0  0  0  0  0  0  0  0
  -11.5984    3.3528   10.2286 C   0  0  0  0  0  0  0  0  0  0  0  0
  -10.2978    3.3649    9.7051 C   0  0  0  0  0  0  0  0  0  0  0  0
  -10.0422    2.9329    8.3976 C   0  0  0  0  0  0  0  0  0  0  0  0
  -11.0816    2.4744    7.5799 C   0  0  0  0  0  0  0  0  0  0  0  0
  -14.3512    2.0092    7.7148 H   0  0  0  0  0  0  0  0  0  0  0  0
  -11.8608    3.7989   11.6038 C   0  0  0  0  0  0  0  0  0  0  0  0
  -11.9534    5.1760   11.8678 C   0  0  0  0  0  0  0  0  0  0  0  0
  -12.2035    5.6431   13.1618 C   0  0  0  0  0  0  0  0  0  0  0  0
  -12.2922    7.3521   13.4139 Cl  0  0  0  0  0  0  0  0  0  0  0  0
  -12.4061    4.7510   14.2279 C   0  0  0  0  0  0  0  0  0  0  0  0
  -12.5309    5.1952   15.5556 N   0  0  0  0  0  0  0  0  0  0  0  0
  -12.2626    3.3831   13.9784 C   0  0  0  0  0  0  0  0  0  0  0  0
  -12.0114    2.9093   12.6835 C   0  0  0  0  0  0  0  0  0  0  0  0
  -11.8688    1.1961   12.4772 Cl  0  0  0  0  0  0  0  0  0  0  0  0
  -12.6326    6.1558   15.7458 H   0  0  0  0  0  0  0  0  0  0  0  0
  -12.5168    4.5457   16.2953 H   0  0  0  0  0  0  0  0  0  0  0  0
  1  2  1  0
  2  3  2  0
  3  4  1  0
  4  5  2  0
  4  6  1  0
  6  7  1  0
  7  8  2  0
  8  9  1  0
  9 14  1  0
 14 15  2  0
 15 16  1  0
 16 17  1  0
 16 18  2  0
 18 19  1  0
 18 20  1  0
 20 21  2  0
 21 22  1  0
  9 10  2  0
 10 11  1  0
 11 12  2  0
 12  2  1  0
 12  7  1  0
 21 14  1  0
  6 13  1  0
 19 23  1  0
 19 24  1  0
M  END
> <minimizedAffinity>
-9.77618

> <CNNscore>
0.2880704999

> <CNNaffinity>
5.9438743591

> <CNN_VS>
1.7122548819

> <CNNaffinity_variance>
0.6630943418

$$$$



 24 26  0  0  0  0  0  0  0  0999 V2000
  -12.5649    2.3151   14.4787 C   0  0  0  0  0  0  0  0  0  0  0  0
  -12.3201    3.4884   13.5767 C   0  0  0  0  0  0  0  0  0  0  0  0
  -12.4659    4.7487   14.0218 C   0  0  0  0  0  0  0  0  0  0  0  0
  -12.2335    5.9274   13.1570 C   0  0  0  0  0  0  0  0  0  0  0  0
  -12.3738    7.0647   13.5926 O   0  0  0  0  0  0  0  0  0  0  0  0
  -11.8591    5.6774   11.8687 N   0  0  0  0  0  0  0  0  0  0  0  0
  -11.6915    4.3882   11.3483 C   0  0  0  0  0  0  0  0  0  0  0  0
  -11.3052    4.2437   10.0122 C   0  0  0  0  0  0  0  0  0  0  0  0
  -11.1306    2.9677    9.4591 C   0  0  0  0  0  0  0  0  0  0  0  0
  -11.3471    1.8498   10.2770 C   0  0  0  0  0  0  0  0  0  0  0  0
  -11.7341    1.9985   11.6148 C   0  0  0  0  0  0  0  0  0  0  0  0
  -11.9120    3.2707   12.1706 C   0  0  0  0  0  0  0  0  0  0  0  0
  -11.6983    6.4447   11.2732 H   0  0  0  0  0  0  0  0  0  0  0  0
  -10.7162    2.8073    8.0586 C   0  0  0  0  0  0  0  0  0  0  0  0
  -10.8632    3.8908    7.1759 C   0  0  0  0  0  0  0  0  0  0  0  0
  -10.4801    3.7811    5.8356 C   0  0  0  0  0  0  0  0  0  0  0  0
  -10.7017    5.1522    4.8045 Cl  0  0  0  0  0  0  0  0  0  0  0  0
   -9.9037    2.5994    5.3408 C   0  0  0  0  0  0  0  0  0  0  0  0
   -9.6299    2.4215    3.9737 N   0  0  0  0  0  0  0  0  0  0  0  0
   -9.8047    1.5036    6.2031 C   0  0  0  0  0  0  0  0  0  0  0  0
  -10.1878    1.6077    7.5473 C   0  0  0  0  0  0  0  0  0  0  0  0
  -10.0086    0.1981    8.5367 Cl  0  0  0  0  0  0  0  0  0  0  0  0
   -9.6958    3.1845    3.3551 H   0  0  0  0  0  0  0  0  0  0  0  0
   -9.3723    1.5338    3.6347 H   0  0  0  0  0  0  0  0  0  0  0  0
  1  2  1  0
  2  3  2  0
  3  4  1  0
  4  5  2  0
  4  6  1  0
  6  7  1  0
  7  8  2  0
  8  9  1  0
  9 14  1  0
 14 15  2  0
 15 16  1  0
 16 17  1  0
 16 18  2  0
 18 19  1  0
 18 20  1  0
 20 21  2  0
 21 22  1  0
  9 10  2  0
 10 11  1  0
 11 12  2  0
 12  2  1  0
 12  7  1  0
 21 14  1  0
  6 13  1  0
 19 23  1  0
 19 24  1  0
M  END
> <minimizedAffinity>
-10.85995

> <CNNscore>
0.2808555067

> <CNNaffinity>
5.0134925842

> <CNN_VS>
1.4080669880

> <CNNaffinity_variance>
1.4919805527

$$$$



 24 26  0  0  0  0  0  0  0  0999 V2000
  -12.2545    2.1812   12.0173 C   0  0  0  0  0  0  0  0  0  0  0  0
  -11.3107    2.5986   10.9287 C   0  0  0  0  0  0  0  0  0  0  0  0
  -10.1287    3.1712   11.2163 C   0  0  0  0  0  0  0  0  0  0  0  0
   -9.1762    3.5956   10.1657 C   0  0  0  0  0  0  0  0  0  0  0  0
   -8.1051    4.1143   10.4598 O   0  0  0  0  0  0  0  0  0  0  0  0
   -9.5539    3.3779    8.8725 N   0  0  0  0  0  0  0  0  0  0  0  0
  -10.7710    2.7867    8.5113 C   0  0  0  0  0  0  0  0  0  0  0  0
  -11.0601    2.6098    7.1547 C   0  0  0  0  0  0  0  0  0  0  0  0
  -12.2699    2.0234    6.7587 C   0  0  0  0  0  0  0  0  0  0  0  0
  -13.1724    1.6178    7.7519 C   0  0  0  0  0  0  0  0  0  0  0  0
  -12.8793    1.7967    9.1097 C   0  0  0  0  0  0  0  0  0  0  0  0
  -11.6735    2.3841    9.5098 C   0  0  0  0  0  0  0  0  0  0  0  0
   -8.9377    3.6511    8.1550 H   0  0  0  0  0  0  0  0  0  0  0  0
  -12.5776    1.8259    5.3355 C   0  0  0  0  0  0  0  0  0  0  0  0
  -13.8505    1.3540    4.9725 C   0  0  0  0  0  0  0  0  0  0  0  0
  -14.1851    1.1537    3.6297 C   0  0  0  0  0  0  0  0  0  0  0  0
  -15.7666    0.5592    3.2585 Cl  0  0  0  0  0  0  0  0  0  0  0  0
  -13.2738    1.4525    2.6032 C   0  0  0  0  0  0  0  0  0  0  0  0
  -13.5395    1.1400    1.2588 N   0  0  0  0  0  0  0  0  0  0  0  0
  -11.9900    1.8719    2.9637 C   0  0  0  0  0  0  0  0  0  0  0  0
  -11.6489    2.0738    4.3081 C   0  0  0  0  0  0  0  0  0  0  0  0
  -10.0386    2.6117    4.6478 Cl  0  0  0  0  0  0  0  0  0  0  0  0
  -14.4392    0.8433    0.9909 H   0  0  0  0  0  0  0  0  0  0  0  0
  -12.8259    1.2178    0.5851 H   0  0  0  0  0  0  0  0  0  0  0  0
  1  2  1  0
  2  3  2  0
  3  4  1  0
  4  5  2  0
  4  6  1  0
  6  7  1  0
  7  8  2  0
  8  9  1  0
  9 14  1  0
 14 15  2  0
 15 16  1  0
 16 17  1  0
 16 18  2  0
 18 19  1  0
 18 20  1  0
 20 21  2  0
 21 22  1  0
  9 10  2  0
 10 11  1  0
 11 12  2  0
 12  2  1  0
 12  7  1  0
 21 14  1  0
  6 13  1  0
 19 23  1  0
 19 24  1  0
M  END
> <minimizedAffinity>
-8.98174

> <CNNscore>
0.2749968469

> <CNNaffinity>
5.4462361336

> <CNN_VS>
1.4976977110

> <CNNaffinity_variance>
0.2612907887

$$$$



 24 26  0  0  0  0  0  0  0  0999 V2000
  -18.7573    0.4277    0.9441 C   0  0  0  0  0  0  0  0  0  0  0  0
  -18.2559    1.6467    1.6602 C   0  0  0  0  0  0  0  0  0  0  0  0
  -19.0501    2.7142    1.8534 C   0  0  0  0  0  0  0  0  0  0  0  0
  -18.5853    3.9323    2.5544 C   0  0  0  0  0  0  0  0  0  0  0  0
  -19.3340    4.8895    2.7159 O   0  0  0  0  0  0  0  0  0  0  0  0
  -17.2967    3.9263    3.0035 N   0  0  0  0  0  0  0  0  0  0  0  0
  -16.4229    2.8455    2.8321 C   0  0  0  0  0  0  0  0  0  0  0  0
  -15.1206    2.9434    3.3317 C   0  0  0  0  0  0  0  0  0  0  0  0
  -14.2199    1.8810    3.1754 C   0  0  0  0  0  0  0  0  0  0  0  0
  -14.6586    0.7250    2.5145 C   0  0  0  0  0  0  0  0  0  0  0  0
  -15.9638    0.6306    2.0154 C   0  0  0  0  0  0  0  0  0  0  0  0
  -16.8659    1.6900    2.1670 C   0  0  0  0  0  0  0  0  0  0  0  0
  -16.9635    4.7247    3.4733 H   0  0  0  0  0  0  0  0  0  0  0  0
  -12.8524    1.9725    3.7052 C   0  0  0  0  0  0  0  0  0  0  0  0
  -11.7854    2.1561    2.8094 C   0  0  0  0  0  0  0  0  0  0  0  0
  -10.4690    2.2498    3.2715 C   0  0  0  0  0  0  0  0  0  0  0  0
   -9.2053    2.4634    2.1097 Cl  0  0  0  0  0  0  0  0  0  0  0  0
  -10.1776    2.2006    4.6448 C   0  0  0  0  0  0  0  0  0  0  0  0
   -8.8567    2.1638    5.1238 N   0  0  0  0  0  0  0  0  0  0  0  0
  -11.2307    1.9657    5.5336 C   0  0  0  0  0  0  0  0  0  0  0  0
  -12.5521    1.8703    5.0759 C   0  0  0  0  0  0  0  0  0  0  0  0
  -13.7858    1.5964    6.2594 Cl  0  0  0  0  0  0  0  0  0  0  0  0
   -8.1054    2.3274    4.5090 H   0  0  0  0  0  0  0  0  0  0  0  0
   -8.6828    1.9745    6.0742 H   0  0  0  0  0  0  0  0  0  0  0  0
  1  2  1  0
  2  3  2  0
  3  4  1  0
  4  5  2  0
  4  6  1  0
  6  7  1  0
  7  8  2  0
  8  9  1  0
  9 14  1  0
 14 15  2  0
 15 16  1  0
 16 17  1  0
 16 18  2  0
 18 19  1  0
 18 20  1  0
 20 21  2  0
 21 22  1  0
  9 10  2  0
 10 11  1  0
 11 12  2  0
 12  2  1  0
 12  7  1  0
 21 14  1  0
  6 13  1  0
 19 23  1  0
 19 24  1  0
M  END
> <minimizedAffinity>
-5.89639

> <CNNscore>
0.2669166625

> <CNNaffinity>
4.8732781410

> <CNN_VS>
1.3007590771

> <CNNaffinity_variance>
0.0476706959

$$$$
