


 33 36  0  0  0  0  0  0  0  0999 V2000
    3.6345   31.5955    7.6449 C   0  0  0  0  0  0  0  0  0  0  0  0
    3.5868   31.4310    8.9723 N   0  0  0  0  0  0  0  0  0  0  0  0
    4.1583   30.3249    9.4722 C   0  0  0  0  0  0  0  0  0  0  0  0
    4.7896   29.3861    8.6984 C   0  0  0  0  0  0  0  0  0  0  0  0
    4.8201   29.6344    7.3458 C   0  0  0  0  0  0  0  0  0  0  0  0
    4.2291   30.7207    6.8159 N   0  0  0  0  0  0  0  0  0  0  0  0
    3.0628   32.6980    7.0155 N   0  0  0  0  0  0  0  0  0  0  0  0
    2.9505   33.4677    7.6190 H   0  0  0  0  0  0  0  0  0  0  0  0
    1.8244   33.4258    3.0364 C   0  0  0  0  0  0  0  0  0  0  0  0
    0.9705   33.7461    4.0943 C   0  0  0  0  0  0  0  0  0  0  0  0
    1.3649   33.5115    5.4183 C   0  0  0  0  0  0  0  0  0  0  0  0
    2.6128   32.9551    5.7172 C   0  0  0  0  0  0  0  0  0  0  0  0
    3.4590   32.6393    4.6404 C   0  0  0  0  0  0  0  0  0  0  0  0
    3.0746   32.8697    3.3137 C   0  0  0  0  0  0  0  0  0  0  0  0
    0.2263   33.9518    1.3133 O   0  0  0  0  0  0  0  0  0  0  0  0
    1.3659   33.6911    1.6518 C   0  0  0  0  0  0  0  0  0  0  0  0
    2.3607   33.6179    0.7495 O   0  0  0  0  0  0  0  0  0  0  0  0
    3.2322   33.4160    1.0283 H   0  0  0  0  0  0  0  0  0  0  0  0
    5.4038   28.7574    6.4304 N   0  0  0  0  0  0  0  0  0  0  0  0
    4.9718   28.7735    5.5459 H   0  0  0  0  0  0  0  0  0  0  0  0
    6.4847   27.8517    6.5079 C   0  0  0  0  0  0  0  0  0  0  0  0
    6.8724   27.2592    7.7207 C   0  0  0  0  0  0  0  0  0  0  0  0
    7.9286   26.3471    7.7798 C   0  0  0  0  0  0  0  0  0  0  0  0
    8.6176   26.0053    6.6234 C   0  0  0  0  0  0  0  0  0  0  0  0
    8.2531   26.5804    5.4076 C   0  0  0  0  0  0  0  0  0  0  0  0
    7.1909   27.5030    5.3256 C   0  0  0  0  0  0  0  0  0  0  0  0
    6.8480   28.0713    4.0082 C   0  0  0  0  0  0  0  0  0  0  0  0
    5.7618   27.5758    3.2679 C   0  0  0  0  0  0  0  0  0  0  0  0
    5.4360   28.1160    2.0207 C   0  0  0  0  0  0  0  0  0  0  0  0
    6.1986   29.1582    1.5003 C   0  0  0  0  0  0  0  0  0  0  0  0
    5.7604   29.8915   -0.1856 Br  0  0  0  0  0  0  0  0  0  0  0  0
    7.2820   29.6643    2.2142 C   0  0  0  0  0  0  0  0  0  0  0  0
    7.6039   29.1217    3.4616 C   0  0  0  0  0  0  0  0  0  0  0  0
 15 16  2  0
 16 17  1  0
 16  9  1  0
  9 10  2  0
 10 11  1  0
 11 12  2  0
 12  7  1  0
  7  1  1  0
  1  2  2  0
  2  3  1  0
  3  4  2  0
  4  5  1  0
  5 19  1  0
 19 21  1  0
 21 22  2  0
 22 23  1  0
 23 24  2  0
 24 25  1  0
 25 26  2  0
 26 27  1  0
 27 28  2  0
 28 29  1  0
 29 30  2  0
 30 31  1  0
 30 32  1  0
 32 33  2  0
  5  6  2  0
 12 13  1  0
 13 14  2  0
 14  9  1  0
  6  1  1  0
 26 21  1  0
 33 27  1  0
 17 18  1  0
  7  8  1  0
 19 20  1  0
M  END
> <minimizedAffinity>
-10.01420

> <CNNscore>
0.9720623493

> <CNNaffinity>
7.5326671600

> <CNN_VS>
7.3222222328

> <CNNaffinity_variance>
0.0165324006

$$$$



 33 36  0  0  0  0  0  0  0  0999 V2000
    4.3231   30.3396    6.0441 C   0  0  0  0  0  0  0  0  0  0  0  0
    3.5452   30.3169    7.1329 N   0  0  0  0  0  0  0  0  0  0  0  0
    4.0665   29.7786    8.2457 C   0  0  0  0  0  0  0  0  0  0  0  0
    5.3403   29.2775    8.3162 C   0  0  0  0  0  0  0  0  0  0  0  0
    6.0890   29.3568    7.1651 C   0  0  0  0  0  0  0  0  0  0  0  0
    5.5803   29.8648    6.0279 N   0  0  0  0  0  0  0  0  0  0  0  0
    3.8820   30.8613    4.8309 N   0  0  0  0  0  0  0  0  0  0  0  0
    4.2028   30.3481    4.0543 H   0  0  0  0  0  0  0  0  0  0  0  0
    1.5202   34.1504    3.6062 C   0  0  0  0  0  0  0  0  0  0  0  0
    1.4737   33.7245    4.9355 C   0  0  0  0  0  0  0  0  0  0  0  0
    2.2494   32.6367    5.3580 C   0  0  0  0  0  0  0  0  0  0  0  0
    3.0851   31.9516    4.4701 C   0  0  0  0  0  0  0  0  0  0  0  0
    3.1195   32.3939    3.1365 C   0  0  0  0  0  0  0  0  0  0  0  0
    2.3483   33.4798    2.7040 C   0  0  0  0  0  0  0  0  0  0  0  0
    0.0725   35.4158    2.1562 O   0  0  0  0  0  0  0  0  0  0  0  0
    0.6827   35.3054    3.2034 C   0  0  0  0  0  0  0  0  0  0  0  0
    0.6469   36.2745    4.1355 O   0  0  0  0  0  0  0  0  0  0  0  0
    1.1230   36.1723    4.9361 H   0  0  0  0  0  0  0  0  0  0  0  0
    7.3922   28.8651    7.0769 N   0  0  0  0  0  0  0  0  0  0  0  0
    7.9772   29.4127    6.5050 H   0  0  0  0  0  0  0  0  0  0  0  0
    8.0469   27.7459    7.6368 C   0  0  0  0  0  0  0  0  0  0  0  0
    8.1772   27.5787    9.0251 C   0  0  0  0  0  0  0  0  0  0  0  0
    8.8068   26.4555    9.5665 C   0  0  0  0  0  0  0  0  0  0  0  0
    9.3166   25.4725    8.7283 C   0  0  0  0  0  0  0  0  0  0  0  0
    9.2012   25.6156    7.3470 C   0  0  0  0  0  0  0  0  0  0  0  0
    8.5701   26.7409    6.7798 C   0  0  0  0  0  0  0  0  0  0  0  0
    8.4722   26.8310    5.3106 C   0  0  0  0  0  0  0  0  0  0  0  0
    7.2286   26.9932    4.6777 C   0  0  0  0  0  0  0  0  0  0  0  0
    7.1367   27.0807    3.2858 C   0  0  0  0  0  0  0  0  0  0  0  0
    8.2919   27.0034    2.5124 C   0  0  0  0  0  0  0  0  0  0  0  0
    8.1712   27.1221    0.6300 Br  0  0  0  0  0  0  0  0  0  0  0  0
    9.5358   26.8398    3.1167 C   0  0  0  0  0  0  0  0  0  0  0  0
    9.6235   26.7535    4.5091 C   0  0  0  0  0  0  0  0  0  0  0  0
 15 16  2  0
 16 17  1  0
 16  9  1  0
  9 10  2  0
 10 11  1  0
 11 12  2  0
 12  7  1  0
  7  1  1  0
  1  2  2  0
  2  3  1  0
  3  4  2  0
  4  5  1  0
  5 19  1  0
 19 21  1  0
 21 22  2  0
 22 23  1  0
 23 24  2  0
 24 25  1  0
 25 26  2  0
 26 27  1  0
 27 28  2  0
 28 29  1  0
 29 30  2  0
 30 31  1  0
 30 32  1  0
 32 33  2  0
  5  6  2  0
 12 13  1  0
 13 14  2  0
 14  9  1  0
  6  1  1  0
 26 21  1  0
 33 27  1  0
 17 18  1  0
  7  8  1  0
 19 20  1  0
M  END
> <minimizedAffinity>
-9.84318

> <CNNscore>
0.3038502932

> <CNNaffinity>
6.7264213562

> <CNN_VS>
2.0438251495

> <CNNaffinity_variance>
0.1017425284

$$$$



 33 36  0  0  0  0  0  0  0  0999 V2000
    4.8308   29.9629    6.2960 C   0  0  0  0  0  0  0  0  0  0  0  0
    4.3873   30.1041    7.5507 N   0  0  0  0  0  0  0  0  0  0  0  0
    3.4500   31.0395    7.7663 C   0  0  0  0  0  0  0  0  0  0  0  0
    2.9276   31.8271    6.7735 C   0  0  0  0  0  0  0  0  0  0  0  0
    3.4141   31.6088    5.5056 C   0  0  0  0  0  0  0  0  0  0  0  0
    4.3751   30.6978    5.2673 N   0  0  0  0  0  0  0  0  0  0  0  0
    5.8115   29.0339    5.9585 N   0  0  0  0  0  0  0  0  0  0  0  0
    5.8891   28.8951    4.9869 H   0  0  0  0  0  0  0  0  0  0  0  0
    8.4356   26.5704    8.1815 C   0  0  0  0  0  0  0  0  0  0  0  0
    8.8402   27.8563    7.8160 C   0  0  0  0  0  0  0  0  0  0  0  0
    7.9835   28.6854    7.0795 C   0  0  0  0  0  0  0  0  0  0  0  0
    6.7105   28.2545    6.6923 C   0  0  0  0  0  0  0  0  0  0  0  0
    6.3201   26.9580    7.0689 C   0  0  0  0  0  0  0  0  0  0  0  0
    7.1684   26.1214    7.8048 C   0  0  0  0  0  0  0  0  0  0  0  0
    9.9064   24.7041    8.5731 O   0  0  0  0  0  0  0  0  0  0  0  0
    9.3744   25.7280    8.9603 C   0  0  0  0  0  0  0  0  0  0  0  0
    9.6057   26.2087   10.1951 O   0  0  0  0  0  0  0  0  0  0  0  0
    9.1873   26.9985   10.4764 H   0  0  0  0  0  0  0  0  0  0  0  0
    2.9971   32.3503    4.3992 N   0  0  0  0  0  0  0  0  0  0  0  0
    3.4674   32.1087    3.5687 H   0  0  0  0  0  0  0  0  0  0  0  0
    2.0413   33.3749    4.2221 C   0  0  0  0  0  0  0  0  0  0  0  0
    1.2650   33.8594    5.2874 C   0  0  0  0  0  0  0  0  0  0  0  0
    0.3395   34.8893    5.1035 C   0  0  0  0  0  0  0  0  0  0  0  0
    0.1742   35.4595    3.8480 C   0  0  0  0  0  0  0  0  0  0  0  0
    0.9316   34.9956    2.7743 C   0  0  0  0  0  0  0  0  0  0  0  0
    1.8706   33.9574    2.9377 C   0  0  0  0  0  0  0  0  0  0  0  0
    2.6477   33.5156    1.7641 C   0  0  0  0  0  0  0  0  0  0  0  0
    2.2482   32.3988    1.0115 C   0  0  0  0  0  0  0  0  0  0  0  0
    2.9836   31.9820   -0.1016 C   0  0  0  0  0  0  0  0  0  0  0  0
    4.1307   32.6796   -0.4706 C   0  0  0  0  0  0  0  0  0  0  0  0
    5.1271   32.1190   -1.9756 Br  0  0  0  0  0  0  0  0  0  0  0  0
    4.5484   33.7881    0.2616 C   0  0  0  0  0  0  0  0  0  0  0  0
    3.8095   34.2022    1.3737 C   0  0  0  0  0  0  0  0  0  0  0  0
 15 16  2  0
 16 17  1  0
 16  9  1  0
  9 10  2  0
 10 11  1  0
 11 12  2  0
 12  7  1  0
  7  1  1  0
  1  2  2  0
  2  3  1  0
  3  4  2  0
  4  5  1  0
  5 19  1  0
 19 21  1  0
 21 22  2  0
 22 23  1  0
 23 24  2  0
 24 25  1  0
 25 26  2  0
 26 27  1  0
 27 28  2  0
 28 29  1  0
 29 30  2  0
 30 31  1  0
 30 32  1  0
 32 33  2  0
  5  6  2  0
 12 13  1  0
 13 14  2  0
 14  9  1  0
  6  1  1  0
 26 21  1  0
 33 27  1  0
 17 18  1  0
  7  8  1  0
 19 20  1  0
M  END
> <minimizedAffinity>
-9.48594

> <CNNscore>
0.2792935371

> <CNNaffinity>
6.4347119331

> <CNN_VS>
1.7971735001

> <CNNaffinity_variance>
0.1596515328

$$$$



 33 36  0  0  0  0  0  0  0  0999 V2000
    7.3324   27.6523    4.2186 C   0  0  0  0  0  0  0  0  0  0  0  0
    7.2567   27.4367    2.8999 N   0  0  0  0  0  0  0  0  0  0  0  0
    6.1685   27.8996    2.2662 C   0  0  0  0  0  0  0  0  0  0  0  0
    5.1620   28.5837    2.8968 C   0  0  0  0  0  0  0  0  0  0  0  0
    5.3202   28.7885    4.2478 C   0  0  0  0  0  0  0  0  0  0  0  0
    6.3873   28.3092    4.9124 N   0  0  0  0  0  0  0  0  0  0  0  0
    8.4086   27.2049    4.9804 N   0  0  0  0  0  0  0  0  0  0  0  0
    9.2238   27.0653    4.4464 H   0  0  0  0  0  0  0  0  0  0  0  0
    8.9095   26.4428    9.1113 C   0  0  0  0  0  0  0  0  0  0  0  0
    9.2198   25.4462    8.1833 C   0  0  0  0  0  0  0  0  0  0  0  0
    9.0596   25.6818    6.8113 C   0  0  0  0  0  0  0  0  0  0  0  0
    8.5890   26.9096    6.3348 C   0  0  0  0  0  0  0  0  0  0  0  0
    8.2820   27.9008    7.2827 C   0  0  0  0  0  0  0  0  0  0  0  0
    8.4384   27.6757    8.6560 C   0  0  0  0  0  0  0  0  0  0  0  0
    8.7754   25.1212   11.1201 O   0  0  0  0  0  0  0  0  0  0  0  0
    9.0942   26.1497   10.5527 C   0  0  0  0  0  0  0  0  0  0  0  0
    9.6731   27.1630   11.2215 O   0  0  0  0  0  0  0  0  0  0  0  0
    9.9120   27.9476   10.7682 H   0  0  0  0  0  0  0  0  0  0  0  0
    4.3675   29.4450    5.0282 N   0  0  0  0  0  0  0  0  0  0  0  0
    3.5813   29.7416    4.5154 H   0  0  0  0  0  0  0  0  0  0  0  0
    4.2958   29.7728    6.4002 C   0  0  0  0  0  0  0  0  0  0  0  0
    4.8850   28.9676    7.3885 C   0  0  0  0  0  0  0  0  0  0  0  0
    4.8267   29.3153    8.7400 C   0  0  0  0  0  0  0  0  0  0  0  0
    4.1797   30.4803    9.1310 C   0  0  0  0  0  0  0  0  0  0  0  0
    3.5858   31.2957    8.1696 C   0  0  0  0  0  0  0  0  0  0  0  0
    3.6326   30.9636    6.8008 C   0  0  0  0  0  0  0  0  0  0  0  0
    2.9919   31.8714    5.8306 C   0  0  0  0  0  0  0  0  0  0  0  0
    1.8881   32.6590    6.1975 C   0  0  0  0  0  0  0  0  0  0  0  0
    1.2827   33.5206    5.2784 C   0  0  0  0  0  0  0  0  0  0  0  0
    1.7764   33.5996    3.9790 C   0  0  0  0  0  0  0  0  0  0  0  0
    0.9607   34.7642    2.7338 Br  0  0  0  0  0  0  0  0  0  0  0  0
    2.8678   32.8267    3.5907 C   0  0  0  0  0  0  0  0  0  0  0  0
    3.4708   31.9668    4.5133 C   0  0  0  0  0  0  0  0  0  0  0  0
 15 16  2  0
 16 17  1  0
 16  9  1  0
  9 10  2  0
 10 11  1  0
 11 12  2  0
 12  7  1  0
  7  1  1  0
  1  2  2  0
  2  3  1  0
  3  4  2  0
  4  5  1  0
  5 19  1  0
 19 21  1  0
 21 22  2  0
 22 23  1  0
 23 24  2  0
 24 25  1  0
 25 26  2  0
 26 27  1  0
 27 28  2  0
 28 29  1  0
 29 30  2  0
 30 31  1  0
 30 32  1  0
 32 33  2  0
  5  6  2  0
 12 13  1  0
 13 14  2  0
 14  9  1  0
  6  1  1  0
 26 21  1  0
 33 27  1  0
 17 18  1  0
  7  8  1  0
 19 20  1  0
M  END
> <minimizedAffinity>
-11.15662

> <CNNscore>
0.2597669661

> <CNNaffinity>
6.1622872353

> <CNN_VS>
1.6007586718

> <CNNaffinity_variance>
0.7422404289

$$$$



 33 36  0  0  0  0  0  0  0  0999 V2000
    7.4627   27.4425    3.7842 C   0  0  0  0  0  0  0  0  0  0  0  0
    8.5520   27.7052    3.0524 N   0  0  0  0  0  0  0  0  0  0  0  0
    8.4446   28.6618    2.1179 C   0  0  0  0  0  0  0  0  0  0  0  0
    7.2959   29.3767    1.8983 C   0  0  0  0  0  0  0  0  0  0  0  0
    6.2250   29.0683    2.7046 C   0  0  0  0  0  0  0  0  0  0  0  0
    6.2972   28.0934    3.6289 N   0  0  0  0  0  0  0  0  0  0  0  0
    7.4545   26.4614    4.7721 N   0  0  0  0  0  0  0  0  0  0  0  0
    7.0871   25.6041    4.4572 H   0  0  0  0  0  0  0  0  0  0  0  0
    8.5620   26.4467    8.8550 C   0  0  0  0  0  0  0  0  0  0  0  0
    9.2055   25.5865    7.9625 C   0  0  0  0  0  0  0  0  0  0  0  0
    8.8509   25.5784    6.6068 C   0  0  0  0  0  0  0  0  0  0  0  0
    7.8520   26.4229    6.1118 C   0  0  0  0  0  0  0  0  0  0  0  0
    7.2153   27.2819    7.0240 C   0  0  0  0  0  0  0  0  0  0  0  0
    7.5620   27.2979    8.3806 C   0  0  0  0  0  0  0  0  0  0  0  0
    9.4108   27.3616   10.9147 O   0  0  0  0  0  0  0  0  0  0  0  0
    8.9692   26.4215   10.2802 C   0  0  0  0  0  0  0  0  0  0  0  0
    8.8038   25.2139   10.8491 O   0  0  0  0  0  0  0  0  0  0  0  0
    8.4624   24.5015   10.3452 H   0  0  0  0  0  0  0  0  0  0  0  0
    4.9830   29.6929    2.5813 N   0  0  0  0  0  0  0  0  0  0  0  0
    4.2419   29.1629    2.9543 H   0  0  0  0  0  0  0  0  0  0  0  0
    4.5673   30.9264    2.0332 C   0  0  0  0  0  0  0  0  0  0  0  0
    4.6569   31.1965    0.6580 C   0  0  0  0  0  0  0  0  0  0  0  0
    4.2207   32.4120    0.1256 C   0  0  0  0  0  0  0  0  0  0  0  0
    3.6810   33.3826    0.9594 C   0  0  0  0  0  0  0  0  0  0  0  0
    3.5824   33.1394    2.3280 C   0  0  0  0  0  0  0  0  0  0  0  0
    4.0167   31.9203    2.8860 C   0  0  0  0  0  0  0  0  0  0  0  0
    3.8786   31.7196    4.3409 C   0  0  0  0  0  0  0  0  0  0  0  0
    4.5352   30.6609    4.9900 C   0  0  0  0  0  0  0  0  0  0  0  0
    4.4057   30.4725    6.3689 C   0  0  0  0  0  0  0  0  0  0  0  0
    3.6129   31.3430    7.1122 C   0  0  0  0  0  0  0  0  0  0  0  0
    3.4362   31.0915    8.9770 Br  0  0  0  0  0  0  0  0  0  0  0  0
    2.9498   32.3982    6.4907 C   0  0  0  0  0  0  0  0  0  0  0  0
    3.0827   32.5835    5.1116 C   0  0  0  0  0  0  0  0  0  0  0  0
 15 16  2  0
 16 17  1  0
 16  9  1  0
  9 10  2  0
 10 11  1  0
 11 12  2  0
 12  7  1  0
  7  1  1  0
  1  2  2  0
  2  3  1  0
  3  4  2  0
  4  5  1  0
  5 19  1  0
 19 21  1  0
 21 22  2  0
 22 23  1  0
 23 24  2  0
 24 25  1  0
 25 26  2  0
 26 27  1  0
 27 28  2  0
 28 29  1  0
 29 30  2  0
 30 31  1  0
 30 32  1  0
 32 33  2  0
  5  6  2  0
 12 13  1  0
 13 14  2  0
 14  9  1  0
  6  1  1  0
 26 21  1  0
 33 27  1  0
 17 18  1  0
  7  8  1  0
 19 20  1  0
M  END
> <minimizedAffinity>
-10.33983

> <CNNscore>
0.2320239842

> <CNNaffinity>
6.2980895042

> <CNN_VS>
1.4613077641

> <CNNaffinity_variance>
0.3482396305

$$$$



 33 36  0  0  0  0  0  0  0  0999 V2000
    4.2206   30.4162    6.4309 C   0  0  0  0  0  0  0  0  0  0  0  0
    3.5125   30.2912    7.5596 N   0  0  0  0  0  0  0  0  0  0  0  0
    4.0928   29.6353    8.5759 C   0  0  0  0  0  0  0  0  0  0  0  0
    5.3591   29.1146    8.5129 C   0  0  0  0  0  0  0  0  0  0  0  0
    6.0352   29.3027    7.3299 C   0  0  0  0  0  0  0  0  0  0  0  0
    5.4653   29.9308    6.2854 N   0  0  0  0  0  0  0  0  0  0  0  0
    3.7137   31.0649    5.3079 N   0  0  0  0  0  0  0  0  0  0  0  0
    2.9398   31.6377    5.5136 H   0  0  0  0  0  0  0  0  0  0  0  0
    4.6798   31.2392    1.1930 C   0  0  0  0  0  0  0  0  0  0  0  0
    5.1981   30.2087    1.9804 C   0  0  0  0  0  0  0  0  0  0  0  0
    4.8883   30.1360    3.3451 C   0  0  0  0  0  0  0  0  0  0  0  0
    4.0592   31.0838    3.9535 C   0  0  0  0  0  0  0  0  0  0  0  0
    3.5465   32.1136    3.1461 C   0  0  0  0  0  0  0  0  0  0  0  0
    3.8498   32.1954    1.7815 C   0  0  0  0  0  0  0  0  0  0  0  0
    6.1606   31.2592   -0.7060 O   0  0  0  0  0  0  0  0  0  0  0  0
    5.0340   31.2769   -0.2460 C   0  0  0  0  0  0  0  0  0  0  0  0
    3.9555   31.3351   -1.0477 O   0  0  0  0  0  0  0  0  0  0  0  0
    3.0955   31.3480   -0.6759 H   0  0  0  0  0  0  0  0  0  0  0  0
    7.3209   28.8072    7.1083 N   0  0  0  0  0  0  0  0  0  0  0  0
    7.8471   29.3555    6.4823 H   0  0  0  0  0  0  0  0  0  0  0  0
    8.0250   27.6836    7.5946 C   0  0  0  0  0  0  0  0  0  0  0  0
    8.2319   27.4733    8.9676 C   0  0  0  0  0  0  0  0  0  0  0  0
    8.9098   26.3457    9.4367 C   0  0  0  0  0  0  0  0  0  0  0  0
    9.3923   25.4014    8.5399 C   0  0  0  0  0  0  0  0  0  0  0  0
    9.2011   25.5878    7.1722 C   0  0  0  0  0  0  0  0  0  0  0  0
    8.5202   26.7182    6.6776 C   0  0  0  0  0  0  0  0  0  0  0  0
    8.3428   26.8549    5.2195 C   0  0  0  0  0  0  0  0  0  0  0  0
    7.0651   27.0181    4.6591 C   0  0  0  0  0  0  0  0  0  0  0  0
    6.8977   27.1497    3.2777 C   0  0  0  0  0  0  0  0  0  0  0  0
    8.0110   27.1159    2.4421 C   0  0  0  0  0  0  0  0  0  0  0  0
    7.7884   27.2943    0.5738 Br  0  0  0  0  0  0  0  0  0  0  0  0
    9.2876   26.9522    2.9740 C   0  0  0  0  0  0  0  0  0  0  0  0
    9.4506   26.8218    4.3561 C   0  0  0  0  0  0  0  0  0  0  0  0
 15 16  2  0
 16 17  1  0
 16  9  1  0
  9 10  2  0
 10 11  1  0
 11 12  2  0
 12  7  1  0
  7  1  1  0
  1  2  2  0
  2  3  1  0
  3  4  2  0
  4  5  1  0
  5 19  1  0
 19 21  1  0
 21 22  2  0
 22 23  1  0
 23 24  2  0
 24 25  1  0
 25 26  2  0
 26 27  1  0
 27 28  2  0
 28 29  1  0
 29 30  2  0
 30 31  1  0
 30 32  1  0
 32 33  2  0
  5  6  2  0
 12 13  1  0
 13 14  2  0
 14  9  1  0
  6  1  1  0
 26 21  1  0
 33 27  1  0
 17 18  1  0
  7  8  1  0
 19 20  1  0
M  END
> <minimizedAffinity>
-8.47152

> <CNNscore>
0.2022420019

> <CNNaffinity>
6.5812187195

> <CNN_VS>
1.3309988976

> <CNNaffinity_variance>
0.0592256598

$$$$



 33 36  0  0  0  0  0  0  0  0999 V2000
    7.8375   29.3771    2.6265 C   0  0  0  0  0  0  0  0  0  0  0  0
    8.0177   29.2457    1.3069 N   0  0  0  0  0  0  0  0  0  0  0  0
    6.9546   29.4688    0.5195 C   0  0  0  0  0  0  0  0  0  0  0  0
    5.7237   29.8341    0.9991 C   0  0  0  0  0  0  0  0  0  0  0  0
    5.6202   29.9733    2.3637 C   0  0  0  0  0  0  0  0  0  0  0  0
    6.6627   29.7268    3.1776 N   0  0  0  0  0  0  0  0  0  0  0  0
    8.8659   29.1566    3.5389 N   0  0  0  0  0  0  0  0  0  0  0  0
    9.6852   29.6568    3.3203 H   0  0  0  0  0  0  0  0  0  0  0  0
    9.2456   26.9347    7.1188 C   0  0  0  0  0  0  0  0  0  0  0  0
    9.2563   26.2706    5.8901 C   0  0  0  0  0  0  0  0  0  0  0  0
    9.1315   26.9912    4.6948 C   0  0  0  0  0  0  0  0  0  0  0  0
    8.9939   28.3830    4.6962 C   0  0  0  0  0  0  0  0  0  0  0  0
    8.9854   29.0346    5.9414 C   0  0  0  0  0  0  0  0  0  0  0  0
    9.1094   28.3241    7.1417 C   0  0  0  0  0  0  0  0  0  0  0  0
    9.6069   24.9379    8.4157 O   0  0  0  0  0  0  0  0  0  0  0  0
    9.3804   26.1324    8.3580 C   0  0  0  0  0  0  0  0  0  0  0  0
    9.2249   26.8662    9.4745 O   0  0  0  0  0  0  0  0  0  0  0  0
    9.0510   27.7847    9.4110 H   0  0  0  0  0  0  0  0  0  0  0  0
    4.4254   30.3145    2.9990 N   0  0  0  0  0  0  0  0  0  0  0  0
    4.0807   29.6045    3.5875 H   0  0  0  0  0  0  0  0  0  0  0  0
    3.6074   31.4656    2.9740 C   0  0  0  0  0  0  0  0  0  0  0  0
    3.2367   32.0880    1.7710 C   0  0  0  0  0  0  0  0  0  0  0  0
    2.4081   33.2125    1.7590 C   0  0  0  0  0  0  0  0  0  0  0  0
    1.9291   33.7359    2.9528 C   0  0  0  0  0  0  0  0  0  0  0  0
    2.2835   33.1373    4.1602 C   0  0  0  0  0  0  0  0  0  0  0  0
    3.1185   32.0025    4.1951 C   0  0  0  0  0  0  0  0  0  0  0  0
    3.4514   31.4095    5.5042 C   0  0  0  0  0  0  0  0  0  0  0  0
    4.2080   30.2292    5.5916 C   0  0  0  0  0  0  0  0  0  0  0  0
    4.5250   29.6690    6.8322 C   0  0  0  0  0  0  0  0  0  0  0  0
    4.0834   30.2854    8.0000 C   0  0  0  0  0  0  0  0  0  0  0  0
    4.5108   29.5310    9.6794 Br  0  0  0  0  0  0  0  0  0  0  0  0
    3.3295   31.4547    7.9389 C   0  0  0  0  0  0  0  0  0  0  0  0
    3.0154   32.0121    6.6960 C   0  0  0  0  0  0  0  0  0  0  0  0
 15 16  2  0
 16 17  1  0
 16  9  1  0
  9 10  2  0
 10 11  1  0
 11 12  2  0
 12  7  1  0
  7  1  1  0
  1  2  2  0
  2  3  1  0
  3  4  2  0
  4  5  1  0
  5 19  1  0
 19 21  1  0
 21 22  2  0
 22 23  1  0
 23 24  2  0
 24 25  1  0
 25 26  2  0
 26 27  1  0
 27 28  2  0
 28 29  1  0
 29 30  2  0
 30 31  1  0
 30 32  1  0
 32 33  2  0
  5  6  2  0
 12 13  1  0
 13 14  2  0
 14  9  1  0
  6  1  1  0
 26 21  1  0
 33 27  1  0
 17 18  1  0
  7  8  1  0
 19 20  1  0
M  END
> <minimizedAffinity>
-10.21091

> <CNNscore>
0.1526571512

> <CNNaffinity>
6.0785713196

> <CNN_VS>
0.9279373884

> <CNNaffinity_variance>
0.6101275086

$$$$



 33 36  0  0  0  0  0  0  0  0999 V2000
    4.1618   30.7413    6.7097 C   0  0  0  0  0  0  0  0  0  0  0  0
    3.5071   31.6819    7.4009 N   0  0  0  0  0  0  0  0  0  0  0  0
    3.0061   32.7140    6.7055 C   0  0  0  0  0  0  0  0  0  0  0  0
    3.1201   32.8335    5.3448 C   0  0  0  0  0  0  0  0  0  0  0  0
    3.7848   31.8169    4.6993 C   0  0  0  0  0  0  0  0  0  0  0  0
    4.3222   30.7858    5.3761 N   0  0  0  0  0  0  0  0  0  0  0  0
    4.7348   29.6333    7.3284 N   0  0  0  0  0  0  0  0  0  0  0  0
    4.3344   29.4351    8.2057 H   0  0  0  0  0  0  0  0  0  0  0  0
    7.7717   26.8440    6.3832 C   0  0  0  0  0  0  0  0  0  0  0  0
    7.6537   28.0162    5.6330 C   0  0  0  0  0  0  0  0  0  0  0  0
    6.6535   28.9507    5.9325 C   0  0  0  0  0  0  0  0  0  0  0  0
    5.7522   28.7398    6.9810 C   0  0  0  0  0  0  0  0  0  0  0  0
    5.8858   27.5552    7.7253 C   0  0  0  0  0  0  0  0  0  0  0  0
    6.8818   26.6148    7.4344 C   0  0  0  0  0  0  0  0  0  0  0  0
    9.4872   25.2099    6.8150 O   0  0  0  0  0  0  0  0  0  0  0  0
    8.8445   25.8835    6.0310 C   0  0  0  0  0  0  0  0  0  0  0  0
    9.0647   25.8095    4.7061 O   0  0  0  0  0  0  0  0  0  0  0  0
    8.5603   26.3357    4.1173 H   0  0  0  0  0  0  0  0  0  0  0  0
    4.0018   31.8131    3.3206 N   0  0  0  0  0  0  0  0  0  0  0  0
    4.9229   31.5701    3.0721 H   0  0  0  0  0  0  0  0  0  0  0  0
    3.1760   32.0849    2.2075 C   0  0  0  0  0  0  0  0  0  0  0  0
    1.9010   32.6561    2.3499 C   0  0  0  0  0  0  0  0  0  0  0  0
    1.1036   32.9414    1.2391 C   0  0  0  0  0  0  0  0  0  0  0  0
    1.5682   32.6641   -0.0399 C   0  0  0  0  0  0  0  0  0  0  0  0
    2.8295   32.0960   -0.2078 C   0  0  0  0  0  0  0  0  0  0  0  0
    3.6501   31.7999    0.8990 C   0  0  0  0  0  0  0  0  0  0  0  0
    4.9785   31.2063    0.6557 C   0  0  0  0  0  0  0  0  0  0  0  0
    5.3772   30.0320    1.3156 C   0  0  0  0  0  0  0  0  0  0  0  0
    6.6352   29.4689    1.0831 C   0  0  0  0  0  0  0  0  0  0  0  0
    7.5091   30.0796    0.1876 C   0  0  0  0  0  0  0  0  0  0  0  0
    9.2105   29.3204   -0.1297 Br  0  0  0  0  0  0  0  0  0  0  0  0
    7.1375   31.2460   -0.4765 C   0  0  0  0  0  0  0  0  0  0  0  0
    5.8782   31.8055   -0.2417 C   0  0  0  0  0  0  0  0  0  0  0  0
 15 16  2  0
 16 17  1  0
 16  9  1  0
  9 10  2  0
 10 11  1  0
 11 12  2  0
 12  7  1  0
  7  1  1  0
  1  2  2  0
  2  3  1  0
  3  4  2  0
  4  5  1  0
  5 19  1  0
 19 21  1  0
 21 22  2  0
 22 23  1  0
 23 24  2  0
 24 25  1  0
 25 26  2  0
 26 27  1  0
 27 28  2  0
 28 29  1  0
 29 30  2  0
 30 31  1  0
 30 32  1  0
 32 33  2  0
  5  6  2  0
 12 13  1  0
 13 14  2  0
 14  9  1  0
  6  1  1  0
 26 21  1  0
 33 27  1  0
 17 18  1  0
  7  8  1  0
 19 20  1  0
M  END
> <minimizedAffinity>
-8.66025

> <CNNscore>
0.1234575510

> <CNNaffinity>
6.2274794579

> <CNN_VS>
0.7688293457

> <CNNaffinity_variance>
0.0138322338

$$$$



 33 36  0  0  0  0  0  0  0  0999 V2000
    9.9910   27.9166    4.5631 C   0  0  0  0  0  0  0  0  0  0  0  0
   10.7254   28.6461    5.4114 N   0  0  0  0  0  0  0  0  0  0  0  0
   10.1239   29.6929    5.9966 C   0  0  0  0  0  0  0  0  0  0  0  0
    8.8128   30.0282    5.7791 C   0  0  0  0  0  0  0  0  0  0  0  0
    8.1142   29.2188    4.9138 C   0  0  0  0  0  0  0  0  0  0  0  0
    8.7016   28.1808    4.2912 N   0  0  0  0  0  0  0  0  0  0  0  0
   10.5148   26.8169    3.8887 N   0  0  0  0  0  0  0  0  0  0  0  0
   10.2472   25.9587    4.2901 H   0  0  0  0  0  0  0  0  0  0  0  0
   12.9412   26.4592    0.4418 C   0  0  0  0  0  0  0  0  0  0  0  0
   13.0585   25.5198    1.4687 C   0  0  0  0  0  0  0  0  0  0  0  0
   12.2626   25.6234    2.6174 C   0  0  0  0  0  0  0  0  0  0  0  0
   11.3362   26.6602    2.7685 C   0  0  0  0  0  0  0  0  0  0  0  0
   11.2314   27.5962    1.7254 C   0  0  0  0  0  0  0  0  0  0  0  0
   12.0220   27.5019    0.5734 C   0  0  0  0  0  0  0  0  0  0  0  0
   14.9972   26.5403   -0.8096 O   0  0  0  0  0  0  0  0  0  0  0  0
   13.8032   26.3106   -0.7550 C   0  0  0  0  0  0  0  0  0  0  0  0
   13.1273   25.8785   -1.8347 O   0  0  0  0  0  0  0  0  0  0  0  0
   12.2082   25.7066   -1.7743 H   0  0  0  0  0  0  0  0  0  0  0  0
    6.7802   29.4500    4.5748 N   0  0  0  0  0  0  0  0  0  0  0  0
    6.5776   29.2496    3.6324 H   0  0  0  0  0  0  0  0  0  0  0  0
    5.6604   29.9113    5.3012 C   0  0  0  0  0  0  0  0  0  0  0  0
    4.7470   30.8281    4.7559 C   0  0  0  0  0  0  0  0  0  0  0  0
    3.6306   31.2587    5.4766 C   0  0  0  0  0  0  0  0  0  0  0  0
    3.4026   30.7768    6.7589 C   0  0  0  0  0  0  0  0  0  0  0  0
    4.2949   29.8673    7.3231 C   0  0  0  0  0  0  0  0  0  0  0  0
    5.4276   29.4200    6.6137 C   0  0  0  0  0  0  0  0  0  0  0  0
    6.3307   28.4504    7.2623 C   0  0  0  0  0  0  0  0  0  0  0  0
    7.1247   28.8241    8.3591 C   0  0  0  0  0  0  0  0  0  0  0  0
    7.9786   27.9044    8.9746 C   0  0  0  0  0  0  0  0  0  0  0  0
    8.0478   26.5995    8.4942 C   0  0  0  0  0  0  0  0  0  0  0  0
    9.2009   25.3532    9.3244 Br  0  0  0  0  0  0  0  0  0  0  0  0
    7.2725   26.2061    7.4062 C   0  0  0  0  0  0  0  0  0  0  0  0
    6.4192   27.1288    6.7941 C   0  0  0  0  0  0  0  0  0  0  0  0
 15 16  2  0
 16 17  1  0
 16  9  1  0
  9 10  2  0
 10 11  1  0
 11 12  2  0
 12  7  1  0
  7  1  1  0
  1  2  2  0
  2  3  1  0
  3  4  2  0
  4  5  1  0
  5 19  1  0
 19 21  1  0
 21 22  2  0
 22 23  1  0
 23 24  2  0
 24 25  1  0
 25 26  2  0
 26 27  1  0
 27 28  2  0
 28 29  1  0
 29 30  2  0
 30 31  1  0
 30 32  1  0
 32 33  2  0
  5  6  2  0
 12 13  1  0
 13 14  2  0
 14  9  1  0
  6  1  1  0
 26 21  1  0
 33 27  1  0
 17 18  1  0
  7  8  1  0
 19 20  1  0
M  END
> <minimizedAffinity>
-8.82634

> <CNNscore>
0.0893870294

> <CNNaffinity>
4.5925908089

> <CNN_VS>
0.4105180502

> <CNNaffinity_variance>
2.7932012081

$$$$
