


 89 91  0  0  0  0  0  0  0  0999 V2000
   17.0654    7.4585    6.1032 N   0  0  0  0  0  0  0  0  0  0  0  0
   16.6783    6.2685    6.6953 C   0  0  0  0  0  0  0  0  0  0  0  0
   15.9276    6.2317    7.6666 O   0  0  0  0  0  0  0  0  0  0  0  0
   17.6230    7.4368    5.2921 H   0  0  0  0  0  0  0  0  0  0  0  0
   17.3937    5.0267    6.1276 C   0  0  0  0  0  0  0  0  0  0  0  0
   17.1201    3.8298    6.9302 N   0  0  0  0  0  0  0  0  0  0  0  0
   16.4343    2.7578    6.4097 C   0  0  0  0  0  0  0  0  0  0  0  0
   15.8500    2.7913    5.3325 O   0  0  0  0  0  0  0  0  0  0  0  0
   17.4345    3.7933    7.8624 H   0  0  0  0  0  0  0  0  0  0  0  0
   16.4522    1.5092    7.2728 C   0  0  0  0  0  0  0  0  0  0  0  0
   15.1147    0.7679    7.2074 C   0  0  0  0  0  0  0  0  0  0  0  0
   14.0728    1.3836    8.1436 C   0  0  0  0  0  0  0  0  0  0  0  0
   12.7547    1.7190    7.4410 C   0  0  0  0  0  0  0  0  0  0  0  0
   12.4331    3.2136    7.3551 C   0  0  0  0  0  0  0  0  0  0  0  0
   11.2312    3.6050    8.0768 N   0  0  0  0  0  0  0  0  0  0  0  0
   11.3194    4.1433    9.3475 C   0  0  0  0  0  0  0  0  0  0  0  0
   12.3470    4.1476   10.0230 O   0  0  0  0  0  0  0  0  0  0  0  0
   10.3487    3.4856    7.6570 H   0  0  0  0  0  0  0  0  0  0  0  0
   10.0044    4.6832    9.9088 C   0  0  0  0  0  0  0  0  0  0  0  0
    9.7200    4.1628   11.2175 O   0  0  0  0  0  0  0  0  0  0  0  0
    9.2398    5.2647   12.0168 C   0  0  0  0  0  0  0  0  0  0  0  0
   10.0171    6.4777   11.5062 C   0  0  0  0  0  0  0  0  0  0  0  0
    9.3846    7.7183   11.8009 O   0  0  0  0  0  0  0  0  0  0  0  0
   10.0275    6.2093   10.0029 C   0  0  0  0  0  0  0  0  0  0  0  0
    8.8249    6.7755    9.4424 O   0  0  0  0  0  0  0  0  0  0  0  0
    8.4902    7.7225   11.4255 H   0  0  0  0  0  0  0  0  0  0  0  0
    8.0517    6.4098    9.8998 H   0  0  0  0  0  0  0  0  0  0  0  0
    9.3399    4.8733   13.4045 N   0  0  0  0  0  0  0  0  0  0  0  0
    8.4610    5.3101   14.3699 C   0  0  0  0  0  0  0  0  0  0  0  0
    8.7964    4.8976   15.5725 N   0  0  0  0  0  0  0  0  0  0  0  0
    9.9307    4.1421   15.3787 C   0  0  0  0  0  0  0  0  0  0  0  0
   10.7629    3.4458   16.2731 C   0  0  0  0  0  0  0  0  0  0  0  0
   10.5303    3.4064   17.6434 N   0  0  0  0  0  0  0  0  0  0  0  0
   11.8456    2.8040   15.7883 N   0  0  0  0  0  0  0  0  0  0  0  0
   12.0481    2.8424   14.4564 C   0  0  0  0  0  0  0  0  0  0  0  0
   13.4255    1.9942   13.8979 Cl  0  0  0  0  0  0  0  0  0  0  0  0
   11.3180    3.4479   13.4988 N   0  0  0  0  0  0  0  0  0  0  0  0
   10.2758    4.1001   14.0329 C   0  0  0  0  0  0  0  0  0  0  0  0
    9.7472    3.8666   18.0232 H   0  0  0  0  0  0  0  0  0  0  0  0
   11.1487    2.9184   18.2338 H   0  0  0  0  0  0  0  0  0  0  0  0
   18.9011    5.2445    5.9175 C   0  0  0  0  0  0  0  0  0  0  0  0
   19.7271    3.9500    5.8940 C   0  0  0  0  0  0  0  0  0  0  0  0
   20.8784    3.9468    6.9114 C   0  0  0  0  0  0  0  0  0  0  0  0
   20.4741    3.5323    8.3289 C   0  0  0  0  0  0  0  0  0  0  0  0
   20.6103    4.6110    9.2944 N   0  0  0  0  0  0  0  0  0  0  0  0
   21.5873    4.8995    9.3464 H   0  0  0  0  0  0  0  0  0  0  0  0
   20.3021    4.2875   10.2113 H   0  0  0  0  0  0  0  0  0  0  0  0
   16.6638    8.7339    6.6567 C   0  0  0  0  0  0  0  0  0  0  0  0
   15.5865    9.4075    5.8063 C   0  0  0  0  0  0  0  0  0  0  0  0
   14.7515   10.4411    6.5717 C   0  0  0  0  0  0  0  0  0  0  0  0
   14.3710   11.7060    5.7819 C   0  0  0  0  0  0  0  0  0  0  0  0
   15.3202   12.8947    5.9542 C   0  0  0  0  0  0  0  0  0  0  0  0
   17.0937   14.1139    4.8482 N   0  0  0  0  0  0  0  0  0  0  0  0
   15.9873   13.3137    4.6580 C   0  0  0  0  0  0  0  0  0  0  0  0
   15.5755   12.9742    3.5535 O   0  0  0  0  0  0  0  0  0  0  0  0
   17.4398   14.2587    5.7585 H   0  0  0  0  0  0  0  0  0  0  0  0
   17.7574   14.7489    3.7127 C   0  0  0  0  0  0  0  0  0  0  0  0
   16.5982   16.8956    3.9545 N   0  0  0  0  0  0  0  0  0  0  0  0
   17.8134   16.2628    3.9779 C   0  0  0  0  0  0  0  0  0  0  0  0
   18.8817   16.8388    4.1870 O   0  0  0  0  0  0  0  0  0  0  0  0
   15.8055   16.3627    3.7159 H   0  0  0  0  0  0  0  0  0  0  0  0
   16.4033   18.3178    4.2626 C   0  0  0  0  0  0  0  0  0  0  0  0
   14.9618   18.7103    3.8548 C   0  0  0  0  0  0  0  0  0  0  0  0
   14.5197   18.1426    2.6884 N   0  0  0  0  0  0  0  0  0  0  0  0
   14.2558   19.5233    4.4424 O   0  0  0  0  0  0  0  0  0  0  0  0
   15.0836   17.4897    2.2140 H   0  0  0  0  0  0  0  0  0  0  0  0
   13.6383   18.3878    2.3248 H   0  0  0  0  0  0  0  0  0  0  0  0
   16.6400   18.6043    5.7548 C   0  0  0  0  0  0  0  0  0  0  0  0
   17.9179   19.3918    6.0809 C   0  0  0  0  0  0  0  0  0  0  0  0
   17.9196   20.0616    7.4553 C   0  0  0  0  0  0  0  0  0  0  0  0
   18.5317   19.1770    8.4324 N   0  0  0  0  0  0  0  0  0  0  0  0
   19.4825   19.3069    8.6520 H   0  0  0  0  0  0  0  0  0  0  0  0
   16.7331   18.3101    9.6545 N   0  0  0  0  0  0  0  0  0  0  0  0
   17.8574   18.1846    9.0537 C   0  0  0  0  0  0  0  0  0  0  0  0
   18.5058   17.0084    8.9385 N   0  0  0  0  0  0  0  0  0  0  0  0
   16.3132   17.5286   10.0814 H   0  0  0  0  0  0  0  0  0  0  0  0
   18.1273   16.1957    9.3452 H   0  0  0  0  0  0  0  0  0  0  0  0
   19.3580   16.9621    8.4476 H   0  0  0  0  0  0  0  0  0  0  0  0
   19.1292   14.1294    3.4065 C   0  0  0  0  0  0  0  0  0  0  0  0
   19.6231   14.1763    1.9501 C   0  0  0  0  0  0  0  0  0  0  0  0
   21.0456   14.6902    1.7224 C   0  0  0  0  0  0  0  0  0  0  0  0
   21.2446   15.9781    2.3640 N   0  0  0  0  0  0  0  0  0  0  0  0
   21.6062   15.9766    3.2797 H   0  0  0  0  0  0  0  0  0  0  0  0
   20.9739   17.1750    1.8066 C   0  0  0  0  0  0  0  0  0  0  0  0
   19.8917   17.5762    1.2522 N   0  0  0  0  0  0  0  0  0  0  0  0
   22.0276   18.0091    1.8777 N   0  0  0  0  0  0  0  0  0  0  0  0
   19.1151   16.9738    1.1951 H   0  0  0  0  0  0  0  0  0  0  0  0
   22.8642   17.7102    2.3020 H   0  0  0  0  0  0  0  0  0  0  0  0
   21.9619   18.9181    1.5055 H   0  0  0  0  0  0  0  0  0  0  0  0
 73 74  2  0
 74 75  1  0
 74 71  1  0
 71 70  1  0
 70 69  1  0
 69 68  1  0
 62 68  1  0
 62 58  1  0
 58 59  1  0
 59 60  2  0
 59 57  1  0
 57 79  1  0
 79 80  1  0
 80 81  1  0
 81 82  1  0
 82 84  1  0
 84 85  2  0
 84 86  1  0
 57 53  1  0
 53 54  1  0
 54 55  2  0
 54 52  1  0
 52 51  1  0
 51 50  1  0
 50 49  1  0
 49 48  1  0
 48  1  1  0
  1  2  1  0
  2  3  2  0
  2  5  1  0
  5 41  1  0
 41 42  1  0
 42 43  1  0
 43 44  1  0
 44 45  1  0
  5  6  1  0
  6  7  1  0
  7  8  2  0
  7 10  1  0
 10 11  1  0
 11 12  1  0
 12 13  1  0
 13 14  1  0
 14 15  1  0
 15 16  1  0
 16 17  2  0
 19 16  1  0
 19 20  1  0
 20 21  1  0
 21 28  1  0
 28 29  1  0
 29 30  2  0
 30 31  1  0
 31 32  2  0
 32 33  1  0
 32 34  1  0
 34 35  2  0
 35 36  1  0
 35 37  1  0
 37 38  2  0
 21 22  1  0
 22 23  1  0
 22 24  1  0
 24 25  1  0
 62 63  1  0
 63 64  1  0
 63 65  2  0
 24 19  1  0
 38 28  1  0
 38 31  1  0
 73 76  1  0
 75 77  1  0
 75 78  1  0
 71 72  1  0
 58 61  1  0
 82 83  1  0
 85 87  1  0
 86 88  1  0
 86 89  1  0
 53 56  1  0
  1  4  1  0
 45 46  1  0
 45 47  1  0
  6  9  1  0
 15 18  1  0
 33 39  1  0
 33 40  1  0
 23 26  1  0
 25 27  1  0
 64 66  1  0
 64 67  1  0
M  END
> <minimizedAffinity>
-7.13855

> <CNNscore>
0.5735313296

> <CNNaffinity>
7.8400630951

> <CNN_VS>
4.4965219498

> <CNNaffinity_variance>
1.5384145975

$$$$



 89 91  0  0  0  0  0  0  0  0999 V2000
   18.6272    5.3549    4.7023 N   0  0  0  0  0  0  0  0  0  0  0  0
   17.7019    4.9830    5.6625 C   0  0  0  0  0  0  0  0  0  0  0  0
   16.7686    5.7101    5.9918 O   0  0  0  0  0  0  0  0  0  0  0  0
   19.3255    4.7165    4.4300 H   0  0  0  0  0  0  0  0  0  0  0  0
   18.0415    3.6608    6.3783 C   0  0  0  0  0  0  0  0  0  0  0  0
   16.8786    2.7699    6.4510 N   0  0  0  0  0  0  0  0  0  0  0  0
   16.4116    2.1068    5.3408 C   0  0  0  0  0  0  0  0  0  0  0  0
   16.7974    2.3463    4.2019 O   0  0  0  0  0  0  0  0  0  0  0  0
   16.4221    2.6439    7.3141 H   0  0  0  0  0  0  0  0  0  0  0  0
   15.3708    1.0394    5.6260 C   0  0  0  0  0  0  0  0  0  0  0  0
   15.4748    0.5308    7.0658 C   0  0  0  0  0  0  0  0  0  0  0  0
   14.1184    0.5359    7.7740 C   0  0  0  0  0  0  0  0  0  0  0  0
   13.6197    1.9435    8.1108 C   0  0  0  0  0  0  0  0  0  0  0  0
   12.1922    2.2484    7.6484 C   0  0  0  0  0  0  0  0  0  0  0  0
   11.5232    3.2800    8.4274 N   0  0  0  0  0  0  0  0  0  0  0  0
   11.3587    4.5527    7.9122 C   0  0  0  0  0  0  0  0  0  0  0  0
   11.9132    4.9592    6.8925 O   0  0  0  0  0  0  0  0  0  0  0  0
   11.1852    3.0701    9.3279 H   0  0  0  0  0  0  0  0  0  0  0  0
   10.4770    5.4764    8.7520 C   0  0  0  0  0  0  0  0  0  0  0  0
   10.2926    4.9814   10.0881 O   0  0  0  0  0  0  0  0  0  0  0  0
   10.4233    6.1091   10.9798 C   0  0  0  0  0  0  0  0  0  0  0  0
   11.4712    7.0034   10.3177 C   0  0  0  0  0  0  0  0  0  0  0  0
   11.4126    8.3579   10.7515 O   0  0  0  0  0  0  0  0  0  0  0  0
   11.0777    6.8794    8.8474 C   0  0  0  0  0  0  0  0  0  0  0  0
   10.0805    7.8838    8.5684 O   0  0  0  0  0  0  0  0  0  0  0  0
   10.5262    8.7136   10.5820 H   0  0  0  0  0  0  0  0  0  0  0  0
    9.3369    7.7806    9.1826 H   0  0  0  0  0  0  0  0  0  0  0  0
   10.6514    5.5899   12.3093 N   0  0  0  0  0  0  0  0  0  0  0  0
   11.8843    5.1551   12.7409 C   0  0  0  0  0  0  0  0  0  0  0  0
   11.8369    4.6448   13.9518 N   0  0  0  0  0  0  0  0  0  0  0  0
   10.5203    4.7723   14.3330 C   0  0  0  0  0  0  0  0  0  0  0  0
    9.8400    4.4053   15.5076 C   0  0  0  0  0  0  0  0  0  0  0  0
   10.4728    3.7966   16.5858 N   0  0  0  0  0  0  0  0  0  0  0  0
    8.5131    4.6331   15.5887 N   0  0  0  0  0  0  0  0  0  0  0  0
    7.9191    5.2354   14.5396 C   0  0  0  0  0  0  0  0  0  0  0  0
    6.2394    5.5162   14.7079 Cl  0  0  0  0  0  0  0  0  0  0  0  0
    8.4588    5.6548   13.3779 N   0  0  0  0  0  0  0  0  0  0  0  0
    9.7689    5.3746   13.3306 C   0  0  0  0  0  0  0  0  0  0  0  0
   11.4405    3.6190   16.5524 H   0  0  0  0  0  0  0  0  0  0  0  0
    9.9530    3.5433   17.3826 H   0  0  0  0  0  0  0  0  0  0  0  0
   18.6895    3.8721    7.7565 C   0  0  0  0  0  0  0  0  0  0  0  0
   20.2073    3.6395    7.7811 C   0  0  0  0  0  0  0  0  0  0  0  0
   20.6535    2.6639    8.8810 C   0  0  0  0  0  0  0  0  0  0  0  0
   19.5811    1.6611    9.3159 C   0  0  0  0  0  0  0  0  0  0  0  0
   19.3719    1.6447   10.7547 N   0  0  0  0  0  0  0  0  0  0  0  0
   20.2347    1.3637   11.2205 H   0  0  0  0  0  0  0  0  0  0  0  0
   18.6309    0.9821   10.9830 H   0  0  0  0  0  0  0  0  0  0  0  0
   18.5851    6.6665    4.0923 C   0  0  0  0  0  0  0  0  0  0  0  0
   19.6795    7.5825    4.6405 C   0  0  0  0  0  0  0  0  0  0  0  0
   20.8818    7.7395    3.7018 C   0  0  0  0  0  0  0  0  0  0  0  0
   22.2225    8.0616    4.3855 C   0  0  0  0  0  0  0  0  0  0  0  0
   22.6572    9.5277    4.3141 C   0  0  0  0  0  0  0  0  0  0  0  0
   23.5242   11.2456    2.8471 N   0  0  0  0  0  0  0  0  0  0  0  0
   23.2938    9.8936    2.9868 C   0  0  0  0  0  0  0  0  0  0  0  0
   23.5696    9.0643    2.1260 O   0  0  0  0  0  0  0  0  0  0  0  0
   23.3855   11.8456    3.6153 H   0  0  0  0  0  0  0  0  0  0  0  0
   23.9719   11.7967    1.5707 C   0  0  0  0  0  0  0  0  0  0  0  0
   22.8767   13.9514    1.1612 N   0  0  0  0  0  0  0  0  0  0  0  0
   22.8085   12.5974    0.9620 C   0  0  0  0  0  0  0  0  0  0  0  0
   21.8955   12.0399    0.3519 O   0  0  0  0  0  0  0  0  0  0  0  0
   23.6117   14.2992    1.7161 H   0  0  0  0  0  0  0  0  0  0  0  0
   21.9231   14.9163    0.5996 C   0  0  0  0  0  0  0  0  0  0  0  0
   20.8822   15.2632    1.6925 C   0  0  0  0  0  0  0  0  0  0  0  0
   20.2044   14.1870    2.2030 N   0  0  0  0  0  0  0  0  0  0  0  0
   20.5848   16.3973    2.0531 O   0  0  0  0  0  0  0  0  0  0  0  0
   20.4403   13.2754    1.9159 H   0  0  0  0  0  0  0  0  0  0  0  0
   19.4815   14.3257    2.8569 H   0  0  0  0  0  0  0  0  0  0  0  0
   22.6367   16.1873    0.1097 C   0  0  0  0  0  0  0  0  0  0  0  0
   21.7469   17.4316   -0.0293 C   0  0  0  0  0  0  0  0  0  0  0  0
   21.4419   17.8384   -1.4712 C   0  0  0  0  0  0  0  0  0  0  0  0
   20.5474   18.9837   -1.4799 N   0  0  0  0  0  0  0  0  0  0  0  0
   19.6035   18.8399   -1.7202 H   0  0  0  0  0  0  0  0  0  0  0  0
   22.1382   20.6932   -1.3159 N   0  0  0  0  0  0  0  0  0  0  0  0
   20.9498   20.2366   -1.1739 C   0  0  0  0  0  0  0  0  0  0  0  0
   19.9222   20.9812   -0.7192 N   0  0  0  0  0  0  0  0  0  0  0  0
   22.3413   21.6234   -1.0654 H   0  0  0  0  0  0  0  0  0  0  0  0
   20.0713   21.9185   -0.4575 H   0  0  0  0  0  0  0  0  0  0  0  0
   19.0225   20.5876   -0.6487 H   0  0  0  0  0  0  0  0  0  0  0  0
   25.2716   12.6052    1.6983 C   0  0  0  0  0  0  0  0  0  0  0  0
   26.5602   11.8345    2.0343 C   0  0  0  0  0  0  0  0  0  0  0  0
   26.6300   10.3774    1.5743 C   0  0  0  0  0  0  0  0  0  0  0  0
   26.7064    9.4745    2.7096 N   0  0  0  0  0  0  0  0  0  0  0  0
   26.4771    9.8396    3.5946 H   0  0  0  0  0  0  0  0  0  0  0  0
   27.0659    8.1770    2.6487 C   0  0  0  0  0  0  0  0  0  0  0  0
   28.2362    7.6732    2.5214 N   0  0  0  0  0  0  0  0  0  0  0  0
   26.0013    7.3587    2.7392 N   0  0  0  0  0  0  0  0  0  0  0  0
   29.0215    8.2631    2.4543 H   0  0  0  0  0  0  0  0  0  0  0  0
   25.0973    7.7361    2.8373 H   0  0  0  0  0  0  0  0  0  0  0  0
   26.1265    6.3827    2.7074 H   0  0  0  0  0  0  0  0  0  0  0  0
 73 74  2  0
 74 75  1  0
 74 71  1  0
 71 70  1  0
 70 69  1  0
 69 68  1  0
 62 68  1  0
 62 58  1  0
 58 59  1  0
 59 60  2  0
 59 57  1  0
 57 79  1  0
 79 80  1  0
 80 81  1  0
 81 82  1  0
 82 84  1  0
 84 85  2  0
 84 86  1  0
 57 53  1  0
 53 54  1  0
 54 55  2  0
 54 52  1  0
 52 51  1  0
 51 50  1  0
 50 49  1  0
 49 48  1  0
 48  1  1  0
  1  2  1  0
  2  3  2  0
  2  5  1  0
  5 41  1  0
 41 42  1  0
 42 43  1  0
 43 44  1  0
 44 45  1  0
  5  6  1  0
  6  7  1  0
  7  8  2  0
  7 10  1  0
 10 11  1  0
 11 12  1  0
 12 13  1  0
 13 14  1  0
 14 15  1  0
 15 16  1  0
 16 17  2  0
 19 16  1  0
 19 20  1  0
 20 21  1  0
 21 28  1  0
 28 29  1  0
 29 30  2  0
 30 31  1  0
 31 32  2  0
 32 33  1  0
 32 34  1  0
 34 35  2  0
 35 36  1  0
 35 37  1  0
 37 38  2  0
 21 22  1  0
 22 23  1  0
 22 24  1  0
 24 25  1  0
 62 63  1  0
 63 64  1  0
 63 65  2  0
 24 19  1  0
 38 28  1  0
 38 31  1  0
 73 76  1  0
 75 77  1  0
 75 78  1  0
 71 72  1  0
 58 61  1  0
 82 83  1  0
 85 87  1  0
 86 88  1  0
 86 89  1  0
 53 56  1  0
  1  4  1  0
 45 46  1  0
 45 47  1  0
  6  9  1  0
 15 18  1  0
 33 39  1  0
 33 40  1  0
 23 26  1  0
 25 27  1  0
 64 66  1  0
 64 67  1  0
M  END
> <minimizedAffinity>
-7.08204

> <CNNscore>
0.5405110717

> <CNNaffinity>
6.9769072533

> <CNN_VS>
3.7710955143

> <CNNaffinity_variance>
0.6298561692

$$$$



 89 91  0  0  0  0  0  0  0  0999 V2000
   20.5615    7.8161    6.1509 N   0  0  0  0  0  0  0  0  0  0  0  0
   19.6049    7.2966    7.0064 C   0  0  0  0  0  0  0  0  0  0  0  0
   19.1549    7.9351    7.9540 O   0  0  0  0  0  0  0  0  0  0  0  0
   20.8515    7.2890    5.3716 H   0  0  0  0  0  0  0  0  0  0  0  0
   19.2824    5.8105    6.7541 C   0  0  0  0  0  0  0  0  0  0  0  0
   18.0196    5.4153    7.3871 N   0  0  0  0  0  0  0  0  0  0  0  0
   17.2668    4.3737    6.8985 C   0  0  0  0  0  0  0  0  0  0  0  0
   17.4849    3.8336    5.8197 O   0  0  0  0  0  0  0  0  0  0  0  0
   17.7039    5.9069    8.1795 H   0  0  0  0  0  0  0  0  0  0  0  0
   16.1303    3.9295    7.8014 C   0  0  0  0  0  0  0  0  0  0  0  0
   15.8448    2.4342    7.6426 C   0  0  0  0  0  0  0  0  0  0  0  0
   14.4185    2.0759    8.0653 C   0  0  0  0  0  0  0  0  0  0  0  0
   13.3473    2.7548    7.2082 C   0  0  0  0  0  0  0  0  0  0  0  0
   11.9047    2.4079    7.5866 C   0  0  0  0  0  0  0  0  0  0  0  0
   11.3156    3.3070    8.5680 N   0  0  0  0  0  0  0  0  0  0  0  0
   10.7156    4.4870    8.1679 C   0  0  0  0  0  0  0  0  0  0  0  0
   10.8037    4.9534    7.0334 O   0  0  0  0  0  0  0  0  0  0  0  0
   11.3444    3.0733    9.5240 H   0  0  0  0  0  0  0  0  0  0  0  0
    9.9746    5.2378    9.2738 C   0  0  0  0  0  0  0  0  0  0  0  0
   10.1359    4.6102   10.5561 O   0  0  0  0  0  0  0  0  0  0  0  0
   10.3733    5.6619   11.5160 C   0  0  0  0  0  0  0  0  0  0  0  0
   11.1702    6.7138   10.7447 C   0  0  0  0  0  0  0  0  0  0  0  0
   11.1025    8.0114   11.3258 O   0  0  0  0  0  0  0  0  0  0  0  0
   10.4671    6.6808    9.3895 C   0  0  0  0  0  0  0  0  0  0  0  0
    9.3556    7.5988    9.4435 O   0  0  0  0  0  0  0  0  0  0  0  0
   10.1752    8.2883   11.3915 H   0  0  0  0  0  0  0  0  0  0  0  0
    8.7800    7.3662   10.1888 H   0  0  0  0  0  0  0  0  0  0  0  0
   10.9356    5.0532   12.7002 N   0  0  0  0  0  0  0  0  0  0  0  0
   12.2343    4.6009   12.7636 C   0  0  0  0  0  0  0  0  0  0  0  0
   12.4998    4.0066   13.9061 N   0  0  0  0  0  0  0  0  0  0  0  0
   11.3295    4.0947   14.6256 C   0  0  0  0  0  0  0  0  0  0  0  0
   10.9759    3.6400   15.9083 C   0  0  0  0  0  0  0  0  0  0  0  0
   11.8625    2.9634   16.7387 N   0  0  0  0  0  0  0  0  0  0  0  0
    9.7183    3.8491   16.3486 N   0  0  0  0  0  0  0  0  0  0  0  0
    8.8767    4.5177   15.5356 C   0  0  0  0  0  0  0  0  0  0  0  0
    7.3017    4.7701   16.1555 Cl  0  0  0  0  0  0  0  0  0  0  0  0
    9.0985    5.0224   14.3056 N   0  0  0  0  0  0  0  0  0  0  0  0
   10.3482    4.7586   13.8987 C   0  0  0  0  0  0  0  0  0  0  0  0
   12.7863    2.7976   16.4416 H   0  0  0  0  0  0  0  0  0  0  0  0
   11.5663    2.6500   17.6238 H   0  0  0  0  0  0  0  0  0  0  0  0
   20.4363    4.8706    7.1399 C   0  0  0  0  0  0  0  0  0  0  0  0
   20.5044    4.5389    8.6378 C   0  0  0  0  0  0  0  0  0  0  0  0
   20.6213    3.0332    8.9207 C   0  0  0  0  0  0  0  0  0  0  0  0
   19.2847    2.3238    9.1544 C   0  0  0  0  0  0  0  0  0  0  0  0
   19.2336    1.6170   10.4241 N   0  0  0  0  0  0  0  0  0  0  0  0
   19.9509    0.8920   10.4387 H   0  0  0  0  0  0  0  0  0  0  0  0
   18.3149    1.1888   10.5382 H   0  0  0  0  0  0  0  0  0  0  0  0
   21.1421    9.1210    6.3834 C   0  0  0  0  0  0  0  0  0  0  0  0
   21.9954    9.5810    5.2011 C   0  0  0  0  0  0  0  0  0  0  0  0
   21.2409   10.4660    4.2016 C   0  0  0  0  0  0  0  0  0  0  0  0
   21.6674   11.9443    4.1675 C   0  0  0  0  0  0  0  0  0  0  0  0
   22.2325   12.4311    2.8306 C   0  0  0  0  0  0  0  0  0  0  0  0
   21.1017   14.5137    2.3412 N   0  0  0  0  0  0  0  0  0  0  0  0
   21.2144   13.1839    1.9952 C   0  0  0  0  0  0  0  0  0  0  0  0
   20.5570   12.6548    1.1049 O   0  0  0  0  0  0  0  0  0  0  0  0
   21.7347   14.9049    2.9858 H   0  0  0  0  0  0  0  0  0  0  0  0
   20.0525   15.3476    1.7607 C   0  0  0  0  0  0  0  0  0  0  0  0
   18.7638   17.2160    2.6873 N   0  0  0  0  0  0  0  0  0  0  0  0
   19.2267   15.9461    2.9119 C   0  0  0  0  0  0  0  0  0  0  0  0
   19.0167   15.3137    3.9476 O   0  0  0  0  0  0  0  0  0  0  0  0
   19.0362   17.6654    1.8547 H   0  0  0  0  0  0  0  0  0  0  0  0
   17.8874   17.9492    3.6093 C   0  0  0  0  0  0  0  0  0  0  0  0
   16.4234   17.5348    3.3210 C   0  0  0  0  0  0  0  0  0  0  0  0
   16.1163   16.2409    3.6521 N   0  0  0  0  0  0  0  0  0  0  0  0
   15.5847   18.2368    2.7655 O   0  0  0  0  0  0  0  0  0  0  0  0
   16.7868   15.6745    4.0980 H   0  0  0  0  0  0  0  0  0  0  0  0
   15.2252   15.8778    3.4441 H   0  0  0  0  0  0  0  0  0  0  0  0
   18.2521   17.6614    5.0752 C   0  0  0  0  0  0  0  0  0  0  0  0
   17.4285   18.4262    6.1223 C   0  0  0  0  0  0  0  0  0  0  0  0
   18.2084   19.4940    6.8898 C   0  0  0  0  0  0  0  0  0  0  0  0
   18.7905   18.9117    8.0874 N   0  0  0  0  0  0  0  0  0  0  0  0
   19.6557   19.2583    8.4046 H   0  0  0  0  0  0  0  0  0  0  0  0
   18.5985   16.7005    8.8314 N   0  0  0  0  0  0  0  0  0  0  0  0
   18.2004   17.9172    8.7860 C   0  0  0  0  0  0  0  0  0  0  0  0
   17.1339   18.3713    9.4741 N   0  0  0  0  0  0  0  0  0  0  0  0
   18.1041   16.0405    9.3693 H   0  0  0  0  0  0  0  0  0  0  0  0
   16.6066   17.7526   10.0295 H   0  0  0  0  0  0  0  0  0  0  0  0
   16.8822   19.3216    9.4212 H   0  0  0  0  0  0  0  0  0  0  0  0
   20.6039   16.4022    0.7895 C   0  0  0  0  0  0  0  0  0  0  0  0
   21.9565   17.0498    1.1337 C   0  0  0  0  0  0  0  0  0  0  0  0
   22.7009   17.7382   -0.0116 C   0  0  0  0  0  0  0  0  0  0  0  0
   21.7874   18.5015   -0.8439 N   0  0  0  0  0  0  0  0  0  0  0  0
   21.4453   18.0660   -1.6579 H   0  0  0  0  0  0  0  0  0  0  0  0
   21.3704   19.7580   -0.5914 C   0  0  0  0  0  0  0  0  0  0  0  0
   20.4320   20.1517    0.1857 N   0  0  0  0  0  0  0  0  0  0  0  0
   22.0796   20.6684   -1.2837 N   0  0  0  0  0  0  0  0  0  0  0  0
   19.9073   19.4937    0.6966 H   0  0  0  0  0  0  0  0  0  0  0  0
   22.8031   20.3760   -1.8840 H   0  0  0  0  0  0  0  0  0  0  0  0
   21.8749   21.6268   -1.1900 H   0  0  0  0  0  0  0  0  0  0  0  0
 73 74  2  0
 74 75  1  0
 74 71  1  0
 71 70  1  0
 70 69  1  0
 69 68  1  0
 62 68  1  0
 62 58  1  0
 58 59  1  0
 59 60  2  0
 59 57  1  0
 57 79  1  0
 79 80  1  0
 80 81  1  0
 81 82  1  0
 82 84  1  0
 84 85  2  0
 84 86  1  0
 57 53  1  0
 53 54  1  0
 54 55  2  0
 54 52  1  0
 52 51  1  0
 51 50  1  0
 50 49  1  0
 49 48  1  0
 48  1  1  0
  1  2  1  0
  2  3  2  0
  2  5  1  0
  5 41  1  0
 41 42  1  0
 42 43  1  0
 43 44  1  0
 44 45  1  0
  5  6  1  0
  6  7  1  0
  7  8  2  0
  7 10  1  0
 10 11  1  0
 11 12  1  0
 12 13  1  0
 13 14  1  0
 14 15  1  0
 15 16  1  0
 16 17  2  0
 19 16  1  0
 19 20  1  0
 20 21  1  0
 21 28  1  0
 28 29  1  0
 29 30  2  0
 30 31  1  0
 31 32  2  0
 32 33  1  0
 32 34  1  0
 34 35  2  0
 35 36  1  0
 35 37  1  0
 37 38  2  0
 21 22  1  0
 22 23  1  0
 22 24  1  0
 24 25  1  0
 62 63  1  0
 63 64  1  0
 63 65  2  0
 24 19  1  0
 38 28  1  0
 38 31  1  0
 73 76  1  0
 75 77  1  0
 75 78  1  0
 71 72  1  0
 58 61  1  0
 82 83  1  0
 85 87  1  0
 86 88  1  0
 86 89  1  0
 53 56  1  0
  1  4  1  0
 45 46  1  0
 45 47  1  0
  6  9  1  0
 15 18  1  0
 33 39  1  0
 33 40  1  0
 23 26  1  0
 25 27  1  0
 64 66  1  0
 64 67  1  0
M  END
> <minimizedAffinity>
-7.64236

> <CNNscore>
0.5247521400

> <CNNaffinity>
7.4505362511

> <CNN_VS>
3.9096848965

> <CNNaffinity_variance>
2.1663465500

$$$$



 89 91  0  0  0  0  0  0  0  0999 V2000
   16.3486    6.9944    8.2673 N   0  0  0  0  0  0  0  0  0  0  0  0
   17.6351    6.6823    7.8622 C   0  0  0  0  0  0  0  0  0  0  0  0
   18.6026    7.3811    8.1517 O   0  0  0  0  0  0  0  0  0  0  0  0
   15.6120    6.3750    8.0596 H   0  0  0  0  0  0  0  0  0  0  0  0
   17.7125    5.4828    6.8972 C   0  0  0  0  0  0  0  0  0  0  0  0
   16.9723    4.3255    7.4113 N   0  0  0  0  0  0  0  0  0  0  0  0
   16.3615    3.4304    6.5651 C   0  0  0  0  0  0  0  0  0  0  0  0
   16.2280    3.6249    5.3620 O   0  0  0  0  0  0  0  0  0  0  0  0
   16.9116    4.1865    8.3840 H   0  0  0  0  0  0  0  0  0  0  0  0
   15.8576    2.1636    7.2324 C   0  0  0  0  0  0  0  0  0  0  0  0
   14.3792    1.9199    6.9201 C   0  0  0  0  0  0  0  0  0  0  0  0
   13.4815    2.2362    8.1182 C   0  0  0  0  0  0  0  0  0  0  0  0
   12.0022    2.3644    7.7457 C   0  0  0  0  0  0  0  0  0  0  0  0
   11.5973    3.7275    7.1776 C   0  0  0  0  0  0  0  0  0  0  0  0
   10.8752    4.5720    8.1178 N   0  0  0  0  0  0  0  0  0  0  0  0
   11.4759    5.6946    8.6575 C   0  0  0  0  0  0  0  0  0  0  0  0
   12.6747    5.9495    8.5557 O   0  0  0  0  0  0  0  0  0  0  0  0
    9.9521    4.3423    8.3715 H   0  0  0  0  0  0  0  0  0  0  0  0
   10.5460    6.5897    9.4759 C   0  0  0  0  0  0  0  0  0  0  0  0
   10.0171    5.9121   10.6271 O   0  0  0  0  0  0  0  0  0  0  0  0
   10.0804    6.8398   11.7313 C   0  0  0  0  0  0  0  0  0  0  0  0
   11.3450    7.6587   11.4735 C   0  0  0  0  0  0  0  0  0  0  0  0
   11.3516    8.9135   12.1456 O   0  0  0  0  0  0  0  0  0  0  0  0
   11.2711    7.8461    9.9598 C   0  0  0  0  0  0  0  0  0  0  0  0
   10.4836    9.0257    9.6963 O   0  0  0  0  0  0  0  0  0  0  0  0
   10.5716    9.4260   11.8812 H   0  0  0  0  0  0  0  0  0  0  0  0
    9.6167    8.9376   10.1225 H   0  0  0  0  0  0  0  0  0  0  0  0
    9.9497    6.0756   12.9512 N   0  0  0  0  0  0  0  0  0  0  0  0
    8.9687    6.3205   13.8854 C   0  0  0  0  0  0  0  0  0  0  0  0
    9.0960    5.5624   14.9522 N   0  0  0  0  0  0  0  0  0  0  0  0
   10.1950    4.7753   14.6919 C   0  0  0  0  0  0  0  0  0  0  0  0
   10.8397    3.7787   15.4458 C   0  0  0  0  0  0  0  0  0  0  0  0
   10.4060    3.3904   16.7086 N   0  0  0  0  0  0  0  0  0  0  0  0
   11.9379    3.1852   14.9351 N   0  0  0  0  0  0  0  0  0  0  0  0
   12.3361    3.5651   13.7048 C   0  0  0  0  0  0  0  0  0  0  0  0
   13.7226    2.7639   13.1013 Cl  0  0  0  0  0  0  0  0  0  0  0  0
   11.7957    4.4817   12.8775 N   0  0  0  0  0  0  0  0  0  0  0  0
   10.7308    5.0674   13.4430 C   0  0  0  0  0  0  0  0  0  0  0  0
    9.6071    3.8078   17.1046 H   0  0  0  0  0  0  0  0  0  0  0  0
   10.8978    2.6982   17.2067 H   0  0  0  0  0  0  0  0  0  0  0  0
   19.1540    5.1155    6.5085 C   0  0  0  0  0  0  0  0  0  0  0  0
   19.6086    3.7360    7.0072 C   0  0  0  0  0  0  0  0  0  0  0  0
   20.8847    3.7902    7.8612 C   0  0  0  0  0  0  0  0  0  0  0  0
   21.3229    2.4410    8.4374 C   0  0  0  0  0  0  0  0  0  0  0  0
   22.7676    2.3117    8.5398 N   0  0  0  0  0  0  0  0  0  0  0  0
   23.1814    2.3757    7.6097 H   0  0  0  0  0  0  0  0  0  0  0  0
   22.9997    1.4089    8.9539 H   0  0  0  0  0  0  0  0  0  0  0  0
   16.0685    8.2159    8.9909 C   0  0  0  0  0  0  0  0  0  0  0  0
   15.5848    9.3283    8.0602 C   0  0  0  0  0  0  0  0  0  0  0  0
   14.0863    9.6295    8.1838 C   0  0  0  0  0  0  0  0  0  0  0  0
   13.4187   10.2126    6.9257 C   0  0  0  0  0  0  0  0  0  0  0  0
   12.7689   11.5868    7.1076 C   0  0  0  0  0  0  0  0  0  0  0  0
   13.2648   13.7502    6.1439 N   0  0  0  0  0  0  0  0  0  0  0  0
   12.8687   12.4584    5.8701 C   0  0  0  0  0  0  0  0  0  0  0  0
   12.6163   12.0493    4.7416 O   0  0  0  0  0  0  0  0  0  0  0  0
   13.5607   13.9871    7.0525 H   0  0  0  0  0  0  0  0  0  0  0  0
   13.2497   14.7708    5.0992 C   0  0  0  0  0  0  0  0  0  0  0  0
   15.6835   14.5593    5.3039 N   0  0  0  0  0  0  0  0  0  0  0  0
   14.6427   14.8085    4.4483 C   0  0  0  0  0  0  0  0  0  0  0  0
   14.7847   15.0518    3.2495 O   0  0  0  0  0  0  0  0  0  0  0  0
   15.4764   14.4380    6.2587 H   0  0  0  0  0  0  0  0  0  0  0  0
   17.0880   14.4618    4.8872 C   0  0  0  0  0  0  0  0  0  0  0  0
   17.1647   13.5316    3.6515 C   0  0  0  0  0  0  0  0  0  0  0  0
   17.5258   14.1539    2.4851 N   0  0  0  0  0  0  0  0  0  0  0  0
   16.8575   12.3441    3.6384 O   0  0  0  0  0  0  0  0  0  0  0  0
   17.7731   15.1068    2.4917 H   0  0  0  0  0  0  0  0  0  0  0  0
   17.5380   13.6480    1.6406 H   0  0  0  0  0  0  0  0  0  0  0  0
   17.6713   15.8462    4.5589 C   0  0  0  0  0  0  0  0  0  0  0  0
   17.0337   17.0255    5.3086 C   0  0  0  0  0  0  0  0  0  0  0  0
   18.0291   17.9330    6.0320 C   0  0  0  0  0  0  0  0  0  0  0  0
   18.0529   17.6062    7.4479 N   0  0  0  0  0  0  0  0  0  0  0  0
   18.1608   16.6633    7.7098 H   0  0  0  0  0  0  0  0  0  0  0  0
   18.5977   19.6284    8.4938 N   0  0  0  0  0  0  0  0  0  0  0  0
   17.9340   18.5351    8.4217 C   0  0  0  0  0  0  0  0  0  0  0  0
   16.9883   18.1850    9.3163 N   0  0  0  0  0  0  0  0  0  0  0  0
   18.4444   20.2487    9.2428 H   0  0  0  0  0  0  0  0  0  0  0  0
   16.7944   18.7717   10.0827 H   0  0  0  0  0  0  0  0  0  0  0  0
   16.4916   17.3426    9.2032 H   0  0  0  0  0  0  0  0  0  0  0  0
   12.1079   14.5697    4.0915 C   0  0  0  0  0  0  0  0  0  0  0  0
   10.7720   15.2774    4.3779 C   0  0  0  0  0  0  0  0  0  0  0  0
    9.6954   14.4538    5.0865 C   0  0  0  0  0  0  0  0  0  0  0  0
    8.8313   15.3029    5.8879 N   0  0  0  0  0  0  0  0  0  0  0  0
    8.8196   16.2645    5.6770 H   0  0  0  0  0  0  0  0  0  0  0  0
    8.0442   14.8803    6.8970 C   0  0  0  0  0  0  0  0  0  0  0  0
    7.9783   13.7186    7.4315 N   0  0  0  0  0  0  0  0  0  0  0  0
    7.2468   15.8634    7.3541 N   0  0  0  0  0  0  0  0  0  0  0  0
    8.5574   12.9927    7.1045 H   0  0  0  0  0  0  0  0  0  0  0  0
    7.2898   16.7600    6.9500 H   0  0  0  0  0  0  0  0  0  0  0  0
    6.6205   15.6858    8.0927 H   0  0  0  0  0  0  0  0  0  0  0  0
 73 74  2  0
 74 75  1  0
 74 71  1  0
 71 70  1  0
 70 69  1  0
 69 68  1  0
 62 68  1  0
 62 58  1  0
 58 59  1  0
 59 60  2  0
 59 57  1  0
 57 79  1  0
 79 80  1  0
 80 81  1  0
 81 82  1  0
 82 84  1  0
 84 85  2  0
 84 86  1  0
 57 53  1  0
 53 54  1  0
 54 55  2  0
 54 52  1  0
 52 51  1  0
 51 50  1  0
 50 49  1  0
 49 48  1  0
 48  1  1  0
  1  2  1  0
  2  3  2  0
  2  5  1  0
  5 41  1  0
 41 42  1  0
 42 43  1  0
 43 44  1  0
 44 45  1  0
  5  6  1  0
  6  7  1  0
  7  8  2  0
  7 10  1  0
 10 11  1  0
 11 12  1  0
 12 13  1  0
 13 14  1  0
 14 15  1  0
 15 16  1  0
 16 17  2  0
 19 16  1  0
 19 20  1  0
 20 21  1  0
 21 28  1  0
 28 29  1  0
 29 30  2  0
 30 31  1  0
 31 32  2  0
 32 33  1  0
 32 34  1  0
 34 35  2  0
 35 36  1  0
 35 37  1  0
 37 38  2  0
 21 22  1  0
 22 23  1  0
 22 24  1  0
 24 25  1  0
 62 63  1  0
 63 64  1  0
 63 65  2  0
 24 19  1  0
 38 28  1  0
 38 31  1  0
 73 76  1  0
 75 77  1  0
 75 78  1  0
 71 72  1  0
 58 61  1  0
 82 83  1  0
 85 87  1  0
 86 88  1  0
 86 89  1  0
 53 56  1  0
  1  4  1  0
 45 46  1  0
 45 47  1  0
  6  9  1  0
 15 18  1  0
 33 39  1  0
 33 40  1  0
 23 26  1  0
 25 27  1  0
 64 66  1  0
 64 67  1  0
M  END
> <minimizedAffinity>
-6.73516

> <CNNscore>
0.3392508030

> <CNNaffinity>
7.7318520546

> <CNN_VS>
2.6230370998

> <CNNaffinity_variance>
2.2877805233

$$$$



 89 91  0  0  0  0  0  0  0  0999 V2000
   19.7888    6.8146    6.5967 N   0  0  0  0  0  0  0  0  0  0  0  0
   19.9381    6.2234    7.8396 C   0  0  0  0  0  0  0  0  0  0  0  0
   20.1829    6.8747    8.8516 O   0  0  0  0  0  0  0  0  0  0  0  0
   19.5371    6.2594    5.8236 H   0  0  0  0  0  0  0  0  0  0  0  0
   19.9255    4.6825    7.8039 C   0  0  0  0  0  0  0  0  0  0  0  0
   18.5594    4.1507    7.8518 N   0  0  0  0  0  0  0  0  0  0  0  0
   17.9109    3.7340    6.7133 C   0  0  0  0  0  0  0  0  0  0  0  0
   18.3347    3.9439    5.5822 O   0  0  0  0  0  0  0  0  0  0  0  0
   18.0964    4.0908    8.7185 H   0  0  0  0  0  0  0  0  0  0  0  0
   16.6146    2.9825    6.9563 C   0  0  0  0  0  0  0  0  0  0  0  0
   16.4914    1.7706    6.0297 C   0  0  0  0  0  0  0  0  0  0  0  0
   15.1095    1.1198    6.1194 C   0  0  0  0  0  0  0  0  0  0  0  0
   14.7009    0.7676    7.5520 C   0  0  0  0  0  0  0  0  0  0  0  0
   13.5166    1.5693    8.0991 C   0  0  0  0  0  0  0  0  0  0  0  0
   13.8284    2.3561    9.2833 N   0  0  0  0  0  0  0  0  0  0  0  0
   13.2697    3.6085    9.4610 C   0  0  0  0  0  0  0  0  0  0  0  0
   12.6576    4.2192    8.5865 O   0  0  0  0  0  0  0  0  0  0  0  0
   14.4417    1.9939    9.9630 H   0  0  0  0  0  0  0  0  0  0  0  0
   13.5298    4.2395   10.8285 C   0  0  0  0  0  0  0  0  0  0  0  0
   12.3904    4.9675   11.3144 O   0  0  0  0  0  0  0  0  0  0  0  0
   12.2479    4.6466   12.7146 C   0  0  0  0  0  0  0  0  0  0  0  0
   12.6979    3.1899   12.8231 C   0  0  0  0  0  0  0  0  0  0  0  0
   13.0914    2.8171   14.1393 O   0  0  0  0  0  0  0  0  0  0  0  0
   13.8900    3.1781   11.8687 C   0  0  0  0  0  0  0  0  0  0  0  0
   15.0607    3.5691   12.6156 O   0  0  0  0  0  0  0  0  0  0  0  0
   13.8038    3.4019   14.4416 H   0  0  0  0  0  0  0  0  0  0  0  0
   14.9039    4.4294   13.0354 H   0  0  0  0  0  0  0  0  0  0  0  0
   10.9107    5.0221   13.1144 N   0  0  0  0  0  0  0  0  0  0  0  0
   10.0520    5.7169   12.2928 C   0  0  0  0  0  0  0  0  0  0  0  0
    8.9247    6.0243   12.8959 N   0  0  0  0  0  0  0  0  0  0  0  0
    9.0465    5.4880   14.1579 C   0  0  0  0  0  0  0  0  0  0  0  0
    8.1849    5.4895   15.2691 C   0  0  0  0  0  0  0  0  0  0  0  0
    6.9338    6.0961   15.2517 N   0  0  0  0  0  0  0  0  0  0  0  0
    8.5932    4.8958   16.4093 N   0  0  0  0  0  0  0  0  0  0  0  0
    9.8031    4.3021   16.4038 C   0  0  0  0  0  0  0  0  0  0  0  0
   10.2586    3.5489   17.8714 Cl  0  0  0  0  0  0  0  0  0  0  0  0
   10.7047    4.2103   15.4062 N   0  0  0  0  0  0  0  0  0  0  0  0
   10.2693    4.8444   14.3084 C   0  0  0  0  0  0  0  0  0  0  0  0
    6.6117    6.5365   14.4322 H   0  0  0  0  0  0  0  0  0  0  0  0
    6.3702    6.0851   16.0588 H   0  0  0  0  0  0  0  0  0  0  0  0
   20.8259    4.0485    8.8769 C   0  0  0  0  0  0  0  0  0  0  0  0
   20.5877    2.5467    9.0918 C   0  0  0  0  0  0  0  0  0  0  0  0
   21.8156    1.6846    8.7605 C   0  0  0  0  0  0  0  0  0  0  0  0
   21.6805    0.2091    9.1472 C   0  0  0  0  0  0  0  0  0  0  0  0
   22.4171   -0.6778    8.2611 N   0  0  0  0  0  0  0  0  0  0  0  0
   22.0494   -0.5937    7.3134 H   0  0  0  0  0  0  0  0  0  0  0  0
   22.3143   -1.6407    8.5815 H   0  0  0  0  0  0  0  0  0  0  0  0
   19.9965    8.2352    6.4150 C   0  0  0  0  0  0  0  0  0  0  0  0
   19.5084    8.7094    5.0459 C   0  0  0  0  0  0  0  0  0  0  0  0
   17.9982    8.9683    4.9838 C   0  0  0  0  0  0  0  0  0  0  0  0
   17.5813   10.3502    4.4499 C   0  0  0  0  0  0  0  0  0  0  0  0
   18.6879   11.1406    3.7467 C   0  0  0  0  0  0  0  0  0  0  0  0
   18.8371   13.5535    3.6429 N   0  0  0  0  0  0  0  0  0  0  0  0
   19.0188   12.4464    4.4441 C   0  0  0  0  0  0  0  0  0  0  0  0
   19.4127   12.5040    5.6044 O   0  0  0  0  0  0  0  0  0  0  0  0
   18.4129   13.4521    2.7603 H   0  0  0  0  0  0  0  0  0  0  0  0
   19.2678   14.8753    4.0906 C   0  0  0  0  0  0  0  0  0  0  0  0
   20.4860   14.6210    1.9784 N   0  0  0  0  0  0  0  0  0  0  0  0
   20.3121   15.4011    3.0914 C   0  0  0  0  0  0  0  0  0  0  0  0
   20.9343   16.4428    3.3017 O   0  0  0  0  0  0  0  0  0  0  0  0
   19.9893   13.7725    1.9280 H   0  0  0  0  0  0  0  0  0  0  0  0
   21.3661   14.9701    0.8563 C   0  0  0  0  0  0  0  0  0  0  0  0
   22.2352   13.7340    0.5174 C   0  0  0  0  0  0  0  0  0  0  0  0
   23.5776   13.9876    0.4077 N   0  0  0  0  0  0  0  0  0  0  0  0
   21.8056   12.6113    0.2730 O   0  0  0  0  0  0  0  0  0  0  0  0
   23.9261   14.8874    0.6031 H   0  0  0  0  0  0  0  0  0  0  0  0
   24.1933   13.2701    0.1335 H   0  0  0  0  0  0  0  0  0  0  0  0
   20.5558   15.4146   -0.3727 C   0  0  0  0  0  0  0  0  0  0  0  0
   20.7232   16.8873   -0.7761 C   0  0  0  0  0  0  0  0  0  0  0  0
   20.4785   17.8885    0.3531 C   0  0  0  0  0  0  0  0  0  0  0  0
   21.3820   19.0181    0.2128 N   0  0  0  0  0  0  0  0  0  0  0  0
   22.2837   18.9486    0.6018 H   0  0  0  0  0  0  0  0  0  0  0  0
   20.0304   20.8942   -0.1524 N   0  0  0  0  0  0  0  0  0  0  0  0
   21.0430   20.1591   -0.4264 C   0  0  0  0  0  0  0  0  0  0  0  0
   21.9348   20.4606   -1.3913 N   0  0  0  0  0  0  0  0  0  0  0  0
   19.8603   21.7120   -0.6735 H   0  0  0  0  0  0  0  0  0  0  0  0
   21.8123   21.2690   -1.9396 H   0  0  0  0  0  0  0  0  0  0  0  0
   22.7085   19.8723   -1.5477 H   0  0  0  0  0  0  0  0  0  0  0  0
   18.0915   15.8382    4.3108 C   0  0  0  0  0  0  0  0  0  0  0  0
   18.3426   17.0830    5.1795 C   0  0  0  0  0  0  0  0  0  0  0  0
   18.3176   16.8805    6.6954 C   0  0  0  0  0  0  0  0  0  0  0  0
   18.8818   18.0276    7.3850 N   0  0  0  0  0  0  0  0  0  0  0  0
   19.7770   18.3280    7.1063 H   0  0  0  0  0  0  0  0  0  0  0  0
   18.2784   18.7138    8.3757 C   0  0  0  0  0  0  0  0  0  0  0  0
   17.3736   18.3185    9.1909 N   0  0  0  0  0  0  0  0  0  0  0  0
   18.7373   19.9762    8.4605 N   0  0  0  0  0  0  0  0  0  0  0  0
   17.0312   17.3970    9.1371 H   0  0  0  0  0  0  0  0  0  0  0  0
   19.4328   20.2900    7.8384 H   0  0  0  0  0  0  0  0  0  0  0  0
   18.3774   20.5858    9.1447 H   0  0  0  0  0  0  0  0  0  0  0  0
 73 74  2  0
 74 75  1  0
 74 71  1  0
 71 70  1  0
 70 69  1  0
 69 68  1  0
 62 68  1  0
 62 58  1  0
 58 59  1  0
 59 60  2  0
 59 57  1  0
 57 79  1  0
 79 80  1  0
 80 81  1  0
 81 82  1  0
 82 84  1  0
 84 85  2  0
 84 86  1  0
 57 53  1  0
 53 54  1  0
 54 55  2  0
 54 52  1  0
 52 51  1  0
 51 50  1  0
 50 49  1  0
 49 48  1  0
 48  1  1  0
  1  2  1  0
  2  3  2  0
  2  5  1  0
  5 41  1  0
 41 42  1  0
 42 43  1  0
 43 44  1  0
 44 45  1  0
  5  6  1  0
  6  7  1  0
  7  8  2  0
  7 10  1  0
 10 11  1  0
 11 12  1  0
 12 13  1  0
 13 14  1  0
 14 15  1  0
 15 16  1  0
 16 17  2  0
 19 16  1  0
 19 20  1  0
 20 21  1  0
 21 28  1  0
 28 29  1  0
 29 30  2  0
 30 31  1  0
 31 32  2  0
 32 33  1  0
 32 34  1  0
 34 35  2  0
 35 36  1  0
 35 37  1  0
 37 38  2  0
 21 22  1  0
 22 23  1  0
 22 24  1  0
 24 25  1  0
 62 63  1  0
 63 64  1  0
 63 65  2  0
 24 19  1  0
 38 28  1  0
 38 31  1  0
 73 76  1  0
 75 77  1  0
 75 78  1  0
 71 72  1  0
 58 61  1  0
 82 83  1  0
 85 87  1  0
 86 88  1  0
 86 89  1  0
 53 56  1  0
  1  4  1  0
 45 46  1  0
 45 47  1  0
  6  9  1  0
 15 18  1  0
 33 39  1  0
 33 40  1  0
 23 26  1  0
 25 27  1  0
 64 66  1  0
 64 67  1  0
M  END
> <minimizedAffinity>
-7.93832

> <CNNscore>
0.2595851421

> <CNNaffinity>
6.8980326653

> <CNN_VS>
1.7906267643

> <CNNaffinity_variance>
2.4796135426

$$$$



 89 91  0  0  0  0  0  0  0  0999 V2000
   17.8541    5.8665    7.7506 N   0  0  0  0  0  0  0  0  0  0  0  0
   19.1616    5.5495    7.4239 C   0  0  0  0  0  0  0  0  0  0  0  0
   20.0380    6.4034    7.3196 O   0  0  0  0  0  0  0  0  0  0  0  0
   17.1982    5.1435    7.8786 H   0  0  0  0  0  0  0  0  0  0  0  0
   19.3715    4.0677    7.0549 C   0  0  0  0  0  0  0  0  0  0  0  0
   18.3854    3.2015    7.7095 N   0  0  0  0  0  0  0  0  0  0  0  0
   17.2599    2.7682    7.0493 C   0  0  0  0  0  0  0  0  0  0  0  0
   16.9052    3.2103    5.9622 O   0  0  0  0  0  0  0  0  0  0  0  0
   18.5326    2.9242    8.6426 H   0  0  0  0  0  0  0  0  0  0  0  0
   16.4751    1.6863    7.7688 C   0  0  0  0  0  0  0  0  0  0  0  0
   15.0939    1.4885    7.1397 C   0  0  0  0  0  0  0  0  0  0  0  0
   14.0027    1.3138    8.1980 C   0  0  0  0  0  0  0  0  0  0  0  0
   13.0626    2.5177    8.2989 C   0  0  0  0  0  0  0  0  0  0  0  0
   13.7500    3.8452    8.6304 C   0  0  0  0  0  0  0  0  0  0  0  0
   12.8337    4.9086    9.0154 N   0  0  0  0  0  0  0  0  0  0  0  0
   12.9800    5.5562   10.2285 C   0  0  0  0  0  0  0  0  0  0  0  0
   13.7277    5.1736   11.1268 O   0  0  0  0  0  0  0  0  0  0  0  0
   12.1043    5.1688    8.4075 H   0  0  0  0  0  0  0  0  0  0  0  0
   12.0742    6.7720   10.4206 C   0  0  0  0  0  0  0  0  0  0  0  0
   10.8175    6.4213   11.0223 O   0  0  0  0  0  0  0  0  0  0  0  0
   10.5285    7.4266   12.0171 C   0  0  0  0  0  0  0  0  0  0  0  0
   11.8961    7.8195   12.5753 C   0  0  0  0  0  0  0  0  0  0  0  0
   11.9037    9.0971   13.2029 O   0  0  0  0  0  0  0  0  0  0  0  0
   12.7422    7.8263   11.3041 C   0  0  0  0  0  0  0  0  0  0  0  0
   12.6373    9.1357   10.7078 O   0  0  0  0  0  0  0  0  0  0  0  0
   11.6039    9.7694   12.5712 H   0  0  0  0  0  0  0  0  0  0  0  0
   11.7030    9.3485   10.5572 H   0  0  0  0  0  0  0  0  0  0  0  0
    9.5148    6.8908   12.8971 N   0  0  0  0  0  0  0  0  0  0  0  0
    8.2568    7.4384   13.0094 C   0  0  0  0  0  0  0  0  0  0  0  0
    7.5338    6.8414   13.9313 N   0  0  0  0  0  0  0  0  0  0  0  0
    8.3493    5.8486   14.4257 C   0  0  0  0  0  0  0  0  0  0  0  0
    8.1558    4.8837   15.4301 C   0  0  0  0  0  0  0  0  0  0  0  0
    6.9710    4.7719   16.1492 N   0  0  0  0  0  0  0  0  0  0  0  0
    9.1668    4.0414   15.7261 N   0  0  0  0  0  0  0  0  0  0  0  0
   10.3030    4.1560   15.0102 C   0  0  0  0  0  0  0  0  0  0  0  0
   11.5424    3.0484   15.4168 Cl  0  0  0  0  0  0  0  0  0  0  0  0
   10.6021    5.0141   14.0148 N   0  0  0  0  0  0  0  0  0  0  0  0
    9.5816    5.8515   13.7825 C   0  0  0  0  0  0  0  0  0  0  0  0
    6.2175    5.3744   15.9531 H   0  0  0  0  0  0  0  0  0  0  0  0
    6.8857    4.0903   16.8544 H   0  0  0  0  0  0  0  0  0  0  0  0
   20.8108    3.5852    7.2989 C   0  0  0  0  0  0  0  0  0  0  0  0
   21.0855    3.1258    8.7383 C   0  0  0  0  0  0  0  0  0  0  0  0
   21.6120    1.6849    8.8248 C   0  0  0  0  0  0  0  0  0  0  0  0
   20.6984    0.7178    9.5829 C   0  0  0  0  0  0  0  0  0  0  0  0
   21.3758   -0.5055    9.9816 N   0  0  0  0  0  0  0  0  0  0  0  0
   21.6959   -1.0032    9.1508 H   0  0  0  0  0  0  0  0  0  0  0  0
   20.7298   -1.0969   10.5044 H   0  0  0  0  0  0  0  0  0  0  0  0
   17.4356    7.2429    7.9070 C   0  0  0  0  0  0  0  0  0  0  0  0
   16.4240    7.6534    6.8365 C   0  0  0  0  0  0  0  0  0  0  0  0
   16.5945    9.0962    6.3459 C   0  0  0  0  0  0  0  0  0  0  0  0
   15.5359   10.0973    6.8419 C   0  0  0  0  0  0  0  0  0  0  0  0
   14.4186   10.4150    5.8448 C   0  0  0  0  0  0  0  0  0  0  0  0
   14.1797   12.7805    5.3951 N   0  0  0  0  0  0  0  0  0  0  0  0
   14.7384   11.6001    4.9536 C   0  0  0  0  0  0  0  0  0  0  0  0
   15.4230   11.5092    3.9398 O   0  0  0  0  0  0  0  0  0  0  0  0
   13.7358   12.8112    6.2733 H   0  0  0  0  0  0  0  0  0  0  0  0
   14.2399   13.9861    4.5728 C   0  0  0  0  0  0  0  0  0  0  0  0
   16.4986   14.1748    5.5071 N   0  0  0  0  0  0  0  0  0  0  0  0
   15.7185   14.3714    4.3978 C   0  0  0  0  0  0  0  0  0  0  0  0
   16.1422   14.8246    3.3341 O   0  0  0  0  0  0  0  0  0  0  0  0
   16.0578   13.8676    6.3321 H   0  0  0  0  0  0  0  0  0  0  0  0
   17.9500   14.3932    5.5434 C   0  0  0  0  0  0  0  0  0  0  0  0
   18.6489   13.0931    5.0748 C   0  0  0  0  0  0  0  0  0  0  0  0
   18.3203   12.6885    3.8074 N   0  0  0  0  0  0  0  0  0  0  0  0
   19.3812   12.3934    5.7669 O   0  0  0  0  0  0  0  0  0  0  0  0
   17.7328   13.2474    3.2490 H   0  0  0  0  0  0  0  0  0  0  0  0
   18.6716   11.8389    3.4552 H   0  0  0  0  0  0  0  0  0  0  0  0
   18.3597   15.5783    4.6533 C   0  0  0  0  0  0  0  0  0  0  0  0
   18.5323   16.9205    5.3799 C   0  0  0  0  0  0  0  0  0  0  0  0
   17.2226   17.6196    5.7456 C   0  0  0  0  0  0  0  0  0  0  0  0
   17.2034   17.9141    7.1686 N   0  0  0  0  0  0  0  0  0  0  0  0
   16.3647   18.2387    7.5691 H   0  0  0  0  0  0  0  0  0  0  0  0
   18.5935   16.6976    8.6066 N   0  0  0  0  0  0  0  0  0  0  0  0
   18.2822   17.7634    7.9679 C   0  0  0  0  0  0  0  0  0  0  0  0
   19.0313   18.8839    7.9918 N   0  0  0  0  0  0  0  0  0  0  0  0
   19.4019   16.6786    9.1681 H   0  0  0  0  0  0  0  0  0  0  0  0
   19.8513   18.9163    8.5356 H   0  0  0  0  0  0  0  0  0  0  0  0
   18.7584   19.6698    7.4654 H   0  0  0  0  0  0  0  0  0  0  0  0
   13.4849   13.8346    3.2438 C   0  0  0  0  0  0  0  0  0  0  0  0
   12.0676   14.4273    3.1579 C   0  0  0  0  0  0  0  0  0  0  0  0
   11.6915   15.4669    4.2150 C   0  0  0  0  0  0  0  0  0  0  0  0
   11.7572   16.8122    3.6711 N   0  0  0  0  0  0  0  0  0  0  0  0
   10.9274   17.3419    3.6721 H   0  0  0  0  0  0  0  0  0  0  0  0
   12.8629   17.3935    3.1651 C   0  0  0  0  0  0  0  0  0  0  0  0
   14.0109   17.5469    3.7110 N   0  0  0  0  0  0  0  0  0  0  0  0
   12.6595   17.8515    1.9160 N   0  0  0  0  0  0  0  0  0  0  0  0
   14.1699   17.2154    4.6242 H   0  0  0  0  0  0  0  0  0  0  0  0
   11.7804   17.7386    1.4873 H   0  0  0  0  0  0  0  0  0  0  0  0
   13.3897   18.2996    1.4310 H   0  0  0  0  0  0  0  0  0  0  0  0
 73 74  2  0
 74 75  1  0
 74 71  1  0
 71 70  1  0
 70 69  1  0
 69 68  1  0
 62 68  1  0
 62 58  1  0
 58 59  1  0
 59 60  2  0
 59 57  1  0
 57 79  1  0
 79 80  1  0
 80 81  1  0
 81 82  1  0
 82 84  1  0
 84 85  2  0
 84 86  1  0
 57 53  1  0
 53 54  1  0
 54 55  2  0
 54 52  1  0
 52 51  1  0
 51 50  1  0
 50 49  1  0
 49 48  1  0
 48  1  1  0
  1  2  1  0
  2  3  2  0
  2  5  1  0
  5 41  1  0
 41 42  1  0
 42 43  1  0
 43 44  1  0
 44 45  1  0
  5  6  1  0
  6  7  1  0
  7  8  2  0
  7 10  1  0
 10 11  1  0
 11 12  1  0
 12 13  1  0
 13 14  1  0
 14 15  1  0
 15 16  1  0
 16 17  2  0
 19 16  1  0
 19 20  1  0
 20 21  1  0
 21 28  1  0
 28 29  1  0
 29 30  2  0
 30 31  1  0
 31 32  2  0
 32 33  1  0
 32 34  1  0
 34 35  2  0
 35 36  1  0
 35 37  1  0
 37 38  2  0
 21 22  1  0
 22 23  1  0
 22 24  1  0
 24 25  1  0
 62 63  1  0
 63 64  1  0
 63 65  2  0
 24 19  1  0
 38 28  1  0
 38 31  1  0
 73 76  1  0
 75 77  1  0
 75 78  1  0
 71 72  1  0
 58 61  1  0
 82 83  1  0
 85 87  1  0
 86 88  1  0
 86 89  1  0
 53 56  1  0
  1  4  1  0
 45 46  1  0
 45 47  1  0
  6  9  1  0
 15 18  1  0
 33 39  1  0
 33 40  1  0
 23 26  1  0
 25 27  1  0
 64 66  1  0
 64 67  1  0
M  END
> <minimizedAffinity>
-6.98904

> <CNNscore>
0.2069677562

> <CNNaffinity>
7.2289505005

> <CNN_VS>
1.4961596727

> <CNNaffinity_variance>
2.7009723186

$$$$



 89 91  0  0  0  0  0  0  0  0999 V2000
   17.5054    3.4251    5.7277 N   0  0  0  0  0  0  0  0  0  0  0  0
   17.6764    4.4040    6.6917 C   0  0  0  0  0  0  0  0  0  0  0  0
   16.8407    4.6184    7.5656 O   0  0  0  0  0  0  0  0  0  0  0  0
   18.2272    3.2508    5.0813 H   0  0  0  0  0  0  0  0  0  0  0  0
   18.9196    5.2880    6.4705 C   0  0  0  0  0  0  0  0  0  0  0  0
   18.7215    6.2352    5.3682 N   0  0  0  0  0  0  0  0  0  0  0  0
   17.6812    7.1343    5.3724 C   0  0  0  0  0  0  0  0  0  0  0  0
   16.7566    7.0900    6.1763 O   0  0  0  0  0  0  0  0  0  0  0  0
   19.3474    6.2270    4.6083 H   0  0  0  0  0  0  0  0  0  0  0  0
   17.7580    8.2036    4.2978 C   0  0  0  0  0  0  0  0  0  0  0  0
   17.1971    9.5370    4.7980 C   0  0  0  0  0  0  0  0  0  0  0  0
   18.2651   10.6323    4.8271 C   0  0  0  0  0  0  0  0  0  0  0  0
   19.2531   10.5419    3.6613 C   0  0  0  0  0  0  0  0  0  0  0  0
   20.1637   11.7613    3.4931 C   0  0  0  0  0  0  0  0  0  0  0  0
   19.5587   12.8561    2.7488 N   0  0  0  0  0  0  0  0  0  0  0  0
   19.0361   13.9514    3.4119 C   0  0  0  0  0  0  0  0  0  0  0  0
   18.8609   14.0001    4.6281 O   0  0  0  0  0  0  0  0  0  0  0  0
   19.5213   12.8166    1.7658 H   0  0  0  0  0  0  0  0  0  0  0  0
   18.6076   15.1057    2.5065 C   0  0  0  0  0  0  0  0  0  0  0  0
   17.8282   16.0857    3.2110 O   0  0  0  0  0  0  0  0  0  0  0  0
   18.3005   17.3839    2.7923 C   0  0  0  0  0  0  0  0  0  0  0  0
   19.7988   17.1914    2.5596 C   0  0  0  0  0  0  0  0  0  0  0  0
   20.3687   18.1770    1.7052 O   0  0  0  0  0  0  0  0  0  0  0  0
   19.8199   15.8139    1.9006 C   0  0  0  0  0  0  0  0  0  0  0  0
   19.6485   15.9985    0.4802 O   0  0  0  0  0  0  0  0  0  0  0  0
   19.9035   18.1750    0.8540 H   0  0  0  0  0  0  0  0  0  0  0  0
   18.8341   16.4989    0.3151 H   0  0  0  0  0  0  0  0  0  0  0  0
   17.8375   18.3504    3.7622 N   0  0  0  0  0  0  0  0  0  0  0  0
   17.2473   19.5423    3.4071 C   0  0  0  0  0  0  0  0  0  0  0  0
   16.9868   20.2997    4.4499 N   0  0  0  0  0  0  0  0  0  0  0  0
   17.4063   19.5596    5.5322 C   0  0  0  0  0  0  0  0  0  0  0  0
   17.4063   19.8265    6.9128 C   0  0  0  0  0  0  0  0  0  0  0  0
   16.9176   21.0118    7.4510 N   0  0  0  0  0  0  0  0  0  0  0  0
   17.9196   18.9050    7.7533 N   0  0  0  0  0  0  0  0  0  0  0  0
   18.3769   17.7571    7.2151 C   0  0  0  0  0  0  0  0  0  0  0  0
   18.9978   16.6184    8.3315 Cl  0  0  0  0  0  0  0  0  0  0  0  0
   18.4102   17.3734    5.9235 N   0  0  0  0  0  0  0  0  0  0  0  0
   17.9233   18.3348    5.1263 C   0  0  0  0  0  0  0  0  0  0  0  0
   16.5375   21.7011    6.8596 H   0  0  0  0  0  0  0  0  0  0  0  0
   16.9515   21.1617    8.4234 H   0  0  0  0  0  0  0  0  0  0  0  0
   20.2137    4.4750    6.3028 C   0  0  0  0  0  0  0  0  0  0  0  0
   20.9819    4.7742    5.0072 C   0  0  0  0  0  0  0  0  0  0  0  0
   21.6247    6.1696    4.9917 C   0  0  0  0  0  0  0  0  0  0  0  0
   22.6799    6.3725    3.9009 C   0  0  0  0  0  0  0  0  0  0  0  0
   22.2290    7.2514    2.8339 N   0  0  0  0  0  0  0  0  0  0  0  0
   21.4160    6.8400    2.3752 H   0  0  0  0  0  0  0  0  0  0  0  0
   22.9788    7.3719    2.1529 H   0  0  0  0  0  0  0  0  0  0  0  0
   16.2831    2.6538    5.6546 C   0  0  0  0  0  0  0  0  0  0  0  0
   16.2706    1.5128    6.6721 C   0  0  0  0  0  0  0  0  0  0  0  0
   14.9152    0.8055    6.7911 C   0  0  0  0  0  0  0  0  0  0  0  0
   14.1782    0.9998    8.1281 C   0  0  0  0  0  0  0  0  0  0  0  0
   14.5722    2.2519    8.9160 C   0  0  0  0  0  0  0  0  0  0  0  0
   13.5136    3.7677   10.4770 N   0  0  0  0  0  0  0  0  0  0  0  0
   13.3869    3.1340    9.2592 C   0  0  0  0  0  0  0  0  0  0  0  0
   12.4136    3.2627    8.5237 O   0  0  0  0  0  0  0  0  0  0  0  0
   14.3649    3.7135   10.9684 H   0  0  0  0  0  0  0  0  0  0  0  0
   12.3972    4.5189   11.0451 C   0  0  0  0  0  0  0  0  0  0  0  0
   11.1171    3.7324   12.9823 N   0  0  0  0  0  0  0  0  0  0  0  0
   12.3277    4.2062   12.5493 C   0  0  0  0  0  0  0  0  0  0  0  0
   13.2980    4.3820   13.2871 O   0  0  0  0  0  0  0  0  0  0  0  0
   10.3807    3.6852   12.3306 H   0  0  0  0  0  0  0  0  0  0  0  0
   10.8483    3.2908   14.3565 C   0  0  0  0  0  0  0  0  0  0  0  0
   12.0260    2.3980   14.8191 C   0  0  0  0  0  0  0  0  0  0  0  0
   12.2931    1.3301   14.0027 N   0  0  0  0  0  0  0  0  0  0  0  0
   12.6516    2.5363   15.8652 O   0  0  0  0  0  0  0  0  0  0  0  0
   11.7931    1.2158   13.1624 H   0  0  0  0  0  0  0  0  0  0  0  0
   12.9849    0.6773   14.2566 H   0  0  0  0  0  0  0  0  0  0  0  0
   10.6730    4.4887   15.3047 C   0  0  0  0  0  0  0  0  0  0  0  0
    9.3455    5.2493   15.1684 C   0  0  0  0  0  0  0  0  0  0  0  0
    8.1006    4.3617   15.1641 C   0  0  0  0  0  0  0  0  0  0  0  0
    6.9483    5.1291   15.6060 N   0  0  0  0  0  0  0  0  0  0  0  0
    6.7405    5.1511   16.5681 H   0  0  0  0  0  0  0  0  0  0  0  0
    6.1321    5.6879   13.4844 N   0  0  0  0  0  0  0  0  0  0  0  0
    6.1488    5.8137   14.7590 C   0  0  0  0  0  0  0  0  0  0  0  0
    5.3259    6.6443   15.4299 N   0  0  0  0  0  0  0  0  0  0  0  0
    5.5133    6.2306   12.9442 H   0  0  0  0  0  0  0  0  0  0  0  0
    4.6860    7.2073   14.9370 H   0  0  0  0  0  0  0  0  0  0  0  0
    5.3647    6.6879   16.4126 H   0  0  0  0  0  0  0  0  0  0  0  0
   12.4754    6.0212   10.7346 C   0  0  0  0  0  0  0  0  0  0  0  0
   12.0476    7.0007   11.8413 C   0  0  0  0  0  0  0  0  0  0  0  0
   10.7451    7.7695   11.6137 C   0  0  0  0  0  0  0  0  0  0  0  0
    9.5939    6.8905   11.7227 N   0  0  0  0  0  0  0  0  0  0  0  0
    9.4633    6.4194   12.5773 H   0  0  0  0  0  0  0  0  0  0  0  0
    8.6902    6.6678   10.7479 C   0  0  0  0  0  0  0  0  0  0  0  0
    7.5100    6.1802   10.8432 N   0  0  0  0  0  0  0  0  0  0  0  0
    9.1594    7.0291    9.5394 N   0  0  0  0  0  0  0  0  0  0  0  0
    7.1574    5.9128   11.7226 H   0  0  0  0  0  0  0  0  0  0  0  0
   10.0654    7.4051    9.4555 H   0  0  0  0  0  0  0  0  0  0  0  0
    8.5967    6.9176    8.7394 H   0  0  0  0  0  0  0  0  0  0  0  0
 73 74  2  0
 74 75  1  0
 74 71  1  0
 71 70  1  0
 70 69  1  0
 69 68  1  0
 62 68  1  0
 62 58  1  0
 58 59  1  0
 59 60  2  0
 59 57  1  0
 57 79  1  0
 79 80  1  0
 80 81  1  0
 81 82  1  0
 82 84  1  0
 84 85  2  0
 84 86  1  0
 57 53  1  0
 53 54  1  0
 54 55  2  0
 54 52  1  0
 52 51  1  0
 51 50  1  0
 50 49  1  0
 49 48  1  0
 48  1  1  0
  1  2  1  0
  2  3  2  0
  2  5  1  0
  5 41  1  0
 41 42  1  0
 42 43  1  0
 43 44  1  0
 44 45  1  0
  5  6  1  0
  6  7  1  0
  7  8  2  0
  7 10  1  0
 10 11  1  0
 11 12  1  0
 12 13  1  0
 13 14  1  0
 14 15  1  0
 15 16  1  0
 16 17  2  0
 19 16  1  0
 19 20  1  0
 20 21  1  0
 21 28  1  0
 28 29  1  0
 29 30  2  0
 30 31  1  0
 31 32  2  0
 32 33  1  0
 32 34  1  0
 34 35  2  0
 35 36  1  0
 35 37  1  0
 37 38  2  0
 21 22  1  0
 22 23  1  0
 22 24  1  0
 24 25  1  0
 62 63  1  0
 63 64  1  0
 63 65  2  0
 24 19  1  0
 38 28  1  0
 38 31  1  0
 73 76  1  0
 75 77  1  0
 75 78  1  0
 71 72  1  0
 58 61  1  0
 82 83  1  0
 85 87  1  0
 86 88  1  0
 86 89  1  0
 53 56  1  0
  1  4  1  0
 45 46  1  0
 45 47  1  0
  6  9  1  0
 15 18  1  0
 33 39  1  0
 33 40  1  0
 23 26  1  0
 25 27  1  0
 64 66  1  0
 64 67  1  0
M  END
> <minimizedAffinity>
-6.60866

> <CNNscore>
0.1998219341

> <CNNaffinity>
6.9869360924

> <CNN_VS>
1.3961430788

> <CNNaffinity_variance>
1.0599684715

$$$$



 89 91  0  0  0  0  0  0  0  0999 V2000
   14.6424    5.2653   10.3379 N   0  0  0  0  0  0  0  0  0  0  0  0
   15.0477    3.9565   10.1389 C   0  0  0  0  0  0  0  0  0  0  0  0
   15.0121    3.1147   11.0323 O   0  0  0  0  0  0  0  0  0  0  0  0
   14.6353    5.8908    9.5778 H   0  0  0  0  0  0  0  0  0  0  0  0
   15.6852    3.7032    8.7585 C   0  0  0  0  0  0  0  0  0  0  0  0
   17.1501    3.6906    8.8325 N   0  0  0  0  0  0  0  0  0  0  0  0
   17.8540    2.5136    8.9297 C   0  0  0  0  0  0  0  0  0  0  0  0
   17.3252    1.4292    9.1480 O   0  0  0  0  0  0  0  0  0  0  0  0
   17.6403    4.5442    8.8120 H   0  0  0  0  0  0  0  0  0  0  0  0
   19.3542    2.6501    8.7434 C   0  0  0  0  0  0  0  0  0  0  0  0
   19.7128    3.9742    8.0645 C   0  0  0  0  0  0  0  0  0  0  0  0
   20.7514    3.7865    6.9567 C   0  0  0  0  0  0  0  0  0  0  0  0
   20.7673    4.9347    5.9445 C   0  0  0  0  0  0  0  0  0  0  0  0
   20.2500    6.2725    6.4805 C   0  0  0  0  0  0  0  0  0  0  0  0
   20.6237    7.4218    5.6693 N   0  0  0  0  0  0  0  0  0  0  0  0
   20.0855    8.6690    5.9288 C   0  0  0  0  0  0  0  0  0  0  0  0
   19.1417    8.8657    6.6923 O   0  0  0  0  0  0  0  0  0  0  0  0
   21.2645    7.3105    4.9302 H   0  0  0  0  0  0  0  0  0  0  0  0
   20.7050    9.8147    5.1293 C   0  0  0  0  0  0  0  0  0  0  0  0
   22.1292    9.6761    4.9993 O   0  0  0  0  0  0  0  0  0  0  0  0
   22.4642   10.0044    3.6341 C   0  0  0  0  0  0  0  0  0  0  0  0
   21.2734    9.5064    2.8155 C   0  0  0  0  0  0  0  0  0  0  0  0
   21.1620   10.1332    1.5423 O   0  0  0  0  0  0  0  0  0  0  0  0
   20.1087    9.8949    3.7234 C   0  0  0  0  0  0  0  0  0  0  0  0
   19.7295   11.2497    3.4042 O   0  0  0  0  0  0  0  0  0  0  0  0
   21.0983   11.0940    1.6595 H   0  0  0  0  0  0  0  0  0  0  0  0
   20.5021   11.8301    3.4887 H   0  0  0  0  0  0  0  0  0  0  0  0
   23.7883    9.4868    3.3733 N   0  0  0  0  0  0  0  0  0  0  0  0
   24.2606    8.3230    3.9368 C   0  0  0  0  0  0  0  0  0  0  0  0
   25.5179    8.0939    3.6274 N   0  0  0  0  0  0  0  0  0  0  0  0
   25.8730    9.1431    2.8100 C   0  0  0  0  0  0  0  0  0  0  0  0
   27.0805    9.4703    2.1681 C   0  0  0  0  0  0  0  0  0  0  0  0
   28.2242    8.6861    2.2696 N   0  0  0  0  0  0  0  0  0  0  0  0
   27.1428   10.6027    1.4380 N   0  0  0  0  0  0  0  0  0  0  0  0
   26.0212   11.3435    1.3404 C   0  0  0  0  0  0  0  0  0  0  0  0
   26.1553   12.7574    0.3857 Cl  0  0  0  0  0  0  0  0  0  0  0  0
   24.8058   11.1280    1.8817 N   0  0  0  0  0  0  0  0  0  0  0  0
   24.8043   10.0126    2.6251 C   0  0  0  0  0  0  0  0  0  0  0  0
   28.2058    7.8545    2.7963 H   0  0  0  0  0  0  0  0  0  0  0  0
   29.0525    8.9623    1.8147 H   0  0  0  0  0  0  0  0  0  0  0  0
   15.1737    4.6655    7.6739 C   0  0  0  0  0  0  0  0  0  0  0  0
   15.2122    6.1467    8.0773 C   0  0  0  0  0  0  0  0  0  0  0  0
   16.6322    6.7332    8.0966 C   0  0  0  0  0  0  0  0  0  0  0  0
   16.7830    8.0083    8.9309 C   0  0  0  0  0  0  0  0  0  0  0  0
   18.0766    8.1050    9.5879 N   0  0  0  0  0  0  0  0  0  0  0  0
   18.1892    7.3235   10.2336 H   0  0  0  0  0  0  0  0  0  0  0  0
   18.1310    8.9831   10.1040 H   0  0  0  0  0  0  0  0  0  0  0  0
   14.2289    5.7289   11.6449 C   0  0  0  0  0  0  0  0  0  0  0  0
   12.7064    5.7603   11.7802 C   0  0  0  0  0  0  0  0  0  0  0  0
   12.0686    7.0637   11.2840 C   0  0  0  0  0  0  0  0  0  0  0  0
   11.1272    7.7650   12.2792 C   0  0  0  0  0  0  0  0  0  0  0  0
    9.8516    8.3524   11.6698 C   0  0  0  0  0  0  0  0  0  0  0  0
    8.3437    7.1213   13.1070 N   0  0  0  0  0  0  0  0  0  0  0  0
    8.6856    8.3725   12.6398 C   0  0  0  0  0  0  0  0  0  0  0  0
    8.1063    9.4027   12.9683 O   0  0  0  0  0  0  0  0  0  0  0  0
    8.9159    6.3487   12.8950 H   0  0  0  0  0  0  0  0  0  0  0  0
    7.1409    6.9307   13.9134 C   0  0  0  0  0  0  0  0  0  0  0  0
    5.1087    8.1672   13.3206 N   0  0  0  0  0  0  0  0  0  0  0  0
    5.9186    7.1103   12.9973 C   0  0  0  0  0  0  0  0  0  0  0  0
    5.7041    6.3459   12.0559 O   0  0  0  0  0  0  0  0  0  0  0  0
    5.3268    8.6846   14.1293 H   0  0  0  0  0  0  0  0  0  0  0  0
    3.9364    8.5771   12.5375 C   0  0  0  0  0  0  0  0  0  0  0  0
    2.6895    7.8687   13.1222 C   0  0  0  0  0  0  0  0  0  0  0  0
    2.0113    8.5887   14.0708 N   0  0  0  0  0  0  0  0  0  0  0  0
    2.3365    6.7239   12.8587 O   0  0  0  0  0  0  0  0  0  0  0  0
    2.2918    9.5078   14.2849 H   0  0  0  0  0  0  0  0  0  0  0  0
    1.2437    8.1868   14.5382 H   0  0  0  0  0  0  0  0  0  0  0  0
    3.7526   10.1036   12.5632 C   0  0  0  0  0  0  0  0  0  0  0  0
    2.8023   10.6718   11.4985 C   0  0  0  0  0  0  0  0  0  0  0  0
    1.8021   11.7025   12.0227 C   0  0  0  0  0  0  0  0  0  0  0  0
    2.3105   12.3036   13.2443 N   0  0  0  0  0  0  0  0  0  0  0  0
    2.4181   11.7320   14.0387 H   0  0  0  0  0  0  0  0  0  0  0  0
    2.9970   14.2106   14.4156 N   0  0  0  0  0  0  0  0  0  0  0  0
    2.6425   13.6096   13.3414 C   0  0  0  0  0  0  0  0  0  0  0  0
    2.5869   14.2172   12.1394 N   0  0  0  0  0  0  0  0  0  0  0  0
    3.2221   15.1687   14.3923 H   0  0  0  0  0  0  0  0  0  0  0  0
    2.8049   15.1740   12.0609 H   0  0  0  0  0  0  0  0  0  0  0  0
    2.3283   13.7041   11.3399 H   0  0  0  0  0  0  0  0  0  0  0  0
    7.1445    5.5973   14.6759 C   0  0  0  0  0  0  0  0  0  0  0  0
    8.2838    5.3544   15.6810 C   0  0  0  0  0  0  0  0  0  0  0  0
    8.9890    3.9991   15.6070 C   0  0  0  0  0  0  0  0  0  0  0  0
   10.4037    4.1293   15.9097 N   0  0  0  0  0  0  0  0  0  0  0  0
   10.9211    4.7810   15.3836 H   0  0  0  0  0  0  0  0  0  0  0  0
   11.0650    3.4297   16.8529 C   0  0  0  0  0  0  0  0  0  0  0  0
   12.2496    2.9454   16.8106 N   0  0  0  0  0  0  0  0  0  0  0  0
   10.3193    3.2540   17.9594 N   0  0  0  0  0  0  0  0  0  0  0  0
   12.8032    3.0684   16.0058 H   0  0  0  0  0  0  0  0  0  0  0  0
    9.4073    3.6224   18.0020 H   0  0  0  0  0  0  0  0  0  0  0  0
   10.6858    2.7571   18.7262 H   0  0  0  0  0  0  0  0  0  0  0  0
 73 74  2  0
 74 75  1  0
 74 71  1  0
 71 70  1  0
 70 69  1  0
 69 68  1  0
 62 68  1  0
 62 58  1  0
 58 59  1  0
 59 60  2  0
 59 57  1  0
 57 79  1  0
 79 80  1  0
 80 81  1  0
 81 82  1  0
 82 84  1  0
 84 85  2  0
 84 86  1  0
 57 53  1  0
 53 54  1  0
 54 55  2  0
 54 52  1  0
 52 51  1  0
 51 50  1  0
 50 49  1  0
 49 48  1  0
 48  1  1  0
  1  2  1  0
  2  3  2  0
  2  5  1  0
  5 41  1  0
 41 42  1  0
 42 43  1  0
 43 44  1  0
 44 45  1  0
  5  6  1  0
  6  7  1  0
  7  8  2  0
  7 10  1  0
 10 11  1  0
 11 12  1  0
 12 13  1  0
 13 14  1  0
 14 15  1  0
 15 16  1  0
 16 17  2  0
 19 16  1  0
 19 20  1  0
 20 21  1  0
 21 28  1  0
 28 29  1  0
 29 30  2  0
 30 31  1  0
 31 32  2  0
 32 33  1  0
 32 34  1  0
 34 35  2  0
 35 36  1  0
 35 37  1  0
 37 38  2  0
 21 22  1  0
 22 23  1  0
 22 24  1  0
 24 25  1  0
 62 63  1  0
 63 64  1  0
 63 65  2  0
 24 19  1  0
 38 28  1  0
 38 31  1  0
 73 76  1  0
 75 77  1  0
 75 78  1  0
 71 72  1  0
 58 61  1  0
 82 83  1  0
 85 87  1  0
 86 88  1  0
 86 89  1  0
 53 56  1  0
  1  4  1  0
 45 46  1  0
 45 47  1  0
  6  9  1  0
 15 18  1  0
 33 39  1  0
 33 40  1  0
 23 26  1  0
 25 27  1  0
 64 66  1  0
 64 67  1  0
M  END
> <minimizedAffinity>
-6.81365

> <CNNscore>
0.1912853122

> <CNNaffinity>
6.7111802101

> <CNN_VS>
1.2837501764

> <CNNaffinity_variance>
1.3031955957

$$$$



 89 91  0  0  0  0  0  0  0  0999 V2000
   16.6661    5.9341    4.8370 N   0  0  0  0  0  0  0  0  0  0  0  0
   17.2522    4.8747    4.1657 C   0  0  0  0  0  0  0  0  0  0  0  0
   17.0436    4.6550    2.9756 O   0  0  0  0  0  0  0  0  0  0  0  0
   16.9067    6.1047    5.7763 H   0  0  0  0  0  0  0  0  0  0  0  0
   18.0513    3.9227    5.0775 C   0  0  0  0  0  0  0  0  0  0  0  0
   17.1664    3.0802    5.8890 N   0  0  0  0  0  0  0  0  0  0  0  0
   16.5895    1.9424    5.3762 C   0  0  0  0  0  0  0  0  0  0  0  0
   16.6135    1.6538    4.1848 O   0  0  0  0  0  0  0  0  0  0  0  0
   16.9813    3.3351    6.8217 H   0  0  0  0  0  0  0  0  0  0  0  0
   15.9117    1.0526    6.4024 C   0  0  0  0  0  0  0  0  0  0  0  0
   14.4219    1.3805    6.5264 C   0  0  0  0  0  0  0  0  0  0  0  0
   13.9374    1.3024    7.9757 C   0  0  0  0  0  0  0  0  0  0  0  0
   12.9049    2.3772    8.3249 C   0  0  0  0  0  0  0  0  0  0  0  0
   13.4930    3.6822    8.8688 C   0  0  0  0  0  0  0  0  0  0  0  0
   13.0596    4.0117   10.2187 N   0  0  0  0  0  0  0  0  0  0  0  0
   13.9099    3.8272   11.2936 C   0  0  0  0  0  0  0  0  0  0  0  0
   14.9723    3.2108   11.2325 O   0  0  0  0  0  0  0  0  0  0  0  0
   12.1543    4.3687   10.3677 H   0  0  0  0  0  0  0  0  0  0  0  0
   13.3994    4.3893   12.6200 C   0  0  0  0  0  0  0  0  0  0  0  0
   12.8114    5.6911   12.4658 O   0  0  0  0  0  0  0  0  0  0  0  0
   11.6043    5.7075   13.2573 C   0  0  0  0  0  0  0  0  0  0  0  0
   11.0607    4.2823   13.1591 C   0  0  0  0  0  0  0  0  0  0  0  0
   10.1702    3.9437   14.2167 O   0  0  0  0  0  0  0  0  0  0  0  0
   12.3502    3.4687   13.2444 C   0  0  0  0  0  0  0  0  0  0  0  0
   12.6372    3.2364   14.6390 O   0  0  0  0  0  0  0  0  0  0  0  0
   10.6190    4.0636   15.0682 H   0  0  0  0  0  0  0  0  0  0  0  0
   12.6785    4.0853   15.1064 H   0  0  0  0  0  0  0  0  0  0  0  0
   10.8010    6.8207   12.8051 N   0  0  0  0  0  0  0  0  0  0  0  0
   11.3271    7.8930   12.1204 C   0  0  0  0  0  0  0  0  0  0  0  0
   10.4290    8.8247   11.8875 N   0  0  0  0  0  0  0  0  0  0  0  0
    9.2632    8.3280   12.4252 C   0  0  0  0  0  0  0  0  0  0  0  0
    7.9625    8.8564   12.5049 C   0  0  0  0  0  0  0  0  0  0  0  0
    7.6211   10.0994   11.9837 N   0  0  0  0  0  0  0  0  0  0  0  0
    7.0065    8.1393   13.1302 N   0  0  0  0  0  0  0  0  0  0  0  0
    7.3525    6.9315   13.6179 C   0  0  0  0  0  0  0  0  0  0  0  0
    6.0939    6.0599   14.3827 Cl  0  0  0  0  0  0  0  0  0  0  0  0
    8.5466    6.3073   13.5846 N   0  0  0  0  0  0  0  0  0  0  0  0
    9.4699    7.0731   12.9861 C   0  0  0  0  0  0  0  0  0  0  0  0
    8.3000   10.6431   11.5225 H   0  0  0  0  0  0  0  0  0  0  0  0
    6.7005   10.4359   12.0760 H   0  0  0  0  0  0  0  0  0  0  0  0
   19.0977    4.6505    5.9372 C   0  0  0  0  0  0  0  0  0  0  0  0
   20.3778    5.0343    5.1804 C   0  0  0  0  0  0  0  0  0  0  0  0
   21.4899    3.9806    5.2968 C   0  0  0  0  0  0  0  0  0  0  0  0
   22.5565    4.0569    4.2008 C   0  0  0  0  0  0  0  0  0  0  0  0
   22.2143    3.2761    3.0229 N   0  0  0  0  0  0  0  0  0  0  0  0
   22.1344    2.2919    3.2788 H   0  0  0  0  0  0  0  0  0  0  0  0
   22.9437    3.3860    2.3184 H   0  0  0  0  0  0  0  0  0  0  0  0
   15.7055    6.7949    4.1809 C   0  0  0  0  0  0  0  0  0  0  0  0
   16.0866    8.2701    4.3071 C   0  0  0  0  0  0  0  0  0  0  0  0
   16.9243    8.5877    5.5518 C   0  0  0  0  0  0  0  0  0  0  0  0
   17.3994   10.0459    5.6799 C   0  0  0  0  0  0  0  0  0  0  0  0
   17.5230   10.8117    4.3601 C   0  0  0  0  0  0  0  0  0  0  0  0
   18.7981   12.4940    3.1772 N   0  0  0  0  0  0  0  0  0  0  0  0
   18.5825   11.8965    4.4008 C   0  0  0  0  0  0  0  0  0  0  0  0
   19.1865   12.2035    5.4233 O   0  0  0  0  0  0  0  0  0  0  0  0
   18.2048   12.2830    2.4205 H   0  0  0  0  0  0  0  0  0  0  0  0
   19.8982   13.4369    2.9927 C   0  0  0  0  0  0  0  0  0  0  0  0
   18.1049   14.8865    3.8250 N   0  0  0  0  0  0  0  0  0  0  0  0
   19.3795   14.8464    3.3238 C   0  0  0  0  0  0  0  0  0  0  0  0
   20.0744   15.8460    3.1383 O   0  0  0  0  0  0  0  0  0  0  0  0
   17.6037   14.0408    3.8785 H   0  0  0  0  0  0  0  0  0  0  0  0
   17.4390   16.1107    4.2873 C   0  0  0  0  0  0  0  0  0  0  0  0
   15.9092   15.9141    4.1476 C   0  0  0  0  0  0  0  0  0  0  0  0
   15.2119   15.9749    5.3258 N   0  0  0  0  0  0  0  0  0  0  0  0
   15.3224   15.6394    3.1060 O   0  0  0  0  0  0  0  0  0  0  0  0
   15.6794   16.1951    6.1637 H   0  0  0  0  0  0  0  0  0  0  0  0
   14.2433   15.7985    5.3342 H   0  0  0  0  0  0  0  0  0  0  0  0
   17.8117   16.4342    5.7436 C   0  0  0  0  0  0  0  0  0  0  0  0
   18.5075   17.7861    5.9618 C   0  0  0  0  0  0  0  0  0  0  0  0
   17.6101   19.0057    5.7496 C   0  0  0  0  0  0  0  0  0  0  0  0
   17.0508   19.4315    7.0215 N   0  0  0  0  0  0  0  0  0  0  0  0
   16.2400   19.9900    7.0139 H   0  0  0  0  0  0  0  0  0  0  0  0
   17.1392   18.2029    9.0122 N   0  0  0  0  0  0  0  0  0  0  0  0
   17.5908   19.0973    8.2140 C   0  0  0  0  0  0  0  0  0  0  0  0
   18.7081   19.8103    8.4600 N   0  0  0  0  0  0  0  0  0  0  0  0
   17.5997   18.0257    9.8641 H   0  0  0  0  0  0  0  0  0  0  0  0
   19.2076   19.6695    9.2966 H   0  0  0  0  0  0  0  0  0  0  0  0
   19.0245   20.4717    7.8031 H   0  0  0  0  0  0  0  0  0  0  0  0
   21.1538   13.0441    3.7854 C   0  0  0  0  0  0  0  0  0  0  0  0
   22.2213   12.2064    3.0602 C   0  0  0  0  0  0  0  0  0  0  0  0
   22.2179   10.7015    3.3341 C   0  0  0  0  0  0  0  0  0  0  0  0
   21.3710   10.3793    4.4694 N   0  0  0  0  0  0  0  0  0  0  0  0
   20.4023   10.5217    4.3663 H   0  0  0  0  0  0  0  0  0  0  0  0
   21.8046    9.9011    5.6525 C   0  0  0  0  0  0  0  0  0  0  0  0
   21.5440   10.3225    6.8331 N   0  0  0  0  0  0  0  0  0  0  0  0
   22.6165    8.8393    5.4949 N   0  0  0  0  0  0  0  0  0  0  0  0
   20.9513   11.0985    6.9591 H   0  0  0  0  0  0  0  0  0  0  0  0
   22.8232    8.5075    4.5914 H   0  0  0  0  0  0  0  0  0  0  0  0
   23.0037    8.3945    6.2832 H   0  0  0  0  0  0  0  0  0  0  0  0
 73 74  2  0
 74 75  1  0
 74 71  1  0
 71 70  1  0
 70 69  1  0
 69 68  1  0
 62 68  1  0
 62 58  1  0
 58 59  1  0
 59 60  2  0
 59 57  1  0
 57 79  1  0
 79 80  1  0
 80 81  1  0
 81 82  1  0
 82 84  1  0
 84 85  2  0
 84 86  1  0
 57 53  1  0
 53 54  1  0
 54 55  2  0
 54 52  1  0
 52 51  1  0
 51 50  1  0
 50 49  1  0
 49 48  1  0
 48  1  1  0
  1  2  1  0
  2  3  2  0
  2  5  1  0
  5 41  1  0
 41 42  1  0
 42 43  1  0
 43 44  1  0
 44 45  1  0
  5  6  1  0
  6  7  1  0
  7  8  2  0
  7 10  1  0
 10 11  1  0
 11 12  1  0
 12 13  1  0
 13 14  1  0
 14 15  1  0
 15 16  1  0
 16 17  2  0
 19 16  1  0
 19 20  1  0
 20 21  1  0
 21 28  1  0
 28 29  1  0
 29 30  2  0
 30 31  1  0
 31 32  2  0
 32 33  1  0
 32 34  1  0
 34 35  2  0
 35 36  1  0
 35 37  1  0
 37 38  2  0
 21 22  1  0
 22 23  1  0
 22 24  1  0
 24 25  1  0
 62 63  1  0
 63 64  1  0
 63 65  2  0
 24 19  1  0
 38 28  1  0
 38 31  1  0
 73 76  1  0
 75 77  1  0
 75 78  1  0
 71 72  1  0
 58 61  1  0
 82 83  1  0
 85 87  1  0
 86 88  1  0
 86 89  1  0
 53 56  1  0
  1  4  1  0
 45 46  1  0
 45 47  1  0
  6  9  1  0
 15 18  1  0
 33 39  1  0
 33 40  1  0
 23 26  1  0
 25 27  1  0
 64 66  1  0
 64 67  1  0
M  END
> <minimizedAffinity>
-7.14992

> <CNNscore>
0.1553312242

> <CNNaffinity>
6.4900422096

> <CNN_VS>
1.0081062317

> <CNNaffinity_variance>
2.8375031948

$$$$
