


 27 29  0  0  0  0  0  0  0  0999 V2000
    3.6987   49.1559   -3.1899 C   0  0  0  0  0  0  0  0  0  0  0  0
    2.9673   49.8876   -4.3140 C   0  0  0  0  0  0  0  0  0  0  0  0
    3.2408   49.1951   -5.6671 C   0  0  0  0  0  0  0  0  0  0  0  0
    2.3110   49.6410   -6.7725 C   0  0  0  0  0  0  0  0  0  0  0  0
    1.7534   50.9323   -6.5453 O   0  0  0  0  0  0  0  0  0  0  0  0
    2.6983   50.8171   -7.6247 C   0  0  0  0  0  0  0  0  0  0  0  0
    2.2131   51.1367   -8.9744 C   0  0  0  0  0  0  0  0  0  0  0  0
    2.1054   52.4018   -9.4334 C   0  0  0  0  0  0  0  0  0  0  0  0
    2.4748   53.5196   -8.5839 C   0  0  0  0  0  0  0  0  0  0  0  0
    1.7631   53.8317   -7.4895 C   0  0  0  0  0  0  0  0  0  0  0  0
    2.3940   54.5452   -6.3483 C   0  0  0  0  0  0  0  0  0  0  0  0
    1.8060   55.4872   -5.8259 O   0  0  0  0  0  0  0  0  0  0  0  0
    3.7159   53.9748   -5.8405 C   0  0  0  0  0  0  0  0  0  0  0  0
    3.9802   54.2513   -4.3752 C   0  0  0  0  0  0  0  0  0  0  0  0
    4.6719   55.4277   -3.9928 C   0  0  0  0  0  0  0  0  0  0  0  0
    5.3132   56.5174   -5.1872 Cl  0  0  0  0  0  0  0  0  0  0  0  0
    4.8563   55.7489   -2.6373 C   0  0  0  0  0  0  0  0  0  0  0  0
    5.5454   56.8795   -2.2872 O   0  0  0  0  0  0  0  0  0  0  0  0
    4.3362   54.9355   -1.6401 C   0  0  0  0  0  0  0  0  0  0  0  0
    3.6372   53.7888   -1.9977 C   0  0  0  0  0  0  0  0  0  0  0  0
    3.1149   53.0694   -0.9511 O   0  0  0  0  0  0  0  0  0  0  0  0
    3.4807   53.4113   -3.3480 C   0  0  0  0  0  0  0  0  0  0  0  0
    2.7598   52.1297   -3.5621 C   0  0  0  0  0  0  0  0  0  0  0  0
    1.7498   51.8738   -2.9181 O   0  0  0  0  0  0  0  0  0  0  0  0
    3.4596   51.2571   -4.3338 O   0  0  0  0  0  0  0  0  0  0  0  0
    5.9010   57.4361   -2.9518 H   0  0  0  0  0  0  0  0  0  0  0  0
    3.2459   53.3613   -0.0704 H   0  0  0  0  0  0  0  0  0  0  0  0
  2  1  1  0
  2  3  1  0
  4  3  1  0
  4  5  1  0
  6  5  1  0
  6  7  1  0
  7  8  2  0
  8  9  1  0
  9 10  2  0
 10 11  1  0
 11 12  2  0
 11 13  1  0
 13 14  1  0
 14 15  2  0
 15 16  1  0
 15 17  1  0
 17 18  1  0
 17 19  2  0
 19 20  1  0
 20 21  1  0
 20 22  2  0
 22 23  1  0
 23 24  2  0
 23 25  1  0
 25  2  1  0
  6  4  1  0
 22 14  1  0
 18 26  1  0
 21 27  1  0
M  END
> <minimizedAffinity>
-7.85054

> <CNNscore>
0.4726677835

> <CNNaffinity>
4.9174995422

> <CNN_VS>
2.3243436813

> <CNNaffinity_variance>
0.1157227382

$$$$



 27 29  0  0  0  0  0  0  0  0999 V2000
   -1.1530   53.6772   -8.4668 C   0  0  0  0  0  0  0  0  0  0  0  0
   -0.0880   52.5960   -8.2916 C   0  0  0  0  0  0  0  0  0  0  0  0
   -0.7527   51.2066   -8.1779 C   0  0  0  0  0  0  0  0  0  0  0  0
    0.2184   50.0582   -8.3315 C   0  0  0  0  0  0  0  0  0  0  0  0
    1.5605   50.4167   -8.0149 O   0  0  0  0  0  0  0  0  0  0  0  0
    0.9030   49.5106   -7.1106 C   0  0  0  0  0  0  0  0  0  0  0  0
    1.5010   48.1782   -6.9475 C   0  0  0  0  0  0  0  0  0  0  0  0
    2.5575   47.9435   -6.1405 C   0  0  0  0  0  0  0  0  0  0  0  0
    3.1552   49.0310   -5.3868 C   0  0  0  0  0  0  0  0  0  0  0  0
    3.8149   50.0267   -5.9991 C   0  0  0  0  0  0  0  0  0  0  0  0
    3.9254   51.3681   -5.3685 C   0  0  0  0  0  0  0  0  0  0  0  0
    5.0089   51.9444   -5.3613 O   0  0  0  0  0  0  0  0  0  0  0  0
    2.6273   51.9816   -4.8498 C   0  0  0  0  0  0  0  0  0  0  0  0
    2.6252   53.4960   -4.8420 C   0  0  0  0  0  0  0  0  0  0  0  0
    3.0771   54.1962   -3.6956 C   0  0  0  0  0  0  0  0  0  0  0  0
    3.5440   53.3445   -2.2527 Cl  0  0  0  0  0  0  0  0  0  0  0  0
    3.1638   55.5987   -3.6934 C   0  0  0  0  0  0  0  0  0  0  0  0
    3.5831   56.2588   -2.5690 O   0  0  0  0  0  0  0  0  0  0  0  0
    2.8384   56.3298   -4.8275 C   0  0  0  0  0  0  0  0  0  0  0  0
    2.4134   55.6577   -5.9673 C   0  0  0  0  0  0  0  0  0  0  0  0
    2.1601   56.4532   -7.0575 O   0  0  0  0  0  0  0  0  0  0  0  0
    2.2652   54.2548   -5.9843 C   0  0  0  0  0  0  0  0  0  0  0  0
    1.7459   53.6938   -7.2584 C   0  0  0  0  0  0  0  0  0  0  0  0
    2.1730   54.1000   -8.3321 O   0  0  0  0  0  0  0  0  0  0  0  0
    0.6523   52.9075   -7.0778 O   0  0  0  0  0  0  0  0  0  0  0  0
    3.8055   55.7757   -1.7976 H   0  0  0  0  0  0  0  0  0  0  0  0
    2.2733   57.3813   -6.9967 H   0  0  0  0  0  0  0  0  0  0  0  0
  2  1  1  0
  2  3  1  0
  4  3  1  0
  4  5  1  0
  6  5  1  0
  6  7  1  0
  7  8  2  0
  8  9  1  0
  9 10  2  0
 10 11  1  0
 11 12  2  0
 11 13  1  0
 13 14  1  0
 14 15  2  0
 15 16  1  0
 15 17  1  0
 17 18  1  0
 17 19  2  0
 19 20  1  0
 20 21  1  0
 20 22  2  0
 22 23  1  0
 23 24  2  0
 23 25  1  0
 25  2  1  0
  6  4  1  0
 22 14  1  0
 18 26  1  0
 21 27  1  0
M  END
> <minimizedAffinity>
-7.09972

> <CNNscore>
0.3872879446

> <CNNaffinity>
4.7582173347

> <CNN_VS>
1.8428002596

> <CNNaffinity_variance>
0.1237649918

$$$$



 27 29  0  0  0  0  0  0  0  0999 V2000
    3.4284   48.9369   -3.5865 C   0  0  0  0  0  0  0  0  0  0  0  0
    3.7050   50.3983   -3.2379 C   0  0  0  0  0  0  0  0  0  0  0  0
    3.0919   50.7436   -1.8631 C   0  0  0  0  0  0  0  0  0  0  0  0
    3.5886   52.0522   -1.2918 C   0  0  0  0  0  0  0  0  0  0  0  0
    4.0666   52.9504   -2.2892 O   0  0  0  0  0  0  0  0  0  0  0  0
    2.8492   53.3199   -1.6165 C   0  0  0  0  0  0  0  0  0  0  0  0
    2.8613   54.5773   -0.8560 C   0  0  0  0  0  0  0  0  0  0  0  0
    2.7038   55.7859   -1.4367 C   0  0  0  0  0  0  0  0  0  0  0  0
    2.5131   55.8858   -2.8724 C   0  0  0  0  0  0  0  0  0  0  0  0
    3.4962   55.5755   -3.7319 C   0  0  0  0  0  0  0  0  0  0  0  0
    3.1857   55.1278   -5.1149 C   0  0  0  0  0  0  0  0  0  0  0  0
    3.8163   55.5973   -6.0573 O   0  0  0  0  0  0  0  0  0  0  0  0
    2.1447   54.0194   -5.2503 C   0  0  0  0  0  0  0  0  0  0  0  0
    2.3221   53.1591   -6.4840 C   0  0  0  0  0  0  0  0  0  0  0  0
    1.6765   53.5185   -7.6934 C   0  0  0  0  0  0  0  0  0  0  0  0
    0.5989   54.8821   -7.7621 Cl  0  0  0  0  0  0  0  0  0  0  0  0
    1.8914   52.7850   -8.8725 C   0  0  0  0  0  0  0  0  0  0  0  0
    1.2424   53.1350  -10.0267 O   0  0  0  0  0  0  0  0  0  0  0  0
    2.7676   51.7086   -8.8868 C   0  0  0  0  0  0  0  0  0  0  0  0
    3.4251   51.3554   -7.7144 C   0  0  0  0  0  0  0  0  0  0  0  0
    4.3099   50.3116   -7.8293 O   0  0  0  0  0  0  0  0  0  0  0  0
    3.1905   52.0386   -6.5026 C   0  0  0  0  0  0  0  0  0  0  0  0
    3.9257   51.5031   -5.3275 C   0  0  0  0  0  0  0  0  0  0  0  0
    5.1045   51.1860   -5.4280 O   0  0  0  0  0  0  0  0  0  0  0  0
    3.1057   51.2155   -4.2827 O   0  0  0  0  0  0  0  0  0  0  0  0
    0.6487   53.8599  -10.0290 H   0  0  0  0  0  0  0  0  0  0  0  0
    4.4312   49.8892   -8.6569 H   0  0  0  0  0  0  0  0  0  0  0  0
  2  1  1  0
  2  3  1  0
  4  3  1  0
  4  5  1  0
  6  5  1  0
  6  7  1  0
  7  8  2  0
  8  9  1  0
  9 10  2  0
 10 11  1  0
 11 12  2  0
 11 13  1  0
 13 14  1  0
 14 15  2  0
 15 16  1  0
 15 17  1  0
 17 18  1  0
 17 19  2  0
 19 20  1  0
 20 21  1  0
 20 22  2  0
 22 23  1  0
 23 24  2  0
 23 25  1  0
 25  2  1  0
  6  4  1  0
 22 14  1  0
 18 26  1  0
 21 27  1  0
M  END
> <minimizedAffinity>
-7.17720

> <CNNscore>
0.3360409439

> <CNNaffinity>
4.8605246544

> <CNN_VS>
1.6333353519

> <CNNaffinity_variance>
0.3734808266

$$$$



 27 29  0  0  0  0  0  0  0  0999 V2000
    1.4242   47.4863  -11.6969 C   0  0  0  0  0  0  0  0  0  0  0  0
    0.5729   48.6190  -11.1257 C   0  0  0  0  0  0  0  0  0  0  0  0
    0.0257   49.5028  -12.2679 C   0  0  0  0  0  0  0  0  0  0  0  0
   -1.0789   50.4380  -11.8316 C   0  0  0  0  0  0  0  0  0  0  0  0
   -1.0451   50.7289  -10.4373 O   0  0  0  0  0  0  0  0  0  0  0  0
   -0.7215   51.8094  -11.3310 C   0  0  0  0  0  0  0  0  0  0  0  0
   -1.5884   52.9952  -11.2873 C   0  0  0  0  0  0  0  0  0  0  0  0
   -1.4623   53.9604  -10.3518 C   0  0  0  0  0  0  0  0  0  0  0  0
   -0.4377   53.8550   -9.3288 C   0  0  0  0  0  0  0  0  0  0  0  0
   -0.4931   52.9091   -8.3781 C   0  0  0  0  0  0  0  0  0  0  0  0
    0.7446   52.4245   -7.7126 C   0  0  0  0  0  0  0  0  0  0  0  0
    0.7617   52.2919   -6.4927 O   0  0  0  0  0  0  0  0  0  0  0  0
    1.8971   52.0284   -8.6319 C   0  0  0  0  0  0  0  0  0  0  0  0
    2.8152   50.9763   -8.0456 C   0  0  0  0  0  0  0  0  0  0  0  0
    3.9409   51.3700   -7.2798 C   0  0  0  0  0  0  0  0  0  0  0  0
    4.3461   53.0498   -7.0820 Cl  0  0  0  0  0  0  0  0  0  0  0  0
    4.7600   50.4139   -6.6556 C   0  0  0  0  0  0  0  0  0  0  0  0
    5.8555   50.8127   -5.9368 O   0  0  0  0  0  0  0  0  0  0  0  0
    4.4658   49.0607   -6.7489 C   0  0  0  0  0  0  0  0  0  0  0  0
    3.3536   48.6584   -7.4788 C   0  0  0  0  0  0  0  0  0  0  0  0
    3.1082   47.3074   -7.4778 O   0  0  0  0  0  0  0  0  0  0  0  0
    2.5424   49.5898   -8.1605 C   0  0  0  0  0  0  0  0  0  0  0  0
    1.4272   48.9966   -8.9431 C   0  0  0  0  0  0  0  0  0  0  0  0
    0.7493   48.0945   -8.4668 O   0  0  0  0  0  0  0  0  0  0  0  0
    1.4250   49.3997  -10.2409 O   0  0  0  0  0  0  0  0  0  0  0  0
    6.0638   51.7235   -5.8669 H   0  0  0  0  0  0  0  0  0  0  0  0
    3.6767   46.7283   -7.0094 H   0  0  0  0  0  0  0  0  0  0  0  0
  2  1  1  0
  2  3  1  0
  4  3  1  0
  4  5  1  0
  6  5  1  0
  6  7  1  0
  7  8  2  0
  8  9  1  0
  9 10  2  0
 10 11  1  0
 11 12  2  0
 11 13  1  0
 13 14  1  0
 14 15  2  0
 15 16  1  0
 15 17  1  0
 17 18  1  0
 17 19  2  0
 19 20  1  0
 20 21  1  0
 20 22  2  0
 22 23  1  0
 23 24  2  0
 23 25  1  0
 25  2  1  0
  6  4  1  0
 22 14  1  0
 18 26  1  0
 21 27  1  0
M  END
> <minimizedAffinity>
-5.45982

> <CNNscore>
0.2939010859

> <CNNaffinity>
4.0639309883

> <CNN_VS>
1.1943937540

> <CNNaffinity_variance>
0.4577207565

$$$$



 27 29  0  0  0  0  0  0  0  0999 V2000
   -0.1192   48.8891   -3.5765 C   0  0  0  0  0  0  0  0  0  0  0  0
    1.0910   49.8133   -3.4544 C   0  0  0  0  0  0  0  0  0  0  0  0
    1.1463   50.4356   -2.0420 C   0  0  0  0  0  0  0  0  0  0  0  0
    2.4690   51.0947   -1.7238 C   0  0  0  0  0  0  0  0  0  0  0  0
    3.1861   51.4965   -2.8876 O   0  0  0  0  0  0  0  0  0  0  0  0
    2.6613   52.5478   -2.0567 C   0  0  0  0  0  0  0  0  0  0  0  0
    3.6321   53.4766   -1.4615 C   0  0  0  0  0  0  0  0  0  0  0  0
    4.1639   54.5149   -2.1411 C   0  0  0  0  0  0  0  0  0  0  0  0
    3.7843   54.7538   -3.5218 C   0  0  0  0  0  0  0  0  0  0  0  0
    4.1339   53.9044   -4.5005 C   0  0  0  0  0  0  0  0  0  0  0  0
    3.3274   53.8024   -5.7449 C   0  0  0  0  0  0  0  0  0  0  0  0
    3.8958   53.7774   -6.8323 O   0  0  0  0  0  0  0  0  0  0  0  0
    1.8208   53.6363   -5.5637 C   0  0  0  0  0  0  0  0  0  0  0  0
    1.1440   52.9001   -6.7010 C   0  0  0  0  0  0  0  0  0  0  0  0
    0.6403   53.6250   -7.8098 C   0  0  0  0  0  0  0  0  0  0  0  0
    0.6969   55.3631   -7.8436 Cl  0  0  0  0  0  0  0  0  0  0  0  0
    0.0836   52.9597   -8.9152 C   0  0  0  0  0  0  0  0  0  0  0  0
   -0.4168   53.6781   -9.9684 O   0  0  0  0  0  0  0  0  0  0  0  0
    0.0435   51.5730   -8.9601 C   0  0  0  0  0  0  0  0  0  0  0  0
    0.5521   50.8461   -7.8902 C   0  0  0  0  0  0  0  0  0  0  0  0
    0.5179   49.4814   -8.0388 O   0  0  0  0  0  0  0  0  0  0  0  0
    1.0690   51.4850   -6.7436 C   0  0  0  0  0  0  0  0  0  0  0  0
    1.5194   50.5689   -5.6638 C   0  0  0  0  0  0  0  0  0  0  0  0
    2.1695   49.5668   -5.9347 O   0  0  0  0  0  0  0  0  0  0  0  0
    0.9483   50.8523   -4.4637 O   0  0  0  0  0  0  0  0  0  0  0  0
   -0.3950   54.6146   -9.9492 H   0  0  0  0  0  0  0  0  0  0  0  0
    0.1642   49.1038   -8.8200 H   0  0  0  0  0  0  0  0  0  0  0  0
  2  1  1  0
  2  3  1  0
  4  3  1  0
  4  5  1  0
  6  5  1  0
  6  7  1  0
  7  8  2  0
  8  9  1  0
  9 10  2  0
 10 11  1  0
 11 12  2  0
 11 13  1  0
 13 14  1  0
 14 15  2  0
 15 16  1  0
 15 17  1  0
 17 18  1  0
 17 19  2  0
 19 20  1  0
 20 21  1  0
 20 22  2  0
 22 23  1  0
 23 24  2  0
 23 25  1  0
 25  2  1  0
  6  4  1  0
 22 14  1  0
 18 26  1  0
 21 27  1  0
M  END
> <minimizedAffinity>
-7.20913

> <CNNscore>
0.2856934667

> <CNNaffinity>
4.6831531525

> <CNN_VS>
1.3379462957

> <CNNaffinity_variance>
0.5548029542

$$$$



 27 29  0  0  0  0  0  0  0  0999 V2000
    3.8746   43.3873   -5.1858 C   0  0  0  0  0  0  0  0  0  0  0  0
    3.3054   44.7762   -5.4698 C   0  0  0  0  0  0  0  0  0  0  0  0
    4.1851   45.8587   -4.8069 C   0  0  0  0  0  0  0  0  0  0  0  0
    3.8948   47.2580   -5.2996 C   0  0  0  0  0  0  0  0  0  0  0  0
    2.5805   47.4007   -5.8309 O   0  0  0  0  0  0  0  0  0  0  0  0
    2.8546   48.0814   -4.5929 C   0  0  0  0  0  0  0  0  0  0  0  0
    2.7270   49.5454   -4.5930 C   0  0  0  0  0  0  0  0  0  0  0  0
    1.5394   50.1770   -4.4772 C   0  0  0  0  0  0  0  0  0  0  0  0
    0.3146   49.4086   -4.3462 C   0  0  0  0  0  0  0  0  0  0  0  0
   -0.1549   48.6627   -5.3586 C   0  0  0  0  0  0  0  0  0  0  0  0
   -1.0191   47.4819   -5.0977 C   0  0  0  0  0  0  0  0  0  0  0  0
   -2.0299   47.3126   -5.7729 O   0  0  0  0  0  0  0  0  0  0  0  0
   -0.5179   46.4948   -4.0466 C   0  0  0  0  0  0  0  0  0  0  0  0
   -0.9982   45.0746   -4.2609 C   0  0  0  0  0  0  0  0  0  0  0  0
   -2.2124   44.6438   -3.6701 C   0  0  0  0  0  0  0  0  0  0  0  0
   -3.1166   45.6916   -2.6167 Cl  0  0  0  0  0  0  0  0  0  0  0  0
   -2.7219   43.3587   -3.9216 C   0  0  0  0  0  0  0  0  0  0  0  0
   -3.8862   42.9529   -3.3252 O   0  0  0  0  0  0  0  0  0  0  0  0
   -2.0623   42.4915   -4.7815 C   0  0  0  0  0  0  0  0  0  0  0  0
   -0.8811   42.9055   -5.3856 C   0  0  0  0  0  0  0  0  0  0  0  0
   -0.3216   42.0053   -6.2587 O   0  0  0  0  0  0  0  0  0  0  0  0
   -0.3164   44.1691   -5.1125 C   0  0  0  0  0  0  0  0  0  0  0  0
    0.9776   44.4384   -5.7914 C   0  0  0  0  0  0  0  0  0  0  0  0
    1.1325   44.1370   -6.9685 O   0  0  0  0  0  0  0  0  0  0  0  0
    1.9560   44.8127   -4.9257 O   0  0  0  0  0  0  0  0  0  0  0  0
   -4.3401   43.5298   -2.7429 H   0  0  0  0  0  0  0  0  0  0  0  0
   -0.7349   41.1776   -6.4070 H   0  0  0  0  0  0  0  0  0  0  0  0
  2  1  1  0
  2  3  1  0
  4  3  1  0
  4  5  1  0
  6  5  1  0
  6  7  1  0
  7  8  2  0
  8  9  1  0
  9 10  2  0
 10 11  1  0
 11 12  2  0
 11 13  1  0
 13 14  1  0
 14 15  2  0
 15 16  1  0
 15 17  1  0
 17 18  1  0
 17 19  2  0
 19 20  1  0
 20 21  1  0
 20 22  2  0
 22 23  1  0
 23 24  2  0
 23 25  1  0
 25  2  1  0
  6  4  1  0
 22 14  1  0
 18 26  1  0
 21 27  1  0
M  END
> <minimizedAffinity>
-5.40967

> <CNNscore>
0.2720378637

> <CNNaffinity>
4.3368854523

> <CNN_VS>
1.1797970533

> <CNNaffinity_variance>
0.0883095041

$$$$



 27 29  0  0  0  0  0  0  0  0999 V2000
    2.8956   52.7551   -8.1223 C   0  0  0  0  0  0  0  0  0  0  0  0
    1.6873   51.9737   -8.6351 C   0  0  0  0  0  0  0  0  0  0  0  0
    0.4759   52.9165   -8.8051 C   0  0  0  0  0  0  0  0  0  0  0  0
   -0.6527   52.3108   -9.6081 C   0  0  0  0  0  0  0  0  0  0  0  0
   -0.6458   50.8861   -9.5930 O   0  0  0  0  0  0  0  0  0  0  0  0
   -1.7240   51.5347   -8.8945 C   0  0  0  0  0  0  0  0  0  0  0  0
   -3.0879   51.2588   -9.3668 C   0  0  0  0  0  0  0  0  0  0  0  0
   -3.7687   50.1434   -9.0276 C   0  0  0  0  0  0  0  0  0  0  0  0
   -3.1580   49.1514   -8.1612 C   0  0  0  0  0  0  0  0  0  0  0  0
   -2.1115   48.4163   -8.5685 C   0  0  0  0  0  0  0  0  0  0  0  0
   -1.1503   47.8496   -7.5865 C   0  0  0  0  0  0  0  0  0  0  0  0
   -0.7874   46.6828   -7.7012 O   0  0  0  0  0  0  0  0  0  0  0  0
   -0.6018   48.8165   -6.5403 C   0  0  0  0  0  0  0  0  0  0  0  0
    0.7742   48.4478   -6.0263 C   0  0  0  0  0  0  0  0  0  0  0  0
    0.9019   47.6038   -4.8950 C   0  0  0  0  0  0  0  0  0  0  0  0
   -0.5001   47.0600   -4.0208 Cl  0  0  0  0  0  0  0  0  0  0  0  0
    2.1651   47.1795   -4.4492 C   0  0  0  0  0  0  0  0  0  0  0  0
    2.2697   46.3807   -3.3416 O   0  0  0  0  0  0  0  0  0  0  0  0
    3.3171   47.5525   -5.1276 C   0  0  0  0  0  0  0  0  0  0  0  0
    3.2085   48.3630   -6.2514 C   0  0  0  0  0  0  0  0  0  0  0  0
    4.3916   48.6427   -6.8899 O   0  0  0  0  0  0  0  0  0  0  0  0
    1.9596   48.8486   -6.6928 C   0  0  0  0  0  0  0  0  0  0  0  0
    2.0179   49.7499   -7.8727 C   0  0  0  0  0  0  0  0  0  0  0  0
    2.7403   49.4775   -8.8235 O   0  0  0  0  0  0  0  0  0  0  0  0
    1.3927   50.9371   -7.6568 O   0  0  0  0  0  0  0  0  0  0  0  0
    1.4989   46.1226   -2.8756 H   0  0  0  0  0  0  0  0  0  0  0  0
    5.1964   48.2964   -6.5579 H   0  0  0  0  0  0  0  0  0  0  0  0
  2  1  1  0
  2  3  1  0
  4  3  1  0
  4  5  1  0
  6  5  1  0
  6  7  1  0
  7  8  2  0
  8  9  1  0
  9 10  2  0
 10 11  1  0
 11 12  2  0
 11 13  1  0
 13 14  1  0
 14 15  2  0
 15 16  1  0
 15 17  1  0
 17 18  1  0
 17 19  2  0
 19 20  1  0
 20 21  1  0
 20 22  2  0
 22 23  1  0
 23 24  2  0
 23 25  1  0
 25  2  1  0
  6  4  1  0
 22 14  1  0
 18 26  1  0
 21 27  1  0
M  END
> <minimizedAffinity>
-4.94205

> <CNNscore>
0.2444242090

> <CNNaffinity>
4.3098683357

> <CNN_VS>
1.0534361601

> <CNNaffinity_variance>
0.1337884814

$$$$



 27 29  0  0  0  0  0  0  0  0999 V2000
   -2.2208   49.6793   -9.4778 C   0  0  0  0  0  0  0  0  0  0  0  0
   -2.2188   48.5531   -8.4456 C   0  0  0  0  0  0  0  0  0  0  0  0
   -3.6613   48.2496   -7.9850 C   0  0  0  0  0  0  0  0  0  0  0  0
   -3.7914   46.9497   -7.2243 C   0  0  0  0  0  0  0  0  0  0  0  0
   -2.5714   46.5345   -6.6167 O   0  0  0  0  0  0  0  0  0  0  0  0
   -3.6241   46.9561   -5.7306 C   0  0  0  0  0  0  0  0  0  0  0  0
   -4.1301   45.9621   -4.7738 C   0  0  0  0  0  0  0  0  0  0  0  0
   -3.5023   45.6773   -3.6130 C   0  0  0  0  0  0  0  0  0  0  0  0
   -2.2712   46.3623   -3.2626 C   0  0  0  0  0  0  0  0  0  0  0  0
   -1.1375   46.1598   -3.9519 C   0  0  0  0  0  0  0  0  0  0  0  0
   -0.0791   47.2024   -4.0006 C   0  0  0  0  0  0  0  0  0  0  0  0
    1.0940   46.8797   -3.8395 O   0  0  0  0  0  0  0  0  0  0  0  0
   -0.5366   48.6159   -4.3514 C   0  0  0  0  0  0  0  0  0  0  0  0
    0.5289   49.4559   -5.0241 C   0  0  0  0  0  0  0  0  0  0  0  0
    1.4062   50.2444   -4.2383 C   0  0  0  0  0  0  0  0  0  0  0  0
    1.2178   50.3427   -2.5120 Cl  0  0  0  0  0  0  0  0  0  0  0  0
    2.4555   50.9666   -4.8316 C   0  0  0  0  0  0  0  0  0  0  0  0
    3.2803   51.7394   -4.0581 O   0  0  0  0  0  0  0  0  0  0  0  0
    2.6764   50.8985   -6.2002 C   0  0  0  0  0  0  0  0  0  0  0  0
    1.8382   50.1135   -6.9830 C   0  0  0  0  0  0  0  0  0  0  0  0
    2.1581   50.0637   -8.3175 O   0  0  0  0  0  0  0  0  0  0  0  0
    0.7444   49.4189   -6.4249 C   0  0  0  0  0  0  0  0  0  0  0  0
   -0.0898   48.6724   -7.4021 C   0  0  0  0  0  0  0  0  0  0  0  0
    0.4383   48.0134   -8.2893 O   0  0  0  0  0  0  0  0  0  0  0  0
   -1.4073   48.9954   -7.3212 O   0  0  0  0  0  0  0  0  0  0  0  0
    3.1407   51.7929   -3.1331 H   0  0  0  0  0  0  0  0  0  0  0  0
    2.8952   50.5433   -8.6408 H   0  0  0  0  0  0  0  0  0  0  0  0
  2  1  1  0
  2  3  1  0
  4  3  1  0
  4  5  1  0
  6  5  1  0
  6  7  1  0
  7  8  2  0
  8  9  1  0
  9 10  2  0
 10 11  1  0
 11 12  2  0
 11 13  1  0
 13 14  1  0
 14 15  2  0
 15 16  1  0
 15 17  1  0
 17 18  1  0
 17 19  2  0
 19 20  1  0
 20 21  1  0
 20 22  2  0
 22 23  1  0
 23 24  2  0
 23 25  1  0
 25  2  1  0
  6  4  1  0
 22 14  1  0
 18 26  1  0
 21 27  1  0
M  END
> <minimizedAffinity>
-5.27627

> <CNNscore>
0.2411275804

> <CNNaffinity>
3.7969214916

> <CNN_VS>
0.9155424833

> <CNNaffinity_variance>
0.5789289474

$$$$



 27 29  0  0  0  0  0  0  0  0999 V2000
    3.0989   48.5196   -6.4790 C   0  0  0  0  0  0  0  0  0  0  0  0
    1.9795   49.0886   -7.3490 C   0  0  0  0  0  0  0  0  0  0  0  0
    2.1711   48.6509   -8.8177 C   0  0  0  0  0  0  0  0  0  0  0  0
    0.9530   48.8858   -9.6816 C   0  0  0  0  0  0  0  0  0  0  0  0
    0.0991   49.9081   -9.1756 O   0  0  0  0  0  0  0  0  0  0  0  0
    0.8047   50.2003  -10.3954 C   0  0  0  0  0  0  0  0  0  0  0  0
   -0.0086   50.4793  -11.5872 C   0  0  0  0  0  0  0  0  0  0  0  0
   -0.5688   51.6843  -11.8257 C   0  0  0  0  0  0  0  0  0  0  0  0
   -0.3818   52.7744  -10.8853 C   0  0  0  0  0  0  0  0  0  0  0  0
   -0.9236   52.7400   -9.6577 C   0  0  0  0  0  0  0  0  0  0  0  0
   -0.3164   53.5024   -8.5355 C   0  0  0  0  0  0  0  0  0  0  0  0
   -1.0387   54.1568   -7.7897 O   0  0  0  0  0  0  0  0  0  0  0  0
    1.1873   53.3308   -8.3354 C   0  0  0  0  0  0  0  0  0  0  0  0
    1.6426   53.5340   -6.9054 C   0  0  0  0  0  0  0  0  0  0  0  0
    2.0222   54.8257   -6.4628 C   0  0  0  0  0  0  0  0  0  0  0  0
    2.0694   56.1714   -7.5637 Cl  0  0  0  0  0  0  0  0  0  0  0  0
    2.3680   55.0567   -5.1205 C   0  0  0  0  0  0  0  0  0  0  0  0
    2.7522   56.3075   -4.7159 O   0  0  0  0  0  0  0  0  0  0  0  0
    2.3149   54.0290   -4.1890 C   0  0  0  0  0  0  0  0  0  0  0  0
    1.9246   52.7606   -4.6019 C   0  0  0  0  0  0  0  0  0  0  0  0
    1.8517   51.8163   -3.6076 O   0  0  0  0  0  0  0  0  0  0  0  0
    1.6224   52.4848   -5.9520 C   0  0  0  0  0  0  0  0  0  0  0  0
    1.2792   51.0684   -6.2418 C   0  0  0  0  0  0  0  0  0  0  0  0
    0.5354   50.4470   -5.4930 O   0  0  0  0  0  0  0  0  0  0  0  0
    2.0369   50.5387   -7.2379 O   0  0  0  0  0  0  0  0  0  0  0  0
    2.7917   57.0089   -5.3359 H   0  0  0  0  0  0  0  0  0  0  0  0
    2.0627   52.0484   -2.7247 H   0  0  0  0  0  0  0  0  0  0  0  0
  2  1  1  0
  2  3  1  0
  4  3  1  0
  4  5  1  0
  6  5  1  0
  6  7  1  0
  7  8  2  0
  8  9  1  0
  9 10  2  0
 10 11  1  0
 11 12  2  0
 11 13  1  0
 13 14  1  0
 14 15  2  0
 15 16  1  0
 15 17  1  0
 17 18  1  0
 17 19  2  0
 19 20  1  0
 20 21  1  0
 20 22  2  0
 22 23  1  0
 23 24  2  0
 23 25  1  0
 25  2  1  0
  6  4  1  0
 22 14  1  0
 18 26  1  0
 21 27  1  0
M  END
> <minimizedAffinity>
-6.12295

> <CNNscore>
0.2281078249

> <CNNaffinity>
4.2014260292

> <CNN_VS>
0.9583781362

> <CNNaffinity_variance>
0.5710461736

$$$$
