


 31 32  0  0  0  0  0  0  0  0999 V2000
   22.4120    0.5898   38.7521 C   0  0  0  0  0  0  0  0  0  0  0  0
   23.8256    1.1122   38.4979 C   0  0  0  0  0  0  0  0  0  0  0  0
   24.0502    2.0606   37.7373 O   0  0  0  0  0  0  0  0  0  0  0  0
   24.9732    0.4663   39.2658 C   0  0  0  0  0  0  0  0  0  0  0  0
   26.0626    1.3857   39.4126 O   0  0  0  0  0  0  0  0  0  0  0  0
   24.4812    0.0894   40.6602 C   0  0  0  0  0  0  0  0  0  0  0  0
   25.5519   -0.4761   41.4237 O   0  0  0  0  0  0  0  0  0  0  0  0
   23.3064   -0.8966   40.6409 C   0  0  0  0  0  0  0  0  0  0  0  0
   22.4780   -0.8569   39.3372 C   0  0  0  0  0  0  0  0  0  0  0  0
   23.1664   -1.6309   38.3489 O   0  0  0  0  0  0  0  0  0  0  0  0
   25.7621    2.1674   39.9020 H   0  0  0  0  0  0  0  0  0  0  0  0
   25.8536   -1.2950   41.0003 H   0  0  0  0  0  0  0  0  0  0  0  0
   23.2423   -2.5491   38.6525 H   0  0  0  0  0  0  0  0  0  0  0  0
   21.6732    1.6113   39.6413 C   0  0  0  0  0  0  0  0  0  0  0  0
   17.6999    2.4913   38.1570 C   0  0  0  0  0  0  0  0  0  0  0  0
   17.9345    2.3688   39.5302 C   0  0  0  0  0  0  0  0  0  0  0  0
   19.2152    2.0869   40.0156 C   0  0  0  0  0  0  0  0  0  0  0  0
   20.2859    1.9244   39.1278 C   0  0  0  0  0  0  0  0  0  0  0  0
   20.0453    2.0375   37.7516 C   0  0  0  0  0  0  0  0  0  0  0  0
   18.7616    2.3200   37.2686 C   0  0  0  0  0  0  0  0  0  0  0  0
   16.0035    2.4448   36.4922 C   0  0  0  0  0  0  0  0  0  0  0  0
   16.4042    2.7734   37.8182 O   0  0  0  0  0  0  0  0  0  0  0  0
   21.0316   -1.4248   39.5165 C   0  0  0  0  0  0  0  0  0  0  0  0
   20.4381   -1.8566   40.9150 C   0  0  0  0  0  0  0  0  0  0  0  0
   20.8079   -0.7113   41.8836 C   0  0  0  0  0  0  0  0  0  0  0  0
   18.8967   -1.9084   40.8391 C   0  0  0  0  0  0  0  0  0  0  0  0
   21.0478   -3.2197   41.3640 C   0  0  0  0  0  0  0  0  0  0  0  0
   20.7175   -3.9201   42.7222 C   0  0  0  0  0  0  0  0  0  0  0  0
   19.6445   -4.9989   42.4170 C   0  0  0  0  0  0  0  0  0  0  0  0
   20.1340   -2.9716   43.7769 C   0  0  0  0  0  0  0  0  0  0  0  0
   21.9304   -4.6613   43.3125 C   0  0  0  0  0  0  0  0  0  0  0  0
 21 22  1  0
 22 15  1  0
 15 16  2  0
 16 17  1  0
 17 18  2  0
 18 14  1  0
  1 14  1  0
  1  2  1  0
  2  3  2  0
  2  4  1  0
  4  5  1  0
  4  6  1  0
  6  7  1  0
  6  8  1  0
  8  9  1  0
  9 10  1  0
  9 23  1  0
 23 24  1  0
 24 25  1  0
 24 26  1  0
 24 27  1  0
 27 28  1  0
 28 29  1  0
 28 30  1  0
 28 31  1  0
 18 19  1  0
 19 20  2  0
 20 15  1  0
  9  1  1  0
  5 11  1  0
  7 12  1  0
 10 13  1  0
M  END
> <minimizedAffinity>
-5.80103

> <CNNscore>
0.3209786117

> <CNNaffinity>
5.2673516273

> <CNN_VS>
1.6907072067

> <CNNaffinity_variance>
0.0015765922

$$$$



 31 32  0  0  0  0  0  0  0  0999 V2000
   13.2881    3.4720   39.4212 C   0  0  0  0  0  0  0  0  0  0  0  0
   11.8208    3.7711   39.7270 C   0  0  0  0  0  0  0  0  0  0  0  0
   11.1436    4.5307   39.0251 O   0  0  0  0  0  0  0  0  0  0  0  0
   11.1768    3.0498   40.9055 C   0  0  0  0  0  0  0  0  0  0  0  0
    9.7615    2.9332   40.7132 O   0  0  0  0  0  0  0  0  0  0  0  0
   11.7590    1.6424   40.9982 C   0  0  0  0  0  0  0  0  0  0  0  0
   11.1372    0.9220   42.0676 O   0  0  0  0  0  0  0  0  0  0  0  0
   13.2789    1.6291   41.2046 C   0  0  0  0  0  0  0  0  0  0  0  0
   13.9903    2.9025   40.6948 C   0  0  0  0  0  0  0  0  0  0  0  0
   13.8467    3.9212   41.6905 O   0  0  0  0  0  0  0  0  0  0  0  0
    9.5857    2.4267   39.9049 H   0  0  0  0  0  0  0  0  0  0  0  0
   11.3301    1.3630   42.9097 H   0  0  0  0  0  0  0  0  0  0  0  0
   14.2653    3.6286   42.5151 H   0  0  0  0  0  0  0  0  0  0  0  0
   13.3447    2.5484   38.1869 C   0  0  0  0  0  0  0  0  0  0  0  0
   17.0593    2.9650   35.9975 C   0  0  0  0  0  0  0  0  0  0  0  0
   16.0354    2.1462   35.5106 C   0  0  0  0  0  0  0  0  0  0  0  0
   14.8334    2.0092   36.2117 C   0  0  0  0  0  0  0  0  0  0  0  0
   14.6374    2.6955   37.4165 C   0  0  0  0  0  0  0  0  0  0  0  0
   15.6696    3.5073   37.9069 C   0  0  0  0  0  0  0  0  0  0  0  0
   16.8723    3.6424   37.2024 C   0  0  0  0  0  0  0  0  0  0  0  0
   19.2181    2.0907   35.5213 C   0  0  0  0  0  0  0  0  0  0  0  0
   18.1791    3.0135   35.2121 O   0  0  0  0  0  0  0  0  0  0  0  0
   15.5115    2.6775   40.4081 C   0  0  0  0  0  0  0  0  0  0  0  0
   16.6407    2.9192   41.4855 C   0  0  0  0  0  0  0  0  0  0  0  0
   16.5642    1.7018   42.4335 C   0  0  0  0  0  0  0  0  0  0  0  0
   18.0288    2.8833   40.8100 C   0  0  0  0  0  0  0  0  0  0  0  0
   16.3914    4.2614   42.2389 C   0  0  0  0  0  0  0  0  0  0  0  0
   16.7887    4.5141   43.7297 C   0  0  0  0  0  0  0  0  0  0  0  0
   16.7427    6.0499   43.9482 C   0  0  0  0  0  0  0  0  0  0  0  0
   18.2050    4.0389   44.0773 C   0  0  0  0  0  0  0  0  0  0  0  0
   15.7830    3.8991   44.7193 C   0  0  0  0  0  0  0  0  0  0  0  0
 21 22  1  0
 22 15  1  0
 15 16  2  0
 16 17  1  0
 17 18  2  0
 18 14  1  0
  1 14  1  0
  1  2  1  0
  2  3  2  0
  2  4  1  0
  4  5  1  0
  4  6  1  0
  6  7  1  0
  6  8  1  0
  8  9  1  0
  9 10  1  0
  9 23  1  0
 23 24  1  0
 24 25  1  0
 24 26  1  0
 24 27  1  0
 27 28  1  0
 28 29  1  0
 28 30  1  0
 28 31  1  0
 18 19  1  0
 19 20  2  0
 20 15  1  0
  9  1  1  0
  5 11  1  0
  7 12  1  0
 10 13  1  0
M  END
> <minimizedAffinity>
-7.49519

> <CNNscore>
0.2898337841

> <CNNaffinity>
5.2472577095

> <CNN_VS>
1.5208325386

> <CNNaffinity_variance>
0.8855792880

$$$$



 31 32  0  0  0  0  0  0  0  0999 V2000
   13.2484    3.4711   39.3755 C   0  0  0  0  0  0  0  0  0  0  0  0
   11.7896    3.7296   39.7507 C   0  0  0  0  0  0  0  0  0  0  0  0
   11.0785    4.5218   39.1222 O   0  0  0  0  0  0  0  0  0  0  0  0
   11.1970    2.9269   40.9033 C   0  0  0  0  0  0  0  0  0  0  0  0
    9.7773    2.8024   40.7538 O   0  0  0  0  0  0  0  0  0  0  0  0
   11.7991    1.5249   40.8868 C   0  0  0  0  0  0  0  0  0  0  0  0
   11.2248    0.7302   41.9297 O   0  0  0  0  0  0  0  0  0  0  0  0
   13.3255    1.5204   41.0384 C   0  0  0  0  0  0  0  0  0  0  0  0
   14.0027    2.8332   40.5853 C   0  0  0  0  0  0  0  0  0  0  0  0
   13.8826    3.7855   41.6476 O   0  0  0  0  0  0  0  0  0  0  0  0
    9.5787    2.3449   39.9218 H   0  0  0  0  0  0  0  0  0  0  0  0
   11.4425    1.1204   42.7907 H   0  0  0  0  0  0  0  0  0  0  0  0
   14.3341    3.4480   42.4370 H   0  0  0  0  0  0  0  0  0  0  0  0
   13.2719    2.6274   38.0842 C   0  0  0  0  0  0  0  0  0  0  0  0
   17.0402    2.9677   35.9749 C   0  0  0  0  0  0  0  0  0  0  0  0
   16.0317    2.1250   35.4967 C   0  0  0  0  0  0  0  0  0  0  0  0
   14.8124    2.0124   36.1720 C   0  0  0  0  0  0  0  0  0  0  0  0
   14.5835    2.7477   37.3416 C   0  0  0  0  0  0  0  0  0  0  0  0
   15.6002    3.5834   37.8238 C   0  0  0  0  0  0  0  0  0  0  0  0
   16.8202    3.6940   37.1453 C   0  0  0  0  0  0  0  0  0  0  0  0
   19.2153    2.0872   35.5944 C   0  0  0  0  0  0  0  0  0  0  0  0
   18.1796    2.9880   35.2170 O   0  0  0  0  0  0  0  0  0  0  0  0
   15.5152    2.6483   40.2318 C   0  0  0  0  0  0  0  0  0  0  0  0
   16.6830    2.9013   41.2646 C   0  0  0  0  0  0  0  0  0  0  0  0
   16.4604    4.3390   41.7844 C   0  0  0  0  0  0  0  0  0  0  0  0
   16.5315    1.9520   42.4730 C   0  0  0  0  0  0  0  0  0  0  0  0
   18.0677    2.7418   40.5656 C   0  0  0  0  0  0  0  0  0  0  0  0
   19.3652    2.2631   41.2947 C   0  0  0  0  0  0  0  0  0  0  0  0
   19.5421    3.1788   42.5350 C   0  0  0  0  0  0  0  0  0  0  0  0
   20.6327    2.3901   40.4403 C   0  0  0  0  0  0  0  0  0  0  0  0
   19.2451    0.8231   41.8250 C   0  0  0  0  0  0  0  0  0  0  0  0
 21 22  1  0
 22 15  1  0
 15 16  2  0
 16 17  1  0
 17 18  2  0
 18 14  1  0
  1 14  1  0
  1  2  1  0
  2  3  2  0
  2  4  1  0
  4  5  1  0
  4  6  1  0
  6  7  1  0
  6  8  1  0
  8  9  1  0
  9 10  1  0
  9 23  1  0
 23 24  1  0
 24 25  1  0
 24 26  1  0
 24 27  1  0
 27 28  1  0
 28 29  1  0
 28 30  1  0
 28 31  1  0
 18 19  1  0
 19 20  2  0
 20 15  1  0
  9  1  1  0
  5 11  1  0
  7 12  1  0
 10 13  1  0
M  END
> <minimizedAffinity>
-7.62091

> <CNNscore>
0.2882070243

> <CNNaffinity>
5.0229663849

> <CNN_VS>
1.4476542473

> <CNNaffinity_variance>
0.9065740705

$$$$



 31 32  0  0  0  0  0  0  0  0999 V2000
   21.5528    0.5273   39.2400 C   0  0  0  0  0  0  0  0  0  0  0  0
   21.9463   -0.8897   38.8238 C   0  0  0  0  0  0  0  0  0  0  0  0
   21.1850   -1.6229   38.1826 O   0  0  0  0  0  0  0  0  0  0  0  0
   23.3513   -1.3699   39.1691 C   0  0  0  0  0  0  0  0  0  0  0  0
   23.7803   -2.3793   38.2468 O   0  0  0  0  0  0  0  0  0  0  0  0
   24.3141   -0.1910   39.0616 C   0  0  0  0  0  0  0  0  0  0  0  0
   25.6520   -0.6218   39.3330 O   0  0  0  0  0  0  0  0  0  0  0  0
   23.9610    0.9661   40.0046 C   0  0  0  0  0  0  0  0  0  0  0  0
   22.4701    1.0115   40.4077 C   0  0  0  0  0  0  0  0  0  0  0  0
   22.2655    0.0660   41.4632 O   0  0  0  0  0  0  0  0  0  0  0  0
   23.7887   -2.0138   37.3483 H   0  0  0  0  0  0  0  0  0  0  0  0
   25.7076   -0.9491   40.2444 H   0  0  0  0  0  0  0  0  0  0  0  0
   22.8115    0.3106   42.2267 H   0  0  0  0  0  0  0  0  0  0  0  0
   21.5806    1.4236   37.9847 C   0  0  0  0  0  0  0  0  0  0  0  0
   17.6155    2.6643   36.7583 C   0  0  0  0  0  0  0  0  0  0  0  0
   17.9826    2.6900   38.1074 C   0  0  0  0  0  0  0  0  0  0  0  0
   19.2616    2.2927   38.5094 C   0  0  0  0  0  0  0  0  0  0  0  0
   20.1974    1.8631   37.5604 C   0  0  0  0  0  0  0  0  0  0  0  0
   19.8229    1.8287   36.2101 C   0  0  0  0  0  0  0  0  0  0  0  0
   18.5412    2.2273   35.8107 C   0  0  0  0  0  0  0  0  0  0  0  0
   15.4851    2.1618   35.8307 C   0  0  0  0  0  0  0  0  0  0  0  0
   16.3380    3.0830   36.5021 O   0  0  0  0  0  0  0  0  0  0  0  0
   22.0125    2.4267   40.8920 C   0  0  0  0  0  0  0  0  0  0  0  0
   21.3779    2.6920   42.3138 C   0  0  0  0  0  0  0  0  0  0  0  0
   19.8745    2.3748   42.1526 C   0  0  0  0  0  0  0  0  0  0  0  0
   21.9472    1.6881   43.3397 C   0  0  0  0  0  0  0  0  0  0  0  0
   21.6188    4.1705   42.7466 C   0  0  0  0  0  0  0  0  0  0  0  0
   23.0341    4.7990   42.9617 C   0  0  0  0  0  0  0  0  0  0  0  0
   23.6568    4.0831   44.1897 C   0  0  0  0  0  0  0  0  0  0  0  0
   22.9991    6.3011   43.2696 C   0  0  0  0  0  0  0  0  0  0  0  0
   23.9799    4.5395   41.7754 C   0  0  0  0  0  0  0  0  0  0  0  0
 21 22  1  0
 22 15  1  0
 15 16  2  0
 16 17  1  0
 17 18  2  0
 18 14  1  0
  1 14  1  0
  1  2  1  0
  2  3  2  0
  2  4  1  0
  4  5  1  0
  4  6  1  0
  6  7  1  0
  6  8  1  0
  8  9  1  0
  9 10  1  0
  9 23  1  0
 23 24  1  0
 24 25  1  0
 24 26  1  0
 24 27  1  0
 27 28  1  0
 28 29  1  0
 28 30  1  0
 28 31  1  0
 18 19  1  0
 19 20  2  0
 20 15  1  0
  9  1  1  0
  5 11  1  0
  7 12  1  0
 10 13  1  0
M  END
> <minimizedAffinity>
-5.72943

> <CNNscore>
0.2402559817

> <CNNaffinity>
5.0906276703

> <CNN_VS>
1.2230536938

> <CNNaffinity_variance>
0.0932757780

$$$$



 31 32  0  0  0  0  0  0  0  0999 V2000
   21.6663    0.4235   39.3447 C   0  0  0  0  0  0  0  0  0  0  0  0
   22.0366   -0.9707   38.8398 C   0  0  0  0  0  0  0  0  0  0  0  0
   21.2661   -1.6470   38.1491 O   0  0  0  0  0  0  0  0  0  0  0  0
   23.4307   -1.4978   39.1602 C   0  0  0  0  0  0  0  0  0  0  0  0
   23.8469   -2.4534   38.1768 O   0  0  0  0  0  0  0  0  0  0  0  0
   24.4152   -0.3323   39.1336 C   0  0  0  0  0  0  0  0  0  0  0  0
   25.7434   -0.8042   39.3831 O   0  0  0  0  0  0  0  0  0  0  0  0
   24.0774    0.7679   40.1476 C   0  0  0  0  0  0  0  0  0  0  0  0
   22.5851    0.8146   40.5456 C   0  0  0  0  0  0  0  0  0  0  0  0
   22.3573   -0.1929   41.5369 O   0  0  0  0  0  0  0  0  0  0  0  0
   23.8673   -2.0310   37.3038 H   0  0  0  0  0  0  0  0  0  0  0  0
   25.7877   -1.1905   40.2718 H   0  0  0  0  0  0  0  0  0  0  0  0
   22.9029   -0.0081   42.3172 H   0  0  0  0  0  0  0  0  0  0  0  0
   21.7176    1.3982   38.1500 C   0  0  0  0  0  0  0  0  0  0  0  0
   17.7700    2.6295   36.8596 C   0  0  0  0  0  0  0  0  0  0  0  0
   18.1222    2.6761   38.2122 C   0  0  0  0  0  0  0  0  0  0  0  0
   19.3955    2.2819   38.6347 C   0  0  0  0  0  0  0  0  0  0  0  0
   20.3406    1.8345   37.7033 C   0  0  0  0  0  0  0  0  0  0  0  0
   19.9809    1.7792   36.3496 C   0  0  0  0  0  0  0  0  0  0  0  0
   18.7049    2.1747   35.9296 C   0  0  0  0  0  0  0  0  0  0  0  0
   15.6529    2.1228   35.9043 C   0  0  0  0  0  0  0  0  0  0  0  0
   16.4966    3.0475   36.5824 O   0  0  0  0  0  0  0  0  0  0  0  0
   22.1501    2.2039   41.1180 C   0  0  0  0  0  0  0  0  0  0  0  0
   21.3828    2.3741   42.4879 C   0  0  0  0  0  0  0  0  0  0  0  0
   21.2084    3.8985   42.6684 C   0  0  0  0  0  0  0  0  0  0  0  0
   19.9684    1.7642   42.3781 C   0  0  0  0  0  0  0  0  0  0  0  0
   22.2047    1.7395   43.6511 C   0  0  0  0  0  0  0  0  0  0  0  0
   21.6160    1.4168   45.0631 C   0  0  0  0  0  0  0  0  0  0  0  0
   21.5297    2.7645   45.8276 C   0  0  0  0  0  0  0  0  0  0  0  0
   22.4918    0.4691   45.8921 C   0  0  0  0  0  0  0  0  0  0  0  0
   20.1828    0.8603   44.9902 C   0  0  0  0  0  0  0  0  0  0  0  0
 21 22  1  0
 22 15  1  0
 15 16  2  0
 16 17  1  0
 17 18  2  0
 18 14  1  0
  1 14  1  0
  1  2  1  0
  2  3  2  0
  2  4  1  0
  4  5  1  0
  4  6  1  0
  6  7  1  0
  6  8  1  0
  8  9  1  0
  9 10  1  0
  9 23  1  0
 23 24  1  0
 24 25  1  0
 24 26  1  0
 24 27  1  0
 27 28  1  0
 28 29  1  0
 28 30  1  0
 28 31  1  0
 18 19  1  0
 19 20  2  0
 20 15  1  0
  9  1  1  0
  5 11  1  0
  7 12  1  0
 10 13  1  0
M  END
> <minimizedAffinity>
-5.37168

> <CNNscore>
0.2373563945

> <CNNaffinity>
4.9375786781

> <CNN_VS>
1.1719658375

> <CNNaffinity_variance>
0.1709311604

$$$$



 31 32  0  0  0  0  0  0  0  0999 V2000
   21.6219    0.6815   39.2752 C   0  0  0  0  0  0  0  0  0  0  0  0
   21.9727   -0.7464   38.8582 C   0  0  0  0  0  0  0  0  0  0  0  0
   21.1963   -1.4503   38.2024 O   0  0  0  0  0  0  0  0  0  0  0  0
   23.3551   -1.2761   39.2219 C   0  0  0  0  0  0  0  0  0  0  0  0
   23.7629   -2.2957   38.3012 O   0  0  0  0  0  0  0  0  0  0  0  0
   24.3593   -0.1305   39.1342 C   0  0  0  0  0  0  0  0  0  0  0  0
   25.6774   -0.6082   39.4233 O   0  0  0  0  0  0  0  0  0  0  0  0
   24.0321    1.0341   40.0774 C   0  0  0  0  0  0  0  0  0  0  0  0
   22.5378    1.1290   40.4586 C   0  0  0  0  0  0  0  0  0  0  0  0
   22.2852    0.1867   41.5065 O   0  0  0  0  0  0  0  0  0  0  0  0
   23.7972   -1.9269   37.4047 H   0  0  0  0  0  0  0  0  0  0  0  0
   25.7082   -0.9411   40.3339 H   0  0  0  0  0  0  0  0  0  0  0  0
   22.8277    0.4092   42.2791 H   0  0  0  0  0  0  0  0  0  0  0  0
   21.6991    1.5817   38.0248 C   0  0  0  0  0  0  0  0  0  0  0  0
   17.8065    2.2764   36.2555 C   0  0  0  0  0  0  0  0  0  0  0  0
   18.0198    2.5095   37.6178 C   0  0  0  0  0  0  0  0  0  0  0  0
   19.2745    2.2890   38.1944 C   0  0  0  0  0  0  0  0  0  0  0  0
   20.3403    1.8311   37.4101 C   0  0  0  0  0  0  0  0  0  0  0  0
   20.1206    1.5886   36.0471 C   0  0  0  0  0  0  0  0  0  0  0  0
   18.8629    1.8104   35.4726 C   0  0  0  0  0  0  0  0  0  0  0  0
   15.5134    2.5685   36.8103 C   0  0  0  0  0  0  0  0  0  0  0  0
   16.5356    2.5369   35.8198 O   0  0  0  0  0  0  0  0  0  0  0  0
   22.1218    2.5571   40.9428 C   0  0  0  0  0  0  0  0  0  0  0  0
   21.0502    2.8094   42.0754 C   0  0  0  0  0  0  0  0  0  0  0  0
   21.2027    1.6205   43.0501 C   0  0  0  0  0  0  0  0  0  0  0  0
   21.4064    4.0902   42.8608 C   0  0  0  0  0  0  0  0  0  0  0  0
   19.6191    2.8793   41.4604 C   0  0  0  0  0  0  0  0  0  0  0  0
   18.4293    1.9697   41.9091 C   0  0  0  0  0  0  0  0  0  0  0  0
   18.7403    0.5413   41.3883 C   0  0  0  0  0  0  0  0  0  0  0  0
   17.0769    2.3927   41.3219 C   0  0  0  0  0  0  0  0  0  0  0  0
   18.3141    1.8639   43.4403 C   0  0  0  0  0  0  0  0  0  0  0  0
 21 22  1  0
 22 15  1  0
 15 16  2  0
 16 17  1  0
 17 18  2  0
 18 14  1  0
  1 14  1  0
  1  2  1  0
  2  3  2  0
  2  4  1  0
  4  5  1  0
  4  6  1  0
  6  7  1  0
  6  8  1  0
  8  9  1  0
  9 10  1  0
  9 23  1  0
 23 24  1  0
 24 25  1  0
 24 26  1  0
 24 27  1  0
 27 28  1  0
 28 29  1  0
 28 30  1  0
 28 31  1  0
 18 19  1  0
 19 20  2  0
 20 15  1  0
  9  1  1  0
  5 11  1  0
  7 12  1  0
 10 13  1  0
M  END
> <minimizedAffinity>
-6.55321

> <CNNscore>
0.2107741833

> <CNNaffinity>
4.8464713097

> <CNN_VS>
1.0215110779

> <CNNaffinity_variance>
0.3262202442

$$$$



 31 32  0  0  0  0  0  0  0  0999 V2000
   20.1165    1.1376   38.3754 C   0  0  0  0  0  0  0  0  0  0  0  0
   21.4296    1.1535   37.5936 C   0  0  0  0  0  0  0  0  0  0  0  0
   21.4606    1.2275   36.3600 O   0  0  0  0  0  0  0  0  0  0  0  0
   22.7316    1.1384   38.3865 C   0  0  0  0  0  0  0  0  0  0  0  0
   23.7868    1.7510   37.6352 O   0  0  0  0  0  0  0  0  0  0  0  0
   22.5356    1.9419   39.6688 C   0  0  0  0  0  0  0  0  0  0  0  0
   23.7577    1.9872   40.4129 O   0  0  0  0  0  0  0  0  0  0  0  0
   21.4242    1.3853   40.5675 C   0  0  0  0  0  0  0  0  0  0  0  0
   20.3584    0.5640   39.8079 C   0  0  0  0  0  0  0  0  0  0  0  0
   20.8763   -0.7548   39.6021 O   0  0  0  0  0  0  0  0  0  0  0  0
   23.5524    2.6718   37.4401 H   0  0  0  0  0  0  0  0  0  0  0  0
   24.0079    1.0885   40.6787 H   0  0  0  0  0  0  0  0  0  0  0  0
   21.0501   -1.1715   40.4606 H   0  0  0  0  0  0  0  0  0  0  0  0
   19.5190    2.5595   38.3432 C   0  0  0  0  0  0  0  0  0  0  0  0
   15.4367    2.5806   36.8943 C   0  0  0  0  0  0  0  0  0  0  0  0
   15.7114    2.7992   38.2479 C   0  0  0  0  0  0  0  0  0  0  0  0
   17.0271    2.7956   38.7214 C   0  0  0  0  0  0  0  0  0  0  0  0
   18.0929    2.5736   37.8407 C   0  0  0  0  0  0  0  0  0  0  0  0
   17.8135    2.3445   36.4863 C   0  0  0  0  0  0  0  0  0  0  0  0
   16.4947    2.3487   36.0153 C   0  0  0  0  0  0  0  0  0  0  0  0
   13.2613    3.3936   37.4026 C   0  0  0  0  0  0  0  0  0  0  0  0
   14.1089    2.6153   36.5643 O   0  0  0  0  0  0  0  0  0  0  0  0
   19.0006    0.4665   40.5784 C   0  0  0  0  0  0  0  0  0  0  0  0
   18.8366   -0.2983   41.9505 C   0  0  0  0  0  0  0  0  0  0  0  0
   20.2607   -0.3763   42.5441 C   0  0  0  0  0  0  0  0  0  0  0  0
   17.9834    0.5439   42.9237 C   0  0  0  0  0  0  0  0  0  0  0  0
   18.2261   -1.7131   41.7117 C   0  0  0  0  0  0  0  0  0  0  0  0
   18.8663   -3.0409   42.2329 C   0  0  0  0  0  0  0  0  0  0  0  0
   19.3047   -2.7782   43.6982 C   0  0  0  0  0  0  0  0  0  0  0  0
   20.1108   -3.4728   41.4473 C   0  0  0  0  0  0  0  0  0  0  0  0
   17.8578   -4.2028   42.2774 C   0  0  0  0  0  0  0  0  0  0  0  0
 21 22  1  0
 22 15  1  0
 15 16  2  0
 16 17  1  0
 17 18  2  0
 18 14  1  0
  1 14  1  0
  1  2  1  0
  2  3  2  0
  2  4  1  0
  4  5  1  0
  4  6  1  0
  6  7  1  0
  6  8  1  0
  8  9  1  0
  9 10  1  0
  9 23  1  0
 23 24  1  0
 24 25  1  0
 24 26  1  0
 24 27  1  0
 27 28  1  0
 28 29  1  0
 28 30  1  0
 28 31  1  0
 18 19  1  0
 19 20  2  0
 20 15  1  0
  9  1  1  0
  5 11  1  0
  7 12  1  0
 10 13  1  0
M  END
> <minimizedAffinity>
-7.13208

> <CNNscore>
0.1804611981

> <CNNaffinity>
4.8966517448

> <CNN_VS>
0.8836556673

> <CNNaffinity_variance>
0.1714264303

$$$$



 31 32  0  0  0  0  0  0  0  0999 V2000
   18.5611    0.2662   41.4644 C   0  0  0  0  0  0  0  0  0  0  0  0
   17.3550    0.6449   42.3234 C   0  0  0  0  0  0  0  0  0  0  0  0
   16.6512   -0.2047   42.8812 O   0  0  0  0  0  0  0  0  0  0  0  0
   17.0672    2.1270   42.5343 C   0  0  0  0  0  0  0  0  0  0  0  0
   16.3659    2.3343   43.7667 O   0  0  0  0  0  0  0  0  0  0  0  0
   18.3926    2.8791   42.6120 C   0  0  0  0  0  0  0  0  0  0  0  0
   18.1560    4.2691   42.8590 O   0  0  0  0  0  0  0  0  0  0  0  0
   19.2449    2.7350   41.3449 C   0  0  0  0  0  0  0  0  0  0  0  0
   18.9420    1.4580   40.5294 C   0  0  0  0  0  0  0  0  0  0  0  0
   17.7746    1.7023   39.7374 O   0  0  0  0  0  0  0  0  0  0  0  0
   16.9080    2.0148   44.5049 H   0  0  0  0  0  0  0  0  0  0  0  0
   17.6592    4.6493   42.1177 H   0  0  0  0  0  0  0  0  0  0  0  0
   17.9450    2.4381   39.1288 H   0  0  0  0  0  0  0  0  0  0  0  0
   19.6922   -0.2041   42.4021 C   0  0  0  0  0  0  0  0  0  0  0  0
   20.2252   -4.5019   42.3028 C   0  0  0  0  0  0  0  0  0  0  0  0
   20.8582   -3.7297   43.2820 C   0  0  0  0  0  0  0  0  0  0  0  0
   20.6885   -2.3423   43.3205 C   0  0  0  0  0  0  0  0  0  0  0  0
   19.8763   -1.7046   42.3747 C   0  0  0  0  0  0  0  0  0  0  0  0
   19.2515   -2.4803   41.3883 C   0  0  0  0  0  0  0  0  0  0  0  0
   19.4235   -3.8696   41.3524 C   0  0  0  0  0  0  0  0  0  0  0  0
   21.7711   -6.2334   42.8162 C   0  0  0  0  0  0  0  0  0  0  0  0
   20.4718   -5.8457   42.3822 O   0  0  0  0  0  0  0  0  0  0  0  0
   20.1207    1.0411   39.5894 C   0  0  0  0  0  0  0  0  0  0  0  0
   20.5849    1.9016   38.3490 C   0  0  0  0  0  0  0  0  0  0  0  0
   21.2850    0.9023   37.4014 C   0  0  0  0  0  0  0  0  0  0  0  0
   19.3521    2.4520   37.5995 C   0  0  0  0  0  0  0  0  0  0  0  0
   21.5459    3.0399   38.8092 C   0  0  0  0  0  0  0  0  0  0  0  0
   22.9040    2.7940   39.5436 C   0  0  0  0  0  0  0  0  0  0  0  0
   23.8095    2.0128   38.5546 C   0  0  0  0  0  0  0  0  0  0  0  0
   22.7703    1.9482   40.8161 C   0  0  0  0  0  0  0  0  0  0  0  0
   23.6410    4.1045   39.8728 C   0  0  0  0  0  0  0  0  0  0  0  0
 21 22  1  0
 22 15  1  0
 15 16  2  0
 16 17  1  0
 17 18  2  0
 18 14  1  0
  1 14  1  0
  1  2  1  0
  2  3  2  0
  2  4  1  0
  4  5  1  0
  4  6  1  0
  6  7  1  0
  6  8  1  0
  8  9  1  0
  9 10  1  0
  9 23  1  0
 23 24  1  0
 24 25  1  0
 24 26  1  0
 24 27  1  0
 27 28  1  0
 28 29  1  0
 28 30  1  0
 28 31  1  0
 18 19  1  0
 19 20  2  0
 20 15  1  0
  9  1  1  0
  5 11  1  0
  7 12  1  0
 10 13  1  0
M  END
> <minimizedAffinity>
-5.72719

> <CNNscore>
0.1682492793

> <CNNaffinity>
3.7827460766

> <CNN_VS>
0.6364443302

> <CNNaffinity_variance>
0.7619161606

$$$$



 31 32  0  0  0  0  0  0  0  0999 V2000
   19.1047   -2.5108   42.8306 C   0  0  0  0  0  0  0  0  0  0  0  0
   18.0593   -2.0385   43.8405 C   0  0  0  0  0  0  0  0  0  0  0  0
   17.6983   -0.8583   43.9113 O   0  0  0  0  0  0  0  0  0  0  0  0
   17.4102   -3.0865   44.7374 C   0  0  0  0  0  0  0  0  0  0  0  0
   16.1068   -2.6586   45.1515 O   0  0  0  0  0  0  0  0  0  0  0  0
   17.2537   -4.3819   43.9464 C   0  0  0  0  0  0  0  0  0  0  0  0
   16.6014   -5.3723   44.7480 O   0  0  0  0  0  0  0  0  0  0  0  0
   18.5873   -4.9471   43.4415 C   0  0  0  0  0  0  0  0  0  0  0  0
   19.6969   -3.8837   43.2822 C   0  0  0  0  0  0  0  0  0  0  0  0
   20.2685   -3.6403   44.5721 O   0  0  0  0  0  0  0  0  0  0  0  0
   15.5464   -2.5275   44.3707 H   0  0  0  0  0  0  0  0  0  0  0  0
   17.1521   -5.5779   45.5196 H   0  0  0  0  0  0  0  0  0  0  0  0
   20.6576   -4.4608   44.9134 H   0  0  0  0  0  0  0  0  0  0  0  0
   18.4547   -2.5185   41.4316 C   0  0  0  0  0  0  0  0  0  0  0  0
   20.7287   -0.1997   38.5651 C   0  0  0  0  0  0  0  0  0  0  0  0
   20.4740   -1.5562   38.3396 C   0  0  0  0  0  0  0  0  0  0  0  0
   19.7389   -2.3095   39.2602 C   0  0  0  0  0  0  0  0  0  0  0  0
   19.2438   -1.7114   40.4255 C   0  0  0  0  0  0  0  0  0  0  0  0
   19.5097   -0.3541   40.6535 C   0  0  0  0  0  0  0  0  0  0  0  0
   20.2463    0.3976   39.7297 C   0  0  0  0  0  0  0  0  0  0  0  0
   20.7231    0.9395   36.4785 C   0  0  0  0  0  0  0  0  0  0  0  0
   21.4545    0.4197   37.5839 O   0  0  0  0  0  0  0  0  0  0  0  0
   20.8278   -4.3257   42.2961 C   0  0  0  0  0  0  0  0  0  0  0  0
   22.2358   -3.6143   42.2184 C   0  0  0  0  0  0  0  0  0  0  0  0
   22.0087   -2.2010   42.7996 C   0  0  0  0  0  0  0  0  0  0  0  0
   23.2398   -4.3320   43.1463 C   0  0  0  0  0  0  0  0  0  0  0  0
   22.7361   -3.5643   40.7424 C   0  0  0  0  0  0  0  0  0  0  0  0
   24.0113   -2.7885   40.2773 C   0  0  0  0  0  0  0  0  0  0  0  0
   24.3777   -3.3365   38.8724 C   0  0  0  0  0  0  0  0  0  0  0  0
   25.2264   -3.0008   41.1888 C   0  0  0  0  0  0  0  0  0  0  0  0
   23.7536   -1.2806   40.1074 C   0  0  0  0  0  0  0  0  0  0  0  0
 21 22  1  0
 22 15  1  0
 15 16  2  0
 16 17  1  0
 17 18  2  0
 18 14  1  0
  1 14  1  0
  1  2  1  0
  2  3  2  0
  2  4  1  0
  4  5  1  0
  4  6  1  0
  6  7  1  0
  6  8  1  0
  8  9  1  0
  9 10  1  0
  9 23  1  0
 23 24  1  0
 24 25  1  0
 24 26  1  0
 24 27  1  0
 27 28  1  0
 28 29  1  0
 28 30  1  0
 28 31  1  0
 18 19  1  0
 19 20  2  0
 20 15  1  0
  9  1  1  0
  5 11  1  0
  7 12  1  0
 10 13  1  0
M  END
> <minimizedAffinity>
-5.05022

> <CNNscore>
0.1560600847

> <CNNaffinity>
4.3178215027

> <CNN_VS>
0.6738395691

> <CNNaffinity_variance>
0.2151802182

$$$$
