


 32 35  0  0  0  0  0  0  0  0999 V2000
   39.7763   37.6317   31.0848 C   0  0  0  0  0  0  0  0  0  0  0  0
   39.6031   38.3546   32.2834 C   0  0  0  0  0  0  0  0  0  0  0  0
   40.4236   39.4208   32.5397 O   0  0  0  0  0  0  0  0  0  0  0  0
   38.6168   38.0241   33.2136 C   0  0  0  0  0  0  0  0  0  0  0  0
   37.7614   36.9642   32.9515 C   0  0  0  0  0  0  0  0  0  0  0  0
   36.8137   36.6916   33.9018 O   0  0  0  0  0  0  0  0  0  0  0  0
   37.8876   36.2398   31.7640 C   0  0  0  0  0  0  0  0  0  0  0  0
   36.9731   35.1279   31.4625 C   0  0  0  0  0  0  0  0  0  0  0  0
   36.1023   34.7856   32.2557 O   0  0  0  0  0  0  0  0  0  0  0  0
   37.1431   34.4423   30.1772 C   0  0  0  0  0  0  0  0  0  0  0  0
   38.1279   34.8553   29.3720 C   0  0  0  0  0  0  0  0  0  0  0  0
   39.0120   35.8734   29.6565 O   0  0  0  0  0  0  0  0  0  0  0  0
   38.8850   36.5677   30.8360 C   0  0  0  0  0  0  0  0  0  0  0  0
   41.0911   39.6565   31.9258 H   0  0  0  0  0  0  0  0  0  0  0  0
   36.7709   37.2081   34.6824 H   0  0  0  0  0  0  0  0  0  0  0  0
   43.6983   39.3813   27.2720 C   0  0  0  0  0  0  0  0  0  0  0  0
   42.7592   38.9937   28.3209 N   0  0  0  0  0  0  0  0  0  0  0  0
   42.7228   37.5294   28.4813 C   0  0  0  0  0  0  0  0  0  0  0  0
   41.4403   37.0101   29.1557 C   0  0  0  0  0  0  0  0  0  0  0  0
   40.8669   38.0718   30.1074 C   0  0  0  0  0  0  0  0  0  0  0  0
   40.4679   39.3254   29.2866 C   0  0  0  0  0  0  0  0  0  0  0  0
   39.1354   39.1938   28.7696 O   0  0  0  0  0  0  0  0  0  0  0  0
   41.4224   39.5447   28.0842 C   0  0  0  0  0  0  0  0  0  0  0  0
   39.0957   38.4341   28.1677 H   0  0  0  0  0  0  0  0  0  0  0  0
   38.3557   34.2188   28.0693 C   0  0  0  0  0  0  0  0  0  0  0  0
   38.1630   32.8320   27.9616 C   0  0  0  0  0  0  0  0  0  0  0  0
   38.3709   32.1811   26.7434 C   0  0  0  0  0  0  0  0  0  0  0  0
   38.7740   32.9124   25.6276 C   0  0  0  0  0  0  0  0  0  0  0  0
   39.0305   32.1073   24.1292 Cl  0  0  0  0  0  0  0  0  0  0  0  0
   38.9729   34.2881   25.7155 C   0  0  0  0  0  0  0  0  0  0  0  0
   38.7625   34.9405   26.9335 C   0  0  0  0  0  0  0  0  0  0  0  0
   39.0245   36.6501   26.9844 Cl  0  0  0  0  0  0  0  0  0  0  0  0
 16 17  1  0
 17 18  1  0
 18 19  1  0
 19 20  1  0
 20  1  1  0
  1  2  2  0
  2  3  1  0
  2  4  1  0
  4  5  2  0
  5  6  1  0
  5  7  1  0
  7  8  1  0
  8  9  2  0
  8 10  1  0
 10 11  2  0
 11 25  1  0
 25 26  2  0
 26 27  1  0
 27 28  2  0
 28 29  1  0
 28 30  1  0
 30 31  2  0
 31 32  1  0
 11 12  1  0
 12 13  1  0
 20 21  1  0
 21 22  1  0
 21 23  1  0
 23 17  1  0
 13  1  1  0
 13  7  2  0
 31 25  1  0
  3 14  1  0
  6 15  1  0
 22 24  1  0
M  END
> <minimizedAffinity>
-10.25417

> <CNNscore>
0.6825327873

> <CNNaffinity>
5.4186320305

> <CNN_VS>
3.6983940601

> <CNNaffinity_variance>
0.2637229860

$$$$



 32 35  0  0  0  0  0  0  0  0999 V2000
   39.2253   36.4054   26.5392 C   0  0  0  0  0  0  0  0  0  0  0  0
   39.0953   35.6686   25.3435 C   0  0  0  0  0  0  0  0  0  0  0  0
   39.6034   36.1908   24.1838 O   0  0  0  0  0  0  0  0  0  0  0  0
   38.4733   34.4201   25.3050 C   0  0  0  0  0  0  0  0  0  0  0  0
   37.9806   33.8683   26.4782 C   0  0  0  0  0  0  0  0  0  0  0  0
   37.3835   32.6402   26.3748 O   0  0  0  0  0  0  0  0  0  0  0  0
   38.1119   34.5582   27.6855 C   0  0  0  0  0  0  0  0  0  0  0  0
   37.6143   33.9752   28.9410 C   0  0  0  0  0  0  0  0  0  0  0  0
   37.0430   32.8899   28.9575 O   0  0  0  0  0  0  0  0  0  0  0  0
   37.8260   34.7422   30.1731 C   0  0  0  0  0  0  0  0  0  0  0  0
   38.4367   35.9280   30.0760 C   0  0  0  0  0  0  0  0  0  0  0  0
   38.8780   36.5004   28.9027 O   0  0  0  0  0  0  0  0  0  0  0  0
   38.7285   35.8161   27.7199 C   0  0  0  0  0  0  0  0  0  0  0  0
   40.0242   37.0279   24.1918 H   0  0  0  0  0  0  0  0  0  0  0  0
   37.3205   32.2187   25.5404 H   0  0  0  0  0  0  0  0  0  0  0  0
   42.0824   41.3871   26.5393 C   0  0  0  0  0  0  0  0  0  0  0  0
   41.3611   40.1225   26.4255 N   0  0  0  0  0  0  0  0  0  0  0  0
   40.0126   40.2302   27.0096 C   0  0  0  0  0  0  0  0  0  0  0  0
   39.3958   38.8758   27.4023 C   0  0  0  0  0  0  0  0  0  0  0  0
   39.9400   37.7567   26.5004 C   0  0  0  0  0  0  0  0  0  0  0  0
   41.4709   37.6331   26.7143 C   0  0  0  0  0  0  0  0  0  0  0  0
   41.7631   36.7659   27.8200 O   0  0  0  0  0  0  0  0  0  0  0  0
   42.1162   39.0117   27.0108 C   0  0  0  0  0  0  0  0  0  0  0  0
   41.3909   37.1419   28.6330 H   0  0  0  0  0  0  0  0  0  0  0  0
   38.6854   36.7494   31.2667 C   0  0  0  0  0  0  0  0  0  0  0  0
   39.7403   37.6756   31.2297 C   0  0  0  0  0  0  0  0  0  0  0  0
   40.0177   38.4769   32.3397 C   0  0  0  0  0  0  0  0  0  0  0  0
   39.2436   38.3553   33.4922 C   0  0  0  0  0  0  0  0  0  0  0  0
   39.5888   39.3428   34.8578 Cl  0  0  0  0  0  0  0  0  0  0  0  0
   38.1949   37.4405   33.5487 C   0  0  0  0  0  0  0  0  0  0  0  0
   37.9151   36.6402   32.4376 C   0  0  0  0  0  0  0  0  0  0  0  0
   36.6009   35.5216   32.5642 Cl  0  0  0  0  0  0  0  0  0  0  0  0
 16 17  1  0
 17 18  1  0
 18 19  1  0
 19 20  1  0
 20  1  1  0
  1  2  2  0
  2  3  1  0
  2  4  1  0
  4  5  2  0
  5  6  1  0
  5  7  1  0
  7  8  1  0
  8  9  2  0
  8 10  1  0
 10 11  2  0
 11 25  1  0
 25 26  2  0
 26 27  1  0
 27 28  2  0
 28 29  1  0
 28 30  1  0
 30 31  2  0
 31 32  1  0
 11 12  1  0
 12 13  1  0
 20 21  1  0
 21 22  1  0
 21 23  1  0
 23 17  1  0
 13  1  1  0
 13  7  2  0
 31 25  1  0
  3 14  1  0
  6 15  1  0
 22 24  1  0
M  END
> <minimizedAffinity>
-9.84870

> <CNNscore>
0.4113261402

> <CNNaffinity>
5.5396075249

> <CNN_VS>
2.2785854340

> <CNNaffinity_variance>
0.2013110518

$$$$



 32 35  0  0  0  0  0  0  0  0999 V2000
   45.2164   34.7261   34.6700 C   0  0  0  0  0  0  0  0  0  0  0  0
   45.8552   33.9162   35.6319 C   0  0  0  0  0  0  0  0  0  0  0  0
   45.6034   34.1390   36.9596 O   0  0  0  0  0  0  0  0  0  0  0  0
   46.7295   32.8889   35.2747 C   0  0  0  0  0  0  0  0  0  0  0  0
   46.9699   32.6353   33.9324 C   0  0  0  0  0  0  0  0  0  0  0  0
   47.8352   31.6130   33.6469 O   0  0  0  0  0  0  0  0  0  0  0  0
   46.3371   33.4014   32.9509 C   0  0  0  0  0  0  0  0  0  0  0  0
   46.5650   33.1290   31.5235 C   0  0  0  0  0  0  0  0  0  0  0  0
   47.3388   32.2503   31.1578 O   0  0  0  0  0  0  0  0  0  0  0  0
   45.8328   33.9498   30.5533 C   0  0  0  0  0  0  0  0  0  0  0  0
   45.0230   34.9043   31.0244 C   0  0  0  0  0  0  0  0  0  0  0  0
   44.8258   35.1915   32.3577 O   0  0  0  0  0  0  0  0  0  0  0  0
   45.4670   34.4387   33.3124 C   0  0  0  0  0  0  0  0  0  0  0  0
   45.0190   34.8246   37.2170 H   0  0  0  0  0  0  0  0  0  0  0  0
   48.2341   31.1287   34.3429 H   0  0  0  0  0  0  0  0  0  0  0  0
   41.7925   38.9281   36.5675 C   0  0  0  0  0  0  0  0  0  0  0  0
   42.6303   37.8867   35.9793 N   0  0  0  0  0  0  0  0  0  0  0  0
   42.2255   36.5524   36.4558 C   0  0  0  0  0  0  0  0  0  0  0  0
   43.3259   35.4846   36.3214 C   0  0  0  0  0  0  0  0  0  0  0  0
   44.2553   35.8171   35.1434 C   0  0  0  0  0  0  0  0  0  0  0  0
   44.9681   37.1650   35.4253 C   0  0  0  0  0  0  0  0  0  0  0  0
   46.1611   36.9596   36.1963 O   0  0  0  0  0  0  0  0  0  0  0  0
   44.0543   38.1362   36.2171 C   0  0  0  0  0  0  0  0  0  0  0  0
   45.9285   36.5748   37.0558 H   0  0  0  0  0  0  0  0  0  0  0  0
   44.2561   35.7619   30.1132 C   0  0  0  0  0  0  0  0  0  0  0  0
   43.2433   36.5713   30.6529 C   0  0  0  0  0  0  0  0  0  0  0  0
   42.4843   37.4015   29.8249 C   0  0  0  0  0  0  0  0  0  0  0  0
   42.7324   37.4257   28.4538 C   0  0  0  0  0  0  0  0  0  0  0  0
   41.7949   38.4483   27.4368 Cl  0  0  0  0  0  0  0  0  0  0  0  0
   43.7309   36.6281   27.8997 C   0  0  0  0  0  0  0  0  0  0  0  0
   44.4924   35.7991   28.7279 C   0  0  0  0  0  0  0  0  0  0  0  0
   45.7191   34.8305   27.9853 Cl  0  0  0  0  0  0  0  0  0  0  0  0
 16 17  1  0
 17 18  1  0
 18 19  1  0
 19 20  1  0
 20  1  1  0
  1  2  2  0
  2  3  1  0
  2  4  1  0
  4  5  2  0
  5  6  1  0
  5  7  1  0
  7  8  1  0
  8  9  2  0
  8 10  1  0
 10 11  2  0
 11 25  1  0
 25 26  2  0
 26 27  1  0
 27 28  2  0
 28 29  1  0
 28 30  1  0
 30 31  2  0
 31 32  1  0
 11 12  1  0
 12 13  1  0
 20 21  1  0
 21 22  1  0
 21 23  1  0
 23 17  1  0
 13  1  1  0
 13  7  2  0
 31 25  1  0
  3 14  1  0
  6 15  1  0
 22 24  1  0
M  END
> <minimizedAffinity>
-6.75470

> <CNNscore>
0.2968460917

> <CNNaffinity>
4.7675547600

> <CNN_VS>
1.4152300358

> <CNNaffinity_variance>
0.2415579557

$$$$



 32 35  0  0  0  0  0  0  0  0999 V2000
   40.5883   38.3066   30.8962 C   0  0  0  0  0  0  0  0  0  0  0  0
   40.6595   39.1315   32.0381 C   0  0  0  0  0  0  0  0  0  0  0  0
   41.5962   40.1298   32.0781 O   0  0  0  0  0  0  0  0  0  0  0  0
   39.8003   38.9693   33.1257 C   0  0  0  0  0  0  0  0  0  0  0  0
   38.8288   37.9802   33.0843 C   0  0  0  0  0  0  0  0  0  0  0  0
   38.0157   37.8732   34.1810 O   0  0  0  0  0  0  0  0  0  0  0  0
   38.7129   37.1592   31.9604 C   0  0  0  0  0  0  0  0  0  0  0  0
   37.6729   36.1212   31.8933 C   0  0  0  0  0  0  0  0  0  0  0  0
   36.9060   35.9257   32.8304 O   0  0  0  0  0  0  0  0  0  0  0  0
   37.5888   35.3270   30.6632 C   0  0  0  0  0  0  0  0  0  0  0  0
   38.4722   35.5807   29.6917 C   0  0  0  0  0  0  0  0  0  0  0  0
   39.4719   36.5272   29.7547 O   0  0  0  0  0  0  0  0  0  0  0  0
   39.5832   37.3179   30.8736 C   0  0  0  0  0  0  0  0  0  0  0  0
   42.1810   40.2527   31.3564 H   0  0  0  0  0  0  0  0  0  0  0  0
   38.1348   38.4491   34.9105 H   0  0  0  0  0  0  0  0  0  0  0  0
   44.3950   39.2377   26.6983 C   0  0  0  0  0  0  0  0  0  0  0  0
   43.3809   38.9203   27.6999 N   0  0  0  0  0  0  0  0  0  0  0  0
   42.5287   40.0901   27.9767 C   0  0  0  0  0  0  0  0  0  0  0  0
   41.8063   40.0251   29.3342 C   0  0  0  0  0  0  0  0  0  0  0  0
   41.5523   38.5640   29.7375 C   0  0  0  0  0  0  0  0  0  0  0  0
   42.9138   37.8441   29.9172 C   0  0  0  0  0  0  0  0  0  0  0  0
   43.4190   38.0328   31.2473 O   0  0  0  0  0  0  0  0  0  0  0  0
   43.9773   38.3842   28.9260 C   0  0  0  0  0  0  0  0  0  0  0  0
   43.5731   38.9776   31.4036 H   0  0  0  0  0  0  0  0  0  0  0  0
   38.4465   34.8283   28.4318 C   0  0  0  0  0  0  0  0  0  0  0  0
   38.0576   33.4795   28.4681 C   0  0  0  0  0  0  0  0  0  0  0  0
   38.0211   32.7217   27.2953 C   0  0  0  0  0  0  0  0  0  0  0  0
   38.3745   33.3075   26.0812 C   0  0  0  0  0  0  0  0  0  0  0  0
   38.3297   32.3709   24.6390 Cl  0  0  0  0  0  0  0  0  0  0  0  0
   38.7655   34.6431   26.0256 C   0  0  0  0  0  0  0  0  0  0  0  0
   38.7998   35.4027   27.1982 C   0  0  0  0  0  0  0  0  0  0  0  0
   39.2929   37.0564   27.0696 Cl  0  0  0  0  0  0  0  0  0  0  0  0
 16 17  1  0
 17 18  1  0
 18 19  1  0
 19 20  1  0
 20  1  1  0
  1  2  2  0
  2  3  1  0
  2  4  1  0
  4  5  2  0
  5  6  1  0
  5  7  1  0
  7  8  1  0
  8  9  2  0
  8 10  1  0
 10 11  2  0
 11 25  1  0
 25 26  2  0
 26 27  1  0
 27 28  2  0
 28 29  1  0
 28 30  1  0
 30 31  2  0
 31 32  1  0
 11 12  1  0
 12 13  1  0
 20 21  1  0
 21 22  1  0
 21 23  1  0
 23 17  1  0
 13  1  1  0
 13  7  2  0
 31 25  1  0
  3 14  1  0
  6 15  1  0
 22 24  1  0
M  END
> <minimizedAffinity>
-9.33244

> <CNNscore>
0.2782326639

> <CNNaffinity>
5.1258711815

> <CNN_VS>
1.4261847734

> <CNNaffinity_variance>
0.3161779940

$$$$



 32 35  0  0  0  0  0  0  0  0999 V2000
   40.1729   39.5931   29.1249 C   0  0  0  0  0  0  0  0  0  0  0  0
   40.2893   40.6370   30.0661 C   0  0  0  0  0  0  0  0  0  0  0  0
   40.8460   41.8252   29.6737 O   0  0  0  0  0  0  0  0  0  0  0  0
   39.8476   40.5018   31.3829 C   0  0  0  0  0  0  0  0  0  0  0  0
   39.2560   39.3132   31.7840 C   0  0  0  0  0  0  0  0  0  0  0  0
   38.8416   39.2438   33.0874 O   0  0  0  0  0  0  0  0  0  0  0  0
   39.1023   38.2654   30.8734 C   0  0  0  0  0  0  0  0  0  0  0  0
   38.4564   37.0076   31.2786 C   0  0  0  0  0  0  0  0  0  0  0  0
   38.0686   36.8318   32.4290 O   0  0  0  0  0  0  0  0  0  0  0  0
   38.2949   35.9700   30.2547 C   0  0  0  0  0  0  0  0  0  0  0  0
   38.7616   36.2229   29.0271 C   0  0  0  0  0  0  0  0  0  0  0  0
   39.3979   37.3833   28.6429 O   0  0  0  0  0  0  0  0  0  0  0  0
   39.5554   38.4003   29.5542 C   0  0  0  0  0  0  0  0  0  0  0  0
   41.1478   41.9330   28.7932 H   0  0  0  0  0  0  0  0  0  0  0  0
   38.9680   39.9755   33.6588 H   0  0  0  0  0  0  0  0  0  0  0  0
   41.7782   40.4535   23.6785 C   0  0  0  0  0  0  0  0  0  0  0  0
   41.4190   40.3344   25.0889 N   0  0  0  0  0  0  0  0  0  0  0  0
   42.0378   39.1406   25.6916 C   0  0  0  0  0  0  0  0  0  0  0  0
   41.3307   38.6519   26.9684 C   0  0  0  0  0  0  0  0  0  0  0  0
   40.6616   39.8292   27.6953 C   0  0  0  0  0  0  0  0  0  0  0  0
   39.5676   40.4349   26.7785 C   0  0  0  0  0  0  0  0  0  0  0  0
   38.3228   39.7391   26.9416 O   0  0  0  0  0  0  0  0  0  0  0  0
   39.9668   40.3461   25.2825 C   0  0  0  0  0  0  0  0  0  0  0  0
   38.4338   38.8120   26.6791 H   0  0  0  0  0  0  0  0  0  0  0  0
   38.6325   35.2331   27.9511 C   0  0  0  0  0  0  0  0  0  0  0  0
   39.2833   35.4840   26.7323 C   0  0  0  0  0  0  0  0  0  0  0  0
   39.1867   34.5732   25.6778 C   0  0  0  0  0  0  0  0  0  0  0  0
   38.4380   33.4083   25.8355 C   0  0  0  0  0  0  0  0  0  0  0  0
   38.3200   32.2894   24.5343 Cl  0  0  0  0  0  0  0  0  0  0  0  0
   37.7832   33.1434   27.0359 C   0  0  0  0  0  0  0  0  0  0  0  0
   37.8815   34.0531   28.0923 C   0  0  0  0  0  0  0  0  0  0  0  0
   37.0477   33.6724   29.5600 Cl  0  0  0  0  0  0  0  0  0  0  0  0
 16 17  1  0
 17 18  1  0
 18 19  1  0
 19 20  1  0
 20  1  1  0
  1  2  2  0
  2  3  1  0
  2  4  1  0
  4  5  2  0
  5  6  1  0
  5  7  1  0
  7  8  1  0
  8  9  2  0
  8 10  1  0
 10 11  2  0
 11 25  1  0
 25 26  2  0
 26 27  1  0
 27 28  2  0
 28 29  1  0
 28 30  1  0
 30 31  2  0
 31 32  1  0
 11 12  1  0
 12 13  1  0
 20 21  1  0
 21 22  1  0
 21 23  1  0
 23 17  1  0
 13  1  1  0
 13  7  2  0
 31 25  1  0
  3 14  1  0
  6 15  1  0
 22 24  1  0
M  END
> <minimizedAffinity>
-9.74224

> <CNNscore>
0.2720700800

> <CNNaffinity>
5.3243927956

> <CNN_VS>
1.4486079216

> <CNNaffinity_variance>
0.3116338551

$$$$



 32 35  0  0  0  0  0  0  0  0999 V2000
   38.5954   37.3293   31.9270 C   0  0  0  0  0  0  0  0  0  0  0  0
   37.6891   36.8914   32.9151 C   0  0  0  0  0  0  0  0  0  0  0  0
   37.5919   37.5961   34.0854 O   0  0  0  0  0  0  0  0  0  0  0  0
   36.8814   35.7677   32.7358 C   0  0  0  0  0  0  0  0  0  0  0  0
   36.9503   35.0629   31.5432 C   0  0  0  0  0  0  0  0  0  0  0  0
   36.1311   33.9716   31.4276 O   0  0  0  0  0  0  0  0  0  0  0  0
   37.8190   35.4804   30.5324 C   0  0  0  0  0  0  0  0  0  0  0  0
   37.8862   34.7560   29.2539 C   0  0  0  0  0  0  0  0  0  0  0  0
   37.2114   33.7514   29.0542 O   0  0  0  0  0  0  0  0  0  0  0  0
   38.7927   35.2799   28.2269 C   0  0  0  0  0  0  0  0  0  0  0  0
   39.5141   36.3666   28.5228 C   0  0  0  0  0  0  0  0  0  0  0  0
   39.4852   37.0350   29.7276 O   0  0  0  0  0  0  0  0  0  0  0  0
   38.6361   36.6036   30.7187 C   0  0  0  0  0  0  0  0  0  0  0  0
   38.1269   38.3531   34.2222 H   0  0  0  0  0  0  0  0  0  0  0  0
   35.5659   33.7330   32.1359 H   0  0  0  0  0  0  0  0  0  0  0  0
   41.6427   42.1327   32.7151 C   0  0  0  0  0  0  0  0  0  0  0  0
   40.8213   40.9294   32.6172 N   0  0  0  0  0  0  0  0  0  0  0  0
   41.6622   39.7254   32.4959 C   0  0  0  0  0  0  0  0  0  0  0  0
   40.9326   38.5175   31.8811 C   0  0  0  0  0  0  0  0  0  0  0  0
   39.4291   38.5833   32.1927 C   0  0  0  0  0  0  0  0  0  0  0  0
   38.8305   39.8534   31.5347 C   0  0  0  0  0  0  0  0  0  0  0  0
   38.4495   39.5926   30.1757 O   0  0  0  0  0  0  0  0  0  0  0  0
   39.8499   41.0221   31.5243 C   0  0  0  0  0  0  0  0  0  0  0  0
   39.2344   39.3477   29.6611 H   0  0  0  0  0  0  0  0  0  0  0  0
   40.4394   36.9488   27.5436 C   0  0  0  0  0  0  0  0  0  0  0  0
   39.9026   37.6746   26.4680 C   0  0  0  0  0  0  0  0  0  0  0  0
   40.7433   38.2442   25.5090 C   0  0  0  0  0  0  0  0  0  0  0  0
   42.1239   38.0899   25.6191 C   0  0  0  0  0  0  0  0  0  0  0  0
   43.1562   38.7915   24.4354 Cl  0  0  0  0  0  0  0  0  0  0  0  0
   42.6749   37.3711   26.6773 C   0  0  0  0  0  0  0  0  0  0  0  0
   41.8345   36.8031   27.6388 C   0  0  0  0  0  0  0  0  0  0  0  0
   42.5737   35.9214   28.9312 Cl  0  0  0  0  0  0  0  0  0  0  0  0
 16 17  1  0
 17 18  1  0
 18 19  1  0
 19 20  1  0
 20  1  1  0
  1  2  2  0
  2  3  1  0
  2  4  1  0
  4  5  2  0
  5  6  1  0
  5  7  1  0
  7  8  1  0
  8  9  2  0
  8 10  1  0
 10 11  2  0
 11 25  1  0
 25 26  2  0
 26 27  1  0
 27 28  2  0
 28 29  1  0
 28 30  1  0
 30 31  2  0
 31 32  1  0
 11 12  1  0
 12 13  1  0
 20 21  1  0
 21 22  1  0
 21 23  1  0
 23 17  1  0
 13  1  1  0
 13  7  2  0
 31 25  1  0
  3 14  1  0
  6 15  1  0
 22 24  1  0
M  END
> <minimizedAffinity>
-8.94597

> <CNNscore>
0.2446382493

> <CNNaffinity>
4.7170882225

> <CNN_VS>
1.1539802551

> <CNNaffinity_variance>
0.5357136726

$$$$



 32 35  0  0  0  0  0  0  0  0999 V2000
   40.1034   38.4679   32.6355 C   0  0  0  0  0  0  0  0  0  0  0  0
   40.0293   38.9948   33.9417 C   0  0  0  0  0  0  0  0  0  0  0  0
   40.8990   39.9877   34.3070 O   0  0  0  0  0  0  0  0  0  0  0  0
   39.0923   38.5433   34.8721 C   0  0  0  0  0  0  0  0  0  0  0  0
   38.1876   37.5584   34.5043 C   0  0  0  0  0  0  0  0  0  0  0  0
   37.2924   37.1600   35.4610 O   0  0  0  0  0  0  0  0  0  0  0  0
   38.2155   37.0294   33.2120 C   0  0  0  0  0  0  0  0  0  0  0  0
   37.2477   36.0007   32.8012 C   0  0  0  0  0  0  0  0  0  0  0  0
   36.4171   35.5567   33.5871 O   0  0  0  0  0  0  0  0  0  0  0  0
   37.3145   35.5244   31.4156 C   0  0  0  0  0  0  0  0  0  0  0  0
   38.2605   36.0375   30.6215 C   0  0  0  0  0  0  0  0  0  0  0  0
   39.1939   36.9769   31.0028 O   0  0  0  0  0  0  0  0  0  0  0  0
   39.1636   37.4777   32.2826 C   0  0  0  0  0  0  0  0  0  0  0  0
   41.5344   40.3026   33.6946 H   0  0  0  0  0  0  0  0  0  0  0  0
   37.3154   37.5467   36.3142 H   0  0  0  0  0  0  0  0  0  0  0  0
   44.1903   40.5161   29.1595 C   0  0  0  0  0  0  0  0  0  0  0  0
   43.1128   39.9345   29.9550 N   0  0  0  0  0  0  0  0  0  0  0  0
   42.2047   40.9803   30.4577 C   0  0  0  0  0  0  0  0  0  0  0  0
   41.3822   40.5511   31.6859 C   0  0  0  0  0  0  0  0  0  0  0  0
   41.1450   39.0327   31.6689 C   0  0  0  0  0  0  0  0  0  0  0  0
   42.5111   38.3055   31.7654 C   0  0  0  0  0  0  0  0  0  0  0  0
   42.9059   38.1413   33.1355 O   0  0  0  0  0  0  0  0  0  0  0  0
   43.6299   39.0998   31.0424 C   0  0  0  0  0  0  0  0  0  0  0  0
   43.0171   39.0129   33.5466 H   0  0  0  0  0  0  0  0  0  0  0  0
   38.3855   35.6112   29.2227 C   0  0  0  0  0  0  0  0  0  0  0  0
   39.0486   36.4613   28.3229 C   0  0  0  0  0  0  0  0  0  0  0  0
   39.1892   36.1002   26.9810 C   0  0  0  0  0  0  0  0  0  0  0  0
   38.6666   34.8890   26.5314 C   0  0  0  0  0  0  0  0  0  0  0  0
   38.8404   34.4481   24.8778 Cl  0  0  0  0  0  0  0  0  0  0  0  0
   38.0033   34.0339   27.4083 C   0  0  0  0  0  0  0  0  0  0  0  0
   37.8645   34.3933   28.7517 C   0  0  0  0  0  0  0  0  0  0  0  0
   37.0318   33.2927   29.7954 Cl  0  0  0  0  0  0  0  0  0  0  0  0
 16 17  1  0
 17 18  1  0
 18 19  1  0
 19 20  1  0
 20  1  1  0
  1  2  2  0
  2  3  1  0
  2  4  1  0
  4  5  2  0
  5  6  1  0
  5  7  1  0
  7  8  1  0
  8  9  2  0
  8 10  1  0
 10 11  2  0
 11 25  1  0
 25 26  2  0
 26 27  1  0
 27 28  2  0
 28 29  1  0
 28 30  1  0
 30 31  2  0
 31 32  1  0
 11 12  1  0
 12 13  1  0
 20 21  1  0
 21 22  1  0
 21 23  1  0
 23 17  1  0
 13  1  1  0
 13  7  2  0
 31 25  1  0
  3 14  1  0
  6 15  1  0
 22 24  1  0
M  END
> <minimizedAffinity>
-8.09643

> <CNNscore>
0.2104677558

> <CNNaffinity>
4.9991035461

> <CNN_VS>
1.0521501303

> <CNNaffinity_variance>
0.3573605120

$$$$



 32 35  0  0  0  0  0  0  0  0999 V2000
   39.5699   38.4935   34.6929 C   0  0  0  0  0  0  0  0  0  0  0  0
   39.1989   38.4852   36.0536 C   0  0  0  0  0  0  0  0  0  0  0  0
   39.8646   39.3025   36.9279 O   0  0  0  0  0  0  0  0  0  0  0  0
   38.1690   37.6772   36.5373 C   0  0  0  0  0  0  0  0  0  0  0  0
   37.4686   36.8667   35.6562 C   0  0  0  0  0  0  0  0  0  0  0  0
   36.4684   36.0997   36.1917 O   0  0  0  0  0  0  0  0  0  0  0  0
   37.7922   36.8658   34.2975 C   0  0  0  0  0  0  0  0  0  0  0  0
   37.0431   36.0284   33.3482 C   0  0  0  0  0  0  0  0  0  0  0  0
   36.1424   35.2863   33.7258 O   0  0  0  0  0  0  0  0  0  0  0  0
   37.4154   36.1131   31.9322 C   0  0  0  0  0  0  0  0  0  0  0  0
   38.4221   36.9271   31.5964 C   0  0  0  0  0  0  0  0  0  0  0  0
   39.1535   37.6917   32.4795 O   0  0  0  0  0  0  0  0  0  0  0  0
   38.8331   37.6710   33.8160 C   0  0  0  0  0  0  0  0  0  0  0  0
   40.5587   39.8516   36.6200 H   0  0  0  0  0  0  0  0  0  0  0  0
   36.2908   36.1366   37.1110 H   0  0  0  0  0  0  0  0  0  0  0  0
   43.6409   42.0903   32.8301 C   0  0  0  0  0  0  0  0  0  0  0  0
   42.6253   41.2152   33.4088 N   0  0  0  0  0  0  0  0  0  0  0  0
   42.9587   39.7980   33.1814 C   0  0  0  0  0  0  0  0  0  0  0  0
   41.7484   38.8519   33.2779 C   0  0  0  0  0  0  0  0  0  0  0  0
   40.6951   39.4244   34.2395 C   0  0  0  0  0  0  0  0  0  0  0  0
   40.1709   40.7697   33.6741 C   0  0  0  0  0  0  0  0  0  0  0  0
   39.0888   40.5505   32.7569 O   0  0  0  0  0  0  0  0  0  0  0  0
   41.2839   41.5402   32.9172 C   0  0  0  0  0  0  0  0  0  0  0  0
   39.4046   40.0280   32.0032 H   0  0  0  0  0  0  0  0  0  0  0  0
   38.8477   37.0655   30.1986 C   0  0  0  0  0  0  0  0  0  0  0  0
   39.4592   38.2662   29.8032 C   0  0  0  0  0  0  0  0  0  0  0  0
   39.8779   38.4458   28.4829 C   0  0  0  0  0  0  0  0  0  0  0  0
   39.6861   37.4274   27.5511 C   0  0  0  0  0  0  0  0  0  0  0  0
   40.2017   37.6525   25.9255 Cl  0  0  0  0  0  0  0  0  0  0  0  0
   39.0790   36.2305   27.9237 C   0  0  0  0  0  0  0  0  0  0  0  0
   38.6621   36.0491   29.2453 C   0  0  0  0  0  0  0  0  0  0  0  0
   37.9143   34.5425   29.6517 Cl  0  0  0  0  0  0  0  0  0  0  0  0
 16 17  1  0
 17 18  1  0
 18 19  1  0
 19 20  1  0
 20  1  1  0
  1  2  2  0
  2  3  1  0
  2  4  1  0
  4  5  2  0
  5  6  1  0
  5  7  1  0
  7  8  1  0
  8  9  2  0
  8 10  1  0
 10 11  2  0
 11 25  1  0
 25 26  2  0
 26 27  1  0
 27 28  2  0
 28 29  1  0
 28 30  1  0
 30 31  2  0
 31 32  1  0
 11 12  1  0
 12 13  1  0
 20 21  1  0
 21 22  1  0
 21 23  1  0
 23 17  1  0
 13  1  1  0
 13  7  2  0
 31 25  1  0
  3 14  1  0
  6 15  1  0
 22 24  1  0
M  END
> <minimizedAffinity>
-8.19094

> <CNNscore>
0.1915189475

> <CNNaffinity>
4.4536528587

> <CNN_VS>
0.8529589176

> <CNNaffinity_variance>
0.6282396317

$$$$



 32 35  0  0  0  0  0  0  0  0999 V2000
   39.1825   35.8892   28.7612 C   0  0  0  0  0  0  0  0  0  0  0  0
   38.7396   34.7512   28.0555 C   0  0  0  0  0  0  0  0  0  0  0  0
   39.2853   34.4766   26.8297 O   0  0  0  0  0  0  0  0  0  0  0  0
   37.7690   33.8902   28.5695 C   0  0  0  0  0  0  0  0  0  0  0  0
   37.2301   34.1422   29.8224 C   0  0  0  0  0  0  0  0  0  0  0  0
   36.2842   33.2597   30.2717 O   0  0  0  0  0  0  0  0  0  0  0  0
   37.6611   35.2466   30.5608 C   0  0  0  0  0  0  0  0  0  0  0  0
   37.1148   35.5133   31.9002 C   0  0  0  0  0  0  0  0  0  0  0  0
   36.2461   34.7980   32.3884 O   0  0  0  0  0  0  0  0  0  0  0  0
   37.6473   36.6689   32.6297 C   0  0  0  0  0  0  0  0  0  0  0  0
   38.5772   37.4169   32.0260 C   0  0  0  0  0  0  0  0  0  0  0  0
   39.0734   37.1976   30.7592 O   0  0  0  0  0  0  0  0  0  0  0  0
   38.6289   36.1150   30.0383 C   0  0  0  0  0  0  0  0  0  0  0  0
   39.9381   35.0442   26.4698 H   0  0  0  0  0  0  0  0  0  0  0  0
   36.0294   32.5336   29.7371 H   0  0  0  0  0  0  0  0  0  0  0  0
   43.1152   39.2115   26.2164 C   0  0  0  0  0  0  0  0  0  0  0  0
   42.1128   38.4425   26.9486 N   0  0  0  0  0  0  0  0  0  0  0  0
   42.6234   37.1039   27.2933 C   0  0  0  0  0  0  0  0  0  0  0  0
   41.5178   36.0728   27.5825 C   0  0  0  0  0  0  0  0  0  0  0  0
   40.2657   36.7701   28.1376 C   0  0  0  0  0  0  0  0  0  0  0  0
   39.7075   37.7394   27.0638 C   0  0  0  0  0  0  0  0  0  0  0  0
   38.8218   37.0524   26.1674 O   0  0  0  0  0  0  0  0  0  0  0  0
   40.8459   38.3654   26.2167 C   0  0  0  0  0  0  0  0  0  0  0  0
   39.3108   36.3582   25.6985 H   0  0  0  0  0  0  0  0  0  0  0  0
   39.1579   38.5865   32.6961 C   0  0  0  0  0  0  0  0  0  0  0  0
   39.7020   38.4180   33.9797 C   0  0  0  0  0  0  0  0  0  0  0  0
   40.2625   39.5023   34.6586 C   0  0  0  0  0  0  0  0  0  0  0  0
   40.2807   40.7602   34.0590 C   0  0  0  0  0  0  0  0  0  0  0  0
   40.9707   42.0937   34.8985 Cl  0  0  0  0  0  0  0  0  0  0  0  0
   39.7435   40.9475   32.7876 C   0  0  0  0  0  0  0  0  0  0  0  0
   39.1848   39.8625   32.1067 C   0  0  0  0  0  0  0  0  0  0  0  0
   38.5325   40.1534   30.5305 Cl  0  0  0  0  0  0  0  0  0  0  0  0
 16 17  1  0
 17 18  1  0
 18 19  1  0
 19 20  1  0
 20  1  1  0
  1  2  2  0
  2  3  1  0
  2  4  1  0
  4  5  2  0
  5  6  1  0
  5  7  1  0
  7  8  1  0
  8  9  2  0
  8 10  1  0
 10 11  2  0
 11 25  1  0
 25 26  2  0
 26 27  1  0
 27 28  2  0
 28 29  1  0
 28 30  1  0
 30 31  2  0
 31 32  1  0
 11 12  1  0
 12 13  1  0
 20 21  1  0
 21 22  1  0
 21 23  1  0
 23 17  1  0
 13  1  1  0
 13  7  2  0
 31 25  1  0
  3 14  1  0
  6 15  1  0
 22 24  1  0
M  END
> <minimizedAffinity>
-9.47383

> <CNNscore>
0.1856745481

> <CNNaffinity>
4.9158225060

> <CNN_VS>
0.9127431512

> <CNNaffinity_variance>
0.2464743406

$$$$
