


 22 24  0  0  0  0  0  0  0  0999 V2000
    8.5872    9.9407    4.5993 S   0  0  0  0  0  0  0  0  0  0  0  0
    8.1830    8.9251    5.5461 O   0  0  0  0  0  0  0  0  0  0  0  0
    8.8158   11.3046    5.0289 O   0  0  0  0  0  0  0  0  0  0  0  0
    7.3592    9.9664    3.3020 C   0  0  0  0  0  0  0  0  0  0  0  0
    7.8311   10.0259    1.9806 C   0  0  0  0  0  0  0  0  0  0  0  0
    6.9263   10.0278    0.9285 C   0  0  0  0  0  0  0  0  0  0  0  0
    7.5559   10.0967   -0.8520 Br  0  0  0  0  0  0  0  0  0  0  0  0
    5.5587    9.9742    1.1756 C   0  0  0  0  0  0  0  0  0  0  0  0
    5.0751    9.9247    2.4942 C   0  0  0  0  0  0  0  0  0  0  0  0
    3.7027    9.8738    2.7529 C   0  0  0  0  0  0  0  0  0  0  0  0
    3.1516    9.8266    3.9845 N   0  0  0  0  0  0  0  0  0  0  0  0
    4.0066    9.8415    5.0214 C   0  0  0  0  0  0  0  0  0  0  0  0
    5.3855    9.8885    4.8813 C   0  0  0  0  0  0  0  0  0  0  0  0
    5.9660    9.9261    3.5929 C   0  0  0  0  0  0  0  0  0  0  0  0
    9.6719    7.1321    2.9018 C   0  0  0  0  0  0  0  0  0  0  0  0
   10.3347    7.9592    4.0040 C   0  0  0  0  0  0  0  0  0  0  0  0
   11.8635    7.7004    3.9679 C   0  0  0  0  0  0  0  0  0  0  0  0
   12.6276    8.4598    4.9657 N   0  0  0  0  0  0  0  0  0  0  0  0
   12.1055    9.8230    5.1318 C   0  0  0  0  0  0  0  0  0  0  0  0
   11.2013   10.3137    3.9871 C   0  0  0  0  0  0  0  0  0  0  0  0
   10.0081    9.4240    3.7859 N   0  0  0  0  0  0  0  0  0  0  0  0
   13.6009    8.5135    4.6652 H   0  0  0  0  0  0  0  0  0  0  0  0
 16 15  1  0
 16 17  1  0
 17 18  1  0
 18 19  1  0
 19 20  1  0
 20 21  1  0
 21  1  1  0
  1  2  2  0
  1  3  2  0
  1  4  1  0
  4  5  2  0
  5  6  1  0
  6  7  1  0
  6  8  2  0
  8  9  1  0
  9 10  2  0
 10 11  1  0
 11 12  2  0
 12 13  1  0
 13 14  2  0
 21 16  1  0
 14  4  1  0
 14  9  1  0
 18 22  1  0
M  END
> <minimizedAffinity>
-8.35187

> <CNNscore>
0.9830755591

> <CNNaffinity>
6.5970788002

> <CNN_VS>
6.4854269028

> <CNNaffinity_variance>
0.0834962726

$$$$



 22 24  0  0  0  0  0  0  0  0999 V2000
   10.1462   10.0048    3.8607 S   0  0  0  0  0  0  0  0  0  0  0  0
    9.6941   10.0692    5.2328 O   0  0  0  0  0  0  0  0  0  0  0  0
   11.0764   10.9851    3.3406 O   0  0  0  0  0  0  0  0  0  0  0  0
    8.6888   10.0201    2.8274 C   0  0  0  0  0  0  0  0  0  0  0  0
    8.8940   10.0069    1.4382 C   0  0  0  0  0  0  0  0  0  0  0  0
    7.8008    9.9973    0.5835 C   0  0  0  0  0  0  0  0  0  0  0  0
    8.0709    9.9684   -1.2868 Br  0  0  0  0  0  0  0  0  0  0  0  0
    6.5073   10.0035    1.0942 C   0  0  0  0  0  0  0  0  0  0  0  0
    6.2904   10.0271    2.4825 C   0  0  0  0  0  0  0  0  0  0  0  0
    4.9946   10.0367    3.0055 C   0  0  0  0  0  0  0  0  0  0  0  0
    4.6945   10.0613    4.3216 N   0  0  0  0  0  0  0  0  0  0  0  0
    5.7363   10.0889    5.1703 C   0  0  0  0  0  0  0  0  0  0  0  0
    7.0617   10.0801    4.7625 C   0  0  0  0  0  0  0  0  0  0  0  0
    7.3791   10.0425    3.3855 C   0  0  0  0  0  0  0  0  0  0  0  0
   12.6098    7.9964    5.2185 C   0  0  0  0  0  0  0  0  0  0  0  0
   12.3260    8.4001    3.7711 C   0  0  0  0  0  0  0  0  0  0  0  0
   13.0001    7.3706    2.8271 C   0  0  0  0  0  0  0  0  0  0  0  0
   12.7811    7.6288    1.3982 N   0  0  0  0  0  0  0  0  0  0  0  0
   11.4166    8.1034    1.1318 C   0  0  0  0  0  0  0  0  0  0  0  0
   10.4053    7.8327    2.2600 C   0  0  0  0  0  0  0  0  0  0  0  0
   10.8253    8.4569    3.5599 N   0  0  0  0  0  0  0  0  0  0  0  0
   12.9373    6.7648    0.8790 H   0  0  0  0  0  0  0  0  0  0  0  0
 16 15  1  0
 16 17  1  0
 17 18  1  0
 18 19  1  0
 19 20  1  0
 20 21  1  0
 21  1  1  0
  1  2  2  0
  1  3  2  0
  1  4  1  0
  4  5  2  0
  5  6  1  0
  6  7  1  0
  6  8  2  0
  8  9  1  0
  9 10  2  0
 10 11  1  0
 11 12  2  0
 12 13  1  0
 13 14  2  0
 21 16  1  0
 14  4  1  0
 14  9  1  0
 18 22  1  0
M  END
> <minimizedAffinity>
-8.65460

> <CNNscore>
0.8772988915

> <CNNaffinity>
6.7346229553

> <CNN_VS>
5.9082770348

> <CNNaffinity_variance>
0.0391488932

$$$$



 22 24  0  0  0  0  0  0  0  0999 V2000
    9.3373    9.7063    0.6328 S   0  0  0  0  0  0  0  0  0  0  0  0
    8.9221   10.7911   -0.2287 O   0  0  0  0  0  0  0  0  0  0  0  0
    9.4137    8.3500    0.1313 O   0  0  0  0  0  0  0  0  0  0  0  0
    8.2465    9.7138    2.0477 C   0  0  0  0  0  0  0  0  0  0  0  0
    8.8479    9.6442    3.3149 C   0  0  0  0  0  0  0  0  0  0  0  0
    8.0544    9.6667    4.4530 C   0  0  0  0  0  0  0  0  0  0  0  0
    8.8589    9.5844    6.1610 Br  0  0  0  0  0  0  0  0  0  0  0  0
    6.6706    9.7548    4.3452 C   0  0  0  0  0  0  0  0  0  0  0  0
    6.0576    9.8146    3.0820 C   0  0  0  0  0  0  0  0  0  0  0  0
    4.6678    9.9001    2.9630 C   0  0  0  0  0  0  0  0  0  0  0  0
    3.9964    9.9595    1.7933 N   0  0  0  0  0  0  0  0  0  0  0  0
    4.7415    9.9214    0.6754 C   0  0  0  0  0  0  0  0  0  0  0  0
    6.1258    9.8396    0.6756 C   0  0  0  0  0  0  0  0  0  0  0  0
    6.8324    9.7891    1.8989 C   0  0  0  0  0  0  0  0  0  0  0  0
   11.7870   12.1117    0.2335 C   0  0  0  0  0  0  0  0  0  0  0  0
   11.8771   10.5867    0.3026 C   0  0  0  0  0  0  0  0  0  0  0  0
   13.3264   10.1917    0.6885 C   0  0  0  0  0  0  0  0  0  0  0  0
   13.5438    8.7451    0.8157 N   0  0  0  0  0  0  0  0  0  0  0  0
   12.3962    8.0732    1.4401 C   0  0  0  0  0  0  0  0  0  0  0  0
   11.4352    9.0051    2.1995 C   0  0  0  0  0  0  0  0  0  0  0  0
   10.8684   10.0782    1.3146 N   0  0  0  0  0  0  0  0  0  0  0  0
   14.3721    8.5850    1.3891 H   0  0  0  0  0  0  0  0  0  0  0  0
 16 15  1  0
 16 17  1  0
 17 18  1  0
 18 19  1  0
 19 20  1  0
 20 21  1  0
 21  1  1  0
  1  2  2  0
  1  3  2  0
  1  4  1  0
  4  5  2  0
  5  6  1  0
  6  7  1  0
  6  8  2  0
  8  9  1  0
  9 10  2  0
 10 11  1  0
 11 12  2  0
 12 13  1  0
 13 14  2  0
 21 16  1  0
 14  4  1  0
 14  9  1  0
 18 22  1  0
M  END
> <minimizedAffinity>
-8.09375

> <CNNscore>
0.8754980564

> <CNNaffinity>
6.5277843475

> <CNN_VS>
5.7150626183

> <CNNaffinity_variance>
0.1502316594

$$$$



 22 24  0  0  0  0  0  0  0  0999 V2000
    8.9293   10.2487    4.5166 S   0  0  0  0  0  0  0  0  0  0  0  0
    7.9346   10.3211    5.5637 O   0  0  0  0  0  0  0  0  0  0  0  0
    9.9097   11.3017    4.3523 O   0  0  0  0  0  0  0  0  0  0  0  0
    8.0517   10.0621    2.9718 C   0  0  0  0  0  0  0  0  0  0  0  0
    6.6571    9.9144    3.0463 C   0  0  0  0  0  0  0  0  0  0  0  0
    5.9176    9.7858    1.8792 C   0  0  0  0  0  0  0  0  0  0  0  0
    4.0394    9.5978    1.9730 Br  0  0  0  0  0  0  0  0  0  0  0  0
    6.5490    9.7997    0.6401 C   0  0  0  0  0  0  0  0  0  0  0  0
    7.9450    9.9368    0.5543 C   0  0  0  0  0  0  0  0  0  0  0  0
    8.5891    9.9488   -0.6858 C   0  0  0  0  0  0  0  0  0  0  0  0
    9.9219   10.0733   -0.8611 N   0  0  0  0  0  0  0  0  0  0  0  0
   10.6627   10.1817    0.2551 C   0  0  0  0  0  0  0  0  0  0  0  0
   10.1296   10.1837    1.5354 C   0  0  0  0  0  0  0  0  0  0  0  0
    8.7333   10.0652    1.7217 C   0  0  0  0  0  0  0  0  0  0  0  0
   12.2265    9.2432    4.7695 C   0  0  0  0  0  0  0  0  0  0  0  0
   11.0912    8.7503    3.8715 C   0  0  0  0  0  0  0  0  0  0  0  0
   11.4359    7.3226    3.3734 C   0  0  0  0  0  0  0  0  0  0  0  0
   10.4081    6.7180    2.5165 N   0  0  0  0  0  0  0  0  0  0  0  0
    9.0518    7.0387    2.9813 C   0  0  0  0  0  0  0  0  0  0  0  0
    8.9670    7.5395    4.4341 C   0  0  0  0  0  0  0  0  0  0  0  0
    9.7947    8.7726    4.6581 N   0  0  0  0  0  0  0  0  0  0  0  0
   10.5279    5.7051    2.5218 H   0  0  0  0  0  0  0  0  0  0  0  0
 16 15  1  0
 16 17  1  0
 17 18  1  0
 18 19  1  0
 19 20  1  0
 20 21  1  0
 21  1  1  0
  1  2  2  0
  1  3  2  0
  1  4  1  0
  4  5  2  0
  5  6  1  0
  6  7  1  0
  6  8  2  0
  8  9  1  0
  9 10  2  0
 10 11  1  0
 11 12  2  0
 12 13  1  0
 13 14  2  0
 21 16  1  0
 14  4  1  0
 14  9  1  0
 18 22  1  0
M  END
> <minimizedAffinity>
-7.66576

> <CNNscore>
0.8716412783

> <CNNaffinity>
5.7045102119

> <CNN_VS>
4.9722867012

> <CNNaffinity_variance>
1.1287263632

$$$$



 22 24  0  0  0  0  0  0  0  0999 V2000
   10.6072   10.0682    3.5690 S   0  0  0  0  0  0  0  0  0  0  0  0
   10.5588   10.4428    4.9649 O   0  0  0  0  0  0  0  0  0  0  0  0
   11.3587   10.8580    2.6159 O   0  0  0  0  0  0  0  0  0  0  0  0
    8.9184    9.9658    2.9950 C   0  0  0  0  0  0  0  0  0  0  0  0
    7.9152    9.9125    3.9764 C   0  0  0  0  0  0  0  0  0  0  0  0
    6.5830    9.8527    3.5928 C   0  0  0  0  0  0  0  0  0  0  0  0
    5.2282    9.7919    4.9090 Br  0  0  0  0  0  0  0  0  0  0  0  0
    6.2376    9.8424    2.2456 C   0  0  0  0  0  0  0  0  0  0  0  0
    7.2338    9.8851    1.2553 C   0  0  0  0  0  0  0  0  0  0  0  0
    6.8972    9.8721   -0.1010 C   0  0  0  0  0  0  0  0  0  0  0  0
    7.7862    9.9080   -1.1164 N   0  0  0  0  0  0  0  0  0  0  0  0
    9.0846    9.9483   -0.7711 C   0  0  0  0  0  0  0  0  0  0  0  0
    9.5316    9.9672    0.5415 C   0  0  0  0  0  0  0  0  0  0  0  0
    8.6027    9.9415    1.6069 C   0  0  0  0  0  0  0  0  0  0  0  0
   12.7225    7.9533    5.3008 C   0  0  0  0  0  0  0  0  0  0  0  0
   12.6264    8.2796    3.8099 C   0  0  0  0  0  0  0  0  0  0  0  0
   13.2948    7.1336    3.0066 C   0  0  0  0  0  0  0  0  0  0  0  0
   13.2476    7.3109    1.5497 N   0  0  0  0  0  0  0  0  0  0  0  0
   11.9672    7.8818    1.1102 C   0  0  0  0  0  0  0  0  0  0  0  0
   10.8255    7.7772    2.1369 C   0  0  0  0  0  0  0  0  0  0  0  0
   11.1669    8.4507    3.4353 N   0  0  0  0  0  0  0  0  0  0  0  0
   13.3751    6.4031    1.1025 H   0  0  0  0  0  0  0  0  0  0  0  0
 16 15  1  0
 16 17  1  0
 17 18  1  0
 18 19  1  0
 19 20  1  0
 20 21  1  0
 21  1  1  0
  1  2  2  0
  1  3  2  0
  1  4  1  0
  4  5  2  0
  5  6  1  0
  6  7  1  0
  6  8  2  0
  8  9  1  0
  9 10  2  0
 10 11  1  0
 11 12  2  0
 12 13  1  0
 13 14  2  0
 21 16  1  0
 14  4  1  0
 14  9  1  0
 18 22  1  0
M  END
> <minimizedAffinity>
-7.82463

> <CNNscore>
0.4502751827

> <CNNaffinity>
5.6823019981

> <CNN_VS>
2.5585994720

> <CNNaffinity_variance>
0.1241878942

$$$$



 22 24  0  0  0  0  0  0  0  0999 V2000
    9.8273    8.4711    1.0438 S   0  0  0  0  0  0  0  0  0  0  0  0
    9.5155    8.6969   -0.3501 O   0  0  0  0  0  0  0  0  0  0  0  0
   10.1023    7.1367    1.5345 O   0  0  0  0  0  0  0  0  0  0  0  0
    8.4768    9.1459    1.9990 C   0  0  0  0  0  0  0  0  0  0  0  0
    7.2903    9.4362    1.3060 C   0  0  0  0  0  0  0  0  0  0  0  0
    6.1990    9.9433    1.9970 C   0  0  0  0  0  0  0  0  0  0  0  0
    4.5961   10.3255    1.0716 Br  0  0  0  0  0  0  0  0  0  0  0  0
    6.2751   10.1673    3.3675 C   0  0  0  0  0  0  0  0  0  0  0  0
    7.4608    9.8899    4.0691 C   0  0  0  0  0  0  0  0  0  0  0  0
    7.5483   10.1145    5.4456 C   0  0  0  0  0  0  0  0  0  0  0  0
    8.6450    9.8792    6.1969 N   0  0  0  0  0  0  0  0  0  0  0  0
    9.7218    9.4043    5.5479 C   0  0  0  0  0  0  0  0  0  0  0  0
    9.7464    9.1428    4.1862 C   0  0  0  0  0  0  0  0  0  0  0  0
    8.5958    9.3770    3.3989 C   0  0  0  0  0  0  0  0  0  0  0  0
   11.0827   11.5851    0.2231 C   0  0  0  0  0  0  0  0  0  0  0  0
   11.7676   10.2224    0.3344 C   0  0  0  0  0  0  0  0  0  0  0  0
   13.2897   10.4460    0.5305 C   0  0  0  0  0  0  0  0  0  0  0  0
   14.0670    9.2091    0.6789 N   0  0  0  0  0  0  0  0  0  0  0  0
   13.3510    8.2070    1.4798 C   0  0  0  0  0  0  0  0  0  0  0  0
   12.1953    8.7634    2.3303 C   0  0  0  0  0  0  0  0  0  0  0  0
   11.1587    9.4574    1.4937 N   0  0  0  0  0  0  0  0  0  0  0  0
   14.9512    9.4280    1.1379 H   0  0  0  0  0  0  0  0  0  0  0  0
 16 15  1  0
 16 17  1  0
 17 18  1  0
 18 19  1  0
 19 20  1  0
 20 21  1  0
 21  1  1  0
  1  2  2  0
  1  3  2  0
  1  4  1  0
  4  5  2  0
  5  6  1  0
  6  7  1  0
  6  8  2  0
  8  9  1  0
  9 10  2  0
 10 11  1  0
 11 12  2  0
 12 13  1  0
 13 14  2  0
 21 16  1  0
 14  4  1  0
 14  9  1  0
 18 22  1  0
M  END
> <minimizedAffinity>
-7.83578

> <CNNscore>
0.3287272453

> <CNNaffinity>
5.2729587555

> <CNN_VS>
1.7333651781

> <CNNaffinity_variance>
0.6376911998

$$$$



 22 24  0  0  0  0  0  0  0  0999 V2000
    9.3944    8.7311    4.5340 S   0  0  0  0  0  0  0  0  0  0  0  0
    9.3119    7.2938    4.6708 O   0  0  0  0  0  0  0  0  0  0  0  0
    9.6399    9.5719    5.6871 O   0  0  0  0  0  0  0  0  0  0  0  0
    7.8749    9.2726    3.7663 C   0  0  0  0  0  0  0  0  0  0  0  0
    6.7773    9.4932    4.6141 C   0  0  0  0  0  0  0  0  0  0  0  0
    5.5752    9.9344    4.0794 C   0  0  0  0  0  0  0  0  0  0  0  0
    4.0981   10.2434    5.2170 Br  0  0  0  0  0  0  0  0  0  0  0  0
    5.4516   10.1557    2.7119 C   0  0  0  0  0  0  0  0  0  0  0  0
    6.5405    9.9284    1.8530 C   0  0  0  0  0  0  0  0  0  0  0  0
    6.4255   10.1449    0.4772 C   0  0  0  0  0  0  0  0  0  0  0  0
    7.4161    9.9508   -0.4192 N   0  0  0  0  0  0  0  0  0  0  0  0
    8.5858    9.5065    0.0715 C   0  0  0  0  0  0  0  0  0  0  0  0
    8.8121    9.2604    1.4174 C   0  0  0  0  0  0  0  0  0  0  0  0
    7.7803    9.4739    2.3599 C   0  0  0  0  0  0  0  0  0  0  0  0
   10.9425    7.1813    1.8604 C   0  0  0  0  0  0  0  0  0  0  0  0
   11.5191    7.9698    3.0370 C   0  0  0  0  0  0  0  0  0  0  0  0
   12.9366    8.4688    2.6535 C   0  0  0  0  0  0  0  0  0  0  0  0
   13.5965    9.2683    3.6934 N   0  0  0  0  0  0  0  0  0  0  0  0
   12.6514   10.1607    4.3782 C   0  0  0  0  0  0  0  0  0  0  0  0
   11.3287   10.4005    3.6288 C   0  0  0  0  0  0  0  0  0  0  0  0
   10.5876    9.1214    3.3629 N   0  0  0  0  0  0  0  0  0  0  0  0
   14.3287    9.8319    3.2614 H   0  0  0  0  0  0  0  0  0  0  0  0
 16 15  1  0
 16 17  1  0
 17 18  1  0
 18 19  1  0
 19 20  1  0
 20 21  1  0
 21  1  1  0
  1  2  2  0
  1  3  2  0
  1  4  1  0
  4  5  2  0
  5  6  1  0
  6  7  1  0
  6  8  2  0
  8  9  1  0
  9 10  2  0
 10 11  1  0
 11 12  2  0
 12 13  1  0
 13 14  2  0
 21 16  1  0
 14  4  1  0
 14  9  1  0
 18 22  1  0
M  END
> <minimizedAffinity>
-8.54477

> <CNNscore>
0.3049969971

> <CNNaffinity>
5.6470828056

> <CNN_VS>
1.7223433256

> <CNNaffinity_variance>
0.1666112542

$$$$



 22 24  0  0  0  0  0  0  0  0999 V2000
   12.1813   10.4720    1.5628 S   0  0  0  0  0  0  0  0  0  0  0  0
   12.5126   11.8458    1.8696 O   0  0  0  0  0  0  0  0  0  0  0  0
   12.3790    9.9425    0.2295 O   0  0  0  0  0  0  0  0  0  0  0  0
   10.4666   10.2350    2.0049 C   0  0  0  0  0  0  0  0  0  0  0  0
   10.1571   10.2353    3.3748 C   0  0  0  0  0  0  0  0  0  0  0  0
    8.8396   10.0762    3.7803 C   0  0  0  0  0  0  0  0  0  0  0  0
    8.4157   10.0868    5.6220 Br  0  0  0  0  0  0  0  0  0  0  0  0
    7.8278    9.9142    2.8400 C   0  0  0  0  0  0  0  0  0  0  0  0
    8.1276    9.9021    1.4670 C   0  0  0  0  0  0  0  0  0  0  0  0
    7.1185    9.7368    0.5144 C   0  0  0  0  0  0  0  0  0  0  0  0
    7.3156    9.7106   -0.8208 N   0  0  0  0  0  0  0  0  0  0  0  0
    8.5859    9.8449   -1.2389 C   0  0  0  0  0  0  0  0  0  0  0  0
    9.6636   10.0166   -0.3833 C   0  0  0  0  0  0  0  0  0  0  0  0
    9.4589   10.0563    1.0150 C   0  0  0  0  0  0  0  0  0  0  0  0
   15.4250    9.3912    2.0689 C   0  0  0  0  0  0  0  0  0  0  0  0
   14.1089    8.6171    1.9853 C   0  0  0  0  0  0  0  0  0  0  0  0
   14.2969    7.2416    2.6767 C   0  0  0  0  0  0  0  0  0  0  0  0
   13.0913    6.4033    2.6899 N   0  0  0  0  0  0  0  0  0  0  0  0
   11.8772    7.1965    2.9247 C   0  0  0  0  0  0  0  0  0  0  0  0
   12.1225    8.5953    3.5178 C   0  0  0  0  0  0  0  0  0  0  0  0
   13.0141    9.4325    2.6461 N   0  0  0  0  0  0  0  0  0  0  0  0
   13.1804    5.7088    3.4316 H   0  0  0  0  0  0  0  0  0  0  0  0
 16 15  1  0
 16 17  1  0
 17 18  1  0
 18 19  1  0
 19 20  1  0
 20 21  1  0
 21  1  1  0
  1  2  2  0
  1  3  2  0
  1  4  1  0
  4  5  2  0
  5  6  1  0
  6  7  1  0
  6  8  2  0
  8  9  1  0
  9 10  2  0
 10 11  1  0
 11 12  2  0
 12 13  1  0
 13 14  2  0
 21 16  1  0
 14  4  1  0
 14  9  1  0
 18 22  1  0
M  END
> <minimizedAffinity>
-7.69334

> <CNNscore>
0.1414285451

> <CNNaffinity>
5.2392864227

> <CNN_VS>
0.7409846783

> <CNNaffinity_variance>
0.0917520896

$$$$



 22 24  0  0  0  0  0  0  0  0999 V2000
   17.1668   10.5123   -0.1718 S   0  0  0  0  0  0  0  0  0  0  0  0
   18.1978   10.7705    0.8088 O   0  0  0  0  0  0  0  0  0  0  0  0
   16.7334   11.5518   -1.0821 O   0  0  0  0  0  0  0  0  0  0  0  0
   15.7343    9.9209    0.7170 C   0  0  0  0  0  0  0  0  0  0  0  0
   14.4798   10.1601    0.1329 C   0  0  0  0  0  0  0  0  0  0  0  0
   13.3309    9.7068    0.7655 C   0  0  0  0  0  0  0  0  0  0  0  0
   11.6408   10.0162   -0.0215 Br  0  0  0  0  0  0  0  0  0  0  0  0
   13.4152    9.0214    1.9727 C   0  0  0  0  0  0  0  0  0  0  0  0
   14.6647    8.7855    2.5712 C   0  0  0  0  0  0  0  0  0  0  0  0
   14.7598    8.1006    3.7856 C   0  0  0  0  0  0  0  0  0  0  0  0
   15.9148    7.8325    4.4312 N   0  0  0  0  0  0  0  0  0  0  0  0
   17.0411    8.2767    3.8476 C   0  0  0  0  0  0  0  0  0  0  0  0
   17.0644    8.9644    2.6436 C   0  0  0  0  0  0  0  0  0  0  0  0
   15.8576    9.2364    1.9594 C   0  0  0  0  0  0  0  0  0  0  0  0
   17.6775    9.8193   -3.5192 C   0  0  0  0  0  0  0  0  0  0  0  0
   16.8784    9.0748   -2.4489 C   0  0  0  0  0  0  0  0  0  0  0  0
   16.6873    7.6047   -2.9046 C   0  0  0  0  0  0  0  0  0  0  0  0
   15.9531    6.7672   -1.9477 N   0  0  0  0  0  0  0  0  0  0  0  0
   16.3187    7.0761   -0.5587 C   0  0  0  0  0  0  0  0  0  0  0  0
   17.6376    7.8521   -0.3939 C   0  0  0  0  0  0  0  0  0  0  0  0
   17.6208    9.1615   -1.1293 N   0  0  0  0  0  0  0  0  0  0  0  0
   16.1664    5.7875   -2.1350 H   0  0  0  0  0  0  0  0  0  0  0  0
 16 15  1  0
 16 17  1  0
 17 18  1  0
 18 19  1  0
 19 20  1  0
 20 21  1  0
 21  1  1  0
  1  2  2  0
  1  3  2  0
  1  4  1  0
  4  5  2  0
  5  6  1  0
  6  7  1  0
  6  8  2  0
  8  9  1  0
  9 10  2  0
 10 11  1  0
 11 12  2  0
 12 13  1  0
 13 14  2  0
 21 16  1  0
 14  4  1  0
 14  9  1  0
 18 22  1  0
M  END
> <minimizedAffinity>
-6.95930

> <CNNscore>
0.1240247115

> <CNNaffinity>
4.6828441620

> <CNN_VS>
0.5807883739

> <CNNaffinity_variance>
0.4523526728

$$$$
