


 20 20  0  0  0  0  0  0  0  0999 V2000
    0.0808   -0.9647   -2.3633 S   0  0  0  0  0  0  0  0  0  0  0  0
    0.0162    0.4531   -2.6369 O   0  0  0  0  0  0  0  0  0  0  0  0
   -0.9649   -1.6512   -1.6393 O   0  0  0  0  0  0  0  0  0  0  0  0
    4.0238   -1.8012   -0.1928 C   0  0  0  0  0  0  0  0  0  0  0  0
    2.8257   -1.6906    0.5230 C   0  0  0  0  0  0  0  0  0  0  0  0
    1.6224   -1.4310   -0.1407 C   0  0  0  0  0  0  0  0  0  0  0  0
    1.6132   -1.2911   -1.5298 C   0  0  0  0  0  0  0  0  0  0  0  0
    2.7991   -1.3732   -2.2600 C   0  0  0  0  0  0  0  0  0  0  0  0
    3.9958   -1.6378   -1.5894 C   0  0  0  0  0  0  0  0  0  0  0  0
    5.5772   -1.7742   -2.6361 Br  0  0  0  0  0  0  0  0  0  0  0  0
    5.4199   -3.3329    0.9972 C   0  0  0  0  0  0  0  0  0  0  0  0
    5.2418   -2.0673    0.3746 O   0  0  0  0  0  0  0  0  0  0  0  0
    0.2534   -1.7616   -3.8284 N   0  0  0  0  0  0  0  0  0  0  0  0
    0.1106   -2.7550   -3.6462 H   0  0  0  0  0  0  0  0  0  0  0  0
   -0.6324   -1.3969   -4.9552 C   0  0  0  0  0  0  0  0  0  0  0  0
   -1.0418    0.0594   -4.7910 C   0  0  0  0  0  0  0  0  0  0  0  0
   -1.8721   -2.2769   -4.9346 C   0  0  0  0  0  0  0  0  0  0  0  0
   -2.7755   -2.2220   -4.1128 O   0  0  0  0  0  0  0  0  0  0  0  0
   -1.9078   -3.1709   -5.9402 O   0  0  0  0  0  0  0  0  0  0  0  0
   -1.2091   -3.2029   -6.5637 H   0  0  0  0  0  0  0  0  0  0  0  0
 11 12  1  0
 12  4  1  0
  4  5  2  0
  5  6  1  0
  6  7  2  0
  7  1  1  0
  1  2  2  0
  1  3  2  0
  1 13  1  0
 13 15  1  0
 15 16  1  0
 15 17  1  0
 17 18  2  0
 17 19  1  0
  7  8  1  0
  8  9  2  0
  9 10  1  0
  9  4  1  0
 13 14  1  0
 19 20  1  0
M  END
> <minimizedAffinity>
-4.67706

> <CNNscore>
0.7692598104

> <CNNaffinity>
4.9464449883

> <CNN_VS>
3.8051013947

> <CNNaffinity_variance>
0.0747977495

$$$$



 20 20  0  0  0  0  0  0  0  0999 V2000
   -1.5471   -6.0247   -5.1267 S   0  0  0  0  0  0  0  0  0  0  0  0
   -0.1659   -6.0209   -5.5528 O   0  0  0  0  0  0  0  0  0  0  0  0
   -2.0457   -6.9771   -4.1607 O   0  0  0  0  0  0  0  0  0  0  0  0
   -4.1561   -6.3322   -8.8760 C   0  0  0  0  0  0  0  0  0  0  0  0
   -2.7706   -6.1625   -8.9837 C   0  0  0  0  0  0  0  0  0  0  0  0
   -1.9751   -6.0646   -7.8376 C   0  0  0  0  0  0  0  0  0  0  0  0
   -2.5653   -6.1470   -6.5751 C   0  0  0  0  0  0  0  0  0  0  0  0
   -3.9468   -6.2914   -6.4447 C   0  0  0  0  0  0  0  0  0  0  0  0
   -4.7332   -6.3935   -7.5949 C   0  0  0  0  0  0  0  0  0  0  0  0
   -6.6058   -6.6241   -7.3604 Br  0  0  0  0  0  0  0  0  0  0  0  0
   -5.7831   -7.6375  -10.0423 C   0  0  0  0  0  0  0  0  0  0  0  0
   -5.0059   -6.4512   -9.9436 O   0  0  0  0  0  0  0  0  0  0  0  0
   -1.9015   -4.5002   -4.5253 N   0  0  0  0  0  0  0  0  0  0  0  0
   -2.1431   -4.6166   -3.5412 H   0  0  0  0  0  0  0  0  0  0  0  0
   -0.8717   -3.4410   -4.5954 C   0  0  0  0  0  0  0  0  0  0  0  0
   -0.1858   -3.3490   -3.2402 C   0  0  0  0  0  0  0  0  0  0  0  0
   -1.5306   -2.1101   -4.9208 C   0  0  0  0  0  0  0  0  0  0  0  0
   -1.0183   -1.1903   -5.5422 O   0  0  0  0  0  0  0  0  0  0  0  0
   -2.7879   -2.0089   -4.4508 O   0  0  0  0  0  0  0  0  0  0  0  0
   -3.1693   -2.7210   -3.9760 H   0  0  0  0  0  0  0  0  0  0  0  0
 11 12  1  0
 12  4  1  0
  4  5  2  0
  5  6  1  0
  6  7  2  0
  7  1  1  0
  1  2  2  0
  1  3  2  0
  1 13  1  0
 13 15  1  0
 15 16  1  0
 15 17  1  0
 17 18  2  0
 17 19  1  0
  7  8  1  0
  8  9  2  0
  9 10  1  0
  9  4  1  0
 13 14  1  0
 19 20  1  0
M  END
> <minimizedAffinity>
-7.13611

> <CNNscore>
0.7161899805

> <CNNaffinity>
5.4229846001

> <CNN_VS>
3.8838872910

> <CNNaffinity_variance>
0.2016278505

$$$$



 20 20  0  0  0  0  0  0  0  0999 V2000
   -7.1086   -7.8215   -9.5237 S   0  0  0  0  0  0  0  0  0  0  0  0
   -6.9185   -9.2243   -9.2318 O   0  0  0  0  0  0  0  0  0  0  0  0
   -7.4572   -7.3572  -10.8473 O   0  0  0  0  0  0  0  0  0  0  0  0
   -3.3206   -5.5907   -8.2459 C   0  0  0  0  0  0  0  0  0  0  0  0
   -3.5592   -5.8751   -9.5958 C   0  0  0  0  0  0  0  0  0  0  0  0
   -4.7148   -6.5602   -9.9846 C   0  0  0  0  0  0  0  0  0  0  0  0
   -5.6438   -6.9552   -9.0202 C   0  0  0  0  0  0  0  0  0  0  0  0
   -5.4141   -6.7038   -7.6673 C   0  0  0  0  0  0  0  0  0  0  0  0
   -4.2595   -6.0144   -7.2884 C   0  0  0  0  0  0  0  0  0  0  0  0
   -4.0126   -5.6673   -5.4355 Br  0  0  0  0  0  0  0  0  0  0  0  0
   -2.0424   -4.8375   -6.3724 C   0  0  0  0  0  0  0  0  0  0  0  0
   -2.2247   -4.9137   -7.7803 O   0  0  0  0  0  0  0  0  0  0  0  0
   -8.2871   -7.2373   -8.4839 N   0  0  0  0  0  0  0  0  0  0  0  0
   -8.5273   -6.2986   -8.8026 H   0  0  0  0  0  0  0  0  0  0  0  0
   -9.5559   -7.9836   -8.3414 C   0  0  0  0  0  0  0  0  0  0  0  0
   -9.2751   -9.2626   -7.5663 C   0  0  0  0  0  0  0  0  0  0  0  0
  -10.0984   -8.3344   -9.7177 C   0  0  0  0  0  0  0  0  0  0  0  0
  -11.0820   -7.8381  -10.2476 O   0  0  0  0  0  0  0  0  0  0  0  0
   -9.3803   -9.2828  -10.3477 O   0  0  0  0  0  0  0  0  0  0  0  0
   -8.6284   -9.6554   -9.9308 H   0  0  0  0  0  0  0  0  0  0  0  0
 11 12  1  0
 12  4  1  0
  4  5  2  0
  5  6  1  0
  6  7  2  0
  7  1  1  0
  1  2  2  0
  1  3  2  0
  1 13  1  0
 13 15  1  0
 15 16  1  0
 15 17  1  0
 17 18  2  0
 17 19  1  0
  7  8  1  0
  8  9  2  0
  9 10  1  0
  9  4  1  0
 13 14  1  0
 19 20  1  0
M  END
> <minimizedAffinity>
-6.53984

> <CNNscore>
0.6716825962

> <CNNaffinity>
4.9865169525

> <CNN_VS>
3.3493566513

> <CNNaffinity_variance>
0.8708240390

$$$$



 20 20  0  0  0  0  0  0  0  0999 V2000
   -2.9189   -5.9713   -8.1293 S   0  0  0  0  0  0  0  0  0  0  0  0
   -2.8751   -4.5277   -8.0717 O   0  0  0  0  0  0  0  0  0  0  0  0
   -2.2526   -6.7145   -9.1746 O   0  0  0  0  0  0  0  0  0  0  0  0
   -7.3151   -7.2480   -8.0870 C   0  0  0  0  0  0  0  0  0  0  0  0
   -6.7247   -6.6875   -6.9480 C   0  0  0  0  0  0  0  0  0  0  0  0
   -5.3805   -6.3016   -6.9608 C   0  0  0  0  0  0  0  0  0  0  0  0
   -4.6230   -6.4668   -8.1219 C   0  0  0  0  0  0  0  0  0  0  0  0
   -5.1846   -7.0457   -9.2602 C   0  0  0  0  0  0  0  0  0  0  0  0
   -6.5294   -7.4236   -9.2402 C   0  0  0  0  0  0  0  0  0  0  0  0
   -7.2539   -8.1754  -10.8292 Br  0  0  0  0  0  0  0  0  0  0  0  0
   -9.0010   -8.8337   -7.4916 C   0  0  0  0  0  0  0  0  0  0  0  0
   -8.6253   -7.6396   -8.1656 O   0  0  0  0  0  0  0  0  0  0  0  0
   -2.3326   -6.5598   -6.6729 N   0  0  0  0  0  0  0  0  0  0  0  0
   -1.5996   -7.2329   -6.8966 H   0  0  0  0  0  0  0  0  0  0  0  0
   -1.7642   -5.6123   -5.6898 C   0  0  0  0  0  0  0  0  0  0  0  0
   -2.6408   -4.3689   -5.6605 C   0  0  0  0  0  0  0  0  0  0  0  0
   -0.3541   -5.2280   -6.1085 C   0  0  0  0  0  0  0  0  0  0  0  0
    0.6466   -5.3063   -5.4106 O   0  0  0  0  0  0  0  0  0  0  0  0
   -0.2797   -4.7695   -7.3719 O   0  0  0  0  0  0  0  0  0  0  0  0
   -1.0540   -4.7143   -7.8966 H   0  0  0  0  0  0  0  0  0  0  0  0
 11 12  1  0
 12  4  1  0
  4  5  2  0
  5  6  1  0
  6  7  2  0
  7  1  1  0
  1  2  2  0
  1  3  2  0
  1 13  1  0
 13 15  1  0
 15 16  1  0
 15 17  1  0
 17 18  2  0
 17 19  1  0
  7  8  1  0
  8  9  2  0
  9 10  1  0
  9  4  1  0
 13 14  1  0
 19 20  1  0
M  END
> <minimizedAffinity>
-7.14921

> <CNNscore>
0.6710190773

> <CNNaffinity>
4.6532869339

> <CNN_VS>
3.1224443913

> <CNNaffinity_variance>
0.3544695377

$$$$



 20 20  0  0  0  0  0  0  0  0999 V2000
   -3.9435   -6.1980   -9.0215 S   0  0  0  0  0  0  0  0  0  0  0  0
   -3.9926   -4.9443   -9.7391 O   0  0  0  0  0  0  0  0  0  0  0  0
   -2.9203   -7.1858   -9.2790 O   0  0  0  0  0  0  0  0  0  0  0  0
   -8.0020   -8.2560   -9.5234 C   0  0  0  0  0  0  0  0  0  0  0  0
   -7.0965   -8.1961  -10.5894 C   0  0  0  0  0  0  0  0  0  0  0  0
   -5.8586   -7.5636  -10.4362 C   0  0  0  0  0  0  0  0  0  0  0  0
   -5.5178   -6.9958   -9.2071 C   0  0  0  0  0  0  0  0  0  0  0  0
   -6.4149   -7.0226   -8.1389 C   0  0  0  0  0  0  0  0  0  0  0  0
   -7.6472   -7.6610   -8.2994 C   0  0  0  0  0  0  0  0  0  0  0  0
   -8.8178   -7.6990   -6.8017 Br  0  0  0  0  0  0  0  0  0  0  0  0
  -10.1360   -8.4311  -10.5847 C   0  0  0  0  0  0  0  0  0  0  0  0
   -9.2267   -8.8666   -9.5824 O   0  0  0  0  0  0  0  0  0  0  0  0
   -3.8715   -5.8478   -7.3834 N   0  0  0  0  0  0  0  0  0  0  0  0
   -4.6200   -6.3742   -6.9327 H   0  0  0  0  0  0  0  0  0  0  0  0
   -2.6279   -6.1403   -6.6383 C   0  0  0  0  0  0  0  0  0  0  0  0
   -2.9963   -6.4550   -5.1958 C   0  0  0  0  0  0  0  0  0  0  0  0
   -1.7145   -4.9254   -6.6741 C   0  0  0  0  0  0  0  0  0  0  0  0
   -0.6095   -4.8754   -7.1949 O   0  0  0  0  0  0  0  0  0  0  0  0
   -2.2359   -3.8483   -6.0580 O   0  0  0  0  0  0  0  0  0  0  0  0
   -3.0839   -3.8995   -5.6626 H   0  0  0  0  0  0  0  0  0  0  0  0
 11 12  1  0
 12  4  1  0
  4  5  2  0
  5  6  1  0
  6  7  2  0
  7  1  1  0
  1  2  2  0
  1  3  2  0
  1 13  1  0
 13 15  1  0
 15 16  1  0
 15 17  1  0
 17 18  2  0
 17 19  1  0
  7  8  1  0
  8  9  2  0
  9 10  1  0
  9  4  1  0
 13 14  1  0
 19 20  1  0
M  END
> <minimizedAffinity>
-6.14317

> <CNNscore>
0.6451358199

> <CNNaffinity>
4.5814843178

> <CNN_VS>
2.9556796551

> <CNNaffinity_variance>
0.3466511965

$$$$



 20 20  0  0  0  0  0  0  0  0999 V2000
   -7.7483   -7.9562   -9.6894 S   0  0  0  0  0  0  0  0  0  0  0  0
   -7.5935   -8.7022  -10.9176 O   0  0  0  0  0  0  0  0  0  0  0  0
   -8.7119   -6.8865   -9.5618 O   0  0  0  0  0  0  0  0  0  0  0  0
   -3.6415   -6.2789   -8.5581 C   0  0  0  0  0  0  0  0  0  0  0  0
   -3.9023   -6.7035   -9.8664 C   0  0  0  0  0  0  0  0  0  0  0  0
   -5.1559   -7.2195  -10.2099 C   0  0  0  0  0  0  0  0  0  0  0  0
   -6.1597   -7.3027   -9.2431 C   0  0  0  0  0  0  0  0  0  0  0  0
   -5.9138   -6.9081   -7.9278 C   0  0  0  0  0  0  0  0  0  0  0  0
   -4.6602   -6.3892   -7.5947 C   0  0  0  0  0  0  0  0  0  0  0  0
   -4.3894   -5.8341   -5.7965 Br  0  0  0  0  0  0  0  0  0  0  0  0
   -1.9779   -4.5800   -8.7970 C   0  0  0  0  0  0  0  0  0  0  0  0
   -2.4495   -5.7492   -8.1400 O   0  0  0  0  0  0  0  0  0  0  0  0
   -8.0808   -9.0509   -8.4638 N   0  0  0  0  0  0  0  0  0  0  0  0
   -7.6617   -8.6803   -7.6109 H   0  0  0  0  0  0  0  0  0  0  0  0
   -9.4894   -9.3734   -8.1487 C   0  0  0  0  0  0  0  0  0  0  0  0
  -10.3744   -8.7505   -9.2185 C   0  0  0  0  0  0  0  0  0  0  0  0
   -9.8533   -8.7948   -6.7906 C   0  0  0  0  0  0  0  0  0  0  0  0
  -10.6163   -9.2984   -5.9790 O   0  0  0  0  0  0  0  0  0  0  0  0
   -9.2430   -7.6239   -6.5293 O   0  0  0  0  0  0  0  0  0  0  0  0
   -8.6603   -7.2484   -7.1597 H   0  0  0  0  0  0  0  0  0  0  0  0
 11 12  1  0
 12  4  1  0
  4  5  2  0
  5  6  1  0
  6  7  2  0
  7  1  1  0
  1  2  2  0
  1  3  2  0
  1 13  1  0
 13 15  1  0
 15 16  1  0
 15 17  1  0
 17 18  2  0
 17 19  1  0
  7  8  1  0
  8  9  2  0
  9 10  1  0
  9  4  1  0
 13 14  1  0
 19 20  1  0
M  END
> <minimizedAffinity>
-5.06220

> <CNNscore>
0.5545050502

> <CNNaffinity>
5.0577578545

> <CNN_VS>
2.8045523167

> <CNNaffinity_variance>
1.0897010565

$$$$



 20 20  0  0  0  0  0  0  0  0999 V2000
   -6.8304   -7.6549   -9.6655 S   0  0  0  0  0  0  0  0  0  0  0  0
   -6.5999   -9.0818   -9.6775 O   0  0  0  0  0  0  0  0  0  0  0  0
   -6.8092   -6.8677  -10.8774 O   0  0  0  0  0  0  0  0  0  0  0  0
   -3.8726   -5.7665   -6.7255 C   0  0  0  0  0  0  0  0  0  0  0  0
   -5.1701   -6.0977   -6.3172 C   0  0  0  0  0  0  0  0  0  0  0  0
   -6.0742   -6.6709   -7.2173 C   0  0  0  0  0  0  0  0  0  0  0  0
   -5.6771   -6.9246   -8.5315 C   0  0  0  0  0  0  0  0  0  0  0  0
   -4.3969   -6.5801   -8.9660 C   0  0  0  0  0  0  0  0  0  0  0  0
   -3.4987   -6.0126   -8.0588 C   0  0  0  0  0  0  0  0  0  0  0  0
   -1.7561   -5.5943   -8.6938 Br  0  0  0  0  0  0  0  0  0  0  0  0
   -2.2712   -6.0738   -4.9785 C   0  0  0  0  0  0  0  0  0  0  0  0
   -2.9213   -5.2165   -5.9077 O   0  0  0  0  0  0  0  0  0  0  0  0
   -8.3182   -7.3828   -8.9419 N   0  0  0  0  0  0  0  0  0  0  0  0
   -8.8771   -6.8431   -9.6029 H   0  0  0  0  0  0  0  0  0  0  0  0
   -9.1392   -8.5404   -8.5257 C   0  0  0  0  0  0  0  0  0  0  0  0
  -10.3969   -8.5684   -9.3818 C   0  0  0  0  0  0  0  0  0  0  0  0
   -9.5256   -8.3916   -7.0628 C   0  0  0  0  0  0  0  0  0  0  0  0
  -10.0856   -9.2375   -6.3805 O   0  0  0  0  0  0  0  0  0  0  0  0
   -9.1897   -7.1968   -6.5417 O   0  0  0  0  0  0  0  0  0  0  0  0
   -8.7608   -6.5570   -7.0752 H   0  0  0  0  0  0  0  0  0  0  0  0
 11 12  1  0
 12  4  1  0
  4  5  2  0
  5  6  1  0
  6  7  2  0
  7  1  1  0
  1  2  2  0
  1  3  2  0
  1 13  1  0
 13 15  1  0
 15 16  1  0
 15 17  1  0
 17 18  2  0
 17 19  1  0
  7  8  1  0
  8  9  2  0
  9 10  1  0
  9  4  1  0
 13 14  1  0
 19 20  1  0
M  END
> <minimizedAffinity>
-7.50276

> <CNNscore>
0.5383857489

> <CNNaffinity>
4.9825510979

> <CNN_VS>
2.6825344563

> <CNNaffinity_variance>
0.9691537023

$$$$



 20 20  0  0  0  0  0  0  0  0999 V2000
   -3.3635   -5.8146   -7.6046 S   0  0  0  0  0  0  0  0  0  0  0  0
   -2.9508   -4.6820   -8.4022 O   0  0  0  0  0  0  0  0  0  0  0  0
   -2.4667   -6.9094   -7.3113 O   0  0  0  0  0  0  0  0  0  0  0  0
   -7.1216   -7.5788   -9.5338 C   0  0  0  0  0  0  0  0  0  0  0  0
   -6.0015   -7.2641  -10.3124 C   0  0  0  0  0  0  0  0  0  0  0  0
   -4.8554   -6.7214   -9.7225 C   0  0  0  0  0  0  0  0  0  0  0  0
   -4.8234   -6.5008   -8.3443 C   0  0  0  0  0  0  0  0  0  0  0  0
   -5.9371   -6.7843   -7.5533 C   0  0  0  0  0  0  0  0  0  0  0  0
   -7.0759   -7.3309   -8.1502 C   0  0  0  0  0  0  0  0  0  0  0  0
   -8.5526   -7.7308   -7.0213 Br  0  0  0  0  0  0  0  0  0  0  0  0
   -9.4241   -8.1166   -9.1868 C   0  0  0  0  0  0  0  0  0  0  0  0
   -8.2770   -8.1252  -10.0265 O   0  0  0  0  0  0  0  0  0  0  0  0
   -3.9076   -5.2312   -6.1299 N   0  0  0  0  0  0  0  0  0  0  0  0
   -4.4884   -5.9607   -5.7165 H   0  0  0  0  0  0  0  0  0  0  0  0
   -2.9196   -4.8320   -5.1044 C   0  0  0  0  0  0  0  0  0  0  0  0
   -2.0223   -3.7552   -5.6970 C   0  0  0  0  0  0  0  0  0  0  0  0
   -2.0762   -6.0351   -4.7134 C   0  0  0  0  0  0  0  0  0  0  0  0
   -0.8567   -6.0584   -4.6314 O   0  0  0  0  0  0  0  0  0  0  0  0
   -2.8065   -7.1345   -4.4490 O   0  0  0  0  0  0  0  0  0  0  0  0
   -3.7406   -7.1036   -4.5155 H   0  0  0  0  0  0  0  0  0  0  0  0
 11 12  1  0
 12  4  1  0
  4  5  2  0
  5  6  1  0
  6  7  2  0
  7  1  1  0
  1  2  2  0
  1  3  2  0
  1 13  1  0
 13 15  1  0
 15 16  1  0
 15 17  1  0
 17 18  2  0
 17 19  1  0
  7  8  1  0
  8  9  2  0
  9 10  1  0
  9  4  1  0
 13 14  1  0
 19 20  1  0
M  END
> <minimizedAffinity>
-7.00738

> <CNNscore>
0.4923630655

> <CNNaffinity>
4.7458891869

> <CNN_VS>
2.3367004395

> <CNNaffinity_variance>
0.1673247367

$$$$



 20 20  0  0  0  0  0  0  0  0999 V2000
   -2.8990   -5.5166   -6.3680 S   0  0  0  0  0  0  0  0  0  0  0  0
   -3.5692   -5.3251   -5.1017 O   0  0  0  0  0  0  0  0  0  0  0  0
   -2.1332   -4.4626   -6.9939 O   0  0  0  0  0  0  0  0  0  0  0  0
   -5.9946   -6.9491   -9.4214 C   0  0  0  0  0  0  0  0  0  0  0  0
   -4.7155   -6.5568   -9.8336 C   0  0  0  0  0  0  0  0  0  0  0  0
   -3.7719   -6.1155   -8.9004 C   0  0  0  0  0  0  0  0  0  0  0  0
   -4.1040   -6.0753   -7.5450 C   0  0  0  0  0  0  0  0  0  0  0  0
   -5.3806   -6.4384   -7.1151 C   0  0  0  0  0  0  0  0  0  0  0  0
   -6.3153   -6.8828   -8.0536 C   0  0  0  0  0  0  0  0  0  0  0  0
   -8.0284   -7.3985   -7.4102 Br  0  0  0  0  0  0  0  0  0  0  0  0
   -6.9692   -8.7895  -10.5936 C   0  0  0  0  0  0  0  0  0  0  0  0
   -6.9724   -7.4065  -10.2646 O   0  0  0  0  0  0  0  0  0  0  0  0
   -1.8682   -6.8293   -6.2083 N   0  0  0  0  0  0  0  0  0  0  0  0
   -1.3083   -6.8742   -7.0597 H   0  0  0  0  0  0  0  0  0  0  0  0
   -0.9265   -6.8711   -5.0687 C   0  0  0  0  0  0  0  0  0  0  0  0
   -1.7099   -7.2224   -3.8123 C   0  0  0  0  0  0  0  0  0  0  0  0
   -0.2757   -5.5081   -4.8950 C   0  0  0  0  0  0  0  0  0  0  0  0
   -0.4310   -4.7565   -3.9434 O   0  0  0  0  0  0  0  0  0  0  0  0
    0.5285   -5.1671   -5.9191 O   0  0  0  0  0  0  0  0  0  0  0  0
    0.6393   -5.7521   -6.6427 H   0  0  0  0  0  0  0  0  0  0  0  0
 11 12  1  0
 12  4  1  0
  4  5  2  0
  5  6  1  0
  6  7  2  0
  7  1  1  0
  1  2  2  0
  1  3  2  0
  1 13  1  0
 13 15  1  0
 15 16  1  0
 15 17  1  0
 17 18  2  0
 17 19  1  0
  7  8  1  0
  8  9  2  0
  9 10  1  0
  9  4  1  0
 13 14  1  0
 19 20  1  0
M  END
> <minimizedAffinity>
-7.38182

> <CNNscore>
0.4647780955

> <CNNaffinity>
4.1477589607

> <CNN_VS>
1.9277875423

> <CNNaffinity_variance>
0.6918653846

$$$$
