


 36 39  0  0  0  0  0  0  0  0999 V2000
  -40.9156   -2.5531    0.2378 N   0  0  0  0  0  0  0  0  0  0  0  0
  -41.6870   -2.5819   -0.9088 C   0  0  0  0  0  0  0  0  0  0  0  0
  -41.3178   -2.8419   -2.0464 O   0  0  0  0  0  0  0  0  0  0  0  0
  -41.3951   -2.3437    1.0717 H   0  0  0  0  0  0  0  0  0  0  0  0
  -43.1293   -2.2614   -0.6455 C   0  0  0  0  0  0  0  0  0  0  0  0
  -44.0351   -2.1816   -1.6980 C   0  0  0  0  0  0  0  0  0  0  0  0
  -45.3619   -1.8812   -1.4020 C   0  0  0  0  0  0  0  0  0  0  0  0
  -45.7265   -1.6659   -0.0784 C   0  0  0  0  0  0  0  0  0  0  0  0
  -46.9994   -1.3626    0.2127 F   0  0  0  0  0  0  0  0  0  0  0  0
  -44.7611   -1.7577    0.9237 C   0  0  0  0  0  0  0  0  0  0  0  0
  -43.4621   -2.0644    0.6634 N   0  0  0  0  0  0  0  0  0  0  0  0
  -45.0752   -1.5193    2.3244 C   0  0  0  0  0  0  0  0  0  0  0  0
  -45.9133   -0.4710    2.7156 C   0  0  0  0  0  0  0  0  0  0  0  0
  -46.4374    0.3483    1.7914 F   0  0  0  0  0  0  0  0  0  0  0  0
  -46.2396   -0.2536    4.0528 C   0  0  0  0  0  0  0  0  0  0  0  0
  -45.7179   -1.0998    5.0267 C   0  0  0  0  0  0  0  0  0  0  0  0
  -46.1271   -0.8549    6.6786 Cl  0  0  0  0  0  0  0  0  0  0  0  0
  -44.8712   -2.1444    4.6720 C   0  0  0  0  0  0  0  0  0  0  0  0
  -44.5590   -2.3436    3.3290 C   0  0  0  0  0  0  0  0  0  0  0  0
  -43.7293   -3.3487    3.0110 F   0  0  0  0  0  0  0  0  0  0  0  0
  -38.9627   -3.0667    1.6287 C   0  0  0  0  0  0  0  0  0  0  0  0
  -37.5671   -3.2668    1.6880 C   0  0  0  0  0  0  0  0  0  0  0  0
  -36.8046   -3.1910    0.5348 C   0  0  0  0  0  0  0  0  0  0  0  0
  -37.3213   -2.9317   -0.6755 N   0  0  0  0  0  0  0  0  0  0  0  0
  -38.6637   -2.7369   -0.7300 C   0  0  0  0  0  0  0  0  0  0  0  0
  -39.5313   -2.7847    0.3679 C   0  0  0  0  0  0  0  0  0  0  0  0
  -41.0680   -0.6950    5.6004 C   0  0  0  0  0  0  0  0  0  0  0  0
  -40.8620   -2.0337    4.8925 C   0  0  0  0  0  0  0  0  0  0  0  0
  -40.2298   -3.0551    5.8473 C   0  0  0  0  0  0  0  0  0  0  0  0
  -39.9862   -4.4022    5.1590 C   0  0  0  0  0  0  0  0  0  0  0  0
  -39.3520   -5.3220    6.1026 N   0  0  0  0  0  0  0  0  0  0  0  0
  -39.1099   -4.2389    3.9093 C   0  0  0  0  0  0  0  0  0  0  0  0
  -39.7193   -3.2029    2.9470 C   0  0  0  0  0  0  0  0  0  0  0  0
  -39.9979   -1.8531    3.6348 C   0  0  0  0  0  0  0  0  0  0  0  0
  -38.4537   -4.9399    6.3984 H   0  0  0  0  0  0  0  0  0  0  0  0
  -39.2054   -6.2248    5.6510 H   0  0  0  0  0  0  0  0  0  0  0  0
 28 27  1  0
 28 29  1  0
 29 30  1  0
 30 31  1  0
 30 32  1  0
 32 33  1  0
 33 21  1  0
 21 22  2  0
 22 23  1  0
 23 24  2  0
 24 25  1  0
 25 26  2  0
 26  1  1  0
  1  2  1  0
  2  3  2  0
  2  5  1  0
  5  6  2  0
  6  7  1  0
  7  8  2  0
  8  9  1  0
  8 10  1  0
 10 12  1  0
 12 13  2  0
 13 14  1  0
 13 15  1  0
 15 16  2  0
 16 17  1  0
 16 18  1  0
 18 19  2  0
 19 20  1  0
 10 11  2  0
 33 34  1  0
 34 28  1  0
 26 21  1  0
 11  5  1  0
 19 12  1  0
 31 35  1  0
 31 36  1  0
  1  4  1  0
M  END
> <minimizedAffinity>
-11.33194

> <CNNscore>
0.9604791403

> <CNNaffinity>
9.2952804565

> <CNN_VS>
8.9279232025

> <CNNaffinity_variance>
0.0798699781

$$$$



 36 39  0  0  0  0  0  0  0  0999 V2000
  -40.8369   -2.4069    0.7031 N   0  0  0  0  0  0  0  0  0  0  0  0
  -41.8272   -2.6500   -0.2301 C   0  0  0  0  0  0  0  0  0  0  0  0
  -41.7090   -3.2162   -1.3088 O   0  0  0  0  0  0  0  0  0  0  0  0
  -41.1272   -1.9549    1.5281 H   0  0  0  0  0  0  0  0  0  0  0  0
  -43.1717   -2.1461    0.2066 C   0  0  0  0  0  0  0  0  0  0  0  0
  -44.0932   -1.6965   -0.7334 C   0  0  0  0  0  0  0  0  0  0  0  0
  -45.3265   -1.2385   -0.2779 C   0  0  0  0  0  0  0  0  0  0  0  0
  -45.5852   -1.2401    1.0875 C   0  0  0  0  0  0  0  0  0  0  0  0
  -46.7654   -0.7877    1.5343 F   0  0  0  0  0  0  0  0  0  0  0  0
  -44.6098   -1.7012    1.9709 C   0  0  0  0  0  0  0  0  0  0  0  0
  -43.4033   -2.1677    1.5514 N   0  0  0  0  0  0  0  0  0  0  0  0
  -44.8112   -1.7050    3.4120 C   0  0  0  0  0  0  0  0  0  0  0  0
  -45.7794   -2.5165    4.0109 C   0  0  0  0  0  0  0  0  0  0  0  0
  -46.5551   -3.3054    3.2519 F   0  0  0  0  0  0  0  0  0  0  0  0
  -45.9592   -2.5449    5.3924 C   0  0  0  0  0  0  0  0  0  0  0  0
  -45.1564   -1.7447    6.1997 C   0  0  0  0  0  0  0  0  0  0  0  0
  -45.3544   -1.7837    7.9072 Cl  0  0  0  0  0  0  0  0  0  0  0  0
  -44.1923   -0.9169    5.6345 C   0  0  0  0  0  0  0  0  0  0  0  0
  -44.0295   -0.9050    4.2510 C   0  0  0  0  0  0  0  0  0  0  0  0
  -43.1031   -0.0886    3.7265 F   0  0  0  0  0  0  0  0  0  0  0  0
  -38.7324   -3.0402    1.7903 C   0  0  0  0  0  0  0  0  0  0  0  0
  -37.3582   -3.3247    1.6419 C   0  0  0  0  0  0  0  0  0  0  0  0
  -36.7738   -3.2935    0.3872 C   0  0  0  0  0  0  0  0  0  0  0  0
  -37.4491   -3.0016   -0.7343 N   0  0  0  0  0  0  0  0  0  0  0  0
  -38.7704   -2.7256   -0.5890 C   0  0  0  0  0  0  0  0  0  0  0  0
  -39.4653   -2.7223    0.6265 C   0  0  0  0  0  0  0  0  0  0  0  0
  -38.0285   -4.6766    6.5504 C   0  0  0  0  0  0  0  0  0  0  0  0
  -38.9161   -3.8566    5.6149 C   0  0  0  0  0  0  0  0  0  0  0  0
  -40.3625   -4.3669    5.6614 C   0  0  0  0  0  0  0  0  0  0  0  0
  -41.2738   -3.5807    4.7132 C   0  0  0  0  0  0  0  0  0  0  0  0
  -42.6272   -4.1317    4.7725 N   0  0  0  0  0  0  0  0  0  0  0  0
  -40.7478   -3.6237    3.2717 C   0  0  0  0  0  0  0  0  0  0  0  0
  -39.2900   -3.1322    3.2079 C   0  0  0  0  0  0  0  0  0  0  0  0
  -38.3689   -3.8941    4.1794 C   0  0  0  0  0  0  0  0  0  0  0  0
  -42.6106   -5.1070    4.4746 H   0  0  0  0  0  0  0  0  0  0  0  0
  -43.2389   -3.5979    4.1550 H   0  0  0  0  0  0  0  0  0  0  0  0
 28 27  1  0
 28 29  1  0
 29 30  1  0
 30 31  1  0
 30 32  1  0
 32 33  1  0
 33 21  1  0
 21 22  2  0
 22 23  1  0
 23 24  2  0
 24 25  1  0
 25 26  2  0
 26  1  1  0
  1  2  1  0
  2  3  2  0
  2  5  1  0
  5  6  2  0
  6  7  1  0
  7  8  2  0
  8  9  1  0
  8 10  1  0
 10 12  1  0
 12 13  2  0
 13 14  1  0
 13 15  1  0
 15 16  2  0
 16 17  1  0
 16 18  1  0
 18 19  2  0
 19 20  1  0
 10 11  2  0
 33 34  1  0
 34 28  1  0
 26 21  1  0
 11  5  1  0
 19 12  1  0
 31 35  1  0
 31 36  1  0
  1  4  1  0
M  END
> <minimizedAffinity>
-10.54543

> <CNNscore>
0.7214056253

> <CNNaffinity>
8.6719770432

> <CNN_VS>
6.2560129166

> <CNNaffinity_variance>
0.0109960260

$$$$



 36 39  0  0  0  0  0  0  0  0999 V2000
  -38.2358   -3.8760    2.6426 N   0  0  0  0  0  0  0  0  0  0  0  0
  -38.4601   -4.2836    1.3410 C   0  0  0  0  0  0  0  0  0  0  0  0
  -38.2621   -5.3939    0.8654 O   0  0  0  0  0  0  0  0  0  0  0  0
  -38.4780   -2.9440    2.8475 H   0  0  0  0  0  0  0  0  0  0  0  0
  -39.0226   -3.1908    0.4800 C   0  0  0  0  0  0  0  0  0  0  0  0
  -38.1792   -2.4033   -0.2967 C   0  0  0  0  0  0  0  0  0  0  0  0
  -38.7496   -1.4021   -1.0782 C   0  0  0  0  0  0  0  0  0  0  0  0
  -40.1273   -1.2235   -1.0469 C   0  0  0  0  0  0  0  0  0  0  0  0
  -40.6821   -0.2525   -1.7862 F   0  0  0  0  0  0  0  0  0  0  0  0
  -40.9089   -2.0488   -0.2391 C   0  0  0  0  0  0  0  0  0  0  0  0
  -40.3788   -3.0434    0.5220 N   0  0  0  0  0  0  0  0  0  0  0  0
  -42.3528   -1.8957   -0.1445 C   0  0  0  0  0  0  0  0  0  0  0  0
  -42.9529   -1.3177    0.9781 C   0  0  0  0  0  0  0  0  0  0  0  0
  -42.1944   -0.9010    2.0034 F   0  0  0  0  0  0  0  0  0  0  0  0
  -44.3328   -1.1436    1.0635 C   0  0  0  0  0  0  0  0  0  0  0  0
  -45.1374   -1.5562    0.0056 C   0  0  0  0  0  0  0  0  0  0  0  0
  -46.8399   -1.3305    0.0893 Cl  0  0  0  0  0  0  0  0  0  0  0  0
  -44.5730   -2.1461   -1.1202 C   0  0  0  0  0  0  0  0  0  0  0  0
  -43.1910   -2.3097   -1.1843 C   0  0  0  0  0  0  0  0  0  0  0  0
  -42.6694   -2.8937   -2.2737 F   0  0  0  0  0  0  0  0  0  0  0  0
  -38.3619   -4.6567    4.9635 C   0  0  0  0  0  0  0  0  0  0  0  0
  -37.7626   -5.4062    5.9981 C   0  0  0  0  0  0  0  0  0  0  0  0
  -36.5754   -6.0808    5.7694 C   0  0  0  0  0  0  0  0  0  0  0  0
  -35.9356   -6.0694    4.5907 N   0  0  0  0  0  0  0  0  0  0  0  0
  -36.5124   -5.3456    3.5975 C   0  0  0  0  0  0  0  0  0  0  0  0
  -37.7052   -4.6218    3.7145 C   0  0  0  0  0  0  0  0  0  0  0  0
  -43.1652   -3.7405    3.5775 C   0  0  0  0  0  0  0  0  0  0  0  0
  -42.1168   -3.5856    4.6785 C   0  0  0  0  0  0  0  0  0  0  0  0
  -41.9537   -2.1088    5.0618 C   0  0  0  0  0  0  0  0  0  0  0  0
  -40.8893   -1.9170    6.1471 C   0  0  0  0  0  0  0  0  0  0  0  0
  -40.7518   -0.4921    6.4462 N   0  0  0  0  0  0  0  0  0  0  0  0
  -39.5374   -2.4987    5.7106 C   0  0  0  0  0  0  0  0  0  0  0  0
  -39.6849   -3.9764    5.3040 C   0  0  0  0  0  0  0  0  0  0  0  0
  -40.7739   -4.1870    4.2352 C   0  0  0  0  0  0  0  0  0  0  0  0
  -40.4543    0.0045    5.6064 H   0  0  0  0  0  0  0  0  0  0  0  0
  -40.0561   -0.3645    7.1811 H   0  0  0  0  0  0  0  0  0  0  0  0
 28 27  1  0
 28 29  1  0
 29 30  1  0
 30 31  1  0
 30 32  1  0
 32 33  1  0
 33 21  1  0
 21 22  2  0
 22 23  1  0
 23 24  2  0
 24 25  1  0
 25 26  2  0
 26  1  1  0
  1  2  1  0
  2  3  2  0
  2  5  1  0
  5  6  2  0
  6  7  1  0
  7  8  2  0
  8  9  1  0
  8 10  1  0
 10 12  1  0
 12 13  2  0
 13 14  1  0
 13 15  1  0
 15 16  2  0
 16 17  1  0
 16 18  1  0
 18 19  2  0
 19 20  1  0
 10 11  2  0
 33 34  1  0
 34 28  1  0
 26 21  1  0
 11  5  1  0
 19 12  1  0
 31 35  1  0
 31 36  1  0
  1  4  1  0
M  END
> <minimizedAffinity>
-9.23615

> <CNNscore>
0.4793755710

> <CNNaffinity>
8.1326980591

> <CNN_VS>
3.8986167908

> <CNNaffinity_variance>
0.1035865769

$$$$



 36 39  0  0  0  0  0  0  0  0999 V2000
  -41.4178   -2.0529    0.6658 N   0  0  0  0  0  0  0  0  0  0  0  0
  -42.6555   -2.3936    0.1531 C   0  0  0  0  0  0  0  0  0  0  0  0
  -42.8888   -3.1160   -0.8070 O   0  0  0  0  0  0  0  0  0  0  0  0
  -41.4286   -1.4744    1.4623 H   0  0  0  0  0  0  0  0  0  0  0  0
  -43.7899   -1.7818    0.9217 C   0  0  0  0  0  0  0  0  0  0  0  0
  -44.8514   -1.1832    0.2511 C   0  0  0  0  0  0  0  0  0  0  0  0
  -45.8795   -0.6295    1.0093 C   0  0  0  0  0  0  0  0  0  0  0  0
  -45.8032   -0.6881    2.3956 C   0  0  0  0  0  0  0  0  0  0  0  0
  -46.7828   -0.1449    3.1322 F   0  0  0  0  0  0  0  0  0  0  0  0
  -44.7046   -1.3002    2.9979 C   0  0  0  0  0  0  0  0  0  0  0  0
  -43.6947   -1.8618    2.2809 N   0  0  0  0  0  0  0  0  0  0  0  0
  -44.5552   -1.3715    4.4436 C   0  0  0  0  0  0  0  0  0  0  0  0
  -45.4965   -2.0273    5.2425 C   0  0  0  0  0  0  0  0  0  0  0  0
  -46.5722   -2.5979    4.6791 F   0  0  0  0  0  0  0  0  0  0  0  0
  -45.3457   -2.1224    6.6245 C   0  0  0  0  0  0  0  0  0  0  0  0
  -44.2305   -1.5494    7.2283 C   0  0  0  0  0  0  0  0  0  0  0  0
  -44.0218   -1.6753    8.9303 Cl  0  0  0  0  0  0  0  0  0  0  0  0
  -43.2818   -0.8792    6.4635 C   0  0  0  0  0  0  0  0  0  0  0  0
  -43.4526   -0.7970    5.0833 C   0  0  0  0  0  0  0  0  0  0  0  0
  -42.5324   -0.1339    4.3668 F   0  0  0  0  0  0  0  0  0  0  0  0
  -39.1968   -3.0117    1.0655 C   0  0  0  0  0  0  0  0  0  0  0  0
  -37.9325   -3.3410    0.5323 C   0  0  0  0  0  0  0  0  0  0  0  0
  -37.6556   -3.0953   -0.8018 C   0  0  0  0  0  0  0  0  0  0  0  0
  -38.5386   -2.5473   -1.6498 N   0  0  0  0  0  0  0  0  0  0  0  0
  -39.7534   -2.2289   -1.1342 C   0  0  0  0  0  0  0  0  0  0  0  0
  -40.1425   -2.4266    0.1962 C   0  0  0  0  0  0  0  0  0  0  0  0
  -39.6069   -1.2764    5.8250 C   0  0  0  0  0  0  0  0  0  0  0  0
  -39.7204   -2.4959    4.9109 C   0  0  0  0  0  0  0  0  0  0  0  0
  -38.8130   -3.6282    5.4101 C   0  0  0  0  0  0  0  0  0  0  0  0
  -38.8846   -4.8579    4.4989 C   0  0  0  0  0  0  0  0  0  0  0  0
  -37.9762   -5.8882    5.0013 N   0  0  0  0  0  0  0  0  0  0  0  0
  -38.5277   -4.4991    3.0497 C   0  0  0  0  0  0  0  0  0  0  0  0
  -39.4162   -3.3508    2.5372 C   0  0  0  0  0  0  0  0  0  0  0  0
  -39.3773   -2.1190    3.4612 C   0  0  0  0  0  0  0  0  0  0  0  0
  -37.0205   -5.5319    4.9936 H   0  0  0  0  0  0  0  0  0  0  0  0
  -38.0360   -6.7140    4.4057 H   0  0  0  0  0  0  0  0  0  0  0  0
 28 27  1  0
 28 29  1  0
 29 30  1  0
 30 31  1  0
 30 32  1  0
 32 33  1  0
 33 21  1  0
 21 22  2  0
 22 23  1  0
 23 24  2  0
 24 25  1  0
 25 26  2  0
 26  1  1  0
  1  2  1  0
  2  3  2  0
  2  5  1  0
  5  6  2  0
  6  7  1  0
  7  8  2  0
  8  9  1  0
  8 10  1  0
 10 12  1  0
 12 13  2  0
 13 14  1  0
 13 15  1  0
 15 16  2  0
 16 17  1  0
 16 18  1  0
 18 19  2  0
 19 20  1  0
 10 11  2  0
 33 34  1  0
 34 28  1  0
 26 21  1  0
 11  5  1  0
 19 12  1  0
 31 35  1  0
 31 36  1  0
  1  4  1  0
M  END
> <minimizedAffinity>
-10.33820

> <CNNscore>
0.4703975916

> <CNNaffinity>
8.4427766800

> <CNN_VS>
3.9714617729

> <CNNaffinity_variance>
0.0073555186

$$$$



 36 39  0  0  0  0  0  0  0  0999 V2000
  -38.2564   -4.0651    3.4334 N   0  0  0  0  0  0  0  0  0  0  0  0
  -37.6796   -3.8650    2.1933 C   0  0  0  0  0  0  0  0  0  0  0  0
  -36.5684   -4.2216    1.8244 O   0  0  0  0  0  0  0  0  0  0  0  0
  -39.1740   -3.7242    3.5392 H   0  0  0  0  0  0  0  0  0  0  0  0
  -38.5838   -3.1343    1.2442 C   0  0  0  0  0  0  0  0  0  0  0  0
  -38.1455   -2.8101   -0.0354 C   0  0  0  0  0  0  0  0  0  0  0  0
  -39.0217   -2.1317   -0.8781 C   0  0  0  0  0  0  0  0  0  0  0  0
  -40.2874   -1.7995   -0.4104 C   0  0  0  0  0  0  0  0  0  0  0  0
  -41.1315   -1.1341   -1.2116 F   0  0  0  0  0  0  0  0  0  0  0  0
  -40.6549   -2.1533    0.8874 C   0  0  0  0  0  0  0  0  0  0  0  0
  -39.8239   -2.8291    1.7255 N   0  0  0  0  0  0  0  0  0  0  0  0
  -41.9559   -1.8126    1.4430 C   0  0  0  0  0  0  0  0  0  0  0  0
  -43.1416   -2.2431    0.8404 C   0  0  0  0  0  0  0  0  0  0  0  0
  -43.0947   -2.9773   -0.2816 F   0  0  0  0  0  0  0  0  0  0  0  0
  -44.3899   -1.9429    1.3820 C   0  0  0  0  0  0  0  0  0  0  0  0
  -44.4614   -1.1940    2.5528 C   0  0  0  0  0  0  0  0  0  0  0  0
  -45.9942   -0.8323    3.2427 Cl  0  0  0  0  0  0  0  0  0  0  0  0
  -43.3010   -0.7400    3.1704 C   0  0  0  0  0  0  0  0  0  0  0  0
  -42.0637   -1.0525    2.6116 C   0  0  0  0  0  0  0  0  0  0  0  0
  -40.9581   -0.5924    3.2164 F   0  0  0  0  0  0  0  0  0  0  0  0
  -38.0643   -4.2862    5.8678 C   0  0  0  0  0  0  0  0  0  0  0  0
  -37.4530   -4.9455    6.9553 C   0  0  0  0  0  0  0  0  0  0  0  0
  -36.5374   -5.9588    6.7278 C   0  0  0  0  0  0  0  0  0  0  0  0
  -36.1810   -6.3696    5.5018 N   0  0  0  0  0  0  0  0  0  0  0  0
  -36.7683   -5.7323    4.4569 C   0  0  0  0  0  0  0  0  0  0  0  0
  -37.7013   -4.6940    4.5661 C   0  0  0  0  0  0  0  0  0  0  0  0
  -39.6630   -0.8917    9.2961 C   0  0  0  0  0  0  0  0  0  0  0  0
  -39.8420   -1.4366    7.8796 C   0  0  0  0  0  0  0  0  0  0  0  0
  -41.2933   -1.8806    7.6536 C   0  0  0  0  0  0  0  0  0  0  0  0
  -41.4997   -2.4567    6.2489 C   0  0  0  0  0  0  0  0  0  0  0  0
  -42.8874   -2.8945    6.1027 N   0  0  0  0  0  0  0  0  0  0  0  0
  -40.5444   -3.6281    5.9812 C   0  0  0  0  0  0  0  0  0  0  0  0
  -39.0832   -3.2063    6.2212 C   0  0  0  0  0  0  0  0  0  0  0  0
  -38.8684   -2.5968    7.6194 C   0  0  0  0  0  0  0  0  0  0  0  0
  -43.0877   -3.6240    6.7869 H   0  0  0  0  0  0  0  0  0  0  0  0
  -43.0306   -3.2621    5.1620 H   0  0  0  0  0  0  0  0  0  0  0  0
 28 27  1  0
 28 29  1  0
 29 30  1  0
 30 31  1  0
 30 32  1  0
 32 33  1  0
 33 21  1  0
 21 22  2  0
 22 23  1  0
 23 24  2  0
 24 25  1  0
 25 26  2  0
 26  1  1  0
  1  2  1  0
  2  3  2  0
  2  5  1  0
  5  6  2  0
  6  7  1  0
  7  8  2  0
  8  9  1  0
  8 10  1  0
 10 12  1  0
 12 13  2  0
 13 14  1  0
 13 15  1  0
 15 16  2  0
 16 17  1  0
 16 18  1  0
 18 19  2  0
 19 20  1  0
 10 11  2  0
 33 34  1  0
 34 28  1  0
 26 21  1  0
 11  5  1  0
 19 12  1  0
 31 35  1  0
 31 36  1  0
  1  4  1  0
M  END
> <minimizedAffinity>
-10.43977

> <CNNscore>
0.3300889432

> <CNNaffinity>
7.9033064842

> <CNN_VS>
2.6087939739

> <CNNaffinity_variance>
0.0749916509

$$$$



 36 39  0  0  0  0  0  0  0  0999 V2000
  -42.1365   -2.3254    0.4184 N   0  0  0  0  0  0  0  0  0  0  0  0
  -40.9932   -1.9308   -0.2509 C   0  0  0  0  0  0  0  0  0  0  0  0
  -40.9154   -1.1586   -1.1973 O   0  0  0  0  0  0  0  0  0  0  0  0
  -41.9994   -2.9403    1.1749 H   0  0  0  0  0  0  0  0  0  0  0  0
  -39.7481   -2.5501    0.3133 C   0  0  0  0  0  0  0  0  0  0  0  0
  -38.5937   -2.6353   -0.4580 C   0  0  0  0  0  0  0  0  0  0  0  0
  -37.4648   -3.2188    0.1108 C   0  0  0  0  0  0  0  0  0  0  0  0
  -37.5356   -3.6973    1.4135 C   0  0  0  0  0  0  0  0  0  0  0  0
  -36.4565   -4.2727    1.9628 F   0  0  0  0  0  0  0  0  0  0  0  0
  -38.7299   -3.5817    2.1239 C   0  0  0  0  0  0  0  0  0  0  0  0
  -39.8422   -3.0028    1.5974 N   0  0  0  0  0  0  0  0  0  0  0  0
  -38.8741   -4.0851    3.4815 C   0  0  0  0  0  0  0  0  0  0  0  0
  -37.7912   -4.6338    4.1747 C   0  0  0  0  0  0  0  0  0  0  0  0
  -36.5894   -4.7153    3.5838 F   0  0  0  0  0  0  0  0  0  0  0  0
  -37.9162   -5.0931    5.4843 C   0  0  0  0  0  0  0  0  0  0  0  0
  -39.1504   -5.0057    6.1212 C   0  0  0  0  0  0  0  0  0  0  0  0
  -39.3147   -5.5512    7.7435 Cl  0  0  0  0  0  0  0  0  0  0  0  0
  -40.2506   -4.4765    5.4553 C   0  0  0  0  0  0  0  0  0  0  0  0
  -40.1026   -4.0228    4.1465 C   0  0  0  0  0  0  0  0  0  0  0  0
  -41.1804   -3.5289    3.5186 F   0  0  0  0  0  0  0  0  0  0  0  0
  -44.2972   -1.4589    1.1881 C   0  0  0  0  0  0  0  0  0  0  0  0
  -45.6311   -1.1350    0.8607 C   0  0  0  0  0  0  0  0  0  0  0  0
  -46.0898   -1.3064   -0.4343 C   0  0  0  0  0  0  0  0  0  0  0  0
  -45.3255   -1.7751   -1.4319 N   0  0  0  0  0  0  0  0  0  0  0  0
  -44.0434   -2.0886   -1.1142 C   0  0  0  0  0  0  0  0  0  0  0  0
  -43.4731   -1.9615    0.1582 C   0  0  0  0  0  0  0  0  0  0  0  0
  -40.5747   -0.0976    4.3696 C   0  0  0  0  0  0  0  0  0  0  0  0
  -42.0592   -0.4337    4.2324 C   0  0  0  0  0  0  0  0  0  0  0  0
  -42.4414   -1.5776    5.1812 C   0  0  0  0  0  0  0  0  0  0  0  0
  -43.9201   -1.9563    5.0487 C   0  0  0  0  0  0  0  0  0  0  0  0
  -44.2183   -3.0711    5.9472 N   0  0  0  0  0  0  0  0  0  0  0  0
  -44.2714   -2.3337    3.6028 C   0  0  0  0  0  0  0  0  0  0  0  0
  -43.8775   -1.2044    2.6331 C   0  0  0  0  0  0  0  0  0  0  0  0
  -42.4003   -0.7928    2.7777 C   0  0  0  0  0  0  0  0  0  0  0  0
  -43.6507   -3.8779    5.6879 H   0  0  0  0  0  0  0  0  0  0  0  0
  -45.2065   -3.3127    5.8730 H   0  0  0  0  0  0  0  0  0  0  0  0
 28 27  1  0
 28 29  1  0
 29 30  1  0
 30 31  1  0
 30 32  1  0
 32 33  1  0
 33 21  1  0
 21 22  2  0
 22 23  1  0
 23 24  2  0
 24 25  1  0
 25 26  2  0
 26  1  1  0
  1  2  1  0
  2  3  2  0
  2  5  1  0
  5  6  2  0
  6  7  1  0
  7  8  2  0
  8  9  1  0
  8 10  1  0
 10 12  1  0
 12 13  2  0
 13 14  1  0
 13 15  1  0
 15 16  2  0
 16 17  1  0
 16 18  1  0
 18 19  2  0
 19 20  1  0
 10 11  2  0
 33 34  1  0
 34 28  1  0
 26 21  1  0
 11  5  1  0
 19 12  1  0
 31 35  1  0
 31 36  1  0
  1  4  1  0
M  END
> <minimizedAffinity>
-11.36021

> <CNNscore>
0.2313458622

> <CNNaffinity>
7.7041687965

> <CNN_VS>
1.7823275328

> <CNNaffinity_variance>
0.3523585498

$$$$



 36 39  0  0  0  0  0  0  0  0999 V2000
  -43.4492   -1.6387    1.1328 N   0  0  0  0  0  0  0  0  0  0  0  0
  -44.7899   -1.5103    1.4439 C   0  0  0  0  0  0  0  0  0  0  0  0
  -45.7469   -1.7409    0.7166 O   0  0  0  0  0  0  0  0  0  0  0  0
  -42.8187   -1.4273    1.8588 H   0  0  0  0  0  0  0  0  0  0  0  0
  -45.0162   -1.0450    2.8526 C   0  0  0  0  0  0  0  0  0  0  0  0
  -43.9926   -1.1214    3.7913 C   0  0  0  0  0  0  0  0  0  0  0  0
  -44.2525   -0.6773    5.0850 C   0  0  0  0  0  0  0  0  0  0  0  0
  -45.5164   -0.1864    5.3893 C   0  0  0  0  0  0  0  0  0  0  0  0
  -45.7780    0.2300    6.6364 F   0  0  0  0  0  0  0  0  0  0  0  0
  -46.4948   -0.1454    4.3965 C   0  0  0  0  0  0  0  0  0  0  0  0
  -46.2627   -0.5586    3.1219 N   0  0  0  0  0  0  0  0  0  0  0  0
  -47.8433    0.3343    4.6589 C   0  0  0  0  0  0  0  0  0  0  0  0
  -48.6562   -0.2669    5.6244 C   0  0  0  0  0  0  0  0  0  0  0  0
  -48.2008   -1.3174    6.3238 F   0  0  0  0  0  0  0  0  0  0  0  0
  -49.9384    0.2043    5.8994 C   0  0  0  0  0  0  0  0  0  0  0  0
  -50.4258    1.3013    5.1953 C   0  0  0  0  0  0  0  0  0  0  0  0
  -51.9988    1.9052    5.5374 Cl  0  0  0  0  0  0  0  0  0  0  0  0
  -49.6471    1.9145    4.2197 C   0  0  0  0  0  0  0  0  0  0  0  0
  -48.3678    1.4270    3.9618 C   0  0  0  0  0  0  0  0  0  0  0  0
  -47.6396    2.0251    3.0069 F   0  0  0  0  0  0  0  0  0  0  0  0
  -41.4802   -2.2746   -0.1828 C   0  0  0  0  0  0  0  0  0  0  0  0
  -40.9633   -2.6455   -1.4423 C   0  0  0  0  0  0  0  0  0  0  0  0
  -41.8090   -2.7685   -2.5316 C   0  0  0  0  0  0  0  0  0  0  0  0
  -43.1311   -2.5519   -2.4674 N   0  0  0  0  0  0  0  0  0  0  0  0
  -43.6260   -2.1926   -1.2554 C   0  0  0  0  0  0  0  0  0  0  0  0
  -42.8678   -2.0332   -0.0891 C   0  0  0  0  0  0  0  0  0  0  0  0
  -36.9832   -3.7758    1.6489 C   0  0  0  0  0  0  0  0  0  0  0  0
  -38.1881   -2.8584    1.8540 C   0  0  0  0  0  0  0  0  0  0  0  0
  -38.8215   -3.1024    3.2302 C   0  0  0  0  0  0  0  0  0  0  0  0
  -40.0497   -2.2147    3.4565 C   0  0  0  0  0  0  0  0  0  0  0  0
  -40.6311   -2.5143    4.7645 N   0  0  0  0  0  0  0  0  0  0  0  0
  -41.0965   -2.4200    2.3527 C   0  0  0  0  0  0  0  0  0  0  0  0
  -40.4741   -2.1975    0.9621 C   0  0  0  0  0  0  0  0  0  0  0  0
  -39.2198   -3.0619    0.7334 C   0  0  0  0  0  0  0  0  0  0  0  0
  -40.9253   -3.4906    4.7903 H   0  0  0  0  0  0  0  0  0  0  0  0
  -41.4384   -1.9115    4.9239 H   0  0  0  0  0  0  0  0  0  0  0  0
 28 27  1  0
 28 29  1  0
 29 30  1  0
 30 31  1  0
 30 32  1  0
 32 33  1  0
 33 21  1  0
 21 22  2  0
 22 23  1  0
 23 24  2  0
 24 25  1  0
 25 26  2  0
 26  1  1  0
  1  2  1  0
  2  3  2  0
  2  5  1  0
  5  6  2  0
  6  7  1  0
  7  8  2  0
  8  9  1  0
  8 10  1  0
 10 12  1  0
 12 13  2  0
 13 14  1  0
 13 15  1  0
 15 16  2  0
 16 17  1  0
 16 18  1  0
 18 19  2  0
 19 20  1  0
 10 11  2  0
 33 34  1  0
 34 28  1  0
 26 21  1  0
 11  5  1  0
 19 12  1  0
 31 35  1  0
 31 36  1  0
  1  4  1  0
M  END
> <minimizedAffinity>
-10.46212

> <CNNscore>
0.1816641688

> <CNNaffinity>
7.3071365356

> <CNN_VS>
1.3274449110

> <CNNaffinity_variance>
0.2932341993

$$$$



 36 39  0  0  0  0  0  0  0  0999 V2000
  -43.5396   -1.4134    5.1564 N   0  0  0  0  0  0  0  0  0  0  0  0
  -43.9720   -2.4675    4.3737 C   0  0  0  0  0  0  0  0  0  0  0  0
  -44.1848   -3.6190    4.7297 O   0  0  0  0  0  0  0  0  0  0  0  0
  -43.4454   -0.5483    4.6961 H   0  0  0  0  0  0  0  0  0  0  0  0
  -44.1966   -2.0734    2.9432 C   0  0  0  0  0  0  0  0  0  0  0  0
  -45.3997   -1.4939    2.5542 C   0  0  0  0  0  0  0  0  0  0  0  0
  -45.5594   -1.1463    1.2155 C   0  0  0  0  0  0  0  0  0  0  0  0
  -44.5229   -1.3969    0.3244 C   0  0  0  0  0  0  0  0  0  0  0  0
  -44.6750   -1.0776   -0.9686 F   0  0  0  0  0  0  0  0  0  0  0  0
  -43.3468   -1.9863    0.7869 C   0  0  0  0  0  0  0  0  0  0  0  0
  -43.1594   -2.3215    2.0915 N   0  0  0  0  0  0  0  0  0  0  0  0
  -42.2361   -2.2961   -0.1006 C   0  0  0  0  0  0  0  0  0  0  0  0
  -40.9157   -2.0041    0.2543 C   0  0  0  0  0  0  0  0  0  0  0  0
  -40.6528   -1.4148    1.4306 F   0  0  0  0  0  0  0  0  0  0  0  0
  -39.8454   -2.3224   -0.5792 C   0  0  0  0  0  0  0  0  0  0  0  0
  -40.0942   -2.9462   -1.7980 C   0  0  0  0  0  0  0  0  0  0  0  0
  -38.7817   -3.3619   -2.8281 Cl  0  0  0  0  0  0  0  0  0  0  0  0
  -41.3970   -3.2392   -2.1863 C   0  0  0  0  0  0  0  0  0  0  0  0
  -42.4518   -2.9125   -1.3369 C   0  0  0  0  0  0  0  0  0  0  0  0
  -43.7013   -3.1917   -1.7378 F   0  0  0  0  0  0  0  0  0  0  0  0
  -44.0084   -0.7088    7.4577 C   0  0  0  0  0  0  0  0  0  0  0  0
  -43.6133   -0.7382    8.8120 C   0  0  0  0  0  0  0  0  0  0  0  0
  -42.4880   -1.4496    9.1922 C   0  0  0  0  0  0  0  0  0  0  0  0
  -41.7229   -2.1358    8.3304 N   0  0  0  0  0  0  0  0  0  0  0  0
  -42.1032   -2.1040    7.0276 C   0  0  0  0  0  0  0  0  0  0  0  0
  -43.2162   -1.4167    6.5283 C   0  0  0  0  0  0  0  0  0  0  0  0
  -47.2028    2.9800    8.8793 C   0  0  0  0  0  0  0  0  0  0  0  0
  -46.8367    1.9785    7.7845 C   0  0  0  0  0  0  0  0  0  0  0  0
  -48.0349    1.0773    7.4577 C   0  0  0  0  0  0  0  0  0  0  0  0
  -47.6918    0.0435    6.3802 C   0  0  0  0  0  0  0  0  0  0  0  0
  -48.8557   -0.8076    6.1356 N   0  0  0  0  0  0  0  0  0  0  0  0
  -46.4873   -0.8137    6.7937 C   0  0  0  0  0  0  0  0  0  0  0  0
  -45.2797    0.0750    7.1438 C   0  0  0  0  0  0  0  0  0  0  0  0
  -45.6197    1.1393    8.2042 C   0  0  0  0  0  0  0  0  0  0  0  0
  -49.1027   -1.3007    6.9936 H   0  0  0  0  0  0  0  0  0  0  0  0
  -48.6343   -1.4850    5.4058 H   0  0  0  0  0  0  0  0  0  0  0  0
 28 27  1  0
 28 29  1  0
 29 30  1  0
 30 31  1  0
 30 32  1  0
 32 33  1  0
 33 21  1  0
 21 22  2  0
 22 23  1  0
 23 24  2  0
 24 25  1  0
 25 26  2  0
 26  1  1  0
  1  2  1  0
  2  3  2  0
  2  5  1  0
  5  6  2  0
  6  7  1  0
  7  8  2  0
  8  9  1  0
  8 10  1  0
 10 12  1  0
 12 13  2  0
 13 14  1  0
 13 15  1  0
 15 16  2  0
 16 17  1  0
 16 18  1  0
 18 19  2  0
 19 20  1  0
 10 11  2  0
 33 34  1  0
 34 28  1  0
 26 21  1  0
 11  5  1  0
 19 12  1  0
 31 35  1  0
 31 36  1  0
  1  4  1  0
M  END
> <minimizedAffinity>
-9.26951

> <CNNscore>
0.1807153821

> <CNNaffinity>
7.0768947601

> <CNN_VS>
1.2789037228

> <CNNaffinity_variance>
0.2826733589

$$$$



 36 39  0  0  0  0  0  0  0  0999 V2000
  -43.3614   -1.6094    1.6000 N   0  0  0  0  0  0  0  0  0  0  0  0
  -44.6175   -1.5210    2.1701 C   0  0  0  0  0  0  0  0  0  0  0  0
  -45.6952   -1.7334    1.6302 O   0  0  0  0  0  0  0  0  0  0  0  0
  -42.6041   -1.4222    2.2006 H   0  0  0  0  0  0  0  0  0  0  0  0
  -44.5708   -1.1296    3.6181 C   0  0  0  0  0  0  0  0  0  0  0  0
  -45.6667   -0.5164    4.2163 C   0  0  0  0  0  0  0  0  0  0  0  0
  -45.5739   -0.1722    5.5621 C   0  0  0  0  0  0  0  0  0  0  0  0
  -44.3970   -0.4444    6.2491 C   0  0  0  0  0  0  0  0  0  0  0  0
  -44.2955   -0.1032    7.5416 F   0  0  0  0  0  0  0  0  0  0  0  0
  -43.3374   -1.0571    5.5810 C   0  0  0  0  0  0  0  0  0  0  0  0
  -43.4075   -1.4170    4.2714 N   0  0  0  0  0  0  0  0  0  0  0  0
  -42.0718   -1.3455    6.2384 C   0  0  0  0  0  0  0  0  0  0  0  0
  -41.9990   -2.2147    7.3310 C   0  0  0  0  0  0  0  0  0  0  0  0
  -43.1140   -2.7936    7.8020 F   0  0  0  0  0  0  0  0  0  0  0  0
  -40.7866   -2.5160    7.9482 C   0  0  0  0  0  0  0  0  0  0  0  0
  -39.6159   -1.9372    7.4674 C   0  0  0  0  0  0  0  0  0  0  0  0
  -38.1105   -2.3147    8.2073 Cl  0  0  0  0  0  0  0  0  0  0  0  0
  -39.6555   -1.0588    6.3900 C   0  0  0  0  0  0  0  0  0  0  0  0
  -40.8787   -0.7723    5.7879 C   0  0  0  0  0  0  0  0  0  0  0  0
  -40.8951    0.0885    4.7590 F   0  0  0  0  0  0  0  0  0  0  0  0
  -41.6906   -2.2307   -0.0835 C   0  0  0  0  0  0  0  0  0  0  0  0
  -41.4218   -2.5247   -1.4373 C   0  0  0  0  0  0  0  0  0  0  0  0
  -42.4486   -2.5215   -2.3660 C   0  0  0  0  0  0  0  0  0  0  0  0
  -43.7244   -2.2490   -2.0545 N   0  0  0  0  0  0  0  0  0  0  0  0
  -43.9804   -1.9639   -0.7522 C   0  0  0  0  0  0  0  0  0  0  0  0
  -43.0242   -1.9328    0.2702 C   0  0  0  0  0  0  0  0  0  0  0  0
  -36.7268   -3.1672    0.4790 C   0  0  0  0  0  0  0  0  0  0  0  0
  -38.0012   -2.6611    1.1537 C   0  0  0  0  0  0  0  0  0  0  0  0
  -38.2894   -3.4639    2.4293 C   0  0  0  0  0  0  0  0  0  0  0  0
  -39.5769   -2.9971    3.1164 C   0  0  0  0  0  0  0  0  0  0  0  0
  -39.8196   -3.8179    4.3022 N   0  0  0  0  0  0  0  0  0  0  0  0
  -40.7775   -3.0766    2.1632 C   0  0  0  0  0  0  0  0  0  0  0  0
  -40.4992   -2.2915    0.8683 C   0  0  0  0  0  0  0  0  0  0  0  0
  -39.1909   -2.7302    0.1836 C   0  0  0  0  0  0  0  0  0  0  0  0
  -39.9337   -4.7925    4.0236 H   0  0  0  0  0  0  0  0  0  0  0  0
  -40.6670   -3.4967    4.7704 H   0  0  0  0  0  0  0  0  0  0  0  0
 28 27  1  0
 28 29  1  0
 29 30  1  0
 30 31  1  0
 30 32  1  0
 32 33  1  0
 33 21  1  0
 21 22  2  0
 22 23  1  0
 23 24  2  0
 24 25  1  0
 25 26  2  0
 26  1  1  0
  1  2  1  0
  2  3  2  0
  2  5  1  0
  5  6  2  0
  6  7  1  0
  7  8  2  0
  8  9  1  0
  8 10  1  0
 10 12  1  0
 12 13  2  0
 13 14  1  0
 13 15  1  0
 15 16  2  0
 16 17  1  0
 16 18  1  0
 18 19  2  0
 19 20  1  0
 10 11  2  0
 33 34  1  0
 34 28  1  0
 26 21  1  0
 11  5  1  0
 19 12  1  0
 31 35  1  0
 31 36  1  0
  1  4  1  0
M  END
> <minimizedAffinity>
-10.27415

> <CNNscore>
0.1774232388

> <CNNaffinity>
7.4931540489

> <CNN_VS>
1.3294596672

> <CNNaffinity_variance>
0.7405626178

$$$$
