


 21 21  0  0  0  0  0  0  0  0999 V2000
   46.4205   13.3824    2.9267 O   0  0  0  0  0  0  0  0  0  0  0  0
   45.6497   14.4935    2.8122 C   0  0  0  0  0  0  0  0  0  0  0  0
   44.8814   14.8218    1.6625 C   0  0  0  0  0  0  0  0  0  0  0  0
   44.8026   13.7204    0.1281 Br  0  0  0  0  0  0  0  0  0  0  0  0
   44.2179   16.0147    1.7836 C   0  0  0  0  0  0  0  0  0  0  0  0
   44.5510   16.7589    3.2866 S   0  0  0  0  0  0  0  0  0  0  0  0
   45.6053   15.4860    3.7776 C   0  0  0  0  0  0  0  0  0  0  0  0
   46.2623   15.6128    5.0578 C   0  0  0  0  0  0  0  0  0  0  0  0
   46.8288   16.5817    5.5367 O   0  0  0  0  0  0  0  0  0  0  0  0
   46.2085   14.4699    5.7911 O   0  0  0  0  0  0  0  0  0  0  0  0
   45.7793   13.7117    5.4463 H   0  0  0  0  0  0  0  0  0  0  0  0
   45.8624   12.2818    2.2001 C   0  0  0  0  0  0  0  0  0  0  0  0
   46.7814   11.0597    2.3751 C   0  0  0  0  0  0  0  0  0  0  0  0
   47.0713   10.2193    1.0413 N   0  0  0  0  0  0  0  0  0  0  0  0
   47.8736    8.9824    1.4474 C   0  0  0  0  0  0  0  0  0  0  0  0
   47.9600   11.1311    0.2072 C   0  0  0  0  0  0  0  0  0  0  0  0
   45.7328    9.8732    0.4070 C   0  0  0  0  0  0  0  0  0  0  0  0
   45.9420   10.8764   -1.9489 C   0  0  0  0  0  0  0  0  0  0  0  0
   45.5867    9.6781   -1.0911 N   0  0  0  0  0  0  0  0  0  0  0  0
   46.6225    8.5666   -1.4595 C   0  0  0  0  0  0  0  0  0  0  0  0
   44.2301    9.1126   -1.5078 C   0  0  0  0  0  0  0  0  0  0  0  0
 18 19  1  0
 19 20  1  0
 19 21  1  0
 19 17  1  0
 17 14  1  0
 14 15  1  0
 14 16  1  0
 14 13  1  0
 13 12  1  0
 12  1  1  0
  1  2  1  0
  2  3  1  0
  3  4  1  0
  3  5  2  0
  5  6  1  0
  6  7  1  0
  7  8  1  0
  8  9  2  0
  8 10  1  0
  7  2  2  0
 10 11  1  0
M  CHG 1  14   1
M  CHG 1  19   1
M  END
> <minimizedAffinity>
-5.16201

> <CNNscore>
0.5537464023

> <CNNaffinity>
4.6825766563

> <CNN_VS>
2.5929598808

> <CNNaffinity_variance>
0.3233903944

$$$$



 21 21  0  0  0  0  0  0  0  0999 V2000
   44.0506   15.3173    1.9355 O   0  0  0  0  0  0  0  0  0  0  0  0
   45.1403   14.8167    2.5708 C   0  0  0  0  0  0  0  0  0  0  0  0
   45.6258   13.4910    2.4069 C   0  0  0  0  0  0  0  0  0  0  0  0
   44.8259   12.2389    1.2383 Br  0  0  0  0  0  0  0  0  0  0  0  0
   46.7201   13.2205    3.1863 C   0  0  0  0  0  0  0  0  0  0  0  0
   47.1452   14.5698    4.1467 S   0  0  0  0  0  0  0  0  0  0  0  0
   45.8467   15.5224    3.5310 C   0  0  0  0  0  0  0  0  0  0  0  0
   45.6783   16.8546    4.0635 C   0  0  0  0  0  0  0  0  0  0  0  0
   46.4379   17.8076    4.0007 O   0  0  0  0  0  0  0  0  0  0  0  0
   44.4931   17.0164    4.7085 O   0  0  0  0  0  0  0  0  0  0  0  0
   43.8921   16.3003    4.7709 H   0  0  0  0  0  0  0  0  0  0  0  0
   44.4220   16.0723    0.7766 C   0  0  0  0  0  0  0  0  0  0  0  0
   44.1509   15.2185   -0.4748 C   0  0  0  0  0  0  0  0  0  0  0  0
   44.3569   15.9671   -1.8772 N   0  0  0  0  0  0  0  0  0  0  0  0
   44.9221   17.3553   -1.5739 C   0  0  0  0  0  0  0  0  0  0  0  0
   42.9482   16.1194   -2.4335 C   0  0  0  0  0  0  0  0  0  0  0  0
   45.2932   15.1204   -2.7256 C   0  0  0  0  0  0  0  0  0  0  0  0
   44.2768   14.6875   -5.0451 C   0  0  0  0  0  0  0  0  0  0  0  0
   44.7667   14.1124   -3.7308 N   0  0  0  0  0  0  0  0  0  0  0  0
   45.9956   13.2149   -4.0888 C   0  0  0  0  0  0  0  0  0  0  0  0
   43.7276   13.1533   -3.1529 C   0  0  0  0  0  0  0  0  0  0  0  0
 18 19  1  0
 19 20  1  0
 19 21  1  0
 19 17  1  0
 17 14  1  0
 14 15  1  0
 14 16  1  0
 14 13  1  0
 13 12  1  0
 12  1  1  0
  1  2  1  0
  2  3  1  0
  3  4  1  0
  3  5  2  0
  5  6  1  0
  6  7  1  0
  7  8  1  0
  8  9  2  0
  8 10  1  0
  7  2  2  0
 10 11  1  0
M  CHG 1  14   1
M  CHG 1  19   1
M  END
> <minimizedAffinity>
-5.52666

> <CNNscore>
0.4982768297

> <CNNaffinity>
4.7117877007

> <CNN_VS>
2.3477747440

> <CNNaffinity_variance>
0.1648228019

$$$$



 21 21  0  0  0  0  0  0  0  0999 V2000
   43.9808   15.2562    2.0114 O   0  0  0  0  0  0  0  0  0  0  0  0
   45.0894   14.8102    2.6547 C   0  0  0  0  0  0  0  0  0  0  0  0
   45.6545   13.5182    2.4773 C   0  0  0  0  0  0  0  0  0  0  0  0
   44.9459   12.2405    1.2779 Br  0  0  0  0  0  0  0  0  0  0  0  0
   46.7521   13.2999    3.2683 C   0  0  0  0  0  0  0  0  0  0  0  0
   47.0837   14.6559    4.2556 S   0  0  0  0  0  0  0  0  0  0  0  0
   45.7397   15.5405    3.6359 C   0  0  0  0  0  0  0  0  0  0  0  0
   45.4857   16.8515    4.1865 C   0  0  0  0  0  0  0  0  0  0  0  0
   44.6137   17.2007    4.9655 O   0  0  0  0  0  0  0  0  0  0  0  0
   46.3705   17.7854    3.7487 O   0  0  0  0  0  0  0  0  0  0  0  0
   47.0496   17.5432    3.1502 H   0  0  0  0  0  0  0  0  0  0  0  0
   44.3194   15.9451    0.8024 C   0  0  0  0  0  0  0  0  0  0  0  0
   44.2528   14.9476   -0.3677 C   0  0  0  0  0  0  0  0  0  0  0  0
   44.0689   15.6008   -1.8199 N   0  0  0  0  0  0  0  0  0  0  0  0
   42.5810   15.9060   -1.9972 C   0  0  0  0  0  0  0  0  0  0  0  0
   44.4626   14.4912   -2.7847 C   0  0  0  0  0  0  0  0  0  0  0  0
   44.9395   16.8463   -1.8856 C   0  0  0  0  0  0  0  0  0  0  0  0
   44.4111   18.9485   -3.2648 C   0  0  0  0  0  0  0  0  0  0  0  0
   45.1320   17.6177   -3.1785 N   0  0  0  0  0  0  0  0  0  0  0  0
   46.6578   17.9543   -3.2281 C   0  0  0  0  0  0  0  0  0  0  0  0
   44.8656   16.7893   -4.4341 C   0  0  0  0  0  0  0  0  0  0  0  0
 18 19  1  0
 19 20  1  0
 19 21  1  0
 19 17  1  0
 17 14  1  0
 14 15  1  0
 14 16  1  0
 14 13  1  0
 13 12  1  0
 12  1  1  0
  1  2  1  0
  2  3  1  0
  3  4  1  0
  3  5  2  0
  5  6  1  0
  6  7  1  0
  7  8  1  0
  8  9  2  0
  8 10  1  0
  7  2  2  0
 10 11  1  0
M  CHG 1  14   1
M  CHG 1  19   1
M  END
> <minimizedAffinity>
-5.82810

> <CNNscore>
0.4428930879

> <CNNaffinity>
4.6955790520

> <CNN_VS>
2.0796394348

> <CNNaffinity_variance>
0.2133744210

$$$$



 21 21  0  0  0  0  0  0  0  0999 V2000
   44.0350   15.3296    1.9453 O   0  0  0  0  0  0  0  0  0  0  0  0
   45.1284   14.8316    2.5761 C   0  0  0  0  0  0  0  0  0  0  0  0
   45.6116   13.5045    2.4166 C   0  0  0  0  0  0  0  0  0  0  0  0
   44.8027   12.2465    1.2606 Br  0  0  0  0  0  0  0  0  0  0  0  0
   46.7108   13.2375    3.1902 C   0  0  0  0  0  0  0  0  0  0  0  0
   47.1436   14.5918    4.1400 S   0  0  0  0  0  0  0  0  0  0  0  0
   45.8418   15.5422    3.5275 C   0  0  0  0  0  0  0  0  0  0  0  0
   45.6782   16.8775    4.0535 C   0  0  0  0  0  0  0  0  0  0  0  0
   46.4419   17.8270    3.9873 O   0  0  0  0  0  0  0  0  0  0  0  0
   44.4929   17.0473    4.6960 O   0  0  0  0  0  0  0  0  0  0  0  0
   43.8887   16.3340    4.7608 H   0  0  0  0  0  0  0  0  0  0  0  0
   44.4013   16.1102    0.8018 C   0  0  0  0  0  0  0  0  0  0  0  0
   44.1561   15.2720   -0.4654 C   0  0  0  0  0  0  0  0  0  0  0  0
   44.2301   16.0778   -1.8491 N   0  0  0  0  0  0  0  0  0  0  0  0
   45.1489   15.2919   -2.7855 C   0  0  0  0  0  0  0  0  0  0  0  0
   44.9062   17.3919   -1.4841 C   0  0  0  0  0  0  0  0  0  0  0  0
   42.8140   16.2132   -2.3873 C   0  0  0  0  0  0  0  0  0  0  0  0
   42.7862   15.6054   -4.8834 C   0  0  0  0  0  0  0  0  0  0  0  0
   42.5415   16.6521   -3.8145 N   0  0  0  0  0  0  0  0  0  0  0  0
   41.0094   16.9594   -3.8601 C   0  0  0  0  0  0  0  0  0  0  0  0
   43.2229   17.9655   -4.1943 C   0  0  0  0  0  0  0  0  0  0  0  0
 18 19  1  0
 19 20  1  0
 19 21  1  0
 19 17  1  0
 17 14  1  0
 14 15  1  0
 14 16  1  0
 14 13  1  0
 13 12  1  0
 12  1  1  0
  1  2  1  0
  2  3  1  0
  3  4  1  0
  3  5  2  0
  5  6  1  0
  6  7  1  0
  7  8  1  0
  8  9  2  0
  8 10  1  0
  7  2  2  0
 10 11  1  0
M  CHG 1  14   1
M  CHG 1  19   1
M  END
> <minimizedAffinity>
-5.84175

> <CNNscore>
0.3886038661

> <CNNaffinity>
4.5252861977

> <CNN_VS>
1.7585437298

> <CNNaffinity_variance>
0.2338660210

$$$$



 21 21  0  0  0  0  0  0  0  0999 V2000
   50.7930    8.4890    2.3745 O   0  0  0  0  0  0  0  0  0  0  0  0
   50.4139    7.3617    3.0280 C   0  0  0  0  0  0  0  0  0  0  0  0
   49.1818    6.6864    2.8142 C   0  0  0  0  0  0  0  0  0  0  0  0
   47.9009    7.2583    1.5470 Br  0  0  0  0  0  0  0  0  0  0  0  0
   49.0223    5.5924    3.6240 C   0  0  0  0  0  0  0  0  0  0  0  0
   50.3588    5.3979    4.6726 S   0  0  0  0  0  0  0  0  0  0  0  0
   51.1540    6.7971    4.0539 C   0  0  0  0  0  0  0  0  0  0  0  0
   52.4154    7.1724    4.6494 C   0  0  0  0  0  0  0  0  0  0  0  0
   52.8525    8.2879    4.8816 O   0  0  0  0  0  0  0  0  0  0  0  0
   53.1791    6.0987    4.9824 O   0  0  0  0  0  0  0  0  0  0  0  0
   52.8665    5.2315    4.8147 H   0  0  0  0  0  0  0  0  0  0  0  0
   51.5028    8.1812    1.1694 C   0  0  0  0  0  0  0  0  0  0  0  0
   52.7117    9.1266    1.0549 C   0  0  0  0  0  0  0  0  0  0  0  0
   52.7269   10.0716   -0.2399 N   0  0  0  0  0  0  0  0  0  0  0  0
   51.3178   10.6425   -0.4038 C   0  0  0  0  0  0  0  0  0  0  0  0
   53.0115    9.1226   -1.3955 C   0  0  0  0  0  0  0  0  0  0  0  0
   53.7788   11.1480   -0.0204 C   0  0  0  0  0  0  0  0  0  0  0  0
   55.4904   11.2692   -1.9325 C   0  0  0  0  0  0  0  0  0  0  0  0
   55.2156   10.9636   -0.4733 N   0  0  0  0  0  0  0  0  0  0  0  0
   56.0378   12.0116    0.3449 C   0  0  0  0  0  0  0  0  0  0  0  0
   55.8099    9.6079   -0.0956 C   0  0  0  0  0  0  0  0  0  0  0  0
 18 19  1  0
 19 20  1  0
 19 21  1  0
 19 17  1  0
 17 14  1  0
 14 15  1  0
 14 16  1  0
 14 13  1  0
 13 12  1  0
 12  1  1  0
  1  2  1  0
  2  3  1  0
  3  4  1  0
  3  5  2  0
  5  6  1  0
  6  7  1  0
  7  8  1  0
  8  9  2  0
  8 10  1  0
  7  2  2  0
 10 11  1  0
M  CHG 1  14   1
M  CHG 1  19   1
M  END
> <minimizedAffinity>
-4.46850

> <CNNscore>
0.3782207072

> <CNNaffinity>
4.0863566399

> <CNN_VS>
1.5455447435

> <CNNaffinity_variance>
0.3041225970

$$$$



 21 21  0  0  0  0  0  0  0  0999 V2000
   44.3612   13.8939    1.1798 O   0  0  0  0  0  0  0  0  0  0  0  0
   45.1443   14.6199    2.0173 C   0  0  0  0  0  0  0  0  0  0  0  0
   46.1513   14.0677    2.8545 C   0  0  0  0  0  0  0  0  0  0  0  0
   46.5638   12.2232    2.8891 Br  0  0  0  0  0  0  0  0  0  0  0  0
   46.7777   15.0071    3.6310 C   0  0  0  0  0  0  0  0  0  0  0  0
   46.1224   16.5645    3.3687 S   0  0  0  0  0  0  0  0  0  0  0  0
   44.9780   15.9804    2.2188 C   0  0  0  0  0  0  0  0  0  0  0  0
   44.0531   16.9315    1.6475 C   0  0  0  0  0  0  0  0  0  0  0  0
   43.6540   17.9872    2.1115 O   0  0  0  0  0  0  0  0  0  0  0  0
   43.5997   16.5530    0.4236 O   0  0  0  0  0  0  0  0  0  0  0  0
   43.8906   15.7468    0.0449 H   0  0  0  0  0  0  0  0  0  0  0  0
   45.0294   13.6231   -0.0575 C   0  0  0  0  0  0  0  0  0  0  0  0
   44.8801   12.1257   -0.3802 C   0  0  0  0  0  0  0  0  0  0  0  0
   45.8833   11.5579   -1.4941 N   0  0  0  0  0  0  0  0  0  0  0  0
   45.2233   10.3269   -2.1166 C   0  0  0  0  0  0  0  0  0  0  0  0
   47.1086   11.1149   -0.7068 C   0  0  0  0  0  0  0  0  0  0  0  0
   46.1365   12.6668   -2.5038 C   0  0  0  0  0  0  0  0  0  0  0  0
   45.6498   11.4502   -4.7137 C   0  0  0  0  0  0  0  0  0  0  0  0
   45.4501   12.6852   -3.8574 N   0  0  0  0  0  0  0  0  0  0  0  0
   43.9209   12.7405   -3.5374 C   0  0  0  0  0  0  0  0  0  0  0  0
   45.7326   13.9457   -4.6728 C   0  0  0  0  0  0  0  0  0  0  0  0
 18 19  1  0
 19 20  1  0
 19 21  1  0
 19 17  1  0
 17 14  1  0
 14 15  1  0
 14 16  1  0
 14 13  1  0
 13 12  1  0
 12  1  1  0
  1  2  1  0
  2  3  1  0
  3  4  1  0
  3  5  2  0
  5  6  1  0
  6  7  1  0
  7  8  1  0
  8  9  2  0
  8 10  1  0
  7  2  2  0
 10 11  1  0
M  CHG 1  14   1
M  CHG 1  19   1
M  END
> <minimizedAffinity>
-4.70410

> <CNNscore>
0.3729772568

> <CNNaffinity>
4.2445998192

> <CNN_VS>
1.5831391811

> <CNNaffinity_variance>
0.2657296658

$$$$



 21 21  0  0  0  0  0  0  0  0999 V2000
   50.7883    8.4557    2.4968 O   0  0  0  0  0  0  0  0  0  0  0  0
   50.3279    7.3387    3.1148 C   0  0  0  0  0  0  0  0  0  0  0  0
   49.0220    6.8056    2.9400 C   0  0  0  0  0  0  0  0  0  0  0  0
   47.7433    7.5744    1.7793 Br  0  0  0  0  0  0  0  0  0  0  0  0
   48.7914    5.6907    3.7027 C   0  0  0  0  0  0  0  0  0  0  0  0
   50.1535    5.3031    4.6609 S   0  0  0  0  0  0  0  0  0  0  0  0
   51.0577    6.6457    4.0667 C   0  0  0  0  0  0  0  0  0  0  0  0
   52.3811    6.8568    4.6056 C   0  0  0  0  0  0  0  0  0  0  0  0
   53.2512    6.0358    4.8467 O   0  0  0  0  0  0  0  0  0  0  0  0
   52.6437    8.1665    4.8556 O   0  0  0  0  0  0  0  0  0  0  0  0
   51.9925    8.8168    4.6792 H   0  0  0  0  0  0  0  0  0  0  0  0
   51.8101    8.1423    1.5435 C   0  0  0  0  0  0  0  0  0  0  0  0
   51.1404    7.7633    0.2107 C   0  0  0  0  0  0  0  0  0  0  0  0
   52.0324    7.9996   -1.1000 N   0  0  0  0  0  0  0  0  0  0  0  0
   51.9338    6.7339   -1.9525 C   0  0  0  0  0  0  0  0  0  0  0  0
   53.4537    8.1274   -0.5703 C   0  0  0  0  0  0  0  0  0  0  0  0
   51.4998    9.2341   -1.8113 C   0  0  0  0  0  0  0  0  0  0  0  0
   53.2438    9.3116   -3.6962 C   0  0  0  0  0  0  0  0  0  0  0  0
   52.3823   10.0784   -2.7124 N   0  0  0  0  0  0  0  0  0  0  0  0
   51.3908   10.9210   -3.5790 C   0  0  0  0  0  0  0  0  0  0  0  0
   53.2255   11.1058   -1.9594 C   0  0  0  0  0  0  0  0  0  0  0  0
 18 19  1  0
 19 20  1  0
 19 21  1  0
 19 17  1  0
 17 14  1  0
 14 15  1  0
 14 16  1  0
 14 13  1  0
 13 12  1  0
 12  1  1  0
  1  2  1  0
  2  3  1  0
  3  4  1  0
  3  5  2  0
  5  6  1  0
  6  7  1  0
  7  8  1  0
  8  9  2  0
  8 10  1  0
  7  2  2  0
 10 11  1  0
M  CHG 1  14   1
M  CHG 1  19   1
M  END
> <minimizedAffinity>
-3.72677

> <CNNscore>
0.3670879304

> <CNNaffinity>
4.0996274948

> <CNN_VS>
1.5049238205

> <CNNaffinity_variance>
0.1712251157

$$$$



 21 21  0  0  0  0  0  0  0  0999 V2000
   44.3535   14.0591    1.7211 O   0  0  0  0  0  0  0  0  0  0  0  0
   45.2297   14.8760    2.3588 C   0  0  0  0  0  0  0  0  0  0  0  0
   46.3397   14.4225    3.1218 C   0  0  0  0  0  0  0  0  0  0  0  0
   46.7700   12.5931    3.3258 Br  0  0  0  0  0  0  0  0  0  0  0  0
   47.0509   15.4448    3.6938 C   0  0  0  0  0  0  0  0  0  0  0  0
   46.3534   16.9632    3.3310 S   0  0  0  0  0  0  0  0  0  0  0  0
   45.0779   16.2518    2.4144 C   0  0  0  0  0  0  0  0  0  0  0  0
   44.0794   17.1329    1.8547 C   0  0  0  0  0  0  0  0  0  0  0  0
   43.7136   18.2276    2.2507 O   0  0  0  0  0  0  0  0  0  0  0  0
   43.5034   16.6279    0.7321 O   0  0  0  0  0  0  0  0  0  0  0  0
   43.7665   15.7894    0.4072 H   0  0  0  0  0  0  0  0  0  0  0  0
   44.8711   13.6197    0.4602 C   0  0  0  0  0  0  0  0  0  0  0  0
   44.7641   12.0859    0.3916 C   0  0  0  0  0  0  0  0  0  0  0  0
   45.0008   11.4431   -1.0576 N   0  0  0  0  0  0  0  0  0  0  0  0
   46.5013   11.1864   -1.2026 C   0  0  0  0  0  0  0  0  0  0  0  0
   44.5928   12.5422   -2.0285 C   0  0  0  0  0  0  0  0  0  0  0  0
   44.1724   10.1705   -1.1451 C   0  0  0  0  0  0  0  0  0  0  0  0
   44.6475    9.1920   -3.4727 C   0  0  0  0  0  0  0  0  0  0  0  0
   43.6188    9.6682   -2.4662 N   0  0  0  0  0  0  0  0  0  0  0  0
   42.7668    8.4102   -2.0982 C   0  0  0  0  0  0  0  0  0  0  0  0
   42.6380   10.6341   -3.1286 C   0  0  0  0  0  0  0  0  0  0  0  0
 18 19  1  0
 19 20  1  0
 19 21  1  0
 19 17  1  0
 17 14  1  0
 14 15  1  0
 14 16  1  0
 14 13  1  0
 13 12  1  0
 12  1  1  0
  1  2  1  0
  2  3  1  0
  3  4  1  0
  3  5  2  0
  5  6  1  0
  6  7  1  0
  7  8  1  0
  8  9  2  0
  8 10  1  0
  7  2  2  0
 10 11  1  0
M  CHG 1  14   1
M  CHG 1  19   1
M  END
> <minimizedAffinity>
-5.51491

> <CNNscore>
0.3546576798

> <CNNaffinity>
4.2505612373

> <CNN_VS>
1.5074942112

> <CNNaffinity_variance>
0.5499732494

$$$$



 21 21  0  0  0  0  0  0  0  0999 V2000
   50.8362    8.4999    2.4423 O   0  0  0  0  0  0  0  0  0  0  0  0
   50.5574    7.2970    3.0053 C   0  0  0  0  0  0  0  0  0  0  0  0
   49.4145    6.5113    2.6944 C   0  0  0  0  0  0  0  0  0  0  0  0
   48.1274    7.0295    1.4106 Br  0  0  0  0  0  0  0  0  0  0  0  0
   49.3444    5.3541    3.4251 C   0  0  0  0  0  0  0  0  0  0  0  0
   50.6540    5.2311    4.5176 S   0  0  0  0  0  0  0  0  0  0  0  0
   51.3154    6.7453    4.0251 C   0  0  0  0  0  0  0  0  0  0  0  0
   52.5056    7.2105    4.6987 C   0  0  0  0  0  0  0  0  0  0  0  0
   52.8361    8.3532    4.9707 O   0  0  0  0  0  0  0  0  0  0  0  0
   53.3337    6.1961    5.0621 O   0  0  0  0  0  0  0  0  0  0  0  0
   53.1031    5.3096    4.8650 H   0  0  0  0  0  0  0  0  0  0  0  0
   51.7949    8.3732    1.3861 C   0  0  0  0  0  0  0  0  0  0  0  0
   52.9443    9.3638    1.6431 C   0  0  0  0  0  0  0  0  0  0  0  0
   53.8587    9.7030    0.3710 N   0  0  0  0  0  0  0  0  0  0  0  0
   55.2527   10.0541    0.8925 C   0  0  0  0  0  0  0  0  0  0  0  0
   53.2264   10.9528   -0.2250 C   0  0  0  0  0  0  0  0  0  0  0  0
   53.8585    8.4866   -0.5422 C   0  0  0  0  0  0  0  0  0  0  0  0
   55.3955    9.4922   -2.3386 C   0  0  0  0  0  0  0  0  0  0  0  0
   54.2194    8.5929   -2.0126 N   0  0  0  0  0  0  0  0  0  0  0  0
   54.6557    7.1509   -2.4297 C   0  0  0  0  0  0  0  0  0  0  0  0
   53.0323    8.9267   -2.9143 C   0  0  0  0  0  0  0  0  0  0  0  0
 18 19  1  0
 19 20  1  0
 19 21  1  0
 19 17  1  0
 17 14  1  0
 14 15  1  0
 14 16  1  0
 14 13  1  0
 13 12  1  0
 12  1  1  0
  1  2  1  0
  2  3  1  0
  3  4  1  0
  3  5  2  0
  5  6  1  0
  6  7  1  0
  7  8  1  0
  8  9  2  0
  8 10  1  0
  7  2  2  0
 10 11  1  0
M  CHG 1  14   1
M  CHG 1  19   1
M  END
> <minimizedAffinity>
-4.36956

> <CNNscore>
0.3328197598

> <CNNaffinity>
4.0235161781

> <CNN_VS>
1.3391057253

> <CNNaffinity_variance>
0.2324241847

$$$$
