


 27 29  0  0  0  0  0  0  0  0999 V2000
   56.8518   73.6975   19.7856 C   0  0  0  0  0  0  0  0  0  0  0  0
   56.9240   73.5001   18.4077 C   0  0  0  0  0  0  0  0  0  0  0  0
   55.7361   73.8839   17.8324 N   0  0  0  0  0  0  0  0  0  0  0  0
   54.8959   74.3196   18.8147 C   0  0  0  0  0  0  0  0  0  0  0  0
   55.5545   74.2183   20.0095 C   0  0  0  0  0  0  0  0  0  0  0  0
   54.9630   74.5821   21.2233 N   0  0  0  0  0  0  0  0  0  0  0  0
   53.7894   75.1090   21.0661 C   0  0  0  0  0  0  0  0  0  0  0  0
   53.0761   75.3731   19.9159 N   0  0  0  0  0  0  0  0  0  0  0  0
   53.5138   74.8108   18.6635 C   0  0  0  0  0  0  0  0  0  0  0  0
   53.4534   75.6916   17.5148 N   0  0  0  0  0  0  0  0  0  0  0  0
   55.5265   73.8499   16.8711 H   0  0  0  0  0  0  0  0  0  0  0  0
   52.2733   75.9418   19.9502 H   0  0  0  0  0  0  0  0  0  0  0  0
   54.0996   76.4694   17.6484 H   0  0  0  0  0  0  0  0  0  0  0  0
   52.5046   76.0516   17.4119 H   0  0  0  0  0  0  0  0  0  0  0  0
   58.0443   71.7028   22.4588 C   0  0  0  0  0  0  0  0  0  0  0  0
   57.9670   71.9378   21.0021 N   0  0  0  0  0  0  0  0  0  0  0  0
   57.9434   73.3970   20.7638 C   0  0  0  0  0  0  0  0  0  0  0  0
   57.8560   74.0908   22.1307 C   0  0  0  0  0  0  0  0  0  0  0  0
   58.6131   75.3065   22.1834 O   0  0  0  0  0  0  0  0  0  0  0  0
   58.4814   73.0471   23.0568 C   0  0  0  0  0  0  0  0  0  0  0  0
   59.9175   73.1883   23.0133 O   0  0  0  0  0  0  0  0  0  0  0  0
   57.1170   71.5144   20.6297 H   0  0  0  0  0  0  0  0  0  0  0  0
   59.5398   75.1200   21.9659 H   0  0  0  0  0  0  0  0  0  0  0  0
   60.2227   73.1066   22.0962 H   0  0  0  0  0  0  0  0  0  0  0  0
   56.7020   71.2394   23.0589 C   0  0  0  0  0  0  0  0  0  0  0  0
   55.5421   68.7357   23.4036 C   0  0  0  0  0  0  0  0  0  0  0  0
   55.8622   69.9352   22.0844 S   0  0  0  0  0  0  0  0  0  0  0  0
 26 27  1  0
 27 25  1  0
 15 25  1  0
 15 16  1  0
 16 17  1  0
 17  1  1  0
  1  2  2  0
  2  3  1  0
  3  4  1  0
  4  5  2  0
  5  6  1  0
  6  7  2  0
  7  8  1  0
  8  9  1  0
  9 10  1  0
 17 18  1  0
 18 19  1  0
 18 20  1  0
 20 21  1  0
 20 15  1  0
  5  1  1  0
  9  4  1  0
 16 22  1  0
  3 11  1  0
  8 12  1  0
 10 13  1  0
 10 14  1  0
 19 23  1  0
 21 24  1  0
M  END
> <minimizedAffinity>
-9.44828

> <CNNscore>
0.9935178757

> <CNNaffinity>
8.7327756882

> <CNN_VS>
8.6761684418

> <CNNaffinity_variance>
1.2881510258

$$$$



 27 29  0  0  0  0  0  0  0  0999 V2000
   56.4337   74.3578   20.6657 C   0  0  0  0  0  0  0  0  0  0  0  0
   55.5135   74.8364   21.5969 C   0  0  0  0  0  0  0  0  0  0  0  0
   54.3151   75.0754   20.9678 N   0  0  0  0  0  0  0  0  0  0  0  0
   54.4465   74.7658   19.6458 C   0  0  0  0  0  0  0  0  0  0  0  0
   55.7251   74.3244   19.4405 C   0  0  0  0  0  0  0  0  0  0  0  0
   56.1877   73.9307   18.1810 N   0  0  0  0  0  0  0  0  0  0  0  0
   55.2524   73.9363   17.2838 C   0  0  0  0  0  0  0  0  0  0  0  0
   53.9122   74.2418   17.3932 N   0  0  0  0  0  0  0  0  0  0  0  0
   53.4243   74.8802   18.5893 C   0  0  0  0  0  0  0  0  0  0  0  0
   52.1625   74.3880   19.1040 N   0  0  0  0  0  0  0  0  0  0  0  0
   53.4976   75.4139   21.3995 H   0  0  0  0  0  0  0  0  0  0  0  0
   53.2930   74.0252   16.6592 H   0  0  0  0  0  0  0  0  0  0  0  0
   52.2705   73.4170   19.3972 H   0  0  0  0  0  0  0  0  0  0  0  0
   51.4520   74.4459   18.3745 H   0  0  0  0  0  0  0  0  0  0  0  0
   58.7405   71.9161   21.7896 C   0  0  0  0  0  0  0  0  0  0  0  0
   58.0278   72.5470   20.6595 N   0  0  0  0  0  0  0  0  0  0  0  0
   57.8522   73.9841   20.9604 C   0  0  0  0  0  0  0  0  0  0  0  0
   58.3456   74.2233   22.3946 C   0  0  0  0  0  0  0  0  0  0  0  0
   59.0073   75.4852   22.5487 O   0  0  0  0  0  0  0  0  0  0  0  0
   59.3479   73.0835   22.5796 C   0  0  0  0  0  0  0  0  0  0  0  0
   60.6154   73.4834   22.0161 O   0  0  0  0  0  0  0  0  0  0  0  0
   57.1158   72.1067   20.5388 H   0  0  0  0  0  0  0  0  0  0  0  0
   59.7523   75.5373   21.9297 H   0  0  0  0  0  0  0  0  0  0  0  0
   60.4929   73.7274   21.0853 H   0  0  0  0  0  0  0  0  0  0  0  0
   57.8111   71.0680   22.6804 C   0  0  0  0  0  0  0  0  0  0  0  0
   55.2823   70.1611   23.3982 C   0  0  0  0  0  0  0  0  0  0  0  0
   56.1826   70.7056   21.9236 S   0  0  0  0  0  0  0  0  0  0  0  0
 26 27  1  0
 27 25  1  0
 15 25  1  0
 15 16  1  0
 16 17  1  0
 17  1  1  0
  1  2  2  0
  2  3  1  0
  3  4  1  0
  4  5  2  0
  5  6  1  0
  6  7  2  0
  7  8  1  0
  8  9  1  0
  9 10  1  0
 17 18  1  0
 18 19  1  0
 18 20  1  0
 20 21  1  0
 20 15  1  0
  5  1  1  0
  9  4  1  0
 16 22  1  0
  3 11  1  0
  8 12  1  0
 10 13  1  0
 10 14  1  0
 19 23  1  0
 21 24  1  0
M  END
> <minimizedAffinity>
-6.50131

> <CNNscore>
0.9506316781

> <CNNaffinity>
7.9008440971

> <CNN_VS>
7.5107927322

> <CNNaffinity_variance>
0.5268384814

$$$$



 27 29  0  0  0  0  0  0  0  0999 V2000
   65.1412   64.4827   30.6672 C   0  0  0  0  0  0  0  0  0  0  0  0
   66.2370   63.7212   31.0701 C   0  0  0  0  0  0  0  0  0  0  0  0
   67.2492   64.5607   31.4701 N   0  0  0  0  0  0  0  0  0  0  0  0
   66.8291   65.8505   31.3269 C   0  0  0  0  0  0  0  0  0  0  0  0
   65.5494   65.8267   30.8434 C   0  0  0  0  0  0  0  0  0  0  0  0
   64.8279   66.9947   30.5781 N   0  0  0  0  0  0  0  0  0  0  0  0
   65.4651   68.0650   30.9363 C   0  0  0  0  0  0  0  0  0  0  0  0
   66.6967   68.2110   31.5390 N   0  0  0  0  0  0  0  0  0  0  0  0
   67.5874   67.0810   31.6185 C   0  0  0  0  0  0  0  0  0  0  0  0
   68.2895   66.9113   32.8744 N   0  0  0  0  0  0  0  0  0  0  0  0
   68.1310   64.2780   31.8045 H   0  0  0  0  0  0  0  0  0  0  0  0
   66.9657   69.0813   31.9124 H   0  0  0  0  0  0  0  0  0  0  0  0
   67.6169   66.7182   33.6166 H   0  0  0  0  0  0  0  0  0  0  0  0
   68.8033   67.7645   33.0947 H   0  0  0  0  0  0  0  0  0  0  0  0
   61.9748   65.0944   29.2022 C   0  0  0  0  0  0  0  0  0  0  0  0
   63.4031   64.7646   29.0180 N   0  0  0  0  0  0  0  0  0  0  0  0
   63.8437   63.9360   30.1607 C   0  0  0  0  0  0  0  0  0  0  0  0
   62.6831   63.8714   31.1639 C   0  0  0  0  0  0  0  0  0  0  0  0
   62.5761   62.5939   31.8045 O   0  0  0  0  0  0  0  0  0  0  0  0
   61.4707   64.1050   30.2619 C   0  0  0  0  0  0  0  0  0  0  0  0
   61.0929   62.8497   29.6571 O   0  0  0  0  0  0  0  0  0  0  0  0
   63.9529   65.6231   28.9831 H   0  0  0  0  0  0  0  0  0  0  0  0
   62.4708   61.9028   31.1321 H   0  0  0  0  0  0  0  0  0  0  0  0
   61.8511   62.4806   29.1778 H   0  0  0  0  0  0  0  0  0  0  0  0
   61.7538   66.5515   29.6548 C   0  0  0  0  0  0  0  0  0  0  0  0
   61.9164   67.8010   27.1758 C   0  0  0  0  0  0  0  0  0  0  0  0
   60.7187   67.5373   28.5090 S   0  0  0  0  0  0  0  0  0  0  0  0
 26 27  1  0
 27 25  1  0
 15 25  1  0
 15 16  1  0
 16 17  1  0
 17  1  1  0
  1  2  2  0
  2  3  1  0
  3  4  1  0
  4  5  2  0
  5  6  1  0
  6  7  2  0
  7  8  1  0
  8  9  1  0
  9 10  1  0
 17 18  1  0
 18 19  1  0
 18 20  1  0
 20 21  1  0
 20 15  1  0
  5  1  1  0
  9  4  1  0
 16 22  1  0
  3 11  1  0
  8 12  1  0
 10 13  1  0
 10 14  1  0
 19 23  1  0
 21 24  1  0
M  END
> <minimizedAffinity>
-5.07099

> <CNNscore>
0.1960126460

> <CNNaffinity>
4.2522997856

> <CNN_VS>
0.8335045576

> <CNNaffinity_variance>
0.1081320643

$$$$



 27 29  0  0  0  0  0  0  0  0999 V2000
   62.3269   66.9506   28.6531 C   0  0  0  0  0  0  0  0  0  0  0  0
   61.0780   67.3558   29.1210 C   0  0  0  0  0  0  0  0  0  0  0  0
   61.1604   67.6102   30.4693 N   0  0  0  0  0  0  0  0  0  0  0  0
   62.4384   67.3706   30.8816 C   0  0  0  0  0  0  0  0  0  0  0  0
   63.1655   66.9718   29.7935 C   0  0  0  0  0  0  0  0  0  0  0  0
   64.5215   66.6413   29.8798 N   0  0  0  0  0  0  0  0  0  0  0  0
   65.0111   66.8553   31.0606 C   0  0  0  0  0  0  0  0  0  0  0  0
   64.4153   67.3637   32.1954 N   0  0  0  0  0  0  0  0  0  0  0  0
   62.9813   67.4956   32.2468 C   0  0  0  0  0  0  0  0  0  0  0  0
   62.4754   68.7160   32.8415 N   0  0  0  0  0  0  0  0  0  0  0  0
   60.4200   67.9148   31.0422 H   0  0  0  0  0  0  0  0  0  0  0  0
   64.9658   67.6349   32.9652 H   0  0  0  0  0  0  0  0  0  0  0  0
   62.7526   69.5135   32.2692 H   0  0  0  0  0  0  0  0  0  0  0  0
   62.8597   68.8215   33.7805 H   0  0  0  0  0  0  0  0  0  0  0  0
   61.1729   65.8722   25.4826 C   0  0  0  0  0  0  0  0  0  0  0  0
   61.5130   66.9936   26.3824 N   0  0  0  0  0  0  0  0  0  0  0  0
   62.6454   66.5801   27.2388 C   0  0  0  0  0  0  0  0  0  0  0  0
   62.9227   65.0960   26.9595 C   0  0  0  0  0  0  0  0  0  0  0  0
   64.3198   64.7782   26.9948 O   0  0  0  0  0  0  0  0  0  0  0  0
   62.3879   64.9356   25.5361 C   0  0  0  0  0  0  0  0  0  0  0  0
   63.4073   65.3599   24.6061 O   0  0  0  0  0  0  0  0  0  0  0  0
   60.7077   67.2245   26.9643 H   0  0  0  0  0  0  0  0  0  0  0  0
   64.7932   65.3297   26.3524 H   0  0  0  0  0  0  0  0  0  0  0  0
   63.6694   66.2718   24.8075 H   0  0  0  0  0  0  0  0  0  0  0  0
   59.8868   65.1364   25.9083 C   0  0  0  0  0  0  0  0  0  0  0  0
   58.8126   63.9876   23.6150 C   0  0  0  0  0  0  0  0  0  0  0  0
   58.4843   65.3600   24.7510 S   0  0  0  0  0  0  0  0  0  0  0  0
 26 27  1  0
 27 25  1  0
 15 25  1  0
 15 16  1  0
 16 17  1  0
 17  1  1  0
  1  2  2  0
  2  3  1  0
  3  4  1  0
  4  5  2  0
  5  6  1  0
  6  7  2  0
  7  8  1  0
  8  9  1  0
  9 10  1  0
 17 18  1  0
 18 19  1  0
 18 20  1  0
 20 21  1  0
 20 15  1  0
  5  1  1  0
  9  4  1  0
 16 22  1  0
  3 11  1  0
  8 12  1  0
 10 13  1  0
 10 14  1  0
 19 23  1  0
 21 24  1  0
M  END
> <minimizedAffinity>
-5.41813

> <CNNscore>
0.1867217124

> <CNNaffinity>
4.9723830223

> <CNN_VS>
0.9284518957

> <CNNaffinity_variance>
0.1496764570

$$$$



 27 29  0  0  0  0  0  0  0  0999 V2000
   59.9553   63.4512   22.2276 C   0  0  0  0  0  0  0  0  0  0  0  0
   59.5812   63.7344   23.5402 C   0  0  0  0  0  0  0  0  0  0  0  0
   60.7097   63.8813   24.3110 N   0  0  0  0  0  0  0  0  0  0  0  0
   61.8057   63.6919   23.5212 C   0  0  0  0  0  0  0  0  0  0  0  0
   61.3707   63.4326   22.2503 C   0  0  0  0  0  0  0  0  0  0  0  0
   62.2524   63.1848   21.1936 N   0  0  0  0  0  0  0  0  0  0  0  0
   63.4935   63.3318   21.5368 C   0  0  0  0  0  0  0  0  0  0  0  0
   64.0480   63.7049   22.7429 N   0  0  0  0  0  0  0  0  0  0  0  0
   63.2233   63.7386   23.9240 C   0  0  0  0  0  0  0  0  0  0  0  0
   63.4218   64.8703   24.8067 N   0  0  0  0  0  0  0  0  0  0  0  0
   60.7245   64.0887   25.2733 H   0  0  0  0  0  0  0  0  0  0  0  0
   65.0008   63.9467   22.7966 H   0  0  0  0  0  0  0  0  0  0  0  0
   63.1560   65.7287   24.3240 H   0  0  0  0  0  0  0  0  0  0  0  0
   64.4040   64.9225   25.0770 H   0  0  0  0  0  0  0  0  0  0  0  0
   56.8647   64.1982   20.6667 C   0  0  0  0  0  0  0  0  0  0  0  0
   58.3071   64.4876   20.8029 N   0  0  0  0  0  0  0  0  0  0  0  0
   59.0141   63.2204   21.0876 C   0  0  0  0  0  0  0  0  0  0  0  0
   57.9526   62.1277   21.2789 C   0  0  0  0  0  0  0  0  0  0  0  0
   58.3612   60.8606   20.7485 O   0  0  0  0  0  0  0  0  0  0  0  0
   56.7800   62.6787   20.4668 C   0  0  0  0  0  0  0  0  0  0  0  0
   56.9712   62.3297   19.0791 O   0  0  0  0  0  0  0  0  0  0  0  0
   58.4556   65.1442   21.5692 H   0  0  0  0  0  0  0  0  0  0  0  0
   58.5705   60.9569   19.8062 H   0  0  0  0  0  0  0  0  0  0  0  0
   57.8286   62.6672   18.7760 H   0  0  0  0  0  0  0  0  0  0  0  0
   56.0497   64.6416   21.8978 C   0  0  0  0  0  0  0  0  0  0  0  0
   56.7389   66.1449   24.1335 C   0  0  0  0  0  0  0  0  0  0  0  0
   56.3282   66.3854   22.3856 S   0  0  0  0  0  0  0  0  0  0  0  0
 26 27  1  0
 27 25  1  0
 15 25  1  0
 15 16  1  0
 16 17  1  0
 17  1  1  0
  1  2  2  0
  2  3  1  0
  3  4  1  0
  4  5  2  0
  5  6  1  0
  6  7  2  0
  7  8  1  0
  8  9  1  0
  9 10  1  0
 17 18  1  0
 18 19  1  0
 18 20  1  0
 20 21  1  0
 20 15  1  0
  5  1  1  0
  9  4  1  0
 16 22  1  0
  3 11  1  0
  8 12  1  0
 10 13  1  0
 10 14  1  0
 19 23  1  0
 21 24  1  0
M  END
> <minimizedAffinity>
-4.08586

> <CNNscore>
0.1648069918

> <CNNaffinity>
4.0247216225

> <CNN_VS>
0.6633022428

> <CNNaffinity_variance>
0.1375125498

$$$$



 27 29  0  0  0  0  0  0  0  0999 V2000
   63.6907   65.5932   28.6042 C   0  0  0  0  0  0  0  0  0  0  0  0
   63.7058   66.7793   27.8721 C   0  0  0  0  0  0  0  0  0  0  0  0
   64.1086   67.8098   28.6876 N   0  0  0  0  0  0  0  0  0  0  0  0
   64.3479   67.3117   29.9348 C   0  0  0  0  0  0  0  0  0  0  0  0
   64.1035   65.9659   29.9061 C   0  0  0  0  0  0  0  0  0  0  0  0
   64.2502   65.1545   31.0355 N   0  0  0  0  0  0  0  0  0  0  0  0
   64.7326   65.7988   32.0513 C   0  0  0  0  0  0  0  0  0  0  0  0
   65.1280   67.1147   32.1679 N   0  0  0  0  0  0  0  0  0  0  0  0
   64.7831   68.0547   31.1317 C   0  0  0  0  0  0  0  0  0  0  0  0
   65.8215   68.9901   30.7497 N   0  0  0  0  0  0  0  0  0  0  0  0
   64.2078   68.7510   28.4167 H   0  0  0  0  0  0  0  0  0  0  0  0
   65.6424   67.4098   32.9536 H   0  0  0  0  0  0  0  0  0  0  0  0
   66.6033   68.4807   30.3379 H   0  0  0  0  0  0  0  0  0  0  0  0
   66.1427   69.4970   31.5745 H   0  0  0  0  0  0  0  0  0  0  0  0
   61.1211   63.3340   27.6880 C   0  0  0  0  0  0  0  0  0  0  0  0
   62.0620   64.3993   27.2844 N   0  0  0  0  0  0  0  0  0  0  0  0
   63.3048   64.2494   28.0715 C   0  0  0  0  0  0  0  0  0  0  0  0
   63.0704   63.1382   29.1049 C   0  0  0  0  0  0  0  0  0  0  0  0
   64.2358   62.3342   29.3266 O   0  0  0  0  0  0  0  0  0  0  0  0
   61.9815   62.3026   28.4309 C   0  0  0  0  0  0  0  0  0  0  0  0
   62.6048   61.3877   27.5043 O   0  0  0  0  0  0  0  0  0  0  0  0
   61.6467   65.3128   27.4675 H   0  0  0  0  0  0  0  0  0  0  0  0
   64.5268   61.9477   28.4858 H   0  0  0  0  0  0  0  0  0  0  0  0
   63.1415   61.8867   26.8689 H   0  0  0  0  0  0  0  0  0  0  0  0
   59.9816   63.8551   28.5861 C   0  0  0  0  0  0  0  0  0  0  0  0
   57.7717   62.2680   29.1611 C   0  0  0  0  0  0  0  0  0  0  0  0
   59.4090   62.6462   29.8378 S   0  0  0  0  0  0  0  0  0  0  0  0
 26 27  1  0
 27 25  1  0
 15 25  1  0
 15 16  1  0
 16 17  1  0
 17  1  1  0
  1  2  2  0
  2  3  1  0
  3  4  1  0
  4  5  2  0
  5  6  1  0
  6  7  2  0
  7  8  1  0
  8  9  1  0
  9 10  1  0
 17 18  1  0
 18 19  1  0
 18 20  1  0
 20 21  1  0
 20 15  1  0
  5  1  1  0
  9  4  1  0
 16 22  1  0
  3 11  1  0
  8 12  1  0
 10 13  1  0
 10 14  1  0
 19 23  1  0
 21 24  1  0
M  END
> <minimizedAffinity>
-4.37578

> <CNNscore>
0.1580421627

> <CNNaffinity>
3.1557180882

> <CNN_VS>
0.4987365007

> <CNNaffinity_variance>
0.8404842019

$$$$



 27 29  0  0  0  0  0  0  0  0999 V2000
   65.2888   64.3599   31.2923 C   0  0  0  0  0  0  0  0  0  0  0  0
   66.3516   63.5906   31.7631 C   0  0  0  0  0  0  0  0  0  0  0  0
   67.4206   64.4117   32.0322 N   0  0  0  0  0  0  0  0  0  0  0  0
   67.0693   65.6965   31.7377 C   0  0  0  0  0  0  0  0  0  0  0  0
   65.7767   65.6888   31.2895 C   0  0  0  0  0  0  0  0  0  0  0  0
   65.1142   66.8557   30.8960 N   0  0  0  0  0  0  0  0  0  0  0  0
   65.8207   67.9224   31.1028 C   0  0  0  0  0  0  0  0  0  0  0  0
   67.0758   68.0686   31.6550 N   0  0  0  0  0  0  0  0  0  0  0  0
   67.9036   66.9065   31.8557 C   0  0  0  0  0  0  0  0  0  0  0  0
   68.6318   66.8524   33.1071 N   0  0  0  0  0  0  0  0  0  0  0  0
   68.2946   64.1208   32.3797 H   0  0  0  0  0  0  0  0  0  0  0  0
   67.4040   68.9610   31.9103 H   0  0  0  0  0  0  0  0  0  0  0  0
   67.9716   66.7929   33.8824 H   0  0  0  0  0  0  0  0  0  0  0  0
   69.1989   67.6943   33.2072 H   0  0  0  0  0  0  0  0  0  0  0  0
   63.3666   62.4030   29.0512 C   0  0  0  0  0  0  0  0  0  0  0  0
   64.1328   62.4829   30.3120 N   0  0  0  0  0  0  0  0  0  0  0  0
   63.9484   63.8326   30.8874 C   0  0  0  0  0  0  0  0  0  0  0  0
   63.1561   64.6677   29.8713 C   0  0  0  0  0  0  0  0  0  0  0  0
   62.2312   65.5670   30.4957 O   0  0  0  0  0  0  0  0  0  0  0  0
   62.3941   63.5896   29.0998 C   0  0  0  0  0  0  0  0  0  0  0  0
   61.2001   63.2478   29.8358 O   0  0  0  0  0  0  0  0  0  0  0  0
   65.1222   62.3210   30.1244 H   0  0  0  0  0  0  0  0  0  0  0  0
   61.6212   65.0644   31.0580 H   0  0  0  0  0  0  0  0  0  0  0  0
   61.4420   62.9671   30.7322 H   0  0  0  0  0  0  0  0  0  0  0  0
   64.2670   62.4751   27.8019 C   0  0  0  0  0  0  0  0  0  0  0  0
   63.7169   62.4081   25.0769 C   0  0  0  0  0  0  0  0  0  0  0  0
   63.8159   61.2788   26.4899 S   0  0  0  0  0  0  0  0  0  0  0  0
 26 27  1  0
 27 25  1  0
 15 25  1  0
 15 16  1  0
 16 17  1  0
 17  1  1  0
  1  2  2  0
  2  3  1  0
  3  4  1  0
  4  5  2  0
  5  6  1  0
  6  7  2  0
  7  8  1  0
  8  9  1  0
  9 10  1  0
 17 18  1  0
 18 19  1  0
 18 20  1  0
 20 21  1  0
 20 15  1  0
  5  1  1  0
  9  4  1  0
 16 22  1  0
  3 11  1  0
  8 12  1  0
 10 13  1  0
 10 14  1  0
 19 23  1  0
 21 24  1  0
M  END
> <minimizedAffinity>
-4.20779

> <CNNscore>
0.1429239810

> <CNNaffinity>
3.0181081295

> <CNN_VS>
0.4313600361

> <CNNaffinity_variance>
0.7872636914

$$$$



 27 29  0  0  0  0  0  0  0  0999 V2000
   62.4140   66.9042   29.3187 C   0  0  0  0  0  0  0  0  0  0  0  0
   61.2202   66.9435   30.0370 C   0  0  0  0  0  0  0  0  0  0  0  0
   61.4437   67.5411   31.2545 N   0  0  0  0  0  0  0  0  0  0  0  0
   62.7617   67.8828   31.3378 C   0  0  0  0  0  0  0  0  0  0  0  0
   63.3697   67.5080   30.1709 C   0  0  0  0  0  0  0  0  0  0  0  0
   64.7332   67.7134   29.9380 N   0  0  0  0  0  0  0  0  0  0  0  0
   65.3061   68.3770   30.8925 C   0  0  0  0  0  0  0  0  0  0  0  0
   64.7798   68.9090   32.0507 N   0  0  0  0  0  0  0  0  0  0  0  0
   63.4529   68.5316   32.4671 C   0  0  0  0  0  0  0  0  0  0  0  0
   62.6173   69.6006   32.9752 N   0  0  0  0  0  0  0  0  0  0  0  0
   60.7653   67.6967   31.9507 H   0  0  0  0  0  0  0  0  0  0  0  0
   65.3070   69.5423   32.5895 H   0  0  0  0  0  0  0  0  0  0  0  0
   62.4349   70.2729   32.2302 H   0  0  0  0  0  0  0  0  0  0  0  0
   63.0946   70.0682   33.7458 H   0  0  0  0  0  0  0  0  0  0  0  0
   62.2522   64.0753   27.1931 C   0  0  0  0  0  0  0  0  0  0  0  0
   61.5780   65.2595   27.7643 N   0  0  0  0  0  0  0  0  0  0  0  0
   62.5838   66.3277   27.9484 C   0  0  0  0  0  0  0  0  0  0  0  0
   63.9600   65.7341   27.6146 C   0  0  0  0  0  0  0  0  0  0  0  0
   64.8204   66.6702   26.9532 O   0  0  0  0  0  0  0  0  0  0  0  0
   63.5924   64.5989   26.6585 C   0  0  0  0  0  0  0  0  0  0  0  0
   63.4408   65.1416   25.3293 O   0  0  0  0  0  0  0  0  0  0  0  0
   61.1630   65.0185   28.6643 H   0  0  0  0  0  0  0  0  0  0  0  0
   64.3915   66.9869   26.1429 H   0  0  0  0  0  0  0  0  0  0  0  0
   62.7779   65.8497   25.3429 H   0  0  0  0  0  0  0  0  0  0  0  0
   62.4686   62.9555   28.2303 C   0  0  0  0  0  0  0  0  0  0  0  0
   64.3623   61.4123   29.5590 C   0  0  0  0  0  0  0  0  0  0  0  0
   63.9022   61.8737   27.8688 S   0  0  0  0  0  0  0  0  0  0  0  0
 26 27  1  0
 27 25  1  0
 15 25  1  0
 15 16  1  0
 16 17  1  0
 17  1  1  0
  1  2  2  0
  2  3  1  0
  3  4  1  0
  4  5  2  0
  5  6  1  0
  6  7  2  0
  7  8  1  0
  8  9  1  0
  9 10  1  0
 17 18  1  0
 18 19  1  0
 18 20  1  0
 20 21  1  0
 20 15  1  0
  5  1  1  0
  9  4  1  0
 16 22  1  0
  3 11  1  0
  8 12  1  0
 10 13  1  0
 10 14  1  0
 19 23  1  0
 21 24  1  0
M  END
> <minimizedAffinity>
-5.04651

> <CNNscore>
0.1365361959

> <CNNaffinity>
4.5419254303

> <CNN_VS>
0.6201372147

> <CNNaffinity_variance>
0.0043147891

$$$$



 27 29  0  0  0  0  0  0  0  0999 V2000
   63.9486   65.8689   29.2707 C   0  0  0  0  0  0  0  0  0  0  0  0
   64.3876   64.5855   29.5916 C   0  0  0  0  0  0  0  0  0  0  0  0
   65.4159   64.6724   30.4996 N   0  0  0  0  0  0  0  0  0  0  0  0
   65.6530   65.9891   30.7661 C   0  0  0  0  0  0  0  0  0  0  0  0
   64.7705   66.7340   30.0326 C   0  0  0  0  0  0  0  0  0  0  0  0
   64.7551   68.1316   30.0748 N   0  0  0  0  0  0  0  0  0  0  0  0
   65.5841   68.6118   30.9477 C   0  0  0  0  0  0  0  0  0  0  0  0
   66.4313   67.9664   31.8235 N   0  0  0  0  0  0  0  0  0  0  0  0
   66.6734   66.5546   31.6677 C   0  0  0  0  0  0  0  0  0  0  0  0
   66.7023   65.7753   32.8888 N   0  0  0  0  0  0  0  0  0  0  0  0
   65.9007   63.9109   30.8924 H   0  0  0  0  0  0  0  0  0  0  0  0
   66.8677   68.4669   32.5504 H   0  0  0  0  0  0  0  0  0  0  0  0
   65.7819   65.7969   33.3278 H   0  0  0  0  0  0  0  0  0  0  0  0
   67.3930   66.1695   33.5275 H   0  0  0  0  0  0  0  0  0  0  0  0
   60.6363   65.2722   28.1667 C   0  0  0  0  0  0  0  0  0  0  0  0
   61.5558   66.0501   29.0225 N   0  0  0  0  0  0  0  0  0  0  0  0
   62.8455   66.1948   28.3138 C   0  0  0  0  0  0  0  0  0  0  0  0
   62.7704   65.3510   27.0333 C   0  0  0  0  0  0  0  0  0  0  0  0
   63.4459   65.9629   25.9272 O   0  0  0  0  0  0  0  0  0  0  0  0
   61.2652   65.3114   26.7671 C   0  0  0  0  0  0  0  0  0  0  0  0
   60.8858   66.5143   26.0648 O   0  0  0  0  0  0  0  0  0  0  0  0
   61.7012   65.5606   29.9055 H   0  0  0  0  0  0  0  0  0  0  0  0
   63.0707   66.8427   25.7659 H   0  0  0  0  0  0  0  0  0  0  0  0
   61.1547   67.2894   26.5823 H   0  0  0  0  0  0  0  0  0  0  0  0
   60.4556   63.8205   28.6528 C   0  0  0  0  0  0  0  0  0  0  0  0
   58.9150   62.1573   30.2632 C   0  0  0  0  0  0  0  0  0  0  0  0
   58.7075   63.3304   28.8985 S   0  0  0  0  0  0  0  0  0  0  0  0
 26 27  1  0
 27 25  1  0
 15 25  1  0
 15 16  1  0
 16 17  1  0
 17  1  1  0
  1  2  2  0
  2  3  1  0
  3  4  1  0
  4  5  2  0
  5  6  1  0
  6  7  2  0
  7  8  1  0
  8  9  1  0
  9 10  1  0
 17 18  1  0
 18 19  1  0
 18 20  1  0
 20 21  1  0
 20 15  1  0
  5  1  1  0
  9  4  1  0
 16 22  1  0
  3 11  1  0
  8 12  1  0
 10 13  1  0
 10 14  1  0
 19 23  1  0
 21 24  1  0
M  END
> <minimizedAffinity>
-5.05511

> <CNNscore>
0.1265878677

> <CNNaffinity>
3.5767848492

> <CNN_VS>
0.4527775645

> <CNNaffinity_variance>
0.4725483358

$$$$
