


 27 28  0  0  0  0  0  0  0  0999 V2000
    9.8947   42.7080   -1.2636 C   0  0  0  0  0  0  0  0  0  0  0  0
   11.0583   42.8542   -2.2702 C   0  0  0  0  0  0  0  0  0  0  0  0
   10.9460   44.0850   -3.1881 C   0  0  0  0  0  0  0  0  0  0  0  0
   11.5099   43.5715   -4.4940 C   0  0  0  0  0  0  0  0  0  0  0  0
   12.9377   43.5923   -4.3986 O   0  0  0  0  0  0  0  0  0  0  0  0
   13.5710   42.8341   -5.4252 C   0  0  0  0  0  0  0  0  0  0  0  0
   13.1888   41.3674   -5.3045 C   0  0  0  0  0  0  0  0  0  0  0  0
   11.6778   41.2011   -5.4267 C   0  0  0  0  0  0  0  0  0  0  0  0
   10.9293   42.1652   -4.5186 C   0  0  0  0  0  0  0  0  0  0  0  0
   10.9635   41.7016   -3.1592 O   0  0  0  0  0  0  0  0  0  0  0  0
   12.4129   42.8605   -1.5377 C   0  0  0  0  0  0  0  0  0  0  0  0
   13.3064   42.0318   -1.6579 O   0  0  0  0  0  0  0  0  0  0  0  0
   12.6105   43.9342   -0.7450 O   0  0  0  0  0  0  0  0  0  0  0  0
   11.9335   44.5744   -0.6460 H   0  0  0  0  0  0  0  0  0  0  0  0
   10.1086   41.9801    0.0858 C   0  0  0  0  0  0  0  0  0  0  0  0
   10.0813   42.9358    1.1978 N   0  0  0  0  0  0  0  0  0  0  0  0
   10.8647   43.5831    1.1091 H   0  0  0  0  0  0  0  0  0  0  0  0
   10.1552   42.4316    2.0813 H   0  0  0  0  0  0  0  0  0  0  0  0
   11.3931   41.1142    0.1593 C   0  0  0  0  0  0  0  0  0  0  0  0
   12.0048   40.8059    1.5641 C   0  0  0  0  0  0  0  0  0  0  0  0
   13.5364   41.0342    1.5239 C   0  0  0  0  0  0  0  0  0  0  0  0
   11.4419   41.8520    2.5483 C   0  0  0  0  0  0  0  0  0  0  0  0
   11.7953   39.3455    2.0896 C   0  0  0  0  0  0  0  0  0  0  0  0
   13.5362   38.3854    0.4380 C   0  0  0  0  0  0  0  0  0  0  0  0
   12.6593   38.1132    1.6722 C   0  0  0  0  0  0  0  0  0  0  0  0
   11.6634   36.9908    1.2769 C   0  0  0  0  0  0  0  0  0  0  0  0
   13.5347   37.5648    2.8041 C   0  0  0  0  0  0  0  0  0  0  0  0
 24 25  1  0
 25 26  1  0
 25 27  1  0
 25 23  1  0
 23 20  1  0
 20 21  1  0
 20 22  1  0
 20 19  1  0
 19 15  1  0
 15 16  1  0
 15  1  1  0
  2  1  1  0
  2 11  1  0
 11 12  2  0
 11 13  1  0
  2  3  1  0
  4  3  1  0
  4  5  1  0
  5  6  1  0
  6  7  1  0
  7  8  1  0
  9  8  1  0
  9 10  1  0
 10  2  1  0
  9  4  1  0
 16 17  1  0
 16 18  1  0
 13 14  1  0
M  END
> <minimizedAffinity>
-4.10434

> <CNNscore>
0.5288093090

> <CNNaffinity>
5.2997813225

> <CNN_VS>
2.8025736809

> <CNNaffinity_variance>
0.0880062878

$$$$



 27 28  0  0  0  0  0  0  0  0999 V2000
   -7.2354   34.9607   11.6005 C   0  0  0  0  0  0  0  0  0  0  0  0
   -5.9760   34.5261   12.3837 C   0  0  0  0  0  0  0  0  0  0  0  0
   -6.2524   34.1107   13.8400 C   0  0  0  0  0  0  0  0  0  0  0  0
   -5.0228   34.6140   14.5626 C   0  0  0  0  0  0  0  0  0  0  0  0
   -3.9649   33.6756   14.3430 O   0  0  0  0  0  0  0  0  0  0  0  0
   -2.6848   34.1949   14.6915 C   0  0  0  0  0  0  0  0  0  0  0  0
   -2.3450   35.3859   13.8096 C   0  0  0  0  0  0  0  0  0  0  0  0
   -3.3880   36.4856   13.9782 C   0  0  0  0  0  0  0  0  0  0  0  0
   -4.8040   35.9432   13.8550 C   0  0  0  0  0  0  0  0  0  0  0  0
   -5.1341   35.7138   12.4757 O   0  0  0  0  0  0  0  0  0  0  0  0
   -5.2370   33.3972   11.6413 C   0  0  0  0  0  0  0  0  0  0  0  0
   -4.4526   33.5332   10.7108 O   0  0  0  0  0  0  0  0  0  0  0  0
   -5.4622   32.1641   12.1402 O   0  0  0  0  0  0  0  0  0  0  0  0
   -6.0604   32.0488   12.8521 H   0  0  0  0  0  0  0  0  0  0  0  0
   -7.8765   34.0161   10.5549 C   0  0  0  0  0  0  0  0  0  0  0  0
   -7.1867   34.1291    9.2657 N   0  0  0  0  0  0  0  0  0  0  0  0
   -7.3107   35.0713    8.8952 H   0  0  0  0  0  0  0  0  0  0  0  0
   -7.5775   33.4519    8.6105 H   0  0  0  0  0  0  0  0  0  0  0  0
   -9.4035   34.2047   10.3602 C   0  0  0  0  0  0  0  0  0  0  0  0
  -10.3625   33.7560   11.5098 C   0  0  0  0  0  0  0  0  0  0  0  0
  -11.4023   32.7509   10.9547 C   0  0  0  0  0  0  0  0  0  0  0  0
   -9.5150   32.9731   12.5339 C   0  0  0  0  0  0  0  0  0  0  0  0
  -11.1843   34.9006   12.1933 C   0  0  0  0  0  0  0  0  0  0  0  0
  -11.5255   37.1312   13.4536 C   0  0  0  0  0  0  0  0  0  0  0  0
  -10.6098   35.9151   13.2325 C   0  0  0  0  0  0  0  0  0  0  0  0
   -9.2834   36.4545   12.6343 C   0  0  0  0  0  0  0  0  0  0  0  0
  -10.2723   35.2827   14.5869 C   0  0  0  0  0  0  0  0  0  0  0  0
 24 25  1  0
 25 26  1  0
 25 27  1  0
 25 23  1  0
 23 20  1  0
 20 21  1  0
 20 22  1  0
 20 19  1  0
 19 15  1  0
 15 16  1  0
 15  1  1  0
  2  1  1  0
  2 11  1  0
 11 12  2  0
 11 13  1  0
  2  3  1  0
  4  3  1  0
  4  5  1  0
  5  6  1  0
  6  7  1  0
  7  8  1  0
  9  8  1  0
  9 10  1  0
 10  2  1  0
  9  4  1  0
 16 17  1  0
 16 18  1  0
 13 14  1  0
M  END
> <minimizedAffinity>
-3.11813

> <CNNscore>
0.4159358740

> <CNNaffinity>
4.7399444580

> <CNN_VS>
1.9715129137

> <CNNaffinity_variance>
0.5397688150

$$$$



 27 28  0  0  0  0  0  0  0  0999 V2000
   10.2970   50.2597   -3.3321 C   0  0  0  0  0  0  0  0  0  0  0  0
   10.5404   51.7147   -2.8713 C   0  0  0  0  0  0  0  0  0  0  0  0
   10.1672   52.7781   -3.9200 C   0  0  0  0  0  0  0  0  0  0  0  0
   11.2267   53.8356   -3.7047 C   0  0  0  0  0  0  0  0  0  0  0  0
   10.8485   54.6162   -2.5665 O   0  0  0  0  0  0  0  0  0  0  0  0
   11.9140   55.4213   -2.0702 C   0  0  0  0  0  0  0  0  0  0  0  0
   13.0533   54.5401   -1.5832 C   0  0  0  0  0  0  0  0  0  0  0  0
   13.5775   53.6727   -2.7227 C   0  0  0  0  0  0  0  0  0  0  0  0
   12.4491   52.9640   -3.4568 C   0  0  0  0  0  0  0  0  0  0  0  0
   11.9827   51.8403   -2.6927 O   0  0  0  0  0  0  0  0  0  0  0  0
    9.8063   51.9952   -1.5469 C   0  0  0  0  0  0  0  0  0  0  0  0
   10.2064   52.7038   -0.6318 O   0  0  0  0  0  0  0  0  0  0  0  0
    8.5831   51.4327   -1.4601 O   0  0  0  0  0  0  0  0  0  0  0  0
    8.2672   50.8889   -2.1546 H   0  0  0  0  0  0  0  0  0  0  0  0
   11.4797   49.3702   -3.7866 C   0  0  0  0  0  0  0  0  0  0  0  0
   11.9498   49.7758   -5.1152 N   0  0  0  0  0  0  0  0  0  0  0  0
   11.2105   49.6185   -5.8001 H   0  0  0  0  0  0  0  0  0  0  0  0
   12.7704   49.2254   -5.3682 H   0  0  0  0  0  0  0  0  0  0  0  0
   11.1909   47.8467   -3.7661 C   0  0  0  0  0  0  0  0  0  0  0  0
   12.3724   46.8603   -4.0376 C   0  0  0  0  0  0  0  0  0  0  0  0
   12.8021   46.9624   -5.5224 C   0  0  0  0  0  0  0  0  0  0  0  0
   13.5777   47.3503   -3.2087 C   0  0  0  0  0  0  0  0  0  0  0  0
   12.0667   45.3469   -3.7753 C   0  0  0  0  0  0  0  0  0  0  0  0
   11.9445   43.1261   -2.4587 C   0  0  0  0  0  0  0  0  0  0  0  0
   12.1354   44.6504   -2.3791 C   0  0  0  0  0  0  0  0  0  0  0  0
   10.9487   45.2089   -1.5497 C   0  0  0  0  0  0  0  0  0  0  0  0
   13.4183   44.9599   -1.6004 C   0  0  0  0  0  0  0  0  0  0  0  0
 24 25  1  0
 25 26  1  0
 25 27  1  0
 25 23  1  0
 23 20  1  0
 20 21  1  0
 20 22  1  0
 20 19  1  0
 19 15  1  0
 15 16  1  0
 15  1  1  0
  2  1  1  0
  2 11  1  0
 11 12  2  0
 11 13  1  0
  2  3  1  0
  4  3  1  0
  4  5  1  0
  5  6  1  0
  6  7  1  0
  7  8  1  0
  9  8  1  0
  9 10  1  0
 10  2  1  0
  9  4  1  0
 16 17  1  0
 16 18  1  0
 13 14  1  0
M  END
> <minimizedAffinity>
-4.23303

> <CNNscore>
0.2790274024

> <CNNaffinity>
4.3655390739

> <CNN_VS>
1.2181050777

> <CNNaffinity_variance>
0.0807347819

$$$$



 27 28  0  0  0  0  0  0  0  0999 V2000
    1.9094   46.3360    3.9103 C   0  0  0  0  0  0  0  0  0  0  0  0
    1.0647   45.3164    3.1131 C   0  0  0  0  0  0  0  0  0  0  0  0
    1.8524   44.0834    2.6348 C   0  0  0  0  0  0  0  0  0  0  0  0
    1.2248   43.7962    1.2891 C   0  0  0  0  0  0  0  0  0  0  0  0
   -0.0067   43.1026    1.5137 O   0  0  0  0  0  0  0  0  0  0  0  0
   -0.8400   43.0686    0.3587 C   0  0  0  0  0  0  0  0  0  0  0  0
   -1.2479   44.4795   -0.0346 C   0  0  0  0  0  0  0  0  0  0  0  0
   -0.0144   45.3231   -0.3388 C   0  0  0  0  0  0  0  0  0  0  0  0
    1.0311   45.2099    0.7606 C   0  0  0  0  0  0  0  0  0  0  0  0
    0.6526   46.0057    1.8953 O   0  0  0  0  0  0  0  0  0  0  0  0
   -0.1665   44.8765    3.9269 C   0  0  0  0  0  0  0  0  0  0  0  0
   -0.1612   44.4367    5.0697 O   0  0  0  0  0  0  0  0  0  0  0  0
   -1.3450   45.0703    3.2995 O   0  0  0  0  0  0  0  0  0  0  0  0
   -1.3605   45.4065    2.4250 H   0  0  0  0  0  0  0  0  0  0  0  0
    1.9497   46.2857    5.4571 C   0  0  0  0  0  0  0  0  0  0  0  0
    1.6054   47.5931    6.0252 N   0  0  0  0  0  0  0  0  0  0  0  0
    2.3118   48.2777    5.7555 H   0  0  0  0  0  0  0  0  0  0  0  0
    1.5704   47.5233    7.0422 H   0  0  0  0  0  0  0  0  0  0  0  0
    3.2887   45.7811    6.0550 C   0  0  0  0  0  0  0  0  0  0  0  0
    3.6894   44.2872    5.8303 C   0  0  0  0  0  0  0  0  0  0  0  0
    4.4516   44.1513    4.4886 C   0  0  0  0  0  0  0  0  0  0  0  0
    4.6983   43.9124    6.9355 C   0  0  0  0  0  0  0  0  0  0  0  0
    2.5013   43.2691    5.7619 C   0  0  0  0  0  0  0  0  0  0  0  0
    1.5152   40.8870    5.9441 C   0  0  0  0  0  0  0  0  0  0  0  0
    2.6351   41.7656    5.3609 C   0  0  0  0  0  0  0  0  0  0  0  0
    3.9675   41.2625    5.9769 C   0  0  0  0  0  0  0  0  0  0  0  0
    2.7207   41.5384    3.8479 C   0  0  0  0  0  0  0  0  0  0  0  0
 24 25  1  0
 25 26  1  0
 25 27  1  0
 25 23  1  0
 23 20  1  0
 20 21  1  0
 20 22  1  0
 20 19  1  0
 19 15  1  0
 15 16  1  0
 15  1  1  0
  2  1  1  0
  2 11  1  0
 11 12  2  0
 11 13  1  0
  2  3  1  0
  4  3  1  0
  4  5  1  0
  5  6  1  0
  6  7  1  0
  7  8  1  0
  9  8  1  0
  9 10  1  0
 10  2  1  0
  9  4  1  0
 16 17  1  0
 16 18  1  0
 13 14  1  0
M  END
> <minimizedAffinity>
-3.25031

> <CNNscore>
0.2601489127

> <CNNaffinity>
5.5858345032

> <CNN_VS>
1.4531487226

> <CNNaffinity_variance>
0.0258200858

$$$$



 27 28  0  0  0  0  0  0  0  0999 V2000
   11.6520   51.7250   -3.2257 C   0  0  0  0  0  0  0  0  0  0  0  0
   11.3656   52.9521   -2.3308 C   0  0  0  0  0  0  0  0  0  0  0  0
   11.6800   54.3040   -2.9965 C   0  0  0  0  0  0  0  0  0  0  0  0
   12.2002   55.1257   -1.8383 C   0  0  0  0  0  0  0  0  0  0  0  0
   11.0758   55.5930   -1.0864 O   0  0  0  0  0  0  0  0  0  0  0  0
   11.4392   56.0944    0.1966 C   0  0  0  0  0  0  0  0  0  0  0  0
   12.0443   54.9840    1.0408 C   0  0  0  0  0  0  0  0  0  0  0  0
   13.2862   54.4173    0.3608 C   0  0  0  0  0  0  0  0  0  0  0  0
   13.0255   54.0820   -1.1001 C   0  0  0  0  0  0  0  0  0  0  0  0
   12.2916   52.8516   -1.2082 O   0  0  0  0  0  0  0  0  0  0  0  0
    9.9088   52.9325   -1.8318 C   0  0  0  0  0  0  0  0  0  0  0  0
    9.4973   52.3866   -0.8158 O   0  0  0  0  0  0  0  0  0  0  0  0
    9.0530   53.6503   -2.5885 O   0  0  0  0  0  0  0  0  0  0  0  0
    9.3573   54.0722   -3.3678 H   0  0  0  0  0  0  0  0  0  0  0  0
   12.1866   51.9099   -4.6668 C   0  0  0  0  0  0  0  0  0  0  0  0
   13.4848   52.5919   -4.6521 N   0  0  0  0  0  0  0  0  0  0  0  0
   13.3694   53.5347   -4.2803 H   0  0  0  0  0  0  0  0  0  0  0  0
   13.8523   52.6437   -5.6022 H   0  0  0  0  0  0  0  0  0  0  0  0
   11.2139   52.6370   -5.6312 C   0  0  0  0  0  0  0  0  0  0  0  0
   11.0045   52.0472   -7.0633 C   0  0  0  0  0  0  0  0  0  0  0  0
   11.6500   52.9882   -8.1109 C   0  0  0  0  0  0  0  0  0  0  0  0
   11.7937   50.7234   -7.1333 C   0  0  0  0  0  0  0  0  0  0  0  0
    9.5148   51.8568   -7.5076 C   0  0  0  0  0  0  0  0  0  0  0  0
    9.3655   53.2866   -9.6555 C   0  0  0  0  0  0  0  0  0  0  0  0
    8.6884   52.8953   -8.3309 C   0  0  0  0  0  0  0  0  0  0  0  0
    8.6134   54.1824   -7.4674 C   0  0  0  0  0  0  0  0  0  0  0  0
    7.2483   52.4520   -8.6101 C   0  0  0  0  0  0  0  0  0  0  0  0
 24 25  1  0
 25 26  1  0
 25 27  1  0
 25 23  1  0
 23 20  1  0
 20 21  1  0
 20 22  1  0
 20 19  1  0
 19 15  1  0
 15 16  1  0
 15  1  1  0
  2  1  1  0
  2 11  1  0
 11 12  2  0
 11 13  1  0
  2  3  1  0
  4  3  1  0
  4  5  1  0
  5  6  1  0
  6  7  1  0
  7  8  1  0
  9  8  1  0
  9 10  1  0
 10  2  1  0
  9  4  1  0
 16 17  1  0
 16 18  1  0
 13 14  1  0
M  END
> <minimizedAffinity>
-3.56415

> <CNNscore>
0.2270754874

> <CNNaffinity>
3.6085426807

> <CNN_VS>
0.8194115758

> <CNNaffinity_variance>
0.4776601791

$$$$



 27 28  0  0  0  0  0  0  0  0999 V2000
   11.5997   41.8186   -0.5976 C   0  0  0  0  0  0  0  0  0  0  0  0
   11.7803   42.8625   -1.7229 C   0  0  0  0  0  0  0  0  0  0  0  0
   10.4954   43.1621   -2.5160 C   0  0  0  0  0  0  0  0  0  0  0  0
   11.0191   43.3755   -3.9186 C   0  0  0  0  0  0  0  0  0  0  0  0
   11.5495   44.7025   -3.9963 O   0  0  0  0  0  0  0  0  0  0  0  0
   12.3582   44.9073   -5.1511 C   0  0  0  0  0  0  0  0  0  0  0  0
   13.5758   43.9978   -5.1058 C   0  0  0  0  0  0  0  0  0  0  0  0
   13.1446   42.5359   -5.0564 C   0  0  0  0  0  0  0  0  0  0  0  0
   12.0887   42.2954   -3.9879 C   0  0  0  0  0  0  0  0  0  0  0  0
   12.6940   42.2570   -2.6855 O   0  0  0  0  0  0  0  0  0  0  0  0
   12.3745   44.1681   -1.1627 C   0  0  0  0  0  0  0  0  0  0  0  0
   13.5366   44.3483   -0.8212 O   0  0  0  0  0  0  0  0  0  0  0  0
   11.5063   45.2000   -1.1202 O   0  0  0  0  0  0  0  0  0  0  0  0
   10.6148   45.0731   -1.3793 H   0  0  0  0  0  0  0  0  0  0  0  0
   12.7265   41.5721    0.4349 C   0  0  0  0  0  0  0  0  0  0  0  0
   13.5770   40.4541    0.0137 N   0  0  0  0  0  0  0  0  0  0  0  0
   13.0270   39.5952   -0.0010 H   0  0  0  0  0  0  0  0  0  0  0  0
   14.3517   40.3505    0.6690 H   0  0  0  0  0  0  0  0  0  0  0  0
   12.2364   41.3497    1.8893 C   0  0  0  0  0  0  0  0  0  0  0  0
   10.9641   40.4721    2.1211 C   0  0  0  0  0  0  0  0  0  0  0  0
   10.6994   40.3342    3.6412 C   0  0  0  0  0  0  0  0  0  0  0  0
    9.7613   41.2483    1.5461 C   0  0  0  0  0  0  0  0  0  0  0  0
   11.0344   39.0129    1.5567 C   0  0  0  0  0  0  0  0  0  0  0  0
   13.5235   38.6319    2.1391 C   0  0  0  0  0  0  0  0  0  0  0  0
   12.1532   37.9770    1.8950 C   0  0  0  0  0  0  0  0  0  0  0  0
   12.3053   37.0695    0.6455 C   0  0  0  0  0  0  0  0  0  0  0  0
   11.8096   37.0658    3.0781 C   0  0  0  0  0  0  0  0  0  0  0  0
 24 25  1  0
 25 26  1  0
 25 27  1  0
 25 23  1  0
 23 20  1  0
 20 21  1  0
 20 22  1  0
 20 19  1  0
 19 15  1  0
 15 16  1  0
 15  1  1  0
  2  1  1  0
  2 11  1  0
 11 12  2  0
 11 13  1  0
  2  3  1  0
  4  3  1  0
  4  5  1  0
  5  6  1  0
  6  7  1  0
  7  8  1  0
  9  8  1  0
  9 10  1  0
 10  2  1  0
  9  4  1  0
 16 17  1  0
 16 18  1  0
 13 14  1  0
M  END
> <minimizedAffinity>
-3.51198

> <CNNscore>
0.2231581062

> <CNNaffinity>
4.5500082970

> <CNN_VS>
1.0153712034

> <CNNaffinity_variance>
0.2772267759

$$$$



 27 28  0  0  0  0  0  0  0  0999 V2000
   10.5603   51.1593   -3.6475 C   0  0  0  0  0  0  0  0  0  0  0  0
   10.9778   52.3636   -4.5215 C   0  0  0  0  0  0  0  0  0  0  0  0
    9.8569   52.9013   -5.4294 C   0  0  0  0  0  0  0  0  0  0  0  0
   10.6123   53.3102   -6.6742 C   0  0  0  0  0  0  0  0  0  0  0  0
   11.2196   54.5820   -6.4259 O   0  0  0  0  0  0  0  0  0  0  0  0
   12.2151   54.9160   -7.3888 C   0  0  0  0  0  0  0  0  0  0  0  0
   13.3579   53.9149   -7.3296 C   0  0  0  0  0  0  0  0  0  0  0  0
   12.8454   52.5072   -7.6153 C   0  0  0  0  0  0  0  0  0  0  0  0
   11.6185   52.1736   -6.7798 C   0  0  0  0  0  0  0  0  0  0  0  0
   12.0013   51.8604   -5.4309 O   0  0  0  0  0  0  0  0  0  0  0  0
   11.5433   53.4988   -3.6479 C   0  0  0  0  0  0  0  0  0  0  0  0
   11.7072   54.6635   -3.9888 O   0  0  0  0  0  0  0  0  0  0  0  0
   11.8121   53.1392   -2.3757 O   0  0  0  0  0  0  0  0  0  0  0  0
   11.6902   52.2507   -2.1042 H   0  0  0  0  0  0  0  0  0  0  0  0
   11.5704   50.0297   -3.3305 C   0  0  0  0  0  0  0  0  0  0  0  0
   12.9372   50.4550   -3.6492 N   0  0  0  0  0  0  0  0  0  0  0  0
   13.0169   50.6193   -4.6527 H   0  0  0  0  0  0  0  0  0  0  0  0
   13.5938   49.7258   -3.3708 H   0  0  0  0  0  0  0  0  0  0  0  0
   11.2618   48.6727   -4.0148 C   0  0  0  0  0  0  0  0  0  0  0  0
   12.4365   47.6662   -4.2379 C   0  0  0  0  0  0  0  0  0  0  0  0
   13.0064   47.8434   -5.6674 C   0  0  0  0  0  0  0  0  0  0  0  0
   13.5714   48.0656   -3.2723 C   0  0  0  0  0  0  0  0  0  0  0  0
   12.0667   46.1506   -4.1007 C   0  0  0  0  0  0  0  0  0  0  0  0
   13.2837   45.8116   -1.8459 C   0  0  0  0  0  0  0  0  0  0  0  0
   12.1627   45.3235   -2.7794 C   0  0  0  0  0  0  0  0  0  0  0  0
   12.5232   43.8722   -3.1936 C   0  0  0  0  0  0  0  0  0  0  0  0
   10.8460   45.2584   -1.9982 C   0  0  0  0  0  0  0  0  0  0  0  0
 24 25  1  0
 25 26  1  0
 25 27  1  0
 25 23  1  0
 23 20  1  0
 20 21  1  0
 20 22  1  0
 20 19  1  0
 19 15  1  0
 15 16  1  0
 15  1  1  0
  2  1  1  0
  2 11  1  0
 11 12  2  0
 11 13  1  0
  2  3  1  0
  4  3  1  0
  4  5  1  0
  5  6  1  0
  6  7  1  0
  7  8  1  0
  9  8  1  0
  9 10  1  0
 10  2  1  0
  9  4  1  0
 16 17  1  0
 16 18  1  0
 13 14  1  0
M  END
> <minimizedAffinity>
-2.11003

> <CNNscore>
0.2167302519

> <CNNaffinity>
4.5180087090

> <CNN_VS>
0.9791891575

> <CNNaffinity_variance>
0.0343313292

$$$$



 27 28  0  0  0  0  0  0  0  0999 V2000
   11.0734   50.4713   -3.9702 C   0  0  0  0  0  0  0  0  0  0  0  0
   11.3036   51.5932   -5.0080 C   0  0  0  0  0  0  0  0  0  0  0  0
   10.4757   52.8658   -4.7537 C   0  0  0  0  0  0  0  0  0  0  0  0
   10.1450   53.3265   -6.1557 C   0  0  0  0  0  0  0  0  0  0  0  0
   11.2915   54.0027   -6.6817 O   0  0  0  0  0  0  0  0  0  0  0  0
   11.2226   54.1911   -8.0921 C   0  0  0  0  0  0  0  0  0  0  0  0
   11.1991   52.8456   -8.7998 C   0  0  0  0  0  0  0  0  0  0  0  0
    9.9913   52.0305   -8.3497 C   0  0  0  0  0  0  0  0  0  0  0  0
    9.8702   51.9923   -6.8336 C   0  0  0  0  0  0  0  0  0  0  0  0
   10.8183   51.0663   -6.2788 O   0  0  0  0  0  0  0  0  0  0  0  0
   12.7998   51.9443   -5.1057 C   0  0  0  0  0  0  0  0  0  0  0  0
   13.5416   51.7023   -6.0496 O   0  0  0  0  0  0  0  0  0  0  0  0
   13.2774   52.6377   -4.0516 O   0  0  0  0  0  0  0  0  0  0  0  0
   12.7185   52.8284   -3.3241 H   0  0  0  0  0  0  0  0  0  0  0  0
   12.1391   49.3697   -3.7531 C   0  0  0  0  0  0  0  0  0  0  0  0
   13.4373   49.7952   -4.2863 N   0  0  0  0  0  0  0  0  0  0  0  0
   13.3677   49.9129   -5.2971 H   0  0  0  0  0  0  0  0  0  0  0  0
   14.1405   49.0876   -4.0740 H   0  0  0  0  0  0  0  0  0  0  0  0
   11.7594   47.9784   -4.3234 C   0  0  0  0  0  0  0  0  0  0  0  0
   12.1530   46.7054   -3.5066 C   0  0  0  0  0  0  0  0  0  0  0  0
   13.5764   46.8841   -2.9221 C   0  0  0  0  0  0  0  0  0  0  0  0
   11.2002   46.6254   -2.2959 C   0  0  0  0  0  0  0  0  0  0  0  0
   12.1781   45.3629   -4.3128 C   0  0  0  0  0  0  0  0  0  0  0  0
   12.8315   43.8723   -2.3049 C   0  0  0  0  0  0  0  0  0  0  0  0
   12.1371   43.9374   -3.6760 C   0  0  0  0  0  0  0  0  0  0  0  0
   12.9345   43.0069   -4.6279 C   0  0  0  0  0  0  0  0  0  0  0  0
   10.7233   43.3587   -3.5553 C   0  0  0  0  0  0  0  0  0  0  0  0
 24 25  1  0
 25 26  1  0
 25 27  1  0
 25 23  1  0
 23 20  1  0
 20 21  1  0
 20 22  1  0
 20 19  1  0
 19 15  1  0
 15 16  1  0
 15  1  1  0
  2  1  1  0
  2 11  1  0
 11 12  2  0
 11 13  1  0
  2  3  1  0
  4  3  1  0
  4  5  1  0
  5  6  1  0
  6  7  1  0
  7  8  1  0
  9  8  1  0
  9 10  1  0
 10  2  1  0
  9  4  1  0
 16 17  1  0
 16 18  1  0
 13 14  1  0
M  END
> <minimizedAffinity>
-3.01591

> <CNNscore>
0.1971111298

> <CNNaffinity>
4.2530193329

> <CNN_VS>
0.8383174539

> <CNNaffinity_variance>
0.3000001609

$$$$



 27 28  0  0  0  0  0  0  0  0999 V2000
   10.9594   48.3390   -3.6028 C   0  0  0  0  0  0  0  0  0  0  0  0
   10.5372   49.8145   -3.4209 C   0  0  0  0  0  0  0  0  0  0  0  0
   10.2063   50.5416   -4.7368 C   0  0  0  0  0  0  0  0  0  0  0  0
   10.7179   51.9405   -4.4751 C   0  0  0  0  0  0  0  0  0  0  0  0
    9.7443   52.6270   -3.6820 O   0  0  0  0  0  0  0  0  0  0  0  0
   10.2509   53.8249   -3.1005 C   0  0  0  0  0  0  0  0  0  0  0  0
   11.3851   53.5022   -2.1407 C   0  0  0  0  0  0  0  0  0  0  0  0
   12.5167   52.7919   -2.8762 C   0  0  0  0  0  0  0  0  0  0  0  0
   12.0022   51.6343   -3.7187 C   0  0  0  0  0  0  0  0  0  0  0  0
   11.7078   50.5011   -2.8861 O   0  0  0  0  0  0  0  0  0  0  0  0
    9.3534   49.9243   -2.4420 C   0  0  0  0  0  0  0  0  0  0  0  0
    9.0099   50.9269   -1.8287 O   0  0  0  0  0  0  0  0  0  0  0  0
    8.6194   48.7978   -2.3298 O   0  0  0  0  0  0  0  0  0  0  0  0
    8.8732   48.0250   -2.7948 H   0  0  0  0  0  0  0  0  0  0  0  0
   12.3863   47.9829   -4.0864 C   0  0  0  0  0  0  0  0  0  0  0  0
   12.3429   47.3794   -5.4222 N   0  0  0  0  0  0  0  0  0  0  0  0
   11.8400   46.4931   -5.3787 H   0  0  0  0  0  0  0  0  0  0  0  0
   13.2940   47.2147   -5.7519 H   0  0  0  0  0  0  0  0  0  0  0  0
   13.1920   47.0776   -3.1188 C   0  0  0  0  0  0  0  0  0  0  0  0
   12.4798   45.8345   -2.4942 C   0  0  0  0  0  0  0  0  0  0  0  0
   13.4259   45.1533   -1.4742 C   0  0  0  0  0  0  0  0  0  0  0  0
   11.2775   46.3563   -1.6805 C   0  0  0  0  0  0  0  0  0  0  0  0
   12.0528   44.7178   -3.5059 C   0  0  0  0  0  0  0  0  0  0  0  0
   10.2198   43.5740   -2.0876 C   0  0  0  0  0  0  0  0  0  0  0  0
   11.3480   43.3800   -3.1150 C   0  0  0  0  0  0  0  0  0  0  0  0
   12.4272   42.4961   -2.4354 C   0  0  0  0  0  0  0  0  0  0  0  0
   10.8096   42.5953   -4.3161 C   0  0  0  0  0  0  0  0  0  0  0  0
 24 25  1  0
 25 26  1  0
 25 27  1  0
 25 23  1  0
 23 20  1  0
 20 21  1  0
 20 22  1  0
 20 19  1  0
 19 15  1  0
 15 16  1  0
 15  1  1  0
  2  1  1  0
  2 11  1  0
 11 12  2  0
 11 13  1  0
  2  3  1  0
  4  3  1  0
  4  5  1  0
  5  6  1  0
  6  7  1  0
  7  8  1  0
  9  8  1  0
  9 10  1  0
 10  2  1  0
  9  4  1  0
 16 17  1  0
 16 18  1  0
 13 14  1  0
M  END
> <minimizedAffinity>
-4.92626

> <CNNscore>
0.1646818817

> <CNNaffinity>
4.0009198189

> <CNN_VS>
0.6588789821

> <CNNaffinity_variance>
0.7340592742

$$$$
