


 47 49  0  0  0  0  0  0  0  0999 V2000
    8.1221   28.9873    5.7543 C   0  0  0  0  0  0  0  0  0  0  0  0
    7.6174   27.8192    5.0187 N   0  0  0  0  0  0  0  0  0  0  0  0
    8.4411   26.7826    4.6380 C   0  0  0  0  0  0  0  0  0  0  0  0
    9.6343   26.7443    4.9128 O   0  0  0  0  0  0  0  0  0  0  0  0
    6.6605   27.7761    4.7910 H   0  0  0  0  0  0  0  0  0  0  0  0
    7.7239   25.7348    3.8079 C   0  0  0  0  0  0  0  0  0  0  0  0
    7.8532   24.3252    4.3788 C   0  0  0  0  0  0  0  0  0  0  0  0
    6.5850   23.8429    5.0410 C   0  0  0  0  0  0  0  0  0  0  0  0
    6.6199   22.8319    6.0058 C   0  0  0  0  0  0  0  0  0  0  0  0
    5.4403   22.3884    6.6141 C   0  0  0  0  0  0  0  0  0  0  0  0
    4.1967   22.9412    6.2734 C   0  0  0  0  0  0  0  0  0  0  0  0
    4.1715   23.9495    5.2991 C   0  0  0  0  0  0  0  0  0  0  0  0
    5.3494   24.3916    4.6884 C   0  0  0  0  0  0  0  0  0  0  0  0
    2.9714   22.4877    6.9558 C   0  0  0  0  0  0  0  0  0  0  0  0
    1.6539   22.8189    6.6766 C   0  0  0  0  0  0  0  0  0  0  0  0
    0.7071   22.1583    7.5271 C   0  0  0  0  0  0  0  0  0  0  0  0
    1.3511   21.3659    8.4571 C   0  0  0  0  0  0  0  0  0  0  0  0
    3.0503   21.4146    8.2987 S   0  0  0  0  0  0  0  0  0  0  0  0
   -0.7466   22.2614    7.4755 C   0  0  0  0  0  0  0  0  0  0  0  0
   -1.5433   21.2186    7.9659 C   0  0  0  0  0  0  0  0  0  0  0  0
   -2.9369   21.3142    7.9284 C   0  0  0  0  0  0  0  0  0  0  0  0
   -3.5438   22.4554    7.4064 C   0  0  0  0  0  0  0  0  0  0  0  0
   -2.7602   23.5016    6.9214 C   0  0  0  0  0  0  0  0  0  0  0  0
   -1.3671   23.4067    6.9550 C   0  0  0  0  0  0  0  0  0  0  0  0
    7.5276   28.9591    7.1846 C   0  0  0  0  0  0  0  0  0  0  0  0
    6.3371   28.7655    7.4248 O   0  0  0  0  0  0  0  0  0  0  0  0
    8.4155   29.3228    8.1712 N   0  0  0  0  0  0  0  0  0  0  0  0
    9.3608   29.4501    7.9274 H   0  0  0  0  0  0  0  0  0  0  0  0
    8.0216   29.5295    9.5656 C   0  0  0  0  0  0  0  0  0  0  0  0
    8.9831   30.5856   10.1395 C   0  0  0  0  0  0  0  0  0  0  0  0
    8.4268   31.5071   10.9788 N   0  0  0  0  0  0  0  0  0  0  0  0
   10.1866   30.5980    9.8894 O   0  0  0  0  0  0  0  0  0  0  0  0
    7.4609   31.4814   11.1673 H   0  0  0  0  0  0  0  0  0  0  0  0
    8.9915   32.1974   11.3957 H   0  0  0  0  0  0  0  0  0  0  0  0
    8.0727   28.2010   10.3394 C   0  0  0  0  0  0  0  0  0  0  0  0
    8.4947   28.2792   11.8068 C   0  0  0  0  0  0  0  0  0  0  0  0
    9.0230   26.9725   12.3292 C   0  0  0  0  0  0  0  0  0  0  0  0
    8.5586   25.8677   12.0878 O   0  0  0  0  0  0  0  0  0  0  0  0
   10.0979   27.1209   13.1235 O   0  0  0  0  0  0  0  0  0  0  0  0
   10.4384   27.9767   13.2961 H   0  0  0  0  0  0  0  0  0  0  0  0
    7.8187   30.2695    4.9630 C   0  0  0  0  0  0  0  0  0  0  0  0
    8.4511   30.4146    3.5787 C   0  0  0  0  0  0  0  0  0  0  0  0
    6.4311   30.1094    2.2810 N   0  0  0  0  0  0  0  0  0  0  0  0
    7.7082   29.6780    2.4897 C   0  0  0  0  0  0  0  0  0  0  0  0
    8.2018   28.7786    1.8210 O   0  0  0  0  0  0  0  0  0  0  0  0
    5.8748   29.6840    1.5891 H   0  0  0  0  0  0  0  0  0  0  0  0
    6.0658   30.8462    2.8222 H   0  0  0  0  0  0  0  0  0  0  0  0
 43 44  1  0
 44 45  2  0
 44 42  1  0
 42 41  1  0
  1 41  1  0
  1  2  1  0
  2  3  1  0
  3  4  2  0
  3  6  1  0
  6  7  1  0
  7  8  1  0
  8  9  2  0
  9 10  1  0
 10 11  2  0
 11 14  1  0
 14 15  2  0
 15 16  1  0
 16 19  1  0
 19 20  2  0
 20 21  1  0
 21 22  2  0
 22 23  1  0
 23 24  2  0
 16 17  2  0
 17 18  1  0
 11 12  1  0
 12 13  2  0
  1 25  1  0
 25 26  2  0
 25 27  1  0
 27 29  1  0
 29 35  1  0
 35 36  1  0
 36 37  1  0
 37 38  2  0
 37 39  1  0
 29 30  1  0
 30 31  1  0
 30 32  2  0
 13  8  1  0
 18 14  1  0
 24 19  1  0
 43 46  1  0
 43 47  1  0
  2  5  1  0
 27 28  1  0
 39 40  1  0
 31 33  1  0
 31 34  1  0
M  END
> <minimizedAffinity>
-9.53805

> <CNNscore>
0.9333913326

> <CNNaffinity>
8.0041761398

> <CNN_VS>
7.4710288048

> <CNNaffinity_variance>
0.1099161506

$$$$



 47 49  0  0  0  0  0  0  0  0999 V2000
    8.0439   25.0714    3.6543 C   0  0  0  0  0  0  0  0  0  0  0  0
    7.2571   24.7408    4.8510 N   0  0  0  0  0  0  0  0  0  0  0  0
    7.0024   23.4389    5.2223 C   0  0  0  0  0  0  0  0  0  0  0  0
    7.4383   22.4731    4.6073 O   0  0  0  0  0  0  0  0  0  0  0  0
    6.9009   25.4729    5.4046 H   0  0  0  0  0  0  0  0  0  0  0  0
    6.0918   23.3386    6.4315 C   0  0  0  0  0  0  0  0  0  0  0  0
    5.3110   22.0284    6.4878 C   0  0  0  0  0  0  0  0  0  0  0  0
    3.8267   22.2384    6.6667 C   0  0  0  0  0  0  0  0  0  0  0  0
    3.1238   21.5674    7.6717 C   0  0  0  0  0  0  0  0  0  0  0  0
    1.7477   21.7655    7.8307 C   0  0  0  0  0  0  0  0  0  0  0  0
    1.0386   22.6362    6.9898 C   0  0  0  0  0  0  0  0  0  0  0  0
    1.7513   23.2987    5.9800 C   0  0  0  0  0  0  0  0  0  0  0  0
    3.1260   23.0995    5.8183 C   0  0  0  0  0  0  0  0  0  0  0  0
   -0.4028   22.8610    7.2007 C   0  0  0  0  0  0  0  0  0  0  0  0
   -1.3470   21.9869    7.7185 C   0  0  0  0  0  0  0  0  0  0  0  0
   -2.6591   22.5570    7.8159 C   0  0  0  0  0  0  0  0  0  0  0  0
   -2.6711   23.8492    7.3287 C   0  0  0  0  0  0  0  0  0  0  0  0
   -1.1374   24.3586    6.7782 S   0  0  0  0  0  0  0  0  0  0  0  0
   -3.8600   21.9203    8.3444 C   0  0  0  0  0  0  0  0  0  0  0  0
   -4.9914   22.6909    8.6422 C   0  0  0  0  0  0  0  0  0  0  0  0
   -6.1489   22.0868    9.1400 C   0  0  0  0  0  0  0  0  0  0  0  0
   -6.1857   20.7074    9.3376 C   0  0  0  0  0  0  0  0  0  0  0  0
   -5.0675   19.9303    9.0386 C   0  0  0  0  0  0  0  0  0  0  0  0
   -3.9083   20.5327    8.5440 C   0  0  0  0  0  0  0  0  0  0  0  0
    8.7926   26.4027    3.9134 C   0  0  0  0  0  0  0  0  0  0  0  0
   10.0141   26.5243    3.8383 O   0  0  0  0  0  0  0  0  0  0  0  0
    7.9919   27.4161    4.3889 N   0  0  0  0  0  0  0  0  0  0  0  0
    7.0183   27.2721    4.4132 H   0  0  0  0  0  0  0  0  0  0  0  0
    8.5188   28.6978    4.8602 C   0  0  0  0  0  0  0  0  0  0  0  0
    7.8688   28.9602    6.2306 C   0  0  0  0  0  0  0  0  0  0  0  0
    8.5460   29.8052    7.0614 N   0  0  0  0  0  0  0  0  0  0  0  0
    6.7924   28.4683    6.5635 O   0  0  0  0  0  0  0  0  0  0  0  0
    9.4069   30.1895    6.7776 H   0  0  0  0  0  0  0  0  0  0  0  0
    8.1737   30.0305    7.9445 H   0  0  0  0  0  0  0  0  0  0  0  0
    8.2169   29.8089    3.8403 C   0  0  0  0  0  0  0  0  0  0  0  0
    7.8967   29.3606    2.4141 C   0  0  0  0  0  0  0  0  0  0  0  0
    6.8028   30.1746    1.7817 C   0  0  0  0  0  0  0  0  0  0  0  0
    5.8521   30.6705    2.3689 O   0  0  0  0  0  0  0  0  0  0  0  0
    6.9578   30.3204    0.4538 O   0  0  0  0  0  0  0  0  0  0  0  0
    7.6937   29.9323    0.0227 H   0  0  0  0  0  0  0  0  0  0  0  0
    7.1291   25.0846    2.4192 C   0  0  0  0  0  0  0  0  0  0  0  0
    7.6150   25.8454    1.1854 C   0  0  0  0  0  0  0  0  0  0  0  0
    8.7826   23.7873    0.6768 N   0  0  0  0  0  0  0  0  0  0  0  0
    8.3413   24.9800    0.1834 C   0  0  0  0  0  0  0  0  0  0  0  0
    8.5110   25.2951   -0.9878 O   0  0  0  0  0  0  0  0  0  0  0  0
    9.2665   23.1612    0.0911 H   0  0  0  0  0  0  0  0  0  0  0  0
    8.6172   23.5527    1.6185 H   0  0  0  0  0  0  0  0  0  0  0  0
 43 44  1  0
 44 45  2  0
 44 42  1  0
 42 41  1  0
  1 41  1  0
  1  2  1  0
  2  3  1  0
  3  4  2  0
  3  6  1  0
  6  7  1  0
  7  8  1  0
  8  9  2  0
  9 10  1  0
 10 11  2  0
 11 14  1  0
 14 15  2  0
 15 16  1  0
 16 19  1  0
 19 20  2  0
 20 21  1  0
 21 22  2  0
 22 23  1  0
 23 24  2  0
 16 17  2  0
 17 18  1  0
 11 12  1  0
 12 13  2  0
  1 25  1  0
 25 26  2  0
 25 27  1  0
 27 29  1  0
 29 35  1  0
 35 36  1  0
 36 37  1  0
 37 38  2  0
 37 39  1  0
 29 30  1  0
 30 31  1  0
 30 32  2  0
 13  8  1  0
 18 14  1  0
 24 19  1  0
 43 46  1  0
 43 47  1  0
  2  5  1  0
 27 28  1  0
 39 40  1  0
 31 33  1  0
 31 34  1  0
M  END
> <minimizedAffinity>
-9.92055

> <CNNscore>
0.9025852680

> <CNNaffinity>
7.7785601616

> <CNN_VS>
7.0208139420

> <CNNaffinity_variance>
0.2666270435

$$$$



 47 49  0  0  0  0  0  0  0  0999 V2000
    7.4038   28.4769    4.8547 C   0  0  0  0  0  0  0  0  0  0  0  0
    7.4311   27.0107    4.9542 N   0  0  0  0  0  0  0  0  0  0  0  0
    8.6118   26.3042    5.0232 C   0  0  0  0  0  0  0  0  0  0  0  0
    9.7113   26.8440    5.0417 O   0  0  0  0  0  0  0  0  0  0  0  0
    6.5790   26.5181    4.9719 H   0  0  0  0  0  0  0  0  0  0  0  0
    8.4001   24.8019    5.0221 C   0  0  0  0  0  0  0  0  0  0  0  0
    7.2582   24.3575    4.1122 C   0  0  0  0  0  0  0  0  0  0  0  0
    6.0539   23.8684    4.8802 C   0  0  0  0  0  0  0  0  0  0  0  0
    4.7922   24.4327    4.6703 C   0  0  0  0  0  0  0  0  0  0  0  0
    3.6806   23.9757    5.3870 C   0  0  0  0  0  0  0  0  0  0  0  0
    3.8007   22.9460    6.3322 C   0  0  0  0  0  0  0  0  0  0  0  0
    5.0718   22.3917    6.5409 C   0  0  0  0  0  0  0  0  0  0  0  0
    6.1840   22.8495    5.8272 C   0  0  0  0  0  0  0  0  0  0  0  0
    2.6096   22.4522    7.0465 C   0  0  0  0  0  0  0  0  0  0  0  0
    1.2807   22.7992    6.8534 C   0  0  0  0  0  0  0  0  0  0  0  0
    0.3756   22.0888    7.7091 C   0  0  0  0  0  0  0  0  0  0  0  0
    1.0628   21.2425    8.5569 C   0  0  0  0  0  0  0  0  0  0  0  0
    2.7521   21.3010    8.3174 S   0  0  0  0  0  0  0  0  0  0  0  0
   -1.0786   22.1944    7.7360 C   0  0  0  0  0  0  0  0  0  0  0  0
   -1.7002   23.4175    7.4526 C   0  0  0  0  0  0  0  0  0  0  0  0
   -3.0935   23.5241    7.4673 C   0  0  0  0  0  0  0  0  0  0  0  0
   -3.8752   22.4075    7.7590 C   0  0  0  0  0  0  0  0  0  0  0  0
   -3.2670   21.1840    8.0364 C   0  0  0  0  0  0  0  0  0  0  0  0
   -1.8744   21.0761    8.0254 C   0  0  0  0  0  0  0  0  0  0  0  0
    8.1838   28.8956    3.5833 C   0  0  0  0  0  0  0  0  0  0  0  0
    8.7771   29.9667    3.4687 O   0  0  0  0  0  0  0  0  0  0  0  0
    8.0341   28.0335    2.5210 N   0  0  0  0  0  0  0  0  0  0  0  0
    7.5640   27.1816    2.6712 H   0  0  0  0  0  0  0  0  0  0  0  0
    8.5405   28.3226    1.1785 C   0  0  0  0  0  0  0  0  0  0  0  0
    7.5457   29.3078    0.5389 C   0  0  0  0  0  0  0  0  0  0  0  0
    7.9590   30.6061    0.4574 N   0  0  0  0  0  0  0  0  0  0  0  0
    6.4520   28.9597    0.0986 O   0  0  0  0  0  0  0  0  0  0  0  0
    8.8383   30.8662    0.8156 H   0  0  0  0  0  0  0  0  0  0  0  0
    7.3777   31.2824    0.0404 H   0  0  0  0  0  0  0  0  0  0  0  0
    8.6876   27.0225    0.3697 C   0  0  0  0  0  0  0  0  0  0  0  0
    8.9720   25.7490    1.1664 C   0  0  0  0  0  0  0  0  0  0  0  0
    8.4956   24.5074    0.4658 C   0  0  0  0  0  0  0  0  0  0  0  0
    9.2110   23.6345   -0.0040 O   0  0  0  0  0  0  0  0  0  0  0  0
    7.1552   24.4289    0.3904 O   0  0  0  0  0  0  0  0  0  0  0  0
    6.6247   25.1088    0.7569 H   0  0  0  0  0  0  0  0  0  0  0  0
    7.9318   29.0953    6.1589 C   0  0  0  0  0  0  0  0  0  0  0  0
    6.9589   29.9296    6.9925 C   0  0  0  0  0  0  0  0  0  0  0  0
    7.5448   28.6316    8.9495 N   0  0  0  0  0  0  0  0  0  0  0  0
    6.5385   29.2661    8.2823 C   0  0  0  0  0  0  0  0  0  0  0  0
    5.3963   29.3026    8.7227 O   0  0  0  0  0  0  0  0  0  0  0  0
    7.3585   28.1724    9.8001 H   0  0  0  0  0  0  0  0  0  0  0  0
    8.4575   28.6328    8.5804 H   0  0  0  0  0  0  0  0  0  0  0  0
 43 44  1  0
 44 45  2  0
 44 42  1  0
 42 41  1  0
  1 41  1  0
  1  2  1  0
  2  3  1  0
  3  4  2  0
  3  6  1  0
  6  7  1  0
  7  8  1  0
  8  9  2  0
  9 10  1  0
 10 11  2  0
 11 14  1  0
 14 15  2  0
 15 16  1  0
 16 19  1  0
 19 20  2  0
 20 21  1  0
 21 22  2  0
 22 23  1  0
 23 24  2  0
 16 17  2  0
 17 18  1  0
 11 12  1  0
 12 13  2  0
  1 25  1  0
 25 26  2  0
 25 27  1  0
 27 29  1  0
 29 35  1  0
 35 36  1  0
 36 37  1  0
 37 38  2  0
 37 39  1  0
 29 30  1  0
 30 31  1  0
 30 32  2  0
 13  8  1  0
 18 14  1  0
 24 19  1  0
 43 46  1  0
 43 47  1  0
  2  5  1  0
 27 28  1  0
 39 40  1  0
 31 33  1  0
 31 34  1  0
M  END
> <minimizedAffinity>
-9.61657

> <CNNscore>
0.8351704478

> <CNNaffinity>
8.2880086899

> <CNN_VS>
6.9218997955

> <CNNaffinity_variance>
0.0011819483

$$$$



 47 49  0  0  0  0  0  0  0  0999 V2000
    8.4260   28.7510    5.4666 C   0  0  0  0  0  0  0  0  0  0  0  0
    7.8215   27.5875    4.8024 N   0  0  0  0  0  0  0  0  0  0  0  0
    8.5799   26.6495    4.1369 C   0  0  0  0  0  0  0  0  0  0  0  0
    9.8027   26.6989    4.0813 O   0  0  0  0  0  0  0  0  0  0  0  0
    6.8440   27.4749    4.8341 H   0  0  0  0  0  0  0  0  0  0  0  0
    7.7377   25.5926    3.4476 C   0  0  0  0  0  0  0  0  0  0  0  0
    7.8686   24.2116    4.0843 C   0  0  0  0  0  0  0  0  0  0  0  0
    6.6212   23.7855    4.8203 C   0  0  0  0  0  0  0  0  0  0  0  0
    5.4020   24.4327    4.5993 C   0  0  0  0  0  0  0  0  0  0  0  0
    4.2502   24.0336    5.2863 C   0  0  0  0  0  0  0  0  0  0  0  0
    4.2867   22.9804    6.2123 C   0  0  0  0  0  0  0  0  0  0  0  0
    5.5160   22.3425    6.4326 C   0  0  0  0  0  0  0  0  0  0  0  0
    6.6684   22.7423    5.7486 C   0  0  0  0  0  0  0  0  0  0  0  0
    3.0533   22.5497    6.8948 C   0  0  0  0  0  0  0  0  0  0  0  0
    1.7431   22.9157    6.6241 C   0  0  0  0  0  0  0  0  0  0  0  0
    0.7837   22.2695    7.4715 C   0  0  0  0  0  0  0  0  0  0  0  0
    1.4115   21.4522    8.3908 C   0  0  0  0  0  0  0  0  0  0  0  0
    3.1108   21.4612    8.2263 S   0  0  0  0  0  0  0  0  0  0  0  0
   -0.6673   22.4084    7.4265 C   0  0  0  0  0  0  0  0  0  0  0  0
   -1.2461   23.5865    6.9371 C   0  0  0  0  0  0  0  0  0  0  0  0
   -2.6357   23.7232    6.8821 C   0  0  0  0  0  0  0  0  0  0  0  0
   -3.4563   22.6809    7.3100 C   0  0  0  0  0  0  0  0  0  0  0  0
   -2.8907   21.5017    7.7931 C   0  0  0  0  0  0  0  0  0  0  0  0
   -1.5019   21.3643    7.8519 C   0  0  0  0  0  0  0  0  0  0  0  0
    7.7762   28.9087    6.8641 C   0  0  0  0  0  0  0  0  0  0  0  0
    6.5631   28.8659    7.0612 O   0  0  0  0  0  0  0  0  0  0  0  0
    8.6599   29.2566    7.8603 N   0  0  0  0  0  0  0  0  0  0  0  0
    9.6223   29.2598    7.6531 H   0  0  0  0  0  0  0  0  0  0  0  0
    8.2370   29.6221    9.2131 C   0  0  0  0  0  0  0  0  0  0  0  0
    9.4745   30.2111    9.9137 C   0  0  0  0  0  0  0  0  0  0  0  0
    9.9881   29.4729   10.9404 N   0  0  0  0  0  0  0  0  0  0  0  0
    9.9981   31.2677    9.5661 O   0  0  0  0  0  0  0  0  0  0  0  0
    9.5551   28.6291   11.2047 H   0  0  0  0  0  0  0  0  0  0  0  0
   10.7915   29.7841   11.4167 H   0  0  0  0  0  0  0  0  0  0  0  0
    7.6702   28.3950    9.9473 C   0  0  0  0  0  0  0  0  0  0  0  0
    6.4984   28.6461   10.8967 C   0  0  0  0  0  0  0  0  0  0  0  0
    5.5727   29.7229   10.4041 C   0  0  0  0  0  0  0  0  0  0  0  0
    5.3465   30.7828   10.9697 O   0  0  0  0  0  0  0  0  0  0  0  0
    4.9821   29.4135    9.2362 O   0  0  0  0  0  0  0  0  0  0  0  0
    5.1691   28.5957    8.8189 H   0  0  0  0  0  0  0  0  0  0  0  0
    8.3009   29.9876    4.5624 C   0  0  0  0  0  0  0  0  0  0  0  0
    7.0563   30.0987    3.6816 C   0  0  0  0  0  0  0  0  0  0  0  0
    7.0159   28.9075    1.5752 N   0  0  0  0  0  0  0  0  0  0  0  0
    7.3537   30.0712    2.2013 C   0  0  0  0  0  0  0  0  0  0  0  0
    7.8377   31.0152    1.5893 O   0  0  0  0  0  0  0  0  0  0  0  0
    7.1755   28.8039    0.6092 H   0  0  0  0  0  0  0  0  0  0  0  0
    6.6124   28.1711    2.0892 H   0  0  0  0  0  0  0  0  0  0  0  0
 43 44  1  0
 44 45  2  0
 44 42  1  0
 42 41  1  0
  1 41  1  0
  1  2  1  0
  2  3  1  0
  3  4  2  0
  3  6  1  0
  6  7  1  0
  7  8  1  0
  8  9  2  0
  9 10  1  0
 10 11  2  0
 11 14  1  0
 14 15  2  0
 15 16  1  0
 16 19  1  0
 19 20  2  0
 20 21  1  0
 21 22  2  0
 22 23  1  0
 23 24  2  0
 16 17  2  0
 17 18  1  0
 11 12  1  0
 12 13  2  0
  1 25  1  0
 25 26  2  0
 25 27  1  0
 27 29  1  0
 29 35  1  0
 35 36  1  0
 36 37  1  0
 37 38  2  0
 37 39  1  0
 29 30  1  0
 30 31  1  0
 30 32  2  0
 13  8  1  0
 18 14  1  0
 24 19  1  0
 43 46  1  0
 43 47  1  0
  2  5  1  0
 27 28  1  0
 39 40  1  0
 31 33  1  0
 31 34  1  0
M  END
> <minimizedAffinity>
-9.28525

> <CNNscore>
0.8275493383

> <CNNaffinity>
7.7011713982

> <CNN_VS>
6.3730993271

> <CNNaffinity_variance>
0.3273594677

$$$$



 47 49  0  0  0  0  0  0  0  0999 V2000
    7.6497   29.1452    4.5311 C   0  0  0  0  0  0  0  0  0  0  0  0
    8.1646   27.7722    4.4311 N   0  0  0  0  0  0  0  0  0  0  0  0
    7.7358   26.7672    5.2702 C   0  0  0  0  0  0  0  0  0  0  0  0
    6.8779   26.9363    6.1282 O   0  0  0  0  0  0  0  0  0  0  0  0
    8.8370   27.5641    3.7428 H   0  0  0  0  0  0  0  0  0  0  0  0
    8.4728   25.4600    5.0482 C   0  0  0  0  0  0  0  0  0  0  0  0
    7.6830   24.4612    4.2066 C   0  0  0  0  0  0  0  0  0  0  0  0
    6.4453   23.9547    4.9072 C   0  0  0  0  0  0  0  0  0  0  0  0
    6.5297   22.9474    5.8729 C   0  0  0  0  0  0  0  0  0  0  0  0
    5.3782   22.4814    6.5171 C   0  0  0  0  0  0  0  0  0  0  0  0
    4.1139   23.0074    6.2121 C   0  0  0  0  0  0  0  0  0  0  0  0
    4.0388   24.0120    5.2367 C   0  0  0  0  0  0  0  0  0  0  0  0
    5.1886   24.4766    4.5903 C   0  0  0  0  0  0  0  0  0  0  0  0
    2.9190   22.5306    6.9317 C   0  0  0  0  0  0  0  0  0  0  0  0
    1.5848   22.7996    6.6646 C   0  0  0  0  0  0  0  0  0  0  0  0
    0.6793   22.1329    7.5544 C   0  0  0  0  0  0  0  0  0  0  0  0
    1.3696   21.4000    8.4998 C   0  0  0  0  0  0  0  0  0  0  0  0
    3.0626   21.5098    8.3095 S   0  0  0  0  0  0  0  0  0  0  0  0
   -0.7780   22.1769    7.5251 C   0  0  0  0  0  0  0  0  0  0  0  0
   -1.4377   23.3211    7.0581 C   0  0  0  0  0  0  0  0  0  0  0  0
   -2.8338   23.3671    7.0183 C   0  0  0  0  0  0  0  0  0  0  0  0
   -3.5799   22.2674    7.4388 C   0  0  0  0  0  0  0  0  0  0  0  0
   -2.9334   21.1214    7.8995 C   0  0  0  0  0  0  0  0  0  0  0  0
   -1.5380   21.0745    7.9432 C   0  0  0  0  0  0  0  0  0  0  0  0
    7.9329   29.8725    3.1929 C   0  0  0  0  0  0  0  0  0  0  0  0
    8.9859   30.4571    2.9436 O   0  0  0  0  0  0  0  0  0  0  0  0
    6.8467   29.9468    2.3510 N   0  0  0  0  0  0  0  0  0  0  0  0
    6.0332   29.4466    2.5902 H   0  0  0  0  0  0  0  0  0  0  0  0
    6.8432   30.7340    1.1170 C   0  0  0  0  0  0  0  0  0  0  0  0
    5.6245   31.6707    1.1996 C   0  0  0  0  0  0  0  0  0  0  0  0
    5.2346   32.2491    0.0264 N   0  0  0  0  0  0  0  0  0  0  0  0
    5.0109   31.8764    2.2448 O   0  0  0  0  0  0  0  0  0  0  0  0
    5.7385   32.0726   -0.8008 H   0  0  0  0  0  0  0  0  0  0  0  0
    4.4495   32.8428    0.0073 H   0  0  0  0  0  0  0  0  0  0  0  0
    6.7943   29.8073   -0.1097 C   0  0  0  0  0  0  0  0  0  0  0  0
    7.0066   30.4649   -1.4735 C   0  0  0  0  0  0  0  0  0  0  0  0
    6.0132   30.0018   -2.5021 C   0  0  0  0  0  0  0  0  0  0  0  0
    4.8164   30.2511   -2.5008 O   0  0  0  0  0  0  0  0  0  0  0  0
    6.5706   29.2534   -3.4704 O   0  0  0  0  0  0  0  0  0  0  0  0
    7.4900   29.0738   -3.4530 H   0  0  0  0  0  0  0  0  0  0  0  0
    8.2454   29.8338    5.7693 C   0  0  0  0  0  0  0  0  0  0  0  0
    7.2720   30.3686    6.8200 C   0  0  0  0  0  0  0  0  0  0  0  0
    8.8125   29.3104    8.3578 N   0  0  0  0  0  0  0  0  0  0  0  0
    7.6886   30.0745    8.2414 C   0  0  0  0  0  0  0  0  0  0  0  0
    7.0924   30.4973    9.2241 O   0  0  0  0  0  0  0  0  0  0  0  0
    9.1548   29.0710    9.2493 H   0  0  0  0  0  0  0  0  0  0  0  0
    9.2814   28.9984    7.5504 H   0  0  0  0  0  0  0  0  0  0  0  0
 43 44  1  0
 44 45  2  0
 44 42  1  0
 42 41  1  0
  1 41  1  0
  1  2  1  0
  2  3  1  0
  3  4  2  0
  3  6  1  0
  6  7  1  0
  7  8  1  0
  8  9  2  0
  9 10  1  0
 10 11  2  0
 11 14  1  0
 14 15  2  0
 15 16  1  0
 16 19  1  0
 19 20  2  0
 20 21  1  0
 21 22  2  0
 22 23  1  0
 23 24  2  0
 16 17  2  0
 17 18  1  0
 11 12  1  0
 12 13  2  0
  1 25  1  0
 25 26  2  0
 25 27  1  0
 27 29  1  0
 29 35  1  0
 35 36  1  0
 36 37  1  0
 37 38  2  0
 37 39  1  0
 29 30  1  0
 30 31  1  0
 30 32  2  0
 13  8  1  0
 18 14  1  0
 24 19  1  0
 43 46  1  0
 43 47  1  0
  2  5  1  0
 27 28  1  0
 39 40  1  0
 31 33  1  0
 31 34  1  0
M  END
> <minimizedAffinity>
-8.51418

> <CNNscore>
0.7829220891

> <CNNaffinity>
7.6991057396

> <CNN_VS>
6.0278000832

> <CNNaffinity_variance>
0.2649613619

$$$$



 47 49  0  0  0  0  0  0  0  0999 V2000
    8.0458   25.2417    3.9004 C   0  0  0  0  0  0  0  0  0  0  0  0
    7.2741   24.8144    5.0760 N   0  0  0  0  0  0  0  0  0  0  0  0
    7.0132   23.4871    5.3368 C   0  0  0  0  0  0  0  0  0  0  0  0
    7.4311   22.5752    4.6335 O   0  0  0  0  0  0  0  0  0  0  0  0
    6.9329   25.4982    5.6967 H   0  0  0  0  0  0  0  0  0  0  0  0
    6.1199   23.2891    6.5469 C   0  0  0  0  0  0  0  0  0  0  0  0
    5.3203   21.9900    6.4963 C   0  0  0  0  0  0  0  0  0  0  0  0
    3.8378   22.2073    6.6818 C   0  0  0  0  0  0  0  0  0  0  0  0
    3.1327   21.5266    7.6787 C   0  0  0  0  0  0  0  0  0  0  0  0
    1.7584   21.7314    7.8439 C   0  0  0  0  0  0  0  0  0  0  0  0
    1.0532   22.6188    7.0172 C   0  0  0  0  0  0  0  0  0  0  0  0
    1.7679   23.2911    6.0154 C   0  0  0  0  0  0  0  0  0  0  0  0
    3.1410   23.0851    5.8476 C   0  0  0  0  0  0  0  0  0  0  0  0
   -0.3862   22.8502    7.2348 C   0  0  0  0  0  0  0  0  0  0  0  0
   -1.3423   21.9632    7.7070 C   0  0  0  0  0  0  0  0  0  0  0  0
   -2.6480   22.5433    7.8283 C   0  0  0  0  0  0  0  0  0  0  0  0
   -2.6432   23.8577    7.4043 C   0  0  0  0  0  0  0  0  0  0  0  0
   -1.1019   24.3751    6.8834 S   0  0  0  0  0  0  0  0  0  0  0  0
   -3.8579   21.8960    8.3219 C   0  0  0  0  0  0  0  0  0  0  0  0
   -3.8901   20.5067    8.4986 C   0  0  0  0  0  0  0  0  0  0  0  0
   -5.0428   19.8804    8.9801 C   0  0  0  0  0  0  0  0  0  0  0  0
   -6.1690   20.6392    9.2944 C   0  0  0  0  0  0  0  0  0  0  0  0
   -6.1457   22.0232    9.1282 C   0  0  0  0  0  0  0  0  0  0  0  0
   -4.9956   22.6508    8.6439 C   0  0  0  0  0  0  0  0  0  0  0  0
    8.6793   26.6220    4.2064 C   0  0  0  0  0  0  0  0  0  0  0  0
    9.8917   26.8154    4.2781 O   0  0  0  0  0  0  0  0  0  0  0  0
    7.7692   27.5967    4.5468 N   0  0  0  0  0  0  0  0  0  0  0  0
    6.8100   27.3947    4.4559 H   0  0  0  0  0  0  0  0  0  0  0  0
    8.1594   28.9193    5.0375 C   0  0  0  0  0  0  0  0  0  0  0  0
    7.7417   28.9769    6.5179 C   0  0  0  0  0  0  0  0  0  0  0  0
    8.4524   29.8348    7.3065 N   0  0  0  0  0  0  0  0  0  0  0  0
    6.8099   28.3175    6.9742 O   0  0  0  0  0  0  0  0  0  0  0  0
    9.1955   30.3546    6.9234 H   0  0  0  0  0  0  0  0  0  0  0  0
    8.2220   29.9337    8.2586 H   0  0  0  0  0  0  0  0  0  0  0  0
    7.4968   30.0211    4.1931 C   0  0  0  0  0  0  0  0  0  0  0  0
    8.4335   31.0261    3.5222 C   0  0  0  0  0  0  0  0  0  0  0  0
    9.5145   31.5169    4.4440 C   0  0  0  0  0  0  0  0  0  0  0  0
    9.3411   32.1708    5.4623 O   0  0  0  0  0  0  0  0  0  0  0  0
   10.7481   31.1650    4.0405 O   0  0  0  0  0  0  0  0  0  0  0  0
   10.8594   30.6635    3.2569 H   0  0  0  0  0  0  0  0  0  0  0  0
    7.1485   25.2148    2.6529 C   0  0  0  0  0  0  0  0  0  0  0  0
    7.6272   25.9795    1.4186 C   0  0  0  0  0  0  0  0  0  0  0  0
    7.7595   23.9059    0.1775 N   0  0  0  0  0  0  0  0  0  0  0  0
    8.3443   25.1164    0.4080 C   0  0  0  0  0  0  0  0  0  0  0  0
    9.3575   25.4657   -0.1847 O   0  0  0  0  0  0  0  0  0  0  0  0
    8.1614   23.2799   -0.4674 H   0  0  0  0  0  0  0  0  0  0  0  0
    6.9355   23.6582    0.6560 H   0  0  0  0  0  0  0  0  0  0  0  0
 43 44  1  0
 44 45  2  0
 44 42  1  0
 42 41  1  0
  1 41  1  0
  1  2  1  0
  2  3  1  0
  3  4  2  0
  3  6  1  0
  6  7  1  0
  7  8  1  0
  8  9  2  0
  9 10  1  0
 10 11  2  0
 11 14  1  0
 14 15  2  0
 15 16  1  0
 16 19  1  0
 19 20  2  0
 20 21  1  0
 21 22  2  0
 22 23  1  0
 23 24  2  0
 16 17  2  0
 17 18  1  0
 11 12  1  0
 12 13  2  0
  1 25  1  0
 25 26  2  0
 25 27  1  0
 27 29  1  0
 29 35  1  0
 35 36  1  0
 36 37  1  0
 37 38  2  0
 37 39  1  0
 29 30  1  0
 30 31  1  0
 30 32  2  0
 13  8  1  0
 18 14  1  0
 24 19  1  0
 43 46  1  0
 43 47  1  0
  2  5  1  0
 27 28  1  0
 39 40  1  0
 31 33  1  0
 31 34  1  0
M  END
> <minimizedAffinity>
-10.01373

> <CNNscore>
0.7777124643

> <CNNaffinity>
7.7020058632

> <CNN_VS>
5.9899458885

> <CNNaffinity_variance>
0.1110543609

$$$$



 47 49  0  0  0  0  0  0  0  0999 V2000
    8.6682   27.5071    3.2963 C   0  0  0  0  0  0  0  0  0  0  0  0
    7.8267   26.7457    4.2304 N   0  0  0  0  0  0  0  0  0  0  0  0
    8.2976   25.6404    4.9045 C   0  0  0  0  0  0  0  0  0  0  0  0
    9.4500   25.2378    4.8013 O   0  0  0  0  0  0  0  0  0  0  0  0
    6.8974   27.0347    4.3789 H   0  0  0  0  0  0  0  0  0  0  0  0
    7.2283   24.9586    5.7371 C   0  0  0  0  0  0  0  0  0  0  0  0
    6.7063   23.6709    5.1056 C   0  0  0  0  0  0  0  0  0  0  0  0
    5.3882   23.2241    5.6907 C   0  0  0  0  0  0  0  0  0  0  0  0
    4.1866   23.8086    5.2797 C   0  0  0  0  0  0  0  0  0  0  0  0
    2.9686   23.3909    5.8275 C   0  0  0  0  0  0  0  0  0  0  0  0
    2.9196   22.3813    6.8004 C   0  0  0  0  0  0  0  0  0  0  0  0
    4.1308   21.8066    7.2115 C   0  0  0  0  0  0  0  0  0  0  0  0
    5.3489   22.2252    6.6667 C   0  0  0  0  0  0  0  0  0  0  0  0
    1.6225   21.9284    7.3345 C   0  0  0  0  0  0  0  0  0  0  0  0
    0.4114   22.6042    7.3513 C   0  0  0  0  0  0  0  0  0  0  0  0
   -0.6601   21.8404    7.9209 C   0  0  0  0  0  0  0  0  0  0  0  0
   -0.2097   20.6088    8.3541 C   0  0  0  0  0  0  0  0  0  0  0  0
    1.4586   20.3821    8.0715 S   0  0  0  0  0  0  0  0  0  0  0  0
   -2.0550   22.2435    8.0568 C   0  0  0  0  0  0  0  0  0  0  0  0
   -2.4142   23.5906    7.9197 C   0  0  0  0  0  0  0  0  0  0  0  0
   -3.7500   23.9832    8.0393 C   0  0  0  0  0  0  0  0  0  0  0  0
   -4.7367   23.0312    8.2903 C   0  0  0  0  0  0  0  0  0  0  0  0
   -4.3910   21.6870    8.4223 C   0  0  0  0  0  0  0  0  0  0  0  0
   -3.0559   21.2930    8.3064 C   0  0  0  0  0  0  0  0  0  0  0  0
    8.6396   28.9981    3.7162 C   0  0  0  0  0  0  0  0  0  0  0  0
    9.6488   29.6588    3.9560 O   0  0  0  0  0  0  0  0  0  0  0  0
    7.3772   29.4931    3.9517 N   0  0  0  0  0  0  0  0  0  0  0  0
    6.6028   28.9282    3.7269 H   0  0  0  0  0  0  0  0  0  0  0  0
    7.1310   30.8191    4.5203 C   0  0  0  0  0  0  0  0  0  0  0  0
    7.3305   31.8292    3.3761 C   0  0  0  0  0  0  0  0  0  0  0  0
    7.4622   33.1357    3.7483 N   0  0  0  0  0  0  0  0  0  0  0  0
    7.3965   31.4947    2.1950 O   0  0  0  0  0  0  0  0  0  0  0  0
    7.4065   33.3847    4.6992 H   0  0  0  0  0  0  0  0  0  0  0  0
    7.6129   33.8292    3.0660 H   0  0  0  0  0  0  0  0  0  0  0  0
    8.0745   31.0768    5.7075 C   0  0  0  0  0  0  0  0  0  0  0  0
    7.5689   30.6564    7.0877 C   0  0  0  0  0  0  0  0  0  0  0  0
    7.6470   29.1714    7.3069 C   0  0  0  0  0  0  0  0  0  0  0  0
    6.9197   28.3350    6.7913 O   0  0  0  0  0  0  0  0  0  0  0  0
    8.6262   28.8174    8.1580 O   0  0  0  0  0  0  0  0  0  0  0  0
    9.1728   29.4741    8.5426 H   0  0  0  0  0  0  0  0  0  0  0  0
    8.2115   27.2426    1.8528 C   0  0  0  0  0  0  0  0  0  0  0  0
    8.9040   26.1163    1.0853 C   0  0  0  0  0  0  0  0  0  0  0  0
    7.6650   24.3864   -0.0679 N   0  0  0  0  0  0  0  0  0  0  0  0
    8.1622   24.8018    1.1324 C   0  0  0  0  0  0  0  0  0  0  0  0
    8.0265   24.1358    2.1512 O   0  0  0  0  0  0  0  0  0  0  0  0
    7.1673   23.5391   -0.1279 H   0  0  0  0  0  0  0  0  0  0  0  0
    7.8038   24.9339   -0.8743 H   0  0  0  0  0  0  0  0  0  0  0  0
 43 44  1  0
 44 45  2  0
 44 42  1  0
 42 41  1  0
  1 41  1  0
  1  2  1  0
  2  3  1  0
  3  4  2  0
  3  6  1  0
  6  7  1  0
  7  8  1  0
  8  9  2  0
  9 10  1  0
 10 11  2  0
 11 14  1  0
 14 15  2  0
 15 16  1  0
 16 19  1  0
 19 20  2  0
 20 21  1  0
 21 22  2  0
 22 23  1  0
 23 24  2  0
 16 17  2  0
 17 18  1  0
 11 12  1  0
 12 13  2  0
  1 25  1  0
 25 26  2  0
 25 27  1  0
 27 29  1  0
 29 35  1  0
 35 36  1  0
 36 37  1  0
 37 38  2  0
 37 39  1  0
 29 30  1  0
 30 31  1  0
 30 32  2  0
 13  8  1  0
 18 14  1  0
 24 19  1  0
 43 46  1  0
 43 47  1  0
  2  5  1  0
 27 28  1  0
 39 40  1  0
 31 33  1  0
 31 34  1  0
M  END
> <minimizedAffinity>
-9.70535

> <CNNscore>
0.7390447855

> <CNNaffinity>
7.7817287445

> <CNN_VS>
5.7510461807

> <CNNaffinity_variance>
0.0692861900

$$$$



 47 49  0  0  0  0  0  0  0  0999 V2000
    8.6667   27.8660    3.5484 C   0  0  0  0  0  0  0  0  0  0  0  0
    7.9333   26.9132    4.3938 N   0  0  0  0  0  0  0  0  0  0  0  0
    8.5220   25.7697    4.8874 C   0  0  0  0  0  0  0  0  0  0  0  0
    9.6969   25.4857    4.6879 O   0  0  0  0  0  0  0  0  0  0  0  0
    6.9918   27.0980    4.6142 H   0  0  0  0  0  0  0  0  0  0  0  0
    7.5507   24.8899    5.6516 C   0  0  0  0  0  0  0  0  0  0  0  0
    6.7307   23.9744    4.7466 C   0  0  0  0  0  0  0  0  0  0  0  0
    5.4577   23.4927    5.3998 C   0  0  0  0  0  0  0  0  0  0  0  0
    4.2241   24.0640    5.0739 C   0  0  0  0  0  0  0  0  0  0  0  0
    3.0483   23.6139    5.6846 C   0  0  0  0  0  0  0  0  0  0  0  0
    3.0744   22.5841    6.6369 C   0  0  0  0  0  0  0  0  0  0  0  0
    4.3175   22.0227    6.9626 C   0  0  0  0  0  0  0  0  0  0  0  0
    5.4936   22.4736    6.3550 C   0  0  0  0  0  0  0  0  0  0  0  0
    1.8194   22.0977    7.2378 C   0  0  0  0  0  0  0  0  0  0  0  0
    0.5674   22.6943    7.2255 C   0  0  0  0  0  0  0  0  0  0  0  0
   -0.4418   21.9161    7.8829 C   0  0  0  0  0  0  0  0  0  0  0  0
    0.0957   20.7575    8.4086 C   0  0  0  0  0  0  0  0  0  0  0  0
    1.7699   20.6135    8.1072 S   0  0  0  0  0  0  0  0  0  0  0  0
   -1.8573   22.2401    8.0168 C   0  0  0  0  0  0  0  0  0  0  0  0
   -2.2897   23.5669    7.8929 C   0  0  0  0  0  0  0  0  0  0  0  0
   -3.6456   23.8839    8.0105 C   0  0  0  0  0  0  0  0  0  0  0  0
   -4.5793   22.8762    8.2464 C   0  0  0  0  0  0  0  0  0  0  0  0
   -4.1605   21.5517    8.3652 C   0  0  0  0  0  0  0  0  0  0  0  0
   -2.8053   21.2331    8.2512 C   0  0  0  0  0  0  0  0  0  0  0  0
    8.2520   29.3018    3.9565 C   0  0  0  0  0  0  0  0  0  0  0  0
    7.2614   29.8786    3.5107 O   0  0  0  0  0  0  0  0  0  0  0  0
    9.1709   29.9496    4.7503 N   0  0  0  0  0  0  0  0  0  0  0  0
    9.9378   29.4367    5.0938 H   0  0  0  0  0  0  0  0  0  0  0  0
    9.0623   31.3647    5.1083 C   0  0  0  0  0  0  0  0  0  0  0  0
   10.3676   32.0347    4.6429 C   0  0  0  0  0  0  0  0  0  0  0  0
   10.9334   31.5202    3.5123 N   0  0  0  0  0  0  0  0  0  0  0  0
   10.8704   32.9929    5.2262 O   0  0  0  0  0  0  0  0  0  0  0  0
   10.5164   30.7523    3.0588 H   0  0  0  0  0  0  0  0  0  0  0  0
   11.7585   31.9169    3.1504 H   0  0  0  0  0  0  0  0  0  0  0  0
    8.8257   31.5183    6.6205 C   0  0  0  0  0  0  0  0  0  0  0  0
    7.7646   32.5326    7.0479 C   0  0  0  0  0  0  0  0  0  0  0  0
    7.2153   33.3201    5.8914 C   0  0  0  0  0  0  0  0  0  0  0  0
    7.4538   34.4948    5.6509 O   0  0  0  0  0  0  0  0  0  0  0  0
    6.3994   32.5969    5.1043 O   0  0  0  0  0  0  0  0  0  0  0  0
    6.2295   31.6978    5.3061 H   0  0  0  0  0  0  0  0  0  0  0  0
    8.4326   27.5319    2.0666 C   0  0  0  0  0  0  0  0  0  0  0  0
    9.2313   26.3747    1.4662 C   0  0  0  0  0  0  0  0  0  0  0  0
    7.5396   24.7304    0.9256 N   0  0  0  0  0  0  0  0  0  0  0  0
    8.4733   25.5885    0.4232 C   0  0  0  0  0  0  0  0  0  0  0  0
    8.6516   25.7130   -0.7820 O   0  0  0  0  0  0  0  0  0  0  0  0
    6.9995   24.1783    0.3151 H   0  0  0  0  0  0  0  0  0  0  0  0
    7.4058   24.6632    1.8986 H   0  0  0  0  0  0  0  0  0  0  0  0
 43 44  1  0
 44 45  2  0
 44 42  1  0
 42 41  1  0
  1 41  1  0
  1  2  1  0
  2  3  1  0
  3  4  2  0
  3  6  1  0
  6  7  1  0
  7  8  1  0
  8  9  2  0
  9 10  1  0
 10 11  2  0
 11 14  1  0
 14 15  2  0
 15 16  1  0
 16 19  1  0
 19 20  2  0
 20 21  1  0
 21 22  2  0
 22 23  1  0
 23 24  2  0
 16 17  2  0
 17 18  1  0
 11 12  1  0
 12 13  2  0
  1 25  1  0
 25 26  2  0
 25 27  1  0
 27 29  1  0
 29 35  1  0
 35 36  1  0
 36 37  1  0
 37 38  2  0
 37 39  1  0
 29 30  1  0
 30 31  1  0
 30 32  2  0
 13  8  1  0
 18 14  1  0
 24 19  1  0
 43 46  1  0
 43 47  1  0
  2  5  1  0
 27 28  1  0
 39 40  1  0
 31 33  1  0
 31 34  1  0
M  END
> <minimizedAffinity>
-8.89616

> <CNNscore>
0.7382985950

> <CNNaffinity>
7.6453399658

> <CNN_VS>
5.6445436478

> <CNNaffinity_variance>
0.1033519581

$$$$



 47 49  0  0  0  0  0  0  0  0999 V2000
    8.3180   26.3493    4.7599 C   0  0  0  0  0  0  0  0  0  0  0  0
    7.4050   25.2036    4.8786 N   0  0  0  0  0  0  0  0  0  0  0  0
    7.8630   23.9229    5.0971 C   0  0  0  0  0  0  0  0  0  0  0  0
    9.0497   23.6551    5.2415 O   0  0  0  0  0  0  0  0  0  0  0  0
    6.4356   25.3563    4.7994 H   0  0  0  0  0  0  0  0  0  0  0  0
    6.7516   22.8902    5.0876 C   0  0  0  0  0  0  0  0  0  0  0  0
    6.2108   22.5779    6.4802 C   0  0  0  0  0  0  0  0  0  0  0  0
    4.7069   22.6835    6.5617 C   0  0  0  0  0  0  0  0  0  0  0  0
    3.9987   22.0546    7.5899 C   0  0  0  0  0  0  0  0  0  0  0  0
    2.6047   22.1552    7.6582 C   0  0  0  0  0  0  0  0  0  0  0  0
    1.8827   22.8839    6.7012 C   0  0  0  0  0  0  0  0  0  0  0  0
    2.6014   23.5048    5.6696 C   0  0  0  0  0  0  0  0  0  0  0  0
    3.9944   23.4027    5.5987 C   0  0  0  0  0  0  0  0  0  0  0  0
    0.4185   23.0107    6.8152 C   0  0  0  0  0  0  0  0  0  0  0  0
   -0.5076   22.0416    7.1715 C   0  0  0  0  0  0  0  0  0  0  0  0
   -1.8553   22.5293    7.2153 C   0  0  0  0  0  0  0  0  0  0  0  0
   -1.9083   23.8605    6.8512 C   0  0  0  0  0  0  0  0  0  0  0  0
   -0.3711   24.5015    6.4761 S   0  0  0  0  0  0  0  0  0  0  0  0
   -3.0519   21.7817    7.5835 C   0  0  0  0  0  0  0  0  0  0  0  0
   -3.9585   22.3166    8.5079 C   0  0  0  0  0  0  0  0  0  0  0  0
   -5.1122   21.6102    8.8587 C   0  0  0  0  0  0  0  0  0  0  0  0
   -5.3707   20.3673    8.2830 C   0  0  0  0  0  0  0  0  0  0  0  0
   -4.4783   19.8286    7.3573 C   0  0  0  0  0  0  0  0  0  0  0  0
   -3.3229   20.5316    7.0078 C   0  0  0  0  0  0  0  0  0  0  0  0
    7.7947   27.4882    5.6704 C   0  0  0  0  0  0  0  0  0  0  0  0
    6.6648   27.5093    6.1554 O   0  0  0  0  0  0  0  0  0  0  0  0
    8.6472   28.5637    5.7739 N   0  0  0  0  0  0  0  0  0  0  0  0
    9.5468   28.4882    5.3811 H   0  0  0  0  0  0  0  0  0  0  0  0
    8.2803   29.8144    6.4399 C   0  0  0  0  0  0  0  0  0  0  0  0
    7.8776   29.4418    7.8781 C   0  0  0  0  0  0  0  0  0  0  0  0
    8.8787   28.9669    8.6751 N   0  0  0  0  0  0  0  0  0  0  0  0
    6.7345   29.5817    8.3081 O   0  0  0  0  0  0  0  0  0  0  0  0
    9.7881   28.8615    8.3130 H   0  0  0  0  0  0  0  0  0  0  0  0
    8.6913   28.7297    9.6121 H   0  0  0  0  0  0  0  0  0  0  0  0
    7.1480   30.5180    5.6725 C   0  0  0  0  0  0  0  0  0  0  0  0
    7.5224   31.7937    4.9175 C   0  0  0  0  0  0  0  0  0  0  0  0
    8.9975   31.8968    4.6477 C   0  0  0  0  0  0  0  0  0  0  0  0
    9.7033   31.0079    4.1937 O   0  0  0  0  0  0  0  0  0  0  0  0
    9.5056   33.1015    4.9620 O   0  0  0  0  0  0  0  0  0  0  0  0
    8.9474   33.7694    5.3089 H   0  0  0  0  0  0  0  0  0  0  0  0
    8.4749   26.7367    3.2809 C   0  0  0  0  0  0  0  0  0  0  0  0
    9.0240   25.6774    2.3250 C   0  0  0  0  0  0  0  0  0  0  0  0
    6.7651   25.6802    1.4561 N   0  0  0  0  0  0  0  0  0  0  0  0
    7.9694   25.0399    1.4521 C   0  0  0  0  0  0  0  0  0  0  0  0
    8.1662   24.0418    0.7702 O   0  0  0  0  0  0  0  0  0  0  0  0
    6.0206   25.3318    0.9142 H   0  0  0  0  0  0  0  0  0  0  0  0
    6.6403   26.4907    2.0008 H   0  0  0  0  0  0  0  0  0  0  0  0
 43 44  1  0
 44 45  2  0
 44 42  1  0
 42 41  1  0
  1 41  1  0
  1  2  1  0
  2  3  1  0
  3  4  2  0
  3  6  1  0
  6  7  1  0
  7  8  1  0
  8  9  2  0
  9 10  1  0
 10 11  2  0
 11 14  1  0
 14 15  2  0
 15 16  1  0
 16 19  1  0
 19 20  2  0
 20 21  1  0
 21 22  2  0
 22 23  1  0
 23 24  2  0
 16 17  2  0
 17 18  1  0
 11 12  1  0
 12 13  2  0
  1 25  1  0
 25 26  2  0
 25 27  1  0
 27 29  1  0
 29 35  1  0
 35 36  1  0
 36 37  1  0
 37 38  2  0
 37 39  1  0
 29 30  1  0
 30 31  1  0
 30 32  2  0
 13  8  1  0
 18 14  1  0
 24 19  1  0
 43 46  1  0
 43 47  1  0
  2  5  1  0
 27 28  1  0
 39 40  1  0
 31 33  1  0
 31 34  1  0
M  END
> <minimizedAffinity>
-9.68659

> <CNNscore>
0.7266764045

> <CNNaffinity>
7.6126885414

> <CNN_VS>
5.5319609642

> <CNNaffinity_variance>
0.2336457819

$$$$
