


 33 36  0  0  0  0  0  0  0  0999 V2000
   40.3286   50.4184   12.2910 C   0  0  0  0  0  0  0  0  0  0  0  0
   40.3120   49.7257   11.1348 C   0  0  0  0  0  0  0  0  0  0  0  0
   39.1399   49.2647   10.5886 N   0  0  0  0  0  0  0  0  0  0  0  0
   37.9052   49.4643   11.1487 C   0  0  0  0  0  0  0  0  0  0  0  0
   36.8682   49.0325   10.6497 O   0  0  0  0  0  0  0  0  0  0  0  0
   37.8731   50.2542   12.4313 C   0  0  0  0  0  0  0  0  0  0  0  0
   39.0407   50.6901   12.9321 C   0  0  0  0  0  0  0  0  0  0  0  0
   39.1892   48.7607    9.7443 H   0  0  0  0  0  0  0  0  0  0  0  0
   42.7648   52.0294   14.4808 C   0  0  0  0  0  0  0  0  0  0  0  0
   43.9554   51.7986   13.9181 N   0  0  0  0  0  0  0  0  0  0  0  0
   43.9609   51.0831   12.7811 C   0  0  0  0  0  0  0  0  0  0  0  0
   42.8243   50.5967   12.1857 C   0  0  0  0  0  0  0  0  0  0  0  0
   41.6381   50.8819   12.8296 C   0  0  0  0  0  0  0  0  0  0  0  0
   41.6012   51.6086   13.9688 N   0  0  0  0  0  0  0  0  0  0  0  0
   41.5015   53.1918   16.1348 C   0  0  0  0  0  0  0  0  0  0  0  0
   42.7950   52.7594   15.6601 N   0  0  0  0  0  0  0  0  0  0  0  0
   43.6318   52.9662   16.1356 H   0  0  0  0  0  0  0  0  0  0  0  0
   36.6154   50.4546   12.9659 N   0  0  0  0  0  0  0  0  0  0  0  0
   36.2741   50.7401   14.2719 C   0  0  0  0  0  0  0  0  0  0  0  0
   37.0630   50.9020   15.1968 O   0  0  0  0  0  0  0  0  0  0  0  0
   35.8648   50.3847   12.3326 H   0  0  0  0  0  0  0  0  0  0  0  0
   34.8135   50.8815   14.5377 C   0  0  0  0  0  0  0  0  0  0  0  0
   33.9138   50.2758   13.6602 C   0  0  0  0  0  0  0  0  0  0  0  0
   32.5317   50.3838   13.8726 C   0  0  0  0  0  0  0  0  0  0  0  0
   31.9999   51.0886   14.9628 C   0  0  0  0  0  0  0  0  0  0  0  0
   32.9300   51.7220   15.8069 C   0  0  0  0  0  0  0  0  0  0  0  0
   34.3149   51.6255   15.6069 C   0  0  0  0  0  0  0  0  0  0  0  0
   30.6311   51.2213   15.1947 N   0  0  0  0  0  0  0  0  0  0  0  0
   29.9379   52.4937   14.9453 C   0  0  0  0  0  0  0  0  0  0  0  0
   29.3779   52.5399   13.5226 C   0  0  0  0  0  0  0  0  0  0  0  0
   28.5002   51.3225   13.2336 C   0  0  0  0  0  0  0  0  0  0  0  0
   29.2350   50.0231   13.5605 C   0  0  0  0  0  0  0  0  0  0  0  0
   29.7751   50.0387   14.9922 C   0  0  0  0  0  0  0  0  0  0  0  0
 15 16  1  0
 16  9  1  0
  9 10  2  0
 10 11  1  0
 11 12  2  0
 12 13  1  0
 13  1  1  0
  1  2  2  0
  2  3  1  0
  3  4  1  0
  4  5  2  0
  4  6  1  0
  6 18  1  0
 18 19  1  0
 19 20  2  0
 19 22  1  0
 22 23  2  0
 23 24  1  0
 24 25  2  0
 25 28  1  0
 28 29  1  0
 29 30  1  0
 30 31  1  0
 31 32  1  0
 32 33  1  0
 25 26  1  0
 26 27  2  0
  6  7  2  0
 13 14  2  0
 14  9  1  0
  7  1  1  0
 27 22  1  0
 33 28  1  0
 16 17  1  0
  3  8  1  0
 18 21  1  0
M  END
> <minimizedAffinity>
-9.85545

> <CNNscore>
0.9862086773

> <CNNaffinity>
8.0020360947

> <CNN_VS>
7.8916773796

> <CNNaffinity_variance>
0.0132782990

$$$$



 33 36  0  0  0  0  0  0  0  0999 V2000
   40.2173   50.3799   12.2975 C   0  0  0  0  0  0  0  0  0  0  0  0
   40.1435   49.7581   11.1038 C   0  0  0  0  0  0  0  0  0  0  0  0
   38.9473   49.3170   10.5948 N   0  0  0  0  0  0  0  0  0  0  0  0
   37.7434   49.4675   11.2320 C   0  0  0  0  0  0  0  0  0  0  0  0
   36.6844   49.0542   10.7644 O   0  0  0  0  0  0  0  0  0  0  0  0
   37.7748   50.1780   12.5602 C   0  0  0  0  0  0  0  0  0  0  0  0
   38.9641   50.5968   13.0228 C   0  0  0  0  0  0  0  0  0  0  0  0
   38.9547   48.8656    9.7199 H   0  0  0  0  0  0  0  0  0  0  0  0
   42.7457   51.9712   14.3953 C   0  0  0  0  0  0  0  0  0  0  0  0
   43.9148   51.7126   13.8005 N   0  0  0  0  0  0  0  0  0  0  0  0
   43.8738   50.9842   12.6724 C   0  0  0  0  0  0  0  0  0  0  0  0
   42.7115   50.5118   12.1166 C   0  0  0  0  0  0  0  0  0  0  0  0
   41.5503   50.8256   12.7917 C   0  0  0  0  0  0  0  0  0  0  0  0
   41.5601   51.5658   13.9228 N   0  0  0  0  0  0  0  0  0  0  0  0
   41.6529   52.6383   16.4062 C   0  0  0  0  0  0  0  0  0  0  0  0
   42.8239   52.7139   15.5644 N   0  0  0  0  0  0  0  0  0  0  0  0
   43.6149   53.2499   15.8015 H   0  0  0  0  0  0  0  0  0  0  0  0
   36.5465   50.3307   13.1733 N   0  0  0  0  0  0  0  0  0  0  0  0
   36.2043   51.1743   14.2100 C   0  0  0  0  0  0  0  0  0  0  0  0
   36.9539   51.9794   14.7523 O   0  0  0  0  0  0  0  0  0  0  0  0
   35.8207   49.7638   12.8252 H   0  0  0  0  0  0  0  0  0  0  0  0
   34.7869   51.0894   14.6660 C   0  0  0  0  0  0  0  0  0  0  0  0
   33.8477   50.5002   13.8192 C   0  0  0  0  0  0  0  0  0  0  0  0
   32.5040   50.3999   14.2084 C   0  0  0  0  0  0  0  0  0  0  0  0
   32.0520   50.8737   15.4491 C   0  0  0  0  0  0  0  0  0  0  0  0
   33.0136   51.4986   16.2637 C   0  0  0  0  0  0  0  0  0  0  0  0
   34.3604   51.6088   15.8882 C   0  0  0  0  0  0  0  0  0  0  0  0
   30.7213   50.7966   15.8595 N   0  0  0  0  0  0  0  0  0  0  0  0
   29.7289   50.0397   15.0824 C   0  0  0  0  0  0  0  0  0  0  0  0
   29.6330   48.5962   15.5793 C   0  0  0  0  0  0  0  0  0  0  0  0
   29.3688   48.5452   17.0838 C   0  0  0  0  0  0  0  0  0  0  0  0
   30.3849   49.3906   17.8508 C   0  0  0  0  0  0  0  0  0  0  0  0
   30.4387   50.8195   17.3058 C   0  0  0  0  0  0  0  0  0  0  0  0
 15 16  1  0
 16  9  1  0
  9 10  2  0
 10 11  1  0
 11 12  2  0
 12 13  1  0
 13  1  1  0
  1  2  2  0
  2  3  1  0
  3  4  1  0
  4  5  2  0
  4  6  1  0
  6 18  1  0
 18 19  1  0
 19 20  2  0
 19 22  1  0
 22 23  2  0
 23 24  1  0
 24 25  2  0
 25 28  1  0
 28 29  1  0
 29 30  1  0
 30 31  1  0
 31 32  1  0
 32 33  1  0
 25 26  1  0
 26 27  2  0
  6  7  2  0
 13 14  2  0
 14  9  1  0
  7  1  1  0
 27 22  1  0
 33 28  1  0
 16 17  1  0
  3  8  1  0
 18 21  1  0
M  END
> <minimizedAffinity>
-9.43284

> <CNNscore>
0.9840924144

> <CNNaffinity>
8.0105066299

> <CNN_VS>
7.8830785751

> <CNNaffinity_variance>
0.0160950702

$$$$



 33 36  0  0  0  0  0  0  0  0999 V2000
   39.8658   50.5826   12.6098 C   0  0  0  0  0  0  0  0  0  0  0  0
   39.9257   49.9546   11.4186 C   0  0  0  0  0  0  0  0  0  0  0  0
   38.7980   49.4734   10.8011 N   0  0  0  0  0  0  0  0  0  0  0  0
   37.5348   49.5874   11.3200 C   0  0  0  0  0  0  0  0  0  0  0  0
   36.5387   49.1386   10.7567 O   0  0  0  0  0  0  0  0  0  0  0  0
   37.4170   50.3032   12.6405 C   0  0  0  0  0  0  0  0  0  0  0  0
   38.5431   50.7617   13.2112 C   0  0  0  0  0  0  0  0  0  0  0  0
   38.9030   49.0193    9.9339 H   0  0  0  0  0  0  0  0  0  0  0  0
   43.4233   51.2577   13.0724 C   0  0  0  0  0  0  0  0  0  0  0  0
   43.5135   51.9040   14.2393 N   0  0  0  0  0  0  0  0  0  0  0  0
   42.3644   52.1324   14.8969 C   0  0  0  0  0  0  0  0  0  0  0  0
   41.1347   51.7353   14.4354 C   0  0  0  0  0  0  0  0  0  0  0  0
   41.1309   51.0727   13.2255 C   0  0  0  0  0  0  0  0  0  0  0  0
   42.2723   50.8194   12.5469 N   0  0  0  0  0  0  0  0  0  0  0  0
   44.7843   49.7287   11.8505 C   0  0  0  0  0  0  0  0  0  0  0  0
   44.6257   51.0495   12.4126 N   0  0  0  0  0  0  0  0  0  0  0  0
   45.3162   51.7468   12.3337 H   0  0  0  0  0  0  0  0  0  0  0  0
   36.1317   50.4184   13.1331 N   0  0  0  0  0  0  0  0  0  0  0  0
   35.7192   50.9507   14.3373 C   0  0  0  0  0  0  0  0  0  0  0  0
   36.4502   51.4575   15.1816 O   0  0  0  0  0  0  0  0  0  0  0  0
   35.4169   50.0762   12.5489 H   0  0  0  0  0  0  0  0  0  0  0  0
   34.2494   50.9115   14.5870 C   0  0  0  0  0  0  0  0  0  0  0  0
   33.4517   50.1271   13.7535 C   0  0  0  0  0  0  0  0  0  0  0  0
   32.0649   50.0617   13.9527 C   0  0  0  0  0  0  0  0  0  0  0  0
   31.4283   50.7652   14.9860 C   0  0  0  0  0  0  0  0  0  0  0  0
   32.2529   51.5788   15.7841 C   0  0  0  0  0  0  0  0  0  0  0  0
   33.6406   51.6568   15.5966 C   0  0  0  0  0  0  0  0  0  0  0  0
   30.0511   50.7274   15.2028 N   0  0  0  0  0  0  0  0  0  0  0  0
   29.2136   49.6857   14.5902 C   0  0  0  0  0  0  0  0  0  0  0  0
   29.0720   48.4816   15.5230 C   0  0  0  0  0  0  0  0  0  0  0  0
   28.5710   48.9065   16.9030 C   0  0  0  0  0  0  0  0  0  0  0  0
   29.4315   50.0300   17.4798 C   0  0  0  0  0  0  0  0  0  0  0  0
   29.5396   51.2015   16.5012 C   0  0  0  0  0  0  0  0  0  0  0  0
 15 16  1  0
 16  9  1  0
  9 10  2  0
 10 11  1  0
 11 12  2  0
 12 13  1  0
 13  1  1  0
  1  2  2  0
  2  3  1  0
  3  4  1  0
  4  5  2  0
  4  6  1  0
  6 18  1  0
 18 19  1  0
 19 20  2  0
 19 22  1  0
 22 23  2  0
 23 24  1  0
 24 25  2  0
 25 28  1  0
 28 29  1  0
 29 30  1  0
 30 31  1  0
 31 32  1  0
 32 33  1  0
 25 26  1  0
 26 27  2  0
  6  7  2  0
 13 14  2  0
 14  9  1  0
  7  1  1  0
 27 22  1  0
 33 28  1  0
 16 17  1  0
  3  8  1  0
 18 21  1  0
M  END
> <minimizedAffinity>
-8.48590

> <CNNscore>
0.9687372446

> <CNNaffinity>
7.8137168884

> <CNN_VS>
7.5694384575

> <CNNaffinity_variance>
0.0033162795

$$$$



 33 36  0  0  0  0  0  0  0  0999 V2000
   39.7195   50.2455   12.3089 C   0  0  0  0  0  0  0  0  0  0  0  0
   39.5091   49.4883   11.2137 C   0  0  0  0  0  0  0  0  0  0  0  0
   38.2444   49.1259   10.8213 N   0  0  0  0  0  0  0  0  0  0  0  0
   37.1033   49.4943   11.4847 C   0  0  0  0  0  0  0  0  0  0  0  0
   35.9803   49.1489   11.1236 O   0  0  0  0  0  0  0  0  0  0  0  0
   37.2890   50.3610   12.7030 C   0  0  0  0  0  0  0  0  0  0  0  0
   38.5418   50.6963   13.0527 C   0  0  0  0  0  0  0  0  0  0  0  0
   38.1518   48.5681   10.0154 H   0  0  0  0  0  0  0  0  0  0  0  0
   42.5298   51.6731   14.1501 C   0  0  0  0  0  0  0  0  0  0  0  0
   43.6214   51.3128   13.4675 N   0  0  0  0  0  0  0  0  0  0  0  0
   43.4300   50.5691   12.3652 C   0  0  0  0  0  0  0  0  0  0  0  0
   42.1924   50.1787   11.9193 C   0  0  0  0  0  0  0  0  0  0  0  0
   41.1195   50.5948   12.6800 C   0  0  0  0  0  0  0  0  0  0  0  0
   41.2811   51.3528   13.7875 N   0  0  0  0  0  0  0  0  0  0  0  0
   41.5898   52.6876   16.0918 C   0  0  0  0  0  0  0  0  0  0  0  0
   42.7626   52.4289   15.2899 N   0  0  0  0  0  0  0  0  0  0  0  0
   43.6565   52.7625   15.5327 H   0  0  0  0  0  0  0  0  0  0  0  0
   36.1225   50.7313   13.3433 N   0  0  0  0  0  0  0  0  0  0  0  0
   35.7698   50.5375   14.6630 C   0  0  0  0  0  0  0  0  0  0  0  0
   36.4744   50.0167   15.5212 O   0  0  0  0  0  0  0  0  0  0  0  0
   35.4559   51.1936   12.7854 H   0  0  0  0  0  0  0  0  0  0  0  0
   34.4193   51.0399   15.0473 C   0  0  0  0  0  0  0  0  0  0  0  0
   34.2675   51.6665   16.2845 C   0  0  0  0  0  0  0  0  0  0  0  0
   33.0151   52.1537   16.6857 C   0  0  0  0  0  0  0  0  0  0  0  0
   31.8780   52.0409   15.8717 C   0  0  0  0  0  0  0  0  0  0  0  0
   32.0534   51.3689   14.6484 C   0  0  0  0  0  0  0  0  0  0  0  0
   33.2985   50.8741   14.2338 C   0  0  0  0  0  0  0  0  0  0  0  0
   30.6183   52.5068   16.2472 N   0  0  0  0  0  0  0  0  0  0  0  0
   29.8010   51.7799   17.2298 C   0  0  0  0  0  0  0  0  0  0  0  0
   30.0626   52.2965   18.6456 C   0  0  0  0  0  0  0  0  0  0  0  0
   29.8742   53.8111   18.7255 C   0  0  0  0  0  0  0  0  0  0  0  0
   30.6936   54.5259   17.6517 C   0  0  0  0  0  0  0  0  0  0  0  0
   30.3926   53.9632   16.2609 C   0  0  0  0  0  0  0  0  0  0  0  0
 15 16  1  0
 16  9  1  0
  9 10  2  0
 10 11  1  0
 11 12  2  0
 12 13  1  0
 13  1  1  0
  1  2  2  0
  2  3  1  0
  3  4  1  0
  4  5  2  0
  4  6  1  0
  6 18  1  0
 18 19  1  0
 19 20  2  0
 19 22  1  0
 22 23  2  0
 23 24  1  0
 24 25  2  0
 25 28  1  0
 28 29  1  0
 29 30  1  0
 30 31  1  0
 31 32  1  0
 32 33  1  0
 25 26  1  0
 26 27  2  0
  6  7  2  0
 13 14  2  0
 14  9  1  0
  7  1  1  0
 27 22  1  0
 33 28  1  0
 16 17  1  0
  3  8  1  0
 18 21  1  0
M  END
> <minimizedAffinity>
-8.87225

> <CNNscore>
0.9528097510

> <CNNaffinity>
7.5946421623

> <CNN_VS>
7.2362489700

> <CNNaffinity_variance>
0.0766417384

$$$$



 33 36  0  0  0  0  0  0  0  0999 V2000
   39.5491   50.5984   13.0329 C   0  0  0  0  0  0  0  0  0  0  0  0
   39.5970   49.9088   11.8756 C   0  0  0  0  0  0  0  0  0  0  0  0
   38.4547   49.4953   11.2363 N   0  0  0  0  0  0  0  0  0  0  0  0
   37.1883   49.7424   11.6981 C   0  0  0  0  0  0  0  0  0  0  0  0
   36.1779   49.3526   11.1166 O   0  0  0  0  0  0  0  0  0  0  0  0
   37.0857   50.5306   12.9779 C   0  0  0  0  0  0  0  0  0  0  0  0
   38.2261   50.9194   13.5715 C   0  0  0  0  0  0  0  0  0  0  0  0
   38.5509   48.9913   10.3961 H   0  0  0  0  0  0  0  0  0  0  0  0
   42.0421   51.2351   15.6223 C   0  0  0  0  0  0  0  0  0  0  0  0
   43.1045   51.7295   14.9786 N   0  0  0  0  0  0  0  0  0  0  0  0
   43.0024   51.8537   13.6449 C   0  0  0  0  0  0  0  0  0  0  0  0
   41.8801   51.5084   12.9348 C   0  0  0  0  0  0  0  0  0  0  0  0
   40.8290   51.0089   13.6755 C   0  0  0  0  0  0  0  0  0  0  0  0
   40.8993   50.8830   15.0195 N   0  0  0  0  0  0  0  0  0  0  0  0
   40.9537   51.2183   17.7432 C   0  0  0  0  0  0  0  0  0  0  0  0
   42.1847   51.1073   16.9963 N   0  0  0  0  0  0  0  0  0  0  0  0
   43.0559   50.9532   17.4280 H   0  0  0  0  0  0  0  0  0  0  0  0
   35.7984   50.7795   13.4124 N   0  0  0  0  0  0  0  0  0  0  0  0
   35.2637   50.5804   14.6687 C   0  0  0  0  0  0  0  0  0  0  0  0
   35.8759   50.1675   15.6479 O   0  0  0  0  0  0  0  0  0  0  0  0
   35.1823   51.1466   12.7380 H   0  0  0  0  0  0  0  0  0  0  0  0
   33.8221   50.9326   14.8161 C   0  0  0  0  0  0  0  0  0  0  0  0
   32.9827   50.7849   13.7116 C   0  0  0  0  0  0  0  0  0  0  0  0
   31.6204   51.1047   13.8063 C   0  0  0  0  0  0  0  0  0  0  0  0
   31.0479   51.5736   14.9982 C   0  0  0  0  0  0  0  0  0  0  0  0
   31.9267   51.7504   16.0824 C   0  0  0  0  0  0  0  0  0  0  0  0
   33.2915   51.4375   16.0031 C   0  0  0  0  0  0  0  0  0  0  0  0
   29.6996   51.9086   15.1201 N   0  0  0  0  0  0  0  0  0  0  0  0
   28.7292   51.5462   14.0767 C   0  0  0  0  0  0  0  0  0  0  0  0
   28.0903   50.1885   14.3740 C   0  0  0  0  0  0  0  0  0  0  0  0
   27.4877   50.1561   15.7782 C   0  0  0  0  0  0  0  0  0  0  0  0
   28.5091   50.5950   16.8267 C   0  0  0  0  0  0  0  0  0  0  0  0
   29.1155   51.9546   16.4724 C   0  0  0  0  0  0  0  0  0  0  0  0
 15 16  1  0
 16  9  1  0
  9 10  2  0
 10 11  1  0
 11 12  2  0
 12 13  1  0
 13  1  1  0
  1  2  2  0
  2  3  1  0
  3  4  1  0
  4  5  2  0
  4  6  1  0
  6 18  1  0
 18 19  1  0
 19 20  2  0
 19 22  1  0
 22 23  2  0
 23 24  1  0
 24 25  2  0
 25 28  1  0
 28 29  1  0
 29 30  1  0
 30 31  1  0
 31 32  1  0
 32 33  1  0
 25 26  1  0
 26 27  2  0
  6  7  2  0
 13 14  2  0
 14  9  1  0
  7  1  1  0
 27 22  1  0
 33 28  1  0
 16 17  1  0
  3  8  1  0
 18 21  1  0
M  END
> <minimizedAffinity>
-8.47974

> <CNNscore>
0.9462461472

> <CNNaffinity>
7.5709977150

> <CNN_VS>
7.1640272141

> <CNNaffinity_variance>
0.0737078115

$$$$



 33 36  0  0  0  0  0  0  0  0999 V2000
   38.9384   51.1190   13.6831 C   0  0  0  0  0  0  0  0  0  0  0  0
   39.2473   50.3581   12.6141 C   0  0  0  0  0  0  0  0  0  0  0  0
   38.2761   49.7433   11.8634 N   0  0  0  0  0  0  0  0  0  0  0  0
   36.9336   49.8460   12.1184 C   0  0  0  0  0  0  0  0  0  0  0  0
   36.0800   49.2773   11.4410 O   0  0  0  0  0  0  0  0  0  0  0  0
   36.5401   50.7060   13.2913 C   0  0  0  0  0  0  0  0  0  0  0  0
   37.5194   51.2926   13.9990 C   0  0  0  0  0  0  0  0  0  0  0  0
   38.5611   49.1961   11.0963 H   0  0  0  0  0  0  0  0  0  0  0  0
   42.3171   52.0004   14.7475 C   0  0  0  0  0  0  0  0  0  0  0  0
   42.1581   52.8256   15.7873 N   0  0  0  0  0  0  0  0  0  0  0  0
   40.8958   53.1086   16.1500 C   0  0  0  0  0  0  0  0  0  0  0  0
   39.7918   52.5948   15.5175 C   0  0  0  0  0  0  0  0  0  0  0  0
   40.0443   51.7503   14.4565 C   0  0  0  0  0  0  0  0  0  0  0  0
   41.3036   51.4390   14.0761 N   0  0  0  0  0  0  0  0  0  0  0  0
   43.8392   51.5085   12.9799 C   0  0  0  0  0  0  0  0  0  0  0  0
   43.6319   51.7390   14.3904 N   0  0  0  0  0  0  0  0  0  0  0  0
   44.3655   51.7128   15.0464 H   0  0  0  0  0  0  0  0  0  0  0  0
   35.1809   50.8055   13.5163 N   0  0  0  0  0  0  0  0  0  0  0  0
   34.4964   50.6693   14.7065 C   0  0  0  0  0  0  0  0  0  0  0  0
   35.0054   50.4643   15.8033 O   0  0  0  0  0  0  0  0  0  0  0  0
   34.6288   50.9988   12.7245 H   0  0  0  0  0  0  0  0  0  0  0  0
   33.0150   50.8153   14.6156 C   0  0  0  0  0  0  0  0  0  0  0  0
   32.3921   51.7940   15.3906 C   0  0  0  0  0  0  0  0  0  0  0  0
   31.0012   51.9653   15.3359 C   0  0  0  0  0  0  0  0  0  0  0  0
   30.1872   51.1777   14.5081 C   0  0  0  0  0  0  0  0  0  0  0  0
   30.8386   50.1732   13.7696 C   0  0  0  0  0  0  0  0  0  0  0  0
   32.2281   49.9876   13.8150 C   0  0  0  0  0  0  0  0  0  0  0  0
   28.8013   51.3182   14.4396 N   0  0  0  0  0  0  0  0  0  0  0  0
   28.1663   52.0650   13.3438 C   0  0  0  0  0  0  0  0  0  0  0  0
   27.8097   51.1335   12.1841 C   0  0  0  0  0  0  0  0  0  0  0  0
   26.9644   49.9532   12.6621 C   0  0  0  0  0  0  0  0  0  0  0  0
   27.6294   49.2396   13.8384 C   0  0  0  0  0  0  0  0  0  0  0  0
   27.9660   50.2221   14.9623 C   0  0  0  0  0  0  0  0  0  0  0  0
 15 16  1  0
 16  9  1  0
  9 10  2  0
 10 11  1  0
 11 12  2  0
 12 13  1  0
 13  1  1  0
  1  2  2  0
  2  3  1  0
  3  4  1  0
  4  5  2  0
  4  6  1  0
  6 18  1  0
 18 19  1  0
 19 20  2  0
 19 22  1  0
 22 23  2  0
 23 24  1  0
 24 25  2  0
 25 28  1  0
 28 29  1  0
 29 30  1  0
 30 31  1  0
 31 32  1  0
 32 33  1  0
 25 26  1  0
 26 27  2  0
  6  7  2  0
 13 14  2  0
 14  9  1  0
  7  1  1  0
 27 22  1  0
 33 28  1  0
 16 17  1  0
  3  8  1  0
 18 21  1  0
M  END
> <minimizedAffinity>
-8.34685

> <CNNscore>
0.8410590291

> <CNNaffinity>
7.4105916023

> <CNN_VS>
6.2327451706

> <CNNaffinity_variance>
0.1007299349

$$$$



 33 36  0  0  0  0  0  0  0  0999 V2000
   39.4348   51.3009   13.8057 C   0  0  0  0  0  0  0  0  0  0  0  0
   39.5356   50.6289   12.6415 C   0  0  0  0  0  0  0  0  0  0  0  0
   38.4305   50.1170   12.0079 N   0  0  0  0  0  0  0  0  0  0  0  0
   37.1510   50.2417   12.4827 C   0  0  0  0  0  0  0  0  0  0  0  0
   36.1757   49.7651   11.9061 O   0  0  0  0  0  0  0  0  0  0  0  0
   36.9879   51.0058   13.7709 C   0  0  0  0  0  0  0  0  0  0  0  0
   38.0929   51.4933   14.3585 C   0  0  0  0  0  0  0  0  0  0  0  0
   38.5652   49.6314   11.1622 H   0  0  0  0  0  0  0  0  0  0  0  0
   41.6233   53.2990   15.9374 C   0  0  0  0  0  0  0  0  0  0  0  0
   42.8627   52.8739   15.6717 N   0  0  0  0  0  0  0  0  0  0  0  0
   42.9857   51.8913   14.7639 C   0  0  0  0  0  0  0  0  0  0  0  0
   41.9203   51.3245   14.1108 C   0  0  0  0  0  0  0  0  0  0  0  0
   40.6772   51.8226   14.4414 C   0  0  0  0  0  0  0  0  0  0  0  0
   40.5239   52.8181   15.3429 N   0  0  0  0  0  0  0  0  0  0  0  0
   42.3417   54.0995   18.0649 C   0  0  0  0  0  0  0  0  0  0  0  0
   41.5297   54.3046   16.8884 N   0  0  0  0  0  0  0  0  0  0  0  0
   40.9552   55.0954   16.7707 H   0  0  0  0  0  0  0  0  0  0  0  0
   35.6872   51.1306   14.2186 N   0  0  0  0  0  0  0  0  0  0  0  0
   35.1244   50.6224   15.3713 C   0  0  0  0  0  0  0  0  0  0  0  0
   35.7177   49.9832   16.2336 O   0  0  0  0  0  0  0  0  0  0  0  0
   35.0831   51.6497   13.6400 H   0  0  0  0  0  0  0  0  0  0  0  0
   33.6751   50.9175   15.5625 C   0  0  0  0  0  0  0  0  0  0  0  0
   32.9025   51.2220   14.4415 C   0  0  0  0  0  0  0  0  0  0  0  0
   31.5357   51.5060   14.5761 C   0  0  0  0  0  0  0  0  0  0  0  0
   30.8924   51.4906   15.8227 C   0  0  0  0  0  0  0  0  0  0  0  0
   31.7053   51.2202   16.9384 C   0  0  0  0  0  0  0  0  0  0  0  0
   33.0738   50.9364   16.8209 C   0  0  0  0  0  0  0  0  0  0  0  0
   29.5379   51.7780   15.9889 N   0  0  0  0  0  0  0  0  0  0  0  0
   29.0149   52.2563   17.2771 C   0  0  0  0  0  0  0  0  0  0  0  0
   29.0193   53.7849   17.3336 C   0  0  0  0  0  0  0  0  0  0  0  0
   28.2815   54.3849   16.1371 C   0  0  0  0  0  0  0  0  0  0  0  0
   28.8138   53.8193   14.8211 C   0  0  0  0  0  0  0  0  0  0  0  0
   28.7892   52.2893   14.8269 C   0  0  0  0  0  0  0  0  0  0  0  0
 15 16  1  0
 16  9  1  0
  9 10  2  0
 10 11  1  0
 11 12  2  0
 12 13  1  0
 13  1  1  0
  1  2  2  0
  2  3  1  0
  3  4  1  0
  4  5  2  0
  4  6  1  0
  6 18  1  0
 18 19  1  0
 19 20  2  0
 19 22  1  0
 22 23  2  0
 23 24  1  0
 24 25  2  0
 25 28  1  0
 28 29  1  0
 29 30  1  0
 30 31  1  0
 31 32  1  0
 32 33  1  0
 25 26  1  0
 26 27  2  0
  6  7  2  0
 13 14  2  0
 14  9  1  0
  7  1  1  0
 27 22  1  0
 33 28  1  0
 16 17  1  0
  3  8  1  0
 18 21  1  0
M  END
> <minimizedAffinity>
-8.09592

> <CNNscore>
0.6566688418

> <CNNaffinity>
7.2576899529

> <CNN_VS>
4.7658987045

> <CNNaffinity_variance>
0.3154555261

$$$$



 33 36  0  0  0  0  0  0  0  0999 V2000
   39.2797   50.6175   12.9950 C   0  0  0  0  0  0  0  0  0  0  0  0
   38.7677   50.0010   11.9111 C   0  0  0  0  0  0  0  0  0  0  0  0
   37.4170   49.8018   11.7672 N   0  0  0  0  0  0  0  0  0  0  0  0
   36.4829   50.2052   12.6852 C   0  0  0  0  0  0  0  0  0  0  0  0
   35.2782   50.0063   12.5432 O   0  0  0  0  0  0  0  0  0  0  0  0
   37.0082   50.9197   13.9032 C   0  0  0  0  0  0  0  0  0  0  0  0
   38.3355   51.0975   14.0057 C   0  0  0  0  0  0  0  0  0  0  0  0
   37.1006   49.3418   10.9563 H   0  0  0  0  0  0  0  0  0  0  0  0
   42.5398   51.6699   14.2557 C   0  0  0  0  0  0  0  0  0  0  0  0
   43.4298   51.1978   13.3768 N   0  0  0  0  0  0  0  0  0  0  0  0
   42.9439   50.5034   12.3345 C   0  0  0  0  0  0  0  0  0  0  0  0
   41.6063   50.2694   12.1366 C   0  0  0  0  0  0  0  0  0  0  0  0
   40.7562   50.7932   13.0883 C   0  0  0  0  0  0  0  0  0  0  0  0
   41.2158   51.5052   14.1415 N   0  0  0  0  0  0  0  0  0  0  0  0
   42.2454   53.4459   15.8185 C   0  0  0  0  0  0  0  0  0  0  0  0
   43.0747   52.3708   15.3268 N   0  0  0  0  0  0  0  0  0  0  0  0
   43.9503   52.1525   15.7204 H   0  0  0  0  0  0  0  0  0  0  0  0
   36.0449   51.3297   14.8042 N   0  0  0  0  0  0  0  0  0  0  0  0
   35.6765   50.7374   15.9947 C   0  0  0  0  0  0  0  0  0  0  0  0
   36.1867   49.7336   16.4805 O   0  0  0  0  0  0  0  0  0  0  0  0
   35.5577   52.1513   14.5659 H   0  0  0  0  0  0  0  0  0  0  0  0
   34.5781   51.4191   16.7382 C   0  0  0  0  0  0  0  0  0  0  0  0
   34.7161   51.6002   18.1146 C   0  0  0  0  0  0  0  0  0  0  0  0
   33.7071   52.2361   18.8526 C   0  0  0  0  0  0  0  0  0  0  0  0
   32.5355   52.7170   18.2491 C   0  0  0  0  0  0  0  0  0  0  0  0
   32.4069   52.4840   16.8678 C   0  0  0  0  0  0  0  0  0  0  0  0
   33.4056   51.8478   16.1162 C   0  0  0  0  0  0  0  0  0  0  0  0
   31.5112   53.3445   18.9578 N   0  0  0  0  0  0  0  0  0  0  0  0
   31.6882   53.7339   20.3645 C   0  0  0  0  0  0  0  0  0  0  0  0
   32.2088   55.1682   20.4718 C   0  0  0  0  0  0  0  0  0  0  0  0
   31.3183   56.1395   19.6976 C   0  0  0  0  0  0  0  0  0  0  0  0
   31.1109   55.6695   18.2584 C   0  0  0  0  0  0  0  0  0  0  0  0
   30.5952   54.2294   18.2162 C   0  0  0  0  0  0  0  0  0  0  0  0
 15 16  1  0
 16  9  1  0
  9 10  2  0
 10 11  1  0
 11 12  2  0
 12 13  1  0
 13  1  1  0
  1  2  2  0
  2  3  1  0
  3  4  1  0
  4  5  2  0
  4  6  1  0
  6 18  1  0
 18 19  1  0
 19 20  2  0
 19 22  1  0
 22 23  2  0
 23 24  1  0
 24 25  2  0
 25 28  1  0
 28 29  1  0
 29 30  1  0
 30 31  1  0
 31 32  1  0
 32 33  1  0
 25 26  1  0
 26 27  2  0
  6  7  2  0
 13 14  2  0
 14  9  1  0
  7  1  1  0
 27 22  1  0
 33 28  1  0
 16 17  1  0
  3  8  1  0
 18 21  1  0
M  END
> <minimizedAffinity>
-8.22761

> <CNNscore>
0.6278277040

> <CNNaffinity>
7.5554041862

> <CNN_VS>
4.7434921265

> <CNNaffinity_variance>
0.3083556890

$$$$



 33 36  0  0  0  0  0  0  0  0999 V2000
   38.1915   50.7624   13.4317 C   0  0  0  0  0  0  0  0  0  0  0  0
   37.6495   50.0252   12.4418 C   0  0  0  0  0  0  0  0  0  0  0  0
   36.3000   49.7805   12.3828 N   0  0  0  0  0  0  0  0  0  0  0  0
   35.3965   50.2547   13.2975 C   0  0  0  0  0  0  0  0  0  0  0  0
   34.1928   50.0139   13.2335 O   0  0  0  0  0  0  0  0  0  0  0  0
   35.9549   51.1035   14.4100 C   0  0  0  0  0  0  0  0  0  0  0  0
   37.2800   51.3222   14.4312 C   0  0  0  0  0  0  0  0  0  0  0  0
   35.9611   49.2316   11.6390 H   0  0  0  0  0  0  0  0  0  0  0  0
   41.6327   50.9386   14.6369 C   0  0  0  0  0  0  0  0  0  0  0  0
   42.3550   51.3509   13.5901 N   0  0  0  0  0  0  0  0  0  0  0  0
   41.6903   51.5742   12.4442 C   0  0  0  0  0  0  0  0  0  0  0  0
   40.3352   51.4065   12.3086 C   0  0  0  0  0  0  0  0  0  0  0  0
   39.6652   50.9814   13.4370 C   0  0  0  0  0  0  0  0  0  0  0  0
   40.3060   50.7593   14.6063 N   0  0  0  0  0  0  0  0  0  0  0  0
   41.5400   50.4838   16.9752 C   0  0  0  0  0  0  0  0  0  0  0  0
   42.3506   50.7044   15.8006 N   0  0  0  0  0  0  0  0  0  0  0  0
   43.3348   50.6898   15.8239 H   0  0  0  0  0  0  0  0  0  0  0  0
   35.0213   51.5818   15.3086 N   0  0  0  0  0  0  0  0  0  0  0  0
   34.7159   51.1013   16.5654 C   0  0  0  0  0  0  0  0  0  0  0  0
   35.2677   50.1584   17.1226 O   0  0  0  0  0  0  0  0  0  0  0  0
   34.5069   52.3678   15.0140 H   0  0  0  0  0  0  0  0  0  0  0  0
   33.6349   51.8324   17.2872 C   0  0  0  0  0  0  0  0  0  0  0  0
   33.7399   51.9835   18.6701 C   0  0  0  0  0  0  0  0  0  0  0  0
   32.7457   52.6639   19.3883 C   0  0  0  0  0  0  0  0  0  0  0  0
   31.6223   53.2200   18.7582 C   0  0  0  0  0  0  0  0  0  0  0  0
   31.5240   53.0164   17.3698 C   0  0  0  0  0  0  0  0  0  0  0  0
   32.5083   52.3366   16.6377 C   0  0  0  0  0  0  0  0  0  0  0  0
   30.6134   53.8932   19.4465 N   0  0  0  0  0  0  0  0  0  0  0  0
   29.3055   54.1445   18.8234 C   0  0  0  0  0  0  0  0  0  0  0  0
   28.3256   53.0127   19.1372 C   0  0  0  0  0  0  0  0  0  0  0  0
   28.2255   52.7688   20.6427 C   0  0  0  0  0  0  0  0  0  0  0  0
   29.6084   52.5707   21.2621 C   0  0  0  0  0  0  0  0  0  0  0  0
   30.5431   53.7299   20.9096 C   0  0  0  0  0  0  0  0  0  0  0  0
 15 16  1  0
 16  9  1  0
  9 10  2  0
 10 11  1  0
 11 12  2  0
 12 13  1  0
 13  1  1  0
  1  2  2  0
  2  3  1  0
  3  4  1  0
  4  5  2  0
  4  6  1  0
  6 18  1  0
 18 19  1  0
 19 20  2  0
 19 22  1  0
 22 23  2  0
 23 24  1  0
 24 25  2  0
 25 28  1  0
 28 29  1  0
 29 30  1  0
 30 31  1  0
 31 32  1  0
 32 33  1  0
 25 26  1  0
 26 27  2  0
  6  7  2  0
 13 14  2  0
 14  9  1  0
  7  1  1  0
 27 22  1  0
 33 28  1  0
 16 17  1  0
  3  8  1  0
 18 21  1  0
M  END
> <minimizedAffinity>
-7.56060

> <CNNscore>
0.4449408948

> <CNNaffinity>
7.2111487389

> <CNN_VS>
3.2085349560

> <CNNaffinity_variance>
0.2327795178

$$$$
