


 27 28  0  0  0  0  0  0  0  0999 V2000
   28.8776   22.3114   -0.2852 C   0  0  0  0  0  0  0  0  0  0  0  0
   30.0231   22.1945    0.7145 C   0  0  0  0  0  0  0  0  0  0  0  0
   30.1483   23.4398    1.6125 C   0  0  0  0  0  0  0  0  0  0  0  0
   30.0561   24.7010    0.7730 C   0  0  0  0  0  0  0  0  0  0  0  0
   29.6074   24.7992   -0.4920 C   0  0  0  0  0  0  0  0  0  0  0  0
   29.0852   23.5574   -1.1515 C   0  0  0  0  0  0  0  0  0  0  0  0
   28.7812   23.5633   -2.3440 O   0  0  0  0  0  0  0  0  0  0  0  0
   29.0323   23.4163    2.7123 C   0  0  0  0  0  0  0  0  0  0  0  0
   27.9510   22.8484    2.6237 O   0  0  0  0  0  0  0  0  0  0  0  0
   29.3364   24.0731    3.8534 O   0  0  0  0  0  0  0  0  0  0  0  0
   30.1600   24.5123    3.9359 H   0  0  0  0  0  0  0  0  0  0  0  0
   27.7850   22.8111    1.7583 C   0  0  0  0  0  0  0  0  0  0  0  0
   27.6473   22.3116    0.4317 O   0  0  0  0  0  0  0  0  0  0  0  0
   31.4862   23.4968    2.1368 O   0  0  0  0  0  0  0  0  0  0  0  0
   31.8229   24.6659    2.8717 C   0  0  0  0  0  0  0  0  0  0  0  0
   29.5512   26.0533   -1.3358 C   0  0  0  0  0  0  0  0  0  0  0  0
   28.5910   26.0240   -2.5277 C   0  0  0  0  0  0  0  0  0  0  0  0
   27.9315   27.3733   -2.7675 C   0  0  0  0  0  0  0  0  0  0  0  0
   26.8003   27.4746   -3.2255 O   0  0  0  0  0  0  0  0  0  0  0  0
   28.7707   28.4142   -2.3994 N   0  0  0  0  0  0  0  0  0  0  0  0
   29.6528   28.1570   -2.0460 H   0  0  0  0  0  0  0  0  0  0  0  0
   28.5083   29.7982   -2.4722 C   0  0  0  0  0  0  0  0  0  0  0  0
   29.0263   30.6012   -1.4467 C   0  0  0  0  0  0  0  0  0  0  0  0
   28.8119   31.9822   -1.4429 C   0  0  0  0  0  0  0  0  0  0  0  0
   28.0765   32.5745   -2.4654 C   0  0  0  0  0  0  0  0  0  0  0  0
   27.5578   31.7853   -3.4889 C   0  0  0  0  0  0  0  0  0  0  0  0
   27.7726   30.4029   -3.4926 C   0  0  0  0  0  0  0  0  0  0  0  0
 12 13  1  0
  1 13  1  0
  1  2  1  0
  2  3  1  0
  3 14  1  0
 14 15  1  0
  3  8  1  0
  8  9  2  0
  8 10  1  0
  3  4  1  0
  4  5  2  0
  5 16  1  0
 16 17  1  0
 17 18  1  0
 18 19  2  0
 18 20  1  0
 20 22  1  0
 22 23  2  0
 23 24  1  0
 24 25  2  0
 25 26  1  0
 26 27  2  0
  5  6  1  0
  6  7  2  0
  6  1  1  0
 27 22  1  0
 10 11  1  0
 20 21  1  0
M  END
> <minimizedAffinity>
-8.63892

> <CNNscore>
0.5888514519

> <CNNaffinity>
5.7415690422

> <CNN_VS>
3.3809313774

> <CNNaffinity_variance>
0.0499886721

$$$$



 27 28  0  0  0  0  0  0  0  0999 V2000
   30.9214   24.0088    1.9098 C   0  0  0  0  0  0  0  0  0  0  0  0
   29.5327   23.5114    2.2961 C   0  0  0  0  0  0  0  0  0  0  0  0
   28.7804   22.8868    1.1059 C   0  0  0  0  0  0  0  0  0  0  0  0
   28.9082   23.7757   -0.1179 C   0  0  0  0  0  0  0  0  0  0  0  0
   29.7873   24.7781   -0.3008 C   0  0  0  0  0  0  0  0  0  0  0  0
   30.7969   25.0340    0.7785 C   0  0  0  0  0  0  0  0  0  0  0  0
   31.5397   26.0134    0.7205 O   0  0  0  0  0  0  0  0  0  0  0  0
   29.3406   21.4521    0.8169 C   0  0  0  0  0  0  0  0  0  0  0  0
   29.5431   20.5803    1.6527 O   0  0  0  0  0  0  0  0  0  0  0  0
   29.5889   21.1836   -0.4839 O   0  0  0  0  0  0  0  0  0  0  0  0
   29.4388   21.8407   -1.1348 H   0  0  0  0  0  0  0  0  0  0  0  0
   31.2830   22.2158    0.4018 C   0  0  0  0  0  0  0  0  0  0  0  0
   31.7300   22.8850    1.5768 O   0  0  0  0  0  0  0  0  0  0  0  0
   27.3699   22.9197    1.3842 O   0  0  0  0  0  0  0  0  0  0  0  0
   26.9105   22.0409    2.4024 C   0  0  0  0  0  0  0  0  0  0  0  0
   29.8864   25.6836   -1.5083 C   0  0  0  0  0  0  0  0  0  0  0  0
   28.7066   25.6425   -2.4830 C   0  0  0  0  0  0  0  0  0  0  0  0
   27.9788   26.9758   -2.5604 C   0  0  0  0  0  0  0  0  0  0  0  0
   26.7572   27.0508   -2.6032 O   0  0  0  0  0  0  0  0  0  0  0  0
   28.8731   28.0356   -2.5697 N   0  0  0  0  0  0  0  0  0  0  0  0
   29.8279   27.7990   -2.5291 H   0  0  0  0  0  0  0  0  0  0  0  0
   28.5749   29.4129   -2.6306 C   0  0  0  0  0  0  0  0  0  0  0  0
   29.3042   30.2622   -1.7870 C   0  0  0  0  0  0  0  0  0  0  0  0
   29.0706   31.6401   -1.7848 C   0  0  0  0  0  0  0  0  0  0  0  0
   28.1044   32.1829   -2.6267 C   0  0  0  0  0  0  0  0  0  0  0  0
   27.3746   31.3475   -3.4686 C   0  0  0  0  0  0  0  0  0  0  0  0
   27.6086   29.9682   -3.4709 C   0  0  0  0  0  0  0  0  0  0  0  0
 12 13  1  0
  1 13  1  0
  1  2  1  0
  2  3  1  0
  3 14  1  0
 14 15  1  0
  3  8  1  0
  8  9  2  0
  8 10  1  0
  3  4  1  0
  4  5  2  0
  5 16  1  0
 16 17  1  0
 17 18  1  0
 18 19  2  0
 18 20  1  0
 20 22  1  0
 22 23  2  0
 23 24  1  0
 24 25  2  0
 25 26  1  0
 26 27  2  0
  5  6  1  0
  6  7  2  0
  6  1  1  0
 27 22  1  0
 10 11  1  0
 20 21  1  0
M  END
> <minimizedAffinity>
-6.77290

> <CNNscore>
0.3653194904

> <CNNaffinity>
5.2665538788

> <CNN_VS>
1.9239747524

> <CNNaffinity_variance>
0.4415754974

$$$$



 27 28  0  0  0  0  0  0  0  0999 V2000
   21.9841   27.7252    8.8329 C   0  0  0  0  0  0  0  0  0  0  0  0
   22.3796   26.9307   10.0728 C   0  0  0  0  0  0  0  0  0  0  0  0
   22.6268   25.4422    9.7625 C   0  0  0  0  0  0  0  0  0  0  0  0
   21.5112   24.8981    8.8888 C   0  0  0  0  0  0  0  0  0  0  0  0
   20.6095   25.6127    8.1906 C   0  0  0  0  0  0  0  0  0  0  0  0
   20.7261   27.1079    8.2144 C   0  0  0  0  0  0  0  0  0  0  0  0
   19.8575   27.8111    7.6992 O   0  0  0  0  0  0  0  0  0  0  0  0
   24.0194   25.2689    9.0652 C   0  0  0  0  0  0  0  0  0  0  0  0
   25.0887   25.6928    9.4854 O   0  0  0  0  0  0  0  0  0  0  0  0
   24.0008   24.5646    7.9122 O   0  0  0  0  0  0  0  0  0  0  0  0
   23.1902   24.2338    7.5783 H   0  0  0  0  0  0  0  0  0  0  0  0
   22.7062   27.8476    6.5783 C   0  0  0  0  0  0  0  0  0  0  0  0
   23.0969   27.7658    7.9454 O   0  0  0  0  0  0  0  0  0  0  0  0
   22.4828   24.6882   10.9785 O   0  0  0  0  0  0  0  0  0  0  0  0
   21.4200   25.0795   11.8373 C   0  0  0  0  0  0  0  0  0  0  0  0
   19.4779   25.0645    7.3498 C   0  0  0  0  0  0  0  0  0  0  0  0
   19.8668   24.4862    5.9868 C   0  0  0  0  0  0  0  0  0  0  0  0
   20.0923   25.5715    4.9455 C   0  0  0  0  0  0  0  0  0  0  0  0
   21.0413   25.5465    4.1719 O   0  0  0  0  0  0  0  0  0  0  0  0
   19.1010   26.5393    5.0069 N   0  0  0  0  0  0  0  0  0  0  0  0
   18.4061   26.4068    5.6917 H   0  0  0  0  0  0  0  0  0  0  0  0
   18.9716   27.6912    4.2032 C   0  0  0  0  0  0  0  0  0  0  0  0
   18.5018   27.5079    2.8953 C   0  0  0  0  0  0  0  0  0  0  0  0
   18.3450   28.5966    2.0332 C   0  0  0  0  0  0  0  0  0  0  0  0
   18.6569   29.8805    2.4705 C   0  0  0  0  0  0  0  0  0  0  0  0
   19.1242   30.0730    3.7682 C   0  0  0  0  0  0  0  0  0  0  0  0
   19.2810   28.9832    4.6313 C   0  0  0  0  0  0  0  0  0  0  0  0
 12 13  1  0
  1 13  1  0
  1  2  1  0
  2  3  1  0
  3 14  1  0
 14 15  1  0
  3  8  1  0
  8  9  2  0
  8 10  1  0
  3  4  1  0
  4  5  2  0
  5 16  1  0
 16 17  1  0
 17 18  1  0
 18 19  2  0
 18 20  1  0
 20 22  1  0
 22 23  2  0
 23 24  1  0
 24 25  2  0
 25 26  1  0
 26 27  2  0
  5  6  1  0
  6  7  2  0
  6  1  1  0
 27 22  1  0
 10 11  1  0
 20 21  1  0
M  END
> <minimizedAffinity>
-4.57124

> <CNNscore>
0.3039671481

> <CNNaffinity>
3.8753166199

> <CNN_VS>
1.1779689789

> <CNNaffinity_variance>
0.4258235991

$$$$



 27 28  0  0  0  0  0  0  0  0999 V2000
   25.5604   29.8430    8.5732 C   0  0  0  0  0  0  0  0  0  0  0  0
   24.8358   30.9278    9.3627 C   0  0  0  0  0  0  0  0  0  0  0  0
   24.7608   30.6079   10.8677 C   0  0  0  0  0  0  0  0  0  0  0  0
   24.3350   29.1658   11.0751 C   0  0  0  0  0  0  0  0  0  0  0  0
   24.3324   28.1834   10.1552 C   0  0  0  0  0  0  0  0  0  0  0  0
   24.8508   28.5020    8.7843 C   0  0  0  0  0  0  0  0  0  0  0  0
   24.7548   27.6805    7.8730 O   0  0  0  0  0  0  0  0  0  0  0  0
   26.1493   30.8840   11.5396 C   0  0  0  0  0  0  0  0  0  0  0  0
   26.9606   30.0336   11.8834 O   0  0  0  0  0  0  0  0  0  0  0  0
   26.4517   32.1888   11.7183 O   0  0  0  0  0  0  0  0  0  0  0  0
   25.8409   32.8509   11.4601 H   0  0  0  0  0  0  0  0  0  0  0  0
   27.8188   29.8750    7.8536 C   0  0  0  0  0  0  0  0  0  0  0  0
   26.9293   29.8336    8.9651 O   0  0  0  0  0  0  0  0  0  0  0  0
   23.6733   31.3525   11.4431 O   0  0  0  0  0  0  0  0  0  0  0  0
   23.2699   32.5194   10.7389 C   0  0  0  0  0  0  0  0  0  0  0  0
   23.8733   26.7566   10.3587 C   0  0  0  0  0  0  0  0  0  0  0  0
   22.4580   26.5742   10.9129 C   0  0  0  0  0  0  0  0  0  0  0  0
   21.4370   26.3308    9.8122 C   0  0  0  0  0  0  0  0  0  0  0  0
   20.2321   26.3176   10.0311 O   0  0  0  0  0  0  0  0  0  0  0  0
   22.0567   26.1410    8.5863 N   0  0  0  0  0  0  0  0  0  0  0  0
   23.0403   26.1839    8.5852 H   0  0  0  0  0  0  0  0  0  0  0  0
   21.4429   25.8937    7.3406 C   0  0  0  0  0  0  0  0  0  0  0  0
   20.5432   24.8210    7.2737 C   0  0  0  0  0  0  0  0  0  0  0  0
   19.8923   24.5077    6.0773 C   0  0  0  0  0  0  0  0  0  0  0  0
   20.1349   25.2645    4.9349 C   0  0  0  0  0  0  0  0  0  0  0  0
   21.0270   26.3325    4.9912 C   0  0  0  0  0  0  0  0  0  0  0  0
   21.6785   26.6461    6.1888 C   0  0  0  0  0  0  0  0  0  0  0  0
 12 13  1  0
  1 13  1  0
  1  2  1  0
  2  3  1  0
  3 14  1  0
 14 15  1  0
  3  8  1  0
  8  9  2  0
  8 10  1  0
  3  4  1  0
  4  5  2  0
  5 16  1  0
 16 17  1  0
 17 18  1  0
 18 19  2  0
 18 20  1  0
 20 22  1  0
 22 23  2  0
 23 24  1  0
 24 25  2  0
 25 26  1  0
 26 27  2  0
  5  6  1  0
  6  7  2  0
  6  1  1  0
 27 22  1  0
 10 11  1  0
 20 21  1  0
M  END
> <minimizedAffinity>
-3.78001

> <CNNscore>
0.2828471661

> <CNNaffinity>
3.9173190594

> <CNN_VS>
1.1080025434

> <CNNaffinity_variance>
0.5395298600

$$$$



 27 28  0  0  0  0  0  0  0  0999 V2000
   24.2643   32.9960   10.8389 C   0  0  0  0  0  0  0  0  0  0  0  0
   25.6759   33.3468   11.2965 C   0  0  0  0  0  0  0  0  0  0  0  0
   26.6926   33.3177   10.1397 C   0  0  0  0  0  0  0  0  0  0  0  0
   26.5006   32.0635    9.3064 C   0  0  0  0  0  0  0  0  0  0  0  0
   25.4338   31.2431    9.3143 C   0  0  0  0  0  0  0  0  0  0  0  0
   24.2714   31.6092   10.1887 C   0  0  0  0  0  0  0  0  0  0  0  0
   23.3267   30.8333   10.3301 O   0  0  0  0  0  0  0  0  0  0  0  0
   26.5334   34.6045    9.2597 C   0  0  0  0  0  0  0  0  0  0  0  0
   27.0494   35.6926    9.4818 O   0  0  0  0  0  0  0  0  0  0  0  0
   25.7700   34.4541    8.1550 O   0  0  0  0  0  0  0  0  0  0  0  0
   25.3687   33.6274    7.9718 H   0  0  0  0  0  0  0  0  0  0  0  0
   23.1096   35.0603   10.6803 C   0  0  0  0  0  0  0  0  0  0  0  0
   23.7961   34.0290    9.9778 O   0  0  0  0  0  0  0  0  0  0  0  0
   28.0102   33.1430   10.6889 O   0  0  0  0  0  0  0  0  0  0  0  0
   28.2515   31.9149   11.3624 C   0  0  0  0  0  0  0  0  0  0  0  0
   25.2635   29.9750    8.5075 C   0  0  0  0  0  0  0  0  0  0  0  0
   25.4571   28.6596    9.2663 C   0  0  0  0  0  0  0  0  0  0  0  0
   24.7478   27.4965    8.5900 C   0  0  0  0  0  0  0  0  0  0  0  0
   25.2033   26.3598    8.5997 O   0  0  0  0  0  0  0  0  0  0  0  0
   23.5638   27.9078    7.9965 N   0  0  0  0  0  0  0  0  0  0  0  0
   23.3432   28.8633    8.0832 H   0  0  0  0  0  0  0  0  0  0  0  0
   22.6386   27.1173    7.2833 C   0  0  0  0  0  0  0  0  0  0  0  0
   21.7553   26.3318    8.0365 C   0  0  0  0  0  0  0  0  0  0  0  0
   20.8077   25.5193    7.4080 C   0  0  0  0  0  0  0  0  0  0  0  0
   20.7340   25.4841    6.0186 C   0  0  0  0  0  0  0  0  0  0  0  0
   21.6070   26.2611    5.2613 C   0  0  0  0  0  0  0  0  0  0  0  0
   22.5555   27.0744    5.8906 C   0  0  0  0  0  0  0  0  0  0  0  0
 12 13  1  0
  1 13  1  0
  1  2  1  0
  2  3  1  0
  3 14  1  0
 14 15  1  0
  3  8  1  0
  8  9  2  0
  8 10  1  0
  3  4  1  0
  4  5  2  0
  5 16  1  0
 16 17  1  0
 17 18  1  0
 18 19  2  0
 18 20  1  0
 20 22  1  0
 22 23  2  0
 23 24  1  0
 24 25  2  0
 25 26  1  0
 26 27  2  0
  5  6  1  0
  6  7  2  0
  6  1  1  0
 27 22  1  0
 10 11  1  0
 20 21  1  0
M  END
> <minimizedAffinity>
-4.05000

> <CNNscore>
0.2260405719

> <CNNaffinity>
3.6352393627

> <CNN_VS>
0.8217115998

> <CNNaffinity_variance>
0.3647451401

$$$$



 27 28  0  0  0  0  0  0  0  0999 V2000
   19.8584   36.0076    1.0275 C   0  0  0  0  0  0  0  0  0  0  0  0
   18.6457   36.3615    0.1736 C   0  0  0  0  0  0  0  0  0  0  0  0
   17.3898   35.5672    0.5794 C   0  0  0  0  0  0  0  0  0  0  0  0
   17.7349   34.1001    0.7604 C   0  0  0  0  0  0  0  0  0  0  0  0
   18.9646   33.5690    0.8900 C   0  0  0  0  0  0  0  0  0  0  0  0
   20.1360   34.5053    0.9170 C   0  0  0  0  0  0  0  0  0  0  0  0
   21.2864   34.0681    0.9067 O   0  0  0  0  0  0  0  0  0  0  0  0
   16.7839   36.1663    1.8945 C   0  0  0  0  0  0  0  0  0  0  0  0
   16.3583   35.5226    2.8454 O   0  0  0  0  0  0  0  0  0  0  0  0
   16.7673   37.5161    1.9564 O   0  0  0  0  0  0  0  0  0  0  0  0
   17.0896   38.0221    1.2366 H   0  0  0  0  0  0  0  0  0  0  0  0
   20.2903   37.6681    2.6633 C   0  0  0  0  0  0  0  0  0  0  0  0
   19.6199   36.4486    2.3602 O   0  0  0  0  0  0  0  0  0  0  0  0
   16.4767   35.5504   -0.5315 O   0  0  0  0  0  0  0  0  0  0  0  0
   17.0589   35.4071   -1.8202 C   0  0  0  0  0  0  0  0  0  0  0  0
   19.3044   32.1021    1.0345 C   0  0  0  0  0  0  0  0  0  0  0  0
   19.2107   31.2577   -0.2389 C   0  0  0  0  0  0  0  0  0  0  0  0
   19.2837   29.7669    0.0536 C   0  0  0  0  0  0  0  0  0  0  0  0
   19.1148   29.3137    1.1787 O   0  0  0  0  0  0  0  0  0  0  0  0
   19.5534   29.0425   -1.0977 N   0  0  0  0  0  0  0  0  0  0  0  0
   19.6615   29.5653   -1.9249 H   0  0  0  0  0  0  0  0  0  0  0  0
   19.6911   27.6442   -1.2223 C   0  0  0  0  0  0  0  0  0  0  0  0
   20.9568   27.1013   -0.9616 C   0  0  0  0  0  0  0  0  0  0  0  0
   21.1788   25.7252   -1.0628 C   0  0  0  0  0  0  0  0  0  0  0  0
   20.1365   24.8776   -1.4261 C   0  0  0  0  0  0  0  0  0  0  0  0
   18.8753   25.4073   -1.6870 C   0  0  0  0  0  0  0  0  0  0  0  0
   18.6530   26.7848   -1.5857 C   0  0  0  0  0  0  0  0  0  0  0  0
 12 13  1  0
  1 13  1  0
  1  2  1  0
  2  3  1  0
  3 14  1  0
 14 15  1  0
  3  8  1  0
  8  9  2  0
  8 10  1  0
  3  4  1  0
  4  5  2  0
  5 16  1  0
 16 17  1  0
 17 18  1  0
 18 19  2  0
 18 20  1  0
 20 22  1  0
 22 23  2  0
 23 24  1  0
 24 25  2  0
 25 26  1  0
 26 27  2  0
  5  6  1  0
  6  7  2  0
  6  1  1  0
 27 22  1  0
 10 11  1  0
 20 21  1  0
M  END
> <minimizedAffinity>
-3.70470

> <CNNscore>
0.2159730494

> <CNNaffinity>
3.5455858707

> <CNN_VS>
0.7657510042

> <CNNaffinity_variance>
0.5035395026

$$$$



 27 28  0  0  0  0  0  0  0  0999 V2000
   17.7991   26.3270   -0.0153 C   0  0  0  0  0  0  0  0  0  0  0  0
   18.8642   26.9248   -0.9282 C   0  0  0  0  0  0  0  0  0  0  0  0
   20.2851   26.4625   -0.5540 C   0  0  0  0  0  0  0  0  0  0  0  0
   20.4894   26.5632    0.9467 C   0  0  0  0  0  0  0  0  0  0  0  0
   19.5347   26.7025    1.8850 C   0  0  0  0  0  0  0  0  0  0  0  0
   18.1034   26.7077    1.4368 C   0  0  0  0  0  0  0  0  0  0  0  0
   17.1995   26.9573    2.2338 O   0  0  0  0  0  0  0  0  0  0  0  0
   20.5154   24.9951   -1.0534 C   0  0  0  0  0  0  0  0  0  0  0  0
   20.5561   24.6345   -2.2230 O   0  0  0  0  0  0  0  0  0  0  0  0
   20.7036   24.0793   -0.0779 O   0  0  0  0  0  0  0  0  0  0  0  0
   20.6753   24.3403    0.8216 H   0  0  0  0  0  0  0  0  0  0  0  0
   16.6953   24.5464   -1.1246 C   0  0  0  0  0  0  0  0  0  0  0  0
   17.7457   24.9218   -0.2391 O   0  0  0  0  0  0  0  0  0  0  0  0
   21.2305   27.4133   -1.0740 O   0  0  0  0  0  0  0  0  0  0  0  0
   22.5252   26.9101   -1.3756 C   0  0  0  0  0  0  0  0  0  0  0  0
   19.7470   26.8380    3.3765 C   0  0  0  0  0  0  0  0  0  0  0  0
   20.2936   25.6026    4.0966 C   0  0  0  0  0  0  0  0  0  0  0  0
   19.8286   24.3074    3.4490 C   0  0  0  0  0  0  0  0  0  0  0  0
   20.5036   23.7150    2.6166 O   0  0  0  0  0  0  0  0  0  0  0  0
   18.5859   23.9239    3.9306 N   0  0  0  0  0  0  0  0  0  0  0  0
   18.1781   24.5170    4.6022 H   0  0  0  0  0  0  0  0  0  0  0  0
   17.8379   22.7834    3.5708 C   0  0  0  0  0  0  0  0  0  0  0  0
   17.7118   21.7725    4.5336 C   0  0  0  0  0  0  0  0  0  0  0  0
   16.9877   20.6094    4.2579 C   0  0  0  0  0  0  0  0  0  0  0  0
   16.3822   20.4453    3.0156 C   0  0  0  0  0  0  0  0  0  0  0  0
   16.5016   21.4440    2.0523 C   0  0  0  0  0  0  0  0  0  0  0  0
   17.2264   22.6083    2.3284 C   0  0  0  0  0  0  0  0  0  0  0  0
 12 13  1  0
  1 13  1  0
  1  2  1  0
  2  3  1  0
  3 14  1  0
 14 15  1  0
  3  8  1  0
  8  9  2  0
  8 10  1  0
  3  4  1  0
  4  5  2  0
  5 16  1  0
 16 17  1  0
 17 18  1  0
 18 19  2  0
 18 20  1  0
 20 22  1  0
 22 23  2  0
 23 24  1  0
 24 25  2  0
 25 26  1  0
 26 27  2  0
  5  6  1  0
  6  7  2  0
  6  1  1  0
 27 22  1  0
 10 11  1  0
 20 21  1  0
M  END
> <minimizedAffinity>
-5.15227

> <CNNscore>
0.2136478871

> <CNNaffinity>
4.1307563782

> <CNN_VS>
0.8825273514

> <CNNaffinity_variance>
0.0820625201

$$$$



 27 28  0  0  0  0  0  0  0  0999 V2000
   19.1626   24.6622    0.3551 C   0  0  0  0  0  0  0  0  0  0  0  0
   18.8917   24.9526    1.8273 C   0  0  0  0  0  0  0  0  0  0  0  0
   18.8182   26.4623    2.1243 C   0  0  0  0  0  0  0  0  0  0  0  0
   19.9722   27.1841    1.4524 C   0  0  0  0  0  0  0  0  0  0  0  0
   20.7667   26.7059    0.4770 C   0  0  0  0  0  0  0  0  0  0  0  0
   20.4721   25.3379   -0.0629 C   0  0  0  0  0  0  0  0  0  0  0  0
   21.2391   24.8030   -0.8631 O   0  0  0  0  0  0  0  0  0  0  0  0
   17.4419   27.0331    1.6388 C   0  0  0  0  0  0  0  0  0  0  0  0
   17.2852   28.0195    0.9303 O   0  0  0  0  0  0  0  0  0  0  0  0
   16.3568   26.3347    2.0397 O   0  0  0  0  0  0  0  0  0  0  0  0
   16.4610   25.5777    2.5821 H   0  0  0  0  0  0  0  0  0  0  0  0
   17.0358   24.0713   -0.5092 C   0  0  0  0  0  0  0  0  0  0  0  0
   18.0344   25.0815   -0.4057 O   0  0  0  0  0  0  0  0  0  0  0  0
   19.0774   26.6695    3.5236 O   0  0  0  0  0  0  0  0  0  0  0  0
   18.7193   27.9417    4.0464 C   0  0  0  0  0  0  0  0  0  0  0  0
   21.9378   27.4170   -0.1640 C   0  0  0  0  0  0  0  0  0  0  0  0
   22.3203   26.9556   -1.5727 C   0  0  0  0  0  0  0  0  0  0  0  0
   23.8222   27.0096   -1.8068 C   0  0  0  0  0  0  0  0  0  0  0  0
   24.5705   26.1066   -1.4541 O   0  0  0  0  0  0  0  0  0  0  0  0
   24.1872   28.1809   -2.4532 N   0  0  0  0  0  0  0  0  0  0  0  0
   23.4565   28.8049   -2.6676 H   0  0  0  0  0  0  0  0  0  0  0  0
   25.4828   28.5830   -2.8396 C   0  0  0  0  0  0  0  0  0  0  0  0
   26.5212   27.6610   -2.6487 C   0  0  0  0  0  0  0  0  0  0  0  0
   27.8346   27.9800   -3.0042 C   0  0  0  0  0  0  0  0  0  0  0  0
   28.1230   29.2254   -3.5544 C   0  0  0  0  0  0  0  0  0  0  0  0
   27.0982   30.1483   -3.7483 C   0  0  0  0  0  0  0  0  0  0  0  0
   25.7835   29.8288   -3.3925 C   0  0  0  0  0  0  0  0  0  0  0  0
 12 13  1  0
  1 13  1  0
  1  2  1  0
  2  3  1  0
  3 14  1  0
 14 15  1  0
  3  8  1  0
  8  9  2  0
  8 10  1  0
  3  4  1  0
  4  5  2  0
  5 16  1  0
 16 17  1  0
 17 18  1  0
 18 19  2  0
 18 20  1  0
 20 22  1  0
 22 23  2  0
 23 24  1  0
 24 25  2  0
 25 26  1  0
 26 27  2  0
  5  6  1  0
  6  7  2  0
  6  1  1  0
 27 22  1  0
 10 11  1  0
 20 21  1  0
M  END
> <minimizedAffinity>
-5.29798

> <CNNscore>
0.2035985291

> <CNNaffinity>
4.0728034973

> <CNN_VS>
0.8292167783

> <CNNaffinity_variance>
0.5812602639

$$$$



 27 28  0  0  0  0  0  0  0  0999 V2000
   18.7256   27.7312   -0.4645 C   0  0  0  0  0  0  0  0  0  0  0  0
   20.1848   27.6951   -0.9057 C   0  0  0  0  0  0  0  0  0  0  0  0
   20.9878   26.5927   -0.1895 C   0  0  0  0  0  0  0  0  0  0  0  0
   20.6896   26.6119    1.2987 C   0  0  0  0  0  0  0  0  0  0  0  0
   19.6629   27.2315    1.9096 C   0  0  0  0  0  0  0  0  0  0  0  0
   18.6587   27.9417    1.0512 C   0  0  0  0  0  0  0  0  0  0  0  0
   17.7739   28.6281    1.5616 O   0  0  0  0  0  0  0  0  0  0  0  0
   20.6444   25.1959   -0.8114 C   0  0  0  0  0  0  0  0  0  0  0  0
   20.4863   24.9616   -2.0029 O   0  0  0  0  0  0  0  0  0  0  0  0
   20.5443   24.1813    0.0753 O   0  0  0  0  0  0  0  0  0  0  0  0
   20.6628   24.3452    0.9902 H   0  0  0  0  0  0  0  0  0  0  0  0
   17.4022   26.7038   -2.1415 C   0  0  0  0  0  0  0  0  0  0  0  0
   18.0883   26.5364   -0.9047 O   0  0  0  0  0  0  0  0  0  0  0  0
   22.3844   26.9309   -0.2444 O   0  0  0  0  0  0  0  0  0  0  0  0
   22.9925   26.8799   -1.5280 C   0  0  0  0  0  0  0  0  0  0  0  0
   19.3910   27.2767    3.3969 C   0  0  0  0  0  0  0  0  0  0  0  0
   20.3565   28.1181    4.2356 C   0  0  0  0  0  0  0  0  0  0  0  0
   21.3171   27.2575    5.0418 C   0  0  0  0  0  0  0  0  0  0  0  0
   21.4919   26.0703    4.7972 O   0  0  0  0  0  0  0  0  0  0  0  0
   21.9330   27.9952    6.0416 N   0  0  0  0  0  0  0  0  0  0  0  0
   21.6781   28.9442    6.1012 H   0  0  0  0  0  0  0  0  0  0  0  0
   22.8820   27.5449    6.9830 C   0  0  0  0  0  0  0  0  0  0  0  0
   23.1482   26.1691    7.0136 C   0  0  0  0  0  0  0  0  0  0  0  0
   24.0745   25.6403    7.9166 C   0  0  0  0  0  0  0  0  0  0  0  0
   24.7444   26.4828    8.7990 C   0  0  0  0  0  0  0  0  0  0  0  0
   24.4870   27.8513    8.7762 C   0  0  0  0  0  0  0  0  0  0  0  0
   23.5598   28.3805    7.8722 C   0  0  0  0  0  0  0  0  0  0  0  0
 12 13  1  0
  1 13  1  0
  1  2  1  0
  2  3  1  0
  3 14  1  0
 14 15  1  0
  3  8  1  0
  8  9  2  0
  8 10  1  0
  3  4  1  0
  4  5  2  0
  5 16  1  0
 16 17  1  0
 17 18  1  0
 18 19  2  0
 18 20  1  0
 20 22  1  0
 22 23  2  0
 23 24  1  0
 24 25  2  0
 25 26  1  0
 26 27  2  0
  5  6  1  0
  6  7  2  0
  6  1  1  0
 27 22  1  0
 10 11  1  0
 20 21  1  0
M  END
> <minimizedAffinity>
-5.82305

> <CNNscore>
0.2009208649

> <CNNaffinity>
3.6719493866

> <CNN_VS>
0.7377712727

> <CNNaffinity_variance>
0.4512389600

$$$$
