


 43 47  0  0  0  0  0  0  0  0999 V2000
   39.0135  -19.1137   28.1162 C   0  0  0  0  0  0  0  0  0  0  0  0
   38.1421  -19.6742   27.0214 C   0  0  0  0  0  0  0  0  0  0  0  0
   38.0535  -19.2371   25.7772 N   0  0  0  0  0  0  0  0  0  0  0  0
   37.1394  -20.0574   25.1427 C   0  0  0  0  0  0  0  0  0  0  0  0
   36.6749  -20.9921   26.0318 C   0  0  0  0  0  0  0  0  0  0  0  0
   35.6196  -22.3139   25.9645 Cl  0  0  0  0  0  0  0  0  0  0  0  0
   37.2896  -20.7377   27.2175 N   0  0  0  0  0  0  0  0  0  0  0  0
   37.1507  -21.2247   28.0618 H   0  0  0  0  0  0  0  0  0  0  0  0
   36.8052  -19.9215   23.7346 C   0  0  0  0  0  0  0  0  0  0  0  0
   36.4419  -18.6109   23.2598 C   0  0  0  0  0  0  0  0  0  0  0  0
   36.0967  -18.3080   21.9248 C   0  0  0  0  0  0  0  0  0  0  0  0
   36.1413  -19.4472   21.1288 C   0  0  0  0  0  0  0  0  0  0  0  0
   35.8700  -19.5100   19.7870 C   0  0  0  0  0  0  0  0  0  0  0  0
   35.5127  -18.5912   18.8635 N   0  0  0  0  0  0  0  0  0  0  0  0
   36.0230  -20.8357   19.4740 N   0  0  0  0  0  0  0  0  0  0  0  0
   36.4034  -21.6217   20.5016 N   0  0  0  0  0  0  0  0  0  0  0  0
   36.4814  -20.7860   21.5520 C   0  0  0  0  0  0  0  0  0  0  0  0
   36.8248  -21.0566   22.8878 C   0  0  0  0  0  0  0  0  0  0  0  0
   35.4116  -17.6467   19.1222 H   0  0  0  0  0  0  0  0  0  0  0  0
   35.3533  -18.8661   17.9317 H   0  0  0  0  0  0  0  0  0  0  0  0
   35.8670  -21.1873   18.5678 H   0  0  0  0  0  0  0  0  0  0  0  0
   40.5488  -20.3740   29.5838 C   0  0  0  0  0  0  0  0  0  0  0  0
   40.1859  -19.7626   30.5816 O   0  0  0  0  0  0  0  0  0  0  0  0
   40.1036  -20.0697   28.3123 N   0  0  0  0  0  0  0  0  0  0  0  0
   40.5230  -20.4993   27.5320 H   0  0  0  0  0  0  0  0  0  0  0  0
   41.0863  -24.1397   28.1046 C   0  0  0  0  0  0  0  0  0  0  0  0
   40.1779  -23.6608   29.2559 C   0  0  0  0  0  0  0  0  0  0  0  0
   40.9150  -22.7905   30.2708 C   0  0  0  0  0  0  0  0  0  0  0  0
   41.5395  -21.5415   29.6244 C   0  0  0  0  0  0  0  0  0  0  0  0
   42.0899  -21.8167   28.2131 C   0  0  0  0  0  0  0  0  0  0  0  0
   42.3683  -23.2974   27.9748 C   0  0  0  0  0  0  0  0  0  0  0  0
   42.4514  -26.0357   29.0823 N   0  0  0  0  0  0  0  0  0  0  0  0
   41.3829  -25.6533   28.1653 C   0  0  0  0  0  0  0  0  0  0  0  0
   42.5760  -27.0477   29.0560 H   0  0  0  0  0  0  0  0  0  0  0  0
   42.2058  -25.7479   30.0295 H   0  0  0  0  0  0  0  0  0  0  0  0
   39.5003  -17.6828   27.7754 C   0  0  0  0  0  0  0  0  0  0  0  0
   38.4353  -16.6292   27.9965 C   0  0  0  0  0  0  0  0  0  0  0  0
   37.2641  -16.9267   28.7086 C   0  0  0  0  0  0  0  0  0  0  0  0
   36.3046  -15.9365   28.9328 C   0  0  0  0  0  0  0  0  0  0  0  0
   36.5129  -14.6468   28.4490 C   0  0  0  0  0  0  0  0  0  0  0  0
   35.3347  -13.4263   28.7363 Cl  0  0  0  0  0  0  0  0  0  0  0  0
   37.6704  -14.3379   27.7363 C   0  0  0  0  0  0  0  0  0  0  0  0
   38.6291  -15.3269   27.5103 C   0  0  0  0  0  0  0  0  0  0  0  0
 32 33  1  0
 26 33  1  0
 26 27  1  0
 27 28  1  0
 28 29  1  0
 29 22  1  0
 22 23  2  0
 22 24  1  0
 24  1  1  0
  1 36  1  0
 36 37  1  0
 37 38  2  0
 38 39  1  0
 39 40  2  0
 40 41  1  0
 40 42  1  0
 42 43  2  0
  1  2  1  0
  2  3  2  0
  3  4  1  0
  4  9  1  0
  9 10  1  0
 10 11  2  0
 11 12  1  0
 12 13  2  0
 13 14  1  0
 13 15  1  0
 15 16  1  0
 16 17  2  0
 17 18  1  0
  4  5  2  0
  5  6  1  0
  5  7  1  0
 29 30  1  0
 30 31  1  0
 31 26  1  0
 43 37  1  0
  7  2  1  0
 18  9  2  0
 17 12  1  0
 32 34  1  0
 32 35  1  0
 24 25  1  0
 14 19  1  0
 14 20  1  0
 15 21  1  0
  7  8  1  0
M  END
> <minimizedAffinity>
-8.95477

> <CNNscore>
0.6669493318

> <CNNaffinity>
7.7178092003

> <CNN_VS>
5.1473875046

> <CNNaffinity_variance>
0.1635971665

$$$$



 43 47  0  0  0  0  0  0  0  0999 V2000
   38.4186  -20.0637   27.7943 C   0  0  0  0  0  0  0  0  0  0  0  0
   39.5284  -20.8405   28.4552 C   0  0  0  0  0  0  0  0  0  0  0  0
   40.7536  -20.4134   28.7070 N   0  0  0  0  0  0  0  0  0  0  0  0
   41.4105  -21.4623   29.3229 C   0  0  0  0  0  0  0  0  0  0  0  0
   40.5582  -22.5310   29.4303 C   0  0  0  0  0  0  0  0  0  0  0  0
   40.6353  -24.0841   30.0989 Cl  0  0  0  0  0  0  0  0  0  0  0  0
   39.3824  -22.1467   28.8661 N   0  0  0  0  0  0  0  0  0  0  0  0
   38.5745  -22.7009   28.7691 H   0  0  0  0  0  0  0  0  0  0  0  0
   42.7799  -21.3614   29.7998 C   0  0  0  0  0  0  0  0  0  0  0  0
   43.7010  -20.5762   29.0187 C   0  0  0  0  0  0  0  0  0  0  0  0
   45.0596  -20.3731   29.3447 C   0  0  0  0  0  0  0  0  0  0  0  0
   45.3957  -21.0433   30.5157 C   0  0  0  0  0  0  0  0  0  0  0  0
   46.6263  -21.0553   31.1185 C   0  0  0  0  0  0  0  0  0  0  0  0
   47.8130  -20.4789   30.8281 N   0  0  0  0  0  0  0  0  0  0  0  0
   46.4585  -21.8658   32.2110 N   0  0  0  0  0  0  0  0  0  0  0  0
   45.2095  -22.3470   32.3748 N   0  0  0  0  0  0  0  0  0  0  0  0
   44.5213  -21.8561   31.3292 C   0  0  0  0  0  0  0  0  0  0  0  0
   43.1716  -22.0372   30.9813 C   0  0  0  0  0  0  0  0  0  0  0  0
   47.8990  -19.9019   30.0351 H   0  0  0  0  0  0  0  0  0  0  0  0
   48.5918  -20.6358   31.4095 H   0  0  0  0  0  0  0  0  0  0  0  0
   47.1940  -22.0803   32.8293 H   0  0  0  0  0  0  0  0  0  0  0  0
   39.1748  -17.7164   27.6593 C   0  0  0  0  0  0  0  0  0  0  0  0
   39.8904  -17.9444   26.6913 O   0  0  0  0  0  0  0  0  0  0  0  0
   38.4831  -18.7045   28.3322 N   0  0  0  0  0  0  0  0  0  0  0  0
   38.0300  -18.4927   29.1802 H   0  0  0  0  0  0  0  0  0  0  0  0
   36.3851  -14.7444   27.8651 C   0  0  0  0  0  0  0  0  0  0  0  0
   37.3218  -15.1288   26.7010 C   0  0  0  0  0  0  0  0  0  0  0  0
   38.7799  -15.2645   27.1325 C   0  0  0  0  0  0  0  0  0  0  0  0
   38.9652  -16.3152   28.2413 C   0  0  0  0  0  0  0  0  0  0  0  0
   37.7984  -16.3293   29.2458 C   0  0  0  0  0  0  0  0  0  0  0  0
   37.0119  -15.0224   29.2434 C   0  0  0  0  0  0  0  0  0  0  0  0
   36.7853  -12.3334   27.2013 N   0  0  0  0  0  0  0  0  0  0  0  0
   35.8428  -13.3040   27.7473 C   0  0  0  0  0  0  0  0  0  0  0  0
   36.3427  -11.4153   27.1608 H   0  0  0  0  0  0  0  0  0  0  0  0
   37.0619  -12.6192   26.2620 H   0  0  0  0  0  0  0  0  0  0  0  0
   38.5281  -20.1228   26.2499 C   0  0  0  0  0  0  0  0  0  0  0  0
   37.5398  -21.0851   25.6250 C   0  0  0  0  0  0  0  0  0  0  0  0
   36.5539  -20.6300   24.7372 C   0  0  0  0  0  0  0  0  0  0  0  0
   35.6691  -21.5331   24.1431 C   0  0  0  0  0  0  0  0  0  0  0  0
   35.7678  -22.8924   24.4318 C   0  0  0  0  0  0  0  0  0  0  0  0
   34.6839  -24.0038   23.6900 Cl  0  0  0  0  0  0  0  0  0  0  0  0
   36.7401  -23.3583   25.3153 C   0  0  0  0  0  0  0  0  0  0  0  0
   37.6238  -22.4566   25.9107 C   0  0  0  0  0  0  0  0  0  0  0  0
 32 33  1  0
 26 33  1  0
 26 27  1  0
 27 28  1  0
 28 29  1  0
 29 22  1  0
 22 23  2  0
 22 24  1  0
 24  1  1  0
  1 36  1  0
 36 37  1  0
 37 38  2  0
 38 39  1  0
 39 40  2  0
 40 41  1  0
 40 42  1  0
 42 43  2  0
  1  2  1  0
  2  3  2  0
  3  4  1  0
  4  9  1  0
  9 10  1  0
 10 11  2  0
 11 12  1  0
 12 13  2  0
 13 14  1  0
 13 15  1  0
 15 16  1  0
 16 17  2  0
 17 18  1  0
  4  5  2  0
  5  6  1  0
  5  7  1  0
 29 30  1  0
 30 31  1  0
 31 26  1  0
 43 37  1  0
  7  2  1  0
 18  9  2  0
 17 12  1  0
 32 34  1  0
 32 35  1  0
 24 25  1  0
 14 19  1  0
 14 20  1  0
 15 21  1  0
  7  8  1  0
M  END
> <minimizedAffinity>
-10.26887

> <CNNscore>
0.6005051732

> <CNNaffinity>
7.9462294579

> <CNN_VS>
4.7717518806

> <CNNaffinity_variance>
0.0007090428

$$$$



 43 47  0  0  0  0  0  0  0  0999 V2000
   39.3420  -18.8560   27.8292 C   0  0  0  0  0  0  0  0  0  0  0  0
   38.3942  -19.4310   26.8082 C   0  0  0  0  0  0  0  0  0  0  0  0
   38.3172  -19.1091   25.5286 N   0  0  0  0  0  0  0  0  0  0  0  0
   37.3132  -19.8931   24.9916 C   0  0  0  0  0  0  0  0  0  0  0  0
   36.7833  -20.6881   25.9752 C   0  0  0  0  0  0  0  0  0  0  0  0
   35.6047  -21.9005   26.0539 Cl  0  0  0  0  0  0  0  0  0  0  0  0
   37.4486  -20.3822   27.1206 N   0  0  0  0  0  0  0  0  0  0  0  0
   37.2845  -20.7699   28.0106 H   0  0  0  0  0  0  0  0  0  0  0  0
   36.9589  -19.8612   23.5823 C   0  0  0  0  0  0  0  0  0  0  0  0
   36.6825  -18.5756   22.9940 C   0  0  0  0  0  0  0  0  0  0  0  0
   36.3311  -18.3704   21.6421 C   0  0  0  0  0  0  0  0  0  0  0  0
   36.2743  -19.5774   20.9542 C   0  0  0  0  0  0  0  0  0  0  0  0
   35.9695  -19.7415   19.6282 C   0  0  0  0  0  0  0  0  0  0  0  0
   35.6604  -18.8863   18.6293 N   0  0  0  0  0  0  0  0  0  0  0  0
   36.0177  -21.0979   19.4368 N   0  0  0  0  0  0  0  0  0  0  0  0
   36.3619  -21.8135   20.5266 N   0  0  0  0  0  0  0  0  0  0  0  0
   36.5243  -20.8939   21.4940 C   0  0  0  0  0  0  0  0  0  0  0  0
   36.8763  -21.0669   22.8437 C   0  0  0  0  0  0  0  0  0  0  0  0
   35.6347  -17.9173   18.8012 H   0  0  0  0  0  0  0  0  0  0  0  0
   35.4607  -19.2321   17.7294 H   0  0  0  0  0  0  0  0  0  0  0  0
   35.8163  -21.5178   18.5694 H   0  0  0  0  0  0  0  0  0  0  0  0
   40.8611  -20.3252   29.1073 C   0  0  0  0  0  0  0  0  0  0  0  0
   40.3878  -19.9733   30.1812 O   0  0  0  0  0  0  0  0  0  0  0  0
   40.4827  -19.7696   27.9008 N   0  0  0  0  0  0  0  0  0  0  0  0
   40.9842  -19.9899   27.0827 H   0  0  0  0  0  0  0  0  0  0  0  0
   44.6147  -21.2745   30.3983 C   0  0  0  0  0  0  0  0  0  0  0  0
   44.1783  -20.2722   29.3095 C   0  0  0  0  0  0  0  0  0  0  0  0
   43.2044  -20.8776   28.3017 C   0  0  0  0  0  0  0  0  0  0  0  0
   41.9287  -21.4153   28.9732 C   0  0  0  0  0  0  0  0  0  0  0  0
   42.2057  -22.0552   30.3459 C   0  0  0  0  0  0  0  0  0  0  0  0
   43.6622  -22.4788   30.5078 C   0  0  0  0  0  0  0  0  0  0  0  0
   46.8711  -20.9301   29.3008 N   0  0  0  0  0  0  0  0  0  0  0  0
   46.0906  -21.7049   30.2596 C   0  0  0  0  0  0  0  0  0  0  0  0
   47.8276  -21.2834   29.2766 H   0  0  0  0  0  0  0  0  0  0  0  0
   46.8778  -19.9495   29.5814 H   0  0  0  0  0  0  0  0  0  0  0  0
   39.7378  -17.3999   27.4772 C   0  0  0  0  0  0  0  0  0  0  0  0
   38.6378  -16.4019   27.7726 C   0  0  0  0  0  0  0  0  0  0  0  0
   38.0968  -16.2862   29.0616 C   0  0  0  0  0  0  0  0  0  0  0  0
   37.1050  -15.3390   29.3274 C   0  0  0  0  0  0  0  0  0  0  0  0
   36.6526  -14.5039   28.3082 C   0  0  0  0  0  0  0  0  0  0  0  0
   35.4390  -13.3306   28.6411 Cl  0  0  0  0  0  0  0  0  0  0  0  0
   37.1784  -14.6104   27.0217 C   0  0  0  0  0  0  0  0  0  0  0  0
   38.1685  -15.5575   26.7545 C   0  0  0  0  0  0  0  0  0  0  0  0
 32 33  1  0
 26 33  1  0
 26 27  1  0
 27 28  1  0
 28 29  1  0
 29 22  1  0
 22 23  2  0
 22 24  1  0
 24  1  1  0
  1 36  1  0
 36 37  1  0
 37 38  2  0
 38 39  1  0
 39 40  2  0
 40 41  1  0
 40 42  1  0
 42 43  2  0
  1  2  1  0
  2  3  2  0
  3  4  1  0
  4  9  1  0
  9 10  1  0
 10 11  2  0
 11 12  1  0
 12 13  2  0
 13 14  1  0
 13 15  1  0
 15 16  1  0
 16 17  2  0
 17 18  1  0
  4  5  2  0
  5  6  1  0
  5  7  1  0
 29 30  1  0
 30 31  1  0
 31 26  1  0
 43 37  1  0
  7  2  1  0
 18  9  2  0
 17 12  1  0
 32 34  1  0
 32 35  1  0
 24 25  1  0
 14 19  1  0
 14 20  1  0
 15 21  1  0
  7  8  1  0
M  END
> <minimizedAffinity>
-9.08319

> <CNNscore>
0.5165454149

> <CNNaffinity>
7.4877076149

> <CNN_VS>
3.8677411079

> <CNNaffinity_variance>
0.0561682135

$$$$



 43 47  0  0  0  0  0  0  0  0999 V2000
   41.5626  -21.1409   29.3856 C   0  0  0  0  0  0  0  0  0  0  0  0
   40.3533  -20.4061   28.8663 C   0  0  0  0  0  0  0  0  0  0  0  0
   40.0721  -19.1255   29.0333 N   0  0  0  0  0  0  0  0  0  0  0  0
   38.8734  -18.9039   28.3812 C   0  0  0  0  0  0  0  0  0  0  0  0
   38.4360  -20.0782   27.8245 C   0  0  0  0  0  0  0  0  0  0  0  0
   37.1263  -20.5532   26.8631 Cl  0  0  0  0  0  0  0  0  0  0  0  0
   39.3557  -21.0260   28.1474 N   0  0  0  0  0  0  0  0  0  0  0  0
   39.3157  -21.9807   27.9106 H   0  0  0  0  0  0  0  0  0  0  0  0
   38.2536  -17.5918   28.2987 C   0  0  0  0  0  0  0  0  0  0  0  0
   39.0145  -16.5330   27.6862 C   0  0  0  0  0  0  0  0  0  0  0  0
   38.5578  -15.2072   27.5229 C   0  0  0  0  0  0  0  0  0  0  0  0
   37.2778  -15.0542   28.0442 C   0  0  0  0  0  0  0  0  0  0  0  0
   36.5359  -13.9020   28.0476 C   0  0  0  0  0  0  0  0  0  0  0  0
   36.7550  -12.6501   27.5898 N   0  0  0  0  0  0  0  0  0  0  0  0
   35.3752  -14.2505   28.6879 N   0  0  0  0  0  0  0  0  0  0  0  0
   35.3007  -15.5430   29.0652 N   0  0  0  0  0  0  0  0  0  0  0  0
   36.4758  -16.0724   28.6824 C   0  0  0  0  0  0  0  0  0  0  0  0
   36.9559  -17.3854   28.8275 C   0  0  0  0  0  0  0  0  0  0  0  0
   37.6003  -12.4335   27.1341 H   0  0  0  0  0  0  0  0  0  0  0  0
   36.0692  -11.9543   27.7120 H   0  0  0  0  0  0  0  0  0  0  0  0
   34.6509  -13.6061   28.8592 H   0  0  0  0  0  0  0  0  0  0  0  0
   40.6618  -23.4389   29.4698 C   0  0  0  0  0  0  0  0  0  0  0  0
   40.1040  -23.2404   30.5425 O   0  0  0  0  0  0  0  0  0  0  0  0
   41.4783  -22.5049   28.8628 N   0  0  0  0  0  0  0  0  0  0  0  0
   42.0075  -22.7587   28.0724 H   0  0  0  0  0  0  0  0  0  0  0  0
   42.5946  -26.9722   28.8084 C   0  0  0  0  0  0  0  0  0  0  0  0
   42.8922  -25.5714   28.2346 C   0  0  0  0  0  0  0  0  0  0  0  0
   41.6562  -24.8969   27.6447 C   0  0  0  0  0  0  0  0  0  0  0  0
   40.5261  -24.7429   28.6777 C   0  0  0  0  0  0  0  0  0  0  0  0
   40.4369  -25.9399   29.6418 C   0  0  0  0  0  0  0  0  0  0  0  0
   41.0949  -27.1943   29.0755 C   0  0  0  0  0  0  0  0  0  0  0  0
   42.3215  -29.2281   27.6902 N   0  0  0  0  0  0  0  0  0  0  0  0
   43.2149  -28.1084   27.9676 C   0  0  0  0  0  0  0  0  0  0  0  0
   42.8141  -29.9261   27.1328 H   0  0  0  0  0  0  0  0  0  0  0  0
   41.5075  -28.8939   27.1744 H   0  0  0  0  0  0  0  0  0  0  0  0
   42.8752  -20.4123   29.0024 C   0  0  0  0  0  0  0  0  0  0  0  0
   44.0451  -20.8040   29.8806 C   0  0  0  0  0  0  0  0  0  0  0  0
   43.9580  -21.9014   30.7499 C   0  0  0  0  0  0  0  0  0  0  0  0
   45.0558  -22.2710   31.5307 C   0  0  0  0  0  0  0  0  0  0  0  0
   46.2434  -21.5479   31.4441 C   0  0  0  0  0  0  0  0  0  0  0  0
   47.5975  -22.0122   32.3986 Cl  0  0  0  0  0  0  0  0  0  0  0  0
   46.3429  -20.4527   30.5875 C   0  0  0  0  0  0  0  0  0  0  0  0
   45.2462  -20.0815   29.8078 C   0  0  0  0  0  0  0  0  0  0  0  0
 32 33  1  0
 26 33  1  0
 26 27  1  0
 27 28  1  0
 28 29  1  0
 29 22  1  0
 22 23  2  0
 22 24  1  0
 24  1  1  0
  1 36  1  0
 36 37  1  0
 37 38  2  0
 38 39  1  0
 39 40  2  0
 40 41  1  0
 40 42  1  0
 42 43  2  0
  1  2  1  0
  2  3  2  0
  3  4  1  0
  4  9  1  0
  9 10  1  0
 10 11  2  0
 11 12  1  0
 12 13  2  0
 13 14  1  0
 13 15  1  0
 15 16  1  0
 16 17  2  0
 17 18  1  0
  4  5  2  0
  5  6  1  0
  5  7  1  0
 29 30  1  0
 30 31  1  0
 31 26  1  0
 43 37  1  0
  7  2  1  0
 18  9  2  0
 17 12  1  0
 32 34  1  0
 32 35  1  0
 24 25  1  0
 14 19  1  0
 14 20  1  0
 15 21  1  0
  7  8  1  0
M  END
> <minimizedAffinity>
-10.67929

> <CNNscore>
0.5161703229

> <CNNaffinity>
7.3763642311

> <CNN_VS>
3.8074603081

> <CNNaffinity_variance>
0.2992646396

$$$$



 43 47  0  0  0  0  0  0  0  0999 V2000
   38.4384  -20.5366   27.8463 C   0  0  0  0  0  0  0  0  0  0  0  0
   39.6739  -21.2768   28.2906 C   0  0  0  0  0  0  0  0  0  0  0  0
   40.9206  -21.0252   27.9309 N   0  0  0  0  0  0  0  0  0  0  0  0
   41.7080  -21.9518   28.5888 C   0  0  0  0  0  0  0  0  0  0  0  0
   40.9094  -22.7698   29.3458 C   0  0  0  0  0  0  0  0  0  0  0  0
   41.1579  -24.0493   30.4258 Cl  0  0  0  0  0  0  0  0  0  0  0  0
   39.6298  -22.3585   29.1417 N   0  0  0  0  0  0  0  0  0  0  0  0
   38.8198  -22.7604   29.5311 H   0  0  0  0  0  0  0  0  0  0  0  0
   43.1577  -21.9677   28.4843 C   0  0  0  0  0  0  0  0  0  0  0  0
   43.8444  -23.1536   28.9284 C   0  0  0  0  0  0  0  0  0  0  0  0
   45.2443  -23.3325   28.8895 C   0  0  0  0  0  0  0  0  0  0  0  0
   45.8758  -22.2049   28.3765 C   0  0  0  0  0  0  0  0  0  0  0  0
   47.2245  -22.0426   28.1955 C   0  0  0  0  0  0  0  0  0  0  0  0
   48.2972  -22.8331   28.4171 N   0  0  0  0  0  0  0  0  0  0  0  0
   47.3470  -20.7717   27.6968 N   0  0  0  0  0  0  0  0  0  0  0  0
   46.1814  -20.1191   27.5124 N   0  0  0  0  0  0  0  0  0  0  0  0
   45.2423  -20.9849   27.9322 C   0  0  0  0  0  0  0  0  0  0  0  0
   43.8454  -20.8372   27.9792 C   0  0  0  0  0  0  0  0  0  0  0  0
   48.1737  -23.7413   28.7762 H   0  0  0  0  0  0  0  0  0  0  0  0
   49.2027  -22.5009   28.2193 H   0  0  0  0  0  0  0  0  0  0  0  0
   48.2197  -20.3662   27.4891 H   0  0  0  0  0  0  0  0  0  0  0  0
   38.8720  -18.1055   27.8111 C   0  0  0  0  0  0  0  0  0  0  0  0
   39.3600  -18.1526   26.6883 O   0  0  0  0  0  0  0  0  0  0  0  0
   38.4744  -19.2310   28.5058 N   0  0  0  0  0  0  0  0  0  0  0  0
   38.2132  -19.1543   29.4519 H   0  0  0  0  0  0  0  0  0  0  0  0
   36.4241  -14.8406   27.8874 C   0  0  0  0  0  0  0  0  0  0  0  0
   37.5962  -15.1632   26.9375 C   0  0  0  0  0  0  0  0  0  0  0  0
   38.8667  -15.5701   27.6796 C   0  0  0  0  0  0  0  0  0  0  0  0
   38.6491  -16.7992   28.5793 C   0  0  0  0  0  0  0  0  0  0  0  0
   37.2609  -16.8082   29.2453 C   0  0  0  0  0  0  0  0  0  0  0  0
   36.6314  -15.4198   29.2985 C   0  0  0  0  0  0  0  0  0  0  0  0
   37.0898  -12.4559   27.3547 N   0  0  0  0  0  0  0  0  0  0  0  0
   36.0722  -13.3379   27.9162 C   0  0  0  0  0  0  0  0  0  0  0  0
   36.7726  -11.4884   27.4161 H   0  0  0  0  0  0  0  0  0  0  0  0
   37.2495  -12.6999   26.3773 H   0  0  0  0  0  0  0  0  0  0  0  0
   38.3575  -20.4465   26.3016 C   0  0  0  0  0  0  0  0  0  0  0  0
   37.6478  -21.6301   25.6782 C   0  0  0  0  0  0  0  0  0  0  0  0
   36.2809  -21.8509   25.9028 C   0  0  0  0  0  0  0  0  0  0  0  0
   35.6317  -22.9285   25.2955 C   0  0  0  0  0  0  0  0  0  0  0  0
   36.3445  -23.7865   24.4609 C   0  0  0  0  0  0  0  0  0  0  0  0
   35.5399  -25.1063   23.7052 Cl  0  0  0  0  0  0  0  0  0  0  0  0
   37.7041  -23.5815   24.2318 C   0  0  0  0  0  0  0  0  0  0  0  0
   38.3542  -22.5059   24.8393 C   0  0  0  0  0  0  0  0  0  0  0  0
 32 33  1  0
 26 33  1  0
 26 27  1  0
 27 28  1  0
 28 29  1  0
 29 22  1  0
 22 23  2  0
 22 24  1  0
 24  1  1  0
  1 36  1  0
 36 37  1  0
 37 38  2  0
 38 39  1  0
 39 40  2  0
 40 41  1  0
 40 42  1  0
 42 43  2  0
  1  2  1  0
  2  3  2  0
  3  4  1  0
  4  9  1  0
  9 10  1  0
 10 11  2  0
 11 12  1  0
 12 13  2  0
 13 14  1  0
 13 15  1  0
 15 16  1  0
 16 17  2  0
 17 18  1  0
  4  5  2  0
  5  6  1  0
  5  7  1  0
 29 30  1  0
 30 31  1  0
 31 26  1  0
 43 37  1  0
  7  2  1  0
 18  9  2  0
 17 12  1  0
 32 34  1  0
 32 35  1  0
 24 25  1  0
 14 19  1  0
 14 20  1  0
 15 21  1  0
  7  8  1  0
M  END
> <minimizedAffinity>
-8.66763

> <CNNscore>
0.4949511886

> <CNNaffinity>
7.8236579895

> <CNN_VS>
3.8723287582

> <CNNaffinity_variance>
0.2148417383

$$$$



 43 47  0  0  0  0  0  0  0  0999 V2000
   38.1573  -20.3680   27.3847 C   0  0  0  0  0  0  0  0  0  0  0  0
   39.1478  -21.2641   28.0830 C   0  0  0  0  0  0  0  0  0  0  0  0
   39.4235  -22.5225   27.7874 N   0  0  0  0  0  0  0  0  0  0  0  0
   40.3902  -22.9291   28.6881 C   0  0  0  0  0  0  0  0  0  0  0  0
   40.6855  -21.8924   29.5355 C   0  0  0  0  0  0  0  0  0  0  0  0
   41.7706  -21.6355   30.8090 Cl  0  0  0  0  0  0  0  0  0  0  0  0
   39.8895  -20.8532   29.1681 N   0  0  0  0  0  0  0  0  0  0  0  0
   39.8505  -19.9689   29.5990 H   0  0  0  0  0  0  0  0  0  0  0  0
   40.9907  -24.2523   28.6536 C   0  0  0  0  0  0  0  0  0  0  0  0
   40.1528  -25.3537   28.2537 C   0  0  0  0  0  0  0  0  0  0  0  0
   40.5809  -26.6960   28.1623 C   0  0  0  0  0  0  0  0  0  0  0  0
   41.9184  -26.8171   28.5224 C   0  0  0  0  0  0  0  0  0  0  0  0
   42.6516  -27.9748   28.5407 C   0  0  0  0  0  0  0  0  0  0  0  0
   42.3709  -29.2616   28.2409 N   0  0  0  0  0  0  0  0  0  0  0  0
   43.8879  -27.5836   28.9848 N   0  0  0  0  0  0  0  0  0  0  0  0
   44.0148  -26.2619   29.2205 N   0  0  0  0  0  0  0  0  0  0  0  0
   42.8004  -25.7543   28.9462 C   0  0  0  0  0  0  0  0  0  0  0  0
   42.3467  -24.4263   29.0240 C   0  0  0  0  0  0  0  0  0  0  0  0
   41.4720  -29.5085   27.9243 H   0  0  0  0  0  0  0  0  0  0  0  0
   43.0652  -29.9527   28.3391 H   0  0  0  0  0  0  0  0  0  0  0  0
   44.6272  -28.2192   29.1214 H   0  0  0  0  0  0  0  0  0  0  0  0
   39.2721  -18.1817   27.6619 C   0  0  0  0  0  0  0  0  0  0  0  0
   40.2059  -18.5034   26.9368 O   0  0  0  0  0  0  0  0  0  0  0  0
   38.2631  -19.0542   28.0200 N   0  0  0  0  0  0  0  0  0  0  0  0
   37.6102  -18.7902   28.7079 H   0  0  0  0  0  0  0  0  0  0  0  0
   36.5651  -15.1425   27.9661 C   0  0  0  0  0  0  0  0  0  0  0  0
   37.4608  -15.5400   26.7743 C   0  0  0  0  0  0  0  0  0  0  0  0
   38.9258  -15.7161   27.1658 C   0  0  0  0  0  0  0  0  0  0  0  0
   39.1136  -16.7808   28.2607 C   0  0  0  0  0  0  0  0  0  0  0  0
   37.9737  -16.7745   29.2956 C   0  0  0  0  0  0  0  0  0  0  0  0
   37.2207  -15.4482   29.3248 C   0  0  0  0  0  0  0  0  0  0  0  0
   37.0648  -12.7055   27.4908 N   0  0  0  0  0  0  0  0  0  0  0  0
   36.0566  -13.6879   27.8744 C   0  0  0  0  0  0  0  0  0  0  0  0
   36.6406  -11.7786   27.4563 H   0  0  0  0  0  0  0  0  0  0  0  0
   37.4385  -12.9429   26.5719 H   0  0  0  0  0  0  0  0  0  0  0  0
   38.4030  -20.3363   25.8552 C   0  0  0  0  0  0  0  0  0  0  0  0
   37.3018  -21.0139   25.0668 C   0  0  0  0  0  0  0  0  0  0  0  0
   37.0448  -22.3843   25.2194 C   0  0  0  0  0  0  0  0  0  0  0  0
   36.0049  -22.9898   24.5098 C   0  0  0  0  0  0  0  0  0  0  0  0
   35.2180  -22.2287   23.6483 C   0  0  0  0  0  0  0  0  0  0  0  0
   33.9308  -22.9747   22.7841 Cl  0  0  0  0  0  0  0  0  0  0  0  0
   35.4646  -20.8666   23.4838 C   0  0  0  0  0  0  0  0  0  0  0  0
   36.5043  -20.2608   24.1912 C   0  0  0  0  0  0  0  0  0  0  0  0
 32 33  1  0
 26 33  1  0
 26 27  1  0
 27 28  1  0
 28 29  1  0
 29 22  1  0
 22 23  2  0
 22 24  1  0
 24  1  1  0
  1 36  1  0
 36 37  1  0
 37 38  2  0
 38 39  1  0
 39 40  2  0
 40 41  1  0
 40 42  1  0
 42 43  2  0
  1  2  1  0
  2  3  2  0
  3  4  1  0
  4  9  1  0
  9 10  1  0
 10 11  2  0
 11 12  1  0
 12 13  2  0
 13 14  1  0
 13 15  1  0
 15 16  1  0
 16 17  2  0
 17 18  1  0
  4  5  2  0
  5  6  1  0
  5  7  1  0
 29 30  1  0
 30 31  1  0
 31 26  1  0
 43 37  1  0
  7  2  1  0
 18  9  2  0
 17 12  1  0
 32 34  1  0
 32 35  1  0
 24 25  1  0
 14 19  1  0
 14 20  1  0
 15 21  1  0
  7  8  1  0
M  END
> <minimizedAffinity>
-9.62602

> <CNNscore>
0.4221875668

> <CNNaffinity>
7.4348225594

> <CNN_VS>
3.1388895512

> <CNNaffinity_variance>
0.0056387945

$$$$



 43 47  0  0  0  0  0  0  0  0999 V2000
   42.1270  -21.1717   29.1761 C   0  0  0  0  0  0  0  0  0  0  0  0
   40.8275  -20.5122   28.7912 C   0  0  0  0  0  0  0  0  0  0  0  0
   40.5073  -19.2397   28.9498 N   0  0  0  0  0  0  0  0  0  0  0  0
   39.2267  -19.0972   28.4489 C   0  0  0  0  0  0  0  0  0  0  0  0
   38.7806  -20.3107   27.9922 C   0  0  0  0  0  0  0  0  0  0  0  0
   37.3850  -20.8806   27.2224 Cl  0  0  0  0  0  0  0  0  0  0  0  0
   39.7788  -21.2034   28.2266 N   0  0  0  0  0  0  0  0  0  0  0  0
   39.7560  -22.1676   28.0290 H   0  0  0  0  0  0  0  0  0  0  0  0
   38.5380  -17.8180   28.4024 C   0  0  0  0  0  0  0  0  0  0  0  0
   37.2298  -17.7438   29.0008 C   0  0  0  0  0  0  0  0  0  0  0  0
   36.4327  -16.5794   29.0459 C   0  0  0  0  0  0  0  0  0  0  0  0
   37.0732  -15.5137   28.4235 C   0  0  0  0  0  0  0  0  0  0  0  0
   36.5863  -14.2394   28.2928 C   0  0  0  0  0  0  0  0  0  0  0  0
   35.4454  -13.6318   28.6852 N   0  0  0  0  0  0  0  0  0  0  0  0
   37.5605  -13.5767   27.5924 N   0  0  0  0  0  0  0  0  0  0  0  0
   38.6477  -14.3162   27.2932 N   0  0  0  0  0  0  0  0  0  0  0  0
   38.3733  -15.5335   27.7939 C   0  0  0  0  0  0  0  0  0  0  0  0
   39.1461  -16.7073   27.7679 C   0  0  0  0  0  0  0  0  0  0  0  0
   34.7660  -14.1374   29.1871 H   0  0  0  0  0  0  0  0  0  0  0  0
   35.2934  -12.6834   28.4693 H   0  0  0  0  0  0  0  0  0  0  0  0
   37.4732  -12.6324   27.3279 H   0  0  0  0  0  0  0  0  0  0  0  0
   42.1819  -22.8014   27.3211 C   0  0  0  0  0  0  0  0  0  0  0  0
   42.1816  -21.9184   26.4718 O   0  0  0  0  0  0  0  0  0  0  0  0
   42.0634  -22.5442   28.6729 N   0  0  0  0  0  0  0  0  0  0  0  0
   41.9351  -23.2900   29.3027 H   0  0  0  0  0  0  0  0  0  0  0  0
   40.6014  -26.4277   28.3256 C   0  0  0  0  0  0  0  0  0  0  0  0
   41.6277  -25.5626   29.0863 C   0  0  0  0  0  0  0  0  0  0  0  0
   42.7862  -25.1034   28.2046 C   0  0  0  0  0  0  0  0  0  0  0  0
   42.3080  -24.2912   26.9884 C   0  0  0  0  0  0  0  0  0  0  0  0
   40.9823  -24.8170   26.4083 C   0  0  0  0  0  0  0  0  0  0  0  0
   40.7099  -26.2663   26.7986 C   0  0  0  0  0  0  0  0  0  0  0  0
   41.6413  -28.7268   28.1093 N   0  0  0  0  0  0  0  0  0  0  0  0
   40.6251  -27.9082   28.7619 C   0  0  0  0  0  0  0  0  0  0  0  0
   41.5823  -29.6837   28.4575 H   0  0  0  0  0  0  0  0  0  0  0  0
   42.5659  -28.3473   28.3130 H   0  0  0  0  0  0  0  0  0  0  0  0
   43.3452  -20.3749   28.6454 C   0  0  0  0  0  0  0  0  0  0  0  0
   44.6524  -20.8061   29.2765 C   0  0  0  0  0  0  0  0  0  0  0  0
   45.3452  -21.9300   28.8026 C   0  0  0  0  0  0  0  0  0  0  0  0
   46.5662  -22.2977   29.3731 C   0  0  0  0  0  0  0  0  0  0  0  0
   47.0995  -21.5434   30.4159 C   0  0  0  0  0  0  0  0  0  0  0  0
   48.6090  -21.9920   31.1092 Cl  0  0  0  0  0  0  0  0  0  0  0  0
   46.4201  -20.4265   30.8995 C   0  0  0  0  0  0  0  0  0  0  0  0
   45.1992  -20.0589   30.3312 C   0  0  0  0  0  0  0  0  0  0  0  0
 32 33  1  0
 26 33  1  0
 26 27  1  0
 27 28  1  0
 28 29  1  0
 29 22  1  0
 22 23  2  0
 22 24  1  0
 24  1  1  0
  1 36  1  0
 36 37  1  0
 37 38  2  0
 38 39  1  0
 39 40  2  0
 40 41  1  0
 40 42  1  0
 42 43  2  0
  1  2  1  0
  2  3  2  0
  3  4  1  0
  4  9  1  0
  9 10  1  0
 10 11  2  0
 11 12  1  0
 12 13  2  0
 13 14  1  0
 13 15  1  0
 15 16  1  0
 16 17  2  0
 17 18  1  0
  4  5  2  0
  5  6  1  0
  5  7  1  0
 29 30  1  0
 30 31  1  0
 31 26  1  0
 43 37  1  0
  7  2  1  0
 18  9  2  0
 17 12  1  0
 32 34  1  0
 32 35  1  0
 24 25  1  0
 14 19  1  0
 14 20  1  0
 15 21  1  0
  7  8  1  0
M  END
> <minimizedAffinity>
-9.25402

> <CNNscore>
0.3937447965

> <CNNaffinity>
7.0525417328

> <CNN_VS>
2.7769017220

> <CNNaffinity_variance>
0.6940496564

$$$$



 43 47  0  0  0  0  0  0  0  0999 V2000
   41.9770  -21.2732   29.2304 C   0  0  0  0  0  0  0  0  0  0  0  0
   40.7164  -20.5755   28.7877 C   0  0  0  0  0  0  0  0  0  0  0  0
   40.4319  -19.2919   28.9231 N   0  0  0  0  0  0  0  0  0  0  0  0
   39.1779  -19.1126   28.3695 C   0  0  0  0  0  0  0  0  0  0  0  0
   38.7110  -20.3151   27.9047 C   0  0  0  0  0  0  0  0  0  0  0  0
   37.3297  -20.8467   27.0833 Cl  0  0  0  0  0  0  0  0  0  0  0  0
   39.6692  -21.2375   28.1865 N   0  0  0  0  0  0  0  0  0  0  0  0
   39.6229  -22.2023   27.9957 H   0  0  0  0  0  0  0  0  0  0  0  0
   38.5339  -17.8122   28.2850 C   0  0  0  0  0  0  0  0  0  0  0  0
   39.2793  -16.7379   27.6805 C   0  0  0  0  0  0  0  0  0  0  0  0
   38.7987  -15.4206   27.5163 C   0  0  0  0  0  0  0  0  0  0  0  0
   37.5122  -15.2931   28.0280 C   0  0  0  0  0  0  0  0  0  0  0  0
   36.7485  -14.1552   28.0280 C   0  0  0  0  0  0  0  0  0  0  0  0
   36.9473  -12.8984   27.5745 N   0  0  0  0  0  0  0  0  0  0  0  0
   35.5897  -14.5270   28.6585 N   0  0  0  0  0  0  0  0  0  0  0  0
   35.5368  -15.8215   29.0327 N   0  0  0  0  0  0  0  0  0  0  0  0
   36.7247  -16.3276   28.6580 C   0  0  0  0  0  0  0  0  0  0  0  0
   37.2285  -17.6316   28.8041 C   0  0  0  0  0  0  0  0  0  0  0  0
   37.7919  -12.6648   27.1257 H   0  0  0  0  0  0  0  0  0  0  0  0
   36.2476  -12.2160   27.6927 H   0  0  0  0  0  0  0  0  0  0  0  0
   34.8520  -13.8968   28.8256 H   0  0  0  0  0  0  0  0  0  0  0  0
   41.9505  -23.7333   29.0146 C   0  0  0  0  0  0  0  0  0  0  0  0
   41.9009  -23.8947   30.2281 O   0  0  0  0  0  0  0  0  0  0  0  0
   42.0841  -22.4909   28.4263 N   0  0  0  0  0  0  0  0  0  0  0  0
   42.2527  -22.4241   27.4587 H   0  0  0  0  0  0  0  0  0  0  0  0
   39.5368  -25.2500   26.0939 C   0  0  0  0  0  0  0  0  0  0  0  0
   39.4031  -25.3561   27.6272 C   0  0  0  0  0  0  0  0  0  0  0  0
   40.6904  -25.8197   28.3044 C   0  0  0  0  0  0  0  0  0  0  0  0
   41.8758  -24.8848   28.0073 C   0  0  0  0  0  0  0  0  0  0  0  0
   41.8477  -24.3296   26.5715 C   0  0  0  0  0  0  0  0  0  0  0  0
   41.0039  -25.1857   25.6323 C   0  0  0  0  0  0  0  0  0  0  0  0
   37.3764  -26.5465   25.8375 N   0  0  0  0  0  0  0  0  0  0  0  0
   38.7337  -26.3354   25.3458 C   0  0  0  0  0  0  0  0  0  0  0  0
   36.9250  -27.2770   25.2869 H   0  0  0  0  0  0  0  0  0  0  0  0
   36.8454  -25.6797   25.7527 H   0  0  0  0  0  0  0  0  0  0  0  0
   43.2105  -20.3432   29.1107 C   0  0  0  0  0  0  0  0  0  0  0  0
   44.3719  -20.7900   29.9736 C   0  0  0  0  0  0  0  0  0  0  0  0
   45.6844  -20.3941   29.6768 C   0  0  0  0  0  0  0  0  0  0  0  0
   46.7425  -20.7871   30.4998 C   0  0  0  0  0  0  0  0  0  0  0  0
   46.4928  -21.5740   31.6220 C   0  0  0  0  0  0  0  0  0  0  0  0
   47.7965  -22.0473   32.6403 Cl  0  0  0  0  0  0  0  0  0  0  0  0
   45.1941  -21.9781   31.9269 C   0  0  0  0  0  0  0  0  0  0  0  0
   44.1362  -21.5872   31.1044 C   0  0  0  0  0  0  0  0  0  0  0  0
 32 33  1  0
 26 33  1  0
 26 27  1  0
 27 28  1  0
 28 29  1  0
 29 22  1  0
 22 23  2  0
 22 24  1  0
 24  1  1  0
  1 36  1  0
 36 37  1  0
 37 38  2  0
 38 39  1  0
 39 40  2  0
 40 41  1  0
 40 42  1  0
 42 43  2  0
  1  2  1  0
  2  3  2  0
  3  4  1  0
  4  9  1  0
  9 10  1  0
 10 11  2  0
 11 12  1  0
 12 13  2  0
 13 14  1  0
 13 15  1  0
 15 16  1  0
 16 17  2  0
 17 18  1  0
  4  5  2  0
  5  6  1  0
  5  7  1  0
 29 30  1  0
 30 31  1  0
 31 26  1  0
 43 37  1  0
  7  2  1  0
 18  9  2  0
 17 12  1  0
 32 34  1  0
 32 35  1  0
 24 25  1  0
 14 19  1  0
 14 20  1  0
 15 21  1  0
  7  8  1  0
M  END
> <minimizedAffinity>
-9.85939

> <CNNscore>
0.3829824030

> <CNNaffinity>
7.1993374825

> <CNN_VS>
2.7572195530

> <CNNaffinity_variance>
0.4943718910

$$$$



 43 47  0  0  0  0  0  0  0  0999 V2000
   42.2868  -20.4547   28.6583 C   0  0  0  0  0  0  0  0  0  0  0  0
   40.9015  -19.9052   28.4329 C   0  0  0  0  0  0  0  0  0  0  0  0
   40.5089  -18.6539   28.5975 N   0  0  0  0  0  0  0  0  0  0  0  0
   39.1664  -18.6228   28.2692 C   0  0  0  0  0  0  0  0  0  0  0  0
   38.7578  -19.8816   27.9105 C   0  0  0  0  0  0  0  0  0  0  0  0
   37.3205  -20.5790   27.3510 Cl  0  0  0  0  0  0  0  0  0  0  0  0
   39.8433  -20.6908   28.0337 N   0  0  0  0  0  0  0  0  0  0  0  0
   39.8683  -21.6609   27.8678 H   0  0  0  0  0  0  0  0  0  0  0  0
   38.3821  -17.3991   28.2799 C   0  0  0  0  0  0  0  0  0  0  0  0
   38.9814  -16.2190   27.7113 C   0  0  0  0  0  0  0  0  0  0  0  0
   38.3544  -14.9562   27.6379 C   0  0  0  0  0  0  0  0  0  0  0  0
   37.0833  -14.9985   28.1999 C   0  0  0  0  0  0  0  0  0  0  0  0
   36.2012  -13.9536   28.2899 C   0  0  0  0  0  0  0  0  0  0  0  0
   36.2438  -12.6607   27.9010 N   0  0  0  0  0  0  0  0  0  0  0  0
   35.1160  -14.4836   28.9382 N   0  0  0  0  0  0  0  0  0  0  0  0
   35.2192  -15.7936   29.2409 N   0  0  0  0  0  0  0  0  0  0  0  0
   36.4389  -16.1451   28.7976 C   0  0  0  0  0  0  0  0  0  0  0  0
   37.0869  -17.3912   28.8530 C   0  0  0  0  0  0  0  0  0  0  0  0
   37.0392  -12.3121   27.4373 H   0  0  0  0  0  0  0  0  0  0  0  0
   35.4795  -12.0670   28.0814 H   0  0  0  0  0  0  0  0  0  0  0  0
   34.3216  -13.9485   29.1657 H   0  0  0  0  0  0  0  0  0  0  0  0
   41.4820  -22.1541   30.2595 C   0  0  0  0  0  0  0  0  0  0  0  0
   41.1724  -21.3067   31.0885 O   0  0  0  0  0  0  0  0  0  0  0  0
   42.1206  -21.8477   29.0738 N   0  0  0  0  0  0  0  0  0  0  0  0
   42.4666  -22.5721   28.5039 H   0  0  0  0  0  0  0  0  0  0  0  0
   41.0532  -25.5888   28.0971 C   0  0  0  0  0  0  0  0  0  0  0  0
   40.0527  -24.4335   28.3079 C   0  0  0  0  0  0  0  0  0  0  0  0
   39.8770  -24.0613   29.7780 C   0  0  0  0  0  0  0  0  0  0  0  0
   41.2044  -23.6497   30.4387 C   0  0  0  0  0  0  0  0  0  0  0  0
   42.4009  -24.4739   29.9292 C   0  0  0  0  0  0  0  0  0  0  0  0
   41.9731  -25.8021   29.3129 C   0  0  0  0  0  0  0  0  0  0  0  0
   40.1112  -27.8595   28.7060 N   0  0  0  0  0  0  0  0  0  0  0  0
   40.3713  -26.8965   27.6413 C   0  0  0  0  0  0  0  0  0  0  0  0
   39.6617  -28.6869   28.3138 H   0  0  0  0  0  0  0  0  0  0  0  0
   39.4978  -27.4378   29.4035 H   0  0  0  0  0  0  0  0  0  0  0  0
   43.1740  -20.2871   27.3991 C   0  0  0  0  0  0  0  0  0  0  0  0
   42.4515  -20.6436   26.1169 C   0  0  0  0  0  0  0  0  0  0  0  0
   41.9385  -19.6442   25.2770 C   0  0  0  0  0  0  0  0  0  0  0  0
   41.3025  -19.9862   24.0812 C   0  0  0  0  0  0  0  0  0  0  0  0
   41.1791  -21.3260   23.7199 C   0  0  0  0  0  0  0  0  0  0  0  0
   40.4053  -21.7439   22.2410 Cl  0  0  0  0  0  0  0  0  0  0  0  0
   41.6807  -22.3299   24.5468 C   0  0  0  0  0  0  0  0  0  0  0  0
   42.3150  -21.9894   25.7426 C   0  0  0  0  0  0  0  0  0  0  0  0
 32 33  1  0
 26 33  1  0
 26 27  1  0
 27 28  1  0
 28 29  1  0
 29 22  1  0
 22 23  2  0
 22 24  1  0
 24  1  1  0
  1 36  1  0
 36 37  1  0
 37 38  2  0
 38 39  1  0
 39 40  2  0
 40 41  1  0
 40 42  1  0
 42 43  2  0
  1  2  1  0
  2  3  2  0
  3  4  1  0
  4  9  1  0
  9 10  1  0
 10 11  2  0
 11 12  1  0
 12 13  2  0
 13 14  1  0
 13 15  1  0
 15 16  1  0
 16 17  2  0
 17 18  1  0
  4  5  2  0
  5  6  1  0
  5  7  1  0
 29 30  1  0
 30 31  1  0
 31 26  1  0
 43 37  1  0
  7  2  1  0
 18  9  2  0
 17 12  1  0
 32 34  1  0
 32 35  1  0
 24 25  1  0
 14 19  1  0
 14 20  1  0
 15 21  1  0
  7  8  1  0
M  END
> <minimizedAffinity>
-9.28109

> <CNNscore>
0.3623144329

> <CNNaffinity>
7.0191059113

> <CNN_VS>
2.5431234837

> <CNNaffinity_variance>
0.8834620118

$$$$
