


 28 30  0  0  0  0  0  0  0  0999 V2000
    4.0087   50.0311   -1.8340 C   0  0  0  0  0  0  0  0  0  0  0  0
    3.0806   50.0499   -3.0448 C   0  0  0  0  0  0  0  0  0  0  0  0
    3.4818   48.9982   -4.0924 C   0  0  0  0  0  0  0  0  0  0  0  0
    4.6736   49.3944   -4.9208 C   0  0  0  0  0  0  0  0  0  0  0  0
    5.4452   48.3193   -5.4681 O   0  0  0  0  0  0  0  0  0  0  0  0
    4.6629   49.0771   -6.4029 C   0  0  0  0  0  0  0  0  0  0  0  0
    5.2266   50.0660   -7.3306 C   0  0  0  0  0  0  0  0  0  0  0  0
    4.7470   51.2821   -7.6515 C   0  0  0  0  0  0  0  0  0  0  0  0
    3.5805   51.9378   -7.0881 C   0  0  0  0  0  0  0  0  0  0  0  0
    2.4128   51.3286   -6.8468 C   0  0  0  0  0  0  0  0  0  0  0  0
    1.1851   51.8592   -6.1938 C   0  0  0  0  0  0  0  0  0  0  0  0
    0.2557   51.0579   -6.0479 O   0  0  0  0  0  0  0  0  0  0  0  0
    0.9986   53.3085   -5.7929 C   0  0  0  0  0  0  0  0  0  0  0  0
    2.1181   54.0393   -5.0764 C   0  0  0  0  0  0  0  0  0  0  0  0
    2.6061   55.2786   -5.5456 C   0  0  0  0  0  0  0  0  0  0  0  0
    2.0137   55.9984   -7.0115 Cl  0  0  0  0  0  0  0  0  0  0  0  0
    3.6111   55.9791   -4.8524 C   0  0  0  0  0  0  0  0  0  0  0  0
    4.0812   57.1777   -5.3309 O   0  0  0  0  0  0  0  0  0  0  0  0
    4.1442   55.4667   -3.6708 C   0  0  0  0  0  0  0  0  0  0  0  0
    5.5034   56.4020   -2.7255 Br  0  0  0  0  0  0  0  0  0  0  0  0
    3.6716   54.2508   -3.1783 C   0  0  0  0  0  0  0  0  0  0  0  0
    4.1727   53.7251   -2.0145 O   0  0  0  0  0  0  0  0  0  0  0  0
    2.6708   53.5473   -3.8711 C   0  0  0  0  0  0  0  0  0  0  0  0
    2.2276   52.2681   -3.2908 C   0  0  0  0  0  0  0  0  0  0  0  0
    1.2129   52.1145   -2.6412 O   0  0  0  0  0  0  0  0  0  0  0  0
    3.1550   51.3552   -3.6489 O   0  0  0  0  0  0  0  0  0  0  0  0
    3.7325   57.5347   -6.1239 H   0  0  0  0  0  0  0  0  0  0  0  0
    4.8400   54.1834   -1.5426 H   0  0  0  0  0  0  0  0  0  0  0  0
  2  1  1  0
  2  3  1  0
  4  3  1  0
  4  5  1  0
  6  5  1  0
  6  7  1  0
  7  8  2  0
  8  9  1  0
  9 10  2  0
 10 11  1  0
 11 12  2  0
 11 13  1  0
 13 14  1  0
 14 15  2  0
 15 16  1  0
 15 17  1  0
 17 18  1  0
 17 19  2  0
 19 20  1  0
 19 21  1  0
 21 22  1  0
 21 23  2  0
 23 24  1  0
 24 25  2  0
 24 26  1  0
 26  2  1  0
  6  4  1  0
 23 14  1  0
 18 27  1  0
 22 28  1  0
M  END
> <minimizedAffinity>
-8.49635

> <CNNscore>
0.7911117077

> <CNNaffinity>
5.9883213043

> <CNN_VS>
4.7374310493

> <CNNaffinity_variance>
0.0396462381

$$$$



 28 30  0  0  0  0  0  0  0  0999 V2000
   -5.9771   56.1330  -12.1649 C   0  0  0  0  0  0  0  0  0  0  0  0
   -5.6970   55.1335  -13.2829 C   0  0  0  0  0  0  0  0  0  0  0  0
   -6.8921   54.1981  -13.5300 C   0  0  0  0  0  0  0  0  0  0  0  0
   -7.0279   53.1069  -12.5031 C   0  0  0  0  0  0  0  0  0  0  0  0
   -8.3484   52.5894  -12.3054 O   0  0  0  0  0  0  0  0  0  0  0  0
   -7.4199   51.7189  -12.9689 C   0  0  0  0  0  0  0  0  0  0  0  0
   -6.7797   50.5630  -12.3285 C   0  0  0  0  0  0  0  0  0  0  0  0
   -5.4978   50.1614  -12.4143 C   0  0  0  0  0  0  0  0  0  0  0  0
   -4.4167   50.8330  -13.1130 C   0  0  0  0  0  0  0  0  0  0  0  0
   -4.5276   51.3820  -14.3292 C   0  0  0  0  0  0  0  0  0  0  0  0
   -3.5332   52.1710  -15.1063 C   0  0  0  0  0  0  0  0  0  0  0  0
   -3.9174   52.6106  -16.1954 O   0  0  0  0  0  0  0  0  0  0  0  0
   -2.0951   52.3785  -14.6764 C   0  0  0  0  0  0  0  0  0  0  0  0
   -1.7875   52.7496  -13.2382 C   0  0  0  0  0  0  0  0  0  0  0  0
   -0.8556   52.0154  -12.4722 C   0  0  0  0  0  0  0  0  0  0  0  0
   -0.0700   50.5991  -13.1005 Cl  0  0  0  0  0  0  0  0  0  0  0  0
   -0.5349   52.3904  -11.1540 C   0  0  0  0  0  0  0  0  0  0  0  0
    0.3653   51.6567  -10.4206 O   0  0  0  0  0  0  0  0  0  0  0  0
   -1.1263   53.5112  -10.5734 C   0  0  0  0  0  0  0  0  0  0  0  0
   -0.7032   54.0277   -8.7930 Br  0  0  0  0  0  0  0  0  0  0  0  0
   -2.0406   54.2616  -11.3119 C   0  0  0  0  0  0  0  0  0  0  0  0
   -2.6336   55.3732  -10.7691 O   0  0  0  0  0  0  0  0  0  0  0  0
   -2.3656   53.8866  -12.6273 C   0  0  0  0  0  0  0  0  0  0  0  0
   -3.3434   54.7260  -13.3406 C   0  0  0  0  0  0  0  0  0  0  0  0
   -3.0618   55.5734  -14.1638 O   0  0  0  0  0  0  0  0  0  0  0  0
   -4.5590   54.3378  -12.9008 O   0  0  0  0  0  0  0  0  0  0  0  0
    0.7710   50.9007  -10.7974 H   0  0  0  0  0  0  0  0  0  0  0  0
   -2.4261   55.6345   -9.8935 H   0  0  0  0  0  0  0  0  0  0  0  0
  2  1  1  0
  2  3  1  0
  4  3  1  0
  4  5  1  0
  6  5  1  0
  6  7  1  0
  7  8  2  0
  8  9  1  0
  9 10  2  0
 10 11  1  0
 11 12  2  0
 11 13  1  0
 13 14  1  0
 14 15  2  0
 15 16  1  0
 15 17  1  0
 17 18  1  0
 17 19  2  0
 19 20  1  0
 19 21  1  0
 21 22  1  0
 21 23  2  0
 23 24  1  0
 24 25  2  0
 24 26  1  0
 26  2  1  0
  6  4  1  0
 23 14  1  0
 18 27  1  0
 22 28  1  0
M  END
> <minimizedAffinity>
-5.12376

> <CNNscore>
0.5701912045

> <CNNaffinity>
5.2228436470

> <CNN_VS>
2.9780194759

> <CNNaffinity_variance>
0.0725362077

$$$$



 28 30  0  0  0  0  0  0  0  0999 V2000
   -1.3571   49.9777   -8.0569 C   0  0  0  0  0  0  0  0  0  0  0  0
   -0.7155   48.5994   -8.1850 C   0  0  0  0  0  0  0  0  0  0  0  0
   -1.4205   47.5536   -7.3055 C   0  0  0  0  0  0  0  0  0  0  0  0
   -1.0656   47.6526   -5.8467 C   0  0  0  0  0  0  0  0  0  0  0  0
   -2.0469   47.1636   -4.9255 O   0  0  0  0  0  0  0  0  0  0  0  0
   -0.8579   46.3717   -5.0635 C   0  0  0  0  0  0  0  0  0  0  0  0
    0.2200   46.3320   -4.0672 C   0  0  0  0  0  0  0  0  0  0  0  0
    1.5504   46.3489   -4.2713 C   0  0  0  0  0  0  0  0  0  0  0  0
    2.2375   46.4875   -5.5427 C   0  0  0  0  0  0  0  0  0  0  0  0
    1.8786   45.8590   -6.6692 C   0  0  0  0  0  0  0  0  0  0  0  0
    2.4361   45.9860   -8.0433 C   0  0  0  0  0  0  0  0  0  0  0  0
    1.8771   45.3207   -8.9220 O   0  0  0  0  0  0  0  0  0  0  0  0
    3.6688   46.7985   -8.3848 C   0  0  0  0  0  0  0  0  0  0  0  0
    3.8305   48.1938   -7.8127 C   0  0  0  0  0  0  0  0  0  0  0  0
    5.0018   48.5744   -7.1217 C   0  0  0  0  0  0  0  0  0  0  0  0
    6.2883   47.4483   -6.8143 Cl  0  0  0  0  0  0  0  0  0  0  0  0
    5.1708   49.8839   -6.6341 C   0  0  0  0  0  0  0  0  0  0  0  0
    6.3123   50.2320   -5.9540 O   0  0  0  0  0  0  0  0  0  0  0  0
    4.1824   50.8463   -6.8335 C   0  0  0  0  0  0  0  0  0  0  0  0
    4.3974   52.6185   -6.1785 Br  0  0  0  0  0  0  0  0  0  0  0  0
    3.0210   50.5008   -7.5236 C   0  0  0  0  0  0  0  0  0  0  0  0
    2.0341   51.4285   -7.7407 O   0  0  0  0  0  0  0  0  0  0  0  0
    2.8482   49.1924   -8.0080 C   0  0  0  0  0  0  0  0  0  0  0  0
    1.5928   48.9032   -8.7220 C   0  0  0  0  0  0  0  0  0  0  0  0
    1.4768   48.8509   -9.9299 O   0  0  0  0  0  0  0  0  0  0  0  0
    0.6592   48.7022   -7.7681 O   0  0  0  0  0  0  0  0  0  0  0  0
    6.9855   49.5959   -5.8122 H   0  0  0  0  0  0  0  0  0  0  0  0
    2.1362   52.3042   -7.4233 H   0  0  0  0  0  0  0  0  0  0  0  0
  2  1  1  0
  2  3  1  0
  4  3  1  0
  4  5  1  0
  6  5  1  0
  6  7  1  0
  7  8  2  0
  8  9  1  0
  9 10  2  0
 10 11  1  0
 11 12  2  0
 11 13  1  0
 13 14  1  0
 14 15  2  0
 15 16  1  0
 15 17  1  0
 17 18  1  0
 17 19  2  0
 19 20  1  0
 19 21  1  0
 21 22  1  0
 21 23  2  0
 23 24  1  0
 24 25  2  0
 24 26  1  0
 26  2  1  0
  6  4  1  0
 23 14  1  0
 18 27  1  0
 22 28  1  0
M  END
> <minimizedAffinity>
-4.88744

> <CNNscore>
0.3327826858

> <CNNaffinity>
4.4179368019

> <CNN_VS>
1.4702128172

> <CNNaffinity_variance>
0.3965299428

$$$$



 28 30  0  0  0  0  0  0  0  0999 V2000
   -3.2569   49.2796   -8.6591 C   0  0  0  0  0  0  0  0  0  0  0  0
   -2.6536   47.9800   -8.1349 C   0  0  0  0  0  0  0  0  0  0  0  0
   -3.6852   47.1361   -7.3682 C   0  0  0  0  0  0  0  0  0  0  0  0
   -3.9655   47.6400   -5.9785 C   0  0  0  0  0  0  0  0  0  0  0  0
   -5.2522   47.3168   -5.4394 O   0  0  0  0  0  0  0  0  0  0  0  0
   -4.1327   46.6290   -4.8617 C   0  0  0  0  0  0  0  0  0  0  0  0
   -3.5669   46.9470   -3.5445 C   0  0  0  0  0  0  0  0  0  0  0  0
   -2.2718   47.0331   -3.1878 C   0  0  0  0  0  0  0  0  0  0  0  0
   -1.1158   46.9018   -4.0563 C   0  0  0  0  0  0  0  0  0  0  0  0
   -0.9899   45.9739   -5.0134 C   0  0  0  0  0  0  0  0  0  0  0  0
    0.0907   45.7931   -6.0208 C   0  0  0  0  0  0  0  0  0  0  0  0
   -0.0692   44.8753   -6.8327 O   0  0  0  0  0  0  0  0  0  0  0  0
    1.3731   46.6000   -6.0405 C   0  0  0  0  0  0  0  0  0  0  0  0
    1.3164   48.1044   -5.8562 C   0  0  0  0  0  0  0  0  0  0  0  0
    2.1041   48.7565   -4.8823 C   0  0  0  0  0  0  0  0  0  0  0  0
    3.1193   47.8710   -3.7853 Cl  0  0  0  0  0  0  0  0  0  0  0  0
    2.0872   50.1572   -4.7453 C   0  0  0  0  0  0  0  0  0  0  0  0
    2.8515   50.7724   -3.7841 O   0  0  0  0  0  0  0  0  0  0  0  0
    1.2943   50.9405   -5.5826 C   0  0  0  0  0  0  0  0  0  0  0  0
    1.2608   52.8336   -5.4071 Br  0  0  0  0  0  0  0  0  0  0  0  0
    0.5162   50.3233   -6.5613 C   0  0  0  0  0  0  0  0  0  0  0  0
   -0.2689   51.0687   -7.4038 O   0  0  0  0  0  0  0  0  0  0  0  0
    0.5283   48.9241   -6.6973 C   0  0  0  0  0  0  0  0  0  0  0  0
   -0.3241   48.3462   -7.7504 C   0  0  0  0  0  0  0  0  0  0  0  0
    0.0705   47.9739   -8.8370 O   0  0  0  0  0  0  0  0  0  0  0  0
   -1.5739   48.3130   -7.2418 O   0  0  0  0  0  0  0  0  0  0  0  0
    3.3895   50.2592   -3.2139 H   0  0  0  0  0  0  0  0  0  0  0  0
   -0.2866   52.0022   -7.3243 H   0  0  0  0  0  0  0  0  0  0  0  0
  2  1  1  0
  2  3  1  0
  4  3  1  0
  4  5  1  0
  6  5  1  0
  6  7  1  0
  7  8  2  0
  8  9  1  0
  9 10  2  0
 10 11  1  0
 11 12  2  0
 11 13  1  0
 13 14  1  0
 14 15  2  0
 15 16  1  0
 15 17  1  0
 17 18  1  0
 17 19  2  0
 19 20  1  0
 19 21  1  0
 21 22  1  0
 21 23  2  0
 23 24  1  0
 24 25  2  0
 24 26  1  0
 26  2  1  0
  6  4  1  0
 23 14  1  0
 18 27  1  0
 22 28  1  0
M  END
> <minimizedAffinity>
-4.98080

> <CNNscore>
0.3317841291

> <CNNaffinity>
4.5938262939

> <CNN_VS>
1.5241585970

> <CNNaffinity_variance>
0.1828652620

$$$$



 28 30  0  0  0  0  0  0  0  0999 V2000
   -0.4645   49.0731   -6.8508 C   0  0  0  0  0  0  0  0  0  0  0  0
    0.6873   48.1185   -7.1509 C   0  0  0  0  0  0  0  0  0  0  0  0
    0.2087   46.6627   -7.2770 C   0  0  0  0  0  0  0  0  0  0  0  0
   -0.0760   46.0035   -5.9548 C   0  0  0  0  0  0  0  0  0  0  0  0
   -1.0303   44.9360   -5.9763 O   0  0  0  0  0  0  0  0  0  0  0  0
    0.3378   44.5581   -5.7624 C   0  0  0  0  0  0  0  0  0  0  0  0
    0.8827   44.1577   -4.4590 C   0  0  0  0  0  0  0  0  0  0  0  0
    2.0579   44.5028   -3.9006 C   0  0  0  0  0  0  0  0  0  0  0  0
    3.0419   45.4262   -4.4363 C   0  0  0  0  0  0  0  0  0  0  0  0
    3.4198   45.4685   -5.7201 C   0  0  0  0  0  0  0  0  0  0  0  0
    4.3388   46.4173   -6.4060 C   0  0  0  0  0  0  0  0  0  0  0  0
    4.4739   46.2606   -7.6244 O   0  0  0  0  0  0  0  0  0  0  0  0
    5.1540   47.4741   -5.6886 C   0  0  0  0  0  0  0  0  0  0  0  0
    4.4993   48.3319   -4.6227 C   0  0  0  0  0  0  0  0  0  0  0  0
    5.0608   48.4590   -3.3332 C   0  0  0  0  0  0  0  0  0  0  0  0
    6.4837   47.5791   -2.8652 Cl  0  0  0  0  0  0  0  0  0  0  0  0
    4.4790   49.2939   -2.3608 C   0  0  0  0  0  0  0  0  0  0  0  0
    5.0332   49.3952   -1.1081 O   0  0  0  0  0  0  0  0  0  0  0  0
    3.3320   50.0295   -2.6544 C   0  0  0  0  0  0  0  0  0  0  0  0
    2.5350   51.1597   -1.3494 Br  0  0  0  0  0  0  0  0  0  0  0  0
    2.7639   49.9324   -3.9242 C   0  0  0  0  0  0  0  0  0  0  0  0
    1.6390   50.6493   -4.2439 O   0  0  0  0  0  0  0  0  0  0  0  0
    3.3409   49.0960   -4.8958 C   0  0  0  0  0  0  0  0  0  0  0  0
    2.6801   49.0427   -6.2111 C   0  0  0  0  0  0  0  0  0  0  0  0
    3.0515   49.6422   -7.1998 O   0  0  0  0  0  0  0  0  0  0  0  0
    1.6342   48.2013   -6.0690 O   0  0  0  0  0  0  0  0  0  0  0  0
    5.8042   48.9069   -0.8960 H   0  0  0  0  0  0  0  0  0  0  0  0
    1.2441   51.2107   -3.6060 H   0  0  0  0  0  0  0  0  0  0  0  0
  2  1  1  0
  2  3  1  0
  4  3  1  0
  4  5  1  0
  6  5  1  0
  6  7  1  0
  7  8  2  0
  8  9  1  0
  9 10  2  0
 10 11  1  0
 11 12  2  0
 11 13  1  0
 13 14  1  0
 14 15  2  0
 15 16  1  0
 15 17  1  0
 17 18  1  0
 17 19  2  0
 19 20  1  0
 19 21  1  0
 21 22  1  0
 21 23  2  0
 23 24  1  0
 24 25  2  0
 24 26  1  0
 26  2  1  0
  6  4  1  0
 23 14  1  0
 18 27  1  0
 22 28  1  0
M  END
> <minimizedAffinity>
-5.89221

> <CNNscore>
0.2906673253

> <CNNaffinity>
4.5814399719

> <CNN_VS>
1.3316749334

> <CNNaffinity_variance>
0.1586719006

$$$$



 28 30  0  0  0  0  0  0  0  0999 V2000
    8.0254   47.3362   -4.1677 C   0  0  0  0  0  0  0  0  0  0  0  0
    8.3325   46.7959   -5.5610 C   0  0  0  0  0  0  0  0  0  0  0  0
    7.2725   45.7867   -6.0323 C   0  0  0  0  0  0  0  0  0  0  0  0
    7.4124   44.4261   -5.4054 C   0  0  0  0  0  0  0  0  0  0  0  0
    6.2134   43.6483   -5.3152 O   0  0  0  0  0  0  0  0  0  0  0  0
    7.1866   43.2030   -6.2716 C   0  0  0  0  0  0  0  0  0  0  0  0
    8.0579   42.0381   -6.0718 C   0  0  0  0  0  0  0  0  0  0  0  0
    9.3692   41.9154   -6.3499 C   0  0  0  0  0  0  0  0  0  0  0  0
   10.2565   42.9494   -6.8514 C   0  0  0  0  0  0  0  0  0  0  0  0
    9.9357   43.8178   -7.8188 C   0  0  0  0  0  0  0  0  0  0  0  0
   10.7117   44.9705   -8.3521 C   0  0  0  0  0  0  0  0  0  0  0  0
   10.1522   45.6493   -9.2200 O   0  0  0  0  0  0  0  0  0  0  0  0
   12.1396   45.2858   -7.9550 C   0  0  0  0  0  0  0  0  0  0  0  0
   12.5388   45.2437   -6.4923 C   0  0  0  0  0  0  0  0  0  0  0  0
   13.6466   44.4858   -6.0535 C   0  0  0  0  0  0  0  0  0  0  0  0
   14.5653   43.4941   -7.1446 Cl  0  0  0  0  0  0  0  0  0  0  0  0
   14.0453   44.4866   -4.7037 C   0  0  0  0  0  0  0  0  0  0  0  0
   15.1185   43.7335   -4.2939 O   0  0  0  0  0  0  0  0  0  0  0  0
   13.3569   45.2510   -3.7630 C   0  0  0  0  0  0  0  0  0  0  0  0
   13.8841   45.2597   -1.9360 Br  0  0  0  0  0  0  0  0  0  0  0  0
   12.2669   46.0187   -4.1714 C   0  0  0  0  0  0  0  0  0  0  0  0
   11.5743   46.7858   -3.2694 O   0  0  0  0  0  0  0  0  0  0  0  0
   11.8642   46.0162   -5.5184 C   0  0  0  0  0  0  0  0  0  0  0  0
   10.7010   46.8482   -5.8710 C   0  0  0  0  0  0  0  0  0  0  0  0
   10.7628   47.9438   -6.3915 O   0  0  0  0  0  0  0  0  0  0  0  0
    9.6114   46.1351   -5.5159 O   0  0  0  0  0  0  0  0  0  0  0  0
   15.5910   43.2146   -4.9147 H   0  0  0  0  0  0  0  0  0  0  0  0
   11.8319   46.7968   -2.3685 H   0  0  0  0  0  0  0  0  0  0  0  0
  2  1  1  0
  2  3  1  0
  4  3  1  0
  4  5  1  0
  6  5  1  0
  6  7  1  0
  7  8  2  0
  8  9  1  0
  9 10  2  0
 10 11  1  0
 11 12  2  0
 11 13  1  0
 13 14  1  0
 14 15  2  0
 15 16  1  0
 15 17  1  0
 17 18  1  0
 17 19  2  0
 19 20  1  0
 19 21  1  0
 21 22  1  0
 21 23  2  0
 23 24  1  0
 24 25  2  0
 24 26  1  0
 26  2  1  0
  6  4  1  0
 23 14  1  0
 18 27  1  0
 22 28  1  0
M  END
> <minimizedAffinity>
-5.05592

> <CNNscore>
0.2824351788

> <CNNaffinity>
4.6763224602

> <CNN_VS>
1.3207579851

> <CNNaffinity_variance>
0.0417721383

$$$$



 28 30  0  0  0  0  0  0  0  0999 V2000
   -1.5943   53.7021   -8.5194 C   0  0  0  0  0  0  0  0  0  0  0  0
   -1.1003   52.3949   -9.1315 C   0  0  0  0  0  0  0  0  0  0  0  0
   -2.2580   51.5416   -9.6755 C   0  0  0  0  0  0  0  0  0  0  0  0
   -3.0323   50.8210   -8.6055 C   0  0  0  0  0  0  0  0  0  0  0  0
   -4.3946   50.5082   -8.9169 O   0  0  0  0  0  0  0  0  0  0  0  0
   -3.4846   49.3992   -8.8723 C   0  0  0  0  0  0  0  0  0  0  0  0
   -3.4261   48.4316   -7.7694 C   0  0  0  0  0  0  0  0  0  0  0  0
   -2.3399   47.9072   -7.1718 C   0  0  0  0  0  0  0  0  0  0  0  0
   -0.9515   48.2399   -7.4358 C   0  0  0  0  0  0  0  0  0  0  0  0
   -0.4337   48.4114   -8.6586 C   0  0  0  0  0  0  0  0  0  0  0  0
    0.9350   48.8404   -9.0559 C   0  0  0  0  0  0  0  0  0  0  0  0
    1.1349   48.9706  -10.2684 O   0  0  0  0  0  0  0  0  0  0  0  0
    2.0780   49.0336   -8.0800 C   0  0  0  0  0  0  0  0  0  0  0  0
    1.8398   49.7845   -6.7839 C   0  0  0  0  0  0  0  0  0  0  0  0
    2.1952   49.2284   -5.5355 C   0  0  0  0  0  0  0  0  0  0  0  0
    2.8478   47.6239   -5.4022 Cl  0  0  0  0  0  0  0  0  0  0  0  0
    2.0187   49.9463   -4.3377 C   0  0  0  0  0  0  0  0  0  0  0  0
    2.3596   49.3838   -3.1319 O   0  0  0  0  0  0  0  0  0  0  0  0
    1.4950   51.2379   -4.3576 C   0  0  0  0  0  0  0  0  0  0  0  0
    1.2497   52.2180   -2.7466 Br  0  0  0  0  0  0  0  0  0  0  0  0
    1.1472   51.8160   -5.5779 C   0  0  0  0  0  0  0  0  0  0  0  0
    0.6357   53.0878   -5.6290 O   0  0  0  0  0  0  0  0  0  0  0  0
    1.3188   51.0993   -6.7752 C   0  0  0  0  0  0  0  0  0  0  0  0
    0.9234   51.7753   -8.0227 C   0  0  0  0  0  0  0  0  0  0  0  0
    1.6915   52.3112   -8.7959 O   0  0  0  0  0  0  0  0  0  0  0  0
   -0.4177   51.6476   -8.1069 O   0  0  0  0  0  0  0  0  0  0  0  0
    2.7127   48.5164   -3.1026 H   0  0  0  0  0  0  0  0  0  0  0  0
    0.5161   53.5768   -4.8387 H   0  0  0  0  0  0  0  0  0  0  0  0
  2  1  1  0
  2  3  1  0
  4  3  1  0
  4  5  1  0
  6  5  1  0
  6  7  1  0
  7  8  2  0
  8  9  1  0
  9 10  2  0
 10 11  1  0
 11 12  2  0
 11 13  1  0
 13 14  1  0
 14 15  2  0
 15 16  1  0
 15 17  1  0
 17 18  1  0
 17 19  2  0
 19 20  1  0
 19 21  1  0
 21 22  1  0
 21 23  2  0
 23 24  1  0
 24 25  2  0
 24 26  1  0
 26  2  1  0
  6  4  1  0
 23 14  1  0
 18 27  1  0
 22 28  1  0
M  END
> <minimizedAffinity>
-5.56962

> <CNNscore>
0.2788815200

> <CNNaffinity>
4.7851786613

> <CNN_VS>
1.3344979286

> <CNNaffinity_variance>
0.1469114274

$$$$



 28 30  0  0  0  0  0  0  0  0999 V2000
    3.0832   47.9325   -7.7697 C   0  0  0  0  0  0  0  0  0  0  0  0
    3.6636   49.0442   -6.9009 C   0  0  0  0  0  0  0  0  0  0  0  0
    3.6430   48.6767   -5.4080 C   0  0  0  0  0  0  0  0  0  0  0  0
    2.2848   48.8036   -4.7731 C   0  0  0  0  0  0  0  0  0  0  0  0
    2.0430   47.9723   -3.6324 O   0  0  0  0  0  0  0  0  0  0  0  0
    2.1908   49.3762   -3.3728 C   0  0  0  0  0  0  0  0  0  0  0  0
    1.0712   50.2739   -3.0616 C   0  0  0  0  0  0  0  0  0  0  0  0
    0.8444   51.5196   -3.5184 C   0  0  0  0  0  0  0  0  0  0  0  0
    1.6300   52.2470   -4.4991 C   0  0  0  0  0  0  0  0  0  0  0  0
    2.9684   52.2727   -4.5281 C   0  0  0  0  0  0  0  0  0  0  0  0
    3.8822   52.8963   -5.5238 C   0  0  0  0  0  0  0  0  0  0  0  0
    5.0914   52.7227   -5.3374 O   0  0  0  0  0  0  0  0  0  0  0  0
    3.4158   53.7759   -6.6661 C   0  0  0  0  0  0  0  0  0  0  0  0
    2.2257   53.3497   -7.5042 C   0  0  0  0  0  0  0  0  0  0  0  0
    1.1300   54.2143   -7.7193 C   0  0  0  0  0  0  0  0  0  0  0  0
    1.0411   55.7803   -6.9726 Cl  0  0  0  0  0  0  0  0  0  0  0  0
    0.0488   53.8358   -8.5373 C   0  0  0  0  0  0  0  0  0  0  0  0
   -1.0135   54.6860   -8.7250 O   0  0  0  0  0  0  0  0  0  0  0  0
    0.0401   52.5929   -9.1683 C   0  0  0  0  0  0  0  0  0  0  0  0
   -1.4150   52.0686  -10.2745 Br  0  0  0  0  0  0  0  0  0  0  0  0
    1.1153   51.7246   -8.9832 C   0  0  0  0  0  0  0  0  0  0  0  0
    1.1374   50.4978   -9.5965 O   0  0  0  0  0  0  0  0  0  0  0  0
    2.1944   52.0988   -8.1633 C   0  0  0  0  0  0  0  0  0  0  0  0
    3.2898   51.1257   -8.0129 C   0  0  0  0  0  0  0  0  0  0  0  0
    4.3483   51.1740   -8.6065 O   0  0  0  0  0  0  0  0  0  0  0  0
    2.8688   50.2293   -7.0958 O   0  0  0  0  0  0  0  0  0  0  0  0
   -1.0219   55.5247   -8.3074 H   0  0  0  0  0  0  0  0  0  0  0  0
    0.4248   50.2356  -10.1456 H   0  0  0  0  0  0  0  0  0  0  0  0
  2  1  1  0
  2  3  1  0
  4  3  1  0
  4  5  1  0
  6  5  1  0
  6  7  1  0
  7  8  2  0
  8  9  1  0
  9 10  2  0
 10 11  1  0
 11 12  2  0
 11 13  1  0
 13 14  1  0
 14 15  2  0
 15 16  1  0
 15 17  1  0
 17 18  1  0
 17 19  2  0
 19 20  1  0
 19 21  1  0
 21 22  1  0
 21 23  2  0
 23 24  1  0
 24 25  2  0
 24 26  1  0
 26  2  1  0
  6  4  1  0
 23 14  1  0
 18 27  1  0
 22 28  1  0
M  END
> <minimizedAffinity>
-6.78888

> <CNNscore>
0.2403590977

> <CNNaffinity>
4.6378636360

> <CNN_VS>
1.1147527695

> <CNNaffinity_variance>
0.5922422409

$$$$



 28 30  0  0  0  0  0  0  0  0999 V2000
    3.2012   48.1155   -8.9947 C   0  0  0  0  0  0  0  0  0  0  0  0
    2.3980   48.9687   -8.0177 C   0  0  0  0  0  0  0  0  0  0  0  0
    2.2599   50.4213   -8.5027 C   0  0  0  0  0  0  0  0  0  0  0  0
    3.5015   51.2466   -8.3006 C   0  0  0  0  0  0  0  0  0  0  0  0
    3.6764   52.3504   -9.1960 O   0  0  0  0  0  0  0  0  0  0  0  0
    3.3494   52.6821   -7.8383 C   0  0  0  0  0  0  0  0  0  0  0  0
    4.3179   53.2071   -6.8675 C   0  0  0  0  0  0  0  0  0  0  0  0
    4.4713   52.8725   -5.5727 C   0  0  0  0  0  0  0  0  0  0  0  0
    3.7502   51.8439   -4.8448 C   0  0  0  0  0  0  0  0  0  0  0  0
    2.4321   51.6302   -4.9433 C   0  0  0  0  0  0  0  0  0  0  0  0
    1.5975   50.5617   -4.3293 C   0  0  0  0  0  0  0  0  0  0  0  0
    0.3991   50.5653   -4.6310 O   0  0  0  0  0  0  0  0  0  0  0  0
    2.1158   49.5584   -3.3190 C   0  0  0  0  0  0  0  0  0  0  0  0
    3.4442   48.8674   -3.5607 C   0  0  0  0  0  0  0  0  0  0  0  0
    4.4620   48.8669   -2.5819 C   0  0  0  0  0  0  0  0  0  0  0  0
    4.2871   49.7239   -1.0809 Cl  0  0  0  0  0  0  0  0  0  0  0  0
    5.6753   48.1838   -2.7882 C   0  0  0  0  0  0  0  0  0  0  0  0
    6.6582   48.2047   -1.8290 O   0  0  0  0  0  0  0  0  0  0  0  0
    5.8974   47.4768   -3.9688 C   0  0  0  0  0  0  0  0  0  0  0  0
    7.5326   46.5512   -4.2609 Br  0  0  0  0  0  0  0  0  0  0  0  0
    4.9040   47.4503   -4.9470 C   0  0  0  0  0  0  0  0  0  0  0  0
    5.0917   46.7576   -6.1161 O   0  0  0  0  0  0  0  0  0  0  0  0
    3.6930   48.1352   -4.7449 C   0  0  0  0  0  0  0  0  0  0  0  0
    2.6953   48.0645   -5.8261 C   0  0  0  0  0  0  0  0  0  0  0  0
    1.7252   47.3337   -5.8295 O   0  0  0  0  0  0  0  0  0  0  0  0
    3.0831   48.9681   -6.7509 O   0  0  0  0  0  0  0  0  0  0  0  0
    6.5235   48.6757   -1.0303 H   0  0  0  0  0  0  0  0  0  0  0  0
    5.8940   46.2966   -6.2639 H   0  0  0  0  0  0  0  0  0  0  0  0
  2  1  1  0
  2  3  1  0
  4  3  1  0
  4  5  1  0
  6  5  1  0
  6  7  1  0
  7  8  2  0
  8  9  1  0
  9 10  2  0
 10 11  1  0
 11 12  2  0
 11 13  1  0
 13 14  1  0
 14 15  2  0
 15 16  1  0
 15 17  1  0
 17 18  1  0
 17 19  2  0
 19 20  1  0
 19 21  1  0
 21 22  1  0
 21 23  2  0
 23 24  1  0
 24 25  2  0
 24 26  1  0
 26  2  1  0
  6  4  1  0
 23 14  1  0
 18 27  1  0
 22 28  1  0
M  END
> <minimizedAffinity>
-7.07211

> <CNNscore>
0.2256731540

> <CNNaffinity>
4.3645553589

> <CNN_VS>
0.9849629998

> <CNNaffinity_variance>
0.6240116954

$$$$
