


 28 29  0  0  0  0  0  0  0  0999 V2000
   15.3666   20.7899   47.8734 C   0  0  0  0  0  0  0  0  0  0  0  0
   15.0447   22.1004   48.2364 C   0  0  0  0  0  0  0  0  0  0  0  0
   16.0480   23.0615   48.4829 C   0  0  0  0  0  0  0  0  0  0  0  0
   17.4088   22.6787   48.3789 C   0  0  0  0  0  0  0  0  0  0  0  0
   17.7130   21.3389   48.0280 C   0  0  0  0  0  0  0  0  0  0  0  0
   19.0140   20.8953   47.9396 O   0  0  0  0  0  0  0  0  0  0  0  0
   16.7050   20.3801   47.7788 C   0  0  0  0  0  0  0  0  0  0  0  0
   19.7227   21.4881   48.0951 H   0  0  0  0  0  0  0  0  0  0  0  0
   18.4999   23.6714   48.6707 C   0  0  0  0  0  0  0  0  0  0  0  0
   18.7528   24.7004   48.0751 O   0  0  0  0  0  0  0  0  0  0  0  0
   19.2747   23.3176   49.7208 O   0  0  0  0  0  0  0  0  0  0  0  0
   19.0941   22.5277   50.1912 H   0  0  0  0  0  0  0  0  0  0  0  0
   13.6758   19.5721   48.9048 C   0  0  0  0  0  0  0  0  0  0  0  0
   14.3719   19.8590   47.6922 O   0  0  0  0  0  0  0  0  0  0  0  0
   15.5816   24.4487   48.8769 C   0  0  0  0  0  0  0  0  0  0  0  0
   14.7285   24.4262   50.1514 C   0  0  0  0  0  0  0  0  0  0  0  0
   15.4256   25.1059   51.3065 C   0  0  0  0  0  0  0  0  0  0  0  0
   14.6875   25.7022   52.3367 C   0  0  0  0  0  0  0  0  0  0  0  0
   15.3391   26.3329   53.4003 C   0  0  0  0  0  0  0  0  0  0  0  0
   16.7293   26.3749   53.4340 C   0  0  0  0  0  0  0  0  0  0  0  0
   17.5280   27.1520   54.7472 Cl  0  0  0  0  0  0  0  0  0  0  0  0
   17.4761   25.7923   52.4126 C   0  0  0  0  0  0  0  0  0  0  0  0
   16.8260   25.1603   51.3491 C   0  0  0  0  0  0  0  0  0  0  0  0
   17.0497   18.9553   47.3900 C   0  0  0  0  0  0  0  0  0  0  0  0
   17.5482   18.8396   45.9665 C   0  0  0  0  0  0  0  0  0  0  0  0
   16.9979   18.1666   44.9350 C   0  0  0  0  0  0  0  0  0  0  0  0
   15.7290   17.3472   45.0134 C   0  0  0  0  0  0  0  0  0  0  0  0
   17.6496   18.1714   43.5806 C   0  0  0  0  0  0  0  0  0  0  0  0
 13 14  1  0
 14  1  1  0
  1  2  2  0
  2  3  1  0
  3 15  1  0
 15 16  1  0
 16 17  1  0
 17 18  2  0
 18 19  1  0
 19 20  2  0
 20 21  1  0
 20 22  1  0
 22 23  2  0
  3  4  2  0
  4  9  1  0
  9 10  2  0
  9 11  1  0
  4  5  1  0
  5  6  1  0
  5  7  2  0
  7 24  1  0
 24 25  1  0
 25 26  2  0
 26 27  1  0
 26 28  1  0
  7  1  1  0
 23 17  1  0
 11 12  1  0
  6  8  1  0
M  END
> <minimizedAffinity>
-8.27591

> <CNNscore>
0.9211012721

> <CNNaffinity>
6.8294754028

> <CNN_VS>
6.2906384468

> <CNNaffinity_variance>
0.0475015379

$$$$



 28 29  0  0  0  0  0  0  0  0999 V2000
   15.8868   20.3497   47.6791 C   0  0  0  0  0  0  0  0  0  0  0  0
   15.7398   21.6723   48.1055 C   0  0  0  0  0  0  0  0  0  0  0  0
   16.8607   22.4821   48.3863 C   0  0  0  0  0  0  0  0  0  0  0  0
   18.1596   21.9310   48.2513 C   0  0  0  0  0  0  0  0  0  0  0  0
   18.2853   20.5811   47.8358 C   0  0  0  0  0  0  0  0  0  0  0  0
   19.5170   19.9767   47.7142 O   0  0  0  0  0  0  0  0  0  0  0  0
   17.1600   19.7742   47.5524 C   0  0  0  0  0  0  0  0  0  0  0  0
   20.2976   20.4644   47.8899 H   0  0  0  0  0  0  0  0  0  0  0  0
   19.3719   22.7585   48.5779 C   0  0  0  0  0  0  0  0  0  0  0  0
   19.6063   23.3685   49.6028 O   0  0  0  0  0  0  0  0  0  0  0  0
   20.2686   22.8114   47.5672 O   0  0  0  0  0  0  0  0  0  0  0  0
   20.1039   22.3472   46.7701 H   0  0  0  0  0  0  0  0  0  0  0  0
   13.5680   20.2394   47.8078 C   0  0  0  0  0  0  0  0  0  0  0  0
   14.7786   19.5656   47.4649 O   0  0  0  0  0  0  0  0  0  0  0  0
   16.5806   23.8981   48.8486 C   0  0  0  0  0  0  0  0  0  0  0  0
   16.4331   23.9848   50.3728 C   0  0  0  0  0  0  0  0  0  0  0  0
   15.4904   25.0914   50.7843 C   0  0  0  0  0  0  0  0  0  0  0  0
   15.0529   26.0417   49.8530 C   0  0  0  0  0  0  0  0  0  0  0  0
   14.1840   27.0651   50.2417 C   0  0  0  0  0  0  0  0  0  0  0  0
   13.7552   27.1454   51.5627 C   0  0  0  0  0  0  0  0  0  0  0  0
   12.6835   28.4075   52.0368 Cl  0  0  0  0  0  0  0  0  0  0  0  0
   14.1879   26.2114   52.5012 C   0  0  0  0  0  0  0  0  0  0  0  0
   15.0557   25.1868   52.1139 C   0  0  0  0  0  0  0  0  0  0  0  0
   17.3146   18.3367   47.0948 C   0  0  0  0  0  0  0  0  0  0  0  0
   17.3367   18.1994   45.5885 C   0  0  0  0  0  0  0  0  0  0  0  0
   18.3148   17.7022   44.8038 C   0  0  0  0  0  0  0  0  0  0  0  0
   19.6439   17.1797   45.3019 C   0  0  0  0  0  0  0  0  0  0  0  0
   18.1483   17.6489   43.3110 C   0  0  0  0  0  0  0  0  0  0  0  0
 13 14  1  0
 14  1  1  0
  1  2  2  0
  2  3  1  0
  3 15  1  0
 15 16  1  0
 16 17  1  0
 17 18  2  0
 18 19  1  0
 19 20  2  0
 20 21  1  0
 20 22  1  0
 22 23  2  0
  3  4  2  0
  4  9  1  0
  9 10  2  0
  9 11  1  0
  4  5  1  0
  5  6  1  0
  5  7  2  0
  7 24  1  0
 24 25  1  0
 25 26  2  0
 26 27  1  0
 26 28  1  0
  7  1  1  0
 23 17  1  0
 11 12  1  0
  6  8  1  0
M  END
> <minimizedAffinity>
-8.03893

> <CNNscore>
0.8994894028

> <CNNaffinity>
6.6254711151

> <CNN_VS>
5.9595408440

> <CNNaffinity_variance>
0.0423543006

$$$$



 28 29  0  0  0  0  0  0  0  0999 V2000
   15.2775   19.9766   47.5645 C   0  0  0  0  0  0  0  0  0  0  0  0
   15.2543   21.3076   47.9896 C   0  0  0  0  0  0  0  0  0  0  0  0
   16.4430   22.0559   48.1249 C   0  0  0  0  0  0  0  0  0  0  0  0
   17.6846   21.4334   47.8424 C   0  0  0  0  0  0  0  0  0  0  0  0
   17.6865   20.0763   47.4311 C   0  0  0  0  0  0  0  0  0  0  0  0
   18.8603   19.4044   47.1705 O   0  0  0  0  0  0  0  0  0  0  0  0
   16.4934   19.3312   47.2937 C   0  0  0  0  0  0  0  0  0  0  0  0
   19.6815   19.8493   47.2460 H   0  0  0  0  0  0  0  0  0  0  0  0
   18.9703   22.1945   48.0121 C   0  0  0  0  0  0  0  0  0  0  0  0
   19.8967   21.9400   48.7567 O   0  0  0  0  0  0  0  0  0  0  0  0
   19.0437   23.2963   47.2317 O   0  0  0  0  0  0  0  0  0  0  0  0
   18.3387   23.5075   46.6518 H   0  0  0  0  0  0  0  0  0  0  0  0
   13.5650   18.9844   48.7846 C   0  0  0  0  0  0  0  0  0  0  0  0
   14.1109   19.2535   47.4935 O   0  0  0  0  0  0  0  0  0  0  0  0
   16.2972   23.4876   48.6004 C   0  0  0  0  0  0  0  0  0  0  0  0
   16.3597   23.5930   50.1293 C   0  0  0  0  0  0  0  0  0  0  0  0
   15.5471   24.7570   50.6462 C   0  0  0  0  0  0  0  0  0  0  0  0
   15.3210   24.9181   52.0190 C   0  0  0  0  0  0  0  0  0  0  0  0
   14.5647   25.9951   52.4898 C   0  0  0  0  0  0  0  0  0  0  0  0
   14.0273   26.9100   51.5901 C   0  0  0  0  0  0  0  0  0  0  0  0
   13.0972   28.2363   52.1749 Cl  0  0  0  0  0  0  0  0  0  0  0  0
   14.2381   26.7583   50.2215 C   0  0  0  0  0  0  0  0  0  0  0  0
   14.9951   25.6826   49.7493 C   0  0  0  0  0  0  0  0  0  0  0  0
   16.5141   17.8848   46.8381 C   0  0  0  0  0  0  0  0  0  0  0  0
   16.1298   17.7220   45.3841 C   0  0  0  0  0  0  0  0  0  0  0  0
   16.9353   17.5484   44.3160 C   0  0  0  0  0  0  0  0  0  0  0  0
   18.4460   17.4992   44.3688 C   0  0  0  0  0  0  0  0  0  0  0  0
   16.3586   17.4041   42.9355 C   0  0  0  0  0  0  0  0  0  0  0  0
 13 14  1  0
 14  1  1  0
  1  2  2  0
  2  3  1  0
  3 15  1  0
 15 16  1  0
 16 17  1  0
 17 18  2  0
 18 19  1  0
 19 20  2  0
 20 21  1  0
 20 22  1  0
 22 23  2  0
  3  4  2  0
  4  9  1  0
  9 10  2  0
  9 11  1  0
  4  5  1  0
  5  6  1  0
  5  7  2  0
  7 24  1  0
 24 25  1  0
 25 26  2  0
 26 27  1  0
 26 28  1  0
  7  1  1  0
 23 17  1  0
 11 12  1  0
  6  8  1  0
M  END
> <minimizedAffinity>
-8.48595

> <CNNscore>
0.8886631131

> <CNNaffinity>
6.6439590454

> <CNN_VS>
5.9042415619

> <CNNaffinity_variance>
0.0607301258

$$$$



 28 29  0  0  0  0  0  0  0  0999 V2000
   15.5602   21.7836   48.2798 C   0  0  0  0  0  0  0  0  0  0  0  0
   16.3910   20.7243   47.9050 C   0  0  0  0  0  0  0  0  0  0  0  0
   17.7883   20.8893   47.7984 C   0  0  0  0  0  0  0  0  0  0  0  0
   18.3531   22.1632   48.0576 C   0  0  0  0  0  0  0  0  0  0  0  0
   17.4897   23.2289   48.4177 C   0  0  0  0  0  0  0  0  0  0  0  0
   17.9712   24.4977   48.6531 O   0  0  0  0  0  0  0  0  0  0  0  0
   16.0909   23.0586   48.5266 C   0  0  0  0  0  0  0  0  0  0  0  0
   18.8907   24.6682   48.5947 H   0  0  0  0  0  0  0  0  0  0  0  0
   19.8347   22.3785   47.9171 C   0  0  0  0  0  0  0  0  0  0  0  0
   20.4072   23.3032   47.3744 O   0  0  0  0  0  0  0  0  0  0  0  0
   20.5712   21.3840   48.4617 O   0  0  0  0  0  0  0  0  0  0  0  0
   20.1462   20.6635   48.8839 H   0  0  0  0  0  0  0  0  0  0  0  0
   13.8117   20.2824   47.9715 C   0  0  0  0  0  0  0  0  0  0  0  0
   14.1974   21.6109   48.3232 O   0  0  0  0  0  0  0  0  0  0  0  0
   18.5886   19.6731   47.3769 C   0  0  0  0  0  0  0  0  0  0  0  0
   17.7274   18.6544   46.6199 C   0  0  0  0  0  0  0  0  0  0  0  0
   18.5382   17.8688   45.6159 C   0  0  0  0  0  0  0  0  0  0  0  0
   18.0363   17.6144   44.3332 C   0  0  0  0  0  0  0  0  0  0  0  0
   18.7902   16.8834   43.4109 C   0  0  0  0  0  0  0  0  0  0  0  0
   20.0442   16.3994   43.7696 C   0  0  0  0  0  0  0  0  0  0  0  0
   20.9701   15.5002   42.6293 Cl  0  0  0  0  0  0  0  0  0  0  0  0
   20.5528   16.6388   45.0441 C   0  0  0  0  0  0  0  0  0  0  0  0
   19.8008   17.3706   45.9672 C   0  0  0  0  0  0  0  0  0  0  0  0
   15.1847   24.2067   48.9275 C   0  0  0  0  0  0  0  0  0  0  0  0
   15.1871   24.4633   50.4183 C   0  0  0  0  0  0  0  0  0  0  0  0
   14.8105   25.5766   51.0804 C   0  0  0  0  0  0  0  0  0  0  0  0
   14.3080   26.8449   50.4275 C   0  0  0  0  0  0  0  0  0  0  0  0
   14.8863   25.6399   52.5802 C   0  0  0  0  0  0  0  0  0  0  0  0
 13 14  1  0
 14  1  1  0
  1  2  2  0
  2  3  1  0
  3 15  1  0
 15 16  1  0
 16 17  1  0
 17 18  2  0
 18 19  1  0
 19 20  2  0
 20 21  1  0
 20 22  1  0
 22 23  2  0
  3  4  2  0
  4  9  1  0
  9 10  2  0
  9 11  1  0
  4  5  1  0
  5  6  1  0
  5  7  2  0
  7 24  1  0
 24 25  1  0
 25 26  2  0
 26 27  1  0
 26 28  1  0
  7  1  1  0
 23 17  1  0
 11 12  1  0
  6  8  1  0
M  END
> <minimizedAffinity>
-8.47637

> <CNNscore>
0.7716196179

> <CNNaffinity>
6.6803660393

> <CNN_VS>
5.1547017097

> <CNNaffinity_variance>
0.0447263457

$$$$



 28 29  0  0  0  0  0  0  0  0999 V2000
   15.6966   21.8566   48.2473 C   0  0  0  0  0  0  0  0  0  0  0  0
   15.1115   22.9831   48.8316 C   0  0  0  0  0  0  0  0  0  0  0  0
   15.8678   24.1406   49.1135 C   0  0  0  0  0  0  0  0  0  0  0  0
   17.2533   24.1476   48.8148 C   0  0  0  0  0  0  0  0  0  0  0  0
   17.8305   22.9869   48.2399 C   0  0  0  0  0  0  0  0  0  0  0  0
   19.1760   22.9180   47.9536 O   0  0  0  0  0  0  0  0  0  0  0  0
   17.0688   21.8307   47.9561 C   0  0  0  0  0  0  0  0  0  0  0  0
   19.7291   23.6554   48.1216 H   0  0  0  0  0  0  0  0  0  0  0  0
   18.0922   25.3533   49.1368 C   0  0  0  0  0  0  0  0  0  0  0  0
   18.0914   26.4342   48.5808 O   0  0  0  0  0  0  0  0  0  0  0  0
   18.9458   25.1488   50.1653 O   0  0  0  0  0  0  0  0  0  0  0  0
   18.9597   24.3216   50.6052 H   0  0  0  0  0  0  0  0  0  0  0  0
   14.1313   20.3975   49.1563 C   0  0  0  0  0  0  0  0  0  0  0  0
   14.9501   20.7228   48.0333 O   0  0  0  0  0  0  0  0  0  0  0  0
   15.1293   25.2986   49.7544 C   0  0  0  0  0  0  0  0  0  0  0  0
   15.0839   25.1742   51.2825 C   0  0  0  0  0  0  0  0  0  0  0  0
   16.0339   26.1383   51.9535 C   0  0  0  0  0  0  0  0  0  0  0  0
   16.7365   25.7648   53.1061 C   0  0  0  0  0  0  0  0  0  0  0  0
   17.6107   26.6635   53.7240 C   0  0  0  0  0  0  0  0  0  0  0  0
   17.7802   27.9392   53.1957 C   0  0  0  0  0  0  0  0  0  0  0  0
   18.8595   29.0428   53.9596 Cl  0  0  0  0  0  0  0  0  0  0  0  0
   17.0826   28.3267   52.0540 C   0  0  0  0  0  0  0  0  0  0  0  0
   16.2090   27.4289   51.4343 C   0  0  0  0  0  0  0  0  0  0  0  0
   17.7007   20.6039   47.3272 C   0  0  0  0  0  0  0  0  0  0  0  0
   19.0690   20.2934   47.8924 C   0  0  0  0  0  0  0  0  0  0  0  0
   19.7633   19.1386   47.8274 C   0  0  0  0  0  0  0  0  0  0  0  0
   19.2759   17.8708   47.1621 C   0  0  0  0  0  0  0  0  0  0  0  0
   21.1231   19.0244   48.4574 C   0  0  0  0  0  0  0  0  0  0  0  0
 13 14  1  0
 14  1  1  0
  1  2  2  0
  2  3  1  0
  3 15  1  0
 15 16  1  0
 16 17  1  0
 17 18  2  0
 18 19  1  0
 19 20  2  0
 20 21  1  0
 20 22  1  0
 22 23  2  0
  3  4  2  0
  4  9  1  0
  9 10  2  0
  9 11  1  0
  4  5  1  0
  5  6  1  0
  5  7  2  0
  7 24  1  0
 24 25  1  0
 25 26  2  0
 26 27  1  0
 26 28  1  0
  7  1  1  0
 23 17  1  0
 11 12  1  0
  6  8  1  0
M  END
> <minimizedAffinity>
-7.72968

> <CNNscore>
0.5179537535

> <CNNaffinity>
6.0382924080

> <CNN_VS>
3.1275563240

> <CNNaffinity_variance>
0.0314479508

$$$$



 28 29  0  0  0  0  0  0  0  0999 V2000
   18.0883   22.8182   48.5552 C   0  0  0  0  0  0  0  0  0  0  0  0
   17.8663   24.1700   48.8312 C   0  0  0  0  0  0  0  0  0  0  0  0
   18.9127   25.1145   48.7646 C   0  0  0  0  0  0  0  0  0  0  0  0
   20.2178   24.6740   48.4306 C   0  0  0  0  0  0  0  0  0  0  0  0
   20.4245   23.2949   48.1731 C   0  0  0  0  0  0  0  0  0  0  0  0
   21.6735   22.7976   47.8729 O   0  0  0  0  0  0  0  0  0  0  0  0
   19.3731   22.3526   48.2377 C   0  0  0  0  0  0  0  0  0  0  0  0
   22.4075   23.3773   47.8170 H   0  0  0  0  0  0  0  0  0  0  0  0
   21.3598   25.6512   48.3870 C   0  0  0  0  0  0  0  0  0  0  0  0
   21.5952   26.4879   47.5373 O   0  0  0  0  0  0  0  0  0  0  0  0
   22.2066   25.5278   49.4339 O   0  0  0  0  0  0  0  0  0  0  0  0
   22.0404   24.8880   50.0980 H   0  0  0  0  0  0  0  0  0  0  0  0
   15.7951   22.4840   48.3685 C   0  0  0  0  0  0  0  0  0  0  0  0
   17.0643   21.9103   48.6803 O   0  0  0  0  0  0  0  0  0  0  0  0
   18.5567   26.5509   49.0917 C   0  0  0  0  0  0  0  0  0  0  0  0
   19.0737   26.9692   50.4738 C   0  0  0  0  0  0  0  0  0  0  0  0
   17.9836   26.9249   51.5188 C   0  0  0  0  0  0  0  0  0  0  0  0
   16.8544   27.7464   51.4099 C   0  0  0  0  0  0  0  0  0  0  0  0
   15.8518   27.7031   52.3827 C   0  0  0  0  0  0  0  0  0  0  0  0
   15.9777   26.8439   53.4696 C   0  0  0  0  0  0  0  0  0  0  0  0
   14.7390   26.7930   54.6651 Cl  0  0  0  0  0  0  0  0  0  0  0  0
   17.0986   26.0264   53.5945 C   0  0  0  0  0  0  0  0  0  0  0  0
   18.1015   26.0677   52.6221 C   0  0  0  0  0  0  0  0  0  0  0  0
   19.6104   20.8837   47.9443 C   0  0  0  0  0  0  0  0  0  0  0  0
   18.3336   20.0726   47.9388 C   0  0  0  0  0  0  0  0  0  0  0  0
   18.1755   18.7551   47.6961 C   0  0  0  0  0  0  0  0  0  0  0  0
   19.2938   17.7975   47.3496 C   0  0  0  0  0  0  0  0  0  0  0  0
   16.8113   18.1255   47.7375 C   0  0  0  0  0  0  0  0  0  0  0  0
 13 14  1  0
 14  1  1  0
  1  2  2  0
  2  3  1  0
  3 15  1  0
 15 16  1  0
 16 17  1  0
 17 18  2  0
 18 19  1  0
 19 20  2  0
 20 21  1  0
 20 22  1  0
 22 23  2  0
  3  4  2  0
  4  9  1  0
  9 10  2  0
  9 11  1  0
  4  5  1  0
  5  6  1  0
  5  7  2  0
  7 24  1  0
 24 25  1  0
 25 26  2  0
 26 27  1  0
 26 28  1  0
  7  1  1  0
 23 17  1  0
 11 12  1  0
  6  8  1  0
M  END
> <minimizedAffinity>
-7.27744

> <CNNscore>
0.5045170784

> <CNNaffinity>
5.8879532814

> <CNN_VS>
2.9705729485

> <CNNaffinity_variance>
0.0106387762

$$$$



 28 29  0  0  0  0  0  0  0  0999 V2000
   15.8093   24.8575   49.7987 C   0  0  0  0  0  0  0  0  0  0  0  0
   16.5568   25.9950   49.4825 C   0  0  0  0  0  0  0  0  0  0  0  0
   17.8500   25.8928   48.9271 C   0  0  0  0  0  0  0  0  0  0  0  0
   18.4054   24.6074   48.7071 C   0  0  0  0  0  0  0  0  0  0  0  0
   17.6371   23.4668   49.0530 C   0  0  0  0  0  0  0  0  0  0  0  0
   18.1301   22.1907   48.8926 O   0  0  0  0  0  0  0  0  0  0  0  0
   16.3409   23.5735   49.6061 C   0  0  0  0  0  0  0  0  0  0  0  0
   18.9845   22.0606   48.5305 H   0  0  0  0  0  0  0  0  0  0  0  0
   19.7951   24.4672   48.1501 C   0  0  0  0  0  0  0  0  0  0  0  0
   20.8518   24.6090   48.7338 O   0  0  0  0  0  0  0  0  0  0  0  0
   19.8126   24.1643   46.8325 O   0  0  0  0  0  0  0  0  0  0  0  0
   19.0072   24.0514   46.3669 H   0  0  0  0  0  0  0  0  0  0  0  0
   14.5364   26.0548   51.3322 C   0  0  0  0  0  0  0  0  0  0  0  0
   14.5747   24.9842   50.3891 O   0  0  0  0  0  0  0  0  0  0  0  0
   18.5701   27.1932   48.6314 C   0  0  0  0  0  0  0  0  0  0  0  0
   17.6305   28.4021   48.7215 C   0  0  0  0  0  0  0  0  0  0  0  0
   17.3037   28.9631   47.3574 C   0  0  0  0  0  0  0  0  0  0  0  0
   16.0734   29.5878   47.1167 C   0  0  0  0  0  0  0  0  0  0  0  0
   15.7763   30.1008   45.8510 C   0  0  0  0  0  0  0  0  0  0  0  0
   16.7046   29.9855   44.8213 C   0  0  0  0  0  0  0  0  0  0  0  0
   16.3346   30.6203   43.2636 Cl  0  0  0  0  0  0  0  0  0  0  0  0
   17.9293   29.3604   45.0445 C   0  0  0  0  0  0  0  0  0  0  0  0
   18.2284   28.8479   46.3098 C   0  0  0  0  0  0  0  0  0  0  0  0
   15.5281   22.3419   49.9560 C   0  0  0  0  0  0  0  0  0  0  0  0
   14.6836   21.8485   48.8020 C   0  0  0  0  0  0  0  0  0  0  0  0
   14.0322   20.6738   48.6789 C   0  0  0  0  0  0  0  0  0  0  0  0
   14.0368   19.5680   49.7108 C   0  0  0  0  0  0  0  0  0  0  0  0
   13.2363   20.3637   47.4422 C   0  0  0  0  0  0  0  0  0  0  0  0
 13 14  1  0
 14  1  1  0
  1  2  2  0
  2  3  1  0
  3 15  1  0
 15 16  1  0
 16 17  1  0
 17 18  2  0
 18 19  1  0
 19 20  2  0
 20 21  1  0
 20 22  1  0
 22 23  2  0
  3  4  2  0
  4  9  1  0
  9 10  2  0
  9 11  1  0
  4  5  1  0
  5  6  1  0
  5  7  2  0
  7 24  1  0
 24 25  1  0
 25 26  2  0
 26 27  1  0
 26 28  1  0
  7  1  1  0
 23 17  1  0
 11 12  1  0
  6  8  1  0
M  END
> <minimizedAffinity>
-6.72958

> <CNNscore>
0.4983985722

> <CNNaffinity>
5.5283942223

> <CNN_VS>
2.7553436756

> <CNNaffinity_variance>
0.1073072255

$$$$



 28 29  0  0  0  0  0  0  0  0999 V2000
   17.1913   22.1498   48.5884 C   0  0  0  0  0  0  0  0  0  0  0  0
   16.9294   23.5111   48.7650 C   0  0  0  0  0  0  0  0  0  0  0  0
   17.9493   24.4778   48.6358 C   0  0  0  0  0  0  0  0  0  0  0  0
   19.2687   24.0517   48.3413 C   0  0  0  0  0  0  0  0  0  0  0  0
   19.5159   22.6642   48.1851 C   0  0  0  0  0  0  0  0  0  0  0  0
   20.7804   22.1824   47.9281 O   0  0  0  0  0  0  0  0  0  0  0  0
   18.4909   21.6994   48.3121 C   0  0  0  0  0  0  0  0  0  0  0  0
   21.4982   22.7773   47.8343 H   0  0  0  0  0  0  0  0  0  0  0  0
   20.3830   25.0555   48.2330 C   0  0  0  0  0  0  0  0  0  0  0  0
   20.6222   25.8099   47.3104 O   0  0  0  0  0  0  0  0  0  0  0  0
   21.1981   25.0646   49.3118 O   0  0  0  0  0  0  0  0  0  0  0  0
   21.0285   24.4896   50.0320 H   0  0  0  0  0  0  0  0  0  0  0  0
   14.9039   21.7532   48.4608 C   0  0  0  0  0  0  0  0  0  0  0  0
   16.1922   21.2244   48.7736 O   0  0  0  0  0  0  0  0  0  0  0  0
   17.5508   25.9233   48.8564 C   0  0  0  0  0  0  0  0  0  0  0  0
   17.4766   26.2765   50.3471 C   0  0  0  0  0  0  0  0  0  0  0  0
   16.1113   26.7940   50.7350 C   0  0  0  0  0  0  0  0  0  0  0  0
   15.7474   28.1205   50.4707 C   0  0  0  0  0  0  0  0  0  0  0  0
   14.4841   28.5936   50.8361 C   0  0  0  0  0  0  0  0  0  0  0  0
   13.5837   27.7448   51.4719 C   0  0  0  0  0  0  0  0  0  0  0  0
   12.0275   28.3318   51.9191 Cl  0  0  0  0  0  0  0  0  0  0  0  0
   13.9346   26.4252   51.7474 C   0  0  0  0  0  0  0  0  0  0  0  0
   15.1970   25.9502   51.3816 C   0  0  0  0  0  0  0  0  0  0  0  0
   18.7715   20.2205   48.1269 C   0  0  0  0  0  0  0  0  0  0  0  0
   18.2037   19.6726   46.8362 C   0  0  0  0  0  0  0  0  0  0  0  0
   17.3114   18.6753   46.6668 C   0  0  0  0  0  0  0  0  0  0  0  0
   16.6937   17.8658   47.7852 C   0  0  0  0  0  0  0  0  0  0  0  0
   16.8648   18.2710   45.2897 C   0  0  0  0  0  0  0  0  0  0  0  0
 13 14  1  0
 14  1  1  0
  1  2  2  0
  2  3  1  0
  3 15  1  0
 15 16  1  0
 16 17  1  0
 17 18  2  0
 18 19  1  0
 19 20  2  0
 20 21  1  0
 20 22  1  0
 22 23  2  0
  3  4  2  0
  4  9  1  0
  9 10  2  0
  9 11  1  0
  4  5  1  0
  5  6  1  0
  5  7  2  0
  7 24  1  0
 24 25  1  0
 25 26  2  0
 26 27  1  0
 26 28  1  0
  7  1  1  0
 23 17  1  0
 11 12  1  0
  6  8  1  0
M  END
> <minimizedAffinity>
-7.22597

> <CNNscore>
0.4903612435

> <CNNaffinity>
6.2548851967

> <CNN_VS>
3.0671532154

> <CNNaffinity_variance>
0.0126351165

$$$$



 28 29  0  0  0  0  0  0  0  0999 V2000
   16.0388   24.2454   49.8740 C   0  0  0  0  0  0  0  0  0  0  0  0
   17.1695   24.9563   50.2849 C   0  0  0  0  0  0  0  0  0  0  0  0
   18.4152   24.7890   49.6434 C   0  0  0  0  0  0  0  0  0  0  0  0
   18.5207   23.8643   48.5744 C   0  0  0  0  0  0  0  0  0  0  0  0
   17.3653   23.1395   48.1863 C   0  0  0  0  0  0  0  0  0  0  0  0
   17.4075   22.2046   47.1757 O   0  0  0  0  0  0  0  0  0  0  0  0
   16.1187   23.3123   48.8293 C   0  0  0  0  0  0  0  0  0  0  0  0
   18.2082   22.0486   46.7148 H   0  0  0  0  0  0  0  0  0  0  0  0
   19.8431   23.6383   47.8952 C   0  0  0  0  0  0  0  0  0  0  0  0
   20.7983   23.0111   48.3094 O   0  0  0  0  0  0  0  0  0  0  0  0
   19.9327   24.2437   46.6895 O   0  0  0  0  0  0  0  0  0  0  0  0
   19.2059   24.7313   46.3549 H   0  0  0  0  0  0  0  0  0  0  0  0
   14.7159   25.6794   51.1385 C   0  0  0  0  0  0  0  0  0  0  0  0
   14.8507   24.3859   50.5504 O   0  0  0  0  0  0  0  0  0  0  0  0
   19.5735   25.6068   50.1790 C   0  0  0  0  0  0  0  0  0  0  0  0
   19.4152   25.9148   51.6732 C   0  0  0  0  0  0  0  0  0  0  0  0
   18.9296   27.3260   51.9079 C   0  0  0  0  0  0  0  0  0  0  0  0
   18.1434   27.6355   53.0251 C   0  0  0  0  0  0  0  0  0  0  0  0
   17.6943   28.9425   53.2337 C   0  0  0  0  0  0  0  0  0  0  0  0
   18.0238   29.9418   52.3237 C   0  0  0  0  0  0  0  0  0  0  0  0
   17.4692   31.5512   52.5855 Cl  0  0  0  0  0  0  0  0  0  0  0  0
   18.7990   29.6469   51.2045 C   0  0  0  0  0  0  0  0  0  0  0  0
   19.2499   28.3408   50.9951 C   0  0  0  0  0  0  0  0  0  0  0  0
   14.8902   22.5389   48.3905 C   0  0  0  0  0  0  0  0  0  0  0  0
   14.6544   21.2938   49.2166 C   0  0  0  0  0  0  0  0  0  0  0  0
   13.9853   20.1731   48.8760 C   0  0  0  0  0  0  0  0  0  0  0  0
   13.2966   19.9444   47.5489 C   0  0  0  0  0  0  0  0  0  0  0  0
   13.8581   19.0310   49.8448 C   0  0  0  0  0  0  0  0  0  0  0  0
 13 14  1  0
 14  1  1  0
  1  2  2  0
  2  3  1  0
  3 15  1  0
 15 16  1  0
 16 17  1  0
 17 18  2  0
 18 19  1  0
 19 20  2  0
 20 21  1  0
 20 22  1  0
 22 23  2  0
  3  4  2  0
  4  9  1  0
  9 10  2  0
  9 11  1  0
  4  5  1  0
  5  6  1  0
  5  7  2  0
  7 24  1  0
 24 25  1  0
 25 26  2  0
 26 27  1  0
 26 28  1  0
  7  1  1  0
 23 17  1  0
 11 12  1  0
  6  8  1  0
M  END
> <minimizedAffinity>
-6.70220

> <CNNscore>
0.4345453680

> <CNNaffinity>
5.7895970345

> <CNN_VS>
2.5158426762

> <CNNaffinity_variance>
0.0450713895

$$$$
