


 32 34  0  0  0  0  0  0  0  0999 V2000
   90.6348   95.6136  -45.1826 C   0  0  0  0  0  0  0  0  0  0  0  0
   90.8380   94.5611  -46.0950 C   0  0  0  0  0  0  0  0  0  0  0  0
   91.5018   93.3922  -45.7119 C   0  0  0  0  0  0  0  0  0  0  0  0
   91.9805   93.2554  -44.4094 C   0  0  0  0  0  0  0  0  0  0  0  0
   91.7985   94.2945  -43.4961 C   0  0  0  0  0  0  0  0  0  0  0  0
   92.5345   94.0515  -41.5538 I   0  0  0  0  0  0  0  0  0  0  0  0
   91.1356   95.4682  -43.8809 C   0  0  0  0  0  0  0  0  0  0  0  0
   90.9668   96.5044  -43.0012 O   0  0  0  0  0  0  0  0  0  0  0  0
   91.2920   96.4330  -42.1253 H   0  0  0  0  0  0  0  0  0  0  0  0
   91.6889   92.3356  -46.6572 C   0  0  0  0  0  0  0  0  0  0  0  0
   91.8465   91.4500  -47.4537 C   0  0  0  0  0  0  0  0  0  0  0  0
   92.0397   90.3684  -48.4273 C   0  0  0  0  0  0  0  0  0  0  0  0
   90.7639   89.8588  -48.8106 O   0  0  0  0  0  0  0  0  0  0  0  0
   90.1623   90.4294  -49.8981 C   0  0  0  0  0  0  0  0  0  0  0  0
   90.7617   91.6170  -50.3349 C   0  0  0  0  0  0  0  0  0  0  0  0
   90.2524   92.3068  -51.4361 C   0  0  0  0  0  0  0  0  0  0  0  0
   89.1413   91.8039  -52.0989 C   0  0  0  0  0  0  0  0  0  0  0  0
   88.6479   92.4609  -53.1563 F   0  0  0  0  0  0  0  0  0  0  0  0
   88.5334   90.6263  -51.6791 C   0  0  0  0  0  0  0  0  0  0  0  0
   89.0437   89.9354  -50.5751 C   0  0  0  0  0  0  0  0  0  0  0  0
   89.8984   96.8609  -45.6329 C   0  0  0  0  0  0  0  0  0  0  0  0
   92.2095  100.4960  -44.7595 C   0  0  0  0  0  0  0  0  0  0  0  0
   90.6793  100.5209  -44.9563 C   0  0  0  0  0  0  0  0  0  0  0  0
   89.9788   99.1735  -44.7957 C   0  0  0  0  0  0  0  0  0  0  0  0
   90.6381   98.1358  -45.5876 N   0  0  0  0  0  0  0  0  0  0  0  0
   92.0362   97.9631  -45.1896 C   0  0  0  0  0  0  0  0  0  0  0  0
   92.8290   99.2509  -45.4101 C   0  0  0  0  0  0  0  0  0  0  0  0
   92.6221  100.8372  -43.3762 N   0  0  0  0  0  0  0  0  0  0  0  0
   91.1970  101.4568  -41.4130 C   0  0  0  0  0  0  0  0  0  0  0  0
   91.6610  100.3606  -42.3698 C   0  0  0  0  0  0  0  0  0  0  0  0
   93.1611  102.1755  -43.1241 C   0  0  0  0  0  0  0  0  0  0  0  0
   92.9676  103.2378  -44.2060 C   0  0  0  0  0  0  0  0  0  0  0  0
 29 30  1  0
 30 28  1  0
 28 31  1  0
 31 32  1  0
 28 22  1  0
 22 23  1  0
 23 24  1  0
 24 25  1  0
 25 21  1  0
 21  1  1  0
  1  2  2  0
  2  3  1  0
  3 10  1  0
 10 11  3  0
 11 12  1  0
 12 13  1  0
 13 14  1  0
 14 15  2  0
 15 16  1  0
 16 17  2  0
 17 18  1  0
 17 19  1  0
 19 20  2  0
  3  4  2  0
  4  5  1  0
  5  6  1  0
  5  7  2  0
  7  8  1  0
 25 26  1  0
 26 27  1  0
 27 22  1  0
  7  1  1  0
 20 14  1  0
  8  9  1  0
M  END
> <minimizedAffinity>
-6.88794

> <CNNscore>
0.8879984617

> <CNNaffinity>
5.8457417488

> <CNN_VS>
5.1910095215

> <CNNaffinity_variance>
0.9300108552

$$$$



 32 34  0  0  0  0  0  0  0  0999 V2000
   90.9872   95.3978  -45.0239 C   0  0  0  0  0  0  0  0  0  0  0  0
   91.0476   94.4248  -46.0392 C   0  0  0  0  0  0  0  0  0  0  0  0
   91.5266   93.1379  -45.7777 C   0  0  0  0  0  0  0  0  0  0  0  0
   91.9602   92.8008  -44.4960 C   0  0  0  0  0  0  0  0  0  0  0  0
   91.9188   93.7575  -43.4812 C   0  0  0  0  0  0  0  0  0  0  0  0
   92.5815   93.2130  -41.5739 I   0  0  0  0  0  0  0  0  0  0  0  0
   91.4414   95.0490  -43.7439 C   0  0  0  0  0  0  0  0  0  0  0  0
   91.4132   96.0043  -42.7627 O   0  0  0  0  0  0  0  0  0  0  0  0
   91.7110   95.7974  -41.8987 H   0  0  0  0  0  0  0  0  0  0  0  0
   91.5709   92.1665  -46.8262 C   0  0  0  0  0  0  0  0  0  0  0  0
   91.6072   91.3482  -47.7052 C   0  0  0  0  0  0  0  0  0  0  0  0
   91.6509   90.3479  -48.7788 C   0  0  0  0  0  0  0  0  0  0  0  0
   90.3377   90.1836  -49.3105 O   0  0  0  0  0  0  0  0  0  0  0  0
   89.7795   88.9379  -49.2278 C   0  0  0  0  0  0  0  0  0  0  0  0
   88.3802   88.9257  -49.2765 C   0  0  0  0  0  0  0  0  0  0  0  0
   87.6771   87.7223  -49.2033 C   0  0  0  0  0  0  0  0  0  0  0  0
   88.3792   86.5311  -49.0816 C   0  0  0  0  0  0  0  0  0  0  0  0
   87.7104   85.3730  -49.0112 F   0  0  0  0  0  0  0  0  0  0  0  0
   89.7683   86.5242  -49.0317 C   0  0  0  0  0  0  0  0  0  0  0  0
   90.4729   87.7304  -49.1045 C   0  0  0  0  0  0  0  0  0  0  0  0
   90.4488   96.7793  -45.3441 C   0  0  0  0  0  0  0  0  0  0  0  0
   90.2842  100.2543  -42.6579 C   0  0  0  0  0  0  0  0  0  0  0  0
   91.6175   99.6829  -43.1839 C   0  0  0  0  0  0  0  0  0  0  0  0
   91.5053   98.8039  -44.4276 C   0  0  0  0  0  0  0  0  0  0  0  0
   90.4730   97.7814  -44.2625 N   0  0  0  0  0  0  0  0  0  0  0  0
   89.1593   98.3787  -44.0172 C   0  0  0  0  0  0  0  0  0  0  0  0
   89.1670   99.2035  -42.7307 C   0  0  0  0  0  0  0  0  0  0  0  0
   89.9941  101.6157  -43.1705 N   0  0  0  0  0  0  0  0  0  0  0  0
   90.1796  102.2054  -40.7442 C   0  0  0  0  0  0  0  0  0  0  0  0
   89.5731  102.5389  -42.1055 C   0  0  0  0  0  0  0  0  0  0  0  0
   89.2430  101.7394  -44.4218 C   0  0  0  0  0  0  0  0  0  0  0  0
   87.8157  102.2810  -44.3463 C   0  0  0  0  0  0  0  0  0  0  0  0
 29 30  1  0
 30 28  1  0
 28 31  1  0
 31 32  1  0
 28 22  1  0
 22 23  1  0
 23 24  1  0
 24 25  1  0
 25 21  1  0
 21  1  1  0
  1  2  2  0
  2  3  1  0
  3 10  1  0
 10 11  3  0
 11 12  1  0
 12 13  1  0
 13 14  1  0
 14 15  2  0
 15 16  1  0
 16 17  2  0
 17 18  1  0
 17 19  1  0
 19 20  2  0
  3  4  2  0
  4  5  1  0
  5  6  1  0
  5  7  2  0
  7  8  1  0
 25 26  1  0
 26 27  1  0
 27 22  1  0
  7  1  1  0
 20 14  1  0
  8  9  1  0
M  END
> <minimizedAffinity>
-7.03255

> <CNNscore>
0.8801721334

> <CNNaffinity>
5.7364687920

> <CNN_VS>
5.0490798950

> <CNNaffinity_variance>
0.7207562923

$$$$



 32 34  0  0  0  0  0  0  0  0999 V2000
   90.9811   95.4139  -45.0052 C   0  0  0  0  0  0  0  0  0  0  0  0
   91.0336   94.4487  -46.0283 C   0  0  0  0  0  0  0  0  0  0  0  0
   91.5181   93.1610  -45.7814 C   0  0  0  0  0  0  0  0  0  0  0  0
   91.9652   92.8152  -44.5066 C   0  0  0  0  0  0  0  0  0  0  0  0
   91.9318   93.7641  -43.4842 C   0  0  0  0  0  0  0  0  0  0  0  0
   92.6146   93.2069  -41.5878 I   0  0  0  0  0  0  0  0  0  0  0  0
   91.4489   95.0565  -43.7324 C   0  0  0  0  0  0  0  0  0  0  0  0
   91.4283   96.0043  -42.7438 O   0  0  0  0  0  0  0  0  0  0  0  0
   91.7351   95.7916  -41.8844 H   0  0  0  0  0  0  0  0  0  0  0  0
   91.5542   92.1976  -46.8376 C   0  0  0  0  0  0  0  0  0  0  0  0
   91.5853   91.3905  -47.7270 C   0  0  0  0  0  0  0  0  0  0  0  0
   91.6240   90.4046  -48.8141 C   0  0  0  0  0  0  0  0  0  0  0  0
   90.3453   90.3616  -49.4442 O   0  0  0  0  0  0  0  0  0  0  0  0
   89.6367   89.1962  -49.3447 C   0  0  0  0  0  0  0  0  0  0  0  0
   90.4210   88.0592  -49.1153 C   0  0  0  0  0  0  0  0  0  0  0  0
   89.8295   86.8011  -48.9916 C   0  0  0  0  0  0  0  0  0  0  0  0
   88.4504   86.6849  -49.0978 C   0  0  0  0  0  0  0  0  0  0  0  0
   87.8768   85.4806  -48.9796 F   0  0  0  0  0  0  0  0  0  0  0  0
   87.6562   87.8028  -49.3253 C   0  0  0  0  0  0  0  0  0  0  0  0
   88.2492   89.0635  -49.4499 C   0  0  0  0  0  0  0  0  0  0  0  0
   90.4365   96.7965  -45.3096 C   0  0  0  0  0  0  0  0  0  0  0  0
   90.2653  100.2400  -42.5835 C   0  0  0  0  0  0  0  0  0  0  0  0
   91.6014   99.6452  -43.0755 C   0  0  0  0  0  0  0  0  0  0  0  0
   91.5086   98.7849  -44.3337 C   0  0  0  0  0  0  0  0  0  0  0  0
   90.4492   97.7840  -44.2144 N   0  0  0  0  0  0  0  0  0  0  0  0
   89.1421   98.4077  -44.0019 C   0  0  0  0  0  0  0  0  0  0  0  0
   89.1279   99.2158  -42.7049 C   0  0  0  0  0  0  0  0  0  0  0  0
   90.0218  101.6140  -43.0865 N   0  0  0  0  0  0  0  0  0  0  0  0
   91.4488  103.0573  -44.5526 C   0  0  0  0  0  0  0  0  0  0  0  0
   90.5602  101.8203  -44.4397 C   0  0  0  0  0  0  0  0  0  0  0  0
   90.2280  102.7351  -42.1668 C   0  0  0  0  0  0  0  0  0  0  0  0
   90.1883  102.4438  -40.6669 C   0  0  0  0  0  0  0  0  0  0  0  0
 29 30  1  0
 30 28  1  0
 28 31  1  0
 31 32  1  0
 28 22  1  0
 22 23  1  0
 23 24  1  0
 24 25  1  0
 25 21  1  0
 21  1  1  0
  1  2  2  0
  2  3  1  0
  3 10  1  0
 10 11  3  0
 11 12  1  0
 12 13  1  0
 13 14  1  0
 14 15  2  0
 15 16  1  0
 16 17  2  0
 17 18  1  0
 17 19  1  0
 19 20  2  0
  3  4  2  0
  4  5  1  0
  5  6  1  0
  5  7  2  0
  7  8  1  0
 25 26  1  0
 26 27  1  0
 27 22  1  0
  7  1  1  0
 20 14  1  0
  8  9  1  0
M  END
> <minimizedAffinity>
-7.04421

> <CNNscore>
0.8736017942

> <CNNaffinity>
5.8101124763

> <CNN_VS>
5.0757246017

> <CNNaffinity_variance>
0.6414632201

$$$$



 32 34  0  0  0  0  0  0  0  0999 V2000
   90.9911   95.3919  -44.9672 C   0  0  0  0  0  0  0  0  0  0  0  0
   91.0653   94.4214  -45.9840 C   0  0  0  0  0  0  0  0  0  0  0  0
   91.5617   93.1408  -45.7245 C   0  0  0  0  0  0  0  0  0  0  0  0
   91.9993   92.8075  -44.4431 C   0  0  0  0  0  0  0  0  0  0  0  0
   91.9444   93.7619  -43.4267 C   0  0  0  0  0  0  0  0  0  0  0  0
   92.6135   93.2234  -41.5200 I   0  0  0  0  0  0  0  0  0  0  0  0
   91.4494   95.0472  -43.6875 C   0  0  0  0  0  0  0  0  0  0  0  0
   91.4076   96.0004  -42.7048 O   0  0  0  0  0  0  0  0  0  0  0  0
   91.7078   95.7961  -41.8410 H   0  0  0  0  0  0  0  0  0  0  0  0
   91.6199   92.1719  -46.7746 C   0  0  0  0  0  0  0  0  0  0  0  0
   91.6657   91.3571  -47.6564 C   0  0  0  0  0  0  0  0  0  0  0  0
   91.7208   90.3620  -48.7343 C   0  0  0  0  0  0  0  0  0  0  0  0
   90.3910   90.0590  -49.1515 O   0  0  0  0  0  0  0  0  0  0  0  0
   89.9280   90.6878  -50.2741 C   0  0  0  0  0  0  0  0  0  0  0  0
   90.6332   91.8465  -50.6216 C   0  0  0  0  0  0  0  0  0  0  0  0
   90.2699   92.5890  -51.7461 C   0  0  0  0  0  0  0  0  0  0  0  0
   89.1986   92.1680  -52.5218 C   0  0  0  0  0  0  0  0  0  0  0  0
   88.8452   92.8759  -53.6022 F   0  0  0  0  0  0  0  0  0  0  0  0
   88.4871   91.0203  -52.1918 C   0  0  0  0  0  0  0  0  0  0  0  0
   88.8510   90.2765  -51.0644 C   0  0  0  0  0  0  0  0  0  0  0  0
   90.4340   96.7663  -45.2854 C   0  0  0  0  0  0  0  0  0  0  0  0
   90.3969  100.2868  -42.6542 C   0  0  0  0  0  0  0  0  0  0  0  0
   91.7082   99.6629  -43.1760 C   0  0  0  0  0  0  0  0  0  0  0  0
   91.5614   98.7687  -44.4052 C   0  0  0  0  0  0  0  0  0  0  0  0
   90.4963   97.7840  -44.2200 N   0  0  0  0  0  0  0  0  0  0  0  0
   89.2043   98.4286  -43.9791 C   0  0  0  0  0  0  0  0  0  0  0  0
   89.2451   99.2729  -42.7060 C   0  0  0  0  0  0  0  0  0  0  0  0
   90.1503  101.6489  -43.1872 N   0  0  0  0  0  0  0  0  0  0  0  0
   90.2645  102.2183  -40.7516 C   0  0  0  0  0  0  0  0  0  0  0  0
   90.4209  102.6986  -42.1929 C   0  0  0  0  0  0  0  0  0  0  0  0
   88.9517  101.8683  -43.9999 C   0  0  0  0  0  0  0  0  0  0  0  0
   89.1215  101.9361  -45.5174 C   0  0  0  0  0  0  0  0  0  0  0  0
 29 30  1  0
 30 28  1  0
 28 31  1  0
 31 32  1  0
 28 22  1  0
 22 23  1  0
 23 24  1  0
 24 25  1  0
 25 21  1  0
 21  1  1  0
  1  2  2  0
  2  3  1  0
  3 10  1  0
 10 11  3  0
 11 12  1  0
 12 13  1  0
 13 14  1  0
 14 15  2  0
 15 16  1  0
 16 17  2  0
 17 18  1  0
 17 19  1  0
 19 20  2  0
  3  4  2  0
  4  5  1  0
  5  6  1  0
  5  7  2  0
  7  8  1  0
 25 26  1  0
 26 27  1  0
 27 22  1  0
  7  1  1  0
 20 14  1  0
  8  9  1  0
M  END
> <minimizedAffinity>
-7.03205

> <CNNscore>
0.8550829291

> <CNNaffinity>
5.6876645088

> <CNN_VS>
4.8634247780

> <CNNaffinity_variance>
0.8715422750

$$$$



 32 34  0  0  0  0  0  0  0  0999 V2000
   90.9505   95.5388  -45.1228 C   0  0  0  0  0  0  0  0  0  0  0  0
   91.0484   94.5072  -46.0754 C   0  0  0  0  0  0  0  0  0  0  0  0
   91.5559   93.2515  -45.7297 C   0  0  0  0  0  0  0  0  0  0  0  0
   91.9811   93.0049  -44.4248 C   0  0  0  0  0  0  0  0  0  0  0  0
   91.9026   94.0206  -43.4714 C   0  0  0  0  0  0  0  0  0  0  0  0
   92.5538   93.6114  -41.5267 I   0  0  0  0  0  0  0  0  0  0  0  0
   91.3965   95.2809  -43.8186 C   0  0  0  0  0  0  0  0  0  0  0  0
   91.3317   96.2935  -42.8985 O   0  0  0  0  0  0  0  0  0  0  0  0
   91.6233   96.1477  -42.0201 H   0  0  0  0  0  0  0  0  0  0  0  0
   91.6382   92.2191  -46.7158 C   0  0  0  0  0  0  0  0  0  0  0  0
   91.7097   91.3532  -47.5456 C   0  0  0  0  0  0  0  0  0  0  0  0
   91.7980   90.2951  -48.5594 C   0  0  0  0  0  0  0  0  0  0  0  0
   90.4876   90.0104  -49.0451 O   0  0  0  0  0  0  0  0  0  0  0  0
   90.0043   90.8058  -50.0470 C   0  0  0  0  0  0  0  0  0  0  0  0
   90.9342   91.7166  -50.5631 C   0  0  0  0  0  0  0  0  0  0  0  0
   90.5775   92.5906  -51.5912 C   0  0  0  0  0  0  0  0  0  0  0  0
   89.2872   92.5497  -52.1012 C   0  0  0  0  0  0  0  0  0  0  0  0
   88.9388   93.3855  -53.0879 F   0  0  0  0  0  0  0  0  0  0  0  0
   88.3510   91.6521  -51.6010 C   0  0  0  0  0  0  0  0  0  0  0  0
   88.7084   90.7766  -50.5703 C   0  0  0  0  0  0  0  0  0  0  0  0
   90.3820   96.8836  -45.5337 C   0  0  0  0  0  0  0  0  0  0  0  0
   86.5449   98.6243  -44.2823 C   0  0  0  0  0  0  0  0  0  0  0  0
   87.8493   98.8512  -43.4898 C   0  0  0  0  0  0  0  0  0  0  0  0
   89.1381   98.5860  -44.2647 C   0  0  0  0  0  0  0  0  0  0  0  0
   89.0966   97.2860  -44.9331 N   0  0  0  0  0  0  0  0  0  0  0  0
   87.9817   97.2029  -45.8780 C   0  0  0  0  0  0  0  0  0  0  0  0
   86.6436   97.3671  -45.1582 C   0  0  0  0  0  0  0  0  0  0  0  0
   86.0192   99.8652  -44.9018 N   0  0  0  0  0  0  0  0  0  0  0  0
   84.8498  101.1032  -43.0664 C   0  0  0  0  0  0  0  0  0  0  0  0
   86.0667  101.0144  -43.9849 C   0  0  0  0  0  0  0  0  0  0  0  0
   84.8000   99.7741  -45.7084 C   0  0  0  0  0  0  0  0  0  0  0  0
   84.6027  100.8031  -46.8214 C   0  0  0  0  0  0  0  0  0  0  0  0
 29 30  1  0
 30 28  1  0
 28 31  1  0
 31 32  1  0
 28 22  1  0
 22 23  1  0
 23 24  1  0
 24 25  1  0
 25 21  1  0
 21  1  1  0
  1  2  2  0
  2  3  1  0
  3 10  1  0
 10 11  3  0
 11 12  1  0
 12 13  1  0
 13 14  1  0
 14 15  2  0
 15 16  1  0
 16 17  2  0
 17 18  1  0
 17 19  1  0
 19 20  2  0
  3  4  2  0
  4  5  1  0
  5  6  1  0
  5  7  2  0
  7  8  1  0
 25 26  1  0
 26 27  1  0
 27 22  1  0
  7  1  1  0
 20 14  1  0
  8  9  1  0
M  END
> <minimizedAffinity>
-6.76982

> <CNNscore>
0.7940033674

> <CNNaffinity>
5.1699862480

> <CNN_VS>
4.1049866676

> <CNNaffinity_variance>
1.3210359812

$$$$



 32 34  0  0  0  0  0  0  0  0999 V2000
   90.9556   95.7429  -44.9812 C   0  0  0  0  0  0  0  0  0  0  0  0
   91.0073   94.7556  -45.9831 C   0  0  0  0  0  0  0  0  0  0  0  0
   91.4583   93.4632  -45.7000 C   0  0  0  0  0  0  0  0  0  0  0  0
   91.8720   93.1346  -44.4096 C   0  0  0  0  0  0  0  0  0  0  0  0
   91.8390   94.1051  -43.4077 C   0  0  0  0  0  0  0  0  0  0  0  0
   92.4713   93.5729  -41.4867 I   0  0  0  0  0  0  0  0  0  0  0  0
   91.3897   95.4021  -43.6920 C   0  0  0  0  0  0  0  0  0  0  0  0
   91.3702   96.3706  -42.7236 O   0  0  0  0  0  0  0  0  0  0  0  0
   91.6550   96.1693  -41.8540 H   0  0  0  0  0  0  0  0  0  0  0  0
   91.4943   92.4775  -46.7354 C   0  0  0  0  0  0  0  0  0  0  0  0
   91.5236   91.6514  -47.6073 C   0  0  0  0  0  0  0  0  0  0  0  0
   91.5599   90.6426  -48.6733 C   0  0  0  0  0  0  0  0  0  0  0  0
   90.3910   90.7800  -49.4788 O   0  0  0  0  0  0  0  0  0  0  0  0
   89.8029   89.6310  -49.9307 C   0  0  0  0  0  0  0  0  0  0  0  0
   88.9663   89.8060  -51.0398 C   0  0  0  0  0  0  0  0  0  0  0  0
   88.3011   88.7179  -51.6068 C   0  0  0  0  0  0  0  0  0  0  0  0
   88.4763   87.4540  -51.0603 C   0  0  0  0  0  0  0  0  0  0  0  0
   87.8412   86.4059  -51.6000 F   0  0  0  0  0  0  0  0  0  0  0  0
   89.3030   87.2617  -49.9595 C   0  0  0  0  0  0  0  0  0  0  0  0
   89.9691   88.3524  -49.3909 C   0  0  0  0  0  0  0  0  0  0  0  0
   90.4478   97.1302  -45.3249 C   0  0  0  0  0  0  0  0  0  0  0  0
   86.9589   99.1790  -43.6076 C   0  0  0  0  0  0  0  0  0  0  0  0
   88.3430   99.1984  -42.9257 C   0  0  0  0  0  0  0  0  0  0  0  0
   89.5222   98.8545  -43.8330 C   0  0  0  0  0  0  0  0  0  0  0  0
   89.2733   97.6232  -44.5818 N   0  0  0  0  0  0  0  0  0  0  0  0
   88.0806   97.7375  -45.4227 C   0  0  0  0  0  0  0  0  0  0  0  0
   86.8363   97.9911  -44.5726 C   0  0  0  0  0  0  0  0  0  0  0  0
   86.5310  100.5149  -44.0898 N   0  0  0  0  0  0  0  0  0  0  0  0
   87.4842  102.8240  -43.9206 C   0  0  0  0  0  0  0  0  0  0  0  0
   86.9466  101.5980  -43.1854 C   0  0  0  0  0  0  0  0  0  0  0  0
   85.1780  100.6547  -44.6330 C   0  0  0  0  0  0  0  0  0  0  0  0
   84.0484  100.9848  -43.6575 C   0  0  0  0  0  0  0  0  0  0  0  0
 29 30  1  0
 30 28  1  0
 28 31  1  0
 31 32  1  0
 28 22  1  0
 22 23  1  0
 23 24  1  0
 24 25  1  0
 25 21  1  0
 21  1  1  0
  1  2  2  0
  2  3  1  0
  3 10  1  0
 10 11  3  0
 11 12  1  0
 12 13  1  0
 13 14  1  0
 14 15  2  0
 15 16  1  0
 16 17  2  0
 17 18  1  0
 17 19  1  0
 19 20  2  0
  3  4  2  0
  4  5  1  0
  5  6  1  0
  5  7  2  0
  7  8  1  0
 25 26  1  0
 26 27  1  0
 27 22  1  0
  7  1  1  0
 20 14  1  0
  8  9  1  0
M  END
> <minimizedAffinity>
-6.70800

> <CNNscore>
0.7688630223

> <CNNaffinity>
5.2455062866

> <CNN_VS>
4.0330758095

> <CNNaffinity_variance>
1.1063773632

$$$$



 32 34  0  0  0  0  0  0  0  0999 V2000
   91.3163   97.4731  -42.5955 C   0  0  0  0  0  0  0  0  0  0  0  0
   90.7446   97.3695  -43.8775 C   0  0  0  0  0  0  0  0  0  0  0  0
   90.6328   96.1331  -44.5199 C   0  0  0  0  0  0  0  0  0  0  0  0
   91.0963   94.9763  -43.8944 C   0  0  0  0  0  0  0  0  0  0  0  0
   91.6772   95.0633  -42.6288 C   0  0  0  0  0  0  0  0  0  0  0  0
   92.3629   93.3057  -41.7266 I   0  0  0  0  0  0  0  0  0  0  0  0
   91.7923   96.3035  -41.9856 C   0  0  0  0  0  0  0  0  0  0  0  0
   92.3778   96.4072  -40.7517 O   0  0  0  0  0  0  0  0  0  0  0  0
   92.7042   95.6410  -40.3222 H   0  0  0  0  0  0  0  0  0  0  0  0
   90.0417   96.0554  -45.8197 C   0  0  0  0  0  0  0  0  0  0  0  0
   89.5440   95.9873  -46.9112 C   0  0  0  0  0  0  0  0  0  0  0  0
   88.9351   95.9036  -48.2444 C   0  0  0  0  0  0  0  0  0  0  0  0
   87.5785   96.3355  -48.1603 O   0  0  0  0  0  0  0  0  0  0  0  0
   86.6266   95.5216  -48.7095 C   0  0  0  0  0  0  0  0  0  0  0  0
   85.3749   95.5913  -48.0858 C   0  0  0  0  0  0  0  0  0  0  0  0
   84.3091   94.8149  -48.5429 C   0  0  0  0  0  0  0  0  0  0  0  0
   84.5000   93.9686  -49.6265 C   0  0  0  0  0  0  0  0  0  0  0  0
   83.4812   93.2213  -50.0700 F   0  0  0  0  0  0  0  0  0  0  0  0
   85.7357   93.8866  -50.2579 C   0  0  0  0  0  0  0  0  0  0  0  0
   86.8040   94.6644  -49.7993 C   0  0  0  0  0  0  0  0  0  0  0  0
   91.4079   98.8310  -41.9259 C   0  0  0  0  0  0  0  0  0  0  0  0
   90.1893  102.7090  -43.5979 C   0  0  0  0  0  0  0  0  0  0  0  0
   89.1646  101.6719  -43.0924 C   0  0  0  0  0  0  0  0  0  0  0  0
   89.7227  100.6106  -42.1468 C   0  0  0  0  0  0  0  0  0  0  0  0
   90.9320   99.9966  -42.6938 N   0  0  0  0  0  0  0  0  0  0  0  0
   91.9830  100.9897  -42.9215 C   0  0  0  0  0  0  0  0  0  0  0  0
   91.5301  102.0406  -43.9343 C   0  0  0  0  0  0  0  0  0  0  0  0
   90.2138  103.9463  -42.7804 N   0  0  0  0  0  0  0  0  0  0  0  0
   89.1519  104.3356  -40.5465 C   0  0  0  0  0  0  0  0  0  0  0  0
   88.9548  104.1627  -42.0511 C   0  0  0  0  0  0  0  0  0  0  0  0
   90.7969  105.1542  -43.3690 C   0  0  0  0  0  0  0  0  0  0  0  0
   89.8700  106.3427  -43.6231 C   0  0  0  0  0  0  0  0  0  0  0  0
 29 30  1  0
 30 28  1  0
 28 31  1  0
 31 32  1  0
 28 22  1  0
 22 23  1  0
 23 24  1  0
 24 25  1  0
 25 21  1  0
 21  1  1  0
  1  2  2  0
  2  3  1  0
  3 10  1  0
 10 11  3  0
 11 12  1  0
 12 13  1  0
 13 14  1  0
 14 15  2  0
 15 16  1  0
 16 17  2  0
 17 18  1  0
 17 19  1  0
 19 20  2  0
  3  4  2  0
  4  5  1  0
  5  6  1  0
  5  7  2  0
  7  8  1  0
 25 26  1  0
 26 27  1  0
 27 22  1  0
  7  1  1  0
 20 14  1  0
  8  9  1  0
M  END
> <minimizedAffinity>
-4.58075

> <CNNscore>
0.3566105962

> <CNNaffinity>
5.1030364037

> <CNN_VS>
1.8197968006

> <CNNaffinity_variance>
0.5825570226

$$$$



 32 34  0  0  0  0  0  0  0  0999 V2000
   87.2088   86.9881  -48.3384 C   0  0  0  0  0  0  0  0  0  0  0  0
   88.0260   88.1070  -48.0901 C   0  0  0  0  0  0  0  0  0  0  0  0
   89.2773   88.2360  -48.6996 C   0  0  0  0  0  0  0  0  0  0  0  0
   89.7383   87.2450  -49.5654 C   0  0  0  0  0  0  0  0  0  0  0  0
   88.9460   86.1234  -49.8125 C   0  0  0  0  0  0  0  0  0  0  0  0
   89.6752   84.6582  -51.1144 I   0  0  0  0  0  0  0  0  0  0  0  0
   87.6925   85.9922  -49.1990 C   0  0  0  0  0  0  0  0  0  0  0  0
   86.9122   84.8877  -49.4166 O   0  0  0  0  0  0  0  0  0  0  0  0
   87.2118   84.2075  -49.9871 H   0  0  0  0  0  0  0  0  0  0  0  0
   90.0845   89.3864  -48.4348 C   0  0  0  0  0  0  0  0  0  0  0  0
   90.7638   90.3515  -48.2098 C   0  0  0  0  0  0  0  0  0  0  0  0
   91.5945   91.5303  -47.9347 C   0  0  0  0  0  0  0  0  0  0  0  0
   92.0038   91.4980  -46.5688 O   0  0  0  0  0  0  0  0  0  0  0  0
   91.7855   92.6230  -45.8226 C   0  0  0  0  0  0  0  0  0  0  0  0
   91.2060   93.6837  -46.5297 C   0  0  0  0  0  0  0  0  0  0  0  0
   90.9265   94.8936  -45.8927 C   0  0  0  0  0  0  0  0  0  0  0  0
   91.2285   95.0384  -44.5456 C   0  0  0  0  0  0  0  0  0  0  0  0
   90.9624   96.1968  -43.9286 F   0  0  0  0  0  0  0  0  0  0  0  0
   91.8039   93.9962  -43.8280 C   0  0  0  0  0  0  0  0  0  0  0  0
   92.0846   92.7838  -44.4667 C   0  0  0  0  0  0  0  0  0  0  0  0
   85.8517   86.8907  -47.6680 C   0  0  0  0  0  0  0  0  0  0  0  0
   83.7504   90.1469  -45.5942 C   0  0  0  0  0  0  0  0  0  0  0  0
   84.4298   90.3473  -46.9651 C   0  0  0  0  0  0  0  0  0  0  0  0
   84.7054   89.0667  -47.7500 C   0  0  0  0  0  0  0  0  0  0  0  0
   85.3816   88.0710  -46.9193 N   0  0  0  0  0  0  0  0  0  0  0  0
   84.5791   87.7137  -45.7484 C   0  0  0  0  0  0  0  0  0  0  0  0
   84.3381   88.9334  -44.8597 C   0  0  0  0  0  0  0  0  0  0  0  0
   82.2741   90.2770  -45.6539 N   0  0  0  0  0  0  0  0  0  0  0  0
   81.0297   91.8463  -44.1514 C   0  0  0  0  0  0  0  0  0  0  0  0
   81.6732   90.4723  -44.3256 C   0  0  0  0  0  0  0  0  0  0  0  0
   81.5338   89.3704  -46.5346 C   0  0  0  0  0  0  0  0  0  0  0  0
   80.7726   89.9821  -47.7105 C   0  0  0  0  0  0  0  0  0  0  0  0
 29 30  1  0
 30 28  1  0
 28 31  1  0
 31 32  1  0
 28 22  1  0
 22 23  1  0
 23 24  1  0
 24 25  1  0
 25 21  1  0
 21  1  1  0
  1  2  2  0
  2  3  1  0
  3 10  1  0
 10 11  3  0
 11 12  1  0
 12 13  1  0
 13 14  1  0
 14 15  2  0
 15 16  1  0
 16 17  2  0
 17 18  1  0
 17 19  1  0
 19 20  2  0
  3  4  2  0
  4  5  1  0
  5  6  1  0
  5  7  2  0
  7  8  1  0
 25 26  1  0
 26 27  1  0
 27 22  1  0
  7  1  1  0
 20 14  1  0
  8  9  1  0
M  END
> <minimizedAffinity>
-5.79402

> <CNNscore>
0.2896247804

> <CNNaffinity>
4.5468249321

> <CNN_VS>
1.3168731928

> <CNNaffinity_variance>
1.3944135904

$$$$



 32 34  0  0  0  0  0  0  0  0999 V2000
   84.1429   96.5442  -46.2631 C   0  0  0  0  0  0  0  0  0  0  0  0
   85.5492   96.4916  -46.2370 C   0  0  0  0  0  0  0  0  0  0  0  0
   86.2940   97.4451  -45.5370 C   0  0  0  0  0  0  0  0  0  0  0  0
   85.6464   98.4738  -44.8538 C   0  0  0  0  0  0  0  0  0  0  0  0
   84.2533   98.5476  -44.8801 C   0  0  0  0  0  0  0  0  0  0  0  0
   83.3206  100.1076  -43.8458 I   0  0  0  0  0  0  0  0  0  0  0  0
   83.5062   97.5934  -45.5845 C   0  0  0  0  0  0  0  0  0  0  0  0
   82.1393   97.6642  -45.6356 O   0  0  0  0  0  0  0  0  0  0  0  0
   81.6891   98.3552  -45.1910 H   0  0  0  0  0  0  0  0  0  0  0  0
   87.7217   97.3643  -45.5215 C   0  0  0  0  0  0  0  0  0  0  0  0
   88.9210   97.2935  -45.5094 C   0  0  0  0  0  0  0  0  0  0  0  0
   90.3864   97.2064  -45.4954 C   0  0  0  0  0  0  0  0  0  0  0  0
   90.8617   97.6267  -44.2181 O   0  0  0  0  0  0  0  0  0  0  0  0
   91.1788   96.6499  -43.3151 C   0  0  0  0  0  0  0  0  0  0  0  0
   91.3598   95.3796  -43.8756 C   0  0  0  0  0  0  0  0  0  0  0  0
   91.6878   94.2879  -43.0704 C   0  0  0  0  0  0  0  0  0  0  0  0
   91.8344   94.4718  -41.7024 C   0  0  0  0  0  0  0  0  0  0  0  0
   92.1495   93.4283  -40.9244 F   0  0  0  0  0  0  0  0  0  0  0  0
   91.6585   95.7257  -41.1288 C   0  0  0  0  0  0  0  0  0  0  0  0
   91.3292   96.8197  -41.9358 C   0  0  0  0  0  0  0  0  0  0  0  0
   83.3696   95.4834  -47.0231 C   0  0  0  0  0  0  0  0  0  0  0  0
   82.3903   91.4409  -45.6025 C   0  0  0  0  0  0  0  0  0  0  0  0
   81.3803   92.6054  -45.5321 C   0  0  0  0  0  0  0  0  0  0  0  0
   81.6814   93.7867  -46.4518 C   0  0  0  0  0  0  0  0  0  0  0  0
   83.0689   94.2270  -46.3121 N   0  0  0  0  0  0  0  0  0  0  0  0
   84.0088   93.1539  -46.6403 C   0  0  0  0  0  0  0  0  0  0  0  0
   83.8304   91.9651  -45.6968 C   0  0  0  0  0  0  0  0  0  0  0  0
   81.9763   90.3698  -46.5413 N   0  0  0  0  0  0  0  0  0  0  0  0
   81.6093   89.2310  -44.3419 C   0  0  0  0  0  0  0  0  0  0  0  0
   81.3724   89.2201  -45.8506 C   0  0  0  0  0  0  0  0  0  0  0  0
   82.8834   90.0199  -47.6367 C   0  0  0  0  0  0  0  0  0  0  0  0
   83.5937   88.6681  -47.5703 C   0  0  0  0  0  0  0  0  0  0  0  0
 29 30  1  0
 30 28  1  0
 28 31  1  0
 31 32  1  0
 28 22  1  0
 22 23  1  0
 23 24  1  0
 24 25  1  0
 25 21  1  0
 21  1  1  0
  1  2  2  0
  2  3  1  0
  3 10  1  0
 10 11  3  0
 11 12  1  0
 12 13  1  0
 13 14  1  0
 14 15  2  0
 15 16  1  0
 16 17  2  0
 17 18  1  0
 17 19  1  0
 19 20  2  0
  3  4  2  0
  4  5  1  0
  5  6  1  0
  5  7  2  0
  7  8  1  0
 25 26  1  0
 26 27  1  0
 27 22  1  0
  7  1  1  0
 20 14  1  0
  8  9  1  0
M  END
> <minimizedAffinity>
-5.38870

> <CNNscore>
0.2507434189

> <CNNaffinity>
4.9046821594

> <CNN_VS>
1.2298167944

> <CNNaffinity_variance>
0.4929242134

$$$$
