


 25 25  0  0  0  0  0  0  0  0999 V2000
    8.2647   17.2436   18.1501 C   0  0  0  0  0  0  0  0  0  0  0  0
    8.1967   17.6630   19.5155 O   0  0  0  0  0  0  0  0  0  0  0  0
    6.8582   17.2365   17.6072 C   0  0  0  0  0  0  0  0  0  0  0  0
    6.3416   16.2565   16.8351 C   0  0  0  0  0  0  0  0  0  0  0  0
    7.1514   15.0624   16.3795 C   0  0  0  0  0  0  0  0  0  0  0  0
    7.1064   15.0049   14.9573 O   0  0  0  0  0  0  0  0  0  0  0  0
    8.6445   15.1576   16.7667 C   0  0  0  0  0  0  0  0  0  0  0  0
    9.2467   13.8671   16.8153 O   0  0  0  0  0  0  0  0  0  0  0  0
    8.8194   15.8046   18.1350 C   0  0  0  0  0  0  0  0  0  0  0  0
    7.8502   18.5680   19.5589 H   0  0  0  0  0  0  0  0  0  0  0  0
    7.5036   15.8093   14.5884 H   0  0  0  0  0  0  0  0  0  0  0  0
    8.8121   13.3330   17.4984 H   0  0  0  0  0  0  0  0  0  0  0  0
    9.2333   18.1909   17.3498 C   0  0  0  0  0  0  0  0  0  0  0  0
   10.6619   18.4396   17.9173 N   0  0  0  0  0  0  0  0  0  0  0  0
   11.3914   19.4679   17.0131 C   0  0  0  0  0  0  0  0  0  0  0  0
   11.4652   17.1435   17.7339 C   0  0  0  0  0  0  0  0  0  0  0  0
   10.7655   19.0003   19.3281 C   0  0  0  0  0  0  0  0  0  0  0  0
    9.6248   20.5181   21.0772 C   0  0  0  0  0  0  0  0  0  0  0  0
   10.2454   20.3762   19.7065 N   0  0  0  0  0  0  0  0  0  0  0  0
    9.2959   20.9544   18.6564 C   0  0  0  0  0  0  0  0  0  0  0  0
   11.4840   21.3188   19.6886 C   0  0  0  0  0  0  0  0  0  0  0  0
    4.8711   16.2837   16.4459 C   0  0  0  0  0  0  0  0  0  0  0  0
    4.0315   15.2670   17.2227 C   0  0  0  0  0  0  0  0  0  0  0  0
    2.8653   15.9043   17.7416 O   0  0  0  0  0  0  0  0  0  0  0  0
    3.1278   16.6246   18.3359 H   0  0  0  0  0  0  0  0  0  0  0  0
 18 19  1  0
 19 20  1  0
 19 21  1  0
 19 17  1  0
 17 14  1  0
 14 15  1  0
 14 16  1  0
 14 13  1  0
 13  1  1  0
  1  2  1  0
  1  3  1  0
  3  4  2  0
  4 22  1  0
 22 23  1  0
 23 24  1  0
  4  5  1  0
  5  6  1  0
  5  7  1  0
  7  8  1  0
  7  9  1  0
  9  1  1  0
  2 10  1  0
 24 25  1  0
  6 11  1  0
  8 12  1  0
M  CHG 1  14   1
M  CHG 1  19   1
M  END
> <minimizedAffinity>
-3.94094

> <CNNscore>
0.2622734904

> <CNNaffinity>
2.6877758503

> <CNN_VS>
0.7049323320

> <CNNaffinity_variance>
1.4799185991

$$$$



 25 25  0  0  0  0  0  0  0  0999 V2000
    7.5664   16.9358   17.9674 C   0  0  0  0  0  0  0  0  0  0  0  0
    7.3540   17.2490   19.3465 O   0  0  0  0  0  0  0  0  0  0  0  0
    6.2218   16.6244   17.3607 C   0  0  0  0  0  0  0  0  0  0  0  0
    5.9820   15.5947   16.5206 C   0  0  0  0  0  0  0  0  0  0  0  0
    7.0699   14.6558   16.0472 C   0  0  0  0  0  0  0  0  0  0  0  0
    7.0876   14.6697   14.6233 O   0  0  0  0  0  0  0  0  0  0  0  0
    8.4826   15.0820   16.5067 C   0  0  0  0  0  0  0  0  0  0  0  0
    9.3754   13.9717   16.5223 O   0  0  0  0  0  0  0  0  0  0  0  0
    8.4509   15.6736   17.9104 C   0  0  0  0  0  0  0  0  0  0  0  0
    6.7988   18.0414   19.4163 H   0  0  0  0  0  0  0  0  0  0  0  0
    7.2918   15.5652   14.3112 H   0  0  0  0  0  0  0  0  0  0  0  0
    9.0593   13.3116   17.1590 H   0  0  0  0  0  0  0  0  0  0  0  0
    8.3050   18.1303   17.2578 C   0  0  0  0  0  0  0  0  0  0  0  0
    9.6665   18.6104   17.8412 N   0  0  0  0  0  0  0  0  0  0  0  0
    9.4307   19.1882   19.2616 C   0  0  0  0  0  0  0  0  0  0  0  0
   10.1230   19.8222   17.0152 C   0  0  0  0  0  0  0  0  0  0  0  0
   10.7618   17.5674   18.0084 C   0  0  0  0  0  0  0  0  0  0  0  0
   12.9820   17.0740   19.2298 C   0  0  0  0  0  0  0  0  0  0  0  0
   12.2159   17.9333   18.2506 N   0  0  0  0  0  0  0  0  0  0  0  0
   12.3974   19.4068   18.6172 C   0  0  0  0  0  0  0  0  0  0  0  0
   12.9296   17.7716   16.8767 C   0  0  0  0  0  0  0  0  0  0  0  0
    4.5620   15.2927   16.0659 C   0  0  0  0  0  0  0  0  0  0  0  0
    4.1383   13.8512   16.3570 C   0  0  0  0  0  0  0  0  0  0  0  0
    3.8397   13.7099   17.7450 O   0  0  0  0  0  0  0  0  0  0  0  0
    4.6273   13.9249   18.2687 H   0  0  0  0  0  0  0  0  0  0  0  0
 18 19  1  0
 19 20  1  0
 19 21  1  0
 19 17  1  0
 17 14  1  0
 14 15  1  0
 14 16  1  0
 14 13  1  0
 13  1  1  0
  1  2  1  0
  1  3  1  0
  3  4  2  0
  4 22  1  0
 22 23  1  0
 23 24  1  0
  4  5  1  0
  5  6  1  0
  5  7  1  0
  7  8  1  0
  7  9  1  0
  9  1  1  0
  2 10  1  0
 24 25  1  0
  6 11  1  0
  8 12  1  0
M  CHG 1  14   1
M  CHG 1  19   1
M  END
> <minimizedAffinity>
-3.97962

> <CNNscore>
0.2395348996

> <CNNaffinity>
2.6365540028

> <CNN_VS>
0.6315466762

> <CNNaffinity_variance>
1.6419887543

$$$$



 25 25  0  0  0  0  0  0  0  0999 V2000
    7.6998   17.0442   18.0601 C   0  0  0  0  0  0  0  0  0  0  0  0
    7.6950   17.4097   19.4426 O   0  0  0  0  0  0  0  0  0  0  0  0
    6.2757   16.7464   17.6647 C   0  0  0  0  0  0  0  0  0  0  0  0
    5.8965   15.6951   16.9069 C   0  0  0  0  0  0  0  0  0  0  0  0
    6.8855   14.7133   16.3178 C   0  0  0  0  0  0  0  0  0  0  0  0
    6.6978   14.6781   14.9066 O   0  0  0  0  0  0  0  0  0  0  0  0
    8.3580   15.1190   16.5535 C   0  0  0  0  0  0  0  0  0  0  0  0
    9.2211   13.9875   16.4825 O   0  0  0  0  0  0  0  0  0  0  0  0
    8.5412   15.7588   17.9241 C   0  0  0  0  0  0  0  0  0  0  0  0
    7.1718   18.2178   19.5617 H   0  0  0  0  0  0  0  0  0  0  0  0
    6.8729   15.5568   14.5351 H   0  0  0  0  0  0  0  0  0  0  0  0
    8.9870   13.3578   17.1823 H   0  0  0  0  0  0  0  0  0  0  0  0
    8.3523   18.1947   17.2076 C   0  0  0  0  0  0  0  0  0  0  0  0
    8.3770   19.6337   17.8018 N   0  0  0  0  0  0  0  0  0  0  0  0
    6.9221   20.0788   18.1054 C   0  0  0  0  0  0  0  0  0  0  0  0
    8.8354   20.5869   16.6881 C   0  0  0  0  0  0  0  0  0  0  0  0
    9.1399   19.8398   19.1022 C   0  0  0  0  0  0  0  0  0  0  0  0
   11.4610   20.6323   18.2966 C   0  0  0  0  0  0  0  0  0  0  0  0
   10.6516   19.7264   19.1957 N   0  0  0  0  0  0  0  0  0  0  0  0
   11.1430   18.2865   19.0416 C   0  0  0  0  0  0  0  0  0  0  0  0
   11.0181   20.1204   20.6563 C   0  0  0  0  0  0  0  0  0  0  0  0
    4.4199   15.4138   16.6723 C   0  0  0  0  0  0  0  0  0  0  0  0
    3.5218   16.5919   17.0568 C   0  0  0  0  0  0  0  0  0  0  0  0
    2.6383   16.1993   18.1060 O   0  0  0  0  0  0  0  0  0  0  0  0
    2.0868   15.4604   17.8047 H   0  0  0  0  0  0  0  0  0  0  0  0
 18 19  1  0
 19 20  1  0
 19 21  1  0
 19 17  1  0
 17 14  1  0
 14 15  1  0
 14 16  1  0
 14 13  1  0
 13  1  1  0
  1  2  1  0
  1  3  1  0
  3  4  2  0
  4 22  1  0
 22 23  1  0
 23 24  1  0
  4  5  1  0
  5  6  1  0
  5  7  1  0
  7  8  1  0
  7  9  1  0
  9  1  1  0
  2 10  1  0
 24 25  1  0
  6 11  1  0
  8 12  1  0
M  CHG 1  14   1
M  CHG 1  19   1
M  END
> <minimizedAffinity>
-3.84389

> <CNNscore>
0.2182930857

> <CNNaffinity>
2.8320617676

> <CNN_VS>
0.6182194948

> <CNNaffinity_variance>
1.2180534601

$$$$



 25 25  0  0  0  0  0  0  0  0999 V2000
    9.1985   15.5326   16.7018 C   0  0  0  0  0  0  0  0  0  0  0  0
    9.1803   14.1071   16.5903 O   0  0  0  0  0  0  0  0  0  0  0  0
   10.6332   15.9543   16.8940 C   0  0  0  0  0  0  0  0  0  0  0  0
   11.0446   16.8826   17.7842 C   0  0  0  0  0  0  0  0  0  0  0  0
   10.0848   17.6523   18.6647 C   0  0  0  0  0  0  0  0  0  0  0  0
   10.2881   19.0441   18.4423 O   0  0  0  0  0  0  0  0  0  0  0  0
    8.6009   17.3692   18.3387 C   0  0  0  0  0  0  0  0  0  0  0  0
    7.7650   17.6542   19.4568 O   0  0  0  0  0  0  0  0  0  0  0  0
    8.3885   15.9089   17.9592 C   0  0  0  0  0  0  0  0  0  0  0  0
    9.6833   13.8377   15.8059 H   0  0  0  0  0  0  0  0  0  0  0  0
   10.0967   19.2547   17.5149 H   0  0  0  0  0  0  0  0  0  0  0  0
    8.0062   17.0753   20.1968 H   0  0  0  0  0  0  0  0  0  0  0  0
    8.5286   16.1746   15.4308 C   0  0  0  0  0  0  0  0  0  0  0  0
    7.1660   15.6009   14.9424 N   0  0  0  0  0  0  0  0  0  0  0  0
    7.3483   15.0116   13.5189 C   0  0  0  0  0  0  0  0  0  0  0  0
    6.2110   16.7863   14.7375 C   0  0  0  0  0  0  0  0  0  0  0  0
    6.5443   14.4812   15.7643 C   0  0  0  0  0  0  0  0  0  0  0  0
    4.3298   14.5951   14.4425 C   0  0  0  0  0  0  0  0  0  0  0  0
    5.0779   14.1003   15.6589 N   0  0  0  0  0  0  0  0  0  0  0  0
    4.2876   14.4527   16.9198 C   0  0  0  0  0  0  0  0  0  0  0  0
    5.0463   12.5456   15.5881 C   0  0  0  0  0  0  0  0  0  0  0  0
   12.5297   17.1423   17.9879 C   0  0  0  0  0  0  0  0  0  0  0  0
   12.9005   17.3517   19.4579 C   0  0  0  0  0  0  0  0  0  0  0  0
   14.0332   16.5486   19.7860 O   0  0  0  0  0  0  0  0  0  0  0  0
   13.8203   15.6138   19.6388 H   0  0  0  0  0  0  0  0  0  0  0  0
 18 19  1  0
 19 20  1  0
 19 21  1  0
 19 17  1  0
 17 14  1  0
 14 15  1  0
 14 16  1  0
 14 13  1  0
 13  1  1  0
  1  2  1  0
  1  3  1  0
  3  4  2  0
  4 22  1  0
 22 23  1  0
 23 24  1  0
  4  5  1  0
  5  6  1  0
  5  7  1  0
  7  8  1  0
  7  9  1  0
  9  1  1  0
  2 10  1  0
 24 25  1  0
  6 11  1  0
  8 12  1  0
M  CHG 1  14   1
M  CHG 1  19   1
M  END
> <minimizedAffinity>
-4.28031

> <CNNscore>
0.1850526184

> <CNNaffinity>
2.5914928913

> <CNN_VS>
0.4795625508

> <CNNaffinity_variance>
1.7782765627

$$$$



 25 25  0  0  0  0  0  0  0  0999 V2000
    9.5747   15.3855   16.4223 C   0  0  0  0  0  0  0  0  0  0  0  0
    9.0151   14.0924   16.6666 O   0  0  0  0  0  0  0  0  0  0  0  0
   10.8705   15.1859   15.6780 C   0  0  0  0  0  0  0  0  0  0  0  0
   12.0168   15.8467   15.9476 C   0  0  0  0  0  0  0  0  0  0  0  0
   12.1118   16.9176   17.0121 C   0  0  0  0  0  0  0  0  0  0  0  0
   12.5927   18.1130   16.4056 O   0  0  0  0  0  0  0  0  0  0  0  0
   10.7463   17.2671   17.6458 C   0  0  0  0  0  0  0  0  0  0  0  0
   10.9111   17.8392   18.9404 O   0  0  0  0  0  0  0  0  0  0  0  0
    9.8729   16.0272   17.7928 C   0  0  0  0  0  0  0  0  0  0  0  0
    8.8158   13.6614   15.8209 H   0  0  0  0  0  0  0  0  0  0  0  0
   11.9659   18.4052   15.7253 H   0  0  0  0  0  0  0  0  0  0  0  0
   11.3372   17.1946   19.5268 H   0  0  0  0  0  0  0  0  0  0  0  0
    8.5397   16.2739   15.6378 C   0  0  0  0  0  0  0  0  0  0  0  0
    7.0294   15.9056   15.7279 N   0  0  0  0  0  0  0  0  0  0  0  0
    6.2120   16.9202   14.8857 C   0  0  0  0  0  0  0  0  0  0  0  0
    6.5747   16.1653   17.1718 C   0  0  0  0  0  0  0  0  0  0  0  0
    6.6132   14.5333   15.2189 C   0  0  0  0  0  0  0  0  0  0  0  0
    5.0181   12.5059   15.3161 C   0  0  0  0  0  0  0  0  0  0  0  0
    5.1938   14.0068   15.3403 N   0  0  0  0  0  0  0  0  0  0  0  0
    4.2418   14.6464   14.3286 C   0  0  0  0  0  0  0  0  0  0  0  0
    4.6805   14.4840   16.7302 C   0  0  0  0  0  0  0  0  0  0  0  0
   13.3016   15.4782   15.2210 C   0  0  0  0  0  0  0  0  0  0  0  0
   14.4080   15.0108   16.1694 C   0  0  0  0  0  0  0  0  0  0  0  0
   14.7670   13.6647   15.8613 O   0  0  0  0  0  0  0  0  0  0  0  0
   13.9915   13.0914   15.9656 H   0  0  0  0  0  0  0  0  0  0  0  0
 18 19  1  0
 19 20  1  0
 19 21  1  0
 19 17  1  0
 17 14  1  0
 14 15  1  0
 14 16  1  0
 14 13  1  0
 13  1  1  0
  1  2  1  0
  1  3  1  0
  3  4  2  0
  4 22  1  0
 22 23  1  0
 23 24  1  0
  4  5  1  0
  5  6  1  0
  5  7  1  0
  7  8  1  0
  7  9  1  0
  9  1  1  0
  2 10  1  0
 24 25  1  0
  6 11  1  0
  8 12  1  0
M  CHG 1  14   1
M  CHG 1  19   1
M  END
> <minimizedAffinity>
-3.91931

> <CNNscore>
0.1775829494

> <CNNaffinity>
2.8454227448

> <CNN_VS>
0.5052985549

> <CNNaffinity_variance>
1.0599515438

$$$$



 25 25  0  0  0  0  0  0  0  0999 V2000
    6.8431   16.2035   17.1350 C   0  0  0  0  0  0  0  0  0  0  0  0
    8.1718   15.9274   17.5857 O   0  0  0  0  0  0  0  0  0  0  0  0
    6.0449   16.6614   18.3293 C   0  0  0  0  0  0  0  0  0  0  0  0
    4.7886   16.2544   18.6110 C   0  0  0  0  0  0  0  0  0  0  0  0
    4.0123   15.3172   17.7121 C   0  0  0  0  0  0  0  0  0  0  0  0
    2.7889   15.9506   17.3515 O   0  0  0  0  0  0  0  0  0  0  0  0
    4.7457   14.9970   16.3900 C   0  0  0  0  0  0  0  0  0  0  0  0
    4.2905   13.7666   15.8339 O   0  0  0  0  0  0  0  0  0  0  0  0
    6.2493   14.8814   16.6073 C   0  0  0  0  0  0  0  0  0  0  0  0
    8.5740   16.7423   17.9249 H   0  0  0  0  0  0  0  0  0  0  0  0
    2.9790   16.7657   16.8612 H   0  0  0  0  0  0  0  0  0  0  0  0
    4.4874   13.0419   16.4479 H   0  0  0  0  0  0  0  0  0  0  0  0
    6.8845   17.2642   15.9734 C   0  0  0  0  0  0  0  0  0  0  0  0
    8.2731   17.7549   15.4679 N   0  0  0  0  0  0  0  0  0  0  0  0
    8.9118   18.6632   16.5514 C   0  0  0  0  0  0  0  0  0  0  0  0
    8.0268   18.7013   14.2835 C   0  0  0  0  0  0  0  0  0  0  0  0
    9.3209   16.6941   15.1641 C   0  0  0  0  0  0  0  0  0  0  0  0
   11.1317   18.3979   14.4693 C   0  0  0  0  0  0  0  0  0  0  0  0
   10.5882   16.9904   14.3811 N   0  0  0  0  0  0  0  0  0  0  0  0
   10.4809   16.5781   12.9124 C   0  0  0  0  0  0  0  0  0  0  0  0
   11.6845   16.0609   14.9788 C   0  0  0  0  0  0  0  0  0  0  0  0
    4.1200   16.6783   19.9101 C   0  0  0  0  0  0  0  0  0  0  0  0
    4.3735   15.6973   21.0570 C   0  0  0  0  0  0  0  0  0  0  0  0
    5.5666   16.0646   21.7477 O   0  0  0  0  0  0  0  0  0  0  0  0
    6.3166   16.0403   21.1330 H   0  0  0  0  0  0  0  0  0  0  0  0
 18 19  1  0
 19 20  1  0
 19 21  1  0
 19 17  1  0
 17 14  1  0
 14 15  1  0
 14 16  1  0
 14 13  1  0
 13  1  1  0
  1  2  1  0
  1  3  1  0
  3  4  2  0
  4 22  1  0
 22 23  1  0
 23 24  1  0
  4  5  1  0
  5  6  1  0
  5  7  1  0
  7  8  1  0
  7  9  1  0
  9  1  1  0
  2 10  1  0
 24 25  1  0
  6 11  1  0
  8 12  1  0
M  CHG 1  14   1
M  CHG 1  19   1
M  END
> <minimizedAffinity>
-3.46465

> <CNNscore>
0.1700069606

> <CNNaffinity>
2.6396784782

> <CNN_VS>
0.4487637281

> <CNNaffinity_variance>
1.0915633440

$$$$



 25 25  0  0  0  0  0  0  0  0999 V2000
   11.0326   22.2363   34.9220 C   0  0  0  0  0  0  0  0  0  0  0  0
   10.9631   22.9660   36.1498 O   0  0  0  0  0  0  0  0  0  0  0  0
   11.8874   21.0185   35.1657 C   0  0  0  0  0  0  0  0  0  0  0  0
   12.8409   20.5721   34.3202 C   0  0  0  0  0  0  0  0  0  0  0  0
   13.1232   21.2286   32.9866 C   0  0  0  0  0  0  0  0  0  0  0  0
   12.9919   20.2455   31.9648 O   0  0  0  0  0  0  0  0  0  0  0  0
   12.1241   22.3556   32.6407 C   0  0  0  0  0  0  0  0  0  0  0  0
   12.6866   23.2733   31.7071 O   0  0  0  0  0  0  0  0  0  0  0  0
   11.7270   23.1416   33.8842 C   0  0  0  0  0  0  0  0  0  0  0  0
   10.5298   22.4214   36.8255 H   0  0  0  0  0  0  0  0  0  0  0  0
   12.0835   19.9054   31.9581 H   0  0  0  0  0  0  0  0  0  0  0  0
   13.4651   23.6979   32.1001 H   0  0  0  0  0  0  0  0  0  0  0  0
    9.5802   21.8855   34.4283 C   0  0  0  0  0  0  0  0  0  0  0  0
    8.5258   23.0291   34.3573 N   0  0  0  0  0  0  0  0  0  0  0  0
    8.4525   23.5574   32.9005 C   0  0  0  0  0  0  0  0  0  0  0  0
    9.0767   24.2175   35.1593 C   0  0  0  0  0  0  0  0  0  0  0  0
    7.0923   22.6821   34.7316 C   0  0  0  0  0  0  0  0  0  0  0  0
    6.3205   25.1132   34.3336 C   0  0  0  0  0  0  0  0  0  0  0  0
    5.9939   23.7258   34.8361 N   0  0  0  0  0  0  0  0  0  0  0  0
    5.4061   23.8207   36.2447 C   0  0  0  0  0  0  0  0  0  0  0  0
    4.8258   23.2042   33.9491 C   0  0  0  0  0  0  0  0  0  0  0  0
   13.7345   19.4077   34.7206 C   0  0  0  0  0  0  0  0  0  0  0  0
   13.0564   18.4473   35.7003 C   0  0  0  0  0  0  0  0  0  0  0  0
   12.6898   17.2479   35.0202 O   0  0  0  0  0  0  0  0  0  0  0  0
   12.0748   17.4593   34.3005 H   0  0  0  0  0  0  0  0  0  0  0  0
 18 19  1  0
 19 20  1  0
 19 21  1  0
 19 17  1  0
 17 14  1  0
 14 15  1  0
 14 16  1  0
 14 13  1  0
 13  1  1  0
  1  2  1  0
  1  3  1  0
  3  4  2  0
  4 22  1  0
 22 23  1  0
 23 24  1  0
  4  5  1  0
  5  6  1  0
  5  7  1  0
  7  8  1  0
  7  9  1  0
  9  1  1  0
  2 10  1  0
 24 25  1  0
  6 11  1  0
  8 12  1  0
M  CHG 1  14   1
M  CHG 1  19   1
M  END
> <minimizedAffinity>
-4.26030

> <CNNscore>
0.1673998982

> <CNNaffinity>
3.2877304554

> <CNN_VS>
0.5503657460

> <CNNaffinity_variance>
0.4388100207

$$$$



 25 25  0  0  0  0  0  0  0  0999 V2000
    6.2720   15.9121   16.1556 C   0  0  0  0  0  0  0  0  0  0  0  0
    6.8345   16.7369   15.1319 O   0  0  0  0  0  0  0  0  0  0  0  0
    6.1741   14.5112   15.6069 C   0  0  0  0  0  0  0  0  0  0  0  0
    5.1050   13.7015   15.7639 C   0  0  0  0  0  0  0  0  0  0  0  0
    3.8876   14.1019   16.5682 C   0  0  0  0  0  0  0  0  0  0  0  0
    3.6761   13.1233   17.5809 O   0  0  0  0  0  0  0  0  0  0  0  0
    4.0582   15.4547   17.2956 C   0  0  0  0  0  0  0  0  0  0  0  0
    2.7946   16.0474   17.5827 O   0  0  0  0  0  0  0  0  0  0  0  0
    4.8528   16.4405   16.4480 C   0  0  0  0  0  0  0  0  0  0  0  0
    7.7307   16.4290   14.9246 H   0  0  0  0  0  0  0  0  0  0  0  0
    4.4449   13.0980   18.1718 H   0  0  0  0  0  0  0  0  0  0  0  0
    2.3275   16.2309   16.7526 H   0  0  0  0  0  0  0  0  0  0  0  0
    7.1494   16.0077   17.4584 C   0  0  0  0  0  0  0  0  0  0  0  0
    8.6782   16.2603   17.3046 N   0  0  0  0  0  0  0  0  0  0  0  0
    9.3825   15.9205   18.6446 C   0  0  0  0  0  0  0  0  0  0  0  0
    8.8839   17.7741   17.1468 C   0  0  0  0  0  0  0  0  0  0  0  0
    9.4168   15.4537   16.2466 C   0  0  0  0  0  0  0  0  0  0  0  0
   11.7370   16.5799   16.3578 C   0  0  0  0  0  0  0  0  0  0  0  0
   10.6362   15.9826   15.5118 N   0  0  0  0  0  0  0  0  0  0  0  0
   10.2699   16.9575   14.3920 C   0  0  0  0  0  0  0  0  0  0  0  0
   11.2608   14.7554   14.7859 C   0  0  0  0  0  0  0  0  0  0  0  0
    5.0564   12.3531   15.0611 C   0  0  0  0  0  0  0  0  0  0  0  0
    4.8734   12.4781   13.5468 C   0  0  0  0  0  0  0  0  0  0  0  0
    4.9249   11.1837   12.9489 O   0  0  0  0  0  0  0  0  0  0  0  0
    5.7848   10.7754   13.1355 H   0  0  0  0  0  0  0  0  0  0  0  0
 18 19  1  0
 19 20  1  0
 19 21  1  0
 19 17  1  0
 17 14  1  0
 14 15  1  0
 14 16  1  0
 14 13  1  0
 13  1  1  0
  1  2  1  0
  1  3  1  0
  3  4  2  0
  4 22  1  0
 22 23  1  0
 23 24  1  0
  4  5  1  0
  5  6  1  0
  5  7  1  0
  7  8  1  0
  7  9  1  0
  9  1  1  0
  2 10  1  0
 24 25  1  0
  6 11  1  0
  8 12  1  0
M  CHG 1  14   1
M  CHG 1  19   1
M  END
> <minimizedAffinity>
-4.09012

> <CNNscore>
0.1620058417

> <CNNaffinity>
2.9085919857

> <CNN_VS>
0.4712089002

> <CNNaffinity_variance>
0.9883695245

$$$$



 25 25  0  0  0  0  0  0  0  0999 V2000
    9.1968   18.4217   18.7892 C   0  0  0  0  0  0  0  0  0  0  0  0
    8.2603   17.5715   19.4563 O   0  0  0  0  0  0  0  0  0  0  0  0
   10.4107   17.5900   18.4609 C   0  0  0  0  0  0  0  0  0  0  0  0
   11.6864   17.9993   18.6297 C   0  0  0  0  0  0  0  0  0  0  0  0
   12.0416   19.3835   19.1267 C   0  0  0  0  0  0  0  0  0  0  0  0
   12.8936   20.0009   18.1670 O   0  0  0  0  0  0  0  0  0  0  0  0
   10.8127   20.3079   19.2798 C   0  0  0  0  0  0  0  0  0  0  0  0
   11.0711   21.3580   20.2077 O   0  0  0  0  0  0  0  0  0  0  0  0
    9.5990   19.5339   19.7792 C   0  0  0  0  0  0  0  0  0  0  0  0
    7.9870   16.8590   18.8576 H   0  0  0  0  0  0  0  0  0  0  0  0
   12.4228   20.0846   17.3231 H   0  0  0  0  0  0  0  0  0  0  0  0
   11.2497   20.9795   21.0828 H   0  0  0  0  0  0  0  0  0  0  0  0
    8.5232   19.0633   17.5201 C   0  0  0  0  0  0  0  0  0  0  0  0
    7.8279   18.1204   16.4943 N   0  0  0  0  0  0  0  0  0  0  0  0
    8.9147   17.3308   15.7182 C   0  0  0  0  0  0  0  0  0  0  0  0
    7.1711   19.0044   15.4238 C   0  0  0  0  0  0  0  0  0  0  0  0
    6.8811   17.0645   17.0459 C   0  0  0  0  0  0  0  0  0  0  0  0
    4.4259   17.1716   16.2554 C   0  0  0  0  0  0  0  0  0  0  0  0
    5.4266   17.3544   17.3731 N   0  0  0  0  0  0  0  0  0  0  0  0
    5.2311   18.7309   18.0103 C   0  0  0  0  0  0  0  0  0  0  0  0
    5.0300   16.3390   18.4843 C   0  0  0  0  0  0  0  0  0  0  0  0
   12.8379   17.0350   18.3875 C   0  0  0  0  0  0  0  0  0  0  0  0
   13.5697   16.6477   19.6746 C   0  0  0  0  0  0  0  0  0  0  0  0
   14.8343   17.3063   19.7242 O   0  0  0  0  0  0  0  0  0  0  0  0
   15.3679   17.0399   18.9592 H   0  0  0  0  0  0  0  0  0  0  0  0
 18 19  1  0
 19 20  1  0
 19 21  1  0
 19 17  1  0
 17 14  1  0
 14 15  1  0
 14 16  1  0
 14 13  1  0
 13  1  1  0
  1  2  1  0
  1  3  1  0
  3  4  2  0
  4 22  1  0
 22 23  1  0
 23 24  1  0
  4  5  1  0
  5  6  1  0
  5  7  1  0
  7  8  1  0
  7  9  1  0
  9  1  1  0
  2 10  1  0
 24 25  1  0
  6 11  1  0
  8 12  1  0
M  CHG 1  14   1
M  CHG 1  19   1
M  END
> <minimizedAffinity>
-3.32849

> <CNNscore>
0.1590544879

> <CNNaffinity>
2.7417650223

> <CNN_VS>
0.4360900223

> <CNNaffinity_variance>
0.8953418732

$$$$
