


 36 39  0  0  0  0  0  0  0  0999 V2000
   12.1513   53.5011   92.4345 C   0  0  0  0  0  0  0  0  0  0  0  0
   10.9698   53.1413   92.3357 O   0  0  0  0  0  0  0  0  0  0  0  0
   12.8262   54.0164   91.3494 N   0  0  0  0  0  0  0  0  0  0  0  0
   14.1817   54.5504   91.3455 C   0  0  0  0  0  0  0  0  0  0  0  0
   14.4411   54.9774   89.9038 C   0  0  0  0  0  0  0  0  0  0  0  0
   15.3263   56.0835   89.8068 O   0  0  0  0  0  0  0  0  0  0  0  0
   13.0480   55.3759   89.4247 C   0  0  0  0  0  0  0  0  0  0  0  0
   12.1364   54.3508   90.1003 C   0  0  0  0  0  0  0  0  0  0  0  0
   14.9647   56.8317   90.3072 H   0  0  0  0  0  0  0  0  0  0  0  0
   10.9105   55.2578   96.3320 C   0  0  0  0  0  0  0  0  0  0  0  0
   11.7594   54.9829   95.1267 C   0  0  0  0  0  0  0  0  0  0  0  0
   12.1311   55.8933   94.3916 O   0  0  0  0  0  0  0  0  0  0  0  0
   12.0912   53.6703   94.8913 N   0  0  0  0  0  0  0  0  0  0  0  0
   11.9456   52.5588   95.8095 C   0  0  0  0  0  0  0  0  0  0  0  0
   13.1027   51.6294   95.4471 C   0  0  0  0  0  0  0  0  0  0  0  0
   14.3177   52.0301   96.0796 O   0  0  0  0  0  0  0  0  0  0  0  0
   13.2485   51.8272   93.9489 C   0  0  0  0  0  0  0  0  0  0  0  0
   12.9343   53.3148   93.7511 C   0  0  0  0  0  0  0  0  0  0  0  0
   14.5261   52.9440   95.8300 H   0  0  0  0  0  0  0  0  0  0  0  0
   11.9627   53.0738   89.2520 C   0  0  0  0  0  0  0  0  0  0  0  0
   12.3934   51.9765   89.5924 O   0  0  0  0  0  0  0  0  0  0  0  0
   11.2351   53.2764   88.0963 N   0  0  0  0  0  0  0  0  0  0  0  0
   11.0381   54.1968   87.8079 H   0  0  0  0  0  0  0  0  0  0  0  0
   10.7579   52.1748   87.3032 C   0  0  0  0  0  0  0  0  0  0  0  0
   11.6176   51.9859   86.0800 C   0  0  0  0  0  0  0  0  0  0  0  0
   12.4106   53.0357   85.5874 C   0  0  0  0  0  0  0  0  0  0  0  0
   13.1890   52.8554   84.4437 C   0  0  0  0  0  0  0  0  0  0  0  0
   13.1854   51.6289   83.7713 C   0  0  0  0  0  0  0  0  0  0  0  0
   12.3893   50.5844   84.2593 C   0  0  0  0  0  0  0  0  0  0  0  0
   11.5991   50.7677   85.3928 C   0  0  0  0  0  0  0  0  0  0  0  0
   14.0166   51.4121   82.5938 C   0  0  0  0  0  0  0  0  0  0  0  0
   15.5560   52.1743   82.4634 S   0  0  0  0  0  0  0  0  0  0  0  0
   15.7508   51.4658   80.9213 C   0  0  0  0  0  0  0  0  0  0  0  0
   14.7698   50.6927   80.5049 N   0  0  0  0  0  0  0  0  0  0  0  0
   13.7717   50.6497   81.4680 C   0  0  0  0  0  0  0  0  0  0  0  0
   12.5721   49.8007   81.2117 C   0  0  0  0  0  0  0  0  0  0  0  0
 10 11  1  0
 11 12  2  0
 11 13  1  0
 13 14  1  0
 14 15  1  0
 15 16  1  0
 15 17  1  0
 17 18  1  0
 18  1  1  0
  1  2  2  0
  1  3  1  0
  3  4  1  0
  4  5  1  0
  5  6  1  0
  5  7  1  0
  7  8  1  0
  8 20  1  0
 20 21  2  0
 20 22  1  0
 22 24  1  0
 24 25  1  0
 25 26  2  0
 26 27  1  0
 27 28  2  0
 28 31  1  0
 31 32  1  0
 32 33  1  0
 33 34  2  0
 34 35  1  0
 35 36  1  0
 28 29  1  0
 29 30  2  0
 18 13  1  0
  8  3  1  0
 30 25  1  0
 35 31  2  0
 16 19  1  0
  6  9  1  0
 22 23  1  0
M  END
> <minimizedAffinity>
-9.81579

> <CNNscore>
0.9668672085

> <CNNaffinity>
6.7088904381

> <CNN_VS>
6.4866061211

> <CNNaffinity_variance>
0.7002128959

$$$$



 36 39  0  0  0  0  0  0  0  0999 V2000
   11.5993   53.1332   89.3645 C   0  0  0  0  0  0  0  0  0  0  0  0
   12.1911   52.0716   89.1241 O   0  0  0  0  0  0  0  0  0  0  0  0
   10.2463   53.2559   89.1345 N   0  0  0  0  0  0  0  0  0  0  0  0
    9.4152   54.4111   89.4469 C   0  0  0  0  0  0  0  0  0  0  0  0
    8.0106   54.0312   88.9879 C   0  0  0  0  0  0  0  0  0  0  0  0
    6.9919   54.6372   89.7698 O   0  0  0  0  0  0  0  0  0  0  0  0
    7.9979   52.5185   89.1898 C   0  0  0  0  0  0  0  0  0  0  0  0
    9.4141   52.0985   88.7945 C   0  0  0  0  0  0  0  0  0  0  0  0
    7.1078   54.3889   90.7003 H   0  0  0  0  0  0  0  0  0  0  0  0
   13.1321   53.6312   93.5140 C   0  0  0  0  0  0  0  0  0  0  0  0
   12.3407   53.9085   92.2709 C   0  0  0  0  0  0  0  0  0  0  0  0
   11.1149   53.9711   92.3000 O   0  0  0  0  0  0  0  0  0  0  0  0
   13.0551   54.0831   91.1100 N   0  0  0  0  0  0  0  0  0  0  0  0
   14.4835   54.2965   90.9922 C   0  0  0  0  0  0  0  0  0  0  0  0
   14.6214   55.1822   89.7551 C   0  0  0  0  0  0  0  0  0  0  0  0
   14.4124   56.5591   90.0675 O   0  0  0  0  0  0  0  0  0  0  0  0
   13.4865   54.7102   88.8638 C   0  0  0  0  0  0  0  0  0  0  0  0
   12.3651   54.3797   89.8558 C   0  0  0  0  0  0  0  0  0  0  0  0
   13.5360   56.6703   90.4680 H   0  0  0  0  0  0  0  0  0  0  0  0
    9.5367   51.8037   87.2850 C   0  0  0  0  0  0  0  0  0  0  0  0
    9.7248   52.6757   86.4426 O   0  0  0  0  0  0  0  0  0  0  0  0
    9.4617   50.4594   86.9795 N   0  0  0  0  0  0  0  0  0  0  0  0
    9.1717   49.8245   87.6739 H   0  0  0  0  0  0  0  0  0  0  0  0
    9.7970   49.9639   85.6711 C   0  0  0  0  0  0  0  0  0  0  0  0
   10.9104   48.9517   85.7528 C   0  0  0  0  0  0  0  0  0  0  0  0
   11.6457   48.7833   86.9381 C   0  0  0  0  0  0  0  0  0  0  0  0
   12.6863   47.8558   86.9972 C   0  0  0  0  0  0  0  0  0  0  0  0
   13.0129   47.0862   85.8759 C   0  0  0  0  0  0  0  0  0  0  0  0
   12.2836   47.2592   84.6923 C   0  0  0  0  0  0  0  0  0  0  0  0
   11.2538   48.1963   84.6267 C   0  0  0  0  0  0  0  0  0  0  0  0
   14.0755   46.0899   85.9288 C   0  0  0  0  0  0  0  0  0  0  0  0
   13.8626   44.5506   85.1853 S   0  0  0  0  0  0  0  0  0  0  0  0
   15.4127   44.0941   85.7389 C   0  0  0  0  0  0  0  0  0  0  0  0
   16.0827   45.0028   86.4164 N   0  0  0  0  0  0  0  0  0  0  0  0
   15.3217   46.1585   86.5212 C   0  0  0  0  0  0  0  0  0  0  0  0
   15.9072   47.3338   87.2292 C   0  0  0  0  0  0  0  0  0  0  0  0
 10 11  1  0
 11 12  2  0
 11 13  1  0
 13 14  1  0
 14 15  1  0
 15 16  1  0
 15 17  1  0
 17 18  1  0
 18  1  1  0
  1  2  2  0
  1  3  1  0
  3  4  1  0
  4  5  1  0
  5  6  1  0
  5  7  1  0
  7  8  1  0
  8 20  1  0
 20 21  2  0
 20 22  1  0
 22 24  1  0
 24 25  1  0
 25 26  2  0
 26 27  1  0
 27 28  2  0
 28 31  1  0
 31 32  1  0
 32 33  1  0
 33 34  2  0
 34 35  1  0
 35 36  1  0
 28 29  1  0
 29 30  2  0
 18 13  1  0
  8  3  1  0
 30 25  1  0
 35 31  2  0
 16 19  1  0
  6  9  1  0
 22 23  1  0
M  END
> <minimizedAffinity>
-7.86427

> <CNNscore>
0.9310225248

> <CNNaffinity>
6.2826366425

> <CNN_VS>
5.8492760658

> <CNNaffinity_variance>
0.0797447190

$$$$



 36 39  0  0  0  0  0  0  0  0999 V2000
   11.5731   53.0736   89.4933 C   0  0  0  0  0  0  0  0  0  0  0  0
   12.1946   52.0662   89.1274 O   0  0  0  0  0  0  0  0  0  0  0  0
   10.1962   53.1074   89.4547 N   0  0  0  0  0  0  0  0  0  0  0  0
    9.3421   54.1884   89.9285 C   0  0  0  0  0  0  0  0  0  0  0  0
    7.9155   53.7256   89.6479 C   0  0  0  0  0  0  0  0  0  0  0  0
    6.9773   54.2293   90.5872 O   0  0  0  0  0  0  0  0  0  0  0  0
    8.0307   52.2097   89.7817 C   0  0  0  0  0  0  0  0  0  0  0  0
    9.4031   51.9061   89.1794 C   0  0  0  0  0  0  0  0  0  0  0  0
    7.2370   53.9572   91.4813 H   0  0  0  0  0  0  0  0  0  0  0  0
   13.1426   53.7510   93.6034 C   0  0  0  0  0  0  0  0  0  0  0  0
   12.3305   53.9667   92.3614 C   0  0  0  0  0  0  0  0  0  0  0  0
   11.1040   54.0026   92.4037 O   0  0  0  0  0  0  0  0  0  0  0  0
   13.0271   54.1166   91.1864 N   0  0  0  0  0  0  0  0  0  0  0  0
   14.4487   54.3580   91.0433 C   0  0  0  0  0  0  0  0  0  0  0  0
   14.5517   55.2028   89.7746 C   0  0  0  0  0  0  0  0  0  0  0  0
   14.3147   56.5847   90.0415 O   0  0  0  0  0  0  0  0  0  0  0  0
   13.4176   54.6743   88.9145 C   0  0  0  0  0  0  0  0  0  0  0  0
   12.3157   54.3534   89.9313 C   0  0  0  0  0  0  0  0  0  0  0  0
   13.4407   56.6900   90.4489 H   0  0  0  0  0  0  0  0  0  0  0  0
    9.3345   51.6743   87.6555 C   0  0  0  0  0  0  0  0  0  0  0  0
    9.2565   50.5602   87.1475 O   0  0  0  0  0  0  0  0  0  0  0  0
    9.3217   52.8437   86.9217 N   0  0  0  0  0  0  0  0  0  0  0  0
    9.5268   53.6952   87.3713 H   0  0  0  0  0  0  0  0  0  0  0  0
    9.0158   52.8480   85.5158 C   0  0  0  0  0  0  0  0  0  0  0  0
   10.2324   52.4856   84.7037 C   0  0  0  0  0  0  0  0  0  0  0  0
   10.1065   51.8013   83.4832 C   0  0  0  0  0  0  0  0  0  0  0  0
   11.2407   51.4550   82.7482 C   0  0  0  0  0  0  0  0  0  0  0  0
   12.5165   51.7807   83.2199 C   0  0  0  0  0  0  0  0  0  0  0  0
   12.6417   52.4574   84.4403 C   0  0  0  0  0  0  0  0  0  0  0  0
   11.5105   52.7905   85.1835 C   0  0  0  0  0  0  0  0  0  0  0  0
   13.7107   51.4555   82.4502 C   0  0  0  0  0  0  0  0  0  0  0  0
   15.2056   52.2410   82.7902 S   0  0  0  0  0  0  0  0  0  0  0  0
   15.9290   51.3681   81.5124 C   0  0  0  0  0  0  0  0  0  0  0  0
   15.1508   50.5255   80.8660 N   0  0  0  0  0  0  0  0  0  0  0  0
   13.8737   50.5638   81.4075 C   0  0  0  0  0  0  0  0  0  0  0  0
   12.8331   49.6577   80.8403 C   0  0  0  0  0  0  0  0  0  0  0  0
 10 11  1  0
 11 12  2  0
 11 13  1  0
 13 14  1  0
 14 15  1  0
 15 16  1  0
 15 17  1  0
 17 18  1  0
 18  1  1  0
  1  2  2  0
  1  3  1  0
  3  4  1  0
  4  5  1  0
  5  6  1  0
  5  7  1  0
  7  8  1  0
  8 20  1  0
 20 21  2  0
 20 22  1  0
 22 24  1  0
 24 25  1  0
 25 26  2  0
 26 27  1  0
 27 28  2  0
 28 31  1  0
 31 32  1  0
 32 33  1  0
 33 34  2  0
 34 35  1  0
 35 36  1  0
 28 29  1  0
 29 30  2  0
 18 13  1  0
  8  3  1  0
 30 25  1  0
 35 31  2  0
 16 19  1  0
  6  9  1  0
 22 23  1  0
M  END
> <minimizedAffinity>
-9.28574

> <CNNscore>
0.9205850363

> <CNNaffinity>
6.9902324677

> <CNN_VS>
6.4351034164

> <CNNaffinity_variance>
0.3843289316

$$$$



 36 39  0  0  0  0  0  0  0  0999 V2000
   10.7249   53.4752   92.0093 C   0  0  0  0  0  0  0  0  0  0  0  0
    9.6579   53.1510   91.4694 O   0  0  0  0  0  0  0  0  0  0  0  0
   11.8131   53.8534   91.2535 N   0  0  0  0  0  0  0  0  0  0  0  0
   13.0930   54.3340   91.7568 C   0  0  0  0  0  0  0  0  0  0  0  0
   13.9373   54.6038   90.5148 C   0  0  0  0  0  0  0  0  0  0  0  0
   14.8671   55.6611   90.6987 O   0  0  0  0  0  0  0  0  0  0  0  0
   12.8851   55.0029   89.4839 C   0  0  0  0  0  0  0  0  0  0  0  0
   11.7062   54.0853   89.8104 C   0  0  0  0  0  0  0  0  0  0  0  0
   14.3925   56.4688   90.9505 H   0  0  0  0  0  0  0  0  0  0  0  0
   13.4980   50.6493   94.0441 C   0  0  0  0  0  0  0  0  0  0  0  0
   12.2101   51.3137   93.6584 C   0  0  0  0  0  0  0  0  0  0  0  0
   11.2826   50.6686   93.1780 O   0  0  0  0  0  0  0  0  0  0  0  0
   12.1280   52.6695   93.8669 N   0  0  0  0  0  0  0  0  0  0  0  0
   13.0296   53.4837   94.6569 C   0  0  0  0  0  0  0  0  0  0  0  0
   12.1340   54.5900   95.2118 C   0  0  0  0  0  0  0  0  0  0  0  0
   11.4410   54.1673   96.3857 O   0  0  0  0  0  0  0  0  0  0  0  0
   11.1206   54.8037   94.1016 C   0  0  0  0  0  0  0  0  0  0  0  0
   10.9009   53.3939   93.5402 C   0  0  0  0  0  0  0  0  0  0  0  0
   10.9171   53.3761   96.1846 H   0  0  0  0  0  0  0  0  0  0  0  0
   11.7914   52.7366   89.0659 C   0  0  0  0  0  0  0  0  0  0  0  0
   12.3386   51.7433   89.5342 O   0  0  0  0  0  0  0  0  0  0  0  0
   11.1511   52.7424   87.8428 N   0  0  0  0  0  0  0  0  0  0  0  0
   10.8541   53.5995   87.4602 H   0  0  0  0  0  0  0  0  0  0  0  0
   10.9073   51.5262   87.1138 C   0  0  0  0  0  0  0  0  0  0  0  0
   11.7206   51.4919   85.8456 C   0  0  0  0  0  0  0  0  0  0  0  0
   12.3006   52.6628   85.3296 C   0  0  0  0  0  0  0  0  0  0  0  0
   13.0367   52.6229   84.1450 C   0  0  0  0  0  0  0  0  0  0  0  0
   13.2019   51.4176   83.4548 C   0  0  0  0  0  0  0  0  0  0  0  0
   12.6177   50.2515   83.9664 C   0  0  0  0  0  0  0  0  0  0  0  0
   11.8691   50.2924   85.1415 C   0  0  0  0  0  0  0  0  0  0  0  0
   13.9943   51.3509   82.2333 C   0  0  0  0  0  0  0  0  0  0  0  0
   15.6581   51.7968   82.2502 S   0  0  0  0  0  0  0  0  0  0  0  0
   15.7349   51.4870   80.5721 C   0  0  0  0  0  0  0  0  0  0  0  0
   14.6259   51.0603   80.0050 N   0  0  0  0  0  0  0  0  0  0  0  0
   13.6216   50.9704   80.9585 C   0  0  0  0  0  0  0  0  0  0  0  0
   12.2802   50.4743   80.5341 C   0  0  0  0  0  0  0  0  0  0  0  0
 10 11  1  0
 11 12  2  0
 11 13  1  0
 13 14  1  0
 14 15  1  0
 15 16  1  0
 15 17  1  0
 17 18  1  0
 18  1  1  0
  1  2  2  0
  1  3  1  0
  3  4  1  0
  4  5  1  0
  5  6  1  0
  5  7  1  0
  7  8  1  0
  8 20  1  0
 20 21  2  0
 20 22  1  0
 22 24  1  0
 24 25  1  0
 25 26  2  0
 26 27  1  0
 27 28  2  0
 28 31  1  0
 31 32  1  0
 32 33  1  0
 33 34  2  0
 34 35  1  0
 35 36  1  0
 28 29  1  0
 29 30  2  0
 18 13  1  0
  8  3  1  0
 30 25  1  0
 35 31  2  0
 16 19  1  0
  6  9  1  0
 22 23  1  0
M  END
> <minimizedAffinity>
-8.95015

> <CNNscore>
0.7660150528

> <CNNaffinity>
6.1655616760

> <CNN_VS>
4.7229132652

> <CNNaffinity_variance>
0.5796787143

$$$$



 36 39  0  0  0  0  0  0  0  0999 V2000
   12.2028   53.4539   92.5317 C   0  0  0  0  0  0  0  0  0  0  0  0
   11.0219   53.0885   92.4483 O   0  0  0  0  0  0  0  0  0  0  0  0
   12.8480   54.0121   91.4497 N   0  0  0  0  0  0  0  0  0  0  0  0
   14.1993   54.5565   91.4326 C   0  0  0  0  0  0  0  0  0  0  0  0
   14.4211   55.0357   90.0011 C   0  0  0  0  0  0  0  0  0  0  0  0
   15.2959   56.1514   89.9221 O   0  0  0  0  0  0  0  0  0  0  0  0
   13.0142   55.4398   89.5693 C   0  0  0  0  0  0  0  0  0  0  0  0
   12.1262   54.3845   90.2298 C   0  0  0  0  0  0  0  0  0  0  0  0
   14.9413   56.8788   90.4568 H   0  0  0  0  0  0  0  0  0  0  0  0
   11.0350   55.0503   96.5197 C   0  0  0  0  0  0  0  0  0  0  0  0
   11.8583   54.8301   95.2857 C   0  0  0  0  0  0  0  0  0  0  0  0
   12.2030   55.7714   94.5769 O   0  0  0  0  0  0  0  0  0  0  0  0
   12.1984   53.5311   94.9939 N   0  0  0  0  0  0  0  0  0  0  0  0
   12.0862   52.3846   95.8730 C   0  0  0  0  0  0  0  0  0  0  0  0
   13.2442   51.4827   95.4496 C   0  0  0  0  0  0  0  0  0  0  0  0
   14.4694   51.8735   96.0686 O   0  0  0  0  0  0  0  0  0  0  0  0
   13.3529   51.7376   93.9569 C   0  0  0  0  0  0  0  0  0  0  0  0
   13.0183   53.2278   93.8222 C   0  0  0  0  0  0  0  0  0  0  0  0
   14.6622   52.7984   95.8486 H   0  0  0  0  0  0  0  0  0  0  0  0
   11.9413   53.1366   89.3415 C   0  0  0  0  0  0  0  0  0  0  0  0
   12.2795   52.0090   89.6870 O   0  0  0  0  0  0  0  0  0  0  0  0
   11.3156   53.4048   88.1404 N   0  0  0  0  0  0  0  0  0  0  0  0
   11.1955   54.3408   87.8597 H   0  0  0  0  0  0  0  0  0  0  0  0
   10.8348   52.3494   87.2889 C   0  0  0  0  0  0  0  0  0  0  0  0
    9.3386   52.4319   87.1295 C   0  0  0  0  0  0  0  0  0  0  0  0
    8.6818   51.7201   86.1118 C   0  0  0  0  0  0  0  0  0  0  0  0
    7.2982   51.8179   85.9622 C   0  0  0  0  0  0  0  0  0  0  0  0
    6.5491   52.6294   86.8205 C   0  0  0  0  0  0  0  0  0  0  0  0
    7.2054   53.3441   87.8311 C   0  0  0  0  0  0  0  0  0  0  0  0
    8.5895   53.2597   87.9724 C   0  0  0  0  0  0  0  0  0  0  0  0
    5.0993   52.7186   86.6995 C   0  0  0  0  0  0  0  0  0  0  0  0
    4.1731   51.3250   86.2902 S   0  0  0  0  0  0  0  0  0  0  0  0
    2.7593   52.2832   86.3222 C   0  0  0  0  0  0  0  0  0  0  0  0
    2.9203   53.5527   86.6316 N   0  0  0  0  0  0  0  0  0  0  0  0
    4.2651   53.8082   86.8597 C   0  0  0  0  0  0  0  0  0  0  0  0
    4.6696   55.1880   87.2570 C   0  0  0  0  0  0  0  0  0  0  0  0
 10 11  1  0
 11 12  2  0
 11 13  1  0
 13 14  1  0
 14 15  1  0
 15 16  1  0
 15 17  1  0
 17 18  1  0
 18  1  1  0
  1  2  2  0
  1  3  1  0
  3  4  1  0
  4  5  1  0
  5  6  1  0
  5  7  1  0
  7  8  1  0
  8 20  1  0
 20 21  2  0
 20 22  1  0
 22 24  1  0
 24 25  1  0
 25 26  2  0
 26 27  1  0
 27 28  2  0
 28 31  1  0
 31 32  1  0
 32 33  1  0
 33 34  2  0
 34 35  1  0
 35 36  1  0
 28 29  1  0
 29 30  2  0
 18 13  1  0
  8  3  1  0
 30 25  1  0
 35 31  2  0
 16 19  1  0
  6  9  1  0
 22 23  1  0
M  END
> <minimizedAffinity>
-7.58798

> <CNNscore>
0.6285255551

> <CNNaffinity>
6.1566185951

> <CNN_VS>
3.8695921898

> <CNNaffinity_variance>
0.2320950031

$$$$



 36 39  0  0  0  0  0  0  0  0999 V2000
   12.2512   53.1867   92.1919 C   0  0  0  0  0  0  0  0  0  0  0  0
   11.1284   52.6887   92.0291 O   0  0  0  0  0  0  0  0  0  0  0  0
   12.8581   53.9059   91.1855 N   0  0  0  0  0  0  0  0  0  0  0  0
   14.1309   54.6098   91.2695 C   0  0  0  0  0  0  0  0  0  0  0  0
   14.3397   55.2281   89.8903 C   0  0  0  0  0  0  0  0  0  0  0  0
   15.0710   56.4444   89.9360 O   0  0  0  0  0  0  0  0  0  0  0  0
   12.9089   55.4924   89.4299 C   0  0  0  0  0  0  0  0  0  0  0  0
   12.1373   54.2867   89.9676 C   0  0  0  0  0  0  0  0  0  0  0  0
   14.6106   57.0772   90.5092 H   0  0  0  0  0  0  0  0  0  0  0  0
   11.0620   54.8436   96.1487 C   0  0  0  0  0  0  0  0  0  0  0  0
   11.8973   54.5954   94.9283 C   0  0  0  0  0  0  0  0  0  0  0  0
   12.2707   55.5228   94.2158 O   0  0  0  0  0  0  0  0  0  0  0  0
   12.2149   53.2870   94.6530 N   0  0  0  0  0  0  0  0  0  0  0  0
   12.0674   52.1513   95.5409 C   0  0  0  0  0  0  0  0  0  0  0  0
   13.2125   51.2222   95.1417 C   0  0  0  0  0  0  0  0  0  0  0  0
   14.4369   51.5940   95.7739 O   0  0  0  0  0  0  0  0  0  0  0  0
   13.3466   51.4609   93.6483 C   0  0  0  0  0  0  0  0  0  0  0  0
   13.0443   52.9563   93.4955 C   0  0  0  0  0  0  0  0  0  0  0  0
   14.6514   52.5126   95.5482 H   0  0  0  0  0  0  0  0  0  0  0  0
   12.1394   53.1026   88.9784 C   0  0  0  0  0  0  0  0  0  0  0  0
   13.0811   52.8503   88.2334 O   0  0  0  0  0  0  0  0  0  0  0  0
   10.9991   52.3273   89.0467 N   0  0  0  0  0  0  0  0  0  0  0  0
   10.2245   52.6561   89.5577 H   0  0  0  0  0  0  0  0  0  0  0  0
   10.9154   51.0503   88.3891 C   0  0  0  0  0  0  0  0  0  0  0  0
   10.8360   51.2238   86.8943 C   0  0  0  0  0  0  0  0  0  0  0  0
   11.7767   52.0108   86.2092 C   0  0  0  0  0  0  0  0  0  0  0  0
   11.6832   52.1793   84.8273 C   0  0  0  0  0  0  0  0  0  0  0  0
   10.6492   51.5706   84.1085 C   0  0  0  0  0  0  0  0  0  0  0  0
    9.7076   50.7913   84.7932 C   0  0  0  0  0  0  0  0  0  0  0  0
    9.7905   50.6345   86.1758 C   0  0  0  0  0  0  0  0  0  0  0  0
   10.5544   51.7092   82.6607 C   0  0  0  0  0  0  0  0  0  0  0  0
   11.6512   50.8681   81.6326 S   0  0  0  0  0  0  0  0  0  0  0  0
   10.9021   51.5921   80.2789 C   0  0  0  0  0  0  0  0  0  0  0  0
    9.8892   52.3947   80.5309 N   0  0  0  0  0  0  0  0  0  0  0  0
    9.6774   52.4590   81.9008 C   0  0  0  0  0  0  0  0  0  0  0  0
    8.5502   53.2944   82.4078 C   0  0  0  0  0  0  0  0  0  0  0  0
 10 11  1  0
 11 12  2  0
 11 13  1  0
 13 14  1  0
 14 15  1  0
 15 16  1  0
 15 17  1  0
 17 18  1  0
 18  1  1  0
  1  2  2  0
  1  3  1  0
  3  4  1  0
  4  5  1  0
  5  6  1  0
  5  7  1  0
  7  8  1  0
  8 20  1  0
 20 21  2  0
 20 22  1  0
 22 24  1  0
 24 25  1  0
 25 26  2  0
 26 27  1  0
 27 28  2  0
 28 31  1  0
 31 32  1  0
 32 33  1  0
 33 34  2  0
 34 35  1  0
 35 36  1  0
 28 29  1  0
 29 30  2  0
 18 13  1  0
  8  3  1  0
 30 25  1  0
 35 31  2  0
 16 19  1  0
  6  9  1  0
 22 23  1  0
M  END
> <minimizedAffinity>
-7.66695

> <CNNscore>
0.6070628762

> <CNNaffinity>
6.0226631165

> <CNN_VS>
3.6561350822

> <CNNaffinity_variance>
0.2907589972

$$$$



 36 39  0  0  0  0  0  0  0  0999 V2000
   11.8671   51.8215   91.0906 C   0  0  0  0  0  0  0  0  0  0  0  0
   12.6667   51.0437   90.5513 O   0  0  0  0  0  0  0  0  0  0  0  0
   11.0974   52.6795   90.3357 N   0  0  0  0  0  0  0  0  0  0  0  0
   10.0661   53.5817   90.8306 C   0  0  0  0  0  0  0  0  0  0  0  0
    9.5343   54.3006   89.5943 C   0  0  0  0  0  0  0  0  0  0  0  0
    8.1645   54.6565   89.7097 O   0  0  0  0  0  0  0  0  0  0  0  0
    9.7139   53.2500   88.5020 C   0  0  0  0  0  0  0  0  0  0  0  0
   11.0349   52.5761   88.8751 C   0  0  0  0  0  0  0  0  0  0  0  0
    7.6362   53.8598   89.8744 H   0  0  0  0  0  0  0  0  0  0  0  0
   12.1210   48.3112   93.8162 C   0  0  0  0  0  0  0  0  0  0  0  0
   11.5447   49.5166   93.1353 C   0  0  0  0  0  0  0  0  0  0  0  0
   10.4881   49.4495   92.5138 O   0  0  0  0  0  0  0  0  0  0  0  0
   12.2585   50.6861   93.2414 N   0  0  0  0  0  0  0  0  0  0  0  0
   13.3546   50.9561   94.1500 C   0  0  0  0  0  0  0  0  0  0  0  0
   13.2295   52.4504   94.4422 C   0  0  0  0  0  0  0  0  0  0  0  0
   12.2749   52.7074   95.4716 O   0  0  0  0  0  0  0  0  0  0  0  0
   12.6975   53.0144   93.1368 C   0  0  0  0  0  0  0  0  0  0  0  0
   11.7584   51.9148   92.6271 C   0  0  0  0  0  0  0  0  0  0  0  0
   11.4151   52.3391   95.2146 H   0  0  0  0  0  0  0  0  0  0  0  0
   12.2527   53.2942   88.2571 C   0  0  0  0  0  0  0  0  0  0  0  0
   13.2259   53.6529   88.9124 O   0  0  0  0  0  0  0  0  0  0  0  0
   12.1619   53.4513   86.8884 N   0  0  0  0  0  0  0  0  0  0  0  0
   11.3037   53.2725   86.4403 H   0  0  0  0  0  0  0  0  0  0  0  0
   13.2911   53.8702   86.1013 C   0  0  0  0  0  0  0  0  0  0  0  0
   13.4155   53.0294   84.8568 C   0  0  0  0  0  0  0  0  0  0  0  0
   14.5473   53.1286   84.0304 C   0  0  0  0  0  0  0  0  0  0  0  0
   14.6440   52.3585   82.8710 C   0  0  0  0  0  0  0  0  0  0  0  0
   13.6135   51.4823   82.5154 C   0  0  0  0  0  0  0  0  0  0  0  0
   12.4822   51.3886   83.3365 C   0  0  0  0  0  0  0  0  0  0  0  0
   12.3769   52.1686   84.4869 C   0  0  0  0  0  0  0  0  0  0  0  0
   13.7116   50.6465   81.3252 C   0  0  0  0  0  0  0  0  0  0  0  0
   12.5932   49.3613   81.0702 S   0  0  0  0  0  0  0  0  0  0  0  0
   13.4186   48.9592   79.6297 C   0  0  0  0  0  0  0  0  0  0  0  0
   14.4481   49.7171   79.3147 N   0  0  0  0  0  0  0  0  0  0  0  0
   14.6165   50.6973   80.2825 C   0  0  0  0  0  0  0  0  0  0  0  0
   15.7153   51.6906   80.1053 C   0  0  0  0  0  0  0  0  0  0  0  0
 10 11  1  0
 11 12  2  0
 11 13  1  0
 13 14  1  0
 14 15  1  0
 15 16  1  0
 15 17  1  0
 17 18  1  0
 18  1  1  0
  1  2  2  0
  1  3  1  0
  3  4  1  0
  4  5  1  0
  5  6  1  0
  5  7  1  0
  7  8  1  0
  8 20  1  0
 20 21  2  0
 20 22  1  0
 22 24  1  0
 24 25  1  0
 25 26  2  0
 26 27  1  0
 27 28  2  0
 28 31  1  0
 31 32  1  0
 32 33  1  0
 33 34  2  0
 34 35  1  0
 35 36  1  0
 28 29  1  0
 29 30  2  0
 18 13  1  0
  8  3  1  0
 30 25  1  0
 35 31  2  0
 16 19  1  0
  6  9  1  0
 22 23  1  0
M  END
> <minimizedAffinity>
-8.69874

> <CNNscore>
0.5074948668

> <CNNaffinity>
6.3308348656

> <CNN_VS>
3.2128663063

> <CNNaffinity_variance>
0.2706148326

$$$$



 36 39  0  0  0  0  0  0  0  0999 V2000
   11.4770   51.6624   90.9786 C   0  0  0  0  0  0  0  0  0  0  0  0
   12.2598   50.8613   90.4491 O   0  0  0  0  0  0  0  0  0  0  0  0
   10.8021   52.5958   90.2224 N   0  0  0  0  0  0  0  0  0  0  0  0
    9.7978   53.5367   90.7007 C   0  0  0  0  0  0  0  0  0  0  0  0
    9.3795   54.3372   89.4710 C   0  0  0  0  0  0  0  0  0  0  0  0
    8.0281   54.7694   89.5276 O   0  0  0  0  0  0  0  0  0  0  0  0
    9.5603   53.3244   88.3437 C   0  0  0  0  0  0  0  0  0  0  0  0
   10.8170   52.5575   88.7574 C   0  0  0  0  0  0  0  0  0  0  0  0
    7.4464   53.9996   89.6273 H   0  0  0  0  0  0  0  0  0  0  0  0
   13.1055   54.8615   93.6111 C   0  0  0  0  0  0  0  0  0  0  0  0
   12.8850   53.4899   93.0462 C   0  0  0  0  0  0  0  0  0  0  0  0
   13.8230   52.8188   92.6256 O   0  0  0  0  0  0  0  0  0  0  0  0
   11.5893   53.0328   93.0226 N   0  0  0  0  0  0  0  0  0  0  0  0
   10.4534   53.6030   93.7186 C   0  0  0  0  0  0  0  0  0  0  0  0
    9.5699   52.3962   94.0297 C   0  0  0  0  0  0  0  0  0  0  0  0
    9.9951   51.7239   95.2147 O   0  0  0  0  0  0  0  0  0  0  0  0
    9.8057   51.4801   92.8421 C   0  0  0  0  0  0  0  0  0  0  0  0
   11.2865   51.6977   92.5096 C   0  0  0  0  0  0  0  0  0  0  0  0
   10.9205   51.4502   95.1168 H   0  0  0  0  0  0  0  0  0  0  0  0
   12.1072   53.2265   88.2395 C   0  0  0  0  0  0  0  0  0  0  0  0
   13.0578   53.5048   88.9635 O   0  0  0  0  0  0  0  0  0  0  0  0
   12.1072   53.4381   86.8752 N   0  0  0  0  0  0  0  0  0  0  0  0
   11.2688   53.3250   86.3716 H   0  0  0  0  0  0  0  0  0  0  0  0
   13.3028   53.8197   86.1716 C   0  0  0  0  0  0  0  0  0  0  0  0
   13.4580   53.0147   84.9072 C   0  0  0  0  0  0  0  0  0  0  0  0
   14.5885   53.1708   84.0877 C   0  0  0  0  0  0  0  0  0  0  0  0
   14.7135   52.4333   82.9100 C   0  0  0  0  0  0  0  0  0  0  0  0
   13.7128   51.5336   82.5288 C   0  0  0  0  0  0  0  0  0  0  0  0
   12.5827   51.3832   83.3430 C   0  0  0  0  0  0  0  0  0  0  0  0
   12.4488   52.1305   84.5120 C   0  0  0  0  0  0  0  0  0  0  0  0
   13.8414   50.7313   81.3186 C   0  0  0  0  0  0  0  0  0  0  0  0
   12.7169   49.4689   80.9883 S   0  0  0  0  0  0  0  0  0  0  0  0
   13.5861   49.0977   79.5654 C   0  0  0  0  0  0  0  0  0  0  0  0
   14.6349   49.8508   79.3078 N   0  0  0  0  0  0  0  0  0  0  0  0
   14.7820   50.8003   80.3091 C   0  0  0  0  0  0  0  0  0  0  0  0
   15.8983   51.7838   80.1983 C   0  0  0  0  0  0  0  0  0  0  0  0
 10 11  1  0
 11 12  2  0
 11 13  1  0
 13 14  1  0
 14 15  1  0
 15 16  1  0
 15 17  1  0
 17 18  1  0
 18  1  1  0
  1  2  2  0
  1  3  1  0
  3  4  1  0
  4  5  1  0
  5  6  1  0
  5  7  1  0
  7  8  1  0
  8 20  1  0
 20 21  2  0
 20 22  1  0
 22 24  1  0
 24 25  1  0
 25 26  2  0
 26 27  1  0
 27 28  2  0
 28 31  1  0
 31 32  1  0
 32 33  1  0
 33 34  2  0
 34 35  1  0
 35 36  1  0
 28 29  1  0
 29 30  2  0
 18 13  1  0
  8  3  1  0
 30 25  1  0
 35 31  2  0
 16 19  1  0
  6  9  1  0
 22 23  1  0
M  END
> <minimizedAffinity>
-8.92701

> <CNNscore>
0.4259993434

> <CNNaffinity>
6.1620259285

> <CNN_VS>
2.6250190735

> <CNNaffinity_variance>
0.1689370871

$$$$



 36 39  0  0  0  0  0  0  0  0999 V2000
   11.4626   50.3372   88.1734 C   0  0  0  0  0  0  0  0  0  0  0  0
   11.2520   50.6495   86.9931 O   0  0  0  0  0  0  0  0  0  0  0  0
   11.5740   51.3020   89.1507 N   0  0  0  0  0  0  0  0  0  0  0  0
   11.7378   51.0730   90.5802 C   0  0  0  0  0  0  0  0  0  0  0  0
   11.8148   52.4635   91.2035 C   0  0  0  0  0  0  0  0  0  0  0  0
   11.2922   52.5062   92.5231 O   0  0  0  0  0  0  0  0  0  0  0  0
   10.9412   53.2918   90.2655 C   0  0  0  0  0  0  0  0  0  0  0  0
   11.2517   52.7072   88.8870 C   0  0  0  0  0  0  0  0  0  0  0  0
   10.3704   52.2042   92.5157 H   0  0  0  0  0  0  0  0  0  0  0  0
    8.3834   47.1501   87.7525 C   0  0  0  0  0  0  0  0  0  0  0  0
    9.3611   48.0738   88.4155 C   0  0  0  0  0  0  0  0  0  0  0  0
    9.0054   48.8418   89.3048 O   0  0  0  0  0  0  0  0  0  0  0  0
   10.6615   48.0161   87.9749 N   0  0  0  0  0  0  0  0  0  0  0  0
   11.2519   46.9891   87.1403 C   0  0  0  0  0  0  0  0  0  0  0  0
   12.7058   46.9289   87.6055 C   0  0  0  0  0  0  0  0  0  0  0  0
   12.8538   46.1113   88.7660 O   0  0  0  0  0  0  0  0  0  0  0  0
   13.0069   48.3677   87.9852 C   0  0  0  0  0  0  0  0  0  0  0  0
   11.6851   48.8657   88.5815 C   0  0  0  0  0  0  0  0  0  0  0  0
   12.2848   46.4500   89.4749 H   0  0  0  0  0  0  0  0  0  0  0  0
   12.4608   53.3946   88.2192 C   0  0  0  0  0  0  0  0  0  0  0  0
   13.4652   53.7363   88.8355 O   0  0  0  0  0  0  0  0  0  0  0  0
   12.3227   53.5448   86.8537 N   0  0  0  0  0  0  0  0  0  0  0  0
   11.4449   53.3816   86.4389 H   0  0  0  0  0  0  0  0  0  0  0  0
   13.4306   53.9339   86.0223 C   0  0  0  0  0  0  0  0  0  0  0  0
   13.5074   53.0643   84.7939 C   0  0  0  0  0  0  0  0  0  0  0  0
   14.6464   53.0776   83.9716 C   0  0  0  0  0  0  0  0  0  0  0  0
   14.6996   52.2819   82.8268 C   0  0  0  0  0  0  0  0  0  0  0  0
   13.6178   51.4651   82.4818 C   0  0  0  0  0  0  0  0  0  0  0  0
   12.4796   51.4572   83.2987 C   0  0  0  0  0  0  0  0  0  0  0  0
   12.4186   52.2632   84.4343 C   0  0  0  0  0  0  0  0  0  0  0  0
   13.6683   50.6032   81.3075 C   0  0  0  0  0  0  0  0  0  0  0  0
   12.5124   49.3424   81.1034 S   0  0  0  0  0  0  0  0  0  0  0  0
   13.2953   48.8901   79.6541 C   0  0  0  0  0  0  0  0  0  0  0  0
   14.3364   49.6146   79.3013 N   0  0  0  0  0  0  0  0  0  0  0  0
   14.5510   50.6095   80.2446 C   0  0  0  0  0  0  0  0  0  0  0  0
   15.6705   51.5703   80.0231 C   0  0  0  0  0  0  0  0  0  0  0  0
 10 11  1  0
 11 12  2  0
 11 13  1  0
 13 14  1  0
 14 15  1  0
 15 16  1  0
 15 17  1  0
 17 18  1  0
 18  1  1  0
  1  2  2  0
  1  3  1  0
  3  4  1  0
  4  5  1  0
  5  6  1  0
  5  7  1  0
  7  8  1  0
  8 20  1  0
 20 21  2  0
 20 22  1  0
 22 24  1  0
 24 25  1  0
 25 26  2  0
 26 27  1  0
 27 28  2  0
 28 31  1  0
 31 32  1  0
 32 33  1  0
 33 34  2  0
 34 35  1  0
 35 36  1  0
 28 29  1  0
 29 30  2  0
 18 13  1  0
  8  3  1  0
 30 25  1  0
 35 31  2  0
 16 19  1  0
  6  9  1  0
 22 23  1  0
M  END
> <minimizedAffinity>
-8.53956

> <CNNscore>
0.4190754294

> <CNNaffinity>
6.0953350067

> <CNN_VS>
2.5544052124

> <CNNaffinity_variance>
0.3612122834

$$$$
