


 39 43  0  0  0  0  0  0  0  0999 V2000
    2.5832   24.5412   18.4342 C   0  0  0  0  0  0  0  0  0  0  0  0
    3.9108   24.7970   18.1425 C   0  0  0  0  0  0  0  0  0  0  0  0
    4.8403   24.6965   19.1703 C   0  0  0  0  0  0  0  0  0  0  0  0
    4.4419   24.3617   20.4583 C   0  0  0  0  0  0  0  0  0  0  0  0
    3.1027   24.1053   20.6773 C   0  0  0  0  0  0  0  0  0  0  0  0
    2.1954   24.1937   19.6766 N   0  0  0  0  0  0  0  0  0  0  0  0
    6.5414   25.0459   18.8388 S   0  0  0  0  0  0  0  0  0  0  0  0
    7.3277   24.1436   19.6632 O   0  0  0  0  0  0  0  0  0  0  0  0
    6.7250   25.0552   17.3991 O   0  0  0  0  0  0  0  0  0  0  0  0
    6.8351   26.6998   19.4193 C   0  0  0  0  0  0  0  0  0  0  0  0
    7.3173   27.6613   18.5262 C   0  0  0  0  0  0  0  0  0  0  0  0
    7.5587   28.9572   18.9815 C   0  0  0  0  0  0  0  0  0  0  0  0
    7.3278   29.2831   20.3195 C   0  0  0  0  0  0  0  0  0  0  0  0
    6.8586   28.3149   21.2091 C   0  0  0  0  0  0  0  0  0  0  0  0
    6.6134   27.0165   20.7627 C   0  0  0  0  0  0  0  0  0  0  0  0
    1.6542   24.6151   17.3805 N   0  0  0  0  0  0  0  0  0  0  0  0
    1.6798   25.3413   16.7162 H   0  0  0  0  0  0  0  0  0  0  0  0
   -1.6788   22.0059   16.8037 C   0  0  0  0  0  0  0  0  0  0  0  0
   -1.9290   23.4802   17.1177 C   0  0  0  0  0  0  0  0  0  0  0  0
   -0.7127   24.1451   17.7721 C   0  0  0  0  0  0  0  0  0  0  0  0
    0.6419   23.5482   17.3247 C   0  0  0  0  0  0  0  0  0  0  0  0
    0.5203   22.9878   15.9014 C   0  0  0  0  0  0  0  0  0  0  0  0
   -0.5190   21.8634   15.8060 C   0  0  0  0  0  0  0  0  0  0  0  0
   -2.4150   20.6512   18.6291 C   0  0  0  0  0  0  0  0  0  0  0  0
   -1.3159   21.2850   17.9879 O   0  0  0  0  0  0  0  0  0  0  0  0
    2.5637   23.7464   21.9109 N   0  0  0  0  0  0  0  0  0  0  0  0
    3.2218   23.7450   22.6431 H   0  0  0  0  0  0  0  0  0  0  0  0
    1.3220   23.4011   22.3015 C   0  0  0  0  0  0  0  0  0  0  0  0
    0.2426   23.3794   21.3835 C   0  0  0  0  0  0  0  0  0  0  0  0
   -0.8683   22.9733   22.0976 C   0  0  0  0  0  0  0  0  0  0  0  0
   -0.4004   22.8038   23.3738 N   0  0  0  0  0  0  0  0  0  0  0  0
    0.9131   23.0339   23.5173 N   0  0  0  0  0  0  0  0  0  0  0  0
   -0.9798   22.5353   24.1231 H   0  0  0  0  0  0  0  0  0  0  0  0
   -2.2599   22.7764   21.7026 C   0  0  0  0  0  0  0  0  0  0  0  0
   -2.8899   23.6472   20.8017 C   0  0  0  0  0  0  0  0  0  0  0  0
   -4.2229   23.4472   20.4320 C   0  0  0  0  0  0  0  0  0  0  0  0
   -4.9411   22.3752   20.9580 C   0  0  0  0  0  0  0  0  0  0  0  0
   -4.3291   21.5050   21.8568 C   0  0  0  0  0  0  0  0  0  0  0  0
   -2.9972   21.7064   22.2286 C   0  0  0  0  0  0  0  0  0  0  0  0
 24 25  1  0
 18 25  1  0
 18 19  1  0
 19 20  1  0
 20 21  1  0
 21 16  1  0
 16  1  1  0
  1  2  2  0
  2  3  1  0
  3  7  1  0
  7  8  2  0
  7  9  2  0
  7 10  1  0
 10 11  2  0
 11 12  1  0
 12 13  2  0
 13 14  1  0
 14 15  2  0
  3  4  2  0
  4  5  1  0
  5 26  1  0
 26 28  1  0
 28 29  1  0
 29 30  2  0
 30 34  1  0
 34 35  2  0
 35 36  1  0
 36 37  2  0
 37 38  1  0
 38 39  2  0
 30 31  1  0
 31 32  1  0
  5  6  2  0
 21 22  1  0
 22 23  1  0
 23 18  1  0
  6  1  1  0
 15 10  1  0
 32 28  2  0
 39 34  1  0
 16 17  1  0
 26 27  1  0
 31 33  1  0
M  END
> <minimizedAffinity>
-10.11975

> <CNNscore>
0.9845987558

> <CNNaffinity>
8.3095998764

> <CNN_VS>
8.1816215515

> <CNNaffinity_variance>
0.1072819531

$$$$



 39 43  0  0  0  0  0  0  0  0999 V2000
    2.9112   24.7620   18.3370 C   0  0  0  0  0  0  0  0  0  0  0  0
    4.1328   25.4107   18.3292 C   0  0  0  0  0  0  0  0  0  0  0  0
    4.9239   25.3351   19.4689 C   0  0  0  0  0  0  0  0  0  0  0  0
    4.4905   24.6380   20.5896 C   0  0  0  0  0  0  0  0  0  0  0  0
    3.2666   24.0015   20.5248 C   0  0  0  0  0  0  0  0  0  0  0  0
    2.4970   24.0656   19.4130 N   0  0  0  0  0  0  0  0  0  0  0  0
    6.4779   26.1775   19.5037 S   0  0  0  0  0  0  0  0  0  0  0  0
    6.4163   27.2221   18.4952 O   0  0  0  0  0  0  0  0  0  0  0  0
    6.7711   26.5206   20.8831 O   0  0  0  0  0  0  0  0  0  0  0  0
    7.6993   24.9965   18.9822 C   0  0  0  0  0  0  0  0  0  0  0  0
    7.4662   24.2356   17.8327 C   0  0  0  0  0  0  0  0  0  0  0  0
    8.4181   23.3006   17.4270 C   0  0  0  0  0  0  0  0  0  0  0  0
    9.5866   23.1241   18.1707 C   0  0  0  0  0  0  0  0  0  0  0  0
    9.8074   23.8779   19.3248 C   0  0  0  0  0  0  0  0  0  0  0  0
    8.8615   24.8160   19.7377 C   0  0  0  0  0  0  0  0  0  0  0  0
    2.1314   24.8183   17.1675 N   0  0  0  0  0  0  0  0  0  0  0  0
    2.3862   25.3805   16.4005 H   0  0  0  0  0  0  0  0  0  0  0  0
   -1.4777   22.6599   16.4159 C   0  0  0  0  0  0  0  0  0  0  0  0
   -1.3525   24.1014   15.9247 C   0  0  0  0  0  0  0  0  0  0  0  0
   -0.2627   24.8742   16.6762 C   0  0  0  0  0  0  0  0  0  0  0  0
    0.9141   23.9913   17.1525 C   0  0  0  0  0  0  0  0  0  0  0  0
    1.0823   22.7930   16.2089 C   0  0  0  0  0  0  0  0  0  0  0  0
   -0.1643   21.8996   16.1756 C   0  0  0  0  0  0  0  0  0  0  0  0
   -1.7186   21.3092   18.3721 C   0  0  0  0  0  0  0  0  0  0  0  0
   -1.7440   22.6203   17.8235 O   0  0  0  0  0  0  0  0  0  0  0  0
    2.7131   23.2570   21.5642 N   0  0  0  0  0  0  0  0  0  0  0  0
    3.3646   22.6833   22.0285 H   0  0  0  0  0  0  0  0  0  0  0  0
    1.4644   23.1656   22.0604 C   0  0  0  0  0  0  0  0  0  0  0  0
    0.3462   22.9904   21.2077 C   0  0  0  0  0  0  0  0  0  0  0  0
   -0.7628   22.9208   22.0288 C   0  0  0  0  0  0  0  0  0  0  0  0
   -0.2537   23.0784   23.2906 N   0  0  0  0  0  0  0  0  0  0  0  0
    1.0806   23.2062   23.3375 N   0  0  0  0  0  0  0  0  0  0  0  0
   -0.8199   23.0963   24.0959 H   0  0  0  0  0  0  0  0  0  0  0  0
   -2.1835   22.7604   21.7330 C   0  0  0  0  0  0  0  0  0  0  0  0
   -2.8919   23.7373   21.0185 C   0  0  0  0  0  0  0  0  0  0  0  0
   -4.2520   23.5711   20.7421 C   0  0  0  0  0  0  0  0  0  0  0  0
   -4.9191   22.4275   21.1764 C   0  0  0  0  0  0  0  0  0  0  0  0
   -4.2288   21.4512   21.8905 C   0  0  0  0  0  0  0  0  0  0  0  0
   -2.8696   21.6184   22.1691 C   0  0  0  0  0  0  0  0  0  0  0  0
 24 25  1  0
 18 25  1  0
 18 19  1  0
 19 20  1  0
 20 21  1  0
 21 16  1  0
 16  1  1  0
  1  2  2  0
  2  3  1  0
  3  7  1  0
  7  8  2  0
  7  9  2  0
  7 10  1  0
 10 11  2  0
 11 12  1  0
 12 13  2  0
 13 14  1  0
 14 15  2  0
  3  4  2  0
  4  5  1  0
  5 26  1  0
 26 28  1  0
 28 29  1  0
 29 30  2  0
 30 34  1  0
 34 35  2  0
 35 36  1  0
 36 37  2  0
 37 38  1  0
 38 39  2  0
 30 31  1  0
 31 32  1  0
  5  6  2  0
 21 22  1  0
 22 23  1  0
 23 18  1  0
  6  1  1  0
 15 10  1  0
 32 28  2  0
 39 34  1  0
 16 17  1  0
 26 27  1  0
 31 33  1  0
M  END
> <minimizedAffinity>
-9.80694

> <CNNscore>
0.9708322883

> <CNNaffinity>
8.1301393509

> <CNN_VS>
7.8930015564

> <CNNaffinity_variance>
0.0768506229

$$$$



 39 43  0  0  0  0  0  0  0  0999 V2000
    5.1765   24.6807   18.5230 C   0  0  0  0  0  0  0  0  0  0  0  0
    4.4389   24.4108   17.3844 C   0  0  0  0  0  0  0  0  0  0  0  0
    3.1214   23.9971   17.5380 C   0  0  0  0  0  0  0  0  0  0  0  0
    2.5671   23.8459   18.8028 C   0  0  0  0  0  0  0  0  0  0  0  0
    3.3548   24.1460   19.8967 C   0  0  0  0  0  0  0  0  0  0  0  0
    4.6361   24.5577   19.7507 N   0  0  0  0  0  0  0  0  0  0  0  0
    2.1594   23.6150   16.1047 S   0  0  0  0  0  0  0  0  0  0  0  0
    1.9393   24.8649   15.3966 O   0  0  0  0  0  0  0  0  0  0  0  0
    2.7921   22.5002   15.4241 O   0  0  0  0  0  0  0  0  0  0  0  0
    0.5831   23.0465   16.6968 C   0  0  0  0  0  0  0  0  0  0  0  0
    0.3712   21.6749   16.8649 C   0  0  0  0  0  0  0  0  0  0  0  0
   -0.8683   21.2252   17.3193 C   0  0  0  0  0  0  0  0  0  0  0  0
   -1.8869   22.1401   17.5933 C   0  0  0  0  0  0  0  0  0  0  0  0
   -1.6730   23.5075   17.4110 C   0  0  0  0  0  0  0  0  0  0  0  0
   -0.4364   23.9666   16.9578 C   0  0  0  0  0  0  0  0  0  0  0  0
    6.4995   25.1288   18.3563 N   0  0  0  0  0  0  0  0  0  0  0  0
    7.0187   24.9231   17.5456 H   0  0  0  0  0  0  0  0  0  0  0  0
    8.4228   27.8659   21.0131 C   0  0  0  0  0  0  0  0  0  0  0  0
    9.1597   27.3987   19.7587 C   0  0  0  0  0  0  0  0  0  0  0  0
    8.5806   26.0931   19.2021 C   0  0  0  0  0  0  0  0  0  0  0  0
    7.0654   25.9218   19.4594 C   0  0  0  0  0  0  0  0  0  0  0  0
    6.3914   27.2979   19.5416 C   0  0  0  0  0  0  0  0  0  0  0  0
    6.9480   28.1504   20.6891 C   0  0  0  0  0  0  0  0  0  0  0  0
    9.5830   26.9387   22.8848 C   0  0  0  0  0  0  0  0  0  0  0  0
    8.4509   26.8558   22.0292 O   0  0  0  0  0  0  0  0  0  0  0  0
    2.9286   24.0538   21.2199 N   0  0  0  0  0  0  0  0  0  0  0  0
    3.6265   24.2825   21.8755 H   0  0  0  0  0  0  0  0  0  0  0  0
    1.7523   23.7143   21.7808 C   0  0  0  0  0  0  0  0  0  0  0  0
    0.5666   23.6334   21.0090 C   0  0  0  0  0  0  0  0  0  0  0  0
   -0.4381   23.2511   21.8770 C   0  0  0  0  0  0  0  0  0  0  0  0
    0.1896   23.1520   23.0904 N   0  0  0  0  0  0  0  0  0  0  0  0
    1.5063   23.4045   23.0551 N   0  0  0  0  0  0  0  0  0  0  0  0
   -0.2861   22.9153   23.9192 H   0  0  0  0  0  0  0  0  0  0  0  0
   -1.8646   23.0181   21.6714 C   0  0  0  0  0  0  0  0  0  0  0  0
   -2.5087   21.9083   22.2372 C   0  0  0  0  0  0  0  0  0  0  0  0
   -3.8752   21.6970   22.0323 C   0  0  0  0  0  0  0  0  0  0  0  0
   -4.6130   22.5919   21.2602 C   0  0  0  0  0  0  0  0  0  0  0  0
   -3.9853   23.6961   20.6890 C   0  0  0  0  0  0  0  0  0  0  0  0
   -2.6186   23.9060   20.8915 C   0  0  0  0  0  0  0  0  0  0  0  0
 24 25  1  0
 18 25  1  0
 18 19  1  0
 19 20  1  0
 20 21  1  0
 21 16  1  0
 16  1  1  0
  1  2  2  0
  2  3  1  0
  3  7  1  0
  7  8  2  0
  7  9  2  0
  7 10  1  0
 10 11  2  0
 11 12  1  0
 12 13  2  0
 13 14  1  0
 14 15  2  0
  3  4  2  0
  4  5  1  0
  5 26  1  0
 26 28  1  0
 28 29  1  0
 29 30  2  0
 30 34  1  0
 34 35  2  0
 35 36  1  0
 36 37  2  0
 37 38  1  0
 38 39  2  0
 30 31  1  0
 31 32  1  0
  5  6  2  0
 21 22  1  0
 22 23  1  0
 23 18  1  0
  6  1  1  0
 15 10  1  0
 32 28  2  0
 39 34  1  0
 16 17  1  0
 26 27  1  0
 31 33  1  0
M  END
> <minimizedAffinity>
-8.98537

> <CNNscore>
0.9656708241

> <CNNaffinity>
8.0263795853

> <CNN_VS>
7.7508406639

> <CNNaffinity_variance>
0.0320900343

$$$$



 39 43  0  0  0  0  0  0  0  0999 V2000
    2.4910   24.8355   18.4269 C   0  0  0  0  0  0  0  0  0  0  0  0
    3.8175   25.0914   18.1303 C   0  0  0  0  0  0  0  0  0  0  0  0
    4.7791   24.7503   19.0733 C   0  0  0  0  0  0  0  0  0  0  0  0
    4.4137   24.1807   20.2865 C   0  0  0  0  0  0  0  0  0  0  0  0
    3.0729   23.9391   20.5124 C   0  0  0  0  0  0  0  0  0  0  0  0
    2.1339   24.2620   19.5923 N   0  0  0  0  0  0  0  0  0  0  0  0
    6.4814   25.0911   18.7390 S   0  0  0  0  0  0  0  0  0  0  0  0
    7.2615   24.0988   19.4594 O   0  0  0  0  0  0  0  0  0  0  0  0
    6.6372   25.2298   17.3027 O   0  0  0  0  0  0  0  0  0  0  0  0
    6.8262   26.6770   19.4633 C   0  0  0  0  0  0  0  0  0  0  0  0
    7.7823   27.5058   18.8687 C   0  0  0  0  0  0  0  0  0  0  0  0
    8.0625   28.7463   19.4410 C   0  0  0  0  0  0  0  0  0  0  0  0
    7.3979   29.1475   20.6017 C   0  0  0  0  0  0  0  0  0  0  0  0
    6.4537   28.3096   21.1977 C   0  0  0  0  0  0  0  0  0  0  0  0
    6.1662   27.0676   20.6320 C   0  0  0  0  0  0  0  0  0  0  0  0
    1.5277   25.1557   17.4530 N   0  0  0  0  0  0  0  0  0  0  0  0
    1.1766   26.0698   17.3514 H   0  0  0  0  0  0  0  0  0  0  0  0
    0.9377   21.7710   14.9142 C   0  0  0  0  0  0  0  0  0  0  0  0
    2.0925   22.7292   14.6265 C   0  0  0  0  0  0  0  0  0  0  0  0
    1.8790   24.1014   15.2756 C   0  0  0  0  0  0  0  0  0  0  0  0
    1.0730   24.0503   16.5943 C   0  0  0  0  0  0  0  0  0  0  0  0
    1.2911   22.6985   17.2869 C   0  0  0  0  0  0  0  0  0  0  0  0
    0.8176   21.5207   16.4254 C   0  0  0  0  0  0  0  0  0  0  0  0
   -0.8664   21.6479   13.3523 C   0  0  0  0  0  0  0  0  0  0  0  0
   -0.3082   22.3237   14.4714 O   0  0  0  0  0  0  0  0  0  0  0  0
    2.5640   23.3624   21.6740 N   0  0  0  0  0  0  0  0  0  0  0  0
    3.2587   23.0101   22.2761 H   0  0  0  0  0  0  0  0  0  0  0  0
    1.3113   23.1906   22.1375 C   0  0  0  0  0  0  0  0  0  0  0  0
    0.2149   23.0394   21.2525 C   0  0  0  0  0  0  0  0  0  0  0  0
   -0.9046   22.8704   22.0443 C   0  0  0  0  0  0  0  0  0  0  0  0
   -0.4232   22.9524   23.3241 N   0  0  0  0  0  0  0  0  0  0  0  0
    0.9045   23.1234   23.4064 N   0  0  0  0  0  0  0  0  0  0  0  0
   -1.0033   22.8910   24.1171 H   0  0  0  0  0  0  0  0  0  0  0  0
   -2.3132   22.6821   21.7097 C   0  0  0  0  0  0  0  0  0  0  0  0
   -3.0284   21.5692   22.1752 C   0  0  0  0  0  0  0  0  0  0  0  0
   -4.3767   21.4010   21.8473 C   0  0  0  0  0  0  0  0  0  0  0  0
   -5.0252   22.3426   21.0508 C   0  0  0  0  0  0  0  0  0  0  0  0
   -4.3260   23.4505   20.5782 C   0  0  0  0  0  0  0  0  0  0  0  0
   -2.9773   23.6173   20.9038 C   0  0  0  0  0  0  0  0  0  0  0  0
 24 25  1  0
 18 25  1  0
 18 19  1  0
 19 20  1  0
 20 21  1  0
 21 16  1  0
 16  1  1  0
  1  2  2  0
  2  3  1  0
  3  7  1  0
  7  8  2  0
  7  9  2  0
  7 10  1  0
 10 11  2  0
 11 12  1  0
 12 13  2  0
 13 14  1  0
 14 15  2  0
  3  4  2  0
  4  5  1  0
  5 26  1  0
 26 28  1  0
 28 29  1  0
 29 30  2  0
 30 34  1  0
 34 35  2  0
 35 36  1  0
 36 37  2  0
 37 38  1  0
 38 39  2  0
 30 31  1  0
 31 32  1  0
  5  6  2  0
 21 22  1  0
 22 23  1  0
 23 18  1  0
  6  1  1  0
 15 10  1  0
 32 28  2  0
 39 34  1  0
 16 17  1  0
 26 27  1  0
 31 33  1  0
M  END
> <minimizedAffinity>
-9.69246

> <CNNscore>
0.9648999572

> <CNNaffinity>
7.9702095985

> <CNN_VS>
7.6904549599

> <CNNaffinity_variance>
0.1304648370

$$$$



 39 43  0  0  0  0  0  0  0  0999 V2000
    2.8726   24.6914   18.3563 C   0  0  0  0  0  0  0  0  0  0  0  0
    4.1127   25.3014   18.3016 C   0  0  0  0  0  0  0  0  0  0  0  0
    4.9272   25.2355   19.4253 C   0  0  0  0  0  0  0  0  0  0  0  0
    4.4990   24.5860   20.5761 C   0  0  0  0  0  0  0  0  0  0  0  0
    3.2552   23.9860   20.5580 C   0  0  0  0  0  0  0  0  0  0  0  0
    2.4624   24.0406   19.4621 N   0  0  0  0  0  0  0  0  0  0  0  0
    6.5065   26.0300   19.3999 S   0  0  0  0  0  0  0  0  0  0  0  0
    6.4065   27.1989   20.2577 O   0  0  0  0  0  0  0  0  0  0  0  0
    7.5188   25.0240   19.6637 O   0  0  0  0  0  0  0  0  0  0  0  0
    6.7521   26.6026   17.7355 C   0  0  0  0  0  0  0  0  0  0  0  0
    6.3723   27.9052   17.3986 C   0  0  0  0  0  0  0  0  0  0  0  0
    6.5541   28.3538   16.0906 C   0  0  0  0  0  0  0  0  0  0  0  0
    7.1022   27.5026   15.1290 C   0  0  0  0  0  0  0  0  0  0  0  0
    7.4674   26.1987   15.4688 C   0  0  0  0  0  0  0  0  0  0  0  0
    7.2902   25.7417   16.7746 C   0  0  0  0  0  0  0  0  0  0  0  0
    2.0681   24.7368   17.2032 N   0  0  0  0  0  0  0  0  0  0  0  0
    2.1954   25.4225   16.5083 H   0  0  0  0  0  0  0  0  0  0  0  0
   -1.3297   22.2519   16.4751 C   0  0  0  0  0  0  0  0  0  0  0  0
   -1.5417   23.7214   16.8360 C   0  0  0  0  0  0  0  0  0  0  0  0
   -0.3188   24.3259   17.5352 C   0  0  0  0  0  0  0  0  0  0  0  0
    1.0256   23.7038   17.0918 C   0  0  0  0  0  0  0  0  0  0  0  0
    0.9146   23.1968   15.6477 C   0  0  0  0  0  0  0  0  0  0  0  0
   -0.1557   22.1086   15.4942 C   0  0  0  0  0  0  0  0  0  0  0  0
   -2.1530   21.0543   18.3717 C   0  0  0  0  0  0  0  0  0  0  0  0
   -1.0112   21.4798   17.6397 O   0  0  0  0  0  0  0  0  0  0  0  0
    2.7035   23.2904   21.6317 N   0  0  0  0  0  0  0  0  0  0  0  0
    3.3643   22.7760   22.1493 H   0  0  0  0  0  0  0  0  0  0  0  0
    1.4465   23.1814   22.1026 C   0  0  0  0  0  0  0  0  0  0  0  0
    0.3454   23.0166   21.2259 C   0  0  0  0  0  0  0  0  0  0  0  0
   -0.7782   22.9236   22.0247 C   0  0  0  0  0  0  0  0  0  0  0  0
   -0.2935   23.0588   23.2987 N   0  0  0  0  0  0  0  0  0  0  0  0
    1.0388   23.1938   23.3729 N   0  0  0  0  0  0  0  0  0  0  0  0
   -0.8746   23.0570   24.0934 H   0  0  0  0  0  0  0  0  0  0  0  0
   -2.1920   22.7604   21.6993 C   0  0  0  0  0  0  0  0  0  0  0  0
   -2.9297   21.6730   22.1892 C   0  0  0  0  0  0  0  0  0  0  0  0
   -4.2829   21.5288   21.8699 C   0  0  0  0  0  0  0  0  0  0  0  0
   -4.9138   22.4690   21.0580 C   0  0  0  0  0  0  0  0  0  0  0  0
   -4.1921   23.5516   20.5611 C   0  0  0  0  0  0  0  0  0  0  0  0
   -2.8386   23.6946   20.8781 C   0  0  0  0  0  0  0  0  0  0  0  0
 24 25  1  0
 18 25  1  0
 18 19  1  0
 19 20  1  0
 20 21  1  0
 21 16  1  0
 16  1  1  0
  1  2  2  0
  2  3  1  0
  3  7  1  0
  7  8  2  0
  7  9  2  0
  7 10  1  0
 10 11  2  0
 11 12  1  0
 12 13  2  0
 13 14  1  0
 14 15  2  0
  3  4  2  0
  4  5  1  0
  5 26  1  0
 26 28  1  0
 28 29  1  0
 29 30  2  0
 30 34  1  0
 34 35  2  0
 35 36  1  0
 36 37  2  0
 37 38  1  0
 38 39  2  0
 30 31  1  0
 31 32  1  0
  5  6  2  0
 21 22  1  0
 22 23  1  0
 23 18  1  0
  6  1  1  0
 15 10  1  0
 32 28  2  0
 39 34  1  0
 16 17  1  0
 26 27  1  0
 31 33  1  0
M  END
> <minimizedAffinity>
-9.57704

> <CNNscore>
0.9572346807

> <CNNaffinity>
8.1014804840

> <CNN_VS>
7.7550182343

> <CNNaffinity_variance>
0.0441838950

$$$$



 39 43  0  0  0  0  0  0  0  0999 V2000
    4.6904   25.0897   19.6025 C   0  0  0  0  0  0  0  0  0  0  0  0
    4.2275   24.6568   18.3731 C   0  0  0  0  0  0  0  0  0  0  0  0
    3.1019   23.8428   18.3445 C   0  0  0  0  0  0  0  0  0  0  0  0
    2.4690   23.4640   19.5216 C   0  0  0  0  0  0  0  0  0  0  0  0
    2.9750   23.9434   20.7138 C   0  0  0  0  0  0  0  0  0  0  0  0
    4.0663   24.7439   20.7450 N   0  0  0  0  0  0  0  0  0  0  0  0
    2.5013   23.2471   16.7920 S   0  0  0  0  0  0  0  0  0  0  0  0
    2.6778   24.3213   15.8291 O   0  0  0  0  0  0  0  0  0  0  0  0
    3.1034   21.9496   16.5462 O   0  0  0  0  0  0  0  0  0  0  0  0
    0.7549   22.9887   16.9967 C   0  0  0  0  0  0  0  0  0  0  0  0
   -0.0756   24.0893   17.2282 C   0  0  0  0  0  0  0  0  0  0  0  0
   -1.4450   23.8884   17.3998 C   0  0  0  0  0  0  0  0  0  0  0  0
   -1.9744   22.5974   17.3488 C   0  0  0  0  0  0  0  0  0  0  0  0
   -1.1378   21.5014   17.1301 C   0  0  0  0  0  0  0  0  0  0  0  0
    0.2328   21.6926   16.9566 C   0  0  0  0  0  0  0  0  0  0  0  0
    5.8119   25.9387   19.6191 N   0  0  0  0  0  0  0  0  0  0  0  0
    5.7455   26.8806   19.8978 H   0  0  0  0  0  0  0  0  0  0  0  0
    9.4406   24.6348   17.7801 C   0  0  0  0  0  0  0  0  0  0  0  0
    8.1806   24.7800   16.9279 C   0  0  0  0  0  0  0  0  0  0  0  0
    6.9045   24.7602   17.7769 C   0  0  0  0  0  0  0  0  0  0  0  0
    7.0898   25.3429   19.1973 C   0  0  0  0  0  0  0  0  0  0  0  0
    8.2045   26.3974   19.1872 C   0  0  0  0  0  0  0  0  0  0  0  0
    9.5567   25.8100   18.7630 C   0  0  0  0  0  0  0  0  0  0  0  0
   10.4207   23.3490   19.5394 C   0  0  0  0  0  0  0  0  0  0  0  0
    9.3977   23.4305   18.5557 O   0  0  0  0  0  0  0  0  0  0  0  0
    2.4362   23.6581   21.9665 N   0  0  0  0  0  0  0  0  0  0  0  0
    3.0881   23.7274   22.7010 H   0  0  0  0  0  0  0  0  0  0  0  0
    1.2015   23.3063   22.3731 C   0  0  0  0  0  0  0  0  0  0  0  0
    0.1040   23.3104   21.4766 C   0  0  0  0  0  0  0  0  0  0  0  0
   -0.9937   22.8894   22.2025 C   0  0  0  0  0  0  0  0  0  0  0  0
   -0.5010   22.6867   23.4644 N   0  0  0  0  0  0  0  0  0  0  0  0
    0.8158   22.9098   23.5873 N   0  0  0  0  0  0  0  0  0  0  0  0
   -1.0662   22.4011   24.2182 H   0  0  0  0  0  0  0  0  0  0  0  0
   -2.3935   22.7061   21.8306 C   0  0  0  0  0  0  0  0  0  0  0  0
   -3.0784   23.6719   21.0791 C   0  0  0  0  0  0  0  0  0  0  0  0
   -4.4187   23.4838   20.7298 C   0  0  0  0  0  0  0  0  0  0  0  0
   -5.0894   22.3290   21.1274 C   0  0  0  0  0  0  0  0  0  0  0  0
   -4.4226   21.3634   21.8776 C   0  0  0  0  0  0  0  0  0  0  0  0
   -3.0833   21.5526   22.2290 C   0  0  0  0  0  0  0  0  0  0  0  0
 24 25  1  0
 18 25  1  0
 18 19  1  0
 19 20  1  0
 20 21  1  0
 21 16  1  0
 16  1  1  0
  1  2  2  0
  2  3  1  0
  3  7  1  0
  7  8  2  0
  7  9  2  0
  7 10  1  0
 10 11  2  0
 11 12  1  0
 12 13  2  0
 13 14  1  0
 14 15  2  0
  3  4  2  0
  4  5  1  0
  5 26  1  0
 26 28  1  0
 28 29  1  0
 29 30  2  0
 30 34  1  0
 34 35  2  0
 35 36  1  0
 36 37  2  0
 37 38  1  0
 38 39  2  0
 30 31  1  0
 31 32  1  0
  5  6  2  0
 21 22  1  0
 22 23  1  0
 23 18  1  0
  6  1  1  0
 15 10  1  0
 32 28  2  0
 39 34  1  0
 16 17  1  0
 26 27  1  0
 31 33  1  0
M  END
> <minimizedAffinity>
-9.37928

> <CNNscore>
0.9496246576

> <CNNaffinity>
7.7795128822

> <CNN_VS>
7.3876171112

> <CNNaffinity_variance>
0.2784975469

$$$$



 39 43  0  0  0  0  0  0  0  0999 V2000
    4.8581   24.4460   18.8227 C   0  0  0  0  0  0  0  0  0  0  0  0
    4.1519   24.1959   17.6601 C   0  0  0  0  0  0  0  0  0  0  0  0
    2.8100   23.8523   17.7677 C   0  0  0  0  0  0  0  0  0  0  0  0
    2.2004   23.7497   19.0117 C   0  0  0  0  0  0  0  0  0  0  0  0
    2.9599   24.0268   20.1314 C   0  0  0  0  0  0  0  0  0  0  0  0
    4.2654   24.3703   20.0300 N   0  0  0  0  0  0  0  0  0  0  0  0
    1.8853   23.4968   16.3033 S   0  0  0  0  0  0  0  0  0  0  0  0
    1.7219   24.7526   15.5901 O   0  0  0  0  0  0  0  0  0  0  0  0
    2.5099   22.3658   15.6421 O   0  0  0  0  0  0  0  0  0  0  0  0
    0.2759   22.9704   16.8429 C   0  0  0  0  0  0  0  0  0  0  0  0
   -0.7091   23.9311   17.0908 C   0  0  0  0  0  0  0  0  0  0  0  0
   -1.9698   23.5216   17.5245 C   0  0  0  0  0  0  0  0  0  0  0  0
   -2.2369   22.1646   17.7162 C   0  0  0  0  0  0  0  0  0  0  0  0
   -1.2449   21.2113   17.4793 C   0  0  0  0  0  0  0  0  0  0  0  0
    0.0185   21.6113   17.0444 C   0  0  0  0  0  0  0  0  0  0  0  0
    6.2079   24.8234   18.7018 N   0  0  0  0  0  0  0  0  0  0  0  0
    6.9374   24.2581   19.0446 H   0  0  0  0  0  0  0  0  0  0  0  0
    7.5370   28.6176   17.2572 C   0  0  0  0  0  0  0  0  0  0  0  0
    7.4734   28.3717   18.7639 C   0  0  0  0  0  0  0  0  0  0  0  0
    6.5400   27.2090   19.1198 C   0  0  0  0  0  0  0  0  0  0  0  0
    6.4705   26.1090   18.0352 C   0  0  0  0  0  0  0  0  0  0  0  0
    7.7926   26.0585   17.2580 C   0  0  0  0  0  0  0  0  0  0  0  0
    8.0952   27.3794   16.5388 C   0  0  0  0  0  0  0  0  0  0  0  0
    6.2453   29.5487   15.4757 C   0  0  0  0  0  0  0  0  0  0  0  0
    6.2307   28.8693   16.7242 O   0  0  0  0  0  0  0  0  0  0  0  0
    2.4790   23.9776   21.4380 N   0  0  0  0  0  0  0  0  0  0  0  0
    3.1204   24.3101   22.1068 H   0  0  0  0  0  0  0  0  0  0  0  0
    1.3116   23.5660   21.9686 C   0  0  0  0  0  0  0  0  0  0  0  0
    0.1444   23.4484   21.1736 C   0  0  0  0  0  0  0  0  0  0  0  0
   -0.8547   22.9942   22.0131 C   0  0  0  0  0  0  0  0  0  0  0  0
   -0.2432   22.8929   23.2346 N   0  0  0  0  0  0  0  0  0  0  0  0
    1.0599   23.2102   23.2296 N   0  0  0  0  0  0  0  0  0  0  0  0
   -0.7204   22.6108   24.0482 H   0  0  0  0  0  0  0  0  0  0  0  0
   -2.2643   22.6976   21.7758 C   0  0  0  0  0  0  0  0  0  0  0  0
   -2.8353   21.4907   22.2048 C   0  0  0  0  0  0  0  0  0  0  0  0
   -4.1865   21.2193   21.9710 C   0  0  0  0  0  0  0  0  0  0  0  0
   -4.9818   22.1505   21.3063 C   0  0  0  0  0  0  0  0  0  0  0  0
   -4.4268   23.3514   20.8711 C   0  0  0  0  0  0  0  0  0  0  0  0
   -3.0754   23.6217   21.1025 C   0  0  0  0  0  0  0  0  0  0  0  0
 24 25  1  0
 18 25  1  0
 18 19  1  0
 19 20  1  0
 20 21  1  0
 21 16  1  0
 16  1  1  0
  1  2  2  0
  2  3  1  0
  3  7  1  0
  7  8  2  0
  7  9  2  0
  7 10  1  0
 10 11  2  0
 11 12  1  0
 12 13  2  0
 13 14  1  0
 14 15  2  0
  3  4  2  0
  4  5  1  0
  5 26  1  0
 26 28  1  0
 28 29  1  0
 29 30  2  0
 30 34  1  0
 34 35  2  0
 35 36  1  0
 36 37  2  0
 37 38  1  0
 38 39  2  0
 30 31  1  0
 31 32  1  0
  5  6  2  0
 21 22  1  0
 22 23  1  0
 23 18  1  0
  6  1  1  0
 15 10  1  0
 32 28  2  0
 39 34  1  0
 16 17  1  0
 26 27  1  0
 31 33  1  0
M  END
> <minimizedAffinity>
-9.08025

> <CNNscore>
0.9483897090

> <CNNaffinity>
7.7252078056

> <CNN_VS>
7.3265075684

> <CNNaffinity_variance>
0.1008250341

$$$$



 39 43  0  0  0  0  0  0  0  0999 V2000
    5.0777   25.4733   18.0058 C   0  0  0  0  0  0  0  0  0  0  0  0
    5.8747   26.4962   18.4870 C   0  0  0  0  0  0  0  0  0  0  0  0
    6.0141   26.6283   19.8631 C   0  0  0  0  0  0  0  0  0  0  0  0
    5.3581   25.7635   20.7299 C   0  0  0  0  0  0  0  0  0  0  0  0
    4.5893   24.7553   20.1823 C   0  0  0  0  0  0  0  0  0  0  0  0
    4.4581   24.6181   18.8420 N   0  0  0  0  0  0  0  0  0  0  0  0
    7.0015   27.9431   20.5127 S   0  0  0  0  0  0  0  0  0  0  0  0
    7.4258   28.7525   19.3827 O   0  0  0  0  0  0  0  0  0  0  0  0
    6.2695   28.5554   21.6062 O   0  0  0  0  0  0  0  0  0  0  0  0
    8.4512   27.1848   21.2068 C   0  0  0  0  0  0  0  0  0  0  0  0
    9.2375   26.3532   20.4039 C   0  0  0  0  0  0  0  0  0  0  0  0
   10.3698   25.7483   20.9489 C   0  0  0  0  0  0  0  0  0  0  0  0
   10.7048   25.9676   22.2866 C   0  0  0  0  0  0  0  0  0  0  0  0
    9.9082   26.7888   23.0864 C   0  0  0  0  0  0  0  0  0  0  0  0
    8.7744   27.3988   22.5499 C   0  0  0  0  0  0  0  0  0  0  0  0
    4.9677   25.3286   16.6108 N   0  0  0  0  0  0  0  0  0  0  0  0
    4.2894   25.8168   16.0904 H   0  0  0  0  0  0  0  0  0  0  0  0
    7.8678   22.4129   15.4542 C   0  0  0  0  0  0  0  0  0  0  0  0
    8.1262   23.2759   16.6884 C   0  0  0  0  0  0  0  0  0  0  0  0
    7.2868   24.5584   16.6816 C   0  0  0  0  0  0  0  0  0  0  0  0
    5.9214   24.4079   15.9714 C   0  0  0  0  0  0  0  0  0  0  0  0
    5.4336   22.9571   16.0810 C   0  0  0  0  0  0  0  0  0  0  0  0
    6.3978   21.9675   15.4144 C   0  0  0  0  0  0  0  0  0  0  0  0
    8.9471   22.4556   13.3229 C   0  0  0  0  0  0  0  0  0  0  0  0
    8.1248   23.1493   14.2520 O   0  0  0  0  0  0  0  0  0  0  0  0
    3.8881   23.8100   20.9276 N   0  0  0  0  0  0  0  0  0  0  0  0
    4.4460   23.0611   21.2393 H   0  0  0  0  0  0  0  0  0  0  0  0
    2.5992   23.7163   21.3067 C   0  0  0  0  0  0  0  0  0  0  0  0
    1.5527   23.6899   20.3516 C   0  0  0  0  0  0  0  0  0  0  0  0
    0.3758   23.5741   21.0662 C   0  0  0  0  0  0  0  0  0  0  0  0
    0.7802   23.5622   22.3748 N   0  0  0  0  0  0  0  0  0  0  0  0
    2.1092   23.6255   22.5444 N   0  0  0  0  0  0  0  0  0  0  0  0
    0.1482   23.5115   23.1280 H   0  0  0  0  0  0  0  0  0  0  0  0
   -1.0190   23.5110   20.6394 C   0  0  0  0  0  0  0  0  0  0  0  0
   -1.3753   23.6770   19.2932 C   0  0  0  0  0  0  0  0  0  0  0  0
   -2.7147   23.6144   18.8981 C   0  0  0  0  0  0  0  0  0  0  0  0
   -3.7124   23.3852   19.8433 C   0  0  0  0  0  0  0  0  0  0  0  0
   -3.3731   23.2226   21.1842 C   0  0  0  0  0  0  0  0  0  0  0  0
   -2.0344   23.2879   21.5797 C   0  0  0  0  0  0  0  0  0  0  0  0
 24 25  1  0
 18 25  1  0
 18 19  1  0
 19 20  1  0
 20 21  1  0
 21 16  1  0
 16  1  1  0
  1  2  2  0
  2  3  1  0
  3  7  1  0
  7  8  2  0
  7  9  2  0
  7 10  1  0
 10 11  2  0
 11 12  1  0
 12 13  2  0
 13 14  1  0
 14 15  2  0
  3  4  2  0
  4  5  1  0
  5 26  1  0
 26 28  1  0
 28 29  1  0
 29 30  2  0
 30 34  1  0
 34 35  2  0
 35 36  1  0
 36 37  2  0
 37 38  1  0
 38 39  2  0
 30 31  1  0
 31 32  1  0
  5  6  2  0
 21 22  1  0
 22 23  1  0
 23 18  1  0
  6  1  1  0
 15 10  1  0
 32 28  2  0
 39 34  1  0
 16 17  1  0
 26 27  1  0
 31 33  1  0
M  END
> <minimizedAffinity>
-8.34712

> <CNNscore>
0.6472848654

> <CNNaffinity>
7.2191405296

> <CNN_VS>
4.6728405952

> <CNNaffinity_variance>
0.0195485409

$$$$



 39 43  0  0  0  0  0  0  0  0999 V2000
    1.5151   24.1455   18.0833 C   0  0  0  0  0  0  0  0  0  0  0  0
    1.0025   23.7779   19.3142 C   0  0  0  0  0  0  0  0  0  0  0  0
    1.8608   23.7683   20.4068 C   0  0  0  0  0  0  0  0  0  0  0  0
    3.2005   24.1055   20.2609 C   0  0  0  0  0  0  0  0  0  0  0  0
    3.6434   24.4765   19.0065 C   0  0  0  0  0  0  0  0  0  0  0  0
    2.8081   24.4956   17.9414 N   0  0  0  0  0  0  0  0  0  0  0  0
    1.2455   23.2747   21.9891 S   0  0  0  0  0  0  0  0  0  0  0  0
    1.7250   21.9236   22.2274 O   0  0  0  0  0  0  0  0  0  0  0  0
    1.5523   24.3288   22.9383 O   0  0  0  0  0  0  0  0  0  0  0  0
   -0.5237   23.1994   21.8370 C   0  0  0  0  0  0  0  0  0  0  0  0
   -1.1530   23.9245   20.8208 C   0  0  0  0  0  0  0  0  0  0  0  0
   -2.5420   23.8757   20.7056 C   0  0  0  0  0  0  0  0  0  0  0  0
   -3.2923   23.1156   21.6050 C   0  0  0  0  0  0  0  0  0  0  0  0
   -2.6587   22.4042   22.6255 C   0  0  0  0  0  0  0  0  0  0  0  0
   -1.2700   22.4463   22.7480 C   0  0  0  0  0  0  0  0  0  0  0  0
    0.6314   24.1822   16.9894 N   0  0  0  0  0  0  0  0  0  0  0  0
    0.5573   24.9737   16.4086 H   0  0  0  0  0  0  0  0  0  0  0  0
   -1.7806   20.9327   15.6210 C   0  0  0  0  0  0  0  0  0  0  0  0
   -2.1387   22.3578   15.2021 C   0  0  0  0  0  0  0  0  0  0  0  0
   -1.5243   23.4056   16.1372 C   0  0  0  0  0  0  0  0  0  0  0  0
   -0.1765   22.9736   16.7602 C   0  0  0  0  0  0  0  0  0  0  0  0
    0.5485   22.0060   15.8153 C   0  0  0  0  0  0  0  0  0  0  0  0
   -0.2591   20.7267   15.5614 C   0  0  0  0  0  0  0  0  0  0  0  0
   -1.6570   19.4780   17.5125 C   0  0  0  0  0  0  0  0  0  0  0  0
   -2.1949   20.6762   16.9687 O   0  0  0  0  0  0  0  0  0  0  0  0
    4.9532   24.8518   18.7158 N   0  0  0  0  0  0  0  0  0  0  0  0
    5.1429   24.9056   17.7512 H   0  0  0  0  0  0  0  0  0  0  0  0
    6.0116   25.1556   19.4911 C   0  0  0  0  0  0  0  0  0  0  0  0
    6.1685   26.4504   20.0453 C   0  0  0  0  0  0  0  0  0  0  0  0
    7.3329   26.4176   20.7885 C   0  0  0  0  0  0  0  0  0  0  0  0
    7.8015   25.1419   20.6177 N   0  0  0  0  0  0  0  0  0  0  0  0
    7.0168   24.3602   19.8613 N   0  0  0  0  0  0  0  0  0  0  0  0
    8.6439   24.8252   21.0169 H   0  0  0  0  0  0  0  0  0  0  0  0
    8.0151   27.4426   21.5730 C   0  0  0  0  0  0  0  0  0  0  0  0
    8.8079   27.1036   22.6790 C   0  0  0  0  0  0  0  0  0  0  0  0
    9.4557   28.0950   23.4216 C   0  0  0  0  0  0  0  0  0  0  0  0
    9.3186   29.4356   23.0674 C   0  0  0  0  0  0  0  0  0  0  0  0
    8.5310   29.7868   21.9738 C   0  0  0  0  0  0  0  0  0  0  0  0
    7.8812   28.7959   21.2329 C   0  0  0  0  0  0  0  0  0  0  0  0
 24 25  1  0
 18 25  1  0
 18 19  1  0
 19 20  1  0
 20 21  1  0
 21 16  1  0
 16  1  1  0
  1  2  2  0
  2  3  1  0
  3  7  1  0
  7  8  2  0
  7  9  2  0
  7 10  1  0
 10 11  2  0
 11 12  1  0
 12 13  2  0
 13 14  1  0
 14 15  2  0
  3  4  2  0
  4  5  1  0
  5 26  1  0
 26 28  1  0
 28 29  1  0
 29 30  2  0
 30 34  1  0
 34 35  2  0
 35 36  1  0
 36 37  2  0
 37 38  1  0
 38 39  2  0
 30 31  1  0
 31 32  1  0
  5  6  2  0
 21 22  1  0
 22 23  1  0
 23 18  1  0
  6  1  1  0
 15 10  1  0
 32 28  2  0
 39 34  1  0
 16 17  1  0
 26 27  1  0
 31 33  1  0
M  END
> <minimizedAffinity>
-8.86543

> <CNNscore>
0.5537539124

> <CNNaffinity>
7.1756577492

> <CNN_VS>
3.9735486507

> <CNNaffinity_variance>
0.1261914521

$$$$
