


 19 20  0  0  0  0  0  0  0  0999 V2000
   34.8388   70.9886   15.5443 C   0  0  0  0  0  0  0  0  0  0  0  0
   35.3079   70.9798   17.0165 C   0  0  0  0  0  0  0  0  0  0  0  0
   36.6180   71.5466   17.1493 O   0  0  0  0  0  0  0  0  0  0  0  0
   35.3631   69.5528   17.5570 C   0  0  0  0  0  0  0  0  0  0  0  0
   35.6890   69.5453   18.9483 O   0  0  0  0  0  0  0  0  0  0  0  0
   34.0462   68.8837   17.3220 C   0  0  0  0  0  0  0  0  0  0  0  0
   33.4775   67.9053   18.0343 N   0  0  0  0  0  0  0  0  0  0  0  0
   32.2279   67.6149   17.5526 C   0  0  0  0  0  0  0  0  0  0  0  0
   32.0217   68.4566   16.4933 C   0  0  0  0  0  0  0  0  0  0  0  0
   33.1769   69.2223   16.3528 N   0  0  0  0  0  0  0  0  0  0  0  0
   33.4301   70.3197   15.3767 C   0  0  0  0  0  0  0  0  0  0  0  0
   37.2533   71.0138   16.6459 H   0  0  0  0  0  0  0  0  0  0  0  0
   35.0077   70.0272   19.4426 H   0  0  0  0  0  0  0  0  0  0  0  0
   33.8995   67.4545   18.8010 H   0  0  0  0  0  0  0  0  0  0  0  0
   33.2287   69.8184   13.9263 C   0  0  0  0  0  0  0  0  0  0  0  0
   33.6269   68.4735   13.7229 O   0  0  0  0  0  0  0  0  0  0  0  0
   34.5773   68.3879   13.8967 H   0  0  0  0  0  0  0  0  0  0  0  0
   33.7067   73.0809   15.8214 C   0  0  0  0  0  0  0  0  0  0  0  0
   34.7467   72.3713   15.1479 O   0  0  0  0  0  0  0  0  0  0  0  0
 18 19  1  0
  1 19  1  0
  1  2  1  0
  2  3  1  0
  2  4  1  0
  4  5  1  0
  4  6  1  0
  6  7  1  0
  7  8  1  0
  8  9  2  0
  9 10  1  0
 10 11  1  0
 11 15  1  0
 15 16  1  0
 11  1  1  0
 10  6  2  0
  3 12  1  0
  5 13  1  0
  7 14  1  0
 16 17  1  0
M  CHG 1  10   1
M  END
> <minimizedAffinity>
-4.77783

> <CNNscore>
0.4737707376

> <CNNaffinity>
2.9660208225

> <CNN_VS>
1.4052138329

> <CNNaffinity_variance>
1.2050198317

$$$$



 19 20  0  0  0  0  0  0  0  0999 V2000
   33.4842   70.7835   15.4489 C   0  0  0  0  0  0  0  0  0  0  0  0
   34.5024   71.7576   16.0829 C   0  0  0  0  0  0  0  0  0  0  0  0
   35.0247   72.6717   15.1097 O   0  0  0  0  0  0  0  0  0  0  0  0
   35.6814   70.9929   16.6803 C   0  0  0  0  0  0  0  0  0  0  0  0
   36.5709   71.8777   17.3644 O   0  0  0  0  0  0  0  0  0  0  0  0
   35.1677   69.9408   17.6111 C   0  0  0  0  0  0  0  0  0  0  0  0
   35.7710   69.4222   18.6859 N   0  0  0  0  0  0  0  0  0  0  0  0
   34.9441   68.5398   19.3305 C   0  0  0  0  0  0  0  0  0  0  0  0
   33.7777   68.5168   18.6149 C   0  0  0  0  0  0  0  0  0  0  0  0
   33.9476   69.3794   17.5345 N   0  0  0  0  0  0  0  0  0  0  0  0
   32.9472   69.7412   16.4907 C   0  0  0  0  0  0  0  0  0  0  0  0
   35.4962   72.1767   14.4215 H   0  0  0  0  0  0  0  0  0  0  0  0
   36.0979   72.3145   18.0899 H   0  0  0  0  0  0  0  0  0  0  0  0
   36.6855   69.6443   18.9750 H   0  0  0  0  0  0  0  0  0  0  0  0
   32.4187   68.4734   15.7772 C   0  0  0  0  0  0  0  0  0  0  0  0
   32.7535   68.4068   14.4017 O   0  0  0  0  0  0  0  0  0  0  0  0
   32.3494   69.1543   13.9340 H   0  0  0  0  0  0  0  0  0  0  0  0
   32.2311   71.5621   13.5622 C   0  0  0  0  0  0  0  0  0  0  0  0
   32.3809   71.5848   14.9821 O   0  0  0  0  0  0  0  0  0  0  0  0
 18 19  1  0
  1 19  1  0
  1  2  1  0
  2  3  1  0
  2  4  1  0
  4  5  1  0
  4  6  1  0
  6  7  1  0
  7  8  1  0
  8  9  2  0
  9 10  1  0
 10 11  1  0
 11 15  1  0
 15 16  1  0
 11  1  1  0
 10  6  2  0
  3 12  1  0
  5 13  1  0
  7 14  1  0
 16 17  1  0
M  CHG 1  10   1
M  END
> <minimizedAffinity>
-4.77661

> <CNNscore>
0.4429261684

> <CNNaffinity>
2.9129486084

> <CNN_VS>
1.2902212143

> <CNNaffinity_variance>
1.3843477964

$$$$



 19 20  0  0  0  0  0  0  0  0999 V2000
   34.1140   68.7553   18.3945 C   0  0  0  0  0  0  0  0  0  0  0  0
   35.3769   69.5971   18.1051 C   0  0  0  0  0  0  0  0  0  0  0  0
   35.8796   70.2100   19.2997 O   0  0  0  0  0  0  0  0  0  0  0  0
   35.0666   70.7110   17.1079 C   0  0  0  0  0  0  0  0  0  0  0  0
   36.2529   71.4236   16.7517 O   0  0  0  0  0  0  0  0  0  0  0  0
   34.4226   70.1219   15.8932 C   0  0  0  0  0  0  0  0  0  0  0  0
   34.4570   70.5772   14.6364 N   0  0  0  0  0  0  0  0  0  0  0  0
   33.8140   69.7146   13.7878 C   0  0  0  0  0  0  0  0  0  0  0  0
   33.3635   68.6807   14.5632 C   0  0  0  0  0  0  0  0  0  0  0  0
   33.7334   68.9667   15.8754 N   0  0  0  0  0  0  0  0  0  0  0  0
   33.5207   68.1249   17.0866 C   0  0  0  0  0  0  0  0  0  0  0  0
   35.2116   70.8148   19.6585 H   0  0  0  0  0  0  0  0  0  0  0  0
   36.8830   70.8149   16.3352 H   0  0  0  0  0  0  0  0  0  0  0  0
   34.8863   71.4185   14.3584 H   0  0  0  0  0  0  0  0  0  0  0  0
   32.0189   67.7964   17.2671 C   0  0  0  0  0  0  0  0  0  0  0  0
   31.7754   66.5774   17.9477 O   0  0  0  0  0  0  0  0  0  0  0  0
   32.1413   65.8411   17.4331 H   0  0  0  0  0  0  0  0  0  0  0  0
   33.8363   67.7152   20.5339 C   0  0  0  0  0  0  0  0  0  0  0  0
   34.5192   67.6928   19.2801 O   0  0  0  0  0  0  0  0  0  0  0  0
 18 19  1  0
  1 19  1  0
  1  2  1  0
  2  3  1  0
  2  4  1  0
  4  5  1  0
  4  6  1  0
  6  7  1  0
  7  8  1  0
  8  9  2  0
  9 10  1  0
 10 11  1  0
 11 15  1  0
 15 16  1  0
 11  1  1  0
 10  6  2  0
  3 12  1  0
  5 13  1  0
  7 14  1  0
 16 17  1  0
M  CHG 1  10   1
M  END
> <minimizedAffinity>
-5.11829

> <CNNscore>
0.3602313697

> <CNNaffinity>
2.9800531864

> <CNN_VS>
1.0735086203

> <CNNaffinity_variance>
1.2536444664

$$$$



 19 20  0  0  0  0  0  0  0  0999 V2000
   33.4650   69.6614   15.7576 C   0  0  0  0  0  0  0  0  0  0  0  0
   32.6961   68.3224   15.8134 C   0  0  0  0  0  0  0  0  0  0  0  0
   31.5548   68.3403   14.9460 O   0  0  0  0  0  0  0  0  0  0  0  0
   32.1976   68.0446   17.2297 C   0  0  0  0  0  0  0  0  0  0  0  0
   31.5824   66.7574   17.3120 O   0  0  0  0  0  0  0  0  0  0  0  0
   33.3442   68.1412   18.1853 C   0  0  0  0  0  0  0  0  0  0  0  0
   33.5028   67.5084   19.3525 N   0  0  0  0  0  0  0  0  0  0  0  0
   34.7266   67.7939   19.8992 C   0  0  0  0  0  0  0  0  0  0  0  0
   35.3472   68.6434   19.0239 C   0  0  0  0  0  0  0  0  0  0  0  0
   34.4584   68.8650   17.9745 N   0  0  0  0  0  0  0  0  0  0  0  0
   34.6839   69.6759   16.7446 C   0  0  0  0  0  0  0  0  0  0  0  0
   30.9400   69.0328   15.2348 H   0  0  0  0  0  0  0  0  0  0  0  0
   32.2312   66.0737   17.0828 H   0  0  0  0  0  0  0  0  0  0  0  0
   32.8313   66.9174   19.7636 H   0  0  0  0  0  0  0  0  0  0  0  0
   35.0770   71.1273   17.1112 C   0  0  0  0  0  0  0  0  0  0  0  0
   36.3777   71.4951   16.6854 O   0  0  0  0  0  0  0  0  0  0  0  0
   37.0333   70.9308   17.1244 H   0  0  0  0  0  0  0  0  0  0  0  0
   33.9238   68.5785   13.6712 C   0  0  0  0  0  0  0  0  0  0  0  0
   33.9567   69.8001   14.4099 O   0  0  0  0  0  0  0  0  0  0  0  0
 18 19  1  0
  1 19  1  0
  1  2  1  0
  2  3  1  0
  2  4  1  0
  4  5  1  0
  4  6  1  0
  6  7  1  0
  7  8  1  0
  8  9  2  0
  9 10  1  0
 10 11  1  0
 11 15  1  0
 15 16  1  0
 11  1  1  0
 10  6  2  0
  3 12  1  0
  5 13  1  0
  7 14  1  0
 16 17  1  0
M  CHG 1  10   1
M  END
> <minimizedAffinity>
-4.57156

> <CNNscore>
0.2860766649

> <CNNaffinity>
2.7023696899

> <CNN_VS>
0.7730848789

> <CNNaffinity_variance>
2.0188367367

$$$$



 19 20  0  0  0  0  0  0  0  0999 V2000
   27.0300   65.3255    9.7663 C   0  0  0  0  0  0  0  0  0  0  0  0
   27.0176   66.2334    8.5160 C   0  0  0  0  0  0  0  0  0  0  0  0
   25.7861   66.1077    7.7929 O   0  0  0  0  0  0  0  0  0  0  0  0
   28.1532   65.8596    7.5662 C   0  0  0  0  0  0  0  0  0  0  0  0
   28.2156   66.7651    6.4624 O   0  0  0  0  0  0  0  0  0  0  0  0
   29.4463   65.8576    8.3179 C   0  0  0  0  0  0  0  0  0  0  0  0
   30.6750   66.0998    7.8495 N   0  0  0  0  0  0  0  0  0  0  0  0
   31.5951   66.0869    8.8650 C   0  0  0  0  0  0  0  0  0  0  0  0
   30.8952   65.8233   10.0112 C   0  0  0  0  0  0  0  0  0  0  0  0
   29.5614   65.6607    9.6437 N   0  0  0  0  0  0  0  0  0  0  0  0
   28.3940   65.4107   10.5358 C   0  0  0  0  0  0  0  0  0  0  0  0
   25.6858   65.1945    7.4814 H   0  0  0  0  0  0  0  0  0  0  0  0
   28.3814   67.6630    6.7897 H   0  0  0  0  0  0  0  0  0  0  0  0
   30.8897   66.2651    6.9030 H   0  0  0  0  0  0  0  0  0  0  0  0
   28.6222   64.1416   11.3919 C   0  0  0  0  0  0  0  0  0  0  0  0
   28.1217   62.9537   10.8028 O   0  0  0  0  0  0  0  0  0  0  0  0
   27.1601   63.0253   10.6975 H   0  0  0  0  0  0  0  0  0  0  0  0
   25.0045   64.7978   10.9303 C   0  0  0  0  0  0  0  0  0  0  0  0
   25.9783   65.7983   10.6310 O   0  0  0  0  0  0  0  0  0  0  0  0
 18 19  1  0
  1 19  1  0
  1  2  1  0
  2  3  1  0
  2  4  1  0
  4  5  1  0
  4  6  1  0
  6  7  1  0
  7  8  1  0
  8  9  2  0
  9 10  1  0
 10 11  1  0
 11 15  1  0
 15 16  1  0
 11  1  1  0
 10  6  2  0
  3 12  1  0
  5 13  1  0
  7 14  1  0
 16 17  1  0
M  CHG 1  10   1
M  END
> <minimizedAffinity>
-4.96142

> <CNNscore>
0.2742474675

> <CNNaffinity>
4.6753077507

> <CNN_VS>
1.2821912766

> <CNNaffinity_variance>
0.0083909230

$$$$



 19 20  0  0  0  0  0  0  0  0999 V2000
   30.6548   66.2997    7.4645 C   0  0  0  0  0  0  0  0  0  0  0  0
   31.7928   66.2045    8.5053 C   0  0  0  0  0  0  0  0  0  0  0  0
   33.0334   65.8355    7.8888 O   0  0  0  0  0  0  0  0  0  0  0  0
   31.4700   65.1521    9.5635 C   0  0  0  0  0  0  0  0  0  0  0  0
   32.4648   65.1364   10.5893 O   0  0  0  0  0  0  0  0  0  0  0  0
   30.1205   65.4327   10.1444 C   0  0  0  0  0  0  0  0  0  0  0  0
   29.6706   65.1393   11.3689 N   0  0  0  0  0  0  0  0  0  0  0  0
   28.4059   65.6334   11.5548 C   0  0  0  0  0  0  0  0  0  0  0  0
   28.0649   66.2594   10.3865 C   0  0  0  0  0  0  0  0  0  0  0  0
   29.1388   66.1019    9.5134 N   0  0  0  0  0  0  0  0  0  0  0  0
   29.2796   66.6474    8.1337 C   0  0  0  0  0  0  0  0  0  0  0  0
   32.9450   64.9584    7.4840 H   0  0  0  0  0  0  0  0  0  0  0  0
   32.4928   66.0022   11.0258 H   0  0  0  0  0  0  0  0  0  0  0  0
   30.1791   64.6364   12.0455 H   0  0  0  0  0  0  0  0  0  0  0  0
   28.1020   66.1868    7.2410 C   0  0  0  0  0  0  0  0  0  0  0  0
   27.2667   65.2160    7.8479 O   0  0  0  0  0  0  0  0  0  0  0  0
   27.7820   64.4146    8.0302 H   0  0  0  0  0  0  0  0  0  0  0  0
   31.5932   66.8898    5.3414 C   0  0  0  0  0  0  0  0  0  0  0  0
   31.0119   67.3614    6.5574 O   0  0  0  0  0  0  0  0  0  0  0  0
 18 19  1  0
  1 19  1  0
  1  2  1  0
  2  3  1  0
  2  4  1  0
  4  5  1  0
  4  6  1  0
  6  7  1  0
  7  8  1  0
  8  9  2  0
  9 10  1  0
 10 11  1  0
 11 15  1  0
 15 16  1  0
 11  1  1  0
 10  6  2  0
  3 12  1  0
  5 13  1  0
  7 14  1  0
 16 17  1  0
M  CHG 1  10   1
M  END
> <minimizedAffinity>
-5.07149

> <CNNscore>
0.2724273205

> <CNNaffinity>
5.0669569969

> <CNN_VS>
1.3803775311

> <CNNaffinity_variance>
0.0280933231

$$$$



 19 20  0  0  0  0  0  0  0  0999 V2000
   31.9376   67.3950   18.9253 C   0  0  0  0  0  0  0  0  0  0  0  0
   33.0475   66.8242   19.8362 C   0  0  0  0  0  0  0  0  0  0  0  0
   32.4959   66.2181   21.0124 O   0  0  0  0  0  0  0  0  0  0  0  0
   33.9981   67.9309   20.2872 C   0  0  0  0  0  0  0  0  0  0  0  0
   35.0887   67.3935   21.0382 O   0  0  0  0  0  0  0  0  0  0  0  0
   34.4998   68.6709   19.0881 C   0  0  0  0  0  0  0  0  0  0  0  0
   35.6634   69.3129   18.9402 N   0  0  0  0  0  0  0  0  0  0  0  0
   35.7942   69.7971   17.6649 C   0  0  0  0  0  0  0  0  0  0  0  0
   34.6546   69.4341   16.9997 C   0  0  0  0  0  0  0  0  0  0  0  0
   33.8516   68.7535   17.9122 N   0  0  0  0  0  0  0  0  0  0  0  0
   32.5302   68.1113   17.6621 C   0  0  0  0  0  0  0  0  0  0  0  0
   32.0214   66.8879   21.5292 H   0  0  0  0  0  0  0  0  0  0  0  0
   35.5896   66.7752   20.4836 H   0  0  0  0  0  0  0  0  0  0  0  0
   36.3353   69.4228   19.6514 H   0  0  0  0  0  0  0  0  0  0  0  0
   31.5232   69.1376   17.0892 C   0  0  0  0  0  0  0  0  0  0  0  0
   30.2217   68.6143   16.8877 O   0  0  0  0  0  0  0  0  0  0  0  0
   30.2590   67.8969   16.2358 H   0  0  0  0  0  0  0  0  0  0  0  0
   29.9071   66.1556   19.2027 C   0  0  0  0  0  0  0  0  0  0  0  0
   31.1405   66.2747   18.4932 O   0  0  0  0  0  0  0  0  0  0  0  0
 18 19  1  0
  1 19  1  0
  1  2  1  0
  2  3  1  0
  2  4  1  0
  4  5  1  0
  4  6  1  0
  6  7  1  0
  7  8  1  0
  8  9  2  0
  9 10  1  0
 10 11  1  0
 11 15  1  0
 15 16  1  0
 11  1  1  0
 10  6  2  0
  3 12  1  0
  5 13  1  0
  7 14  1  0
 16 17  1  0
M  CHG 1  10   1
M  END
> <minimizedAffinity>
-4.55176

> <CNNscore>
0.2487349212

> <CNNaffinity>
2.7072286606

> <CNN_VS>
0.6733822823

> <CNNaffinity_variance>
1.3383697271

$$$$



 19 20  0  0  0  0  0  0  0  0999 V2000
   28.2658   65.8922    8.9145 C   0  0  0  0  0  0  0  0  0  0  0  0
   26.7508   65.6046    9.0119 C   0  0  0  0  0  0  0  0  0  0  0  0
   26.0252   66.2755    7.9734 O   0  0  0  0  0  0  0  0  0  0  0  0
   26.1950   66.0849   10.3506 C   0  0  0  0  0  0  0  0  0  0  0  0
   24.8199   65.7231   10.4927 O   0  0  0  0  0  0  0  0  0  0  0  0
   27.0093   65.5023   11.4618 C   0  0  0  0  0  0  0  0  0  0  0  0
   26.6216   65.2188   12.7097 N   0  0  0  0  0  0  0  0  0  0  0  0
   27.6343   64.6167   13.4097 C   0  0  0  0  0  0  0  0  0  0  0  0
   28.6939   64.5278   12.5481 C   0  0  0  0  0  0  0  0  0  0  0  0
   28.2900   65.1069   11.3473 N   0  0  0  0  0  0  0  0  0  0  0  0
   29.0654   65.2099   10.0787 C   0  0  0  0  0  0  0  0  0  0  0  0
   26.1385   67.2342    8.0673 H   0  0  0  0  0  0  0  0  0  0  0  0
   24.7347   64.7574   10.4616 H   0  0  0  0  0  0  0  0  0  0  0  0
   25.7294   65.4159   13.0761 H   0  0  0  0  0  0  0  0  0  0  0  0
   30.4122   65.9340   10.3184 C   0  0  0  0  0  0  0  0  0  0  0  0
   31.5461   65.0923   10.1982 O   0  0  0  0  0  0  0  0  0  0  0  0
   31.5039   64.3949   10.8710 H   0  0  0  0  0  0  0  0  0  0  0  0
   29.3232   66.3093    6.8064 C   0  0  0  0  0  0  0  0  0  0  0  0
   28.7115   65.3413    7.6594 O   0  0  0  0  0  0  0  0  0  0  0  0
 18 19  1  0
  1 19  1  0
  1  2  1  0
  2  3  1  0
  2  4  1  0
  4  5  1  0
  4  6  1  0
  6  7  1  0
  7  8  1  0
  8  9  2  0
  9 10  1  0
 10 11  1  0
 11 15  1  0
 15 16  1  0
 11  1  1  0
 10  6  2  0
  3 12  1  0
  5 13  1  0
  7 14  1  0
 16 17  1  0
M  CHG 1  10   1
M  END
> <minimizedAffinity>
-5.20485

> <CNNscore>
0.2225266248

> <CNNaffinity>
3.0304336548

> <CNN_VS>
0.6743521690

> <CNNaffinity_variance>
1.1305650473

$$$$



 19 20  0  0  0  0  0  0  0  0999 V2000
   28.1964   65.8774   11.0477 C   0  0  0  0  0  0  0  0  0  0  0  0
   26.8087   66.3854   10.5964 C   0  0  0  0  0  0  0  0  0  0  0  0
   25.7917   66.0337   11.5437 O   0  0  0  0  0  0  0  0  0  0  0  0
   26.4211   65.7743    9.2518 C   0  0  0  0  0  0  0  0  0  0  0  0
   25.1906   66.3237    8.7761 O   0  0  0  0  0  0  0  0  0  0  0  0
   27.5195   66.0131    8.2651 C   0  0  0  0  0  0  0  0  0  0  0  0
   27.4256   66.1324    6.9366 N   0  0  0  0  0  0  0  0  0  0  0  0
   28.6450   66.4300    6.3866 C   0  0  0  0  0  0  0  0  0  0  0  0
   29.5287   66.4956    7.4297 C   0  0  0  0  0  0  0  0  0  0  0  0
   28.8105   66.2094    8.5884 N   0  0  0  0  0  0  0  0  0  0  0  0
   29.3095   66.2061    9.9927 C   0  0  0  0  0  0  0  0  0  0  0  0
   25.7322   65.0679   11.6106 H   0  0  0  0  0  0  0  0  0  0  0  0
   25.2899   67.2808    8.6533 H   0  0  0  0  0  0  0  0  0  0  0  0
   26.5931   66.0214    6.4230 H   0  0  0  0  0  0  0  0  0  0  0  0
   30.5113   65.2425   10.1436 C   0  0  0  0  0  0  0  0  0  0  0  0
   30.4407   64.1009    9.3068 O   0  0  0  0  0  0  0  0  0  0  0  0
   29.6583   63.5770    9.5400 H   0  0  0  0  0  0  0  0  0  0  0  0
   28.6093   65.6806   13.3987 C   0  0  0  0  0  0  0  0  0  0  0  0
   28.5065   66.5602   12.2785 O   0  0  0  0  0  0  0  0  0  0  0  0
 18 19  1  0
  1 19  1  0
  1  2  1  0
  2  3  1  0
  2  4  1  0
  4  5  1  0
  4  6  1  0
  6  7  1  0
  7  8  1  0
  8  9  2  0
  9 10  1  0
 10 11  1  0
 11 15  1  0
 15 16  1  0
 11  1  1  0
 10  6  2  0
  3 12  1  0
  5 13  1  0
  7 14  1  0
 16 17  1  0
M  CHG 1  10   1
M  END
> <minimizedAffinity>
-4.91105

> <CNNscore>
0.2157203853

> <CNNaffinity>
3.6519854069

> <CNN_VS>
0.7878077030

> <CNNaffinity_variance>
0.4836835861

$$$$
