


 40 43  0  0  0  0  0  0  0  0999 V2000
   34.6128  -28.7105   -2.6698 C   0  0  0  0  0  0  0  0  0  0  0  0
   33.5788  -27.7766   -2.4627 C   0  0  0  0  0  0  0  0  0  0  0  0
   32.5374  -28.0285   -1.5581 C   0  0  0  0  0  0  0  0  0  0  0  0
   31.5004  -27.1027   -1.3557 C   0  0  0  0  0  0  0  0  0  0  0  0
   30.4680  -27.3746   -0.4573 C   0  0  0  0  0  0  0  0  0  0  0  0
   30.4604  -28.5727    0.2500 C   0  0  0  0  0  0  0  0  0  0  0  0
   31.4865  -29.4998    0.0622 C   0  0  0  0  0  0  0  0  0  0  0  0
   32.5324  -29.2401   -0.8384 C   0  0  0  0  0  0  0  0  0  0  0  0
   33.5813  -30.1550   -1.0298 C   0  0  0  0  0  0  0  0  0  0  0  0
   34.6459  -29.9020   -1.9225 C   0  0  0  0  0  0  0  0  0  0  0  0
   35.9382  -27.0452   -3.8335 N   0  0  0  0  0  0  0  0  0  0  0  0
   35.6299  -28.3853   -3.7131 C   0  0  0  0  0  0  0  0  0  0  0  0
   36.1490  -29.2480   -4.4085 O   0  0  0  0  0  0  0  0  0  0  0  0
   35.3661  -26.3783   -3.3895 H   0  0  0  0  0  0  0  0  0  0  0  0
   37.0823  -26.5988   -4.5967 C   0  0  0  0  0  0  0  0  0  0  0  0
   38.1278  -22.5813   -3.3823 C   0  0  0  0  0  0  0  0  0  0  0  0
   37.7431  -23.5271   -2.4330 C   0  0  0  0  0  0  0  0  0  0  0  0
   37.4191  -24.8287   -2.8302 C   0  0  0  0  0  0  0  0  0  0  0  0
   37.4765  -25.2046   -4.1804 C   0  0  0  0  0  0  0  0  0  0  0  0
   37.8587  -24.2495   -5.1292 C   0  0  0  0  0  0  0  0  0  0  0  0
   38.1847  -22.9509   -4.7282 C   0  0  0  0  0  0  0  0  0  0  0  0
   39.1159  -21.0147   -1.8957 C   0  0  0  0  0  0  0  0  0  0  0  0
   38.4636  -21.2791   -3.1322 O   0  0  0  0  0  0  0  0  0  0  0  0
   35.7555  -30.9335   -2.0258 C   0  0  0  0  0  0  0  0  0  0  0  0
   35.2969  -32.3033   -2.3382 N   0  0  0  0  0  0  0  0  0  0  0  0
   35.8370  -32.8062   -3.6025 C   0  0  0  0  0  0  0  0  0  0  0  0
   35.6356  -33.2028   -1.2188 C   0  0  0  0  0  0  0  0  0  0  0  0
   34.5153  -33.4019   -0.2115 C   0  0  0  0  0  0  0  0  0  0  0  0
   34.4850  -32.5913    0.9348 C   0  0  0  0  0  0  0  0  0  0  0  0
   33.4733  -32.7464    1.8755 C   0  0  0  0  0  0  0  0  0  0  0  0
   33.4609  -31.9578    2.9586 F   0  0  0  0  0  0  0  0  0  0  0  0
   32.4714  -33.6960    1.7139 C   0  0  0  0  0  0  0  0  0  0  0  0
   32.4762  -34.5227    0.5879 C   0  0  0  0  0  0  0  0  0  0  0  0
   33.4873  -34.3631   -0.3800 C   0  0  0  0  0  0  0  0  0  0  0  0
   33.4959  -35.2669   -1.5480 C   0  0  0  0  0  0  0  0  0  0  0  0
   34.3948  -36.0191   -1.8714 O   0  0  0  0  0  0  0  0  0  0  0  0
   32.3547  -35.1174   -2.2440 O   0  0  0  0  0  0  0  0  0  0  0  0
   31.6975  -34.5209   -1.9436 H   0  0  0  0  0  0  0  0  0  0  0  0
   31.4950  -35.4465    0.3380 O   0  0  0  0  0  0  0  0  0  0  0  0
   30.8192  -35.9703    1.4749 C   0  0  0  0  0  0  0  0  0  0  0  0
 22 23  1  0
 23 16  1  0
 16 17  2  0
 17 18  1  0
 18 19  2  0
 19 15  1  0
 15 11  1  0
 11 12  1  0
 12 13  2  0
 12  1  1  0
  1  2  2  0
  2  3  1  0
  3  4  2  0
  4  5  1  0
  5  6  2  0
  6  7  1  0
  7  8  2  0
  8  9  1  0
  9 10  2  0
 10 24  1  0
 24 25  1  0
 25 26  1  0
 25 27  1  0
 27 28  1  0
 28 29  2  0
 29 30  1  0
 30 31  1  0
 30 32  2  0
 32 33  1  0
 33 39  1  0
 39 40  1  0
 33 34  2  0
 34 35  1  0
 35 36  2  0
 35 37  1  0
 19 20  1  0
 20 21  2  0
 21 16  1  0
 10  1  1  0
 34 28  1  0
  8  3  1  0
 11 14  1  0
 37 38  1  0
M  END
> <minimizedAffinity>
-8.37360

> <CNNscore>
0.8860054612

> <CNNaffinity>
6.3227820396

> <CNN_VS>
5.6020193100

> <CNNaffinity_variance>
0.4726987779

$$$$



 40 43  0  0  0  0  0  0  0  0999 V2000
   34.8170  -28.7434   -2.5109 C   0  0  0  0  0  0  0  0  0  0  0  0
   33.7996  -27.7978   -2.2761 C   0  0  0  0  0  0  0  0  0  0  0  0
   32.6773  -28.1110   -1.4959 C   0  0  0  0  0  0  0  0  0  0  0  0
   31.6571  -27.1728   -1.2671 C   0  0  0  0  0  0  0  0  0  0  0  0
   30.5436  -27.5054   -0.4947 C   0  0  0  0  0  0  0  0  0  0  0  0
   30.4374  -28.7773    0.0591 C   0  0  0  0  0  0  0  0  0  0  0  0
   31.4455  -29.7180   -0.1564 C   0  0  0  0  0  0  0  0  0  0  0  0
   32.5722  -29.3978   -0.9314 C   0  0  0  0  0  0  0  0  0  0  0  0
   33.6037  -30.3270   -1.1470 C   0  0  0  0  0  0  0  0  0  0  0  0
   34.7481  -30.0152   -1.9134 C   0  0  0  0  0  0  0  0  0  0  0  0
   35.9524  -27.0025   -3.7616 N   0  0  0  0  0  0  0  0  0  0  0  0
   35.9292  -28.3401   -3.4214 C   0  0  0  0  0  0  0  0  0  0  0  0
   36.7572  -29.1413   -3.8334 O   0  0  0  0  0  0  0  0  0  0  0  0
   35.1687  -26.4415   -3.5610 H   0  0  0  0  0  0  0  0  0  0  0  0
   37.1015  -26.4067   -4.4061 C   0  0  0  0  0  0  0  0  0  0  0  0
   35.9285  -24.5168   -8.1156 C   0  0  0  0  0  0  0  0  0  0  0  0
   37.1245  -24.1639   -7.4920 C   0  0  0  0  0  0  0  0  0  0  0  0
   37.5052  -24.7882   -6.2994 C   0  0  0  0  0  0  0  0  0  0  0  0
   36.6981  -25.7748   -5.7140 C   0  0  0  0  0  0  0  0  0  0  0  0
   35.4964  -26.1213   -6.3420 C   0  0  0  0  0  0  0  0  0  0  0  0
   35.1209  -25.4976   -7.5351 C   0  0  0  0  0  0  0  0  0  0  0  0
   34.6054  -24.8280  -10.0632 C   0  0  0  0  0  0  0  0  0  0  0  0
   35.4369  -23.9840   -9.2756 O   0  0  0  0  0  0  0  0  0  0  0  0
   35.8288  -31.0730   -2.0512 C   0  0  0  0  0  0  0  0  0  0  0  0
   35.3256  -32.4396   -2.3023 N   0  0  0  0  0  0  0  0  0  0  0  0
   35.8391  -33.0115   -3.5483 C   0  0  0  0  0  0  0  0  0  0  0  0
   35.6460  -33.3016   -1.1486 C   0  0  0  0  0  0  0  0  0  0  0  0
   34.5047  -33.4798   -0.1611 C   0  0  0  0  0  0  0  0  0  0  0  0
   34.4643  -32.6620    0.9799 C   0  0  0  0  0  0  0  0  0  0  0  0
   33.4334  -32.7979    1.9025 C   0  0  0  0  0  0  0  0  0  0  0  0
   33.4118  -32.0028    2.9807 F   0  0  0  0  0  0  0  0  0  0  0  0
   32.4219  -33.7349    1.7278 C   0  0  0  0  0  0  0  0  0  0  0  0
   32.4362  -34.5682    0.6068 C   0  0  0  0  0  0  0  0  0  0  0  0
   33.4671  -34.4280   -0.3431 C   0  0  0  0  0  0  0  0  0  0  0  0
   33.4849  -35.3387   -1.5056 C   0  0  0  0  0  0  0  0  0  0  0  0
   34.3897  -36.0869   -1.8219 O   0  0  0  0  0  0  0  0  0  0  0  0
   32.3447  -35.2009   -2.2057 O   0  0  0  0  0  0  0  0  0  0  0  0
   31.6828  -34.6070   -1.9107 H   0  0  0  0  0  0  0  0  0  0  0  0
   31.4474  -35.4802    0.3441 O   0  0  0  0  0  0  0  0  0  0  0  0
   30.7047  -35.9440    1.4651 C   0  0  0  0  0  0  0  0  0  0  0  0
 22 23  1  0
 23 16  1  0
 16 17  2  0
 17 18  1  0
 18 19  2  0
 19 15  1  0
 15 11  1  0
 11 12  1  0
 12 13  2  0
 12  1  1  0
  1  2  2  0
  2  3  1  0
  3  4  2  0
  4  5  1  0
  5  6  2  0
  6  7  1  0
  7  8  2  0
  8  9  1  0
  9 10  2  0
 10 24  1  0
 24 25  1  0
 25 26  1  0
 25 27  1  0
 27 28  1  0
 28 29  2  0
 29 30  1  0
 30 31  1  0
 30 32  2  0
 32 33  1  0
 33 39  1  0
 39 40  1  0
 33 34  2  0
 34 35  1  0
 35 36  2  0
 35 37  1  0
 19 20  1  0
 20 21  2  0
 21 16  1  0
 10  1  1  0
 34 28  1  0
  8  3  1  0
 11 14  1  0
 37 38  1  0
M  END
> <minimizedAffinity>
-8.16513

> <CNNscore>
0.8731509447

> <CNNaffinity>
6.2722678185

> <CNN_VS>
5.4766364098

> <CNNaffinity_variance>
0.2572647035

$$$$



 40 43  0  0  0  0  0  0  0  0999 V2000
   34.5245  -28.6483   -2.5781 C   0  0  0  0  0  0  0  0  0  0  0  0
   33.4811  -27.7432   -2.3016 C   0  0  0  0  0  0  0  0  0  0  0  0
   32.4363  -28.0777   -1.4283 C   0  0  0  0  0  0  0  0  0  0  0  0
   31.3901  -27.1803   -1.1571 C   0  0  0  0  0  0  0  0  0  0  0  0
   30.3544  -27.5341   -0.2916 C   0  0  0  0  0  0  0  0  0  0  0  0
   30.3528  -28.7866    0.3141 C   0  0  0  0  0  0  0  0  0  0  0  0
   31.3881  -29.6866    0.0573 C   0  0  0  0  0  0  0  0  0  0  0  0
   32.4373  -29.3447   -0.8114 C   0  0  0  0  0  0  0  0  0  0  0  0
   33.4954  -30.2320   -1.0705 C   0  0  0  0  0  0  0  0  0  0  0  0
   34.5633  -29.8973   -1.9317 C   0  0  0  0  0  0  0  0  0  0  0  0
   35.2785  -28.6104   -4.8833 N   0  0  0  0  0  0  0  0  0  0  0  0
   35.5453  -28.2295   -3.5837 C   0  0  0  0  0  0  0  0  0  0  0  0
   36.5443  -27.5950   -3.2728 O   0  0  0  0  0  0  0  0  0  0  0  0
   34.5696  -29.2717   -5.0548 H   0  0  0  0  0  0  0  0  0  0  0  0
   36.0164  -28.0604   -5.9985 C   0  0  0  0  0  0  0  0  0  0  0  0
   37.9853  -31.2281   -8.1887 C   0  0  0  0  0  0  0  0  0  0  0  0
   37.6243  -30.0451   -8.8320 C   0  0  0  0  0  0  0  0  0  0  0  0
   36.9999  -29.0187   -8.1155 C   0  0  0  0  0  0  0  0  0  0  0  0
   36.7290  -29.1584   -6.7463 C   0  0  0  0  0  0  0  0  0  0  0  0
   37.0892  -30.3501   -6.1071 C   0  0  0  0  0  0  0  0  0  0  0  0
   37.7158  -31.3721   -6.8256 C   0  0  0  0  0  0  0  0  0  0  0  0
   39.4301  -33.0953   -7.9301 C   0  0  0  0  0  0  0  0  0  0  0  0
   38.5931  -32.3076   -8.7686 O   0  0  0  0  0  0  0  0  0  0  0  0
   35.6824  -30.9076   -2.1123 C   0  0  0  0  0  0  0  0  0  0  0  0
   35.2293  -32.2964   -2.3360 N   0  0  0  0  0  0  0  0  0  0  0  0
   35.7458  -32.8664   -3.5816 C   0  0  0  0  0  0  0  0  0  0  0  0
   35.6006  -33.1280   -1.1752 C   0  0  0  0  0  0  0  0  0  0  0  0
   34.4755  -33.3551   -0.1793 C   0  0  0  0  0  0  0  0  0  0  0  0
   34.4098  -32.5415    0.9634 C   0  0  0  0  0  0  0  0  0  0  0  0
   33.3928  -32.7217    1.8938 C   0  0  0  0  0  0  0  0  0  0  0  0
   33.3464  -31.9298    2.9736 F   0  0  0  0  0  0  0  0  0  0  0  0
   32.4200  -33.6999    1.7252 C   0  0  0  0  0  0  0  0  0  0  0  0
   32.4603  -34.5302    0.6026 C   0  0  0  0  0  0  0  0  0  0  0  0
   33.4770  -34.3456   -0.3549 C   0  0  0  0  0  0  0  0  0  0  0  0
   33.5238  -35.2531   -1.5192 C   0  0  0  0  0  0  0  0  0  0  0  0
   34.4569  -35.9615   -1.8445 O   0  0  0  0  0  0  0  0  0  0  0  0
   32.3728  -35.1631   -2.2093 O   0  0  0  0  0  0  0  0  0  0  0  0
   31.6886  -34.5984   -1.9077 H   0  0  0  0  0  0  0  0  0  0  0  0
   31.5084  -35.4824    0.3460 O   0  0  0  0  0  0  0  0  0  0  0  0
   30.7878  -35.9714    1.4706 C   0  0  0  0  0  0  0  0  0  0  0  0
 22 23  1  0
 23 16  1  0
 16 17  2  0
 17 18  1  0
 18 19  2  0
 19 15  1  0
 15 11  1  0
 11 12  1  0
 12 13  2  0
 12  1  1  0
  1  2  2  0
  2  3  1  0
  3  4  2  0
  4  5  1  0
  5  6  2  0
  6  7  1  0
  7  8  2  0
  8  9  1  0
  9 10  2  0
 10 24  1  0
 24 25  1  0
 25 26  1  0
 25 27  1  0
 27 28  1  0
 28 29  2  0
 29 30  1  0
 30 31  1  0
 30 32  2  0
 32 33  1  0
 33 39  1  0
 39 40  1  0
 33 34  2  0
 34 35  1  0
 35 36  2  0
 35 37  1  0
 19 20  1  0
 20 21  2  0
 21 16  1  0
 10  1  1  0
 34 28  1  0
  8  3  1  0
 11 14  1  0
 37 38  1  0
M  END
> <minimizedAffinity>
-7.96412

> <CNNscore>
0.8606629968

> <CNNaffinity>
6.5385870934

> <CNN_VS>
5.6275200844

> <CNNaffinity_variance>
0.2787382603

$$$$



 40 43  0  0  0  0  0  0  0  0999 V2000
   33.0073  -31.6709    0.0827 C   0  0  0  0  0  0  0  0  0  0  0  0
   32.0100  -30.9296    0.7463 C   0  0  0  0  0  0  0  0  0  0  0  0
   31.5567  -29.7016    0.2436 C   0  0  0  0  0  0  0  0  0  0  0  0
   30.5683  -28.9562    0.9076 C   0  0  0  0  0  0  0  0  0  0  0  0
   30.1357  -27.7320    0.3964 C   0  0  0  0  0  0  0  0  0  0  0  0
   30.6835  -27.2397   -0.7839 C   0  0  0  0  0  0  0  0  0  0  0  0
   31.6631  -27.9717   -1.4565 C   0  0  0  0  0  0  0  0  0  0  0  0
   32.1085  -29.2054   -0.9543 C   0  0  0  0  0  0  0  0  0  0  0  0
   33.0831  -29.9630   -1.6252 C   0  0  0  0  0  0  0  0  0  0  0  0
   33.5315  -31.2107   -1.1390 C   0  0  0  0  0  0  0  0  0  0  0  0
   32.6872  -34.0343    0.5257 N   0  0  0  0  0  0  0  0  0  0  0  0
   33.4798  -32.9248    0.7409 C   0  0  0  0  0  0  0  0  0  0  0  0
   34.4963  -32.9607    1.4210 O   0  0  0  0  0  0  0  0  0  0  0  0
   31.7918  -33.9170    0.1337 H   0  0  0  0  0  0  0  0  0  0  0  0
   33.1422  -35.3647    0.8628 C   0  0  0  0  0  0  0  0  0  0  0  0
   30.4996  -37.1778    3.7675 C   0  0  0  0  0  0  0  0  0  0  0  0
   31.4812  -37.9397    3.1352 C   0  0  0  0  0  0  0  0  0  0  0  0
   32.3418  -37.3448    2.2066 C   0  0  0  0  0  0  0  0  0  0  0  0
   32.2356  -35.9806    1.8978 C   0  0  0  0  0  0  0  0  0  0  0  0
   31.2451  -35.2221    2.5320 C   0  0  0  0  0  0  0  0  0  0  0  0
   30.3892  -35.8193    3.4616 C   0  0  0  0  0  0  0  0  0  0  0  0
   29.6614  -39.0143    5.0186 C   0  0  0  0  0  0  0  0  0  0  0  0
   29.5938  -37.6327    4.6861 O   0  0  0  0  0  0  0  0  0  0  0  0
   34.5557  -31.9740   -1.9599 C   0  0  0  0  0  0  0  0  0  0  0  0
   35.9631  -31.6820   -1.6162 N   0  0  0  0  0  0  0  0  0  0  0  0
   36.8315  -31.6189   -2.7932 C   0  0  0  0  0  0  0  0  0  0  0  0
   36.0299  -30.4309   -0.8371 C   0  0  0  0  0  0  0  0  0  0  0  0
   36.9406  -29.3688   -1.4306 C   0  0  0  0  0  0  0  0  0  0  0  0
   36.4132  -28.4814   -2.3827 C   0  0  0  0  0  0  0  0  0  0  0  0
   37.2184  -27.4972   -2.9442 C   0  0  0  0  0  0  0  0  0  0  0  0
   36.6923  -26.6578   -3.8462 F   0  0  0  0  0  0  0  0  0  0  0  0
   38.5543  -27.3608   -2.5859 C   0  0  0  0  0  0  0  0  0  0  0  0
   39.1115  -28.2316   -1.6465 C   0  0  0  0  0  0  0  0  0  0  0  0
   38.3004  -29.2221   -1.0587 C   0  0  0  0  0  0  0  0  0  0  0  0
   38.9136  -30.1548   -0.0915 C   0  0  0  0  0  0  0  0  0  0  0  0
   39.1700  -31.3277   -0.2838 O   0  0  0  0  0  0  0  0  0  0  0  0
   39.1265  -29.5208    1.0755 O   0  0  0  0  0  0  0  0  0  0  0  0
   38.9078  -28.6139    1.1626 H   0  0  0  0  0  0  0  0  0  0  0  0
   40.4063  -28.1261   -1.2092 O   0  0  0  0  0  0  0  0  0  0  0  0
   40.7888  -26.8656   -0.6723 C   0  0  0  0  0  0  0  0  0  0  0  0
 22 23  1  0
 23 16  1  0
 16 17  2  0
 17 18  1  0
 18 19  2  0
 19 15  1  0
 15 11  1  0
 11 12  1  0
 12 13  2  0
 12  1  1  0
  1  2  2  0
  2  3  1  0
  3  4  2  0
  4  5  1  0
  5  6  2  0
  6  7  1  0
  7  8  2  0
  8  9  1  0
  9 10  2  0
 10 24  1  0
 24 25  1  0
 25 26  1  0
 25 27  1  0
 27 28  1  0
 28 29  2  0
 29 30  1  0
 30 31  1  0
 30 32  2  0
 32 33  1  0
 33 39  1  0
 39 40  1  0
 33 34  2  0
 34 35  1  0
 35 36  2  0
 35 37  1  0
 19 20  1  0
 20 21  2  0
 21 16  1  0
 10  1  1  0
 34 28  1  0
  8  3  1  0
 11 14  1  0
 37 38  1  0
M  END
> <minimizedAffinity>
-6.92648

> <CNNscore>
0.5029712915

> <CNNaffinity>
5.9489722252

> <CNN_VS>
2.9921622276

> <CNNaffinity_variance>
0.2782931328

$$$$



 40 43  0  0  0  0  0  0  0  0999 V2000
   31.6381  -33.5014    1.1809 C   0  0  0  0  0  0  0  0  0  0  0  0
   30.8188  -32.3653    1.3312 C   0  0  0  0  0  0  0  0  0  0  0  0
   31.2012  -31.1164    0.8210 C   0  0  0  0  0  0  0  0  0  0  0  0
   30.3902  -29.9800    0.9766 C   0  0  0  0  0  0  0  0  0  0  0  0
   30.7914  -28.7437    0.4691 C   0  0  0  0  0  0  0  0  0  0  0  0
   32.0054  -28.6287   -0.2007 C   0  0  0  0  0  0  0  0  0  0  0  0
   32.8192  -29.7503   -0.3665 C   0  0  0  0  0  0  0  0  0  0  0  0
   32.4288  -31.0013    0.1385 C   0  0  0  0  0  0  0  0  0  0  0  0
   33.2281  -32.1442   -0.0315 C   0  0  0  0  0  0  0  0  0  0  0  0
   32.8427  -33.4108    0.4599 C   0  0  0  0  0  0  0  0  0  0  0  0
   31.5749  -34.9254    3.1436 N   0  0  0  0  0  0  0  0  0  0  0  0
   31.1809  -34.7655    1.8304 C   0  0  0  0  0  0  0  0  0  0  0  0
   30.5066  -35.5962    1.2368 O   0  0  0  0  0  0  0  0  0  0  0  0
   32.2642  -34.3288    3.5151 H   0  0  0  0  0  0  0  0  0  0  0  0
   30.9981  -35.9493    3.9861 C   0  0  0  0  0  0  0  0  0  0  0  0
   33.7969  -39.2235    4.3789 C   0  0  0  0  0  0  0  0  0  0  0  0
   33.5907  -38.3414    5.4387 C   0  0  0  0  0  0  0  0  0  0  0  0
   32.6743  -37.2923    5.3105 C   0  0  0  0  0  0  0  0  0  0  0  0
   31.9496  -37.1105    4.1233 C   0  0  0  0  0  0  0  0  0  0  0  0
   32.1646  -37.9962    3.0613 C   0  0  0  0  0  0  0  0  0  0  0  0
   33.0787  -39.0451    3.1942 C   0  0  0  0  0  0  0  0  0  0  0  0
   35.3445  -40.5376    3.1465 C   0  0  0  0  0  0  0  0  0  0  0  0
   34.6627  -40.2825    4.3689 O   0  0  0  0  0  0  0  0  0  0  0  0
   33.7546  -34.5937    0.1863 C   0  0  0  0  0  0  0  0  0  0  0  0
   35.1774  -34.2439   -0.0069 N   0  0  0  0  0  0  0  0  0  0  0  0
   35.5137  -33.9967   -1.4101 C   0  0  0  0  0  0  0  0  0  0  0  0
   35.5168  -33.0810    0.8352 C   0  0  0  0  0  0  0  0  0  0  0  0
   36.6181  -32.1977    0.2727 C   0  0  0  0  0  0  0  0  0  0  0  0
   36.2597  -31.0596   -0.4678 C   0  0  0  0  0  0  0  0  0  0  0  0
   37.2421  -30.2294   -0.9953 C   0  0  0  0  0  0  0  0  0  0  0  0
   36.8768  -29.1457   -1.6933 F   0  0  0  0  0  0  0  0  0  0  0  0
   38.5935  -30.4950   -0.8089 C   0  0  0  0  0  0  0  0  0  0  0  0
   38.9837  -31.6227   -0.0826 C   0  0  0  0  0  0  0  0  0  0  0  0
   37.9965  -32.4618    0.4705 C   0  0  0  0  0  0  0  0  0  0  0  0
   38.4263  -33.6672    1.2078 C   0  0  0  0  0  0  0  0  0  0  0  0
   38.4862  -34.7989    0.7674 O   0  0  0  0  0  0  0  0  0  0  0  0
   38.7204  -33.3391    2.4786 O   0  0  0  0  0  0  0  0  0  0  0  0
   38.6552  -32.4476    2.7594 H   0  0  0  0  0  0  0  0  0  0  0  0
   40.2950  -31.9207    0.1826 O   0  0  0  0  0  0  0  0  0  0  0  0
   41.0289  -30.9414    0.9079 C   0  0  0  0  0  0  0  0  0  0  0  0
 22 23  1  0
 23 16  1  0
 16 17  2  0
 17 18  1  0
 18 19  2  0
 19 15  1  0
 15 11  1  0
 11 12  1  0
 12 13  2  0
 12  1  1  0
  1  2  2  0
  2  3  1  0
  3  4  2  0
  4  5  1  0
  5  6  2  0
  6  7  1  0
  7  8  2  0
  8  9  1  0
  9 10  2  0
 10 24  1  0
 24 25  1  0
 25 26  1  0
 25 27  1  0
 27 28  1  0
 28 29  2  0
 29 30  1  0
 30 31  1  0
 30 32  2  0
 32 33  1  0
 33 39  1  0
 39 40  1  0
 33 34  2  0
 34 35  1  0
 35 36  2  0
 35 37  1  0
 19 20  1  0
 20 21  2  0
 21 16  1  0
 10  1  1  0
 34 28  1  0
  8  3  1  0
 11 14  1  0
 37 38  1  0
M  END
> <minimizedAffinity>
-8.23472

> <CNNscore>
0.4541738033

> <CNNaffinity>
5.7595601082

> <CNN_VS>
2.6158413887

> <CNNaffinity_variance>
0.6087518334

$$$$



 40 43  0  0  0  0  0  0  0  0999 V2000
   34.9326  -29.9092   -1.6454 C   0  0  0  0  0  0  0  0  0  0  0  0
   34.1848  -30.3782   -0.5476 C   0  0  0  0  0  0  0  0  0  0  0  0
   32.9324  -29.8330   -0.2305 C   0  0  0  0  0  0  0  0  0  0  0  0
   32.1882  -30.2929    0.8686 C   0  0  0  0  0  0  0  0  0  0  0  0
   30.9473  -29.7323    1.1734 C   0  0  0  0  0  0  0  0  0  0  0  0
   30.4350  -28.7080    0.3835 C   0  0  0  0  0  0  0  0  0  0  0  0
   31.1615  -28.2441   -0.7142 C   0  0  0  0  0  0  0  0  0  0  0  0
   32.4117  -28.7986   -1.0336 C   0  0  0  0  0  0  0  0  0  0  0  0
   33.1506  -28.3545   -2.1430 C   0  0  0  0  0  0  0  0  0  0  0  0
   34.4030  -28.9110   -2.4835 C   0  0  0  0  0  0  0  0  0  0  0  0
   36.3052  -31.8468   -2.1407 N   0  0  0  0  0  0  0  0  0  0  0  0
   36.2892  -30.4974   -1.8507 C   0  0  0  0  0  0  0  0  0  0  0  0
   37.3096  -29.8274   -1.7664 O   0  0  0  0  0  0  0  0  0  0  0  0
   35.4847  -32.3758   -2.0140 H   0  0  0  0  0  0  0  0  0  0  0  0
   37.4997  -32.5012   -2.6263 C   0  0  0  0  0  0  0  0  0  0  0  0
   36.7330  -34.6902   -6.2771 C   0  0  0  0  0  0  0  0  0  0  0  0
   37.0598  -35.3686   -5.1038 C   0  0  0  0  0  0  0  0  0  0  0  0
   37.2935  -34.6561   -3.9228 C   0  0  0  0  0  0  0  0  0  0  0  0
   37.2023  -33.2566   -3.8965 C   0  0  0  0  0  0  0  0  0  0  0  0
   36.8787  -32.5809   -5.0785 C   0  0  0  0  0  0  0  0  0  0  0  0
   36.6428  -33.2964   -6.2557 C   0  0  0  0  0  0  0  0  0  0  0  0
   36.8221  -36.6361   -7.6357 C   0  0  0  0  0  0  0  0  0  0  0  0
   36.4866  -35.2606   -7.4957 O   0  0  0  0  0  0  0  0  0  0  0  0
   35.1033  -28.3933   -3.7274 C   0  0  0  0  0  0  0  0  0  0  0  0
   35.3448  -26.9353   -3.7375 N   0  0  0  0  0  0  0  0  0  0  0  0
   34.4225  -26.2031   -2.8679 C   0  0  0  0  0  0  0  0  0  0  0  0
   36.7487  -26.6667   -3.3718 C   0  0  0  0  0  0  0  0  0  0  0  0
   37.2831  -25.3333   -3.8676 C   0  0  0  0  0  0  0  0  0  0  0  0
   37.5981  -24.3393   -2.9269 C   0  0  0  0  0  0  0  0  0  0  0  0
   38.0905  -23.1089   -3.3465 C   0  0  0  0  0  0  0  0  0  0  0  0
   38.3899  -22.1777   -2.4309 F   0  0  0  0  0  0  0  0  0  0  0  0
   38.2850  -22.8261   -4.6932 C   0  0  0  0  0  0  0  0  0  0  0  0
   37.9755  -23.7908   -5.6549 C   0  0  0  0  0  0  0  0  0  0  0  0
   37.4916  -25.0471   -5.2401 C   0  0  0  0  0  0  0  0  0  0  0  0
   37.1387  -26.0437   -6.2714 C   0  0  0  0  0  0  0  0  0  0  0  0
   37.8517  -26.9380   -6.6841 O   0  0  0  0  0  0  0  0  0  0  0  0
   35.8972  -25.8012   -6.7286 O   0  0  0  0  0  0  0  0  0  0  0  0
   35.3954  -25.0958   -6.3701 H   0  0  0  0  0  0  0  0  0  0  0  0
   38.1871  -23.6005   -6.9957 O   0  0  0  0  0  0  0  0  0  0  0  0
   37.8488  -22.3185   -7.5108 C   0  0  0  0  0  0  0  0  0  0  0  0
 22 23  1  0
 23 16  1  0
 16 17  2  0
 17 18  1  0
 18 19  2  0
 19 15  1  0
 15 11  1  0
 11 12  1  0
 12 13  2  0
 12  1  1  0
  1  2  2  0
  2  3  1  0
  3  4  2  0
  4  5  1  0
  5  6  2  0
  6  7  1  0
  7  8  2  0
  8  9  1  0
  9 10  2  0
 10 24  1  0
 24 25  1  0
 25 26  1  0
 25 27  1  0
 27 28  1  0
 28 29  2  0
 29 30  1  0
 30 31  1  0
 30 32  2  0
 32 33  1  0
 33 39  1  0
 39 40  1  0
 33 34  2  0
 34 35  1  0
 35 36  2  0
 35 37  1  0
 19 20  1  0
 20 21  2  0
 21 16  1  0
 10  1  1  0
 34 28  1  0
  8  3  1  0
 11 14  1  0
 37 38  1  0
M  END
> <minimizedAffinity>
-6.90429

> <CNNscore>
0.3680664599

> <CNNaffinity>
5.7438912392

> <CNN_VS>
2.1141335964

> <CNNaffinity_variance>
0.1844858676

$$$$



 40 43  0  0  0  0  0  0  0  0999 V2000
   31.7167  -33.4509    1.2484 C   0  0  0  0  0  0  0  0  0  0  0  0
   30.8399  -32.3489    1.2867 C   0  0  0  0  0  0  0  0  0  0  0  0
   31.2374  -31.0831    0.8329 C   0  0  0  0  0  0  0  0  0  0  0  0
   30.3681  -29.9806    0.8776 C   0  0  0  0  0  0  0  0  0  0  0  0
   30.7843  -28.7266    0.4292 C   0  0  0  0  0  0  0  0  0  0  0  0
   32.0721  -28.5599   -0.0705 C   0  0  0  0  0  0  0  0  0  0  0  0
   32.9450  -29.6475   -0.1249 C   0  0  0  0  0  0  0  0  0  0  0  0
   32.5403  -30.9157    0.3227 C   0  0  0  0  0  0  0  0  0  0  0  0
   33.4003  -32.0251    0.2621 C   0  0  0  0  0  0  0  0  0  0  0  0
   33.0030  -33.3087    0.6968 C   0  0  0  0  0  0  0  0  0  0  0  0
   31.5370  -34.9325    3.1606 N   0  0  0  0  0  0  0  0  0  0  0  0
   31.2269  -34.7356    1.8301 C   0  0  0  0  0  0  0  0  0  0  0  0
   30.5972  -35.5514    1.1705 O   0  0  0  0  0  0  0  0  0  0  0  0
   32.1974  -34.3440    3.5929 H   0  0  0  0  0  0  0  0  0  0  0  0
   30.9141  -35.9834    3.9342 C   0  0  0  0  0  0  0  0  0  0  0  0
   33.6277  -39.2925    4.5618 C   0  0  0  0  0  0  0  0  0  0  0  0
   32.9685  -39.1429    3.3425 C   0  0  0  0  0  0  0  0  0  0  0  0
   32.1023  -38.0631    3.1406 C   0  0  0  0  0  0  0  0  0  0  0  0
   31.8838  -37.1167    4.1526 C   0  0  0  0  0  0  0  0  0  0  0  0
   32.5446  -37.2748    5.3760 C   0  0  0  0  0  0  0  0  0  0  0  0
   33.4117  -38.3532    5.5729 C   0  0  0  0  0  0  0  0  0  0  0  0
   34.9174  -40.3564    6.2486 C   0  0  0  0  0  0  0  0  0  0  0  0
   34.4923  -40.2997    4.8921 O   0  0  0  0  0  0  0  0  0  0  0  0
   33.9900  -34.4531    0.5489 C   0  0  0  0  0  0  0  0  0  0  0  0
   34.1856  -34.9233   -0.8385 N   0  0  0  0  0  0  0  0  0  0  0  0
   32.9366  -34.9729   -1.6004 C   0  0  0  0  0  0  0  0  0  0  0  0
   35.1861  -34.0719   -1.5101 C   0  0  0  0  0  0  0  0  0  0  0  0
   36.4840  -33.8994   -0.7387 C   0  0  0  0  0  0  0  0  0  0  0  0
   36.8807  -32.6054   -0.3639 C   0  0  0  0  0  0  0  0  0  0  0  0
   38.0616  -32.4125    0.3437 C   0  0  0  0  0  0  0  0  0  0  0  0
   38.4172  -31.1697    0.6959 F   0  0  0  0  0  0  0  0  0  0  0  0
   38.8772  -33.4801    0.6992 C   0  0  0  0  0  0  0  0  0  0  0  0
   38.5146  -34.7793    0.3362 C   0  0  0  0  0  0  0  0  0  0  0  0
   37.3116  -34.9882   -0.3666 C   0  0  0  0  0  0  0  0  0  0  0  0
   36.9596  -36.3644   -0.7708 C   0  0  0  0  0  0  0  0  0  0  0  0
   37.0939  -36.8475   -1.8785 O   0  0  0  0  0  0  0  0  0  0  0  0
   36.4248  -37.0200    0.2748 O   0  0  0  0  0  0  0  0  0  0  0  0
   36.3476  -36.5934    1.1055 H   0  0  0  0  0  0  0  0  0  0  0  0
   39.2434  -35.8835    0.6941 O   0  0  0  0  0  0  0  0  0  0  0  0
   40.5589  -35.6400    1.1776 C   0  0  0  0  0  0  0  0  0  0  0  0
 22 23  1  0
 23 16  1  0
 16 17  2  0
 17 18  1  0
 18 19  2  0
 19 15  1  0
 15 11  1  0
 11 12  1  0
 12 13  2  0
 12  1  1  0
  1  2  2  0
  2  3  1  0
  3  4  2  0
  4  5  1  0
  5  6  2  0
  6  7  1  0
  7  8  2  0
  8  9  1  0
  9 10  2  0
 10 24  1  0
 24 25  1  0
 25 26  1  0
 25 27  1  0
 27 28  1  0
 28 29  2  0
 29 30  1  0
 30 31  1  0
 30 32  2  0
 32 33  1  0
 33 39  1  0
 39 40  1  0
 33 34  2  0
 34 35  1  0
 35 36  2  0
 35 37  1  0
 19 20  1  0
 20 21  2  0
 21 16  1  0
 10  1  1  0
 34 28  1  0
  8  3  1  0
 11 14  1  0
 37 38  1  0
M  END
> <minimizedAffinity>
-8.36360

> <CNNscore>
0.3530114889

> <CNNaffinity>
5.8608551025

> <CNN_VS>
2.0689492226

> <CNNaffinity_variance>
0.2860154808

$$$$



 40 43  0  0  0  0  0  0  0  0999 V2000
   34.1663  -27.8416   -1.8842 C   0  0  0  0  0  0  0  0  0  0  0  0
   32.8291  -27.7792   -1.4454 C   0  0  0  0  0  0  0  0  0  0  0  0
   32.3278  -28.6849   -0.4996 C   0  0  0  0  0  0  0  0  0  0  0  0
   30.9926  -28.6303   -0.0663 C   0  0  0  0  0  0  0  0  0  0  0  0
   30.5094  -29.5456    0.8695 C   0  0  0  0  0  0  0  0  0  0  0  0
   31.3540  -30.5240    1.3843 C   0  0  0  0  0  0  0  0  0  0  0  0
   32.6840  -30.5873    0.9662 C   0  0  0  0  0  0  0  0  0  0  0  0
   33.1848  -29.6729    0.0251 C   0  0  0  0  0  0  0  0  0  0  0  0
   34.5244  -29.7122   -0.3967 C   0  0  0  0  0  0  0  0  0  0  0  0
   35.0450  -28.7918   -1.3327 C   0  0  0  0  0  0  0  0  0  0  0  0
   34.4081  -27.3397   -4.2451 N   0  0  0  0  0  0  0  0  0  0  0  0
   34.5810  -26.8856   -2.9531 C   0  0  0  0  0  0  0  0  0  0  0  0
   35.0408  -25.7809   -2.6969 O   0  0  0  0  0  0  0  0  0  0  0  0
   34.2142  -28.2928   -4.3980 H   0  0  0  0  0  0  0  0  0  0  0  0
   34.5052  -26.4477   -5.3790 C   0  0  0  0  0  0  0  0  0  0  0  0
   36.8660  -28.2853   -8.5028 C   0  0  0  0  0  0  0  0  0  0  0  0
   36.6683  -28.9427   -7.2893 C   0  0  0  0  0  0  0  0  0  0  0  0
   35.8927  -28.3494   -6.2877 C   0  0  0  0  0  0  0  0  0  0  0  0
   35.3020  -27.0924   -6.4844 C   0  0  0  0  0  0  0  0  0  0  0  0
   35.5080  -26.4352   -7.7027 C   0  0  0  0  0  0  0  0  0  0  0  0
   36.2810  -27.0325   -8.7022 C   0  0  0  0  0  0  0  0  0  0  0  0
   39.0160  -28.6218   -9.4539 C   0  0  0  0  0  0  0  0  0  0  0  0
   37.6027  -28.7471   -9.5587 O   0  0  0  0  0  0  0  0  0  0  0  0
   36.5174  -28.8890   -1.6910 C   0  0  0  0  0  0  0  0  0  0  0  0
   36.9560  -30.2272   -2.1392 N   0  0  0  0  0  0  0  0  0  0  0  0
   36.2710  -30.6692   -3.3552 C   0  0  0  0  0  0  0  0  0  0  0  0
   38.4201  -30.2296   -2.3215 C   0  0  0  0  0  0  0  0  0  0  0  0
   39.1881  -29.4748   -1.2493 C   0  0  0  0  0  0  0  0  0  0  0  0
   39.6212  -28.1671   -1.5220 C   0  0  0  0  0  0  0  0  0  0  0  0
   40.3249  -27.4481   -0.5628 C   0  0  0  0  0  0  0  0  0  0  0  0
   40.7230  -26.1998   -0.8427 F   0  0  0  0  0  0  0  0  0  0  0  0
   40.6186  -27.9928    0.6817 C   0  0  0  0  0  0  0  0  0  0  0  0
   40.2077  -29.2936    0.9825 C   0  0  0  0  0  0  0  0  0  0  0  0
   39.4795  -30.0253    0.0239 C   0  0  0  0  0  0  0  0  0  0  0  0
   39.0811  -31.4105    0.3461 C   0  0  0  0  0  0  0  0  0  0  0  0
   38.0458  -31.7574    0.8811 O   0  0  0  0  0  0  0  0  0  0  0  0
   40.0613  -32.2583   -0.0139 O   0  0  0  0  0  0  0  0  0  0  0  0
   40.8376  -31.9303   -0.4235 H   0  0  0  0  0  0  0  0  0  0  0  0
   40.4187  -29.8774    2.2044 O   0  0  0  0  0  0  0  0  0  0  0  0
   41.6488  -30.5732    2.3658 C   0  0  0  0  0  0  0  0  0  0  0  0
 22 23  1  0
 23 16  1  0
 16 17  2  0
 17 18  1  0
 18 19  2  0
 19 15  1  0
 15 11  1  0
 11 12  1  0
 12 13  2  0
 12  1  1  0
  1  2  2  0
  2  3  1  0
  3  4  2  0
  4  5  1  0
  5  6  2  0
  6  7  1  0
  7  8  2  0
  8  9  1  0
  9 10  2  0
 10 24  1  0
 24 25  1  0
 25 26  1  0
 25 27  1  0
 27 28  1  0
 28 29  2  0
 29 30  1  0
 30 31  1  0
 30 32  2  0
 32 33  1  0
 33 39  1  0
 39 40  1  0
 33 34  2  0
 34 35  1  0
 35 36  2  0
 35 37  1  0
 19 20  1  0
 20 21  2  0
 21 16  1  0
 10  1  1  0
 34 28  1  0
  8  3  1  0
 11 14  1  0
 37 38  1  0
M  END
> <minimizedAffinity>
-7.44044

> <CNNscore>
0.3430533409

> <CNNaffinity>
5.0828928947

> <CNN_VS>
1.7437033653

> <CNNaffinity_variance>
0.8517463803

$$$$



 40 43  0  0  0  0  0  0  0  0999 V2000
   35.3339  -28.9646   -0.9955 C   0  0  0  0  0  0  0  0  0  0  0  0
   34.4335  -29.6196   -0.1327 C   0  0  0  0  0  0  0  0  0  0  0  0
   33.0896  -29.2287   -0.0457 C   0  0  0  0  0  0  0  0  0  0  0  0
   32.1915  -29.8747    0.8200 C   0  0  0  0  0  0  0  0  0  0  0  0
   30.8596  -29.4661    0.8990 C   0  0  0  0  0  0  0  0  0  0  0  0
   30.4095  -28.4096    0.1134 C   0  0  0  0  0  0  0  0  0  0  0  0
   31.2897  -27.7616   -0.7543 C   0  0  0  0  0  0  0  0  0  0  0  0
   32.6329  -28.1616   -0.8448 C   0  0  0  0  0  0  0  0  0  0  0  0
   33.5298  -27.5306   -1.7231 C   0  0  0  0  0  0  0  0  0  0  0  0
   34.8798  -27.9301   -1.8340 C   0  0  0  0  0  0  0  0  0  0  0  0
   37.4958  -29.1078   -2.0862 N   0  0  0  0  0  0  0  0  0  0  0  0
   36.7608  -29.4013   -0.9552 C   0  0  0  0  0  0  0  0  0  0  0  0
   37.2389  -29.9776    0.0125 O   0  0  0  0  0  0  0  0  0  0  0  0
   37.0278  -28.8162   -2.9017 H   0  0  0  0  0  0  0  0  0  0  0  0
   38.9374  -29.2189   -2.1004 C   0  0  0  0  0  0  0  0  0  0  0  0
   40.7818  -25.8989   -0.0305 C   0  0  0  0  0  0  0  0  0  0  0  0
   40.1276  -25.6968   -1.2450 C   0  0  0  0  0  0  0  0  0  0  0  0
   39.5213  -26.7720   -1.9032 C   0  0  0  0  0  0  0  0  0  0  0  0
   39.5580  -28.0635   -1.3571 C   0  0  0  0  0  0  0  0  0  0  0  0
   40.2203  -28.2611   -0.1402 C   0  0  0  0  0  0  0  0  0  0  0  0
   40.8222  -27.1838    0.5161 C   0  0  0  0  0  0  0  0  0  0  0  0
   40.6156  -23.8696    1.1920 C   0  0  0  0  0  0  0  0  0  0  0  0
   41.4178  -24.9416    0.7112 O   0  0  0  0  0  0  0  0  0  0  0  0
   35.7586  -27.2147   -2.8447 C   0  0  0  0  0  0  0  0  0  0  0  0
   35.4873  -27.5645   -4.2547 N   0  0  0  0  0  0  0  0  0  0  0  0
   34.4212  -26.7526   -4.8441 C   0  0  0  0  0  0  0  0  0  0  0  0
   36.7336  -27.4566   -5.0369 C   0  0  0  0  0  0  0  0  0  0  0  0
   37.1013  -26.0385   -5.4408 C   0  0  0  0  0  0  0  0  0  0  0  0
   37.6056  -25.1663   -4.4625 C   0  0  0  0  0  0  0  0  0  0  0  0
   37.9531  -23.8629   -4.7985 C   0  0  0  0  0  0  0  0  0  0  0  0
   38.4379  -23.0503   -3.8500 F   0  0  0  0  0  0  0  0  0  0  0  0
   37.8151  -23.3869   -6.0969 C   0  0  0  0  0  0  0  0  0  0  0  0
   37.3104  -24.2269   -7.0923 C   0  0  0  0  0  0  0  0  0  0  0  0
   36.9706  -25.5547   -6.7666 C   0  0  0  0  0  0  0  0  0  0  0  0
   36.4081  -26.4193   -7.8236 C   0  0  0  0  0  0  0  0  0  0  0  0
   36.9713  -27.3465   -8.3728 O   0  0  0  0  0  0  0  0  0  0  0  0
   35.1635  -26.0100   -8.1280 O   0  0  0  0  0  0  0  0  0  0  0  0
   34.7824  -25.2878   -7.6686 H   0  0  0  0  0  0  0  0  0  0  0  0
   37.1928  -23.8421   -8.4025 O   0  0  0  0  0  0  0  0  0  0  0  0
   37.0482  -22.4468   -8.6383 C   0  0  0  0  0  0  0  0  0  0  0  0
 22 23  1  0
 23 16  1  0
 16 17  2  0
 17 18  1  0
 18 19  2  0
 19 15  1  0
 15 11  1  0
 11 12  1  0
 12 13  2  0
 12  1  1  0
  1  2  2  0
  2  3  1  0
  3  4  2  0
  4  5  1  0
  5  6  2  0
  6  7  1  0
  7  8  2  0
  8  9  1  0
  9 10  2  0
 10 24  1  0
 24 25  1  0
 25 26  1  0
 25 27  1  0
 27 28  1  0
 28 29  2  0
 29 30  1  0
 30 31  1  0
 30 32  2  0
 32 33  1  0
 33 39  1  0
 39 40  1  0
 33 34  2  0
 34 35  1  0
 35 36  2  0
 35 37  1  0
 19 20  1  0
 20 21  2  0
 21 16  1  0
 10  1  1  0
 34 28  1  0
  8  3  1  0
 11 14  1  0
 37 38  1  0
M  END
> <minimizedAffinity>
-6.86855

> <CNNscore>
0.3310206234

> <CNNaffinity>
5.5240206718

> <CNN_VS>
1.8285647631

> <CNNaffinity_variance>
0.4961214066

$$$$
