


 18 18  0  0  0  0  0  0  0  0999 V2000
   80.6914    8.1029   36.3383 C   0  0  0  0  0  0  0  0  0  0  0  0
   80.7738    6.6549   35.8456 C   0  0  0  0  0  0  0  0  0  0  0  0
   81.1883    5.6755   36.9594 C   0  0  0  0  0  0  0  0  0  0  0  0
   82.6790    5.7646   37.3069 C   0  0  0  0  0  0  0  0  0  0  0  0
   83.5718    5.7020   36.0597 C   0  0  0  0  0  0  0  0  0  0  0  0
   83.1276    6.7518   35.0235 C   0  0  0  0  0  0  0  0  0  0  0  0
   81.6982    6.4891   34.6979 N   0  0  0  0  0  0  0  0  0  0  0  0
   81.4220    5.5306   33.7037 C   0  0  0  0  0  0  0  0  0  0  0  0
   82.3259    5.0371   33.0278 O   0  0  0  0  0  0  0  0  0  0  0  0
   84.0842    6.8350   33.7889 C   0  0  0  0  0  0  0  0  0  0  0  0
   84.9533    8.1271   33.6940 N   0  0  0  0  0  0  0  0  0  0  0  0
   84.1396    9.2577   34.3407 C   0  0  0  0  0  0  0  0  0  0  0  0
   85.2574    8.5243   32.2620 C   0  0  0  0  0  0  0  0  0  0  0  0
   86.2489    7.9725   34.4832 C   0  0  0  0  0  0  0  0  0  0  0  0
   79.9678    5.1553   33.4681 C   0  0  0  0  0  0  0  0  0  0  0  0
   79.2288    6.2607   32.7223 C   0  0  0  0  0  0  0  0  0  0  0  0
   78.3155    5.5732   31.3101 S   0  0  0  0  0  0  0  0  0  0  0  0
   79.1876    4.9789   30.4522 H   0  0  0  0  0  0  0  0  0  0  0  0
  2  1  1  0
  2  3  1  0
  3  4  1  0
  4  5  1  0
  5  6  1  0
  6 10  1  0
 10 11  1  0
 11 12  1  0
 11 13  1  0
 11 14  1  0
  6  7  1  0
  7  8  1  0
  8  9  2  0
  8 15  1  0
 15 16  1  0
 16 17  1  0
  7  2  1  0
 17 18  1  0
M  CHG 1  11   1
M  END
> <minimizedAffinity>
-4.17780

> <CNNscore>
0.8512951136

> <CNNaffinity>
3.9902675152

> <CNN_VS>
3.3968951702

> <CNNaffinity_variance>
0.5030789971

$$$$



 18 18  0  0  0  0  0  0  0  0999 V2000
   80.0096    7.8919   35.4206 C   0  0  0  0  0  0  0  0  0  0  0  0
   80.3496    6.5273   34.8139 C   0  0  0  0  0  0  0  0  0  0  0  0
   81.1161    5.6201   35.7943 C   0  0  0  0  0  0  0  0  0  0  0  0
   82.5811    6.0368   35.9705 C   0  0  0  0  0  0  0  0  0  0  0  0
   83.2935    6.2415   34.6262 C   0  0  0  0  0  0  0  0  0  0  0  0
   82.4926    7.2065   33.7313 C   0  0  0  0  0  0  0  0  0  0  0  0
   81.1287    6.6343   33.5566 N   0  0  0  0  0  0  0  0  0  0  0  0
   80.9467    5.6852   32.5321 C   0  0  0  0  0  0  0  0  0  0  0  0
   81.8415    5.4472   31.7196 O   0  0  0  0  0  0  0  0  0  0  0  0
   83.2355    7.5670   32.4030 C   0  0  0  0  0  0  0  0  0  0  0  0
   83.6191    9.0692   32.2301 N   0  0  0  0  0  0  0  0  0  0  0  0
   84.1991    9.2192   30.8160 C   0  0  0  0  0  0  0  0  0  0  0  0
   84.6729    9.5224   33.2227 C   0  0  0  0  0  0  0  0  0  0  0  0
   82.3866    9.9619   32.3275 C   0  0  0  0  0  0  0  0  0  0  0  0
   79.5959    4.9938   32.4408 C   0  0  0  0  0  0  0  0  0  0  0  0
   78.5438    5.9199   31.8409 C   0  0  0  0  0  0  0  0  0  0  0  0
   78.8268    6.1322   30.0588 S   0  0  0  0  0  0  0  0  0  0  0  0
   80.0544    6.6817   29.8569 H   0  0  0  0  0  0  0  0  0  0  0  0
  2  1  1  0
  2  3  1  0
  3  4  1  0
  4  5  1  0
  5  6  1  0
  6 10  1  0
 10 11  1  0
 11 12  1  0
 11 13  1  0
 11 14  1  0
  6  7  1  0
  7  8  1  0
  8  9  2  0
  8 15  1  0
 15 16  1  0
 16 17  1  0
  7  2  1  0
 17 18  1  0
M  CHG 1  11   1
M  END
> <minimizedAffinity>
-3.87138

> <CNNscore>
0.8375836611

> <CNNaffinity>
4.1342091560

> <CNN_VS>
3.4627461433

> <CNNaffinity_variance>
0.4080838263

$$$$



 18 18  0  0  0  0  0  0  0  0999 V2000
   80.3405    9.3222   37.2027 C   0  0  0  0  0  0  0  0  0  0  0  0
   80.6822    7.8755   36.8336 C   0  0  0  0  0  0  0  0  0  0  0  0
   81.1918    7.0637   38.0390 C   0  0  0  0  0  0  0  0  0  0  0  0
   82.6282    7.4244   38.4358 C   0  0  0  0  0  0  0  0  0  0  0  0
   83.5829    7.4185   37.2337 C   0  0  0  0  0  0  0  0  0  0  0  0
   83.0284    8.3002   36.0987 C   0  0  0  0  0  0  0  0  0  0  0  0
   81.6795    7.7806   35.7402 N   0  0  0  0  0  0  0  0  0  0  0  0
   81.6145    6.7185   34.8176 C   0  0  0  0  0  0  0  0  0  0  0  0
   82.6203    6.3330   34.2199 O   0  0  0  0  0  0  0  0  0  0  0  0
   84.0216    8.4492   34.8996 C   0  0  0  0  0  0  0  0  0  0  0  0
   84.2489    9.9053   34.3878 N   0  0  0  0  0  0  0  0  0  0  0  0
   85.3303    9.8295   33.3000 C   0  0  0  0  0  0  0  0  0  0  0  0
   84.7406   10.8388   35.4776 C   0  0  0  0  0  0  0  0  0  0  0  0
   82.9815   10.4634   33.7496 C   0  0  0  0  0  0  0  0  0  0  0  0
   80.2547    6.0908   34.5569 C   0  0  0  0  0  0  0  0  0  0  0  0
   79.4658    6.8951   33.5298 C   0  0  0  0  0  0  0  0  0  0  0  0
   78.9743    5.8375   32.1366 S   0  0  0  0  0  0  0  0  0  0  0  0
   80.0856    5.3357   31.5343 H   0  0  0  0  0  0  0  0  0  0  0  0
  2  1  1  0
  2  3  1  0
  3  4  1  0
  4  5  1  0
  5  6  1  0
  6 10  1  0
 10 11  1  0
 11 12  1  0
 11 13  1  0
 11 14  1  0
  6  7  1  0
  7  8  1  0
  8  9  2  0
  8 15  1  0
 15 16  1  0
 16 17  1  0
  7  2  1  0
 17 18  1  0
M  CHG 1  11   1
M  END
> <minimizedAffinity>
-3.28585

> <CNNscore>
0.7461902499

> <CNNaffinity>
4.2312631607

> <CNN_VS>
3.1573274136

> <CNNaffinity_variance>
0.4102027416

$$$$



 18 18  0  0  0  0  0  0  0  0999 V2000
   80.2088    7.8826   34.7591 C   0  0  0  0  0  0  0  0  0  0  0  0
   80.7841    6.6206   34.1093 C   0  0  0  0  0  0  0  0  0  0  0  0
   80.8198    5.4228   35.0766 C   0  0  0  0  0  0  0  0  0  0  0  0
   81.9359    5.5340   36.1219 C   0  0  0  0  0  0  0  0  0  0  0  0
   83.2952    5.8628   35.4889 C   0  0  0  0  0  0  0  0  0  0  0  0
   83.1846    7.1062   34.5861 C   0  0  0  0  0  0  0  0  0  0  0  0
   82.1449    6.8268   33.5570 N   0  0  0  0  0  0  0  0  0  0  0  0
   82.5460    6.1376   32.3961 C   0  0  0  0  0  0  0  0  0  0  0  0
   83.7350    5.9054   32.1734 O   0  0  0  0  0  0  0  0  0  0  0  0
   84.5656    7.5772   34.0225 C   0  0  0  0  0  0  0  0  0  0  0  0
   85.0489    8.9798   34.5048 N   0  0  0  0  0  0  0  0  0  0  0  0
   85.4429    9.7697   33.2480 C   0  0  0  0  0  0  0  0  0  0  0  0
   86.2621    8.9010   35.4120 C   0  0  0  0  0  0  0  0  0  0  0  0
   83.9216    9.7366   35.1988 C   0  0  0  0  0  0  0  0  0  0  0  0
   81.4649    5.7248   31.4102 C   0  0  0  0  0  0  0  0  0  0  0  0
   82.0278    5.5965   29.9992 C   0  0  0  0  0  0  0  0  0  0  0  0
   80.7600    6.0206   28.7688 S   0  0  0  0  0  0  0  0  0  0  0  0
   79.7049    5.1717   28.8939 H   0  0  0  0  0  0  0  0  0  0  0  0
  2  1  1  0
  2  3  1  0
  3  4  1  0
  4  5  1  0
  5  6  1  0
  6 10  1  0
 10 11  1  0
 11 12  1  0
 11 13  1  0
 11 14  1  0
  6  7  1  0
  7  8  1  0
  8  9  2  0
  8 15  1  0
 15 16  1  0
 16 17  1  0
  7  2  1  0
 17 18  1  0
M  CHG 1  11   1
M  END
> <minimizedAffinity>
-3.48776

> <CNNscore>
0.6660743952

> <CNNaffinity>
4.0888843536

> <CNN_VS>
2.7235012054

> <CNNaffinity_variance>
0.5505227447

$$$$



 18 18  0  0  0  0  0  0  0  0999 V2000
   81.2465    6.3381   37.8034 C   0  0  0  0  0  0  0  0  0  0  0  0
   82.6869    6.3282   37.2828 C   0  0  0  0  0  0  0  0  0  0  0  0
   83.3647    7.7064   37.3965 C   0  0  0  0  0  0  0  0  0  0  0  0
   82.8677    8.7036   36.3432 C   0  0  0  0  0  0  0  0  0  0  0  0
   82.8919    8.1136   34.9262 C   0  0  0  0  0  0  0  0  0  0  0  0
   82.1426    6.7682   34.8879 C   0  0  0  0  0  0  0  0  0  0  0  0
   82.7882    5.8626   35.8785 N   0  0  0  0  0  0  0  0  0  0  0  0
   83.9187    5.1360   35.4570 C   0  0  0  0  0  0  0  0  0  0  0  0
   84.2709    5.1363   34.2766 O   0  0  0  0  0  0  0  0  0  0  0  0
   82.0098    6.1834   33.4433 C   0  0  0  0  0  0  0  0  0  0  0  0
   80.5666    5.7825   33.0071 N   0  0  0  0  0  0  0  0  0  0  0  0
   80.3273    4.3560   33.5234 C   0  0  0  0  0  0  0  0  0  0  0  0
   80.3912    5.7745   31.5005 C   0  0  0  0  0  0  0  0  0  0  0  0
   79.5284    6.6940   33.6526 C   0  0  0  0  0  0  0  0  0  0  0  0
   84.6652    4.3216   36.5013 C   0  0  0  0  0  0  0  0  0  0  0  0
   85.5737    3.2876   35.8457 C   0  0  0  0  0  0  0  0  0  0  0  0
   87.2932    3.8741   35.8269 S   0  0  0  0  0  0  0  0  0  0  0  0
   87.3697    5.0314   35.1167 H   0  0  0  0  0  0  0  0  0  0  0  0
  2  1  1  0
  2  3  1  0
  3  4  1  0
  4  5  1  0
  5  6  1  0
  6 10  1  0
 10 11  1  0
 11 12  1  0
 11 13  1  0
 11 14  1  0
  6  7  1  0
  7  8  1  0
  8  9  2  0
  8 15  1  0
 15 16  1  0
 16 17  1  0
  7  2  1  0
 17 18  1  0
M  CHG 1  11   1
M  END
> <minimizedAffinity>
-4.09556

> <CNNscore>
0.6620888710

> <CNNaffinity>
4.0055813789

> <CNN_VS>
2.6520509720

> <CNNaffinity_variance>
0.4687210023

$$$$



 18 18  0  0  0  0  0  0  0  0999 V2000
   82.4053    5.3778   29.0606 C   0  0  0  0  0  0  0  0  0  0  0  0
   81.3085    6.4389   28.9306 C   0  0  0  0  0  0  0  0  0  0  0  0
   81.8676    7.8213   28.5460 C   0  0  0  0  0  0  0  0  0  0  0  0
   82.5716    8.5249   29.7122 C   0  0  0  0  0  0  0  0  0  0  0  0
   81.7179    8.5323   30.9880 C   0  0  0  0  0  0  0  0  0  0  0  0
   81.2506    7.1058   31.3342 C   0  0  0  0  0  0  0  0  0  0  0  0
   80.4956    6.5805   30.1628 N   0  0  0  0  0  0  0  0  0  0  0  0
   79.1278    6.9035   30.0713 C   0  0  0  0  0  0  0  0  0  0  0  0
   78.5456    7.4723   30.9959 O   0  0  0  0  0  0  0  0  0  0  0  0
   80.4941    7.0252   32.7008 C   0  0  0  0  0  0  0  0  0  0  0  0
   80.8824    5.8242   33.6177 N   0  0  0  0  0  0  0  0  0  0  0  0
   82.3896    5.5943   33.4333 C   0  0  0  0  0  0  0  0  0  0  0  0
   80.1605    4.5439   33.2427 C   0  0  0  0  0  0  0  0  0  0  0  0
   80.6359    6.1563   35.0855 C   0  0  0  0  0  0  0  0  0  0  0  0
   78.3872    6.4918   28.8091 C   0  0  0  0  0  0  0  0  0  0  0  0
   78.0675    7.7027   27.9397 C   0  0  0  0  0  0  0  0  0  0  0  0
   78.7543    7.4860   26.2717 S   0  0  0  0  0  0  0  0  0  0  0  0
   80.1055    7.3537   26.3515 H   0  0  0  0  0  0  0  0  0  0  0  0
  2  1  1  0
  2  3  1  0
  3  4  1  0
  4  5  1  0
  5  6  1  0
  6 10  1  0
 10 11  1  0
 11 12  1  0
 11 13  1  0
 11 14  1  0
  6  7  1  0
  7  8  1  0
  8  9  2  0
  8 15  1  0
 15 16  1  0
 16 17  1  0
  7  2  1  0
 17 18  1  0
M  CHG 1  11   1
M  END
> <minimizedAffinity>
-4.41052

> <CNNscore>
0.6520835161

> <CNNaffinity>
4.1882815361

> <CNN_VS>
2.7311093807

> <CNNaffinity_variance>
0.3426279724

$$$$



 18 18  0  0  0  0  0  0  0  0999 V2000
   82.9605    5.4607   35.6498 C   0  0  0  0  0  0  0  0  0  0  0  0
   82.8515    6.9611   35.3616 C   0  0  0  0  0  0  0  0  0  0  0  0
   82.3155    7.7560   36.5668 C   0  0  0  0  0  0  0  0  0  0  0  0
   80.8088    7.5694   36.7811 C   0  0  0  0  0  0  0  0  0  0  0  0
   80.0067    7.7819   35.4896 C   0  0  0  0  0  0  0  0  0  0  0  0
   80.5698    6.9072   34.3534 C   0  0  0  0  0  0  0  0  0  0  0  0
   82.0063    7.2603   34.1804 N   0  0  0  0  0  0  0  0  0  0  0  0
   82.3120    8.3605   33.3559 C   0  0  0  0  0  0  0  0  0  0  0  0
   81.4389    8.9165   32.6881 O   0  0  0  0  0  0  0  0  0  0  0  0
   79.7095    6.9716   33.0487 C   0  0  0  0  0  0  0  0  0  0  0  0
   79.7542    5.6994   32.1469 N   0  0  0  0  0  0  0  0  0  0  0  0
   80.0426    4.5089   33.0732 C   0  0  0  0  0  0  0  0  0  0  0  0
   80.8520    5.7608   31.1019 C   0  0  0  0  0  0  0  0  0  0  0  0
   78.4052    5.4564   31.4788 C   0  0  0  0  0  0  0  0  0  0  0  0
   83.7618    8.8127   33.2895 C   0  0  0  0  0  0  0  0  0  0  0  0
   84.5164    8.0793   32.1863 C   0  0  0  0  0  0  0  0  0  0  0  0
   85.8216    7.0338   32.8965 S   0  0  0  0  0  0  0  0  0  0  0  0
   86.7024    7.8111   33.5818 H   0  0  0  0  0  0  0  0  0  0  0  0
  2  1  1  0
  2  3  1  0
  3  4  1  0
  4  5  1  0
  5  6  1  0
  6 10  1  0
 10 11  1  0
 11 12  1  0
 11 13  1  0
 11 14  1  0
  6  7  1  0
  7  8  1  0
  8  9  2  0
  8 15  1  0
 15 16  1  0
 16 17  1  0
  7  2  1  0
 17 18  1  0
M  CHG 1  11   1
M  END
> <minimizedAffinity>
-3.89866

> <CNNscore>
0.6471984386

> <CNNaffinity>
4.1317954063

> <CNN_VS>
2.6740915775

> <CNNaffinity_variance>
0.2448165864

$$$$



 18 18  0  0  0  0  0  0  0  0999 V2000
   79.1258    6.7005   33.4669 C   0  0  0  0  0  0  0  0  0  0  0  0
   80.4704    6.5422   34.1831 C   0  0  0  0  0  0  0  0  0  0  0  0
   80.7498    7.6879   35.1735 C   0  0  0  0  0  0  0  0  0  0  0  0
   81.1430    8.9957   34.4764 C   0  0  0  0  0  0  0  0  0  0  0  0
   82.2522    8.7893   33.4354 C   0  0  0  0  0  0  0  0  0  0  0  0
   81.8671    7.6695   32.4499 C   0  0  0  0  0  0  0  0  0  0  0  0
   81.6135    6.4355   33.2443 N   0  0  0  0  0  0  0  0  0  0  0  0
   82.7231    5.6332   33.5737 C   0  0  0  0  0  0  0  0  0  0  0  0
   83.8367    5.8629   33.1000 O   0  0  0  0  0  0  0  0  0  0  0  0
   82.8923    7.5057   31.2800 C   0  0  0  0  0  0  0  0  0  0  0  0
   82.2850    7.0972   29.9023 N   0  0  0  0  0  0  0  0  0  0  0  0
   80.8353    7.6042   29.8885 C   0  0  0  0  0  0  0  0  0  0  0  0
   82.2611    5.5947   29.6954 C   0  0  0  0  0  0  0  0  0  0  0  0
   83.0284    7.7741   28.7559 C   0  0  0  0  0  0  0  0  0  0  0  0
   82.4907    4.4524   34.5026 C   0  0  0  0  0  0  0  0  0  0  0  0
   83.6351    4.3032   35.4988 C   0  0  0  0  0  0  0  0  0  0  0  0
   83.4789    5.5264   36.8331 S   0  0  0  0  0  0  0  0  0  0  0  0
   83.5225    6.7796   36.3066 H   0  0  0  0  0  0  0  0  0  0  0  0
  2  1  1  0
  2  3  1  0
  3  4  1  0
  4  5  1  0
  5  6  1  0
  6 10  1  0
 10 11  1  0
 11 12  1  0
 11 13  1  0
 11 14  1  0
  6  7  1  0
  7  8  1  0
  8  9  2  0
  8 15  1  0
 15 16  1  0
 16 17  1  0
  7  2  1  0
 17 18  1  0
M  CHG 1  11   1
M  END
> <minimizedAffinity>
-4.04544

> <CNNscore>
0.6340790987

> <CNNaffinity>
4.4174561501

> <CNN_VS>
2.8010165691

> <CNNaffinity_variance>
0.1428823322

$$$$



 18 18  0  0  0  0  0  0  0  0999 V2000
   81.5804    5.9974   37.5499 C   0  0  0  0  0  0  0  0  0  0  0  0
   82.3147    7.2482   37.0575 C   0  0  0  0  0  0  0  0  0  0  0  0
   81.6608    8.5506   37.5554 C   0  0  0  0  0  0  0  0  0  0  0  0
   80.3583    8.8831   36.8181 C   0  0  0  0  0  0  0  0  0  0  0  0
   80.5184    8.8111   35.2930 C   0  0  0  0  0  0  0  0  0  0  0  0
   81.1216    7.4564   34.8760 C   0  0  0  0  0  0  0  0  0  0  0  0
   82.4256    7.3062   35.5798 N   0  0  0  0  0  0  0  0  0  0  0  0
   83.5600    7.8875   34.9808 C   0  0  0  0  0  0  0  0  0  0  0  0
   83.5037    8.3723   33.8498 O   0  0  0  0  0  0  0  0  0  0  0  0
   81.1796    7.2646   33.3248 C   0  0  0  0  0  0  0  0  0  0  0  0
   80.4646    5.9919   32.7746 N   0  0  0  0  0  0  0  0  0  0  0  0
   81.1572    5.6305   31.4524 C   0  0  0  0  0  0  0  0  0  0  0  0
   78.9933    6.2247   32.4881 C   0  0  0  0  0  0  0  0  0  0  0  0
   80.6347    4.8148   33.7289 C   0  0  0  0  0  0  0  0  0  0  0  0
   84.8637    7.8611   35.7622 C   0  0  0  0  0  0  0  0  0  0  0  0
   85.9008    6.9826   35.0716 C   0  0  0  0  0  0  0  0  0  0  0  0
   85.5350    5.2257   35.3556 S   0  0  0  0  0  0  0  0  0  0  0  0
   85.5661    4.9662   36.6902 H   0  0  0  0  0  0  0  0  0  0  0  0
  2  1  1  0
  2  3  1  0
  3  4  1  0
  4  5  1  0
  5  6  1  0
  6 10  1  0
 10 11  1  0
 11 12  1  0
 11 13  1  0
 11 14  1  0
  6  7  1  0
  7  8  1  0
  8  9  2  0
  8 15  1  0
 15 16  1  0
 16 17  1  0
  7  2  1  0
 17 18  1  0
M  CHG 1  11   1
M  END
> <minimizedAffinity>
-3.53544

> <CNNscore>
0.6281446218

> <CNNaffinity>
4.2283039093

> <CNN_VS>
2.6559863091

> <CNNaffinity_variance>
0.7320314050

$$$$
