


 25 28  0  0  0  0  0  0  0  0999 V2000
   25.8927   48.9074    1.9664 C   0  0  0  0  0  0  0  0  0  0  0  0
   25.4780   48.0076    2.9353 C   0  0  0  0  0  0  0  0  0  0  0  0
   25.2522   46.7594    2.4186 N   0  0  0  0  0  0  0  0  0  0  0  0
   25.5210   46.8729    1.1369 C   0  0  0  0  0  0  0  0  0  0  0  0
   25.4697   45.9236    0.0973 C   0  0  0  0  0  0  0  0  0  0  0  0
   25.7808   46.3009   -1.1474 C   0  0  0  0  0  0  0  0  0  0  0  0
   26.1730   47.7257   -1.3953 C   0  0  0  0  0  0  0  0  0  0  0  0
   26.2325   48.6177   -0.4441 N   0  0  0  0  0  0  0  0  0  0  0  0
   25.9108   48.1576    0.8007 N   0  0  0  0  0  0  0  0  0  0  0  0
   26.4749   52.3336    3.4443 C   0  0  0  0  0  0  0  0  0  0  0  0
   26.8637   53.0585    2.3119 C   0  0  0  0  0  0  0  0  0  0  0  0
   26.9349   52.4234    1.0755 C   0  0  0  0  0  0  0  0  0  0  0  0
   27.4587   53.4044   -0.4541 Br  0  0  0  0  0  0  0  0  0  0  0  0
   26.6227   51.0702    0.9522 C   0  0  0  0  0  0  0  0  0  0  0  0
   26.2237   50.3300    2.0725 C   0  0  0  0  0  0  0  0  0  0  0  0
   26.1588   50.9727    3.3201 C   0  0  0  0  0  0  0  0  0  0  0  0
   25.2052   52.8475    5.6383 C   0  0  0  0  0  0  0  0  0  0  0  0
   26.4076   53.0487    4.7535 C   0  0  0  0  0  0  0  0  0  0  0  0
   27.3284   53.7891    5.0924 O   0  0  0  0  0  0  0  0  0  0  0  0
   26.4843   48.0896   -2.6856 N   0  0  0  0  0  0  0  0  0  0  0  0
   26.6698   47.3849   -3.3476 H   0  0  0  0  0  0  0  0  0  0  0  0
   26.5480   49.4773   -3.1016 C   0  0  0  0  0  0  0  0  0  0  0  0
   27.9067   49.8777   -3.6061 C   0  0  0  0  0  0  0  0  0  0  0  0
   28.8471   50.7626   -2.8216 C   0  0  0  0  0  0  0  0  0  0  0  0
   28.2318   51.2675   -4.1010 C   0  0  0  0  0  0  0  0  0  0  0  0
 17 18  1  0
 18 19  2  0
 18 10  1  0
 10 11  2  0
 11 12  1  0
 12 13  1  0
 12 14  2  0
 14 15  1  0
 15  1  1  0
  1  2  2  0
  2  3  1  0
  3  4  2  0
  4  5  1  0
  5  6  2  0
  6  7  1  0
  7 20  1  0
 20 22  1  0
 22 23  1  0
 23 24  1  0
 24 25  1  0
  7  8  2  0
  8  9  1  0
 15 16  2  0
 16 10  1  0
  9  1  1  0
  9  4  1  0
 25 23  1  0
 20 21  1  0
M  END
> <minimizedAffinity>
-9.80768

> <CNNscore>
0.9607492089

> <CNNaffinity>
7.9167714119

> <CNN_VS>
7.6060318947

> <CNNaffinity_variance>
0.0827295035

$$$$



 25 28  0  0  0  0  0  0  0  0999 V2000
   25.8877   49.0651    2.2360 C   0  0  0  0  0  0  0  0  0  0  0  0
   25.6455   47.9844    3.0689 C   0  0  0  0  0  0  0  0  0  0  0  0
   25.4291   46.8288    2.3663 N   0  0  0  0  0  0  0  0  0  0  0  0
   25.5329   47.1791    1.1035 C   0  0  0  0  0  0  0  0  0  0  0  0
   25.4088   46.4196   -0.0764 C   0  0  0  0  0  0  0  0  0  0  0  0
   25.5442   47.0261   -1.2606 C   0  0  0  0  0  0  0  0  0  0  0  0
   25.8222   48.4982   -1.2924 C   0  0  0  0  0  0  0  0  0  0  0  0
   25.9469   49.2171   -0.2101 N   0  0  0  0  0  0  0  0  0  0  0  0
   25.8058   48.5285    0.9606 N   0  0  0  0  0  0  0  0  0  0  0  0
   26.9604   52.6675    1.8700 C   0  0  0  0  0  0  0  0  0  0  0  0
   26.6513   53.1760    3.1369 C   0  0  0  0  0  0  0  0  0  0  0  0
   26.0934   52.3402    4.0999 C   0  0  0  0  0  0  0  0  0  0  0  0
   25.6777   53.0281    5.8117 Br  0  0  0  0  0  0  0  0  0  0  0  0
   25.8383   50.9993    3.8159 C   0  0  0  0  0  0  0  0  0  0  0  0
   26.1484   50.4701    2.5566 C   0  0  0  0  0  0  0  0  0  0  0  0
   26.7058   51.3180    1.5849 C   0  0  0  0  0  0  0  0  0  0  0  0
   27.4062   53.2816   -0.6026 C   0  0  0  0  0  0  0  0  0  0  0  0
   27.5600   53.5931    0.8631 C   0  0  0  0  0  0  0  0  0  0  0  0
   28.1687   54.5925    1.2393 O   0  0  0  0  0  0  0  0  0  0  0  0
   25.9530   49.0992   -2.5237 N   0  0  0  0  0  0  0  0  0  0  0  0
   25.3056   49.7929   -2.7863 H   0  0  0  0  0  0  0  0  0  0  0  0
   27.0135   48.7438   -3.4467 C   0  0  0  0  0  0  0  0  0  0  0  0
   27.8229   49.9287   -3.8959 C   0  0  0  0  0  0  0  0  0  0  0  0
   28.8005   50.6460   -2.9945 C   0  0  0  0  0  0  0  0  0  0  0  0
   27.5434   51.3434   -3.4457 C   0  0  0  0  0  0  0  0  0  0  0  0
 17 18  1  0
 18 19  2  0
 18 10  1  0
 10 11  2  0
 11 12  1  0
 12 13  1  0
 12 14  2  0
 14 15  1  0
 15  1  1  0
  1  2  2  0
  2  3  1  0
  3  4  2  0
  4  5  1  0
  5  6  2  0
  6  7  1  0
  7 20  1  0
 20 22  1  0
 22 23  1  0
 23 24  1  0
 24 25  1  0
  7  8  2  0
  8  9  1  0
 15 16  2  0
 16 10  1  0
  9  1  1  0
  9  4  1  0
 25 23  1  0
 20 21  1  0
M  END
> <minimizedAffinity>
-9.10235

> <CNNscore>
0.9227430820

> <CNNaffinity>
7.6853184700

> <CNN_VS>
7.0915746689

> <CNNaffinity_variance>
0.0533380322

$$$$



 25 28  0  0  0  0  0  0  0  0999 V2000
   25.8623   48.8867    2.0443 C   0  0  0  0  0  0  0  0  0  0  0  0
   25.4593   47.9889    3.0199 C   0  0  0  0  0  0  0  0  0  0  0  0
   25.2247   46.7403    2.5081 N   0  0  0  0  0  0  0  0  0  0  0  0
   25.4766   46.8516    1.2227 C   0  0  0  0  0  0  0  0  0  0  0  0
   25.4100   45.9009    0.1853 C   0  0  0  0  0  0  0  0  0  0  0  0
   25.7050   46.2761   -1.0640 C   0  0  0  0  0  0  0  0  0  0  0  0
   26.0959   47.6999   -1.3191 C   0  0  0  0  0  0  0  0  0  0  0  0
   26.1695   48.5932   -0.3701 N   0  0  0  0  0  0  0  0  0  0  0  0
   25.8638   48.1353    0.8795 N   0  0  0  0  0  0  0  0  0  0  0  0
   26.4391   52.3215    3.5041 C   0  0  0  0  0  0  0  0  0  0  0  0
   26.8431   53.0370    2.3710 C   0  0  0  0  0  0  0  0  0  0  0  0
   26.9262   52.3928    1.1401 C   0  0  0  0  0  0  0  0  0  0  0  0
   27.4705   53.3611   -0.3905 Br  0  0  0  0  0  0  0  0  0  0  0  0
   26.6109   51.0398    1.0230 C   0  0  0  0  0  0  0  0  0  0  0  0
   26.1968   50.3089    2.1439 C   0  0  0  0  0  0  0  0  0  0  0  0
   26.1200   50.9608    3.3861 C   0  0  0  0  0  0  0  0  0  0  0  0
   25.1422   52.8626    5.6755 C   0  0  0  0  0  0  0  0  0  0  0  0
   26.3594   53.0462    4.8073 C   0  0  0  0  0  0  0  0  0  0  0  0
   27.2822   53.7802    5.1549 O   0  0  0  0  0  0  0  0  0  0  0  0
   26.3906   48.0615   -2.6141 N   0  0  0  0  0  0  0  0  0  0  0  0
   26.9784   48.8356   -2.7704 H   0  0  0  0  0  0  0  0  0  0  0  0
   25.8631   47.3392   -3.7555 C   0  0  0  0  0  0  0  0  0  0  0  0
   24.4275   47.6751   -4.0511 C   0  0  0  0  0  0  0  0  0  0  0  0
   23.3024   46.6778   -3.9019 C   0  0  0  0  0  0  0  0  0  0  0  0
   23.6918   47.1721   -5.2709 C   0  0  0  0  0  0  0  0  0  0  0  0
 17 18  1  0
 18 19  2  0
 18 10  1  0
 10 11  2  0
 11 12  1  0
 12 13  1  0
 12 14  2  0
 14 15  1  0
 15  1  1  0
  1  2  2  0
  2  3  1  0
  3  4  2  0
  4  5  1  0
  5  6  2  0
  6  7  1  0
  7 20  1  0
 20 22  1  0
 22 23  1  0
 23 24  1  0
 24 25  1  0
  7  8  2  0
  8  9  1  0
 15 16  2  0
 16 10  1  0
  9  1  1  0
  9  4  1  0
 25 23  1  0
 20 21  1  0
M  END
> <minimizedAffinity>
-9.53784

> <CNNscore>
0.9051154852

> <CNNaffinity>
7.5455565453

> <CNN_VS>
6.8295998573

> <CNNaffinity_variance>
0.1087802947

$$$$



 25 28  0  0  0  0  0  0  0  0999 V2000
   26.3114   49.5127    1.1697 C   0  0  0  0  0  0  0  0  0  0  0  0
   26.1543   49.5727    2.5451 C   0  0  0  0  0  0  0  0  0  0  0  0
   25.6504   48.4074    3.0590 N   0  0  0  0  0  0  0  0  0  0  0  0
   25.4909   47.6222    2.0169 C   0  0  0  0  0  0  0  0  0  0  0  0
   25.0073   46.3024    1.9234 C   0  0  0  0  0  0  0  0  0  0  0  0
   24.9253   45.7206    0.7221 C   0  0  0  0  0  0  0  0  0  0  0  0
   25.3503   46.4954   -0.4880 C   0  0  0  0  0  0  0  0  0  0  0  0
   25.8068   47.7165   -0.4206 N   0  0  0  0  0  0  0  0  0  0  0  0
   25.8708   48.2409    0.8386 N   0  0  0  0  0  0  0  0  0  0  0  0
   27.2449   52.8623   -0.3037 C   0  0  0  0  0  0  0  0  0  0  0  0
   27.7286   52.4838   -1.5614 C   0  0  0  0  0  0  0  0  0  0  0  0
   27.7483   51.1386   -1.9181 C   0  0  0  0  0  0  0  0  0  0  0  0
   28.4006   50.6286   -3.6183 Br  0  0  0  0  0  0  0  0  0  0  0  0
   27.2909   50.1619   -1.0346 C   0  0  0  0  0  0  0  0  0  0  0  0
   26.7955   50.5219    0.2253 C   0  0  0  0  0  0  0  0  0  0  0  0
   26.7827   51.8801    0.5845 C   0  0  0  0  0  0  0  0  0  0  0  0
   26.5220   55.2817   -0.8639 C   0  0  0  0  0  0  0  0  0  0  0  0
   27.2367   54.3147    0.0434 C   0  0  0  0  0  0  0  0  0  0  0  0
   27.8099   54.7026    1.0593 O   0  0  0  0  0  0  0  0  0  0  0  0
   25.2521   45.8756   -1.7130 N   0  0  0  0  0  0  0  0  0  0  0  0
   24.7842   45.0115   -1.7735 H   0  0  0  0  0  0  0  0  0  0  0  0
   25.8157   46.4541   -2.9174 C   0  0  0  0  0  0  0  0  0  0  0  0
   24.7980   47.1816   -3.7516 C   0  0  0  0  0  0  0  0  0  0  0  0
   25.1747   48.1458   -4.8522 C   0  0  0  0  0  0  0  0  0  0  0  0
   24.5043   48.6561   -3.6031 C   0  0  0  0  0  0  0  0  0  0  0  0
 17 18  1  0
 18 19  2  0
 18 10  1  0
 10 11  2  0
 11 12  1  0
 12 13  1  0
 12 14  2  0
 14 15  1  0
 15  1  1  0
  1  2  2  0
  2  3  1  0
  3  4  2  0
  4  5  1  0
  5  6  2  0
  6  7  1  0
  7 20  1  0
 20 22  1  0
 22 23  1  0
 23 24  1  0
 24 25  1  0
  7  8  2  0
  8  9  1  0
 15 16  2  0
 16 10  1  0
  9  1  1  0
  9  4  1  0
 25 23  1  0
 20 21  1  0
M  END
> <minimizedAffinity>
-8.43362

> <CNNscore>
0.8439016938

> <CNNaffinity>
7.9295544624

> <CNN_VS>
6.6917643547

> <CNNaffinity_variance>
0.3493444920

$$$$



 25 28  0  0  0  0  0  0  0  0999 V2000
   25.8482   48.9027    2.3739 C   0  0  0  0  0  0  0  0  0  0  0  0
   25.5231   47.8908    3.2630 C   0  0  0  0  0  0  0  0  0  0  0  0
   25.3144   46.6942    2.6302 N   0  0  0  0  0  0  0  0  0  0  0  0
   25.5051   46.9509    1.3551 C   0  0  0  0  0  0  0  0  0  0  0  0
   25.4295   46.1128    0.2253 C   0  0  0  0  0  0  0  0  0  0  0  0
   25.6548   46.6297   -0.9873 C   0  0  0  0  0  0  0  0  0  0  0  0
   25.9792   48.0879   -1.1039 C   0  0  0  0  0  0  0  0  0  0  0  0
   26.0600   48.8786   -0.0683 N   0  0  0  0  0  0  0  0  0  0  0  0
   25.8273   48.2790    1.1362 N   0  0  0  0  0  0  0  0  0  0  0  0
   26.9807   52.4592    1.7988 C   0  0  0  0  0  0  0  0  0  0  0  0
   26.6791   53.0463    3.0330 C   0  0  0  0  0  0  0  0  0  0  0  0
   26.1066   52.2779    4.0425 C   0  0  0  0  0  0  0  0  0  0  0  0
   25.7010   53.0719    5.7102 Br  0  0  0  0  0  0  0  0  0  0  0  0
   25.8296   50.9270    3.8373 C   0  0  0  0  0  0  0  0  0  0  0  0
   26.1319   50.3196    2.6118 C   0  0  0  0  0  0  0  0  0  0  0  0
   26.7040   51.0997    1.5930 C   0  0  0  0  0  0  0  0  0  0  0  0
   27.4592   52.9064   -0.7034 C   0  0  0  0  0  0  0  0  0  0  0  0
   27.5963   53.3140    0.7403 C   0  0  0  0  0  0  0  0  0  0  0  0
   28.2045   54.3342    1.0569 O   0  0  0  0  0  0  0  0  0  0  0  0
   26.2025   48.5962   -2.3633 N   0  0  0  0  0  0  0  0  0  0  0  0
   27.1190   48.8487   -2.6194 H   0  0  0  0  0  0  0  0  0  0  0  0
   25.1316   48.7717   -3.3252 C   0  0  0  0  0  0  0  0  0  0  0  0
   24.7687   47.4990   -4.0391 C   0  0  0  0  0  0  0  0  0  0  0  0
   23.7968   47.4532   -5.1949 C   0  0  0  0  0  0  0  0  0  0  0  0
   23.4330   46.8110   -3.8814 C   0  0  0  0  0  0  0  0  0  0  0  0
 17 18  1  0
 18 19  2  0
 18 10  1  0
 10 11  2  0
 11 12  1  0
 12 13  1  0
 12 14  2  0
 14 15  1  0
 15  1  1  0
  1  2  2  0
  2  3  1  0
  3  4  2  0
  4  5  1  0
  5  6  2  0
  6  7  1  0
  7 20  1  0
 20 22  1  0
 22 23  1  0
 23 24  1  0
 24 25  1  0
  7  8  2  0
  8  9  1  0
 15 16  2  0
 16 10  1  0
  9  1  1  0
  9  4  1  0
 25 23  1  0
 20 21  1  0
M  END
> <minimizedAffinity>
-8.83860

> <CNNscore>
0.6480586529

> <CNNaffinity>
7.2831425667

> <CNN_VS>
4.7199034691

> <CNNaffinity_variance>
0.2291768640

$$$$



 25 28  0  0  0  0  0  0  0  0999 V2000
   27.3726   50.6282   -1.7132 C   0  0  0  0  0  0  0  0  0  0  0  0
   28.4209   51.2676   -2.3555 C   0  0  0  0  0  0  0  0  0  0  0  0
   28.4288   51.0213   -3.7028 N   0  0  0  0  0  0  0  0  0  0  0  0
   27.3963   50.2336   -3.9062 C   0  0  0  0  0  0  0  0  0  0  0  0
   26.9005   49.6517   -5.0895 C   0  0  0  0  0  0  0  0  0  0  0  0
   25.8246   48.8599   -5.0266 C   0  0  0  0  0  0  0  0  0  0  0  0
   25.1820   48.6160   -3.6951 C   0  0  0  0  0  0  0  0  0  0  0  0
   25.6229   49.1513   -2.5893 N   0  0  0  0  0  0  0  0  0  0  0  0
   26.7177   49.9548   -2.7326 N   0  0  0  0  0  0  0  0  0  0  0  0
   26.7583   51.7712    1.8333 C   0  0  0  0  0  0  0  0  0  0  0  0
   26.2859   50.5932    2.4234 C   0  0  0  0  0  0  0  0  0  0  0  0
   26.1695   49.4358    1.6592 C   0  0  0  0  0  0  0  0  0  0  0  0
   25.5327   47.8444    2.4581 Br  0  0  0  0  0  0  0  0  0  0  0  0
   26.5188   49.4369    0.3095 C   0  0  0  0  0  0  0  0  0  0  0  0
   27.0013   50.6038   -0.2969 C   0  0  0  0  0  0  0  0  0  0  0  0
   27.1117   51.7719    0.4760 C   0  0  0  0  0  0  0  0  0  0  0  0
   26.5152   52.9046    4.1455 C   0  0  0  0  0  0  0  0  0  0  0  0
   26.8721   52.9928    2.6847 C   0  0  0  0  0  0  0  0  0  0  0  0
   27.2531   54.0502    2.1870 O   0  0  0  0  0  0  0  0  0  0  0  0
   24.0787   47.7940   -3.6569 N   0  0  0  0  0  0  0  0  0  0  0  0
   23.1934   48.1922   -3.4931 H   0  0  0  0  0  0  0  0  0  0  0  0
   24.1782   46.3602   -3.8501 C   0  0  0  0  0  0  0  0  0  0  0  0
   25.4905   45.7941   -3.3826 C   0  0  0  0  0  0  0  0  0  0  0  0
   26.5606   45.3073   -4.3316 C   0  0  0  0  0  0  0  0  0  0  0  0
   25.8322   44.3241   -3.4525 C   0  0  0  0  0  0  0  0  0  0  0  0
 17 18  1  0
 18 19  2  0
 18 10  1  0
 10 11  2  0
 11 12  1  0
 12 13  1  0
 12 14  2  0
 14 15  1  0
 15  1  1  0
  1  2  2  0
  2  3  1  0
  3  4  2  0
  4  5  1  0
  5  6  2  0
  6  7  1  0
  7 20  1  0
 20 22  1  0
 22 23  1  0
 23 24  1  0
 24 25  1  0
  7  8  2  0
  8  9  1  0
 15 16  2  0
 16 10  1  0
  9  1  1  0
  9  4  1  0
 25 23  1  0
 20 21  1  0
M  END
> <minimizedAffinity>
-8.03352

> <CNNscore>
0.6174129844

> <CNNaffinity>
7.0186386108

> <CNN_VS>
4.3333988190

> <CNNaffinity_variance>
0.0901043117

$$$$



 25 28  0  0  0  0  0  0  0  0999 V2000
   27.1161   50.3309   -2.6845 C   0  0  0  0  0  0  0  0  0  0  0  0
   27.8092   49.6692   -3.6854 C   0  0  0  0  0  0  0  0  0  0  0  0
   27.9557   50.4392   -4.8086 N   0  0  0  0  0  0  0  0  0  0  0  0
   27.3595   51.5741   -4.5177 C   0  0  0  0  0  0  0  0  0  0  0  0
   27.1870   52.7459   -5.2803 C   0  0  0  0  0  0  0  0  0  0  0  0
   26.5154   53.7752   -4.7529 C   0  0  0  0  0  0  0  0  0  0  0  0
   25.9658   53.6460   -3.3649 C   0  0  0  0  0  0  0  0  0  0  0  0
   26.1210   52.5710   -2.6408 N   0  0  0  0  0  0  0  0  0  0  0  0
   26.8247   51.5665   -3.2412 N   0  0  0  0  0  0  0  0  0  0  0  0
   26.4161   50.3708    1.0264 C   0  0  0  0  0  0  0  0  0  0  0  0
   25.9738   49.0595    1.2363 C   0  0  0  0  0  0  0  0  0  0  0  0
   25.9053   48.1733    0.1653 C   0  0  0  0  0  0  0  0  0  0  0  0
   25.3090   46.4015    0.4506 Br  0  0  0  0  0  0  0  0  0  0  0  0
   26.2731   48.5782   -1.1171 C   0  0  0  0  0  0  0  0  0  0  0  0
   26.7261   49.8838   -1.3456 C   0  0  0  0  0  0  0  0  0  0  0  0
   26.7882   50.7775   -0.2633 C   0  0  0  0  0  0  0  0  0  0  0  0
   26.2682   50.7350    3.5828 C   0  0  0  0  0  0  0  0  0  0  0  0
   26.4787   51.2927    2.1994 C   0  0  0  0  0  0  0  0  0  0  0  0
   26.6997   52.4891    2.0241 O   0  0  0  0  0  0  0  0  0  0  0  0
   25.2749   54.7177   -2.8468 N   0  0  0  0  0  0  0  0  0  0  0  0
   24.3209   54.6092   -2.6290 H   0  0  0  0  0  0  0  0  0  0  0  0
   25.9067   56.0016   -2.6113 C   0  0  0  0  0  0  0  0  0  0  0  0
   25.4960   57.0500   -3.6079 C   0  0  0  0  0  0  0  0  0  0  0  0
   26.4149   57.5550   -4.6957 C   0  0  0  0  0  0  0  0  0  0  0  0
   26.0043   58.4723   -3.5731 C   0  0  0  0  0  0  0  0  0  0  0  0
 17 18  1  0
 18 19  2  0
 18 10  1  0
 10 11  2  0
 11 12  1  0
 12 13  1  0
 12 14  2  0
 14 15  1  0
 15  1  1  0
  1  2  2  0
  2  3  1  0
  3  4  2  0
  4  5  1  0
  5  6  2  0
  6  7  1  0
  7 20  1  0
 20 22  1  0
 22 23  1  0
 23 24  1  0
 24 25  1  0
  7  8  2  0
  8  9  1  0
 15 16  2  0
 16 10  1  0
  9  1  1  0
  9  4  1  0
 25 23  1  0
 20 21  1  0
M  END
> <minimizedAffinity>
-8.33431

> <CNNscore>
0.5836722851

> <CNNaffinity>
6.7909359932

> <CNN_VS>
3.9636812210

> <CNNaffinity_variance>
0.0133822979

$$$$



 25 28  0  0  0  0  0  0  0  0999 V2000
   27.1848   53.2422   -0.1118 C   0  0  0  0  0  0  0  0  0  0  0  0
   27.3794   54.3066    0.7538 C   0  0  0  0  0  0  0  0  0  0  0  0
   27.4843   53.9001    2.0575 N   0  0  0  0  0  0  0  0  0  0  0  0
   27.3560   52.5926    2.0128 C   0  0  0  0  0  0  0  0  0  0  0  0
   27.3776   51.6292    3.0404 C   0  0  0  0  0  0  0  0  0  0  0  0
   27.2035   50.3399    2.7304 C   0  0  0  0  0  0  0  0  0  0  0  0
   26.9889   49.9628    1.2962 C   0  0  0  0  0  0  0  0  0  0  0  0
   26.9721   50.8402    0.3299 N   0  0  0  0  0  0  0  0  0  0  0  0
   27.1659   52.1342    0.7208 N   0  0  0  0  0  0  0  0  0  0  0  0
   26.2807   54.3394   -3.6105 C   0  0  0  0  0  0  0  0  0  0  0  0
   26.6627   53.2186   -4.3569 C   0  0  0  0  0  0  0  0  0  0  0  0
   27.2142   52.1147   -3.7133 C   0  0  0  0  0  0  0  0  0  0  0  0
   27.7283   50.6004   -4.7227 Br  0  0  0  0  0  0  0  0  0  0  0  0
   27.3908   52.1129   -2.3303 C   0  0  0  0  0  0  0  0  0  0  0  0
   27.0071   53.2218   -1.5653 C   0  0  0  0  0  0  0  0  0  0  0  0
   26.4565   54.3368   -2.2190 C   0  0  0  0  0  0  0  0  0  0  0  0
   25.5460   56.8193   -3.6144 C   0  0  0  0  0  0  0  0  0  0  0  0
   25.6905   55.5042   -4.3348 C   0  0  0  0  0  0  0  0  0  0  0  0
   25.3313   55.3778   -5.5036 O   0  0  0  0  0  0  0  0  0  0  0  0
   26.8080   48.6299    1.0042 N   0  0  0  0  0  0  0  0  0  0  0  0
   27.4242   48.1927    0.3730 H   0  0  0  0  0  0  0  0  0  0  0  0
   25.7392   47.8488    1.5961 C   0  0  0  0  0  0  0  0  0  0  0  0
   25.7079   46.4282    1.1042 C   0  0  0  0  0  0  0  0  0  0  0  0
   25.3000   46.0537   -0.3015 C   0  0  0  0  0  0  0  0  0  0  0  0
   24.4287   45.6614    0.8635 C   0  0  0  0  0  0  0  0  0  0  0  0
 17 18  1  0
 18 19  2  0
 18 10  1  0
 10 11  2  0
 11 12  1  0
 12 13  1  0
 12 14  2  0
 14 15  1  0
 15  1  1  0
  1  2  2  0
  2  3  1  0
  3  4  2  0
  4  5  1  0
  5  6  2  0
  6  7  1  0
  7 20  1  0
 20 22  1  0
 22 23  1  0
 23 24  1  0
 24 25  1  0
  7  8  2  0
  8  9  1  0
 15 16  2  0
 16 10  1  0
  9  1  1  0
  9  4  1  0
 25 23  1  0
 20 21  1  0
M  END
> <minimizedAffinity>
-9.85578

> <CNNscore>
0.5572640896

> <CNNaffinity>
6.8795948029

> <CNN_VS>
3.8337512016

> <CNNaffinity_variance>
0.0022897823

$$$$



 25 28  0  0  0  0  0  0  0  0999 V2000
   26.0866   48.1697    0.5343 C   0  0  0  0  0  0  0  0  0  0  0  0
   25.5236   47.1092    1.2260 C   0  0  0  0  0  0  0  0  0  0  0  0
   25.3541   47.3910    2.5556 N   0  0  0  0  0  0  0  0  0  0  0  0
   25.8070   48.6167    2.6994 C   0  0  0  0  0  0  0  0  0  0  0  0
   25.8914   49.4398    3.8395 C   0  0  0  0  0  0  0  0  0  0  0  0
   26.4181   50.6636    3.7238 C   0  0  0  0  0  0  0  0  0  0  0  0
   26.9041   51.1186    2.3814 C   0  0  0  0  0  0  0  0  0  0  0  0
   26.8284   50.3729    1.3127 N   0  0  0  0  0  0  0  0  0  0  0  0
   26.2710   49.1413    1.5056 N   0  0  0  0  0  0  0  0  0  0  0  0
   26.3210   47.4506   -3.1656 C   0  0  0  0  0  0  0  0  0  0  0  0
   27.1245   48.5108   -3.6010 C   0  0  0  0  0  0  0  0  0  0  0  0
   27.5817   49.4531   -2.6844 C   0  0  0  0  0  0  0  0  0  0  0  0
   28.6685   50.8842   -3.2736 Br  0  0  0  0  0  0  0  0  0  0  0  0
   27.2473   49.3526   -1.3346 C   0  0  0  0  0  0  0  0  0  0  0  0
   26.4512   48.2941   -0.8785 C   0  0  0  0  0  0  0  0  0  0  0  0
   25.9863   47.3481   -1.8074 C   0  0  0  0  0  0  0  0  0  0  0  0
   26.1532   44.9968   -3.9663 C   0  0  0  0  0  0  0  0  0  0  0  0
   25.8510   46.4574   -4.1769 C   0  0  0  0  0  0  0  0  0  0  0  0
   25.2266   46.8406   -5.1641 O   0  0  0  0  0  0  0  0  0  0  0  0
   27.4458   52.3805    2.2899 N   0  0  0  0  0  0  0  0  0  0  0  0
   28.3579   52.5330    2.6278 H   0  0  0  0  0  0  0  0  0  0  0  0
   26.7167   53.4928    1.7118 C   0  0  0  0  0  0  0  0  0  0  0  0
   27.3733   54.0481    0.4783 C   0  0  0  0  0  0  0  0  0  0  0  0
   26.5957   54.6728   -0.6565 C   0  0  0  0  0  0  0  0  0  0  0  0
   27.3177   53.3676   -0.8693 C   0  0  0  0  0  0  0  0  0  0  0  0
 17 18  1  0
 18 19  2  0
 18 10  1  0
 10 11  2  0
 11 12  1  0
 12 13  1  0
 12 14  2  0
 14 15  1  0
 15  1  1  0
  1  2  2  0
  2  3  1  0
  3  4  2  0
  4  5  1  0
  5  6  2  0
  6  7  1  0
  7 20  1  0
 20 22  1  0
 22 23  1  0
 23 24  1  0
 24 25  1  0
  7  8  2  0
  8  9  1  0
 15 16  2  0
 16 10  1  0
  9  1  1  0
  9  4  1  0
 25 23  1  0
 20 21  1  0
M  END
> <minimizedAffinity>
-9.08772

> <CNNscore>
0.5446340442

> <CNNaffinity>
6.9804425240

> <CNN_VS>
3.8017866611

> <CNNaffinity_variance>
0.1029867306

$$$$
