


 30 32  0  0  0  0  0  0  0  0999 V2000
   -5.0442    8.5399   13.8514 N   0  0  0  0  0  0  0  0  0  0  0  0
   -3.8706    8.0087   14.3485 C   0  0  0  0  0  0  0  0  0  0  0  0
   -4.1844    6.8587   15.0266 C   0  0  0  0  0  0  0  0  0  0  0  0
   -5.5914    6.7514   14.9123 C   0  0  0  0  0  0  0  0  0  0  0  0
   -6.1056    7.7723   14.2033 N   0  0  0  0  0  0  0  0  0  0  0  0
   -7.2294   12.2868   14.9843 C   0  0  0  0  0  0  0  0  0  0  0  0
   -7.3732   13.2622   14.0120 C   0  0  0  0  0  0  0  0  0  0  0  0
   -6.7896   13.0750   12.7601 C   0  0  0  0  0  0  0  0  0  0  0  0
   -6.0675   11.9101   12.4528 C   0  0  0  0  0  0  0  0  0  0  0  0
   -5.4787   11.8069   11.1867 C   0  0  0  0  0  0  0  0  0  0  0  0
   -4.7402   10.6859   10.8387 C   0  0  0  0  0  0  0  0  0  0  0  0
   -4.0244   10.5879    9.2764 Cl  0  0  0  0  0  0  0  0  0  0  0  0
   -4.5887    9.6367   11.7352 C   0  0  0  0  0  0  0  0  0  0  0  0
   -5.1842    9.6953   13.0120 C   0  0  0  0  0  0  0  0  0  0  0  0
   -5.9264   10.8657   13.4076 C   0  0  0  0  0  0  0  0  0  0  0  0
   -6.5132   11.1206   14.6811 C   0  0  0  0  0  0  0  0  0  0  0  0
   -8.7418   11.4033   16.5932 C   0  0  0  0  0  0  0  0  0  0  0  0
   -7.7251   12.3397   16.2583 O   0  0  0  0  0  0  0  0  0  0  0  0
   -3.3379    5.9881   15.6911 N   0  0  0  0  0  0  0  0  0  0  0  0
   -1.9752    6.0861   15.7453 C   0  0  0  0  0  0  0  0  0  0  0  0
   -1.4170    5.0958   16.4998 N   0  0  0  0  0  0  0  0  0  0  0  0
   -1.2614    6.9203   15.2060 O   0  0  0  0  0  0  0  0  0  0  0  0
   -3.7532    5.2324   16.1661 H   0  0  0  0  0  0  0  0  0  0  0  0
   -1.9916    4.4245   16.9338 H   0  0  0  0  0  0  0  0  0  0  0  0
   -0.4397    5.0526   16.6102 H   0  0  0  0  0  0  0  0  0  0  0  0
   -6.4381    5.6930   15.4730 C   0  0  0  0  0  0  0  0  0  0  0  0
   -7.7639    5.7988   15.1596 N   0  0  0  0  0  0  0  0  0  0  0  0
   -6.0040    4.7793   16.1695 O   0  0  0  0  0  0  0  0  0  0  0  0
   -8.0791    6.5439   14.5986 H   0  0  0  0  0  0  0  0  0  0  0  0
   -8.4038    5.1299   15.4947 H   0  0  0  0  0  0  0  0  0  0  0  0
 17 18  1  0
 18  6  1  0
  6  7  2  0
  7  8  1  0
  8  9  2  0
  9 10  1  0
 10 11  2  0
 11 12  1  0
 11 13  1  0
 13 14  2  0
 14  1  1  0
  1  2  1  0
  2  3  2  0
  3 19  1  0
 19 20  1  0
 20 21  1  0
 20 22  2  0
  3  4  1  0
  4 26  1  0
 26 27  1  0
 26 28  2  0
  4  5  2  0
 14 15  1  0
 15 16  2  0
 16  6  1  0
 15  9  1  0
  5  1  1  0
 19 23  1  0
 21 24  1  0
 21 25  1  0
 27 29  1  0
 27 30  1  0
M  END
> <minimizedAffinity>
-11.19043

> <CNNscore>
0.9873645306

> <CNNaffinity>
7.9189262390

> <CNN_VS>
7.8188667297

> <CNNaffinity_variance>
0.0086429855

$$$$



 30 32  0  0  0  0  0  0  0  0999 V2000
   -4.5143    8.5076   13.7193 N   0  0  0  0  0  0  0  0  0  0  0  0
   -5.3964    7.5589   14.1975 C   0  0  0  0  0  0  0  0  0  0  0  0
   -4.6915    6.6952   14.9964 C   0  0  0  0  0  0  0  0  0  0  0  0
   -3.3606    7.1759   14.9518 C   0  0  0  0  0  0  0  0  0  0  0  0
   -3.2595    8.2699   14.1757 N   0  0  0  0  0  0  0  0  0  0  0  0
   -7.0856   11.9425   15.0183 C   0  0  0  0  0  0  0  0  0  0  0  0
   -7.3865   12.9094   14.0738 C   0  0  0  0  0  0  0  0  0  0  0  0
   -6.8374   12.8152   12.7960 C   0  0  0  0  0  0  0  0  0  0  0  0
   -5.9938   11.7517   12.4353 C   0  0  0  0  0  0  0  0  0  0  0  0
   -5.4503   11.7417   11.1450 C   0  0  0  0  0  0  0  0  0  0  0  0
   -4.5975   10.7245   10.7439 C   0  0  0  0  0  0  0  0  0  0  0  0
   -3.9410   10.7400    9.1528 Cl  0  0  0  0  0  0  0  0  0  0  0  0
   -4.2832    9.6866   11.6109 C   0  0  0  0  0  0  0  0  0  0  0  0
   -4.8275    9.6513   12.9112 C   0  0  0  0  0  0  0  0  0  0  0  0
   -5.6880   10.7163   13.3610 C   0  0  0  0  0  0  0  0  0  0  0  0
   -6.2474   10.8770   14.6619 C   0  0  0  0  0  0  0  0  0  0  0  0
   -8.7221   11.1809   16.5668 C   0  0  0  0  0  0  0  0  0  0  0  0
   -7.5303   11.9137   16.3118 O   0  0  0  0  0  0  0  0  0  0  0  0
   -5.1507    5.5895   15.6910 N   0  0  0  0  0  0  0  0  0  0  0  0
   -6.2322    4.8256   15.3497 C   0  0  0  0  0  0  0  0  0  0  0  0
   -6.4211    3.7856   16.2123 N   0  0  0  0  0  0  0  0  0  0  0  0
   -6.9978    4.9874   14.4096 O   0  0  0  0  0  0  0  0  0  0  0  0
   -4.6555    5.3305   16.5014 H   0  0  0  0  0  0  0  0  0  0  0  0
   -5.8049    3.6554   16.9690 H   0  0  0  0  0  0  0  0  0  0  0  0
   -7.1737    3.1652   16.0781 H   0  0  0  0  0  0  0  0  0  0  0  0
   -2.1976    6.6005   15.6358 C   0  0  0  0  0  0  0  0  0  0  0  0
   -2.5033    5.7332   16.6465 N   0  0  0  0  0  0  0  0  0  0  0  0
   -1.0372    6.8675   15.3349 O   0  0  0  0  0  0  0  0  0  0  0  0
   -3.4444    5.5408   16.8623 H   0  0  0  0  0  0  0  0  0  0  0  0
   -1.7825    5.3008   17.1590 H   0  0  0  0  0  0  0  0  0  0  0  0
 17 18  1  0
 18  6  1  0
  6  7  2  0
  7  8  1  0
  8  9  2  0
  9 10  1  0
 10 11  2  0
 11 12  1  0
 11 13  1  0
 13 14  2  0
 14  1  1  0
  1  2  1  0
  2  3  2  0
  3 19  1  0
 19 20  1  0
 20 21  1  0
 20 22  2  0
  3  4  1  0
  4 26  1  0
 26 27  1  0
 26 28  2  0
  4  5  2  0
 14 15  1  0
 15 16  2  0
 16  6  1  0
 15  9  1  0
  5  1  1  0
 19 23  1  0
 21 24  1  0
 21 25  1  0
 27 29  1  0
 27 30  1  0
M  END
> <minimizedAffinity>
-10.35950

> <CNNscore>
0.9752241373

> <CNNaffinity>
7.8257136345

> <CNN_VS>
7.6318249702

> <CNNaffinity_variance>
0.0504579060

$$$$



 30 32  0  0  0  0  0  0  0  0999 V2000
   -5.6452    8.3575   14.6369 N   0  0  0  0  0  0  0  0  0  0  0  0
   -6.1866    7.1139   14.8955 C   0  0  0  0  0  0  0  0  0  0  0  0
   -5.1503    6.2304   15.0579 C   0  0  0  0  0  0  0  0  0  0  0  0
   -3.9846    7.0116   14.8705 C   0  0  0  0  0  0  0  0  0  0  0  0
   -4.2905    8.2961   14.6134 N   0  0  0  0  0  0  0  0  0  0  0  0
   -4.9055   11.3447   11.3769 C   0  0  0  0  0  0  0  0  0  0  0  0
   -5.5958   12.5435   11.4391 C   0  0  0  0  0  0  0  0  0  0  0  0
   -6.5251   12.7486   12.4576 C   0  0  0  0  0  0  0  0  0  0  0  0
   -6.7706   11.7712   13.4360 C   0  0  0  0  0  0  0  0  0  0  0  0
   -7.7440   12.0325   14.4079 C   0  0  0  0  0  0  0  0  0  0  0  0
   -8.0378   11.0941   15.3857 C   0  0  0  0  0  0  0  0  0  0  0  0
   -9.2421   11.4408   16.5657 Cl  0  0  0  0  0  0  0  0  0  0  0  0
   -7.3562    9.8854   15.4287 C   0  0  0  0  0  0  0  0  0  0  0  0
   -6.3548    9.5949   14.4795 C   0  0  0  0  0  0  0  0  0  0  0  0
   -6.0577   10.5407   13.4335 C   0  0  0  0  0  0  0  0  0  0  0  0
   -5.1440   10.3678   12.3535 C   0  0  0  0  0  0  0  0  0  0  0  0
   -4.4661   10.2885    9.2918 C   0  0  0  0  0  0  0  0  0  0  0  0
   -3.9839   10.9939   10.4287 O   0  0  0  0  0  0  0  0  0  0  0  0
   -5.2045    4.8747   15.3318 N   0  0  0  0  0  0  0  0  0  0  0  0
   -6.1757    4.2462   16.0607 C   0  0  0  0  0  0  0  0  0  0  0  0
   -5.9732    2.8991   16.1356 N   0  0  0  0  0  0  0  0  0  0  0  0
   -7.1383    4.7521   16.6208 O   0  0  0  0  0  0  0  0  0  0  0  0
   -4.4805    4.3139   14.9703 H   0  0  0  0  0  0  0  0  0  0  0  0
   -5.1985    2.4920   15.6847 H   0  0  0  0  0  0  0  0  0  0  0  0
   -6.6018    2.3341   16.6405 H   0  0  0  0  0  0  0  0  0  0  0  0
   -2.5961    6.5427   14.9317 C   0  0  0  0  0  0  0  0  0  0  0  0
   -2.2543    5.9276   16.1029 N   0  0  0  0  0  0  0  0  0  0  0  0
   -1.7947    6.6846   14.0120 O   0  0  0  0  0  0  0  0  0  0  0  0
   -2.9211    5.8300   16.8206 H   0  0  0  0  0  0  0  0  0  0  0  0
   -1.3411    5.5819   16.2291 H   0  0  0  0  0  0  0  0  0  0  0  0
 17 18  1  0
 18  6  1  0
  6  7  2  0
  7  8  1  0
  8  9  2  0
  9 10  1  0
 10 11  2  0
 11 12  1  0
 11 13  1  0
 13 14  2  0
 14  1  1  0
  1  2  1  0
  2  3  2  0
  3 19  1  0
 19 20  1  0
 20 21  1  0
 20 22  2  0
  3  4  1  0
  4 26  1  0
 26 27  1  0
 26 28  2  0
  4  5  2  0
 14 15  1  0
 15 16  2  0
 16  6  1  0
 15  9  1  0
  5  1  1  0
 19 23  1  0
 21 24  1  0
 21 25  1  0
 27 29  1  0
 27 30  1  0
M  END
> <minimizedAffinity>
-9.99755

> <CNNscore>
0.9589124322

> <CNNaffinity>
7.9159150124

> <CNN_VS>
7.5906691551

> <CNNaffinity_variance>
0.1175695285

$$$$



 30 32  0  0  0  0  0  0  0  0999 V2000
   -6.0696    8.0994   15.0555 N   0  0  0  0  0  0  0  0  0  0  0  0
   -4.7320    7.7589   15.0954 C   0  0  0  0  0  0  0  0  0  0  0  0
   -4.6494    6.4062   15.3066 C   0  0  0  0  0  0  0  0  0  0  0  0
   -5.9956    5.9782   15.3997 C   0  0  0  0  0  0  0  0  0  0  0  0
   -6.8493    7.0069   15.2501 N   0  0  0  0  0  0  0  0  0  0  0  0
   -4.9055   10.7060   11.5989 C   0  0  0  0  0  0  0  0  0  0  0  0
   -5.4522   11.9771   11.5436 C   0  0  0  0  0  0  0  0  0  0  0  0
   -6.3761   12.3697   12.5108 C   0  0  0  0  0  0  0  0  0  0  0  0
   -6.7582   11.5101   13.5537 C   0  0  0  0  0  0  0  0  0  0  0  0
   -7.7181   11.9596   14.4685 C   0  0  0  0  0  0  0  0  0  0  0  0
   -8.1436   11.1440   15.5062 C   0  0  0  0  0  0  0  0  0  0  0  0
   -9.3279   11.7216   16.6138 Cl  0  0  0  0  0  0  0  0  0  0  0  0
   -7.6093    9.8728   15.6668 C   0  0  0  0  0  0  0  0  0  0  0  0
   -6.6255    9.3929   14.7778 C   0  0  0  0  0  0  0  0  0  0  0  0
   -6.1942   10.2099   13.6717 C   0  0  0  0  0  0  0  0  0  0  0  0
   -5.2806    9.8459   12.6403 C   0  0  0  0  0  0  0  0  0  0  0  0
   -4.1524   10.5498    9.3484 C   0  0  0  0  0  0  0  0  0  0  0  0
   -4.0081   10.1757   10.7129 O   0  0  0  0  0  0  0  0  0  0  0  0
   -3.5185    5.6160   15.4190 N   0  0  0  0  0  0  0  0  0  0  0  0
   -2.2404    6.0715   15.5876 C   0  0  0  0  0  0  0  0  0  0  0  0
   -1.3399    5.0521   15.6938 N   0  0  0  0  0  0  0  0  0  0  0  0
   -1.8587    7.2326   15.6382 O   0  0  0  0  0  0  0  0  0  0  0  0
   -3.6456    4.6408   15.3736 H   0  0  0  0  0  0  0  0  0  0  0  0
   -1.6471    4.1176   15.6530 H   0  0  0  0  0  0  0  0  0  0  0  0
   -0.3828    5.2509   15.8112 H   0  0  0  0  0  0  0  0  0  0  0  0
   -6.4656    4.6082   15.6316 C   0  0  0  0  0  0  0  0  0  0  0  0
   -6.5759    3.8458   14.5030 N   0  0  0  0  0  0  0  0  0  0  0  0
   -6.7412    4.1685   16.7447 O   0  0  0  0  0  0  0  0  0  0  0  0
   -6.3468    4.2291   13.6256 H   0  0  0  0  0  0  0  0  0  0  0  0
   -6.8846    2.9131   14.5673 H   0  0  0  0  0  0  0  0  0  0  0  0
 17 18  1  0
 18  6  1  0
  6  7  2  0
  7  8  1  0
  8  9  2  0
  9 10  1  0
 10 11  2  0
 11 12  1  0
 11 13  1  0
 13 14  2  0
 14  1  1  0
  1  2  1  0
  2  3  2  0
  3 19  1  0
 19 20  1  0
 20 21  1  0
 20 22  2  0
  3  4  1  0
  4 26  1  0
 26 27  1  0
 26 28  2  0
  4  5  2  0
 14 15  1  0
 15 16  2  0
 16  6  1  0
 15  9  1  0
  5  1  1  0
 19 23  1  0
 21 24  1  0
 21 25  1  0
 27 29  1  0
 27 30  1  0
M  END
> <minimizedAffinity>
-8.78608

> <CNNscore>
0.9117742777

> <CNNaffinity>
7.6995825768

> <CNN_VS>
7.0202813148

> <CNNaffinity_variance>
0.0843043923

$$$$



 30 32  0  0  0  0  0  0  0  0999 V2000
   -5.6074    8.7185   14.2149 N   0  0  0  0  0  0  0  0  0  0  0  0
   -5.6609    9.1822   12.9153 C   0  0  0  0  0  0  0  0  0  0  0  0
   -4.4241    8.9968   12.3523 C   0  0  0  0  0  0  0  0  0  0  0  0
   -3.6473    8.4169   13.3840 C   0  0  0  0  0  0  0  0  0  0  0  0
   -4.3674    8.2540   14.5084 N   0  0  0  0  0  0  0  0  0  0  0  0
   -7.7464   12.2488   15.9640 C   0  0  0  0  0  0  0  0  0  0  0  0
   -8.6913   12.0021   16.9458 C   0  0  0  0  0  0  0  0  0  0  0  0
   -8.9836   10.6866   17.3024 C   0  0  0  0  0  0  0  0  0  0  0  0
   -8.3308    9.5994   16.6987 C   0  0  0  0  0  0  0  0  0  0  0  0
   -8.7014    8.3047   17.0817 C   0  0  0  0  0  0  0  0  0  0  0  0
   -8.1009    7.1963   16.5039 C   0  0  0  0  0  0  0  0  0  0  0  0
   -8.5792    5.6163   16.9915 Cl  0  0  0  0  0  0  0  0  0  0  0  0
   -7.1064    7.3528   15.5480 C   0  0  0  0  0  0  0  0  0  0  0  0
   -6.6918    8.6410   15.1516 C   0  0  0  0  0  0  0  0  0  0  0  0
   -7.3266    9.8066   15.7132 C   0  0  0  0  0  0  0  0  0  0  0  0
   -7.0892   11.1671   15.3615 C   0  0  0  0  0  0  0  0  0  0  0  0
   -7.1579   13.5979   14.0960 C   0  0  0  0  0  0  0  0  0  0  0  0
   -7.3721   13.4789   15.4969 O   0  0  0  0  0  0  0  0  0  0  0  0
   -4.0016    9.3080   11.0714 N   0  0  0  0  0  0  0  0  0  0  0  0
   -4.2606   10.4747   10.4073 C   0  0  0  0  0  0  0  0  0  0  0  0
   -3.6877   10.5011    9.1693 N   0  0  0  0  0  0  0  0  0  0  0  0
   -4.9231   11.4271   10.7950 O   0  0  0  0  0  0  0  0  0  0  0  0
   -3.4680    8.6300   10.5972 H   0  0  0  0  0  0  0  0  0  0  0  0
   -3.1544    9.7345    8.8573 H   0  0  0  0  0  0  0  0  0  0  0  0
   -3.8074   11.2866    8.5881 H   0  0  0  0  0  0  0  0  0  0  0  0
   -2.2360    8.0251   13.3037 C   0  0  0  0  0  0  0  0  0  0  0  0
   -1.3824    9.0380   12.9682 N   0  0  0  0  0  0  0  0  0  0  0  0
   -1.8394    6.8828   13.5183 O   0  0  0  0  0  0  0  0  0  0  0  0
   -1.7332    9.9429   12.8026 H   0  0  0  0  0  0  0  0  0  0  0  0
   -0.4166    8.8629   12.8920 H   0  0  0  0  0  0  0  0  0  0  0  0
 17 18  1  0
 18  6  1  0
  6  7  2  0
  7  8  1  0
  8  9  2  0
  9 10  1  0
 10 11  2  0
 11 12  1  0
 11 13  1  0
 13 14  2  0
 14  1  1  0
  1  2  1  0
  2  3  2  0
  3 19  1  0
 19 20  1  0
 20 21  1  0
 20 22  2  0
  3  4  1  0
  4 26  1  0
 26 27  1  0
 26 28  2  0
  4  5  2  0
 14 15  1  0
 15 16  2  0
 16  6  1  0
 15  9  1  0
  5  1  1  0
 19 23  1  0
 21 24  1  0
 21 25  1  0
 27 29  1  0
 27 30  1  0
M  END
> <minimizedAffinity>
-5.40600

> <CNNscore>
0.7683905363

> <CNNaffinity>
7.2706394196

> <CNN_VS>
5.5866904259

> <CNNaffinity_variance>
0.2256017178

$$$$



 30 32  0  0  0  0  0  0  0  0999 V2000
   -5.8915    8.3846   14.2464 N   0  0  0  0  0  0  0  0  0  0  0  0
   -5.0924    7.2588   14.2697 C   0  0  0  0  0  0  0  0  0  0  0  0
   -5.6624    6.3571   15.1317 C   0  0  0  0  0  0  0  0  0  0  0  0
   -6.8198    7.0121   15.6169 C   0  0  0  0  0  0  0  0  0  0  0  0
   -6.9512    8.2386   15.0802 N   0  0  0  0  0  0  0  0  0  0  0  0
   -7.4433   12.4725   15.2356 C   0  0  0  0  0  0  0  0  0  0  0  0
   -7.2988   13.4609   14.2766 C   0  0  0  0  0  0  0  0  0  0  0  0
   -6.6320   13.1713   13.0872 C   0  0  0  0  0  0  0  0  0  0  0  0
   -6.1126   11.8922   12.8288 C   0  0  0  0  0  0  0  0  0  0  0  0
   -5.4235   11.6841   11.6279 C   0  0  0  0  0  0  0  0  0  0  0  0
   -4.8756   10.4452   11.3316 C   0  0  0  0  0  0  0  0  0  0  0  0
   -4.0303   10.2192    9.8493 Cl  0  0  0  0  0  0  0  0  0  0  0  0
   -5.0184    9.3831   12.2143 C   0  0  0  0  0  0  0  0  0  0  0  0
   -5.7235    9.5486   13.4242 C   0  0  0  0  0  0  0  0  0  0  0  0
   -6.2708   10.8366   13.7685 C   0  0  0  0  0  0  0  0  0  0  0  0
   -6.9302   11.1932   14.9805 C   0  0  0  0  0  0  0  0  0  0  0  0
   -7.6112   11.7538   17.4965 C   0  0  0  0  0  0  0  0  0  0  0  0
   -8.0517   12.6136   16.4528 O   0  0  0  0  0  0  0  0  0  0  0  0
   -5.2204    5.0913   15.4759 N   0  0  0  0  0  0  0  0  0  0  0  0
   -5.7718    3.9124   15.0570 C   0  0  0  0  0  0  0  0  0  0  0  0
   -5.0997    2.8284   15.5413 N   0  0  0  0  0  0  0  0  0  0  0  0
   -6.7528    3.7552   14.3435 O   0  0  0  0  0  0  0  0  0  0  0  0
   -4.4409    5.0350   16.0746 H   0  0  0  0  0  0  0  0  0  0  0  0
   -4.3101    2.9550   16.1156 H   0  0  0  0  0  0  0  0  0  0  0  0
   -5.4042    1.9195   15.3165 H   0  0  0  0  0  0  0  0  0  0  0  0
   -7.7882    6.4804   16.5818 C   0  0  0  0  0  0  0  0  0  0  0  0
   -8.8403    7.3104   16.8484 N   0  0  0  0  0  0  0  0  0  0  0  0
   -7.6752    5.3797   17.1147 O   0  0  0  0  0  0  0  0  0  0  0  0
   -8.9010    8.1867   16.4038 H   0  0  0  0  0  0  0  0  0  0  0  0
   -9.5378    7.0322   17.4851 H   0  0  0  0  0  0  0  0  0  0  0  0
 17 18  1  0
 18  6  1  0
  6  7  2  0
  7  8  1  0
  8  9  2  0
  9 10  1  0
 10 11  2  0
 11 12  1  0
 11 13  1  0
 13 14  2  0
 14  1  1  0
  1  2  1  0
  2  3  2  0
  3 19  1  0
 19 20  1  0
 20 21  1  0
 20 22  2  0
  3  4  1  0
  4 26  1  0
 26 27  1  0
 26 28  2  0
  4  5  2  0
 14 15  1  0
 15 16  2  0
 16  6  1  0
 15  9  1  0
  5  1  1  0
 19 23  1  0
 21 24  1  0
 21 25  1  0
 27 29  1  0
 27 30  1  0
M  END
> <minimizedAffinity>
-7.28177

> <CNNscore>
0.5436331034

> <CNNaffinity>
7.1600608826

> <CNN_VS>
3.8924460411

> <CNNaffinity_variance>
0.0088188015

$$$$



 30 32  0  0  0  0  0  0  0  0999 V2000
   -6.5990    9.1796   14.6557 N   0  0  0  0  0  0  0  0  0  0  0  0
   -7.3723    9.8553   15.5789 C   0  0  0  0  0  0  0  0  0  0  0  0
   -8.0116    8.9220   16.3543 C   0  0  0  0  0  0  0  0  0  0  0  0
   -7.5859    7.6760   15.8342 C   0  0  0  0  0  0  0  0  0  0  0  0
   -6.7343    7.8385   14.8056 N   0  0  0  0  0  0  0  0  0  0  0  0
   -2.4234    7.7467   13.8757 C   0  0  0  0  0  0  0  0  0  0  0  0
   -1.6464    8.4863   13.0001 C   0  0  0  0  0  0  0  0  0  0  0  0
   -2.2005    9.5915   12.3561 C   0  0  0  0  0  0  0  0  0  0  0  0
   -3.5293    9.9850   12.5844 C   0  0  0  0  0  0  0  0  0  0  0  0
   -4.0289   11.0839   11.8752 C   0  0  0  0  0  0  0  0  0  0  0  0
   -5.3393   11.5029   12.0500 C   0  0  0  0  0  0  0  0  0  0  0  0
   -5.9278   12.8547   11.1617 Cl  0  0  0  0  0  0  0  0  0  0  0  0
   -6.1732   10.8500   12.9476 C   0  0  0  0  0  0  0  0  0  0  0  0
   -5.6996    9.7522   13.6953 C   0  0  0  0  0  0  0  0  0  0  0  0
   -4.3522    9.2779   13.5038 C   0  0  0  0  0  0  0  0  0  0  0  0
   -3.7489    8.1379   14.1100 C   0  0  0  0  0  0  0  0  0  0  0  0
   -2.8185    6.2434   15.6758 C   0  0  0  0  0  0  0  0  0  0  0  0
   -2.0257    6.6312   14.5606 O   0  0  0  0  0  0  0  0  0  0  0  0
   -8.8885    9.1254   17.4058 N   0  0  0  0  0  0  0  0  0  0  0  0
   -8.9658   10.2545   18.1731 C   0  0  0  0  0  0  0  0  0  0  0  0
   -9.9480   10.1701   19.1163 N   0  0  0  0  0  0  0  0  0  0  0  0
   -8.2732   11.2600   18.0995 O   0  0  0  0  0  0  0  0  0  0  0  0
   -9.5108    8.3932   17.6199 H   0  0  0  0  0  0  0  0  0  0  0  0
  -10.5054    9.3608   19.1755 H   0  0  0  0  0  0  0  0  0  0  0  0
  -10.0993   10.9186   19.7377 H   0  0  0  0  0  0  0  0  0  0  0  0
   -7.9860    6.3463   16.3067 C   0  0  0  0  0  0  0  0  0  0  0  0
   -7.3608    5.3069   15.6775 N   0  0  0  0  0  0  0  0  0  0  0  0
   -8.8146    6.1668   17.1952 O   0  0  0  0  0  0  0  0  0  0  0  0
   -6.7011    5.4854   14.9689 H   0  0  0  0  0  0  0  0  0  0  0  0
   -7.5700    4.3794   15.9329 H   0  0  0  0  0  0  0  0  0  0  0  0
 17 18  1  0
 18  6  1  0
  6  7  2  0
  7  8  1  0
  8  9  2  0
  9 10  1  0
 10 11  2  0
 11 12  1  0
 11 13  1  0
 13 14  2  0
 14  1  1  0
  1  2  1  0
  2  3  2  0
  3 19  1  0
 19 20  1  0
 20 21  1  0
 20 22  2  0
  3  4  1  0
  4 26  1  0
 26 27  1  0
 26 28  2  0
  4  5  2  0
 14 15  1  0
 15 16  2  0
 16  6  1  0
 15  9  1  0
  5  1  1  0
 19 23  1  0
 21 24  1  0
 21 25  1  0
 27 29  1  0
 27 30  1  0
M  END
> <minimizedAffinity>
-6.72533

> <CNNscore>
0.5096405745

> <CNNaffinity>
7.0794906616

> <CNN_VS>
3.6079957485

> <CNNaffinity_variance>
0.1385548562

$$$$



 30 32  0  0  0  0  0  0  0  0999 V2000
   -5.7353    9.6376   13.9480 N   0  0  0  0  0  0  0  0  0  0  0  0
   -6.3496   10.7094   14.5649 C   0  0  0  0  0  0  0  0  0  0  0  0
   -6.4168   11.7346   13.6563 C   0  0  0  0  0  0  0  0  0  0  0  0
   -5.8046   11.2163   12.4898 C   0  0  0  0  0  0  0  0  0  0  0  0
   -5.3920    9.9492   12.6734 N   0  0  0  0  0  0  0  0  0  0  0  0
   -1.7336    7.8891   14.9615 C   0  0  0  0  0  0  0  0  0  0  0  0
   -1.6983    6.5662   15.3691 C   0  0  0  0  0  0  0  0  0  0  0  0
   -2.8912    5.8586   15.5084 C   0  0  0  0  0  0  0  0  0  0  0  0
   -4.1339    6.4514   15.2309 C   0  0  0  0  0  0  0  0  0  0  0  0
   -5.2927    5.6907   15.4276 C   0  0  0  0  0  0  0  0  0  0  0  0
   -6.5455    6.2338   15.1857 C   0  0  0  0  0  0  0  0  0  0  0  0
   -7.9533    5.2765   15.4398 Cl  0  0  0  0  0  0  0  0  0  0  0  0
   -6.6706    7.5375   14.7249 C   0  0  0  0  0  0  0  0  0  0  0  0
   -5.5255    8.3277   14.4952 C   0  0  0  0  0  0  0  0  0  0  0  0
   -4.2154    7.7955   14.7733 C   0  0  0  0  0  0  0  0  0  0  0  0
   -2.9712    8.4840   14.6794 C   0  0  0  0  0  0  0  0  0  0  0  0
   -0.6080    9.8813   15.6098 C   0  0  0  0  0  0  0  0  0  0  0  0
   -0.6526    8.7121   14.8014 O   0  0  0  0  0  0  0  0  0  0  0  0
   -6.9473   13.0025   13.8207 N   0  0  0  0  0  0  0  0  0  0  0  0
   -7.3573   13.5483   15.0054 C   0  0  0  0  0  0  0  0  0  0  0  0
   -7.8095   14.8267   14.8545 N   0  0  0  0  0  0  0  0  0  0  0  0
   -7.3628   13.0240   16.1105 O   0  0  0  0  0  0  0  0  0  0  0  0
   -7.0373   13.5599   13.0142 H   0  0  0  0  0  0  0  0  0  0  0  0
   -7.8050   15.2487   13.9651 H   0  0  0  0  0  0  0  0  0  0  0  0
   -8.1403   15.3272   15.6351 H   0  0  0  0  0  0  0  0  0  0  0  0
   -5.6107   11.9178   11.2163 C   0  0  0  0  0  0  0  0  0  0  0  0
   -6.0384   13.2156   11.2105 N   0  0  0  0  0  0  0  0  0  0  0  0
   -5.1060   11.3936   10.2269 O   0  0  0  0  0  0  0  0  0  0  0  0
   -6.4388   13.6055   12.0210 H   0  0  0  0  0  0  0  0  0  0  0  0
   -5.9461   13.7607   10.3959 H   0  0  0  0  0  0  0  0  0  0  0  0
 17 18  1  0
 18  6  1  0
  6  7  2  0
  7  8  1  0
  8  9  2  0
  9 10  1  0
 10 11  2  0
 11 12  1  0
 11 13  1  0
 13 14  2  0
 14  1  1  0
  1  2  1  0
  2  3  2  0
  3 19  1  0
 19 20  1  0
 20 21  1  0
 20 22  2  0
  3  4  1  0
  4 26  1  0
 26 27  1  0
 26 28  2  0
  4  5  2  0
 14 15  1  0
 15 16  2  0
 16  6  1  0
 15  9  1  0
  5  1  1  0
 19 23  1  0
 21 24  1  0
 21 25  1  0
 27 29  1  0
 27 30  1  0
M  END
> <minimizedAffinity>
-7.03393

> <CNNscore>
0.4235016406

> <CNNaffinity>
6.6161994934

> <CNN_VS>
2.8019714355

> <CNNaffinity_variance>
0.2384750992

$$$$



 30 32  0  0  0  0  0  0  0  0999 V2000
   -6.7500   10.3760   14.7631 N   0  0  0  0  0  0  0  0  0  0  0  0
   -7.2029    9.1031   15.0483 C   0  0  0  0  0  0  0  0  0  0  0  0
   -7.9247    9.1655   16.2129 C   0  0  0  0  0  0  0  0  0  0  0  0
   -7.8613   10.5264   16.5978 C   0  0  0  0  0  0  0  0  0  0  0  0
   -7.1473   11.2525   15.7189 N   0  0  0  0  0  0  0  0  0  0  0  0
   -2.9818    8.4635   13.2664 C   0  0  0  0  0  0  0  0  0  0  0  0
   -2.3391    9.0663   12.1982 C   0  0  0  0  0  0  0  0  0  0  0  0
   -2.9098   10.1873   11.5974 C   0  0  0  0  0  0  0  0  0  0  0  0
   -4.1189   10.7328   12.0590 C   0  0  0  0  0  0  0  0  0  0  0  0
   -4.6508   11.8380   11.3840 C   0  0  0  0  0  0  0  0  0  0  0  0
   -5.8508   12.4039   11.7876 C   0  0  0  0  0  0  0  0  0  0  0  0
   -6.4830   13.7599   10.9366 Cl  0  0  0  0  0  0  0  0  0  0  0  0
   -6.5362   11.8945   12.8823 C   0  0  0  0  0  0  0  0  0  0  0  0
   -6.0215   10.7952   13.6000 C   0  0  0  0  0  0  0  0  0  0  0  0
   -4.7942   10.1696   13.1768 C   0  0  0  0  0  0  0  0  0  0  0  0
   -4.1867    9.0067   13.7334 C   0  0  0  0  0  0  0  0  0  0  0  0
   -3.2887    6.9812   15.1007 C   0  0  0  0  0  0  0  0  0  0  0  0
   -2.5558    7.3513   13.9396 O   0  0  0  0  0  0  0  0  0  0  0  0
   -8.5694    8.1425   16.8866 N   0  0  0  0  0  0  0  0  0  0  0  0
   -8.3304    6.8060   16.7250 C   0  0  0  0  0  0  0  0  0  0  0  0
   -9.1036    6.0411   17.5489 N   0  0  0  0  0  0  0  0  0  0  0  0
   -7.5456    6.2725   15.9532 O   0  0  0  0  0  0  0  0  0  0  0  0
   -9.2603    8.3998   17.5391 H   0  0  0  0  0  0  0  0  0  0  0  0
   -9.7352    6.4706   18.1700 H   0  0  0  0  0  0  0  0  0  0  0  0
   -9.0298    5.0598   17.5222 H   0  0  0  0  0  0  0  0  0  0  0  0
   -8.4692   11.1295   17.7887 C   0  0  0  0  0  0  0  0  0  0  0  0
   -9.1282   10.2489   18.5993 N   0  0  0  0  0  0  0  0  0  0  0  0
   -8.3993   12.3278   18.0488 O   0  0  0  0  0  0  0  0  0  0  0  0
   -9.1655    9.2942   18.3617 H   0  0  0  0  0  0  0  0  0  0  0  0
   -9.5658   10.5690   19.4211 H   0  0  0  0  0  0  0  0  0  0  0  0
 17 18  1  0
 18  6  1  0
  6  7  2  0
  7  8  1  0
  8  9  2  0
  9 10  1  0
 10 11  2  0
 11 12  1  0
 11 13  1  0
 13 14  2  0
 14  1  1  0
  1  2  1  0
  2  3  2  0
  3 19  1  0
 19 20  1  0
 20 21  1  0
 20 22  2  0
  3  4  1  0
  4 26  1  0
 26 27  1  0
 26 28  2  0
  4  5  2  0
 14 15  1  0
 15 16  2  0
 16  6  1  0
 15  9  1  0
  5  1  1  0
 19 23  1  0
 21 24  1  0
 21 25  1  0
 27 29  1  0
 27 30  1  0
M  END
> <minimizedAffinity>
-5.47549

> <CNNscore>
0.4028869569

> <CNNaffinity>
7.0405292511

> <CNN_VS>
2.8365373611

> <CNNaffinity_variance>
0.0875969231

$$$$
