


 12 12  0  0  0  0  0  0  0  0999 V2000
   35.0828   -1.5422   12.0425 N   0  0  0  0  0  0  0  0  0  0  0  0
   33.7224   -1.0675   11.1690 S   0  0  0  0  0  0  0  0  0  0  0  0
   34.0042    0.2131   10.5663 O   0  0  0  0  0  0  0  0  0  0  0  0
   33.3367   -2.2250   10.3947 O   0  0  0  0  0  0  0  0  0  0  0  0
   35.8565   -1.7134   11.4002 H   0  0  0  0  0  0  0  0  0  0  0  0
   34.8741   -2.3968   12.5588 H   0  0  0  0  0  0  0  0  0  0  0  0
   32.5366   -0.8323   12.4653 C   0  0  0  0  0  0  0  0  0  0  0  0
   32.2694   -1.8851   13.3458 C   0  0  0  0  0  0  0  0  0  0  0  0
   31.3388   -1.7032   14.3683 C   0  0  0  0  0  0  0  0  0  0  0  0
   30.6883   -0.4760   14.5104 C   0  0  0  0  0  0  0  0  0  0  0  0
   30.9688    0.5757   13.6356 C   0  0  0  0  0  0  0  0  0  0  0  0
   31.8983    0.4024   12.6099 C   0  0  0  0  0  0  0  0  0  0  0  0
  1  2  1  0
  2  3  2  0
  2  4  2  0
  2  7  1  0
  7  8  2  0
  8  9  1  0
  9 10  2  0
 10 11  1  0
 11 12  2  0
 12  7  1  0
  1  5  1  0
  1  6  1  0
M  END
> <minimizedAffinity>
-4.88544

> <CNNscore>
0.8857015371

> <CNNaffinity>
3.4990653992

> <CNN_VS>
3.0991275311

> <CNNaffinity_variance>
0.2294129878

$$$$



 12 12  0  0  0  0  0  0  0  0999 V2000
   35.2042   -1.5539   11.9545 N   0  0  0  0  0  0  0  0  0  0  0  0
   33.8304   -1.0913   11.0956 S   0  0  0  0  0  0  0  0  0  0  0  0
   34.0752    0.2150   10.5333 O   0  0  0  0  0  0  0  0  0  0  0  0
   33.4778   -2.2346   10.2853 O   0  0  0  0  0  0  0  0  0  0  0  0
   35.9823   -1.6827   11.3076 H   0  0  0  0  0  0  0  0  0  0  0  0
   35.0203   -2.4298   12.4438 H   0  0  0  0  0  0  0  0  0  0  0  0
   32.6389   -0.9307   12.3980 C   0  0  0  0  0  0  0  0  0  0  0  0
   32.0344    0.3101   12.6215 C   0  0  0  0  0  0  0  0  0  0  0  0
   31.0948    0.4398   13.6437 C   0  0  0  0  0  0  0  0  0  0  0  0
   30.7600   -0.6651   14.4289 C   0  0  0  0  0  0  0  0  0  0  0  0
   31.3579   -1.9047   14.1926 C   0  0  0  0  0  0  0  0  0  0  0  0
   32.2988   -2.0434   13.1721 C   0  0  0  0  0  0  0  0  0  0  0  0
  1  2  1  0
  2  3  2  0
  2  4  2  0
  2  7  1  0
  7  8  2  0
  8  9  1  0
  9 10  2  0
 10 11  1  0
 11 12  2  0
 12  7  1  0
  1  5  1  0
  1  6  1  0
M  END
> <minimizedAffinity>
-4.91355

> <CNNscore>
0.8731188774

> <CNNaffinity>
3.4110805988

> <CNN_VS>
2.9782788754

> <CNNaffinity_variance>
0.2811463177

$$$$



 12 12  0  0  0  0  0  0  0  0999 V2000
   35.3304   -1.2900   11.9356 N   0  0  0  0  0  0  0  0  0  0  0  0
   34.2224   -2.3928   12.5644 S   0  0  0  0  0  0  0  0  0  0  0  0
   33.7485   -3.2168   11.4786 O   0  0  0  0  0  0  0  0  0  0  0  0
   34.8512   -2.9433   13.7431 O   0  0  0  0  0  0  0  0  0  0  0  0
   36.1539   -1.7895   11.5998 H   0  0  0  0  0  0  0  0  0  0  0  0
   35.6058   -0.6317   12.6644 H   0  0  0  0  0  0  0  0  0  0  0  0
   32.9074   -1.3187   13.0731 C   0  0  0  0  0  0  0  0  0  0  0  0
   32.6606   -0.1497   12.3468 C   0  0  0  0  0  0  0  0  0  0  0  0
   31.6254    0.6967   12.7425 C   0  0  0  0  0  0  0  0  0  0  0  0
   30.8416    0.3704   13.8509 C   0  0  0  0  0  0  0  0  0  0  0  0
   31.0849   -0.8049   14.5646 C   0  0  0  0  0  0  0  0  0  0  0  0
   32.1183   -1.6573   14.1757 C   0  0  0  0  0  0  0  0  0  0  0  0
  1  2  1  0
  2  3  2  0
  2  4  2  0
  2  7  1  0
  7  8  2  0
  8  9  1  0
  9 10  2  0
 10 11  1  0
 11 12  2  0
 12  7  1  0
  1  5  1  0
  1  6  1  0
M  END
> <minimizedAffinity>
-4.54285

> <CNNscore>
0.8445382714

> <CNNaffinity>
3.2518775463

> <CNN_VS>
2.7463350296

> <CNNaffinity_variance>
0.3054076731

$$$$



 12 12  0  0  0  0  0  0  0  0999 V2000
   35.7001   -1.6573   12.6131 N   0  0  0  0  0  0  0  0  0  0  0  0
   34.3858   -2.6690   12.9099 S   0  0  0  0  0  0  0  0  0  0  0  0
   34.0770   -3.3691   11.6863 O   0  0  0  0  0  0  0  0  0  0  0  0
   34.6968   -3.3553   14.1429 O   0  0  0  0  0  0  0  0  0  0  0  0
   36.5254   -2.2222   12.4125 H   0  0  0  0  0  0  0  0  0  0  0  0
   35.8757   -1.0783   13.4342 H   0  0  0  0  0  0  0  0  0  0  0  0
   33.0996   -1.4911   13.2259 C   0  0  0  0  0  0  0  0  0  0  0  0
   32.3435   -1.6031   14.3967 C   0  0  0  0  0  0  0  0  0  0  0  0
   31.3322   -0.6769   14.6500 C   0  0  0  0  0  0  0  0  0  0  0  0
   31.0867    0.3549   13.7420 C   0  0  0  0  0  0  0  0  0  0  0  0
   31.8537    0.4689   12.5806 C   0  0  0  0  0  0  0  0  0  0  0  0
   32.8673   -0.4532   12.3194 C   0  0  0  0  0  0  0  0  0  0  0  0
  1  2  1  0
  2  3  2  0
  2  4  2  0
  2  7  1  0
  7  8  2  0
  8  9  1  0
  9 10  2  0
 10 11  1  0
 11 12  2  0
 12  7  1  0
  1  5  1  0
  1  6  1  0
M  END
> <minimizedAffinity>
-4.74849

> <CNNscore>
0.8064314127

> <CNNaffinity>
3.1518993378

> <CNN_VS>
2.5417907238

> <CNNaffinity_variance>
0.3911946714

$$$$



 12 12  0  0  0  0  0  0  0  0999 V2000
   36.1359    0.4091   11.7241 N   0  0  0  0  0  0  0  0  0  0  0  0
   34.9309   -0.4469   10.9152 S   0  0  0  0  0  0  0  0  0  0  0  0
   34.4781    0.3599    9.8076 O   0  0  0  0  0  0  0  0  0  0  0  0
   35.4546   -1.7826   10.7432 O   0  0  0  0  0  0  0  0  0  0  0  0
   36.9487    0.5088   11.1159 H   0  0  0  0  0  0  0  0  0  0  0  0
   36.4033   -0.0963   12.5688 H   0  0  0  0  0  0  0  0  0  0  0  0
   33.6504   -0.4937   12.1398 C   0  0  0  0  0  0  0  0  0  0  0  0
   33.7047   -1.4608   13.1482 C   0  0  0  0  0  0  0  0  0  0  0  0
   32.7003   -1.4994   14.1148 C   0  0  0  0  0  0  0  0  0  0  0  0
   31.6563   -0.5732   14.0744 C   0  0  0  0  0  0  0  0  0  0  0  0
   31.6144    0.3982   13.0721 C   0  0  0  0  0  0  0  0  0  0  0  0
   32.6150    0.4441   12.1012 C   0  0  0  0  0  0  0  0  0  0  0  0
  1  2  1  0
  2  3  2  0
  2  4  2  0
  2  7  1  0
  7  8  2  0
  8  9  1  0
  9 10  2  0
 10 11  1  0
 11 12  2  0
 12  7  1  0
  1  5  1  0
  1  6  1  0
M  END
> <minimizedAffinity>
-3.59750

> <CNNscore>
0.6861330271

> <CNNaffinity>
3.1099555492

> <CNN_VS>
2.1338431835

> <CNNaffinity_variance>
0.3398213685

$$$$



 12 12  0  0  0  0  0  0  0  0999 V2000
   28.2458   -7.7003    7.5348 N   0  0  0  0  0  0  0  0  0  0  0  0
   26.6979   -7.9246    6.9082 S   0  0  0  0  0  0  0  0  0  0  0  0
   26.7288   -9.0828    6.0479 O   0  0  0  0  0  0  0  0  0  0  0  0
   25.8039   -7.8172    8.0384 O   0  0  0  0  0  0  0  0  0  0  0  0
   28.4814   -8.4817    8.1467 H   0  0  0  0  0  0  0  0  0  0  0  0
   28.2743   -6.8308    8.0674 H   0  0  0  0  0  0  0  0  0  0  0  0
   26.5134   -6.4781    5.9006 C   0  0  0  0  0  0  0  0  0  0  0  0
   25.9844   -5.3142    6.4667 C   0  0  0  0  0  0  0  0  0  0  0  0
   25.8398   -4.1734    5.6778 C   0  0  0  0  0  0  0  0  0  0  0  0
   26.2284   -4.1978    4.3370 C   0  0  0  0  0  0  0  0  0  0  0  0
   26.7679   -5.3595    3.7806 C   0  0  0  0  0  0  0  0  0  0  0  0
   26.9160   -6.5051    4.5626 C   0  0  0  0  0  0  0  0  0  0  0  0
  1  2  1  0
  2  3  2  0
  2  4  2  0
  2  7  1  0
  7  8  2  0
  8  9  1  0
  9 10  2  0
 10 11  1  0
 11 12  2  0
 12  7  1  0
  1  5  1  0
  1  6  1  0
M  END
> <minimizedAffinity>
-5.15616

> <CNNscore>
0.6686345339

> <CNNaffinity>
3.1025421619

> <CNN_VS>
2.0744669437

> <CNNaffinity_variance>
0.7121682763

$$$$



 12 12  0  0  0  0  0  0  0  0999 V2000
   27.5400   -4.0337    3.5403 N   0  0  0  0  0  0  0  0  0  0  0  0
   27.5014   -5.7110    3.3852 S   0  0  0  0  0  0  0  0  0  0  0  0
   26.4585   -6.0480    2.4464 O   0  0  0  0  0  0  0  0  0  0  0  0
   28.8766   -6.1140    3.1997 O   0  0  0  0  0  0  0  0  0  0  0  0
   27.8314   -3.6171    2.6560 H   0  0  0  0  0  0  0  0  0  0  0  0
   28.2015   -3.7751    4.2724 H   0  0  0  0  0  0  0  0  0  0  0  0
   26.9809   -6.2023    5.0068 C   0  0  0  0  0  0  0  0  0  0  0  0
   27.5889   -7.3050    5.6144 C   0  0  0  0  0  0  0  0  0  0  0  0
   27.1838   -7.6932    6.8911 C   0  0  0  0  0  0  0  0  0  0  0  0
   26.1843   -6.9785    7.5541 C   0  0  0  0  0  0  0  0  0  0  0  0
   25.5897   -5.8703    6.9470 C   0  0  0  0  0  0  0  0  0  0  0  0
   25.9889   -5.4751    5.6702 C   0  0  0  0  0  0  0  0  0  0  0  0
  1  2  1  0
  2  3  2  0
  2  4  2  0
  2  7  1  0
  7  8  2  0
  8  9  1  0
  9 10  2  0
 10 11  1  0
 11 12  2  0
 12  7  1  0
  1  5  1  0
  1  6  1  0
M  END
> <minimizedAffinity>
-4.11222

> <CNNscore>
0.6666786671

> <CNNaffinity>
3.3929398060

> <CNN_VS>
2.2620005608

> <CNNaffinity_variance>
0.3052645624

$$$$



 12 12  0  0  0  0  0  0  0  0999 V2000
   36.3635   -2.8348   11.8611 N   0  0  0  0  0  0  0  0  0  0  0  0
   35.8979   -3.1289   13.4535 S   0  0  0  0  0  0  0  0  0  0  0  0
   35.8315   -4.5581   13.6418 O   0  0  0  0  0  0  0  0  0  0  0  0
   36.7341   -2.2742   14.2649 O   0  0  0  0  0  0  0  0  0  0  0  0
   37.3170   -3.1680   11.7186 H   0  0  0  0  0  0  0  0  0  0  0  0
   36.3219   -1.8330   11.6741 H   0  0  0  0  0  0  0  0  0  0  0  0
   34.2480   -2.4813   13.4627 C   0  0  0  0  0  0  0  0  0  0  0  0
   33.7997   -1.7698   14.5798 C   0  0  0  0  0  0  0  0  0  0  0  0
   32.5031   -1.2568   14.5899 C   0  0  0  0  0  0  0  0  0  0  0  0
   31.6673   -1.4493   13.4882 C   0  0  0  0  0  0  0  0  0  0  0  0
   32.1250   -2.1499   12.3703 C   0  0  0  0  0  0  0  0  0  0  0  0
   33.4207   -2.6665   12.3518 C   0  0  0  0  0  0  0  0  0  0  0  0
  1  2  1  0
  2  3  2  0
  2  4  2  0
  2  7  1  0
  7  8  2  0
  8  9  1  0
  9 10  2  0
 10 11  1  0
 11 12  2  0
 12  7  1  0
  1  5  1  0
  1  6  1  0
M  END
> <minimizedAffinity>
-4.16910

> <CNNscore>
0.6665899754

> <CNNaffinity>
3.0955810547

> <CNN_VS>
2.0634832382

> <CNNaffinity_variance>
0.4406971037

$$$$



 12 12  0  0  0  0  0  0  0  0999 V2000
   28.5259   -6.1340    6.1480 N   0  0  0  0  0  0  0  0  0  0  0  0
   27.3955   -7.2724    6.6630 S   0  0  0  0  0  0  0  0  0  0  0  0
   26.9778   -6.9139    7.9969 O   0  0  0  0  0  0  0  0  0  0  0  0
   26.4645   -7.4160    5.5672 O   0  0  0  0  0  0  0  0  0  0  0  0
   28.0732   -5.2251    6.0513 H   0  0  0  0  0  0  0  0  0  0  0  0
   28.9104   -6.4199    5.2475 H   0  0  0  0  0  0  0  0  0  0  0  0
   28.3895   -8.7370    6.7575 C   0  0  0  0  0  0  0  0  0  0  0  0
   29.7223   -8.6327    7.1670 C   0  0  0  0  0  0  0  0  0  0  0  0
   30.5068   -9.7829    7.2448 C   0  0  0  0  0  0  0  0  0  0  0  0
   29.9582  -11.0256    6.9220 C   0  0  0  0  0  0  0  0  0  0  0  0
   28.6228  -11.1249    6.5257 C   0  0  0  0  0  0  0  0  0  0  0  0
   27.8309   -9.9793    6.4452 C   0  0  0  0  0  0  0  0  0  0  0  0
  1  2  1  0
  2  3  2  0
  2  4  2  0
  2  7  1  0
  7  8  2  0
  8  9  1  0
  9 10  2  0
 10 11  1  0
 11 12  2  0
 12  7  1  0
  1  5  1  0
  1  6  1  0
M  END
> <minimizedAffinity>
-3.92382

> <CNNscore>
0.6500322223

> <CNNaffinity>
3.0900714397

> <CNN_VS>
2.0086460114

> <CNNaffinity_variance>
0.2673029006

$$$$
