


 14 15  0  0  0  0  0  0  0  0999 V2000
  -14.4212   -0.9401    1.4732 C   0  0  0  0  0  0  0  0  0  0  0  0
  -13.0532   -1.1653    1.6979 C   0  0  0  0  0  0  0  0  0  0  0  0
  -12.6171   -1.2222    3.0048 C   0  0  0  0  0  0  0  0  0  0  0  0
  -13.4794   -1.0722    4.0659 C   0  0  0  0  0  0  0  0  0  0  0  0
  -14.8271   -0.8603    3.8806 C   0  0  0  0  0  0  0  0  0  0  0  0
  -15.2961   -0.7976    2.5668 C   0  0  0  0  0  0  0  0  0  0  0  0
  -16.6133   -0.6212    2.3888 F   0  0  0  0  0  0  0  0  0  0  0  0
  -12.8459   -1.1640    5.2650 O   0  0  0  0  0  0  0  0  0  0  0  0
  -11.4846   -1.3887    4.8406 C   0  0  0  0  0  0  0  0  0  0  0  0
  -11.3344   -1.4260    3.4055 O   0  0  0  0  0  0  0  0  0  0  0  0
  -14.6293   -1.7141   -0.7813 O   0  0  0  0  0  0  0  0  0  0  0  0
  -14.8801   -0.8809    0.0711 C   0  0  0  0  0  0  0  0  0  0  0  0
  -15.5780    0.2253   -0.2234 O   0  0  0  0  0  0  0  0  0  0  0  0
  -15.7615    0.8554    0.4453 H   0  0  0  0  0  0  0  0  0  0  0  0
 11 12  2  0
 12 13  1  0
 12  1  1  0
  1  2  2  0
  2  3  1  0
  3  4  2  0
  4  5  1  0
  5  6  2  0
  6  7  1  0
  4  8  1  0
  8  9  1  0
  9 10  1  0
  6  1  1  0
 10  3  1  0
 13 14  1  0
M  END
> <minimizedAffinity>
-6.89014

> <CNNscore>
0.9025307298

> <CNNaffinity>
3.7676105499

> <CNN_VS>
3.4003841877

> <CNNaffinity_variance>
0.2198739797

$$$$



 14 15  0  0  0  0  0  0  0  0999 V2000
  -15.0077   -0.7377    1.9121 C   0  0  0  0  0  0  0  0  0  0  0  0
  -14.8232   -0.8755    3.2976 C   0  0  0  0  0  0  0  0  0  0  0  0
  -13.5416   -1.0943    3.7570 C   0  0  0  0  0  0  0  0  0  0  0  0
  -12.4665   -1.1715    2.9025 C   0  0  0  0  0  0  0  0  0  0  0  0
  -12.6113   -1.0308    1.5406 C   0  0  0  0  0  0  0  0  0  0  0  0
  -13.8988   -0.8089    1.0477 C   0  0  0  0  0  0  0  0  0  0  0  0
  -14.0334   -0.6422   -0.2758 F   0  0  0  0  0  0  0  0  0  0  0  0
  -11.2971   -1.3897    3.5600 O   0  0  0  0  0  0  0  0  0  0  0  0
  -11.7559   -1.4421    4.9277 C   0  0  0  0  0  0  0  0  0  0  0  0
  -13.1813   -1.2554    5.0577 O   0  0  0  0  0  0  0  0  0  0  0  0
  -16.7219   -0.5099    0.2583 O   0  0  0  0  0  0  0  0  0  0  0  0
  -16.3828   -0.5033    1.4283 C   0  0  0  0  0  0  0  0  0  0  0  0
  -17.2584   -0.2201    2.4033 O   0  0  0  0  0  0  0  0  0  0  0  0
  -16.9796   -0.2198    3.2978 H   0  0  0  0  0  0  0  0  0  0  0  0
 11 12  2  0
 12 13  1  0
 12  1  1  0
  1  2  2  0
  2  3  1  0
  3  4  2  0
  4  5  1  0
  5  6  2  0
  6  7  1  0
  4  8  1  0
  8  9  1  0
  9 10  1  0
  6  1  1  0
 10  3  1  0
 13 14  1  0
M  END
> <minimizedAffinity>
-6.78529

> <CNNscore>
0.7806413770

> <CNNaffinity>
3.3916804790

> <CNN_VS>
2.6476860046

> <CNNaffinity_variance>
0.5236227512

$$$$



 14 15  0  0  0  0  0  0  0  0999 V2000
  -15.0570   -0.5581    0.7265 C   0  0  0  0  0  0  0  0  0  0  0  0
  -15.6315   -0.6448    2.0051 C   0  0  0  0  0  0  0  0  0  0  0  0
  -14.7850   -0.8148    3.0803 C   0  0  0  0  0  0  0  0  0  0  0  0
  -13.4204   -0.8924    2.9257 C   0  0  0  0  0  0  0  0  0  0  0  0
  -12.8246   -0.8010    1.6878 C   0  0  0  0  0  0  0  0  0  0  0  0
  -13.6585   -0.6292    0.5810 C   0  0  0  0  0  0  0  0  0  0  0  0
  -13.0745   -0.5103   -0.6200 F   0  0  0  0  0  0  0  0  0  0  0  0
  -12.7736   -1.0581    4.1097 O   0  0  0  0  0  0  0  0  0  0  0  0
  -13.8854   -1.0768    5.0302 C   0  0  0  0  0  0  0  0  0  0  0  0
  -15.1652   -0.9230    4.3807 O   0  0  0  0  0  0  0  0  0  0  0  0
  -15.9765   -1.0652   -1.4235 O   0  0  0  0  0  0  0  0  0  0  0  0
  -15.9701   -0.3757   -0.4193 C   0  0  0  0  0  0  0  0  0  0  0  0
  -16.7912    0.6768   -0.2946 O   0  0  0  0  0  0  0  0  0  0  0  0
  -16.7723    1.1958    0.4853 H   0  0  0  0  0  0  0  0  0  0  0  0
 11 12  2  0
 12 13  1  0
 12  1  1  0
  1  2  2  0
  2  3  1  0
  3  4  2  0
  4  5  1  0
  5  6  2  0
  6  7  1  0
  4  8  1  0
  8  9  1  0
  9 10  1  0
  6  1  1  0
 10  3  1  0
 13 14  1  0
M  END
> <minimizedAffinity>
-6.18330

> <CNNscore>
0.5199065208

> <CNNaffinity>
3.1376755238

> <CNN_VS>
1.6312979460

> <CNNaffinity_variance>
0.6068234444

$$$$



 14 15  0  0  0  0  0  0  0  0999 V2000
  -13.3812   -8.6657   10.1246 C   0  0  0  0  0  0  0  0  0  0  0  0
  -13.1838  -10.0441   10.3073 C   0  0  0  0  0  0  0  0  0  0  0  0
  -12.9072  -10.4909   11.5821 C   0  0  0  0  0  0  0  0  0  0  0  0
  -12.8297   -9.6307   12.6527 C   0  0  0  0  0  0  0  0  0  0  0  0
  -13.0277   -8.2757   12.5100 C   0  0  0  0  0  0  0  0  0  0  0  0
  -13.3089   -7.7958   11.2291 C   0  0  0  0  0  0  0  0  0  0  0  0
  -13.5311   -6.4801   11.0974 F   0  0  0  0  0  0  0  0  0  0  0  0
  -12.5495  -10.2756   13.8159 O   0  0  0  0  0  0  0  0  0  0  0  0
  -12.4583  -11.6416   13.3582 C   0  0  0  0  0  0  0  0  0  0  0  0
  -12.6844  -11.7831   11.9397 O   0  0  0  0  0  0  0  0  0  0  0  0
  -12.8394   -7.9176    7.9173 O   0  0  0  0  0  0  0  0  0  0  0  0
  -13.6773   -8.1955    8.7567 C   0  0  0  0  0  0  0  0  0  0  0  0
  -14.9858   -8.0403    8.5094 O   0  0  0  0  0  0  0  0  0  0  0  0
  -15.6161   -8.2593    9.1672 H   0  0  0  0  0  0  0  0  0  0  0  0
 11 12  2  0
 12 13  1  0
 12  1  1  0
  1  2  2  0
  2  3  1  0
  3  4  2  0
  4  5  1  0
  5  6  2  0
  6  7  1  0
  4  8  1  0
  8  9  1  0
  9 10  1  0
  6  1  1  0
 10  3  1  0
 13 14  1  0
M  END
> <minimizedAffinity>
-5.31889

> <CNNscore>
0.4343575835

> <CNNaffinity>
2.5834176540

> <CNN_VS>
1.1221270561

> <CNNaffinity_variance>
1.2641042471

$$$$



 14 15  0  0  0  0  0  0  0  0999 V2000
  -21.7326    7.2220    5.6574 C   0  0  0  0  0  0  0  0  0  0  0  0
  -22.8358    7.7333    6.3602 C   0  0  0  0  0  0  0  0  0  0  0  0
  -22.9731    7.3811    7.6863 C   0  0  0  0  0  0  0  0  0  0  0  0
  -22.0661    6.5626    8.3184 C   0  0  0  0  0  0  0  0  0  0  0  0
  -20.9688    6.0527    7.6615 C   0  0  0  0  0  0  0  0  0  0  0  0
  -20.8055    6.3930    6.3170 C   0  0  0  0  0  0  0  0  0  0  0  0
  -19.7203    5.9199    5.6875 F   0  0  0  0  0  0  0  0  0  0  0  0
  -22.3866    6.3432    9.6209 O   0  0  0  0  0  0  0  0  0  0  0  0
  -23.6000    7.1162    9.7398 C   0  0  0  0  0  0  0  0  0  0  0  0
  -23.9766    7.7769    8.5131 O   0  0  0  0  0  0  0  0  0  0  0  0
  -21.2533    8.7049    3.8417 O   0  0  0  0  0  0  0  0  0  0  0  0
  -21.5927    7.6042    4.2381 C   0  0  0  0  0  0  0  0  0  0  0  0
  -21.9286    6.6304    3.3800 O   0  0  0  0  0  0  0  0  0  0  0  0
  -22.1871    5.7897    3.7032 H   0  0  0  0  0  0  0  0  0  0  0  0
 11 12  2  0
 12 13  1  0
 12  1  1  0
  1  2  2  0
  2  3  1  0
  3  4  2  0
  4  5  1  0
  5  6  2  0
  6  7  1  0
  4  8  1  0
  8  9  1  0
  9 10  1  0
  6  1  1  0
 10  3  1  0
 13 14  1  0
M  END
> <minimizedAffinity>
-5.21922

> <CNNscore>
0.3479324877

> <CNNaffinity>
2.9034817219

> <CNN_VS>
1.0102156401

> <CNNaffinity_variance>
0.6280545592

$$$$



 14 15  0  0  0  0  0  0  0  0999 V2000
  -20.0817    7.6833    5.2365 C   0  0  0  0  0  0  0  0  0  0  0  0
  -19.4723    6.9406    6.2610 C   0  0  0  0  0  0  0  0  0  0  0  0
  -18.2608    7.3867    6.7455 C   0  0  0  0  0  0  0  0  0  0  0  0
  -17.6573    8.5228    6.2585 C   0  0  0  0  0  0  0  0  0  0  0  0
  -18.2324    9.2790    5.2620 C   0  0  0  0  0  0  0  0  0  0  0  0
  -19.4596    8.8497    4.7524 C   0  0  0  0  0  0  0  0  0  0  0  0
  -20.0322    9.6040    3.8033 F   0  0  0  0  0  0  0  0  0  0  0  0
  -16.4737    8.7845    6.8734 O   0  0  0  0  0  0  0  0  0  0  0  0
  -16.3979    7.6839    7.8043 C   0  0  0  0  0  0  0  0  0  0  0  0
  -17.5309    6.7930    7.7263 O   0  0  0  0  0  0  0  0  0  0  0  0
  -22.4064    7.1340    5.3743 O   0  0  0  0  0  0  0  0  0  0  0  0
  -21.3788    7.1992    4.7236 C   0  0  0  0  0  0  0  0  0  0  0  0
  -21.3325    6.7705    3.4541 O   0  0  0  0  0  0  0  0  0  0  0  0
  -20.5330    6.8286    2.9688 H   0  0  0  0  0  0  0  0  0  0  0  0
 11 12  2  0
 12 13  1  0
 12  1  1  0
  1  2  2  0
  2  3  1  0
  3  4  2  0
  4  5  1  0
  5  6  2  0
  6  7  1  0
  4  8  1  0
  8  9  1  0
  9 10  1  0
  6  1  1  0
 10  3  1  0
 13 14  1  0
M  END
> <minimizedAffinity>
-4.82278

> <CNNscore>
0.3343420029

> <CNNaffinity>
2.7982652187

> <CNN_VS>
0.9355775714

> <CNNaffinity_variance>
0.5055033565

$$$$



 14 15  0  0  0  0  0  0  0  0999 V2000
  -19.9890    7.1406    5.5760 C   0  0  0  0  0  0  0  0  0  0  0  0
  -19.2107    8.2980    5.4114 C   0  0  0  0  0  0  0  0  0  0  0  0
  -17.9989    8.3567    6.0668 C   0  0  0  0  0  0  0  0  0  0  0  0
  -17.5480    7.3233    6.8545 C   0  0  0  0  0  0  0  0  0  0  0  0
  -18.2814    6.1711    7.0289 C   0  0  0  0  0  0  0  0  0  0  0  0
  -19.5133    6.0851    6.3769 C   0  0  0  0  0  0  0  0  0  0  0  0
  -20.2120    4.9503    6.5238 F   0  0  0  0  0  0  0  0  0  0  0  0
  -16.3330    7.5840    7.4053 O   0  0  0  0  0  0  0  0  0  0  0  0
  -16.0677    8.9005    6.8760 C   0  0  0  0  0  0  0  0  0  0  0  0
  -17.1235    9.3957    6.0255 O   0  0  0  0  0  0  0  0  0  0  0  0
  -22.3743    7.2104    5.4010 O   0  0  0  0  0  0  0  0  0  0  0  0
  -21.2849    7.0855    4.8706 C   0  0  0  0  0  0  0  0  0  0  0  0
  -21.1766    6.8264    3.5596 O   0  0  0  0  0  0  0  0  0  0  0  0
  -20.3301    6.7335    3.1688 H   0  0  0  0  0  0  0  0  0  0  0  0
 11 12  2  0
 12 13  1  0
 12  1  1  0
  1  2  2  0
  2  3  1  0
  3  4  2  0
  4  5  1  0
  5  6  2  0
  6  7  1  0
  4  8  1  0
  8  9  1  0
  9 10  1  0
  6  1  1  0
 10  3  1  0
 13 14  1  0
M  END
> <minimizedAffinity>
-4.92135

> <CNNscore>
0.3285467625

> <CNNaffinity>
2.6238443851

> <CNN_VS>
0.8620555997

> <CNNaffinity_variance>
0.8773717880

$$$$



 14 15  0  0  0  0  0  0  0  0999 V2000
  -22.2072    6.5044    8.0100 C   0  0  0  0  0  0  0  0  0  0  0  0
  -20.9706    6.2389    7.3992 C   0  0  0  0  0  0  0  0  0  0  0  0
  -20.6876    6.8831    6.2133 C   0  0  0  0  0  0  0  0  0  0  0  0
  -21.5717    7.7646    5.6362 C   0  0  0  0  0  0  0  0  0  0  0  0
  -22.7875    8.0547    6.2136 C   0  0  0  0  0  0  0  0  0  0  0  0
  -23.1003    7.4157    7.4152 C   0  0  0  0  0  0  0  0  0  0  0  0
  -24.2716    7.7223    7.9912 F   0  0  0  0  0  0  0  0  0  0  0  0
  -21.0973    8.2882    4.4750 O   0  0  0  0  0  0  0  0  0  0  0  0
  -19.8125    7.6366    4.3840 C   0  0  0  0  0  0  0  0  0  0  0  0
  -19.5480    6.7427    5.4859 O   0  0  0  0  0  0  0  0  0  0  0  0
  -23.0053    6.3321   10.2591 O   0  0  0  0  0  0  0  0  0  0  0  0
  -22.5024    5.8110    9.2796 C   0  0  0  0  0  0  0  0  0  0  0  0
  -22.1153    4.5276    9.2977 O   0  0  0  0  0  0  0  0  0  0  0  0
  -21.7302    4.1435    8.5347 H   0  0  0  0  0  0  0  0  0  0  0  0
 11 12  2  0
 12 13  1  0
 12  1  1  0
  1  2  2  0
  2  3  1  0
  3  4  2  0
  4  5  1  0
  5  6  2  0
  6  7  1  0
  4  8  1  0
  8  9  1  0
  9 10  1  0
  6  1  1  0
 10  3  1  0
 13 14  1  0
M  END
> <minimizedAffinity>
-4.65760

> <CNNscore>
0.3152703941

> <CNNaffinity>
2.7961540222

> <CNN_VS>
0.8815445900

> <CNNaffinity_variance>
0.6103892326

$$$$



 14 15  0  0  0  0  0  0  0  0999 V2000
  -18.0082   -0.6943    0.5420 C   0  0  0  0  0  0  0  0  0  0  0  0
  -17.4044   -0.7878    1.8066 C   0  0  0  0  0  0  0  0  0  0  0  0
  -16.0294   -0.7059    1.8704 C   0  0  0  0  0  0  0  0  0  0  0  0
  -15.2587   -0.5319    0.7444 C   0  0  0  0  0  0  0  0  0  0  0  0
  -15.8193   -0.4265   -0.5087 C   0  0  0  0  0  0  0  0  0  0  0  0
  -17.2103   -0.5067   -0.6025 C   0  0  0  0  0  0  0  0  0  0  0  0
  -17.7560   -0.3738   -1.8200 F   0  0  0  0  0  0  0  0  0  0  0  0
  -13.9309   -0.4755    1.0293 O   0  0  0  0  0  0  0  0  0  0  0  0
  -13.9503   -0.6342    2.4640 C   0  0  0  0  0  0  0  0  0  0  0  0
  -15.2812   -0.7813    3.0027 O   0  0  0  0  0  0  0  0  0  0  0  0
  -20.1311   -1.7811    0.7348 O   0  0  0  0  0  0  0  0  0  0  0  0
  -19.4808   -0.7826    0.4824 C   0  0  0  0  0  0  0  0  0  0  0  0
  -20.0738    0.3448    0.0641 O   0  0  0  0  0  0  0  0  0  0  0  0
  -19.5573    1.1033   -0.1254 H   0  0  0  0  0  0  0  0  0  0  0  0
 11 12  2  0
 12 13  1  0
 12  1  1  0
  1  2  2  0
  2  3  1  0
  3  4  2  0
  4  5  1  0
  5  6  2  0
  6  7  1  0
  4  8  1  0
  8  9  1  0
  9 10  1  0
  6  1  1  0
 10  3  1  0
 13 14  1  0
M  END
> <minimizedAffinity>
-6.38238

> <CNNscore>
0.2784269154

> <CNNaffinity>
2.8747036457

> <CNN_VS>
0.8003948927

> <CNNaffinity_variance>
0.8378617764

$$$$
