


 30 32  0  0  0  0  0  0  0  0999 V2000
   -5.0569    8.4501   13.7151 N   0  0  0  0  0  0  0  0  0  0  0  0
   -3.8748    7.9229   14.1788 C   0  0  0  0  0  0  0  0  0  0  0  0
   -4.1818    6.8303   14.9494 C   0  0  0  0  0  0  0  0  0  0  0  0
   -5.5924    6.7147   14.8620 C   0  0  0  0  0  0  0  0  0  0  0  0
   -6.1174    7.6691   14.0698 N   0  0  0  0  0  0  0  0  0  0  0  0
   -7.3828   12.1067   14.8400 C   0  0  0  0  0  0  0  0  0  0  0  0
   -7.2990   13.1979   13.9896 C   0  0  0  0  0  0  0  0  0  0  0  0
   -6.6013   13.0822   12.7878 C   0  0  0  0  0  0  0  0  0  0  0  0
   -5.9588   11.8873   12.4272 C   0  0  0  0  0  0  0  0  0  0  0  0
   -5.3328   11.8095   11.1770 C   0  0  0  0  0  0  0  0  0  0  0  0
   -4.7281   10.6334   10.7668 C   0  0  0  0  0  0  0  0  0  0  0  0
   -4.1542   10.5736    9.5583 F   0  0  0  0  0  0  0  0  0  0  0  0
   -4.6898    9.5277   11.5963 C   0  0  0  0  0  0  0  0  0  0  0  0
   -5.2602    9.5915   12.8819 C   0  0  0  0  0  0  0  0  0  0  0  0
   -5.9646   10.7675   13.3039 C   0  0  0  0  0  0  0  0  0  0  0  0
   -6.7350   10.9141   14.4906 C   0  0  0  0  0  0  0  0  0  0  0  0
   -8.4601   10.7751   16.4905 C   0  0  0  0  0  0  0  0  0  0  0  0
   -8.0669   12.0592   16.0230 O   0  0  0  0  0  0  0  0  0  0  0  0
   -3.3268    5.9951   15.6478 N   0  0  0  0  0  0  0  0  0  0  0  0
   -1.9694    6.1327   15.7359 C   0  0  0  0  0  0  0  0  0  0  0  0
   -1.4043    5.1712   16.5221 N   0  0  0  0  0  0  0  0  0  0  0  0
   -1.2641    6.9773   15.2023 O   0  0  0  0  0  0  0  0  0  0  0  0
   -3.7322    5.2343   16.1233 H   0  0  0  0  0  0  0  0  0  0  0  0
   -1.9714    4.4909   16.9520 H   0  0  0  0  0  0  0  0  0  0  0  0
   -0.4295    5.1578   16.6595 H   0  0  0  0  0  0  0  0  0  0  0  0
   -6.4264    5.6944   15.5068 C   0  0  0  0  0  0  0  0  0  0  0  0
   -7.7691    5.8448   15.3032 N   0  0  0  0  0  0  0  0  0  0  0  0
   -5.9693    4.7749   16.1803 O   0  0  0  0  0  0  0  0  0  0  0  0
   -8.1035    6.5931   14.7579 H   0  0  0  0  0  0  0  0  0  0  0  0
   -8.4021    5.2048   15.7019 H   0  0  0  0  0  0  0  0  0  0  0  0
 17 18  1  0
 18  6  1  0
  6  7  2  0
  7  8  1  0
  8  9  2  0
  9 10  1  0
 10 11  2  0
 11 12  1  0
 11 13  1  0
 13 14  2  0
 14  1  1  0
  1  2  1  0
  2  3  2  0
  3 19  1  0
 19 20  1  0
 20 21  1  0
 20 22  2  0
  3  4  1  0
  4 26  1  0
 26 27  1  0
 26 28  2  0
  4  5  2  0
 14 15  1  0
 15 16  2  0
 16  6  1  0
 15  9  1  0
  5  1  1  0
 19 23  1  0
 21 24  1  0
 21 25  1  0
 27 29  1  0
 27 30  1  0
M  END
> <minimizedAffinity>
-11.11808

> <CNNscore>
0.9666849971

> <CNNaffinity>
7.7536144257

> <CNN_VS>
7.4953026772

> <CNNaffinity_variance>
0.0076232064

$$$$



 30 32  0  0  0  0  0  0  0  0999 V2000
   -4.6386    8.5938   13.6371 N   0  0  0  0  0  0  0  0  0  0  0  0
   -5.4560    7.6426   14.2006 C   0  0  0  0  0  0  0  0  0  0  0  0
   -4.6585    6.7695   14.8960 C   0  0  0  0  0  0  0  0  0  0  0  0
   -3.3479    7.2930   14.7578 C   0  0  0  0  0  0  0  0  0  0  0  0
   -3.3445    8.4299   14.0356 N   0  0  0  0  0  0  0  0  0  0  0  0
   -7.2980   11.9779   14.8704 C   0  0  0  0  0  0  0  0  0  0  0  0
   -7.3655   13.0725   14.0228 C   0  0  0  0  0  0  0  0  0  0  0  0
   -6.7072   13.0336   12.7942 C   0  0  0  0  0  0  0  0  0  0  0  0
   -5.9547   11.9150   12.4028 C   0  0  0  0  0  0  0  0  0  0  0  0
   -5.3737   11.9061   11.1287 C   0  0  0  0  0  0  0  0  0  0  0  0
   -4.6627   10.8022   10.6893 C   0  0  0  0  0  0  0  0  0  0  0  0
   -4.1337   10.8054    9.4590 F   0  0  0  0  0  0  0  0  0  0  0  0
   -4.4731    9.7063   11.5111 C   0  0  0  0  0  0  0  0  0  0  0  0
   -4.9961    9.7073   12.8183 C   0  0  0  0  0  0  0  0  0  0  0  0
   -5.8057   10.8004   13.2734 C   0  0  0  0  0  0  0  0  0  0  0  0
   -6.5400   10.8623   14.4899 C   0  0  0  0  0  0  0  0  0  0  0  0
   -8.0833   10.5406   16.5953 C   0  0  0  0  0  0  0  0  0  0  0  0
   -7.9259   11.8561   16.0790 O   0  0  0  0  0  0  0  0  0  0  0  0
   -5.0248    5.6371   15.6030 N   0  0  0  0  0  0  0  0  0  0  0  0
   -6.1300    4.8683   15.3650 C   0  0  0  0  0  0  0  0  0  0  0  0
   -6.2049    3.7990   16.2094 N   0  0  0  0  0  0  0  0  0  0  0  0
   -7.0020    5.0462   14.5264 O   0  0  0  0  0  0  0  0  0  0  0  0
   -4.4372    5.3608   16.3431 H   0  0  0  0  0  0  0  0  0  0  0  0
   -5.5032    3.6550   16.8848 H   0  0  0  0  0  0  0  0  0  0  0  0
   -6.9606    3.1714   16.1432 H   0  0  0  0  0  0  0  0  0  0  0  0
   -2.1182    6.7292   15.3255 C   0  0  0  0  0  0  0  0  0  0  0  0
   -2.2597    5.4815   15.8640 N   0  0  0  0  0  0  0  0  0  0  0  0
   -1.0417    7.3201   15.3264 O   0  0  0  0  0  0  0  0  0  0  0  0
   -3.1368    5.0347   15.8473 H   0  0  0  0  0  0  0  0  0  0  0  0
   -1.4845    5.0292   16.2687 H   0  0  0  0  0  0  0  0  0  0  0  0
 17 18  1  0
 18  6  1  0
  6  7  2  0
  7  8  1  0
  8  9  2  0
  9 10  1  0
 10 11  2  0
 11 12  1  0
 11 13  1  0
 13 14  2  0
 14  1  1  0
  1  2  1  0
  2  3  2  0
  3 19  1  0
 19 20  1  0
 20 21  1  0
 20 22  2  0
  3  4  1  0
  4 26  1  0
 26 27  1  0
 26 28  2  0
  4  5  2  0
 14 15  1  0
 15 16  2  0
 16  6  1  0
 15  9  1  0
  5  1  1  0
 19 23  1  0
 21 24  1  0
 21 25  1  0
 27 29  1  0
 27 30  1  0
M  END
> <minimizedAffinity>
-10.67330

> <CNNscore>
0.9615817666

> <CNNaffinity>
7.7409286499

> <CNN_VS>
7.4435358047

> <CNNaffinity_variance>
0.1220400929

$$$$



 30 32  0  0  0  0  0  0  0  0999 V2000
   -5.6395    8.5731   14.6839 N   0  0  0  0  0  0  0  0  0  0  0  0
   -6.2384    7.3688   14.9696 C   0  0  0  0  0  0  0  0  0  0  0  0
   -5.2502    6.4197   15.0374 C   0  0  0  0  0  0  0  0  0  0  0  0
   -4.0459    7.1408   14.8362 C   0  0  0  0  0  0  0  0  0  0  0  0
   -4.2805    8.4571   14.6729 N   0  0  0  0  0  0  0  0  0  0  0  0
   -4.7960   11.4073   11.3222 C   0  0  0  0  0  0  0  0  0  0  0  0
   -5.6280   12.5089   11.1978 C   0  0  0  0  0  0  0  0  0  0  0  0
   -6.6028   12.7483   12.1658 C   0  0  0  0  0  0  0  0  0  0  0  0
   -6.7778   11.8828   13.2571 C   0  0  0  0  0  0  0  0  0  0  0  0
   -7.7262   12.2126   14.2332 C   0  0  0  0  0  0  0  0  0  0  0  0
   -7.8957   11.4080   15.3473 C   0  0  0  0  0  0  0  0  0  0  0  0
   -8.7928   11.7532   16.2798 F   0  0  0  0  0  0  0  0  0  0  0  0
   -7.1672   10.2424   15.4990 C   0  0  0  0  0  0  0  0  0  0  0  0
   -6.2464    9.8532   14.5076 C   0  0  0  0  0  0  0  0  0  0  0  0
   -5.9894   10.7060   13.3833 C   0  0  0  0  0  0  0  0  0  0  0  0
   -4.9723   10.5340   12.4039 C   0  0  0  0  0  0  0  0  0  0  0  0
   -4.1118   10.3412    9.3091 C   0  0  0  0  0  0  0  0  0  0  0  0
   -3.7721   11.0731   10.4798 O   0  0  0  0  0  0  0  0  0  0  0  0
   -5.3693    5.0606   15.2717 N   0  0  0  0  0  0  0  0  0  0  0  0
   -6.3005    4.4664   16.0774 C   0  0  0  0  0  0  0  0  0  0  0  0
   -6.1844    3.1069   16.0826 N   0  0  0  0  0  0  0  0  0  0  0  0
   -7.1630    5.0081   16.7541 O   0  0  0  0  0  0  0  0  0  0  0  0
   -4.7263    4.4692   14.8178 H   0  0  0  0  0  0  0  0  0  0  0  0
   -5.4903    2.6700   15.5380 H   0  0  0  0  0  0  0  0  0  0  0  0
   -6.7948    2.5628   16.6309 H   0  0  0  0  0  0  0  0  0  0  0  0
   -2.6880    6.5859   14.8223 C   0  0  0  0  0  0  0  0  0  0  0  0
   -2.3662    5.8409   15.9216 N   0  0  0  0  0  0  0  0  0  0  0  0
   -1.8924    6.7695   13.9051 O   0  0  0  0  0  0  0  0  0  0  0  0
   -3.0270    5.7127   16.6400 H   0  0  0  0  0  0  0  0  0  0  0  0
   -1.4735    5.4324   15.9953 H   0  0  0  0  0  0  0  0  0  0  0  0
 17 18  1  0
 18  6  1  0
  6  7  2  0
  7  8  1  0
  8  9  2  0
  9 10  1  0
 10 11  2  0
 11 12  1  0
 11 13  1  0
 13 14  2  0
 14  1  1  0
  1  2  1  0
  2  3  2  0
  3 19  1  0
 19 20  1  0
 20 21  1  0
 20 22  2  0
  3  4  1  0
  4 26  1  0
 26 27  1  0
 26 28  2  0
  4  5  2  0
 14 15  1  0
 15 16  2  0
 16  6  1  0
 15  9  1  0
  5  1  1  0
 19 23  1  0
 21 24  1  0
 21 25  1  0
 27 29  1  0
 27 30  1  0
M  END
> <minimizedAffinity>
-9.99487

> <CNNscore>
0.9608612657

> <CNNaffinity>
7.8116436005

> <CNN_VS>
7.5059056282

> <CNNaffinity_variance>
0.1159990430

$$$$



 30 32  0  0  0  0  0  0  0  0999 V2000
   -5.9151    8.5944   14.8843 N   0  0  0  0  0  0  0  0  0  0  0  0
   -4.6295    8.1071   14.8763 C   0  0  0  0  0  0  0  0  0  0  0  0
   -4.6896    6.7726   15.1880 C   0  0  0  0  0  0  0  0  0  0  0  0
   -6.0743    6.4969   15.3189 C   0  0  0  0  0  0  0  0  0  0  0  0
   -6.8201    7.5935   15.0832 N   0  0  0  0  0  0  0  0  0  0  0  0
   -4.7962   11.0822   11.3339 C   0  0  0  0  0  0  0  0  0  0  0  0
   -5.4932   12.2649   11.1435 C   0  0  0  0  0  0  0  0  0  0  0  0
   -6.4166   12.6818   12.1016 C   0  0  0  0  0  0  0  0  0  0  0  0
   -6.6753   11.9166   13.2498 C   0  0  0  0  0  0  0  0  0  0  0  0
   -7.5616   12.4204   14.2098 C   0  0  0  0  0  0  0  0  0  0  0  0
   -7.8071   11.7162   15.3764 C   0  0  0  0  0  0  0  0  0  0  0  0
   -8.6413   12.2263   16.2915 F   0  0  0  0  0  0  0  0  0  0  0  0
   -7.2199   10.4842   15.5992 C   0  0  0  0  0  0  0  0  0  0  0  0
   -6.3684    9.9238   14.6282 C   0  0  0  0  0  0  0  0  0  0  0  0
   -6.0304   10.6645   13.4473 C   0  0  0  0  0  0  0  0  0  0  0  0
   -5.0572   10.3086   12.4729 C   0  0  0  0  0  0  0  0  0  0  0  0
   -4.2024   10.3383    9.1541 C   0  0  0  0  0  0  0  0  0  0  0  0
   -3.8333   10.5736   10.5070 O   0  0  0  0  0  0  0  0  0  0  0  0
   -3.6510    5.8680   15.3271 N   0  0  0  0  0  0  0  0  0  0  0  0
   -2.3379    6.1842   15.5394 C   0  0  0  0  0  0  0  0  0  0  0  0
   -1.5549    5.0739   15.6659 N   0  0  0  0  0  0  0  0  0  0  0  0
   -1.8358    7.2969   15.6121 O   0  0  0  0  0  0  0  0  0  0  0  0
   -3.8781    4.9118   15.2680 H   0  0  0  0  0  0  0  0  0  0  0  0
   -1.9583    4.1778   15.6075 H   0  0  0  0  0  0  0  0  0  0  0  0
   -0.5865    5.1690   15.8157 H   0  0  0  0  0  0  0  0  0  0  0  0
   -6.6797    5.2002   15.6419 C   0  0  0  0  0  0  0  0  0  0  0  0
   -6.8534    4.3703   14.5705 N   0  0  0  0  0  0  0  0  0  0  0  0
   -7.0110    4.8737   16.7784 O   0  0  0  0  0  0  0  0  0  0  0  0
   -6.5770    4.6622   13.6718 H   0  0  0  0  0  0  0  0  0  0  0  0
   -7.2551    3.4804   14.6972 H   0  0  0  0  0  0  0  0  0  0  0  0
 17 18  1  0
 18  6  1  0
  6  7  2  0
  7  8  1  0
  8  9  2  0
  9 10  1  0
 10 11  2  0
 11 12  1  0
 11 13  1  0
 13 14  2  0
 14  1  1  0
  1  2  1  0
  2  3  2  0
  3 19  1  0
 19 20  1  0
 20 21  1  0
 20 22  2  0
  3  4  1  0
  4 26  1  0
 26 27  1  0
 26 28  2  0
  4  5  2  0
 14 15  1  0
 15 16  2  0
 16  6  1  0
 15  9  1  0
  5  1  1  0
 19 23  1  0
 21 24  1  0
 21 25  1  0
 27 29  1  0
 27 30  1  0
M  END
> <minimizedAffinity>
-9.33673

> <CNNscore>
0.9407179952

> <CNNaffinity>
7.6718850136

> <CNN_VS>
7.2170801163

> <CNNaffinity_variance>
0.0521186627

$$$$



 30 32  0  0  0  0  0  0  0  0999 V2000
   -5.3523    8.9934   14.0312 N   0  0  0  0  0  0  0  0  0  0  0  0
   -6.0771    7.9249   14.5037 C   0  0  0  0  0  0  0  0  0  0  0  0
   -5.1903    6.9223   14.8041 C   0  0  0  0  0  0  0  0  0  0  0  0
   -3.9142    7.4810   14.5393 C   0  0  0  0  0  0  0  0  0  0  0  0
   -4.0118    8.7568   14.1188 N   0  0  0  0  0  0  0  0  0  0  0  0
   -7.5398   11.9849   16.5433 C   0  0  0  0  0  0  0  0  0  0  0  0
   -7.7345   13.2460   16.0021 C   0  0  0  0  0  0  0  0  0  0  0  0
   -7.3509   13.4967   14.6851 C   0  0  0  0  0  0  0  0  0  0  0  0
   -6.7480   12.5034   13.8973 C   0  0  0  0  0  0  0  0  0  0  0  0
   -6.4480   12.7934   12.5605 C   0  0  0  0  0  0  0  0  0  0  0  0
   -5.8951   11.8254   11.7393 C   0  0  0  0  0  0  0  0  0  0  0  0
   -5.6362   12.1168   10.4581 F   0  0  0  0  0  0  0  0  0  0  0  0
   -5.5866   10.5698   12.2297 C   0  0  0  0  0  0  0  0  0  0  0  0
   -5.8233   10.2647   13.5836 C   0  0  0  0  0  0  0  0  0  0  0  0
   -6.4697   11.2180   14.4384 C   0  0  0  0  0  0  0  0  0  0  0  0
   -6.9292   10.9921   15.7654 C   0  0  0  0  0  0  0  0  0  0  0  0
   -8.8010   10.4821   17.8882 C   0  0  0  0  0  0  0  0  0  0  0  0
   -7.9052   11.5827   17.7981 O   0  0  0  0  0  0  0  0  0  0  0  0
   -5.4512    5.6497   15.2824 N   0  0  0  0  0  0  0  0  0  0  0  0
   -6.6238    5.2329   15.8485 C   0  0  0  0  0  0  0  0  0  0  0  0
   -6.5884    3.9132   16.1938 N   0  0  0  0  0  0  0  0  0  0  0  0
   -7.6293    5.8940   16.0661 O   0  0  0  0  0  0  0  0  0  0  0  0
   -4.7281    4.9857   15.2084 H   0  0  0  0  0  0  0  0  0  0  0  0
   -5.7793    3.3802   16.0189 H   0  0  0  0  0  0  0  0  0  0  0  0
   -7.3718    3.4941   16.6177 H   0  0  0  0  0  0  0  0  0  0  0  0
   -2.6178    6.8149   14.7066 C   0  0  0  0  0  0  0  0  0  0  0  0
   -2.4323    6.2283   15.9265 N   0  0  0  0  0  0  0  0  0  0  0  0
   -1.7576    6.7812   13.8308 O   0  0  0  0  0  0  0  0  0  0  0  0
   -3.1420    6.2733   16.6073 H   0  0  0  0  0  0  0  0  0  0  0  0
   -1.5890    5.7605   16.1247 H   0  0  0  0  0  0  0  0  0  0  0  0
 17 18  1  0
 18  6  1  0
  6  7  2  0
  7  8  1  0
  8  9  2  0
  9 10  1  0
 10 11  2  0
 11 12  1  0
 11 13  1  0
 13 14  2  0
 14  1  1  0
  1  2  1  0
  2  3  2  0
  3 19  1  0
 19 20  1  0
 20 21  1  0
 20 22  2  0
  3  4  1  0
  4 26  1  0
 26 27  1  0
 26 28  2  0
  4  5  2  0
 14 15  1  0
 15 16  2  0
 16  6  1  0
 15  9  1  0
  5  1  1  0
 19 23  1  0
 21 24  1  0
 21 25  1  0
 27 29  1  0
 27 30  1  0
M  END
> <minimizedAffinity>
-10.00939

> <CNNscore>
0.9190059304

> <CNNaffinity>
7.4569935799

> <CNN_VS>
6.8530211449

> <CNNaffinity_variance>
0.0456130095

$$$$



 30 32  0  0  0  0  0  0  0  0999 V2000
   -5.8228   10.4933   14.1721 N   0  0  0  0  0  0  0  0  0  0  0  0
   -5.7089   10.7250   12.8217 C   0  0  0  0  0  0  0  0  0  0  0  0
   -4.6656    9.9652   12.3568 C   0  0  0  0  0  0  0  0  0  0  0  0
   -4.2189    9.2383   13.4894 C   0  0  0  0  0  0  0  0  0  0  0  0
   -4.9565    9.5221   14.5801 N   0  0  0  0  0  0  0  0  0  0  0  0
   -8.4569    8.1623   16.9423 C   0  0  0  0  0  0  0  0  0  0  0  0
   -9.1401    8.8737   17.9160 C   0  0  0  0  0  0  0  0  0  0  0  0
   -9.0717   10.2665   17.9264 C   0  0  0  0  0  0  0  0  0  0  0  0
   -8.3048   10.9681   16.9829 C   0  0  0  0  0  0  0  0  0  0  0  0
   -8.3303   12.3681   17.0007 C   0  0  0  0  0  0  0  0  0  0  0  0
   -7.6235   13.0951   16.0579 C   0  0  0  0  0  0  0  0  0  0  0  0
   -7.6791   14.4329   16.0791 F   0  0  0  0  0  0  0  0  0  0  0  0
   -6.8441   12.4591   15.1089 C   0  0  0  0  0  0  0  0  0  0  0  0
   -6.7520   11.0543   15.0996 C   0  0  0  0  0  0  0  0  0  0  0  0
   -7.5358   10.2712   16.0106 C   0  0  0  0  0  0  0  0  0  0  0  0
   -7.6813    8.8563   16.0038 C   0  0  0  0  0  0  0  0  0  0  0  0
   -7.4150    6.2367   16.0124 C   0  0  0  0  0  0  0  0  0  0  0  0
   -8.4678    6.8044   16.7814 O   0  0  0  0  0  0  0  0  0  0  0  0
   -4.1562    9.8868   11.0720 N   0  0  0  0  0  0  0  0  0  0  0  0
   -4.5417   10.6572   10.0104 C   0  0  0  0  0  0  0  0  0  0  0  0
   -3.8345   10.3672    8.8801 N   0  0  0  0  0  0  0  0  0  0  0  0
   -5.4102   11.5177    9.9833 O   0  0  0  0  0  0  0  0  0  0  0  0
   -3.4539    9.2166   10.9082 H   0  0  0  0  0  0  0  0  0  0  0  0
   -3.1351    9.6746    8.9011 H   0  0  0  0  0  0  0  0  0  0  0  0
   -4.0236   10.8506    8.0435 H   0  0  0  0  0  0  0  0  0  0  0  0
   -3.1181    8.2692   13.5263 C   0  0  0  0  0  0  0  0  0  0  0  0
   -1.9313    8.7368   13.0368 N   0  0  0  0  0  0  0  0  0  0  0  0
   -3.2389    7.1256   13.9572 O   0  0  0  0  0  0  0  0  0  0  0  0
   -1.8676    9.6592   12.6985 H   0  0  0  0  0  0  0  0  0  0  0  0
   -1.1399    8.1514   13.0222 H   0  0  0  0  0  0  0  0  0  0  0  0
 17 18  1  0
 18  6  1  0
  6  7  2  0
  7  8  1  0
  8  9  2  0
  9 10  1  0
 10 11  2  0
 11 12  1  0
 11 13  1  0
 13 14  2  0
 14  1  1  0
  1  2  1  0
  2  3  2  0
  3 19  1  0
 19 20  1  0
 20 21  1  0
 20 22  2  0
  3  4  1  0
  4 26  1  0
 26 27  1  0
 26 28  2  0
  4  5  2  0
 14 15  1  0
 15 16  2  0
 16  6  1  0
 15  9  1  0
  5  1  1  0
 19 23  1  0
 21 24  1  0
 21 25  1  0
 27 29  1  0
 27 30  1  0
M  END
> <minimizedAffinity>
-6.37744

> <CNNscore>
0.8637945056

> <CNNaffinity>
7.5492844582

> <CNN_VS>
6.5210304260

> <CNNaffinity_variance>
0.3133344650

$$$$



 30 32  0  0  0  0  0  0  0  0999 V2000
   -6.0003   11.2552   13.8572 N   0  0  0  0  0  0  0  0  0  0  0  0
   -5.0651   10.2733   14.0842 C   0  0  0  0  0  0  0  0  0  0  0  0
   -4.4850    9.9663   12.8796 C   0  0  0  0  0  0  0  0  0  0  0  0
   -5.0859   10.8575   11.9547 C   0  0  0  0  0  0  0  0  0  0  0  0
   -5.9690   11.6749   12.5598 N   0  0  0  0  0  0  0  0  0  0  0  0
   -8.4131    9.1854   17.0099 C   0  0  0  0  0  0  0  0  0  0  0  0
   -9.0317    9.9825   17.9602 C   0  0  0  0  0  0  0  0  0  0  0  0
   -8.9742   11.3704   17.8376 C   0  0  0  0  0  0  0  0  0  0  0  0
   -8.2815   11.9832   16.7816 C   0  0  0  0  0  0  0  0  0  0  0  0
   -8.3173   13.3788   16.6724 C   0  0  0  0  0  0  0  0  0  0  0  0
   -7.6847   14.0169   15.6189 C   0  0  0  0  0  0  0  0  0  0  0  0
   -7.7497   15.3509   15.5210 F   0  0  0  0  0  0  0  0  0  0  0  0
   -6.9691   13.2974   14.6795 C   0  0  0  0  0  0  0  0  0  0  0  0
   -6.8662   11.8978   14.7929 C   0  0  0  0  0  0  0  0  0  0  0  0
   -7.5773   11.2009   15.8253 C   0  0  0  0  0  0  0  0  0  0  0  0
   -7.7114    9.7911   15.9590 C   0  0  0  0  0  0  0  0  0  0  0  0
   -7.5857    7.1897   16.0148 C   0  0  0  0  0  0  0  0  0  0  0  0
   -8.4242    7.8184   16.9757 O   0  0  0  0  0  0  0  0  0  0  0  0
   -3.5124    9.0210   12.6025 N   0  0  0  0  0  0  0  0  0  0  0  0
   -2.9134    8.1984   13.5155 C   0  0  0  0  0  0  0  0  0  0  0  0
   -2.0154    7.3513   12.9342 N   0  0  0  0  0  0  0  0  0  0  0  0
   -3.0920    8.1626   14.7248 O   0  0  0  0  0  0  0  0  0  0  0  0
   -3.2265    8.9333   11.6644 H   0  0  0  0  0  0  0  0  0  0  0  0
   -1.8710    7.3794   11.9607 H   0  0  0  0  0  0  0  0  0  0  0  0
   -1.5118    6.7120   13.4882 H   0  0  0  0  0  0  0  0  0  0  0  0
   -4.8055   10.9439   10.5173 C   0  0  0  0  0  0  0  0  0  0  0  0
   -3.6368   10.3525   10.1287 N   0  0  0  0  0  0  0  0  0  0  0  0
   -5.5504   11.5018    9.7160 O   0  0  0  0  0  0  0  0  0  0  0  0
   -3.0616    9.9133   10.7962 H   0  0  0  0  0  0  0  0  0  0  0  0
   -3.3698   10.3655    9.1812 H   0  0  0  0  0  0  0  0  0  0  0  0
 17 18  1  0
 18  6  1  0
  6  7  2  0
  7  8  1  0
  8  9  2  0
  9 10  1  0
 10 11  2  0
 11 12  1  0
 11 13  1  0
 13 14  2  0
 14  1  1  0
  1  2  1  0
  2  3  2  0
  3 19  1  0
 19 20  1  0
 20 21  1  0
 20 22  2  0
  3  4  1  0
  4 26  1  0
 26 27  1  0
 26 28  2  0
  4  5  2  0
 14 15  1  0
 15 16  2  0
 16  6  1  0
 15  9  1  0
  5  1  1  0
 19 23  1  0
 21 24  1  0
 21 25  1  0
 27 29  1  0
 27 30  1  0
M  END
> <minimizedAffinity>
-7.16416

> <CNNscore>
0.8564884067

> <CNNaffinity>
7.7532773018

> <CNN_VS>
6.6405920982

> <CNNaffinity_variance>
0.5643216968

$$$$



 30 32  0  0  0  0  0  0  0  0999 V2000
   -5.6872    8.4752   14.3240 N   0  0  0  0  0  0  0  0  0  0  0  0
   -5.7930    8.9031   13.0217 C   0  0  0  0  0  0  0  0  0  0  0  0
   -4.5466    8.8194   12.4548 C   0  0  0  0  0  0  0  0  0  0  0  0
   -3.7266    8.2675   13.4715 C   0  0  0  0  0  0  0  0  0  0  0  0
   -4.4324    8.0110   14.5896 N   0  0  0  0  0  0  0  0  0  0  0  0
   -7.7803   11.9475   16.2232 C   0  0  0  0  0  0  0  0  0  0  0  0
   -8.8836   11.6674   17.0140 C   0  0  0  0  0  0  0  0  0  0  0  0
   -9.2256   10.3408   17.2737 C   0  0  0  0  0  0  0  0  0  0  0  0
   -8.4886    9.2760   16.7316 C   0  0  0  0  0  0  0  0  0  0  0  0
   -8.8380    7.9665   17.0840 C   0  0  0  0  0  0  0  0  0  0  0  0
   -8.1066    6.8923   16.6062 C   0  0  0  0  0  0  0  0  0  0  0  0
   -8.4440    5.6493   16.9730 F   0  0  0  0  0  0  0  0  0  0  0  0
   -7.0469    7.0842   15.7388 C   0  0  0  0  0  0  0  0  0  0  0  0
   -6.7058    8.3844   15.3202 C   0  0  0  0  0  0  0  0  0  0  0  0
   -7.3916    9.5224   15.8609 C   0  0  0  0  0  0  0  0  0  0  0  0
   -7.0466   10.8891   15.6708 C   0  0  0  0  0  0  0  0  0  0  0  0
   -7.2601   13.5533   14.5472 C   0  0  0  0  0  0  0  0  0  0  0  0
   -7.3014   13.1924   15.9220 O   0  0  0  0  0  0  0  0  0  0  0  0
   -4.1527    9.1657   11.1737 N   0  0  0  0  0  0  0  0  0  0  0  0
   -4.3650   10.3743   10.5709 C   0  0  0  0  0  0  0  0  0  0  0  0
   -3.8324   10.4242    9.3156 N   0  0  0  0  0  0  0  0  0  0  0  0
   -4.9569   11.3447   11.0220 O   0  0  0  0  0  0  0  0  0  0  0  0
   -3.6773    8.4808   10.6501 H   0  0  0  0  0  0  0  0  0  0  0  0
   -3.3558    9.6434    8.9517 H   0  0  0  0  0  0  0  0  0  0  0  0
   -3.9246   11.2410    8.7738 H   0  0  0  0  0  0  0  0  0  0  0  0
   -2.2940    7.9676   13.3710 C   0  0  0  0  0  0  0  0  0  0  0  0
   -1.5106    9.0366   13.0390 N   0  0  0  0  0  0  0  0  0  0  0  0
   -1.8225    6.8503   13.5643 O   0  0  0  0  0  0  0  0  0  0  0  0
   -1.9198    9.9196   12.8906 H   0  0  0  0  0  0  0  0  0  0  0  0
   -0.5368    8.9239   12.9482 H   0  0  0  0  0  0  0  0  0  0  0  0
 17 18  1  0
 18  6  1  0
  6  7  2  0
  7  8  1  0
  8  9  2  0
  9 10  1  0
 10 11  2  0
 11 12  1  0
 11 13  1  0
 13 14  2  0
 14  1  1  0
  1  2  1  0
  2  3  2  0
  3 19  1  0
 19 20  1  0
 20 21  1  0
 20 22  2  0
  3  4  1  0
  4 26  1  0
 26 27  1  0
 26 28  2  0
  4  5  2  0
 14 15  1  0
 15 16  2  0
 16  6  1  0
 15  9  1  0
  5  1  1  0
 19 23  1  0
 21 24  1  0
 21 25  1  0
 27 29  1  0
 27 30  1  0
M  END
> <minimizedAffinity>
-5.93238

> <CNNscore>
0.8251637816

> <CNNaffinity>
7.2902426720

> <CNN_VS>
6.0156440735

> <CNNaffinity_variance>
0.1842979342

$$$$



 30 32  0  0  0  0  0  0  0  0999 V2000
   -3.5208    9.4192   13.1566 N   0  0  0  0  0  0  0  0  0  0  0  0
   -3.4980    8.0461   13.2239 C   0  0  0  0  0  0  0  0  0  0  0  0
   -2.4515    7.6878   14.0353 C   0  0  0  0  0  0  0  0  0  0  0  0
   -1.9061    8.9182   14.4817 C   0  0  0  0  0  0  0  0  0  0  0  0
   -2.5892    9.9687   13.9877 N   0  0  0  0  0  0  0  0  0  0  0  0
   -6.9342   11.7085   14.9323 C   0  0  0  0  0  0  0  0  0  0  0  0
   -7.5656   12.6371   14.1198 C   0  0  0  0  0  0  0  0  0  0  0  0
   -7.1973   12.7421   12.7790 C   0  0  0  0  0  0  0  0  0  0  0  0
   -6.1808   11.9413   12.2349 C   0  0  0  0  0  0  0  0  0  0  0  0
   -5.9027   12.0430   10.8662 C   0  0  0  0  0  0  0  0  0  0  0  0
   -4.9388   11.2372   10.2841 C   0  0  0  0  0  0  0  0  0  0  0  0
   -4.7038   11.3349    8.9694 F   0  0  0  0  0  0  0  0  0  0  0  0
   -4.2011   10.3492   11.0454 C   0  0  0  0  0  0  0  0  0  0  0  0
   -4.4169   10.2636   12.4340 C   0  0  0  0  0  0  0  0  0  0  0  0
   -5.4633   11.0252   13.0525 C   0  0  0  0  0  0  0  0  0  0  0  0
   -5.9116   10.9133   14.3977 C   0  0  0  0  0  0  0  0  0  0  0  0
   -8.0255   10.3266   16.5314 C   0  0  0  0  0  0  0  0  0  0  0  0
   -7.2200   11.4633   16.2468 O   0  0  0  0  0  0  0  0  0  0  0  0
   -2.0167    6.4191   14.3786 N   0  0  0  0  0  0  0  0  0  0  0  0
   -2.1746    5.8224   15.5985 C   0  0  0  0  0  0  0  0  0  0  0  0
   -1.6674    4.5558   15.6215 N   0  0  0  0  0  0  0  0  0  0  0  0
   -2.6866    6.2934   16.6042 O   0  0  0  0  0  0  0  0  0  0  0  0
   -1.5524    5.9005   13.6824 H   0  0  0  0  0  0  0  0  0  0  0  0
   -1.2551    4.1758   14.8123 H   0  0  0  0  0  0  0  0  0  0  0  0
   -1.7139    4.0219   16.4474 H   0  0  0  0  0  0  0  0  0  0  0  0
   -0.7631    9.0900   15.3852 C   0  0  0  0  0  0  0  0  0  0  0  0
   -0.6492   10.3386   15.9281 N   0  0  0  0  0  0  0  0  0  0  0  0
    0.0368    8.1939   15.6406 O   0  0  0  0  0  0  0  0  0  0  0  0
   -1.3074   11.0352   15.7028 H   0  0  0  0  0  0  0  0  0  0  0  0
    0.0911   10.5417   16.5445 H   0  0  0  0  0  0  0  0  0  0  0  0
 17 18  1  0
 18  6  1  0
  6  7  2  0
  7  8  1  0
  8  9  2  0
  9 10  1  0
 10 11  2  0
 11 12  1  0
 11 13  1  0
 13 14  2  0
 14  1  1  0
  1  2  1  0
  2  3  2  0
  3 19  1  0
 19 20  1  0
 20 21  1  0
 20 22  2  0
  3  4  1  0
  4 26  1  0
 26 27  1  0
 26 28  2  0
  4  5  2  0
 14 15  1  0
 15 16  2  0
 16  6  1  0
 15  9  1  0
  5  1  1  0
 19 23  1  0
 21 24  1  0
 21 25  1  0
 27 29  1  0
 27 30  1  0
M  END
> <minimizedAffinity>
-7.13502

> <CNNscore>
0.7983835340

> <CNNaffinity>
7.1990013123

> <CNN_VS>
5.7475643158

> <CNNaffinity_variance>
0.0670133904

$$$$
