


 13 14  0  0  0  0  0  0  0  0999 V2000
  -14.8835   -0.8689    2.6203 C   0  0  0  0  0  0  0  0  0  0  0  0
  -15.2329   -0.7581    3.9851 C   0  0  0  0  0  0  0  0  0  0  0  0
  -14.2643   -0.9137    4.9830 C   0  0  0  0  0  0  0  0  0  0  0  0
  -12.9714   -1.1764    4.5849 C   0  0  0  0  0  0  0  0  0  0  0  0
  -12.6285   -1.2848    3.2571 C   0  0  0  0  0  0  0  0  0  0  0  0
  -13.5578   -1.1370    2.2497 C   0  0  0  0  0  0  0  0  0  0  0  0
  -11.3052   -1.5462    3.0839 O   0  0  0  0  0  0  0  0  0  0  0  0
  -10.8538   -1.5901    4.4537 C   0  0  0  0  0  0  0  0  0  0  0  0
  -11.9072   -1.3560    5.4117 O   0  0  0  0  0  0  0  0  0  0  0  0
  -16.7992   -1.4767    1.2954 O   0  0  0  0  0  0  0  0  0  0  0  0
  -15.8878   -0.7089    1.5412 C   0  0  0  0  0  0  0  0  0  0  0  0
  -15.7028    0.4092    0.8179 O   0  0  0  0  0  0  0  0  0  0  0  0
  -14.9950    0.9880    1.0228 H   0  0  0  0  0  0  0  0  0  0  0  0
 10 11  2  0
 11 12  1  0
 11  1  1  0
  1  2  2  0
  2  3  1  0
  3  4  2  0
  4  5  1  0
  5  6  2  0
  5  7  1  0
  7  8  1  0
  8  9  1  0
  6  1  1  0
  9  4  1  0
 12 13  1  0
M  END
> <minimizedAffinity>
-6.69801

> <CNNscore>
0.9373406768

> <CNNaffinity>
3.2508995533

> <CNN_VS>
3.0472004414

> <CNNaffinity_variance>
0.4288488328

$$$$



 13 14  0  0  0  0  0  0  0  0999 V2000
  -14.2922   -0.8126    1.4177 C   0  0  0  0  0  0  0  0  0  0  0  0
  -15.2235   -0.7387    2.4780 C   0  0  0  0  0  0  0  0  0  0  0  0
  -14.8052   -0.8893    3.8049 C   0  0  0  0  0  0  0  0  0  0  0  0
  -13.4640   -1.1099    4.0323 C   0  0  0  0  0  0  0  0  0  0  0  0
  -12.5553   -1.1822    3.0021 C   0  0  0  0  0  0  0  0  0  0  0  0
  -12.9341   -1.0383    1.6844 C   0  0  0  0  0  0  0  0  0  0  0  0
  -11.2887   -1.4054    3.4438 O   0  0  0  0  0  0  0  0  0  0  0  0
  -11.5030   -1.4653    4.8695 C   0  0  0  0  0  0  0  0  0  0  0  0
  -12.8825   -1.2784    5.2496 O   0  0  0  0  0  0  0  0  0  0  0  0
  -14.1334   -1.1258   -0.9638 O   0  0  0  0  0  0  0  0  0  0  0  0
  -14.7058   -0.6569    0.0023 C   0  0  0  0  0  0  0  0  0  0  0  0
  -15.8207    0.0812   -0.1373 O   0  0  0  0  0  0  0  0  0  0  0  0
  -16.2471    0.4336    0.6190 H   0  0  0  0  0  0  0  0  0  0  0  0
 10 11  2  0
 11 12  1  0
 11  1  1  0
  1  2  2  0
  2  3  1  0
  3  4  2  0
  4  5  1  0
  5  6  2  0
  5  7  1  0
  7  8  1  0
  8  9  1  0
  6  1  1  0
  9  4  1  0
 12 13  1  0
M  END
> <minimizedAffinity>
-6.43505

> <CNNscore>
0.9130294323

> <CNNaffinity>
3.4488551617

> <CNN_VS>
3.1489062309

> <CNNaffinity_variance>
0.2468331307

$$$$



 13 14  0  0  0  0  0  0  0  0999 V2000
  -15.0419   -0.7830    1.9476 C   0  0  0  0  0  0  0  0  0  0  0  0
  -13.9442   -0.8966    1.0649 C   0  0  0  0  0  0  0  0  0  0  0  0
  -12.6516   -1.1039    1.5592 C   0  0  0  0  0  0  0  0  0  0  0  0
  -12.4949   -1.1915    2.9256 C   0  0  0  0  0  0  0  0  0  0  0  0
  -13.5617   -1.0812    3.7871 C   0  0  0  0  0  0  0  0  0  0  0  0
  -14.8473   -0.8769    3.3332 C   0  0  0  0  0  0  0  0  0  0  0  0
  -13.1890   -1.1964    5.0898 O   0  0  0  0  0  0  0  0  0  0  0  0
  -11.7661   -1.3919    4.9508 C   0  0  0  0  0  0  0  0  0  0  0  0
  -11.3191   -1.3897    3.5787 O   0  0  0  0  0  0  0  0  0  0  0  0
  -16.7808   -0.6145    0.2915 O   0  0  0  0  0  0  0  0  0  0  0  0
  -16.4225   -0.5632    1.4532 C   0  0  0  0  0  0  0  0  0  0  0  0
  -17.2927   -0.2886    2.4406 O   0  0  0  0  0  0  0  0  0  0  0  0
  -16.9973   -0.2535    3.3291 H   0  0  0  0  0  0  0  0  0  0  0  0
 10 11  2  0
 11 12  1  0
 11  1  1  0
  1  2  2  0
  2  3  1  0
  3  4  2  0
  4  5  1  0
  5  6  2  0
  5  7  1  0
  7  8  1  0
  8  9  1  0
  6  1  1  0
  9  4  1  0
 12 13  1  0
M  END
> <minimizedAffinity>
-6.45943

> <CNNscore>
0.8432058692

> <CNNaffinity>
3.0392444134

> <CNN_VS>
2.5627086163

> <CNNaffinity_variance>
0.4435547590

$$$$



 13 14  0  0  0  0  0  0  0  0999 V2000
  -14.2540   -0.8905    1.0125 C   0  0  0  0  0  0  0  0  0  0  0  0
  -12.8800   -1.0594    1.2961 C   0  0  0  0  0  0  0  0  0  0  0  0
  -12.4252   -1.0957    2.6190 C   0  0  0  0  0  0  0  0  0  0  0  0
  -13.3611   -0.9616    3.6217 C   0  0  0  0  0  0  0  0  0  0  0  0
  -14.6992   -0.7970    3.3485 C   0  0  0  0  0  0  0  0  0  0  0  0
  -15.1801   -0.7569    2.0571 C   0  0  0  0  0  0  0  0  0  0  0  0
  -15.4481   -0.6845    4.4780 O   0  0  0  0  0  0  0  0  0  0  0  0
  -14.4294   -0.7969    5.4937 C   0  0  0  0  0  0  0  0  0  0  0  0
  -13.1017   -0.9730    4.9562 O   0  0  0  0  0  0  0  0  0  0  0  0
  -14.3991   -1.5602   -1.2952 O   0  0  0  0  0  0  0  0  0  0  0  0
  -14.7652   -0.8482   -0.3788 C   0  0  0  0  0  0  0  0  0  0  0  0
  -15.7141    0.0873   -0.5578 O   0  0  0  0  0  0  0  0  0  0  0  0
  -15.9824    0.6258    0.1605 H   0  0  0  0  0  0  0  0  0  0  0  0
 10 11  2  0
 11 12  1  0
 11  1  1  0
  1  2  2  0
  2  3  1  0
  3  4  2  0
  4  5  1  0
  5  6  2  0
  5  7  1  0
  7  8  1  0
  8  9  1  0
  6  1  1  0
  9  4  1  0
 12 13  1  0
M  END
> <minimizedAffinity>
-5.97151

> <CNNscore>
0.8074685931

> <CNNaffinity>
3.1698131561

> <CNN_VS>
2.5595245361

> <CNNaffinity_variance>
0.3626202345

$$$$



 13 14  0  0  0  0  0  0  0  0999 V2000
  -18.3994   -0.6790    0.2796 C   0  0  0  0  0  0  0  0  0  0  0  0
  -17.6193   -0.3614   -0.8552 C   0  0  0  0  0  0  0  0  0  0  0  0
  -16.2319   -0.2147   -0.7471 C   0  0  0  0  0  0  0  0  0  0  0  0
  -15.6644   -0.3905    0.4964 C   0  0  0  0  0  0  0  0  0  0  0  0
  -16.4213   -0.6996    1.6026 C   0  0  0  0  0  0  0  0  0  0  0  0
  -17.7896   -0.8511    1.5307 C   0  0  0  0  0  0  0  0  0  0  0  0
  -15.6665   -0.8291    2.7265 O   0  0  0  0  0  0  0  0  0  0  0  0
  -14.3482   -0.5664    2.2021 C   0  0  0  0  0  0  0  0  0  0  0  0
  -14.3401   -0.2871    0.7863 O   0  0  0  0  0  0  0  0  0  0  0  0
  -20.6350   -0.1135   -0.4110 O   0  0  0  0  0  0  0  0  0  0  0  0
  -19.8709   -0.8406    0.1958 C   0  0  0  0  0  0  0  0  0  0  0  0
  -20.3181   -1.9091    0.8783 O   0  0  0  0  0  0  0  0  0  0  0  0
  -19.7138   -2.4570    1.3394 H   0  0  0  0  0  0  0  0  0  0  0  0
 10 11  2  0
 11 12  1  0
 11  1  1  0
  1  2  2  0
  2  3  1  0
  3  4  2  0
  4  5  1  0
  5  6  2  0
  5  7  1  0
  7  8  1  0
  8  9  1  0
  6  1  1  0
  9  4  1  0
 12 13  1  0
M  END
> <minimizedAffinity>
-6.06142

> <CNNscore>
0.4631859660

> <CNNaffinity>
3.1171712875

> <CNN_VS>
1.4438300133

> <CNNaffinity_variance>
0.4933941364

$$$$



 13 14  0  0  0  0  0  0  0  0999 V2000
  -18.2235   -0.0413   -1.3101 C   0  0  0  0  0  0  0  0  0  0  0  0
  -18.5224   -0.8164   -2.4533 C   0  0  0  0  0  0  0  0  0  0  0  0
  -19.8281   -0.8739   -2.9532 C   0  0  0  0  0  0  0  0  0  0  0  0
  -20.7989   -0.1523   -2.2927 C   0  0  0  0  0  0  0  0  0  0  0  0
  -20.5109    0.6029   -1.1797 C   0  0  0  0  0  0  0  0  0  0  0  0
  -19.2357    0.6811   -0.6617 C   0  0  0  0  0  0  0  0  0  0  0  0
  -21.6089    1.2332   -0.6835 O   0  0  0  0  0  0  0  0  0  0  0  0
  -22.6214    0.7890   -1.6107 C   0  0  0  0  0  0  0  0  0  0  0  0
  -22.1132   -0.0912   -2.6351 O   0  0  0  0  0  0  0  0  0  0  0  0
  -15.8629   -0.5037   -1.2186 O   0  0  0  0  0  0  0  0  0  0  0  0
  -16.8498    0.0388   -0.7577 C   0  0  0  0  0  0  0  0  0  0  0  0
  -16.7763    0.7973    0.3499 O   0  0  0  0  0  0  0  0  0  0  0  0
  -17.5477    1.2068    0.6894 H   0  0  0  0  0  0  0  0  0  0  0  0
 10 11  2  0
 11 12  1  0
 11  1  1  0
  1  2  2  0
  2  3  1  0
  3  4  2  0
  4  5  1  0
  5  6  2  0
  5  7  1  0
  7  8  1  0
  8  9  1  0
  6  1  1  0
  9  4  1  0
 12 13  1  0
M  END
> <minimizedAffinity>
-5.45751

> <CNNscore>
0.4445108473

> <CNNaffinity>
3.2505493164

> <CNN_VS>
1.4449044466

> <CNNaffinity_variance>
0.1861259490

$$$$



 13 14  0  0  0  0  0  0  0  0999 V2000
  -13.4163   -7.7602   10.3443 C   0  0  0  0  0  0  0  0  0  0  0  0
  -12.6375   -6.6134   10.6191 C   0  0  0  0  0  0  0  0  0  0  0  0
  -12.5215   -6.1280   11.9264 C   0  0  0  0  0  0  0  0  0  0  0  0
  -13.1898   -6.8060   12.9228 C   0  0  0  0  0  0  0  0  0  0  0  0
  -13.9486   -7.9225   12.6582 C   0  0  0  0  0  0  0  0  0  0  0  0
  -14.0836   -8.4265   11.3822 C   0  0  0  0  0  0  0  0  0  0  0  0
  -14.5211   -8.4368   13.7793 O   0  0  0  0  0  0  0  0  0  0  0  0
  -14.0366   -7.5172   14.7802 C   0  0  0  0  0  0  0  0  0  0  0  0
  -13.1906   -6.4792   14.2425 O   0  0  0  0  0  0  0  0  0  0  0  0
  -12.9351   -7.9279    7.9916 O   0  0  0  0  0  0  0  0  0  0  0  0
  -13.5577   -8.2976    8.9696 C   0  0  0  0  0  0  0  0  0  0  0  0
  -14.4756   -9.2762    8.8838 O   0  0  0  0  0  0  0  0  0  0  0  0
  -14.9447   -9.5468    9.6484 H   0  0  0  0  0  0  0  0  0  0  0  0
 10 11  2  0
 11 12  1  0
 11  1  1  0
  1  2  2  0
  2  3  1  0
  3  4  2  0
  4  5  1  0
  5  6  2  0
  5  7  1  0
  7  8  1  0
  8  9  1  0
  6  1  1  0
  9  4  1  0
 12 13  1  0
M  END
> <minimizedAffinity>
-4.90594

> <CNNscore>
0.4415506721

> <CNNaffinity>
2.7046835423

> <CNN_VS>
1.1942548752

> <CNNaffinity_variance>
0.7631222606

$$$$



 13 14  0  0  0  0  0  0  0  0999 V2000
  -13.5384   -7.8662   10.2709 C   0  0  0  0  0  0  0  0  0  0  0  0
  -14.1397   -8.6735   11.2627 C   0  0  0  0  0  0  0  0  0  0  0  0
  -14.0968   -8.2969   12.6097 C   0  0  0  0  0  0  0  0  0  0  0  0
  -13.4518   -7.1207   12.9256 C   0  0  0  0  0  0  0  0  0  0  0  0
  -12.8656   -6.3330   11.9622 C   0  0  0  0  0  0  0  0  0  0  0  0
  -12.8898   -6.6749   10.6269 C   0  0  0  0  0  0  0  0  0  0  0  0
  -12.2850   -5.2205   12.4861 O   0  0  0  0  0  0  0  0  0  0  0  0
  -12.5723   -5.3972   13.8891 C   0  0  0  0  0  0  0  0  0  0  0  0
  -13.3130   -6.6022   14.1747 O   0  0  0  0  0  0  0  0  0  0  0  0
  -12.7832   -7.8637    7.9852 O   0  0  0  0  0  0  0  0  0  0  0  0
  -13.5678   -8.2392    8.8361 C   0  0  0  0  0  0  0  0  0  0  0  0
  -14.5821   -9.0681    8.5332 O   0  0  0  0  0  0  0  0  0  0  0  0
  -15.1759   -9.3460    9.2027 H   0  0  0  0  0  0  0  0  0  0  0  0
 10 11  2  0
 11 12  1  0
 11  1  1  0
  1  2  2  0
  2  3  1  0
  3  4  2  0
  4  5  1  0
  5  6  2  0
  5  7  1  0
  7  8  1  0
  8  9  1  0
  6  1  1  0
  9  4  1  0
 12 13  1  0
M  END
> <minimizedAffinity>
-5.02232

> <CNNscore>
0.4321272969

> <CNNaffinity>
2.7731437683

> <CNN_VS>
1.1983511448

> <CNNaffinity_variance>
0.8652792573

$$$$



 13 14  0  0  0  0  0  0  0  0999 V2000
  -14.6725   -0.9750   -4.0182 C   0  0  0  0  0  0  0  0  0  0  0  0
  -16.0394   -0.7794   -4.3191 C   0  0  0  0  0  0  0  0  0  0  0  0
  -16.5880   -1.2880   -5.5017 C   0  0  0  0  0  0  0  0  0  0  0  0
  -15.7508   -1.9791   -6.3506 C   0  0  0  0  0  0  0  0  0  0  0  0
  -14.4199   -2.1710   -6.0602 C   0  0  0  0  0  0  0  0  0  0  0  0
  -13.8482   -1.6834   -4.9044 C   0  0  0  0  0  0  0  0  0  0  0  0
  -13.7755   -2.8766   -7.0278 O   0  0  0  0  0  0  0  0  0  0  0  0
  -14.8520   -3.1073   -7.9606 C   0  0  0  0  0  0  0  0  0  0  0  0
  -16.1091   -2.5398   -7.5362 O   0  0  0  0  0  0  0  0  0  0  0  0
  -14.4980   -0.5995   -1.6469 O   0  0  0  0  0  0  0  0  0  0  0  0
  -14.0633   -0.4480   -2.7733 C   0  0  0  0  0  0  0  0  0  0  0  0
  -12.9344    0.2464   -2.9983 O   0  0  0  0  0  0  0  0  0  0  0  0
  -12.6157    0.3520   -3.8731 H   0  0  0  0  0  0  0  0  0  0  0  0
 10 11  2  0
 11 12  1  0
 11  1  1  0
  1  2  2  0
  2  3  1  0
  3  4  2  0
  4  5  1  0
  5  6  2  0
  5  7  1  0
  7  8  1  0
  8  9  1  0
  6  1  1  0
  9  4  1  0
 12 13  1  0
M  END
> <minimizedAffinity>
-5.11369

> <CNNscore>
0.3891253173

> <CNNaffinity>
3.0445964336

> <CNN_VS>
1.1847295761

> <CNNaffinity_variance>
0.4236597121

$$$$
