


 28 31  0  0  0  0  0  0  0  0999 V2000
   14.7111    7.6977  -34.9265 C   0  0  0  0  0  0  0  0  0  0  0  0
   14.9119    8.7756  -35.7714 C   0  0  0  0  0  0  0  0  0  0  0  0
   16.2678    8.9826  -35.8695 N   0  0  0  0  0  0  0  0  0  0  0  0
   16.9504    8.0971  -35.1089 N   0  0  0  0  0  0  0  0  0  0  0  0
   16.0285    7.2927  -34.5673 C   0  0  0  0  0  0  0  0  0  0  0  0
   10.3739    8.6819  -35.1408 O   0  0  0  0  0  0  0  0  0  0  0  0
   11.3425    7.9462  -35.0978 C   0  0  0  0  0  0  0  0  0  0  0  0
   11.5300    6.8268  -35.8337 N   0  0  0  0  0  0  0  0  0  0  0  0
   12.7363    6.2599  -35.5521 C   0  0  0  0  0  0  0  0  0  0  0  0
   13.1722    5.2484  -36.0822 O   0  0  0  0  0  0  0  0  0  0  0  0
   13.4273    7.1007  -34.4735 C   0  0  0  0  0  0  0  0  0  0  0  0
   12.4352    8.1291  -34.2887 N   0  0  0  0  0  0  0  0  0  0  0  0
   10.8829    6.4704  -36.4843 H   0  0  0  0  0  0  0  0  0  0  0  0
   12.5304    8.8766  -33.6550 H   0  0  0  0  0  0  0  0  0  0  0  0
   16.9540    9.9753  -36.6262 C   0  0  0  0  0  0  0  0  0  0  0  0
   18.2728   10.3173  -36.2769 C   0  0  0  0  0  0  0  0  0  0  0  0
   18.9650   11.2883  -37.0040 C   0  0  0  0  0  0  0  0  0  0  0  0
   18.3426   11.9147  -38.0756 C   0  0  0  0  0  0  0  0  0  0  0  0
   19.0058   12.8461  -38.7730 F   0  0  0  0  0  0  0  0  0  0  0  0
   17.0402   11.5886  -38.4359 C   0  0  0  0  0  0  0  0  0  0  0  0
   16.3400   10.6172  -37.7134 C   0  0  0  0  0  0  0  0  0  0  0  0
   16.4347    6.1921  -33.6987 C   0  0  0  0  0  0  0  0  0  0  0  0
   17.4347    6.3964  -32.7354 C   0  0  0  0  0  0  0  0  0  0  0  0
   17.8236    5.3542  -31.8916 C   0  0  0  0  0  0  0  0  0  0  0  0
   17.2188    4.1093  -32.0183 C   0  0  0  0  0  0  0  0  0  0  0  0
   17.5918    3.1093  -31.2093 F   0  0  0  0  0  0  0  0  0  0  0  0
   16.2370    3.8843  -32.9764 C   0  0  0  0  0  0  0  0  0  0  0  0
   15.8458    4.9254  -33.8218 C   0  0  0  0  0  0  0  0  0  0  0  0
  6  7  2  0
  7  8  1  0
  8  9  1  0
  9 10  2  0
  9 11  1  0
 11  1  1  0
  1  2  2  0
  2  3  1  0
  3 15  1  0
 15 16  2  0
 16 17  1  0
 17 18  2  0
 18 19  1  0
 18 20  1  0
 20 21  2  0
  3  4  1  0
  4  5  2  0
  5 22  1  0
 22 23  2  0
 23 24  1  0
 24 25  2  0
 25 26  1  0
 25 27  1  0
 27 28  2  0
 11 12  1  0
 12  7  1  0
  5  1  1  0
 28 22  1  0
 21 15  1  0
  8 13  1  0
 12 14  1  0
M  END
> <minimizedAffinity>
-9.09785

> <CNNscore>
0.9227004051

> <CNNaffinity>
6.8937430382

> <CNN_VS>
6.3608593941

> <CNNaffinity_variance>
0.0103198690

$$$$



 28 31  0  0  0  0  0  0  0  0999 V2000
   14.2658    8.0305  -35.1519 C   0  0  0  0  0  0  0  0  0  0  0  0
   14.3531    9.0673  -36.0650 C   0  0  0  0  0  0  0  0  0  0  0  0
   15.6870    9.3160  -36.2885 N   0  0  0  0  0  0  0  0  0  0  0  0
   16.4647    8.4976  -35.5442 N   0  0  0  0  0  0  0  0  0  0  0  0
   15.6234    7.6921  -34.8857 C   0  0  0  0  0  0  0  0  0  0  0  0
    9.8954    8.8710  -35.0141 O   0  0  0  0  0  0  0  0  0  0  0  0
   10.8887    8.1679  -35.0289 C   0  0  0  0  0  0  0  0  0  0  0  0
   11.0487    7.0241  -35.7331 N   0  0  0  0  0  0  0  0  0  0  0  0
   12.2940    6.5071  -35.5387 C   0  0  0  0  0  0  0  0  0  0  0  0
   12.7157    5.4876  -36.0649 O   0  0  0  0  0  0  0  0  0  0  0  0
   13.0485    7.4146  -34.5615 C   0  0  0  0  0  0  0  0  0  0  0  0
   12.0419    8.4190  -34.3295 N   0  0  0  0  0  0  0  0  0  0  0  0
   10.3590    6.6202  -36.3080 H   0  0  0  0  0  0  0  0  0  0  0  0
   12.1672    9.1957  -33.7376 H   0  0  0  0  0  0  0  0  0  0  0  0
   16.2682   10.2894  -37.1506 C   0  0  0  0  0  0  0  0  0  0  0  0
   15.4693   10.9047  -38.1312 C   0  0  0  0  0  0  0  0  0  0  0  0
   16.0177   11.8614  -38.9883 C   0  0  0  0  0  0  0  0  0  0  0  0
   17.3582   12.2023  -38.8662 C   0  0  0  0  0  0  0  0  0  0  0  0
   17.8847   13.1194  -39.6880 F   0  0  0  0  0  0  0  0  0  0  0  0
   18.1625   11.6054  -37.9022 C   0  0  0  0  0  0  0  0  0  0  0  0
   17.6214   10.6467  -37.0397 C   0  0  0  0  0  0  0  0  0  0  0  0
   16.1434    6.6553  -33.9994 C   0  0  0  0  0  0  0  0  0  0  0  0
   15.5493    5.3839  -33.9895 C   0  0  0  0  0  0  0  0  0  0  0  0
   16.0452    4.3810  -33.1541 C   0  0  0  0  0  0  0  0  0  0  0  0
   17.1271    4.6537  -32.3254 C   0  0  0  0  0  0  0  0  0  0  0  0
   17.6028    3.6920  -31.5237 F   0  0  0  0  0  0  0  0  0  0  0  0
   17.7190    5.9115  -32.3109 C   0  0  0  0  0  0  0  0  0  0  0  0
   17.2250    6.9167  -33.1459 C   0  0  0  0  0  0  0  0  0  0  0  0
  6  7  2  0
  7  8  1  0
  8  9  1  0
  9 10  2  0
  9 11  1  0
 11  1  1  0
  1  2  2  0
  2  3  1  0
  3 15  1  0
 15 16  2  0
 16 17  1  0
 17 18  2  0
 18 19  1  0
 18 20  1  0
 20 21  2  0
  3  4  1  0
  4  5  2  0
  5 22  1  0
 22 23  2  0
 23 24  1  0
 24 25  2  0
 25 26  1  0
 25 27  1  0
 27 28  2  0
 11 12  1  0
 12  7  1  0
  5  1  1  0
 28 22  1  0
 21 15  1  0
  8 13  1  0
 12 14  1  0
M  END
> <minimizedAffinity>
-8.67332

> <CNNscore>
0.9185600877

> <CNNaffinity>
6.6937499046

> <CNN_VS>
6.1486115456

> <CNNaffinity_variance>
0.2216529697

$$$$



 28 31  0  0  0  0  0  0  0  0999 V2000
   14.4700    8.7040  -35.0821 C   0  0  0  0  0  0  0  0  0  0  0  0
   14.5481    7.6591  -34.1776 C   0  0  0  0  0  0  0  0  0  0  0  0
   15.8454    7.2029  -34.1775 N   0  0  0  0  0  0  0  0  0  0  0  0
   16.6036    7.8953  -35.0574 N   0  0  0  0  0  0  0  0  0  0  0  0
   15.7987    8.8278  -35.5797 C   0  0  0  0  0  0  0  0  0  0  0  0
   10.2238    7.9611  -36.1977 O   0  0  0  0  0  0  0  0  0  0  0  0
   11.1497    8.5870  -35.7159 C   0  0  0  0  0  0  0  0  0  0  0  0
   11.1378    9.2546  -34.5395 N   0  0  0  0  0  0  0  0  0  0  0  0
   12.3517    9.8219  -34.2935 C   0  0  0  0  0  0  0  0  0  0  0  0
   12.6289   10.4703  -33.2951 O   0  0  0  0  0  0  0  0  0  0  0  0
   13.2812    9.5077  -35.4704 C   0  0  0  0  0  0  0  0  0  0  0  0
   12.3905    8.7215  -36.2857 N   0  0  0  0  0  0  0  0  0  0  0  0
   10.3580    9.3215  -33.9423 H   0  0  0  0  0  0  0  0  0  0  0  0
   12.6430    8.3266  -37.1514 H   0  0  0  0  0  0  0  0  0  0  0  0
   16.4056    6.1436  -33.4075 C   0  0  0  0  0  0  0  0  0  0  0  0
   15.7416    4.9047  -33.3560 C   0  0  0  0  0  0  0  0  0  0  0  0
   16.2717    3.8518  -32.6070 C   0  0  0  0  0  0  0  0  0  0  0  0
   17.4600    4.0355  -31.9125 C   0  0  0  0  0  0  0  0  0  0  0  0
   17.9686    3.0264  -31.1939 F   0  0  0  0  0  0  0  0  0  0  0  0
   18.1305    5.2526  -31.9529 C   0  0  0  0  0  0  0  0  0  0  0  0
   17.6069    6.3120  -32.7007 C   0  0  0  0  0  0  0  0  0  0  0  0
   16.3160    9.7775  -36.5602 C   0  0  0  0  0  0  0  0  0  0  0  0
   17.6194   10.2798  -36.4242 C   0  0  0  0  0  0  0  0  0  0  0  0
   18.1288   11.1801  -37.3620 C   0  0  0  0  0  0  0  0  0  0  0  0
   17.3322   11.5822  -38.4275 C   0  0  0  0  0  0  0  0  0  0  0  0
   17.8204   12.4459  -39.3271 F   0  0  0  0  0  0  0  0  0  0  0  0
   16.0337   11.1065  -38.5703 C   0  0  0  0  0  0  0  0  0  0  0  0
   15.5216   10.2055  -37.6336 C   0  0  0  0  0  0  0  0  0  0  0  0
  6  7  2  0
  7  8  1  0
  8  9  1  0
  9 10  2  0
  9 11  1  0
 11  1  1  0
  1  2  2  0
  2  3  1  0
  3 15  1  0
 15 16  2  0
 16 17  1  0
 17 18  2  0
 18 19  1  0
 18 20  1  0
 20 21  2  0
  3  4  1  0
  4  5  2  0
  5 22  1  0
 22 23  2  0
 23 24  1  0
 24 25  2  0
 25 26  1  0
 25 27  1  0
 27 28  2  0
 11 12  1  0
 12  7  1  0
  5  1  1  0
 28 22  1  0
 21 15  1  0
  8 13  1  0
 12 14  1  0
M  END
> <minimizedAffinity>
-8.55451

> <CNNscore>
0.7521052957

> <CNNaffinity>
6.3677496910

> <CNN_VS>
4.7892184258

> <CNNaffinity_variance>
0.0115025155

$$$$



 28 31  0  0  0  0  0  0  0  0999 V2000
   11.4102    9.9668  -35.0680 C   0  0  0  0  0  0  0  0  0  0  0  0
   12.7389    9.7221  -34.7669 C   0  0  0  0  0  0  0  0  0  0  0  0
   12.9557    8.3708  -34.9011 N   0  0  0  0  0  0  0  0  0  0  0  0
   11.8194    7.7298  -35.2566 N   0  0  0  0  0  0  0  0  0  0  0  0
   10.8910    8.6827  -35.3995 C   0  0  0  0  0  0  0  0  0  0  0  0
    7.8406   11.6698  -33.0225 O   0  0  0  0  0  0  0  0  0  0  0  0
    8.9431   11.7013  -33.5369 C   0  0  0  0  0  0  0  0  0  0  0  0
   10.0212   12.3771  -33.0775 N   0  0  0  0  0  0  0  0  0  0  0  0
   11.1000   12.1712  -33.8834 C   0  0  0  0  0  0  0  0  0  0  0  0
   12.2104   12.6470  -33.6973 O   0  0  0  0  0  0  0  0  0  0  0  0
   10.6751   11.2586  -35.0386 C   0  0  0  0  0  0  0  0  0  0  0  0
    9.2950   11.0408  -34.6867 N   0  0  0  0  0  0  0  0  0  0  0  0
   10.0255   12.9410  -32.2705 H   0  0  0  0  0  0  0  0  0  0  0  0
    8.6760   10.4827  -35.2108 H   0  0  0  0  0  0  0  0  0  0  0  0
   14.1672    7.6496  -34.6987 C   0  0  0  0  0  0  0  0  0  0  0  0
   15.3119    8.3374  -34.2573 C   0  0  0  0  0  0  0  0  0  0  0  0
   16.5110    7.6512  -34.0527 C   0  0  0  0  0  0  0  0  0  0  0  0
   16.5664    6.2838  -34.2877 C   0  0  0  0  0  0  0  0  0  0  0  0
   17.7160    5.6253  -34.0920 F   0  0  0  0  0  0  0  0  0  0  0  0
   15.4447    5.5875  -34.7230 C   0  0  0  0  0  0  0  0  0  0  0  0
   14.2400    6.2668  -34.9301 C   0  0  0  0  0  0  0  0  0  0  0  0
    9.5353    8.3300  -35.8102 C   0  0  0  0  0  0  0  0  0  0  0  0
    8.7420    7.5245  -34.9787 C   0  0  0  0  0  0  0  0  0  0  0  0
    7.4400    7.1899  -35.3560 C   0  0  0  0  0  0  0  0  0  0  0  0
    6.9376    7.6537  -36.5660 C   0  0  0  0  0  0  0  0  0  0  0  0
    5.6889    7.3327  -36.9282 F   0  0  0  0  0  0  0  0  0  0  0  0
    7.7139    8.4404  -37.4093 C   0  0  0  0  0  0  0  0  0  0  0  0
    9.0169    8.7769  -37.0342 C   0  0  0  0  0  0  0  0  0  0  0  0
  6  7  2  0
  7  8  1  0
  8  9  1  0
  9 10  2  0
  9 11  1  0
 11  1  1  0
  1  2  2  0
  2  3  1  0
  3 15  1  0
 15 16  2  0
 16 17  1  0
 17 18  2  0
 18 19  1  0
 18 20  1  0
 20 21  2  0
  3  4  1  0
  4  5  2  0
  5 22  1  0
 22 23  2  0
 23 24  1  0
 24 25  2  0
 25 26  1  0
 25 27  1  0
 27 28  2  0
 11 12  1  0
 12  7  1  0
  5  1  1  0
 28 22  1  0
 21 15  1  0
  8 13  1  0
 12 14  1  0
M  END
> <minimizedAffinity>
-8.57127

> <CNNscore>
0.6366783381

> <CNNaffinity>
5.6093506813

> <CNN_VS>
3.5713520050

> <CNNaffinity_variance>
0.1096560359

$$$$



 28 31  0  0  0  0  0  0  0  0999 V2000
   13.3209    9.3836  -35.6654 C   0  0  0  0  0  0  0  0  0  0  0  0
   13.6311    8.3860  -34.7572 C   0  0  0  0  0  0  0  0  0  0  0  0
   14.9474    8.0388  -34.9514 N   0  0  0  0  0  0  0  0  0  0  0  0
   15.4950    8.7555  -35.9589 N   0  0  0  0  0  0  0  0  0  0  0  0
   14.5395    9.5966  -36.3711 C   0  0  0  0  0  0  0  0  0  0  0  0
    9.0395    8.2448  -36.1112 O   0  0  0  0  0  0  0  0  0  0  0  0
    9.9673    8.9619  -35.7854 C   0  0  0  0  0  0  0  0  0  0  0  0
   10.0721    9.6597  -34.6313 N   0  0  0  0  0  0  0  0  0  0  0  0
   11.2532   10.3365  -34.5813 C   0  0  0  0  0  0  0  0  0  0  0  0
   11.6178   11.0350  -33.6468 O   0  0  0  0  0  0  0  0  0  0  0  0
   12.0201   10.0700  -35.8808 C   0  0  0  0  0  0  0  0  0  0  0  0
   11.0914    9.1867  -36.5391 N   0  0  0  0  0  0  0  0  0  0  0  0
    9.3878    9.6761  -33.9236 H   0  0  0  0  0  0  0  0  0  0  0  0
   11.2456    8.7903  -37.4269 H   0  0  0  0  0  0  0  0  0  0  0  0
   15.7120    7.0612  -34.2524 C   0  0  0  0  0  0  0  0  0  0  0  0
   15.2781    5.7233  -34.2469 C   0  0  0  0  0  0  0  0  0  0  0  0
   16.0112    4.7476  -33.5676 C   0  0  0  0  0  0  0  0  0  0  0  0
   17.1727    5.1069  -32.8969 C   0  0  0  0  0  0  0  0  0  0  0  0
   17.8759    4.1718  -32.2452 F   0  0  0  0  0  0  0  0  0  0  0  0
   17.6172    6.4241  -32.8925 C   0  0  0  0  0  0  0  0  0  0  0  0
   16.8894    7.4072  -33.5704 C   0  0  0  0  0  0  0  0  0  0  0  0
   14.8118   10.5455  -37.4464 C   0  0  0  0  0  0  0  0  0  0  0  0
   14.0688   11.7329  -37.5335 C   0  0  0  0  0  0  0  0  0  0  0  0
   14.3279   12.6531  -38.5512 C   0  0  0  0  0  0  0  0  0  0  0  0
   15.3221   12.3806  -39.4833 C   0  0  0  0  0  0  0  0  0  0  0  0
   15.5707   13.2629  -40.4597 F   0  0  0  0  0  0  0  0  0  0  0  0
   16.0582   11.2029  -39.4216 C   0  0  0  0  0  0  0  0  0  0  0  0
   15.8012   10.2805  -38.4042 C   0  0  0  0  0  0  0  0  0  0  0  0
  6  7  2  0
  7  8  1  0
  8  9  1  0
  9 10  2  0
  9 11  1  0
 11  1  1  0
  1  2  2  0
  2  3  1  0
  3 15  1  0
 15 16  2  0
 16 17  1  0
 17 18  2  0
 18 19  1  0
 18 20  1  0
 20 21  2  0
  3  4  1  0
  4  5  2  0
  5 22  1  0
 22 23  2  0
 23 24  1  0
 24 25  2  0
 25 26  1  0
 25 27  1  0
 27 28  2  0
 11 12  1  0
 12  7  1  0
  5  1  1  0
 28 22  1  0
 21 15  1  0
  8 13  1  0
 12 14  1  0
M  END
> <minimizedAffinity>
-7.51345

> <CNNscore>
0.3860845864

> <CNNaffinity>
5.8458142281

> <CNN_VS>
2.2569787502

> <CNNaffinity_variance>
0.0045297057

$$$$



 28 31  0  0  0  0  0  0  0  0999 V2000
   10.8112   10.1706  -35.0311 C   0  0  0  0  0  0  0  0  0  0  0  0
   12.1339    9.8658  -34.7596 C   0  0  0  0  0  0  0  0  0  0  0  0
   12.3165    8.5281  -35.0208 N   0  0  0  0  0  0  0  0  0  0  0  0
   11.1639    7.9517  -35.4305 N   0  0  0  0  0  0  0  0  0  0  0  0
   10.2594    8.9366  -35.4796 C   0  0  0  0  0  0  0  0  0  0  0  0
    7.0158   11.6649  -33.2456 O   0  0  0  0  0  0  0  0  0  0  0  0
    8.1831   11.7316  -33.5837 C   0  0  0  0  0  0  0  0  0  0  0  0
    9.1955   12.2654  -32.8627 N   0  0  0  0  0  0  0  0  0  0  0  0
   10.3774   12.1500  -33.5302 C   0  0  0  0  0  0  0  0  0  0  0  0
   11.4580   12.5326  -33.1062 O   0  0  0  0  0  0  0  0  0  0  0  0
   10.1089   11.4718  -34.8777 C   0  0  0  0  0  0  0  0  0  0  0  0
    8.6873   11.2633  -34.7705 N   0  0  0  0  0  0  0  0  0  0  0  0
    9.0923   12.6808  -31.9761 H   0  0  0  0  0  0  0  0  0  0  0  0
    8.1409   10.8343  -35.4682 H   0  0  0  0  0  0  0  0  0  0  0  0
   13.5098    7.7612  -34.8918 C   0  0  0  0  0  0  0  0  0  0  0  0
   14.7017    8.4023  -34.5087 C   0  0  0  0  0  0  0  0  0  0  0  0
   15.8841    7.6708  -34.3766 C   0  0  0  0  0  0  0  0  0  0  0  0
   15.8759    6.3048  -34.6256 C   0  0  0  0  0  0  0  0  0  0  0  0
   17.0095    5.6029  -34.4993 F   0  0  0  0  0  0  0  0  0  0  0  0
   14.7070    5.6543  -35.0039 C   0  0  0  0  0  0  0  0  0  0  0  0
   13.5186    6.3791  -35.1383 C   0  0  0  0  0  0  0  0  0  0  0  0
    8.8947    8.6579  -35.9162 C   0  0  0  0  0  0  0  0  0  0  0  0
    8.4259    9.1944  -37.1253 C   0  0  0  0  0  0  0  0  0  0  0  0
    7.1261    8.9255  -37.5584 C   0  0  0  0  0  0  0  0  0  0  0  0
    6.2961    8.1288  -36.7787 C   0  0  0  0  0  0  0  0  0  0  0  0
    5.0491    7.8709  -37.1937 F   0  0  0  0  0  0  0  0  0  0  0  0
    6.7382    7.6009  -35.5710 C   0  0  0  0  0  0  0  0  0  0  0  0
    8.0384    7.8681  -35.1354 C   0  0  0  0  0  0  0  0  0  0  0  0
  6  7  2  0
  7  8  1  0
  8  9  1  0
  9 10  2  0
  9 11  1  0
 11  1  1  0
  1  2  2  0
  2  3  1  0
  3 15  1  0
 15 16  2  0
 16 17  1  0
 17 18  2  0
 18 19  1  0
 18 20  1  0
 20 21  2  0
  3  4  1  0
  4  5  2  0
  5 22  1  0
 22 23  2  0
 23 24  1  0
 24 25  2  0
 25 26  1  0
 25 27  1  0
 27 28  2  0
 11 12  1  0
 12  7  1  0
  5  1  1  0
 28 22  1  0
 21 15  1  0
  8 13  1  0
 12 14  1  0
M  END
> <minimizedAffinity>
-7.87446

> <CNNscore>
0.3783699274

> <CNNaffinity>
5.1796107292

> <CNN_VS>
1.9598089457

> <CNNaffinity_variance>
0.1613648981

$$$$



 28 31  0  0  0  0  0  0  0  0999 V2000
    9.8248   10.0886  -35.0453 C   0  0  0  0  0  0  0  0  0  0  0  0
    8.5610    9.5304  -34.9598 C   0  0  0  0  0  0  0  0  0  0  0  0
    8.6820    8.1829  -35.2058 N   0  0  0  0  0  0  0  0  0  0  0  0
    9.9666    7.8502  -35.4658 N   0  0  0  0  0  0  0  0  0  0  0  0
   10.6712    8.9800  -35.3334 C   0  0  0  0  0  0  0  0  0  0  0  0
    8.1866   13.7727  -33.1558 O   0  0  0  0  0  0  0  0  0  0  0  0
    9.0623   13.0182  -33.5371 C   0  0  0  0  0  0  0  0  0  0  0  0
   10.1913   12.6981  -32.8643 N   0  0  0  0  0  0  0  0  0  0  0  0
   10.9384   11.8051  -33.5715 C   0  0  0  0  0  0  0  0  0  0  0  0
   12.0004   11.3315  -33.1948 O   0  0  0  0  0  0  0  0  0  0  0  0
   10.2218   11.5131  -34.8940 C   0  0  0  0  0  0  0  0  0  0  0  0
    9.0551   12.3429  -34.7312 N   0  0  0  0  0  0  0  0  0  0  0  0
   10.4394   13.0612  -31.9835 H   0  0  0  0  0  0  0  0  0  0  0  0
    8.3361   12.4167  -35.3997 H   0  0  0  0  0  0  0  0  0  0  0  0
    7.6550    7.1961  -35.2244 C   0  0  0  0  0  0  0  0  0  0  0  0
    7.5031    6.3401  -34.1186 C   0  0  0  0  0  0  0  0  0  0  0  0
    6.5036    5.3646  -34.1148 C   0  0  0  0  0  0  0  0  0  0  0  0
    5.6593    5.2447  -35.2106 C   0  0  0  0  0  0  0  0  0  0  0  0
    4.7009    4.3093  -35.2076 F   0  0  0  0  0  0  0  0  0  0  0  0
    5.7940    6.0827  -36.3116 C   0  0  0  0  0  0  0  0  0  0  0  0
    6.7919    7.0624  -36.3235 C   0  0  0  0  0  0  0  0  0  0  0  0
   12.1186    8.9680  -35.5227 C   0  0  0  0  0  0  0  0  0  0  0  0
   12.7141    9.8827  -36.4049 C   0  0  0  0  0  0  0  0  0  0  0  0
   14.0986    9.8879  -36.5857 C   0  0  0  0  0  0  0  0  0  0  0  0
   14.8827    8.9743  -35.8914 C   0  0  0  0  0  0  0  0  0  0  0  0
   16.2107    8.9788  -36.0648 F   0  0  0  0  0  0  0  0  0  0  0  0
   14.3090    8.0511  -35.0247 C   0  0  0  0  0  0  0  0  0  0  0  0
   12.9240    8.0439  -34.8417 C   0  0  0  0  0  0  0  0  0  0  0  0
  6  7  2  0
  7  8  1  0
  8  9  1  0
  9 10  2  0
  9 11  1  0
 11  1  1  0
  1  2  2  0
  2  3  1  0
  3 15  1  0
 15 16  2  0
 16 17  1  0
 17 18  2  0
 18 19  1  0
 18 20  1  0
 20 21  2  0
  3  4  1  0
  4  5  2  0
  5 22  1  0
 22 23  2  0
 23 24  1  0
 24 25  2  0
 25 26  1  0
 25 27  1  0
 27 28  2  0
 11 12  1  0
 12  7  1  0
  5  1  1  0
 28 22  1  0
 21 15  1  0
  8 13  1  0
 12 14  1  0
M  END
> <minimizedAffinity>
-7.64468

> <CNNscore>
0.3759940863

> <CNNaffinity>
5.1830406189

> <CNN_VS>
1.9487925768

> <CNNaffinity_variance>
0.0817729831

$$$$



 28 31  0  0  0  0  0  0  0  0999 V2000
   17.0036   10.6721  -37.1346 C   0  0  0  0  0  0  0  0  0  0  0  0
   17.3479    9.7688  -36.1438 C   0  0  0  0  0  0  0  0  0  0  0  0
   16.2469    8.9840  -35.8931 N   0  0  0  0  0  0  0  0  0  0  0  0
   15.2006    9.3544  -36.6655 N   0  0  0  0  0  0  0  0  0  0  0  0
   15.6534   10.3427  -37.4457 C   0  0  0  0  0  0  0  0  0  0  0  0
   18.1299   14.8683  -36.1605 O   0  0  0  0  0  0  0  0  0  0  0  0
   18.2943   13.7571  -36.6287 C   0  0  0  0  0  0  0  0  0  0  0  0
   19.4251   13.0181  -36.5572 N   0  0  0  0  0  0  0  0  0  0  0  0
   19.2530   11.8113  -37.1655 C   0  0  0  0  0  0  0  0  0  0  0  0
   20.1055   10.9382  -37.2362 O   0  0  0  0  0  0  0  0  0  0  0  0
   17.8308   11.7527  -37.7327 C   0  0  0  0  0  0  0  0  0  0  0  0
   17.3450   13.0435  -37.3156 N   0  0  0  0  0  0  0  0  0  0  0  0
   20.2590   13.3123  -36.1245 H   0  0  0  0  0  0  0  0  0  0  0  0
   16.4370   13.3750  -37.5020 H   0  0  0  0  0  0  0  0  0  0  0  0
   16.1214    7.9170  -34.9579 C   0  0  0  0  0  0  0  0  0  0  0  0
   17.1729    7.6626  -34.0590 C   0  0  0  0  0  0  0  0  0  0  0  0
   17.0724    6.6213  -33.1337 C   0  0  0  0  0  0  0  0  0  0  0  0
   15.9265    5.8375  -33.1063 C   0  0  0  0  0  0  0  0  0  0  0  0
   15.8297    4.8387  -32.2194 F   0  0  0  0  0  0  0  0  0  0  0  0
   14.8769    6.0751  -33.9863 C   0  0  0  0  0  0  0  0  0  0  0  0
   14.9691    7.1160  -34.9158 C   0  0  0  0  0  0  0  0  0  0  0  0
   14.7722   10.9608  -38.4318 C   0  0  0  0  0  0  0  0  0  0  0  0
   13.6780   11.7289  -38.0050 C   0  0  0  0  0  0  0  0  0  0  0  0
   12.8349   12.3341  -38.9390 C   0  0  0  0  0  0  0  0  0  0  0  0
   13.0823   12.1631  -40.2960 C   0  0  0  0  0  0  0  0  0  0  0  0
   12.2736   12.7432  -41.1922 F   0  0  0  0  0  0  0  0  0  0  0  0
   14.1526   11.3936  -40.7374 C   0  0  0  0  0  0  0  0  0  0  0  0
   14.9980   10.7872  -39.8049 C   0  0  0  0  0  0  0  0  0  0  0  0
  6  7  2  0
  7  8  1  0
  8  9  1  0
  9 10  2  0
  9 11  1  0
 11  1  1  0
  1  2  2  0
  2  3  1  0
  3 15  1  0
 15 16  2  0
 16 17  1  0
 17 18  2  0
 18 19  1  0
 18 20  1  0
 20 21  2  0
  3  4  1  0
  4  5  2  0
  5 22  1  0
 22 23  2  0
 23 24  1  0
 24 25  2  0
 25 26  1  0
 25 27  1  0
 27 28  2  0
 11 12  1  0
 12  7  1  0
  5  1  1  0
 28 22  1  0
 21 15  1  0
  8 13  1  0
 12 14  1  0
M  END
> <minimizedAffinity>
-6.20753

> <CNNscore>
0.3367570639

> <CNNaffinity>
5.4973506927

> <CNN_VS>
1.8512716293

> <CNNaffinity_variance>
0.0574343801

$$$$



 28 31  0  0  0  0  0  0  0  0999 V2000
   19.4270    9.9983  -41.6556 C   0  0  0  0  0  0  0  0  0  0  0  0
   19.9114   10.6003  -40.5071 C   0  0  0  0  0  0  0  0  0  0  0  0
   18.8433   10.8242  -39.6704 N   0  0  0  0  0  0  0  0  0  0  0  0
   17.6874   10.4106  -40.2374 N   0  0  0  0  0  0  0  0  0  0  0  0
   18.0286    9.8752  -41.4153 C   0  0  0  0  0  0  0  0  0  0  0  0
   23.6719    9.7423  -42.9752 O   0  0  0  0  0  0  0  0  0  0  0  0
   22.5014    9.4111  -42.9371 C   0  0  0  0  0  0  0  0  0  0  0  0
   22.0299    8.1447  -42.8760 N   0  0  0  0  0  0  0  0  0  0  0  0
   20.6688    8.1380  -42.8199 C   0  0  0  0  0  0  0  0  0  0  0  0
   19.9791    7.1319  -42.7425 O   0  0  0  0  0  0  0  0  0  0  0  0
   20.1742    9.5872  -42.8731 C   0  0  0  0  0  0  0  0  0  0  0  0
   21.4373   10.2771  -42.9416 N   0  0  0  0  0  0  0  0  0  0  0  0
   22.5938    7.3377  -42.8727 H   0  0  0  0  0  0  0  0  0  0  0  0
   21.5265   11.2565  -42.9864 H   0  0  0  0  0  0  0  0  0  0  0  0
   18.8489   11.4185  -38.3759 C   0  0  0  0  0  0  0  0  0  0  0  0
   18.9996   12.8120  -38.2592 C   0  0  0  0  0  0  0  0  0  0  0  0
   19.0088   13.4167  -37.0003 C   0  0  0  0  0  0  0  0  0  0  0  0
   18.8678   12.6328  -35.8629 C   0  0  0  0  0  0  0  0  0  0  0  0
   18.8768   13.2121  -34.6554 F   0  0  0  0  0  0  0  0  0  0  0  0
   18.7166   11.2543  -35.9592 C   0  0  0  0  0  0  0  0  0  0  0  0
   18.7060   10.6407  -37.2159 C   0  0  0  0  0  0  0  0  0  0  0  0
   17.0055    9.3002  -42.2834 C   0  0  0  0  0  0  0  0  0  0  0  0
   17.2150    9.2506  -43.6701 C   0  0  0  0  0  0  0  0  0  0  0  0
   16.2484    8.6929  -44.5092 C   0  0  0  0  0  0  0  0  0  0  0  0
   15.0722    8.1945  -43.9615 C   0  0  0  0  0  0  0  0  0  0  0  0
   14.1446    7.6598  -44.7661 F   0  0  0  0  0  0  0  0  0  0  0  0
   14.8409    8.2486  -42.5918 C   0  0  0  0  0  0  0  0  0  0  0  0
   15.8065    8.8058  -41.7499 C   0  0  0  0  0  0  0  0  0  0  0  0
  6  7  2  0
  7  8  1  0
  8  9  1  0
  9 10  2  0
  9 11  1  0
 11  1  1  0
  1  2  2  0
  2  3  1  0
  3 15  1  0
 15 16  2  0
 16 17  1  0
 17 18  2  0
 18 19  1  0
 18 20  1  0
 20 21  2  0
  3  4  1  0
  4  5  2  0
  5 22  1  0
 22 23  2  0
 23 24  1  0
 24 25  2  0
 25 26  1  0
 25 27  1  0
 27 28  2  0
 11 12  1  0
 12  7  1  0
  5  1  1  0
 28 22  1  0
 21 15  1  0
  8 13  1  0
 12 14  1  0
M  END
> <minimizedAffinity>
-5.27221

> <CNNscore>
0.3261482120

> <CNNaffinity>
4.5556073189

> <CNN_VS>
1.4858031273

> <CNNaffinity_variance>
0.4005428851

$$$$
