


 24 26  0  0  0  0  0  0  0  0999 V2000
   29.9337   -7.6488   57.6609 C   0  0  0  0  0  0  0  0  0  0  0  0
   30.6217   -8.4693   56.8435 C   0  0  0  0  0  0  0  0  0  0  0  0
   29.9872   -9.3190   55.7716 C   0  0  0  0  0  0  0  0  0  0  0  0
   31.0138   -9.9603   54.8441 C   0  0  0  0  0  0  0  0  0  0  0  0
   32.1612   -8.9953   54.5923 C   0  0  0  0  0  0  0  0  0  0  0  0
   32.8641   -8.7194   55.8471 N   0  0  0  0  0  0  0  0  0  0  0  0
   32.1257   -8.4950   56.8848 C   0  0  0  0  0  0  0  0  0  0  0  0
   27.7924   -6.8680   58.7116 C   0  0  0  0  0  0  0  0  0  0  0  0
   26.3935   -6.8282   58.7078 C   0  0  0  0  0  0  0  0  0  0  0  0
   25.6872   -7.4817   57.6982 C   0  0  0  0  0  0  0  0  0  0  0  0
   24.3232   -7.4661   57.6604 O   0  0  0  0  0  0  0  0  0  0  0  0
   26.3459   -8.1748   56.6908 C   0  0  0  0  0  0  0  0  0  0  0  0
   27.7380   -8.2217   56.6862 C   0  0  0  0  0  0  0  0  0  0  0  0
   28.4662   -7.5741   57.6932 C   0  0  0  0  0  0  0  0  0  0  0  0
   23.8414   -7.0096   58.3218 H   0  0  0  0  0  0  0  0  0  0  0  0
   28.2036   -6.3795   61.0152 C   0  0  0  0  0  0  0  0  0  0  0  0
   28.5894   -6.2634   59.6523 O   0  0  0  0  0  0  0  0  0  0  0  0
   32.8153   -8.2816   58.1840 C   0  0  0  0  0  0  0  0  0  0  0  0
   33.0192   -9.3213   59.0897 C   0  0  0  0  0  0  0  0  0  0  0  0
   33.6648   -9.1763   60.2756 N   0  0  0  0  0  0  0  0  0  0  0  0
   34.1442   -7.9387   60.5485 C   0  0  0  0  0  0  0  0  0  0  0  0
   34.0070   -6.8568   59.6942 C   0  0  0  0  0  0  0  0  0  0  0  0
   34.5121   -5.6619   60.0248 F   0  0  0  0  0  0  0  0  0  0  0  0
   33.3394   -7.0248   58.4911 C   0  0  0  0  0  0  0  0  0  0  0  0
 16 17  1  0
 17  8  1  0
  8  9  2  0
  9 10  1  0
 10 11  1  0
 10 12  2  0
 12 13  1  0
 13 14  2  0
 14  1  1  0
  1  2  2  0
  2  3  1  0
  3  4  1  0
  4  5  1  0
  5  6  1  0
  6  7  2  0
  7 18  1  0
 18 19  2  0
 19 20  1  0
 20 21  2  0
 21 22  1  0
 22 23  1  0
 22 24  2  0
 14  8  1  0
  7  2  1  0
 24 18  1  0
 11 15  1  0
M  END
> <minimizedAffinity>
-8.02749

> <CNNscore>
0.8206085563

> <CNNaffinity>
6.6373353004

> <CNN_VS>
5.4466543198

> <CNNaffinity_variance>
0.0628118888

$$$$



 24 26  0  0  0  0  0  0  0  0999 V2000
   31.7517   -6.2214   62.4759 C   0  0  0  0  0  0  0  0  0  0  0  0
   30.7346   -5.3889   62.1807 C   0  0  0  0  0  0  0  0  0  0  0  0
   29.7938   -4.8091   63.2065 C   0  0  0  0  0  0  0  0  0  0  0  0
   28.8961   -3.7184   62.6320 C   0  0  0  0  0  0  0  0  0  0  0  0
   29.6714   -2.8838   61.6253 C   0  0  0  0  0  0  0  0  0  0  0  0
   30.0731   -3.7185   60.4909 N   0  0  0  0  0  0  0  0  0  0  0  0
   30.5487   -4.8872   60.7744 C   0  0  0  0  0  0  0  0  0  0  0  0
   32.3095   -5.9243   64.9049 C   0  0  0  0  0  0  0  0  0  0  0  0
   32.5392   -6.4872   66.1654 C   0  0  0  0  0  0  0  0  0  0  0  0
   32.4493   -7.8692   66.3309 C   0  0  0  0  0  0  0  0  0  0  0  0
   32.6667   -8.4553   67.5439 O   0  0  0  0  0  0  0  0  0  0  0  0
   32.1349   -8.7033   65.2659 C   0  0  0  0  0  0  0  0  0  0  0  0
   31.9058   -8.1533   64.0069 C   0  0  0  0  0  0  0  0  0  0  0  0
   31.9939   -6.7674   63.8189 C   0  0  0  0  0  0  0  0  0  0  0  0
   32.8813   -7.9273   68.2876 H   0  0  0  0  0  0  0  0  0  0  0  0
   31.9866   -3.6767   65.6519 C   0  0  0  0  0  0  0  0  0  0  0  0
   32.3704   -4.5813   64.6252 O   0  0  0  0  0  0  0  0  0  0  0  0
   30.8980   -5.7794   59.6381 C   0  0  0  0  0  0  0  0  0  0  0  0
   32.1413   -5.7216   59.0108 C   0  0  0  0  0  0  0  0  0  0  0  0
   32.5107   -6.5331   57.9865 N   0  0  0  0  0  0  0  0  0  0  0  0
   31.5984   -7.4550   57.5945 C   0  0  0  0  0  0  0  0  0  0  0  0
   30.3503   -7.5965   58.1790 C   0  0  0  0  0  0  0  0  0  0  0  0
   29.4997   -8.5349   57.7454 F   0  0  0  0  0  0  0  0  0  0  0  0
   29.9908   -6.7541   59.2194 C   0  0  0  0  0  0  0  0  0  0  0  0
 16 17  1  0
 17  8  1  0
  8  9  2  0
  9 10  1  0
 10 11  1  0
 10 12  2  0
 12 13  1  0
 13 14  2  0
 14  1  1  0
  1  2  2  0
  2  3  1  0
  3  4  1  0
  4  5  1  0
  5  6  1  0
  6  7  2  0
  7 18  1  0
 18 19  2  0
 19 20  1  0
 20 21  2  0
 21 22  1  0
 22 23  1  0
 22 24  2  0
 14  8  1  0
  7  2  1  0
 24 18  1  0
 11 15  1  0
M  END
> <minimizedAffinity>
-6.31199

> <CNNscore>
0.8152295947

> <CNNaffinity>
6.9859619141

> <CNN_VS>
5.6951627731

> <CNNaffinity_variance>
0.6945760846

$$$$



 24 26  0  0  0  0  0  0  0  0999 V2000
   31.8207   -4.1420   65.6925 C   0  0  0  0  0  0  0  0  0  0  0  0
   31.0246   -4.0229   64.6123 C   0  0  0  0  0  0  0  0  0  0  0  0
   30.2774   -2.7646   64.2493 C   0  0  0  0  0  0  0  0  0  0  0  0
   29.6515   -2.8316   62.8604 C   0  0  0  0  0  0  0  0  0  0  0  0
   30.5767   -3.5725   61.9085 C   0  0  0  0  0  0  0  0  0  0  0  0
   30.7368   -4.9600   62.3490 N   0  0  0  0  0  0  0  0  0  0  0  0
   30.9266   -5.1452   63.6148 C   0  0  0  0  0  0  0  0  0  0  0  0
   32.9080   -2.0634   66.5849 C   0  0  0  0  0  0  0  0  0  0  0  0
   33.0127   -1.0958   67.5905 C   0  0  0  0  0  0  0  0  0  0  0  0
   32.1793   -1.1672   68.7066 C   0  0  0  0  0  0  0  0  0  0  0  0
   32.2515   -0.2429   69.7079 O   0  0  0  0  0  0  0  0  0  0  0  0
   31.2423   -2.1835   68.8422 C   0  0  0  0  0  0  0  0  0  0  0  0
   31.1311   -3.1525   67.8477 C   0  0  0  0  0  0  0  0  0  0  0  0
   31.9610   -3.1002   66.7198 C   0  0  0  0  0  0  0  0  0  0  0  0
   32.8704    0.4585   69.6542 H   0  0  0  0  0  0  0  0  0  0  0  0
   33.9873   -0.8513   64.8299 C   0  0  0  0  0  0  0  0  0  0  0  0
   33.6738   -2.0933   65.4455 O   0  0  0  0  0  0  0  0  0  0  0  0
   31.0220   -6.5483   64.0957 C   0  0  0  0  0  0  0  0  0  0  0  0
   31.8705   -6.9135   65.1395 C   0  0  0  0  0  0  0  0  0  0  0  0
   31.9711   -8.1774   65.6261 N   0  0  0  0  0  0  0  0  0  0  0  0
   31.1672   -9.1051   65.0527 C   0  0  0  0  0  0  0  0  0  0  0  0
   30.2784   -8.8228   64.0282 C   0  0  0  0  0  0  0  0  0  0  0  0
   29.5079   -9.7882   63.5120 F   0  0  0  0  0  0  0  0  0  0  0  0
   30.1954   -7.5273   63.5421 C   0  0  0  0  0  0  0  0  0  0  0  0
 16 17  1  0
 17  8  1  0
  8  9  2  0
  9 10  1  0
 10 11  1  0
 10 12  2  0
 12 13  1  0
 13 14  2  0
 14  1  1  0
  1  2  2  0
  2  3  1  0
  3  4  1  0
  4  5  1  0
  5  6  1  0
  6  7  2  0
  7 18  1  0
 18 19  2  0
 19 20  1  0
 20 21  2  0
 21 22  1  0
 22 23  1  0
 22 24  2  0
 14  8  1  0
  7  2  1  0
 24 18  1  0
 11 15  1  0
M  END
> <minimizedAffinity>
-7.51869

> <CNNscore>
0.7784371376

> <CNNaffinity>
6.9213943481

> <CNN_VS>
5.3878703117

> <CNNaffinity_variance>
0.4934173524

$$$$



 24 26  0  0  0  0  0  0  0  0999 V2000
   29.5229   -6.0151   60.9462 C   0  0  0  0  0  0  0  0  0  0  0  0
   30.3269   -6.1099   59.8695 C   0  0  0  0  0  0  0  0  0  0  0  0
   31.6723   -5.4381   59.7593 C   0  0  0  0  0  0  0  0  0  0  0  0
   32.4666   -5.9067   58.5449 C   0  0  0  0  0  0  0  0  0  0  0  0
   32.2400   -7.3926   58.3173 C   0  0  0  0  0  0  0  0  0  0  0  0
   30.8314   -7.6386   58.0008 N   0  0  0  0  0  0  0  0  0  0  0  0
   29.9599   -7.0164   58.7260 C   0  0  0  0  0  0  0  0  0  0  0  0
   30.6137   -5.5792   63.1641 C   0  0  0  0  0  0  0  0  0  0  0  0
   30.8471   -4.7190   64.2430 C   0  0  0  0  0  0  0  0  0  0  0  0
   30.2782   -3.4455   64.2460 C   0  0  0  0  0  0  0  0  0  0  0  0
   30.4822   -2.5784   65.2798 O   0  0  0  0  0  0  0  0  0  0  0  0
   29.4809   -3.0102   63.1954 C   0  0  0  0  0  0  0  0  0  0  0  0
   29.2412   -3.8591   62.1174 C   0  0  0  0  0  0  0  0  0  0  0  0
   29.8011   -5.1436   62.0965 C   0  0  0  0  0  0  0  0  0  0  0  0
   31.0140   -2.8340   66.0076 H   0  0  0  0  0  0  0  0  0  0  0  0
   30.5195   -7.8694   63.8423 C   0  0  0  0  0  0  0  0  0  0  0  0
   31.1201   -6.8508   63.0539 O   0  0  0  0  0  0  0  0  0  0  0  0
   28.5258   -7.1955   58.3790 C   0  0  0  0  0  0  0  0  0  0  0  0
   27.5105   -6.5568   59.0889 C   0  0  0  0  0  0  0  0  0  0  0  0
   26.1905   -6.6729   58.7914 N   0  0  0  0  0  0  0  0  0  0  0  0
   25.8840   -7.4454   57.7212 C   0  0  0  0  0  0  0  0  0  0  0  0
   26.8314   -8.0953   56.9471 C   0  0  0  0  0  0  0  0  0  0  0  0
   26.4578   -8.8382   55.8980 F   0  0  0  0  0  0  0  0  0  0  0  0
   28.1731   -7.9684   57.2714 C   0  0  0  0  0  0  0  0  0  0  0  0
 16 17  1  0
 17  8  1  0
  8  9  2  0
  9 10  1  0
 10 11  1  0
 10 12  2  0
 12 13  1  0
 13 14  2  0
 14  1  1  0
  1  2  2  0
  2  3  1  0
  3  4  1  0
  4  5  1  0
  5  6  1  0
  6  7  2  0
  7 18  1  0
 18 19  2  0
 19 20  1  0
 20 21  2  0
 21 22  1  0
 22 23  1  0
 22 24  2  0
 14  8  1  0
  7  2  1  0
 24 18  1  0
 11 15  1  0
M  END
> <minimizedAffinity>
-7.93837

> <CNNscore>
0.7347282767

> <CNNaffinity>
7.0056557655

> <CNN_VS>
5.1472535133

> <CNNaffinity_variance>
0.2456805706

$$$$



 24 26  0  0  0  0  0  0  0  0999 V2000
   32.0431   -3.0328   62.0746 C   0  0  0  0  0  0  0  0  0  0  0  0
   30.8435   -3.6268   62.2254 C   0  0  0  0  0  0  0  0  0  0  0  0
   29.7369   -3.5653   61.2032 C   0  0  0  0  0  0  0  0  0  0  0  0
   28.5891   -4.5180   61.5200 C   0  0  0  0  0  0  0  0  0  0  0  0
   29.1336   -5.8121   62.1029 C   0  0  0  0  0  0  0  0  0  0  0  0
   29.8007   -5.5418   63.3782 N   0  0  0  0  0  0  0  0  0  0  0  0
   30.5779   -4.5088   63.4153 C   0  0  0  0  0  0  0  0  0  0  0  0
   33.3408   -1.1249   61.0872 C   0  0  0  0  0  0  0  0  0  0  0  0
   33.6237   -0.2993   59.9932 C   0  0  0  0  0  0  0  0  0  0  0  0
   32.9547   -0.4998   58.7859 C   0  0  0  0  0  0  0  0  0  0  0  0
   33.2027    0.2844   57.6971 O   0  0  0  0  0  0  0  0  0  0  0  0
   32.0085   -1.5069   58.6452 C   0  0  0  0  0  0  0  0  0  0  0  0
   31.7185   -2.3332   59.7284 C   0  0  0  0  0  0  0  0  0  0  0  0
   32.3776   -2.1465   60.9509 C   0  0  0  0  0  0  0  0  0  0  0  0
   33.8339    0.9748   57.7510 H   0  0  0  0  0  0  0  0  0  0  0  0
   34.6957    0.1504   62.5878 C   0  0  0  0  0  0  0  0  0  0  0  0
   33.9356   -1.0203   62.3204 O   0  0  0  0  0  0  0  0  0  0  0  0
   31.2113   -4.1736   64.7174 C   0  0  0  0  0  0  0  0  0  0  0  0
   32.0733   -5.0559   65.3665 C   0  0  0  0  0  0  0  0  0  0  0  0
   32.6919   -4.7810   66.5438 N   0  0  0  0  0  0  0  0  0  0  0  0
   32.4497   -3.5587   67.0760 C   0  0  0  0  0  0  0  0  0  0  0  0
   31.6268   -2.6137   66.4851 C   0  0  0  0  0  0  0  0  0  0  0  0
   31.4372   -1.4214   67.0636 F   0  0  0  0  0  0  0  0  0  0  0  0
   31.0003   -2.9165   65.2863 C   0  0  0  0  0  0  0  0  0  0  0  0
 16 17  1  0
 17  8  1  0
  8  9  2  0
  9 10  1  0
 10 11  1  0
 10 12  2  0
 12 13  1  0
 13 14  2  0
 14  1  1  0
  1  2  2  0
  2  3  1  0
  3  4  1  0
  4  5  1  0
  5  6  1  0
  6  7  2  0
  7 18  1  0
 18 19  2  0
 19 20  1  0
 20 21  2  0
 21 22  1  0
 22 23  1  0
 22 24  2  0
 14  8  1  0
  7  2  1  0
 24 18  1  0
 11 15  1  0
M  END
> <minimizedAffinity>
-8.48798

> <CNNscore>
0.6987345219

> <CNNaffinity>
6.3204703331

> <CNN_VS>
4.4163308144

> <CNNaffinity_variance>
0.0613480173

$$$$



 24 26  0  0  0  0  0  0  0  0999 V2000
   31.7457   -7.2084   62.1101 C   0  0  0  0  0  0  0  0  0  0  0  0
   30.4722   -7.0530   61.6994 C   0  0  0  0  0  0  0  0  0  0  0  0
   29.2805   -7.0628   62.6231 C   0  0  0  0  0  0  0  0  0  0  0  0
   27.9943   -6.6270   61.9293 C   0  0  0  0  0  0  0  0  0  0  0  0
   28.2900   -5.5122   60.9390 C   0  0  0  0  0  0  0  0  0  0  0  0
   29.1741   -6.0072   59.8815 N   0  0  0  0  0  0  0  0  0  0  0  0
   30.1728   -6.7369   60.2590 C   0  0  0  0  0  0  0  0  0  0  0  0
   32.2044   -8.8693   63.9350 C   0  0  0  0  0  0  0  0  0  0  0  0
   32.5595   -9.1320   65.2629 C   0  0  0  0  0  0  0  0  0  0  0  0
   32.8298   -8.0717   66.1279 C   0  0  0  0  0  0  0  0  0  0  0  0
   33.1788   -8.2874   67.4293 O   0  0  0  0  0  0  0  0  0  0  0  0
   32.7539   -6.7534   65.6972 C   0  0  0  0  0  0  0  0  0  0  0  0
   32.3999   -6.4811   64.3778 C   0  0  0  0  0  0  0  0  0  0  0  0
   32.1217   -7.5321   63.4936 C   0  0  0  0  0  0  0  0  0  0  0  0
   33.2412   -9.1623   67.7588 H   0  0  0  0  0  0  0  0  0  0  0  0
   30.7202  -10.5780   63.1657 C   0  0  0  0  0  0  0  0  0  0  0  0
   31.9172   -9.8306   62.9974 O   0  0  0  0  0  0  0  0  0  0  0  0
   31.0437   -7.3086   59.1990 C   0  0  0  0  0  0  0  0  0  0  0  0
   31.9834   -6.5346   58.5202 C   0  0  0  0  0  0  0  0  0  0  0  0
   32.8151   -7.0209   57.5631 N   0  0  0  0  0  0  0  0  0  0  0  0
   32.7109   -8.3452   57.2962 C   0  0  0  0  0  0  0  0  0  0  0  0
   31.8222   -9.1904   57.9405 C   0  0  0  0  0  0  0  0  0  0  0  0
   31.7772  -10.4921   57.6313 F   0  0  0  0  0  0  0  0  0  0  0  0
   30.9779   -8.6727   58.9103 C   0  0  0  0  0  0  0  0  0  0  0  0
 16 17  1  0
 17  8  1  0
  8  9  2  0
  9 10  1  0
 10 11  1  0
 10 12  2  0
 12 13  1  0
 13 14  2  0
 14  1  1  0
  1  2  2  0
  2  3  1  0
  3  4  1  0
  4  5  1  0
  5  6  1  0
  6  7  2  0
  7 18  1  0
 18 19  2  0
 19 20  1  0
 20 21  2  0
 21 22  1  0
 22 23  1  0
 22 24  2  0
 14  8  1  0
  7  2  1  0
 24 18  1  0
 11 15  1  0
M  END
> <minimizedAffinity>
-6.72475

> <CNNscore>
0.6832231283

> <CNNaffinity>
6.4541401863

> <CNN_VS>
4.4096179008

> <CNNaffinity_variance>
0.3000674546

$$$$



 24 26  0  0  0  0  0  0  0  0999 V2000
   31.3806   -5.4902   62.2526 C   0  0  0  0  0  0  0  0  0  0  0  0
   30.2649   -6.0616   61.7592 C   0  0  0  0  0  0  0  0  0  0  0  0
   28.9440   -6.0990   62.4852 C   0  0  0  0  0  0  0  0  0  0  0  0
   27.8007   -6.5883   61.6026 C   0  0  0  0  0  0  0  0  0  0  0  0
   27.9753   -6.0626   60.1869 C   0  0  0  0  0  0  0  0  0  0  0  0
   29.2021   -6.6073   59.6014 N   0  0  0  0  0  0  0  0  0  0  0  0
   30.2503   -6.6122   60.3588 C   0  0  0  0  0  0  0  0  0  0  0  0
   31.2606   -3.5729   63.8677 C   0  0  0  0  0  0  0  0  0  0  0  0
   31.3742   -3.0924   65.1771 C   0  0  0  0  0  0  0  0  0  0  0  0
   31.6999   -3.9720   66.2094 C   0  0  0  0  0  0  0  0  0  0  0  0
   31.8201   -3.5416   67.4987 O   0  0  0  0  0  0  0  0  0  0  0  0
   31.9148   -5.3222   65.9643 C   0  0  0  0  0  0  0  0  0  0  0  0
   31.8056   -5.8103   64.6643 C   0  0  0  0  0  0  0  0  0  0  0  0
   31.4820   -4.9425   63.6127 C   0  0  0  0  0  0  0  0  0  0  0  0
   31.6830   -2.6381   67.7056 H   0  0  0  0  0  0  0  0  0  0  0  0
   32.0204   -2.3019   61.9912 C   0  0  0  0  0  0  0  0  0  0  0  0
   30.9461   -2.8015   62.7760 O   0  0  0  0  0  0  0  0  0  0  0  0
   31.4892   -7.2238   59.8112 C   0  0  0  0  0  0  0  0  0  0  0  0
   31.4702   -8.4334   59.1190 C   0  0  0  0  0  0  0  0  0  0  0  0
   32.5734   -9.0153   58.5816 N   0  0  0  0  0  0  0  0  0  0  0  0
   33.7383   -8.3389   58.7282 C   0  0  0  0  0  0  0  0  0  0  0  0
   33.8417   -7.1207   59.3797 C   0  0  0  0  0  0  0  0  0  0  0  0
   35.0252   -6.5034   59.4819 F   0  0  0  0  0  0  0  0  0  0  0  0
   32.7045   -6.5467   59.9262 C   0  0  0  0  0  0  0  0  0  0  0  0
 16 17  1  0
 17  8  1  0
  8  9  2  0
  9 10  1  0
 10 11  1  0
 10 12  2  0
 12 13  1  0
 13 14  2  0
 14  1  1  0
  1  2  2  0
  2  3  1  0
  3  4  1  0
  4  5  1  0
  5  6  1  0
  6  7  2  0
  7 18  1  0
 18 19  2  0
 19 20  1  0
 20 21  2  0
 21 22  1  0
 22 23  1  0
 22 24  2  0
 14  8  1  0
  7  2  1  0
 24 18  1  0
 11 15  1  0
M  END
> <minimizedAffinity>
-7.37970

> <CNNscore>
0.6748293638

> <CNNaffinity>
6.5576934814

> <CNN_VS>
4.4253239632

> <CNNaffinity_variance>
0.4938687384

$$$$



 24 26  0  0  0  0  0  0  0  0999 V2000
   31.3971   -8.0297   61.4865 C   0  0  0  0  0  0  0  0  0  0  0  0
   30.2082   -7.3968   61.5092 C   0  0  0  0  0  0  0  0  0  0  0  0
   29.2230   -7.4922   62.6466 C   0  0  0  0  0  0  0  0  0  0  0  0
   28.0785   -6.4926   62.5196 C   0  0  0  0  0  0  0  0  0  0  0  0
   28.5954   -5.1796   61.9541 C   0  0  0  0  0  0  0  0  0  0  0  0
   29.1047   -5.3884   60.5969 N   0  0  0  0  0  0  0  0  0  0  0  0
   29.8386   -6.4368   60.4109 C   0  0  0  0  0  0  0  0  0  0  0  0
   32.5878   -8.5809   63.6260 C   0  0  0  0  0  0  0  0  0  0  0  0
   32.9823   -9.5315   64.5742 C   0  0  0  0  0  0  0  0  0  0  0  0
   32.6163  -10.8669   64.4065 C   0  0  0  0  0  0  0  0  0  0  0  0
   32.9821  -11.8228   65.3090 O   0  0  0  0  0  0  0  0  0  0  0  0
   31.8643  -11.2758   63.3127 C   0  0  0  0  0  0  0  0  0  0  0  0
   31.4678  -10.3378   62.3624 C   0  0  0  0  0  0  0  0  0  0  0  0
   31.8276   -8.9916   62.5110 C   0  0  0  0  0  0  0  0  0  0  0  0
   33.4898  -11.5877   66.0606 H   0  0  0  0  0  0  0  0  0  0  0  0
   32.3229   -6.4882   64.7505 C   0  0  0  0  0  0  0  0  0  0  0  0
   32.8895   -7.2427   63.6877 O   0  0  0  0  0  0  0  0  0  0  0  0
   30.3092   -6.7078   59.0274 C   0  0  0  0  0  0  0  0  0  0  0  0
   30.2066   -7.9715   58.4483 C   0  0  0  0  0  0  0  0  0  0  0  0
   30.6012   -8.2573   57.1806 N   0  0  0  0  0  0  0  0  0  0  0  0
   31.0976   -7.2223   56.4607 C   0  0  0  0  0  0  0  0  0  0  0  0
   31.2116   -5.9314   56.9504 C   0  0  0  0  0  0  0  0  0  0  0  0
   31.7055   -4.9540   56.1805 F   0  0  0  0  0  0  0  0  0  0  0  0
   30.8085   -5.6622   58.2490 C   0  0  0  0  0  0  0  0  0  0  0  0
 16 17  1  0
 17  8  1  0
  8  9  2  0
  9 10  1  0
 10 11  1  0
 10 12  2  0
 12 13  1  0
 13 14  2  0
 14  1  1  0
  1  2  2  0
  2  3  1  0
  3  4  1  0
  4  5  1  0
  5  6  1  0
  6  7  2  0
  7 18  1  0
 18 19  2  0
 19 20  1  0
 20 21  2  0
 21 22  1  0
 22 23  1  0
 22 24  2  0
 14  8  1  0
  7  2  1  0
 24 18  1  0
 11 15  1  0
M  END
> <minimizedAffinity>
-6.36830

> <CNNscore>
0.6080893278

> <CNNaffinity>
6.6948304176

> <CNN_VS>
4.0710549355

> <CNNaffinity_variance>
0.5368589759

$$$$



 24 26  0  0  0  0  0  0  0  0999 V2000
   29.8595   -6.1745   58.5469 C   0  0  0  0  0  0  0  0  0  0  0  0
   30.8993   -6.8944   59.0110 C   0  0  0  0  0  0  0  0  0  0  0  0
   30.9518   -8.4012   59.0056 C   0  0  0  0  0  0  0  0  0  0  0  0
   32.3318   -8.9435   59.3619 C   0  0  0  0  0  0  0  0  0  0  0  0
   33.4101   -8.0556   58.7619 C   0  0  0  0  0  0  0  0  0  0  0  0
   33.3359   -6.7162   59.3494 N   0  0  0  0  0  0  0  0  0  0  0  0
   32.1547   -6.2041   59.4711 C   0  0  0  0  0  0  0  0  0  0  0  0
   27.4016   -6.5989   58.8258 C   0  0  0  0  0  0  0  0  0  0  0  0
   26.2210   -7.1890   58.3605 C   0  0  0  0  0  0  0  0  0  0  0  0
   26.2393   -7.9322   57.1804 C   0  0  0  0  0  0  0  0  0  0  0  0
   25.1091   -8.5229   56.6949 O   0  0  0  0  0  0  0  0  0  0  0  0
   27.4105   -8.1000   56.4528 C   0  0  0  0  0  0  0  0  0  0  0  0
   28.5913   -7.5180   56.9079 C   0  0  0  0  0  0  0  0  0  0  0  0
   28.5947   -6.7698   58.0928 C   0  0  0  0  0  0  0  0  0  0  0  0
   24.2985   -8.4335   57.1563 H   0  0  0  0  0  0  0  0  0  0  0  0
   27.8037   -6.5300   61.1811 C   0  0  0  0  0  0  0  0  0  0  0  0
   27.5022   -5.8482   59.9712 O   0  0  0  0  0  0  0  0  0  0  0  0
   32.0477   -4.8754   60.1285 C   0  0  0  0  0  0  0  0  0  0  0  0
   33.1745   -4.1320   60.4756 C   0  0  0  0  0  0  0  0  0  0  0  0
   33.1227   -2.9048   61.0548 N   0  0  0  0  0  0  0  0  0  0  0  0
   31.8852   -2.3972   61.2715 C   0  0  0  0  0  0  0  0  0  0  0  0
   30.7149   -3.0578   60.9352 C   0  0  0  0  0  0  0  0  0  0  0  0
   29.5243   -2.4934   61.1719 F   0  0  0  0  0  0  0  0  0  0  0  0
   30.7899   -4.3121   60.3501 C   0  0  0  0  0  0  0  0  0  0  0  0
 16 17  1  0
 17  8  1  0
  8  9  2  0
  9 10  1  0
 10 11  1  0
 10 12  2  0
 12 13  1  0
 13 14  2  0
 14  1  1  0
  1  2  2  0
  2  3  1  0
  3  4  1  0
  4  5  1  0
  5  6  1  0
  6  7  2  0
  7 18  1  0
 18 19  2  0
 19 20  1  0
 20 21  2  0
 21 22  1  0
 22 23  1  0
 22 24  2  0
 14  8  1  0
  7  2  1  0
 24 18  1  0
 11 15  1  0
M  END
> <minimizedAffinity>
-8.75620

> <CNNscore>
0.5844418406

> <CNNaffinity>
6.4606471062

> <CNN_VS>
3.7758724689

> <CNNaffinity_variance>
0.0714505389

$$$$
