


 31 34  0  0  0  0  0  0  0  0999 V2000
   -0.4533   33.2490   -4.5385 C   0  0  0  0  0  0  0  0  0  0  0  0
   -1.1202   32.7641   -5.6047 N   0  0  0  0  0  0  0  0  0  0  0  0
   -0.6384   33.4607   -6.6436 N   0  0  0  0  0  0  0  0  0  0  0  0
    0.2719   34.4231   -6.3142 C   0  0  0  0  0  0  0  0  0  0  0  0
    0.4211   34.3144   -4.9401 C   0  0  0  0  0  0  0  0  0  0  0  0
   -0.9191   33.2913   -7.5720 H   0  0  0  0  0  0  0  0  0  0  0  0
    0.0813   31.6552   -1.1275 C   0  0  0  0  0  0  0  0  0  0  0  0
    0.3127   32.1394   -2.4286 C   0  0  0  0  0  0  0  0  0  0  0  0
   -0.7188   32.6999   -3.1985 C   0  0  0  0  0  0  0  0  0  0  0  0
   -2.0111   32.7203   -2.6445 C   0  0  0  0  0  0  0  0  0  0  0  0
   -3.0993   33.1951   -3.3337 O   0  0  0  0  0  0  0  0  0  0  0  0
   -2.2599   32.2533   -1.3552 C   0  0  0  0  0  0  0  0  0  0  0  0
   -1.2116   31.7332   -0.6021 C   0  0  0  0  0  0  0  0  0  0  0  0
   -1.4374   31.2851    0.6688 O   0  0  0  0  0  0  0  0  0  0  0  0
   -2.9954   33.5228   -4.2054 H   0  0  0  0  0  0  0  0  0  0  0  0
   -2.2985   31.3305    1.0355 H   0  0  0  0  0  0  0  0  0  0  0  0
    2.0619   30.1159   -1.1338 C   0  0  0  0  0  0  0  0  0  0  0  0
    1.2343   31.1035   -0.3247 C   0  0  0  0  0  0  0  0  0  0  0  0
    1.2503   35.1992   -4.1417 C   0  0  0  0  0  0  0  0  0  0  0  0
    0.7425   36.4386   -3.6938 C   0  0  0  0  0  0  0  0  0  0  0  0
    1.5466   37.3162   -2.9590 C   0  0  0  0  0  0  0  0  0  0  0  0
    2.8421   36.9288   -2.6950 C   0  0  0  0  0  0  0  0  0  0  0  0
    3.3405   35.7225   -3.1280 C   0  0  0  0  0  0  0  0  0  0  0  0
    2.5732   34.8348   -3.8520 C   0  0  0  0  0  0  0  0  0  0  0  0
    4.6383   35.5377   -2.7660 O   0  0  0  0  0  0  0  0  0  0  0  0
    4.8987   36.7643   -2.0531 C   0  0  0  0  0  0  0  0  0  0  0  0
    3.7634   37.6537   -2.0063 O   0  0  0  0  0  0  0  0  0  0  0  0
    0.8535   35.3034   -7.2793 C   0  0  0  0  0  0  0  0  0  0  0  0
    0.3279   36.1883   -7.9331 O   0  0  0  0  0  0  0  0  0  0  0  0
    2.1746   35.0527   -7.4179 O   0  0  0  0  0  0  0  0  0  0  0  0
    2.5777   34.3725   -6.9151 H   0  0  0  0  0  0  0  0  0  0  0  0
 17 18  1  0
 18  7  1  0
  7  8  2  0
  8  9  1  0
  9  1  1  0
  1  2  2  0
  2  3  1  0
  3  4  1  0
  4 28  1  0
 28 29  2  0
 28 30  1  0
  4  5  2  0
  5 19  1  0
 19 20  2  0
 20 21  1  0
 21 22  2  0
 22 23  1  0
 23 24  2  0
 23 25  1  0
 25 26  1  0
 26 27  1  0
  9 10  2  0
 10 11  1  0
 10 12  1  0
 12 13  2  0
 13 14  1  0
 13  7  1  0
  5  1  1  0
 24 19  1  0
 27 22  1  0
  3  6  1  0
 30 31  1  0
 11 15  1  0
 14 16  1  0
M  END
> <minimizedAffinity>
-10.13351

> <CNNscore>
0.9874553680

> <CNNaffinity>
6.6513285637

> <CNN_VS>
6.5678901672

> <CNNaffinity_variance>
0.0380902700

$$$$



 31 34  0  0  0  0  0  0  0  0999 V2000
   -0.5347   33.2724   -4.5702 C   0  0  0  0  0  0  0  0  0  0  0  0
   -1.1237   32.6960   -5.6369 N   0  0  0  0  0  0  0  0  0  0  0  0
   -0.7056   33.4242   -6.6818 N   0  0  0  0  0  0  0  0  0  0  0  0
    0.0839   34.4895   -6.3574 C   0  0  0  0  0  0  0  0  0  0  0  0
    0.2203   34.4229   -4.9793 C   0  0  0  0  0  0  0  0  0  0  0  0
   -0.9491   33.2075   -7.6108 H   0  0  0  0  0  0  0  0  0  0  0  0
    0.1061   31.6945   -1.1701 C   0  0  0  0  0  0  0  0  0  0  0  0
    0.2992   32.1808   -2.4767 C   0  0  0  0  0  0  0  0  0  0  0  0
   -0.7598   32.7205   -3.2240 C   0  0  0  0  0  0  0  0  0  0  0  0
   -2.0395   32.7176   -2.6412 C   0  0  0  0  0  0  0  0  0  0  0  0
   -3.1516   33.1707   -3.3063 O   0  0  0  0  0  0  0  0  0  0  0  0
   -2.2504   32.2480   -1.3460 C   0  0  0  0  0  0  0  0  0  0  0  0
   -1.1759   31.7490   -0.6160 C   0  0  0  0  0  0  0  0  0  0  0  0
   -1.3647   31.2988    0.6602 O   0  0  0  0  0  0  0  0  0  0  0  0
   -3.0734   33.4988   -4.1805 H   0  0  0  0  0  0  0  0  0  0  0  0
   -2.2180   31.3286    1.0460 H   0  0  0  0  0  0  0  0  0  0  0  0
    2.0517   30.1112   -1.1787 C   0  0  0  0  0  0  0  0  0  0  0  0
    1.2870   31.1659   -0.3928 C   0  0  0  0  0  0  0  0  0  0  0  0
    0.9299   35.4102   -4.1857 C   0  0  0  0  0  0  0  0  0  0  0  0
    2.3368   35.3571   -4.0758 C   0  0  0  0  0  0  0  0  0  0  0  0
    3.0263   36.2787   -3.2808 C   0  0  0  0  0  0  0  0  0  0  0  0
    2.2851   37.2289   -2.6129 C   0  0  0  0  0  0  0  0  0  0  0  0
    0.9152   37.2851   -2.7179 C   0  0  0  0  0  0  0  0  0  0  0  0
    0.2067   36.3932   -3.4948 C   0  0  0  0  0  0  0  0  0  0  0  0
    0.3793   38.2920   -1.9773 O   0  0  0  0  0  0  0  0  0  0  0  0
    1.5690   38.8649   -1.3965 C   0  0  0  0  0  0  0  0  0  0  0  0
    2.7828   38.1931   -1.7937 O   0  0  0  0  0  0  0  0  0  0  0  0
    0.5787   35.4128   -7.3305 C   0  0  0  0  0  0  0  0  0  0  0  0
    0.8547   36.5938   -7.2043 O   0  0  0  0  0  0  0  0  0  0  0  0
    0.7389   34.8041   -8.5268 O   0  0  0  0  0  0  0  0  0  0  0  0
    0.5266   33.8965   -8.6228 H   0  0  0  0  0  0  0  0  0  0  0  0
 17 18  1  0
 18  7  1  0
  7  8  2  0
  8  9  1  0
  9  1  1  0
  1  2  2  0
  2  3  1  0
  3  4  1  0
  4 28  1  0
 28 29  2  0
 28 30  1  0
  4  5  2  0
  5 19  1  0
 19 20  2  0
 20 21  1  0
 21 22  2  0
 22 23  1  0
 23 24  2  0
 23 25  1  0
 25 26  1  0
 26 27  1  0
  9 10  2  0
 10 11  1  0
 10 12  1  0
 12 13  2  0
 13 14  1  0
 13  7  1  0
  5  1  1  0
 24 19  1  0
 27 22  1  0
  3  6  1  0
 30 31  1  0
 11 15  1  0
 14 16  1  0
M  END
> <minimizedAffinity>
-10.55011

> <CNNscore>
0.9828169942

> <CNNaffinity>
6.5805420876

> <CNN_VS>
6.4674687386

> <CNNaffinity_variance>
0.0516919009

$$$$



 31 34  0  0  0  0  0  0  0  0999 V2000
   -0.1300   33.1925   -4.2412 C   0  0  0  0  0  0  0  0  0  0  0  0
   -0.7895   32.5018   -5.1924 N   0  0  0  0  0  0  0  0  0  0  0  0
   -0.6637   33.2520   -6.2961 N   0  0  0  0  0  0  0  0  0  0  0  0
   -0.0044   34.4332   -6.1128 C   0  0  0  0  0  0  0  0  0  0  0  0
    0.3632   34.4302   -4.7760 C   0  0  0  0  0  0  0  0  0  0  0  0
   -1.0190   32.9729   -7.1707 H   0  0  0  0  0  0  0  0  0  0  0  0
   -1.1391   31.8678   -0.8225 C   0  0  0  0  0  0  0  0  0  0  0  0
   -1.2034   32.4266   -2.1127 C   0  0  0  0  0  0  0  0  0  0  0  0
   -0.0457   32.6548   -2.8733 C   0  0  0  0  0  0  0  0  0  0  0  0
    1.1943   32.3498   -2.2843 C   0  0  0  0  0  0  0  0  0  0  0  0
    2.3881   32.5859   -2.9196 O   0  0  0  0  0  0  0  0  0  0  0  0
    1.2793   31.7887   -1.0114 C   0  0  0  0  0  0  0  0  0  0  0  0
    0.1130   31.5425   -0.2933 C   0  0  0  0  0  0  0  0  0  0  0  0
    0.1798   30.9792    0.9497 O   0  0  0  0  0  0  0  0  0  0  0  0
    2.3958   32.9619   -3.7778 H   0  0  0  0  0  0  0  0  0  0  0  0
    1.0116   30.7554    1.3186 H   0  0  0  0  0  0  0  0  0  0  0  0
   -3.1313   30.3621   -0.5843 C   0  0  0  0  0  0  0  0  0  0  0  0
   -2.4169   31.6008   -0.0647 C   0  0  0  0  0  0  0  0  0  0  0  0
    1.0329   35.5367   -4.1163 C   0  0  0  0  0  0  0  0  0  0  0  0
    2.4235   35.7242   -4.2763 C   0  0  0  0  0  0  0  0  0  0  0  0
    3.0852   36.7625   -3.6125 C   0  0  0  0  0  0  0  0  0  0  0  0
    2.3342   37.5850   -2.8014 C   0  0  0  0  0  0  0  0  0  0  0  0
    0.9799   37.4070   -2.6434 C   0  0  0  0  0  0  0  0  0  0  0  0
    0.2983   36.3950   -3.2855 C   0  0  0  0  0  0  0  0  0  0  0  0
    0.4317   38.3212   -1.7990 O   0  0  0  0  0  0  0  0  0  0  0  0
    1.5956   39.0969   -1.4459 C   0  0  0  0  0  0  0  0  0  0  0  0
    2.8078   38.6333   -2.0767 O   0  0  0  0  0  0  0  0  0  0  0  0
    0.1782   35.3900   -7.1594 C   0  0  0  0  0  0  0  0  0  0  0  0
    0.0509   36.6023   -7.1285 O   0  0  0  0  0  0  0  0  0  0  0  0
    0.5491   34.7772   -8.3059 O   0  0  0  0  0  0  0  0  0  0  0  0
    0.6467   33.8456   -8.3288 H   0  0  0  0  0  0  0  0  0  0  0  0
 17 18  1  0
 18  7  1  0
  7  8  2  0
  8  9  1  0
  9  1  1  0
  1  2  2  0
  2  3  1  0
  3  4  1  0
  4 28  1  0
 28 29  2  0
 28 30  1  0
  4  5  2  0
  5 19  1  0
 19 20  2  0
 20 21  1  0
 21 22  2  0
 22 23  1  0
 23 24  2  0
 23 25  1  0
 25 26  1  0
 26 27  1  0
  9 10  2  0
 10 11  1  0
 10 12  1  0
 12 13  2  0
 13 14  1  0
 13  7  1  0
  5  1  1  0
 24 19  1  0
 27 22  1  0
  3  6  1  0
 30 31  1  0
 11 15  1  0
 14 16  1  0
M  END
> <minimizedAffinity>
-8.69479

> <CNNscore>
0.8193388581

> <CNNaffinity>
6.2887501717

> <CNN_VS>
5.1526174545

> <CNNaffinity_variance>
0.2020739466

$$$$



 31 34  0  0  0  0  0  0  0  0999 V2000
    0.5570   33.6022   -3.9754 C   0  0  0  0  0  0  0  0  0  0  0  0
   -0.2430   33.1922   -4.9798 N   0  0  0  0  0  0  0  0  0  0  0  0
   -0.0250   34.0781   -5.9618 N   0  0  0  0  0  0  0  0  0  0  0  0
    0.8348   35.0884   -5.6403 C   0  0  0  0  0  0  0  0  0  0  0  0
    1.2398   34.8101   -4.3439 C   0  0  0  0  0  0  0  0  0  0  0  0
   -0.4518   34.0057   -6.8460 H   0  0  0  0  0  0  0  0  0  0  0  0
   -0.5669   31.8655   -0.7846 C   0  0  0  0  0  0  0  0  0  0  0  0
   -0.5783   32.6279   -1.9676 C   0  0  0  0  0  0  0  0  0  0  0  0
    0.5914   32.8458   -2.7128 C   0  0  0  0  0  0  0  0  0  0  0  0
    1.7937   32.3149   -2.2128 C   0  0  0  0  0  0  0  0  0  0  0  0
    3.0012   32.5164   -2.8341 O   0  0  0  0  0  0  0  0  0  0  0  0
    1.8252   31.5507   -1.0478 C   0  0  0  0  0  0  0  0  0  0  0  0
    0.6446   31.3230   -0.3471 C   0  0  0  0  0  0  0  0  0  0  0  0
    0.6577   30.5635    0.7887 O   0  0  0  0  0  0  0  0  0  0  0  0
    3.0442   33.0221   -3.6217 H   0  0  0  0  0  0  0  0  0  0  0  0
    1.4618   30.1927    1.0951 H   0  0  0  0  0  0  0  0  0  0  0  0
   -2.9431   31.0827   -0.9669 C   0  0  0  0  0  0  0  0  0  0  0  0
   -1.8602   31.6234   -0.0450 C   0  0  0  0  0  0  0  0  0  0  0  0
    2.1125   35.6698   -3.5645 C   0  0  0  0  0  0  0  0  0  0  0  0
    1.5862   36.4538   -2.5144 C   0  0  0  0  0  0  0  0  0  0  0  0
    2.4110   37.3160   -1.7843 C   0  0  0  0  0  0  0  0  0  0  0  0
    3.7438   37.3719   -2.1293 C   0  0  0  0  0  0  0  0  0  0  0  0
    4.2608   36.6095   -3.1501 C   0  0  0  0  0  0  0  0  0  0  0  0
    3.4750   35.7487   -3.8868 C   0  0  0  0  0  0  0  0  0  0  0  0
    5.5927   36.8177   -3.3295 O   0  0  0  0  0  0  0  0  0  0  0  0
    5.8553   37.7962   -2.3026 C   0  0  0  0  0  0  0  0  0  0  0  0
    4.6851   38.1549   -1.5383 O   0  0  0  0  0  0  0  0  0  0  0  0
    1.1464   36.1568   -6.5381 C   0  0  0  0  0  0  0  0  0  0  0  0
    1.9250   36.1750   -7.4762 O   0  0  0  0  0  0  0  0  0  0  0  0
    0.4265   37.2599   -6.2341 O   0  0  0  0  0  0  0  0  0  0  0  0
   -0.1716   37.2450   -5.5129 H   0  0  0  0  0  0  0  0  0  0  0  0
 17 18  1  0
 18  7  1  0
  7  8  2  0
  8  9  1  0
  9  1  1  0
  1  2  2  0
  2  3  1  0
  3  4  1  0
  4 28  1  0
 28 29  2  0
 28 30  1  0
  4  5  2  0
  5 19  1  0
 19 20  2  0
 20 21  1  0
 21 22  2  0
 22 23  1  0
 23 24  2  0
 23 25  1  0
 25 26  1  0
 26 27  1  0
  9 10  2  0
 10 11  1  0
 10 12  1  0
 12 13  2  0
 13 14  1  0
 13  7  1  0
  5  1  1  0
 24 19  1  0
 27 22  1  0
  3  6  1  0
 30 31  1  0
 11 15  1  0
 14 16  1  0
M  END
> <minimizedAffinity>
-7.94552

> <CNNscore>
0.7631189823

> <CNNaffinity>
6.2537007332

> <CNN_VS>
4.7723178864

> <CNNaffinity_variance>
0.1362875253

$$$$



 31 34  0  0  0  0  0  0  0  0999 V2000
    1.3314   34.8991   -4.4883 C   0  0  0  0  0  0  0  0  0  0  0  0
    1.1493   34.6815   -5.8060 N   0  0  0  0  0  0  0  0  0  0  0  0
    1.8164   35.6789   -6.4034 N   0  0  0  0  0  0  0  0  0  0  0  0
    2.3833   36.5802   -5.5490 C   0  0  0  0  0  0  0  0  0  0  0  0
    2.0879   36.1016   -4.2818 C   0  0  0  0  0  0  0  0  0  0  0  0
    1.8918   35.7555   -7.3820 H   0  0  0  0  0  0  0  0  0  0  0  0
    0.9987   32.3192   -1.7144 C   0  0  0  0  0  0  0  0  0  0  0  0
    1.5503   33.1704   -2.6902 C   0  0  0  0  0  0  0  0  0  0  0  0
    0.7398   33.9754   -3.5063 C   0  0  0  0  0  0  0  0  0  0  0  0
   -0.6538   33.8700   -3.3509 C   0  0  0  0  0  0  0  0  0  0  0  0
   -1.5363   34.5708   -4.1351 O   0  0  0  0  0  0  0  0  0  0  0  0
   -1.2198   33.0394   -2.3855 C   0  0  0  0  0  0  0  0  0  0  0  0
   -0.3907   32.2774   -1.5678 C   0  0  0  0  0  0  0  0  0  0  0  0
   -0.9306   31.4696   -0.6072 O   0  0  0  0  0  0  0  0  0  0  0  0
   -1.2159   35.1459   -4.8018 H   0  0  0  0  0  0  0  0  0  0  0  0
   -1.8602   31.4304   -0.4962 H   0  0  0  0  0  0  0  0  0  0  0  0
    2.0317   30.0690   -1.3120 C   0  0  0  0  0  0  0  0  0  0  0  0
    1.9165   31.5082   -0.8323 C   0  0  0  0  0  0  0  0  0  0  0  0
    2.4386   36.7900   -3.0525 C   0  0  0  0  0  0  0  0  0  0  0  0
    3.5053   36.3218   -2.2542 C   0  0  0  0  0  0  0  0  0  0  0  0
    3.8248   36.9533   -1.0476 C   0  0  0  0  0  0  0  0  0  0  0  0
    3.0628   38.0376   -0.6709 C   0  0  0  0  0  0  0  0  0  0  0  0
    2.0240   38.4976   -1.4456 C   0  0  0  0  0  0  0  0  0  0  0  0
    1.6855   37.8990   -2.6406 C   0  0  0  0  0  0  0  0  0  0  0  0
    1.4003   39.5718   -0.8917 O   0  0  0  0  0  0  0  0  0  0  0  0
    2.1673   39.7368    0.3188 C   0  0  0  0  0  0  0  0  0  0  0  0
    3.2231   38.7644    0.4669 O   0  0  0  0  0  0  0  0  0  0  0  0
    3.0863   37.7406   -6.0004 C   0  0  0  0  0  0  0  0  0  0  0  0
    2.6755   38.8766   -6.1660 O   0  0  0  0  0  0  0  0  0  0  0  0
    4.3821   37.4461   -6.2487 O   0  0  0  0  0  0  0  0  0  0  0  0
    4.6969   36.5728   -6.1212 H   0  0  0  0  0  0  0  0  0  0  0  0
 17 18  1  0
 18  7  1  0
  7  8  2  0
  8  9  1  0
  9  1  1  0
  1  2  2  0
  2  3  1  0
  3  4  1  0
  4 28  1  0
 28 29  2  0
 28 30  1  0
  4  5  2  0
  5 19  1  0
 19 20  2  0
 20 21  1  0
 21 22  2  0
 22 23  1  0
 23 24  2  0
 23 25  1  0
 25 26  1  0
 26 27  1  0
  9 10  2  0
 10 11  1  0
 10 12  1  0
 12 13  2  0
 13 14  1  0
 13  7  1  0
  5  1  1  0
 24 19  1  0
 27 22  1  0
  3  6  1  0
 30 31  1  0
 11 15  1  0
 14 16  1  0
M  END
> <minimizedAffinity>
-8.42073

> <CNNscore>
0.4932396412

> <CNNaffinity>
5.7137007713

> <CNN_VS>
2.8182237148

> <CNNaffinity_variance>
0.1529890150

$$$$



 31 34  0  0  0  0  0  0  0  0999 V2000
    2.1492   35.7337   -4.1736 C   0  0  0  0  0  0  0  0  0  0  0  0
    1.6379   36.2639   -5.3024 N   0  0  0  0  0  0  0  0  0  0  0  0
    2.5474   37.1709   -5.6857 N   0  0  0  0  0  0  0  0  0  0  0  0
    3.6081   37.3110   -4.8380 C   0  0  0  0  0  0  0  0  0  0  0  0
    3.3836   36.3827   -3.8330 C   0  0  0  0  0  0  0  0  0  0  0  0
    2.4574   37.6952   -6.5141 H   0  0  0  0  0  0  0  0  0  0  0  0
    1.4017   32.6627   -2.0590 C   0  0  0  0  0  0  0  0  0  0  0  0
    2.0932   33.6541   -2.7801 C   0  0  0  0  0  0  0  0  0  0  0  0
    1.4131   34.6734   -3.4654 C   0  0  0  0  0  0  0  0  0  0  0  0
    0.0073   34.6470   -3.4492 C   0  0  0  0  0  0  0  0  0  0  0  0
   -0.7534   35.5635   -4.1317 O   0  0  0  0  0  0  0  0  0  0  0  0
   -0.6962   33.6788   -2.7349 C   0  0  0  0  0  0  0  0  0  0  0  0
    0.0047   32.6997   -2.0372 C   0  0  0  0  0  0  0  0  0  0  0  0
   -0.6712   31.7529   -1.3206 O   0  0  0  0  0  0  0  0  0  0  0  0
   -0.3375   36.2391   -4.6304 H   0  0  0  0  0  0  0  0  0  0  0  0
   -1.6078   31.7640   -1.2960 H   0  0  0  0  0  0  0  0  0  0  0  0
    1.8432   30.2097   -1.7757 C   0  0  0  0  0  0  0  0  0  0  0  0
    2.1817   31.6154   -1.3021 C   0  0  0  0  0  0  0  0  0  0  0  0
    4.2337   36.2289   -2.6660 C   0  0  0  0  0  0  0  0  0  0  0  0
    3.6636   35.9782   -1.3985 C   0  0  0  0  0  0  0  0  0  0  0  0
    4.4709   35.8693   -0.2613 C   0  0  0  0  0  0  0  0  0  0  0  0
    5.8308   36.0184   -0.4249 C   0  0  0  0  0  0  0  0  0  0  0  0
    6.3903   36.2614   -1.6572 C   0  0  0  0  0  0  0  0  0  0  0  0
    5.6226   36.3718   -2.7971 C   0  0  0  0  0  0  0  0  0  0  0  0
    7.7438   36.3798   -1.5979 O   0  0  0  0  0  0  0  0  0  0  0  0
    7.9723   36.1804   -0.1876 C   0  0  0  0  0  0  0  0  0  0  0  0
    6.7617   35.9530    0.5639 O   0  0  0  0  0  0  0  0  0  0  0  0
    4.6494   38.2676   -5.0501 C   0  0  0  0  0  0  0  0  0  0  0  0
    4.8800   39.3038   -4.4503 O   0  0  0  0  0  0  0  0  0  0  0  0
    5.4455   37.8863   -6.0740 O   0  0  0  0  0  0  0  0  0  0  0  0
    5.2675   37.0899   -6.5343 H   0  0  0  0  0  0  0  0  0  0  0  0
 17 18  1  0
 18  7  1  0
  7  8  2  0
  8  9  1  0
  9  1  1  0
  1  2  2  0
  2  3  1  0
  3  4  1  0
  4 28  1  0
 28 29  2  0
 28 30  1  0
  4  5  2  0
  5 19  1  0
 19 20  2  0
 20 21  1  0
 21 22  2  0
 22 23  1  0
 23 24  2  0
 23 25  1  0
 25 26  1  0
 26 27  1  0
  9 10  2  0
 10 11  1  0
 10 12  1  0
 12 13  2  0
 13 14  1  0
 13  7  1  0
  5  1  1  0
 24 19  1  0
 27 22  1  0
  3  6  1  0
 30 31  1  0
 11 15  1  0
 14 16  1  0
M  END
> <minimizedAffinity>
-8.70604

> <CNNscore>
0.4776134193

> <CNNaffinity>
5.7347350121

> <CNN_VS>
2.7389864922

> <CNNaffinity_variance>
0.0304231811

$$$$



 31 34  0  0  0  0  0  0  0  0999 V2000
    3.0426   36.7119   -3.9046 C   0  0  0  0  0  0  0  0  0  0  0  0
    3.7232   37.5230   -4.7387 N   0  0  0  0  0  0  0  0  0  0  0  0
    3.1799   37.2941   -5.9425 N   0  0  0  0  0  0  0  0  0  0  0  0
    2.2132   36.3304   -5.9600 C   0  0  0  0  0  0  0  0  0  0  0  0
    2.0933   35.9247   -4.6396 C   0  0  0  0  0  0  0  0  0  0  0  0
    3.4564   37.7829   -6.7511 H   0  0  0  0  0  0  0  0  0  0  0  0
    4.6184   35.7803   -0.5714 C   0  0  0  0  0  0  0  0  0  0  0  0
    4.2649   35.7678   -1.9337 C   0  0  0  0  0  0  0  0  0  0  0  0
    3.3651   36.7036   -2.4681 C   0  0  0  0  0  0  0  0  0  0  0  0
    2.7859   37.6321   -1.5850 C   0  0  0  0  0  0  0  0  0  0  0  0
    1.8537   38.5532   -1.9937 O   0  0  0  0  0  0  0  0  0  0  0  0
    3.1283   37.6663   -0.2344 C   0  0  0  0  0  0  0  0  0  0  0  0
    4.0485   36.7475    0.2613 C   0  0  0  0  0  0  0  0  0  0  0  0
    4.4049   36.7783    1.5799 O   0  0  0  0  0  0  0  0  0  0  0  0
    1.5828   38.5795   -2.8903 H   0  0  0  0  0  0  0  0  0  0  0  0
    4.0319   37.4205    2.1512 H   0  0  0  0  0  0  0  0  0  0  0  0
    6.9950   35.4122    0.1416 C   0  0  0  0  0  0  0  0  0  0  0  0
    5.6251   34.7805   -0.0566 C   0  0  0  0  0  0  0  0  0  0  0  0
    1.2201   34.8527   -4.1965 C   0  0  0  0  0  0  0  0  0  0  0  0
    0.1523   34.4210   -5.0137 C   0  0  0  0  0  0  0  0  0  0  0  0
   -0.7195   33.4173   -4.5785 C   0  0  0  0  0  0  0  0  0  0  0  0
   -0.4992   32.8743   -3.3315 C   0  0  0  0  0  0  0  0  0  0  0  0
    0.5399   33.2907   -2.5329 C   0  0  0  0  0  0  0  0  0  0  0  0
    1.4175   34.2757   -2.9337 C   0  0  0  0  0  0  0  0  0  0  0  0
    0.5763   32.6317   -1.3439 O   0  0  0  0  0  0  0  0  0  0  0  0
   -0.5570   31.7508   -1.4868 C   0  0  0  0  0  0  0  0  0  0  0  0
   -1.2463   31.9013   -2.7455 O   0  0  0  0  0  0  0  0  0  0  0  0
    1.5595   35.9093   -7.1598 C   0  0  0  0  0  0  0  0  0  0  0  0
    0.4761   36.2445   -7.6076 O   0  0  0  0  0  0  0  0  0  0  0  0
    2.3241   35.0199   -7.8321 O   0  0  0  0  0  0  0  0  0  0  0  0
    3.1566   34.7628   -7.4873 H   0  0  0  0  0  0  0  0  0  0  0  0
 17 18  1  0
 18  7  1  0
  7  8  2  0
  8  9  1  0
  9  1  1  0
  1  2  2  0
  2  3  1  0
  3  4  1  0
  4 28  1  0
 28 29  2  0
 28 30  1  0
  4  5  2  0
  5 19  1  0
 19 20  2  0
 20 21  1  0
 21 22  2  0
 22 23  1  0
 23 24  2  0
 23 25  1  0
 25 26  1  0
 26 27  1  0
  9 10  2  0
 10 11  1  0
 10 12  1  0
 12 13  2  0
 13 14  1  0
 13  7  1  0
  5  1  1  0
 24 19  1  0
 27 22  1  0
  3  6  1  0
 30 31  1  0
 11 15  1  0
 14 16  1  0
M  END
> <minimizedAffinity>
-8.59421

> <CNNscore>
0.3967584074

> <CNNaffinity>
5.6742954254

> <CNN_VS>
2.2513244152

> <CNNaffinity_variance>
0.1712966412

$$$$



 31 34  0  0  0  0  0  0  0  0999 V2000
    2.0586   35.1283   -3.9219 C   0  0  0  0  0  0  0  0  0  0  0  0
    2.3410   35.6447   -5.1345 N   0  0  0  0  0  0  0  0  0  0  0  0
    1.4263   35.1003   -5.9493 N   0  0  0  0  0  0  0  0  0  0  0  0
    0.5879   34.2045   -5.3507 C   0  0  0  0  0  0  0  0  0  0  0  0
    0.9708   34.1964   -4.0182 C   0  0  0  0  0  0  0  0  0  0  0  0
    1.3640   35.3287   -6.9049 H   0  0  0  0  0  0  0  0  0  0  0  0
    3.3623   37.0917   -0.9375 C   0  0  0  0  0  0  0  0  0  0  0  0
    2.6295   36.7292   -2.0832 C   0  0  0  0  0  0  0  0  0  0  0  0
    2.8664   35.5193   -2.7547 C   0  0  0  0  0  0  0  0  0  0  0  0
    3.8986   34.6950   -2.2726 C   0  0  0  0  0  0  0  0  0  0  0  0
    4.2483   33.5185   -2.8877 O   0  0  0  0  0  0  0  0  0  0  0  0
    4.6305   35.0317   -1.1354 C   0  0  0  0  0  0  0  0  0  0  0  0
    4.3516   36.2218   -0.4702 C   0  0  0  0  0  0  0  0  0  0  0  0
    5.0509   36.5582    0.6544 O   0  0  0  0  0  0  0  0  0  0  0  0
    3.7924   33.2385   -3.6569 H   0  0  0  0  0  0  0  0  0  0  0  0
    5.7172   35.9858    0.9805 H   0  0  0  0  0  0  0  0  0  0  0  0
    3.6627   39.5820   -0.9229 C   0  0  0  0  0  0  0  0  0  0  0  0
    3.0374   38.3827   -0.2262 C   0  0  0  0  0  0  0  0  0  0  0  0
    0.3898   33.3251   -3.0125 C   0  0  0  0  0  0  0  0  0  0  0  0
    1.1892   32.3629   -2.3571 C   0  0  0  0  0  0  0  0  0  0  0  0
    0.6303   31.4912   -1.4166 C   0  0  0  0  0  0  0  0  0  0  0  0
   -0.7185   31.6054   -1.1600 C   0  0  0  0  0  0  0  0  0  0  0  0
   -1.5004   32.5415   -1.7949 C   0  0  0  0  0  0  0  0  0  0  0  0
   -0.9796   33.4163   -2.7246 C   0  0  0  0  0  0  0  0  0  0  0  0
   -2.8011   32.4832   -1.4020 O   0  0  0  0  0  0  0  0  0  0  0  0
   -2.7476   31.4051   -0.4450 C   0  0  0  0  0  0  0  0  0  0  0  0
   -1.4287   30.8411   -0.2882 O   0  0  0  0  0  0  0  0  0  0  0  0
   -0.4144   33.4808   -6.0690 C   0  0  0  0  0  0  0  0  0  0  0  0
   -0.9442   32.4172   -5.7954 O   0  0  0  0  0  0  0  0  0  0  0  0
   -0.7693   34.1451   -7.1916 O   0  0  0  0  0  0  0  0  0  0  0  0
   -0.3616   34.9623   -7.4011 H   0  0  0  0  0  0  0  0  0  0  0  0
 17 18  1  0
 18  7  1  0
  7  8  2  0
  8  9  1  0
  9  1  1  0
  1  2  2  0
  2  3  1  0
  3  4  1  0
  4 28  1  0
 28 29  2  0
 28 30  1  0
  4  5  2  0
  5 19  1  0
 19 20  2  0
 20 21  1  0
 21 22  2  0
 22 23  1  0
 23 24  2  0
 23 25  1  0
 25 26  1  0
 26 27  1  0
  9 10  2  0
 10 11  1  0
 10 12  1  0
 12 13  2  0
 13 14  1  0
 13  7  1  0
  5  1  1  0
 24 19  1  0
 27 22  1  0
  3  6  1  0
 30 31  1  0
 11 15  1  0
 14 16  1  0
M  END
> <minimizedAffinity>
-9.18108

> <CNNscore>
0.2533785105

> <CNNaffinity>
5.3573603630

> <CNN_VS>
1.3574399948

> <CNNaffinity_variance>
0.1329207867

$$$$



 31 34  0  0  0  0  0  0  0  0999 V2000
    1.5564   35.5884   -4.6469 C   0  0  0  0  0  0  0  0  0  0  0  0
    1.6806   36.0038   -5.9232 N   0  0  0  0  0  0  0  0  0  0  0  0
    0.8129   35.2442   -6.6064 N   0  0  0  0  0  0  0  0  0  0  0  0
    0.1615   34.3061   -5.8585 C   0  0  0  0  0  0  0  0  0  0  0  0
    0.6220   34.5015   -4.5655 C   0  0  0  0  0  0  0  0  0  0  0  0
    0.6575   35.3541   -7.5723 H   0  0  0  0  0  0  0  0  0  0  0  0
    4.5474   36.7076   -2.5823 C   0  0  0  0  0  0  0  0  0  0  0  0
    3.7595   36.0692   -3.5583 C   0  0  0  0  0  0  0  0  0  0  0  0
    2.3641   36.2203   -3.5905 C   0  0  0  0  0  0  0  0  0  0  0  0
    1.7670   36.9970   -2.5818 C   0  0  0  0  0  0  0  0  0  0  0  0
    0.4074   37.1633   -2.4893 O   0  0  0  0  0  0  0  0  0  0  0  0
    2.5297   37.6438   -1.6111 C   0  0  0  0  0  0  0  0  0  0  0  0
    3.9141   37.5032   -1.6232 C   0  0  0  0  0  0  0  0  0  0  0  0
    4.6760   38.1431   -0.6869 O   0  0  0  0  0  0  0  0  0  0  0  0
   -0.1583   36.7529   -3.1134 H   0  0  0  0  0  0  0  0  0  0  0  0
    4.2667   38.6801   -0.0372 H   0  0  0  0  0  0  0  0  0  0  0  0
    6.6940   37.5283   -3.5877 C   0  0  0  0  0  0  0  0  0  0  0  0
    6.0479   36.5488   -2.6192 C   0  0  0  0  0  0  0  0  0  0  0  0
    0.2456   33.6704   -3.4360 C   0  0  0  0  0  0  0  0  0  0  0  0
    1.2297   32.9524   -2.7217 C   0  0  0  0  0  0  0  0  0  0  0  0
    0.8728   32.1169   -1.6581 C   0  0  0  0  0  0  0  0  0  0  0  0
   -0.4643   32.0205   -1.3403 C   0  0  0  0  0  0  0  0  0  0  0  0
   -1.4259   32.7187   -2.0323 C   0  0  0  0  0  0  0  0  0  0  0  0
   -1.1065   33.5518   -3.0835 C   0  0  0  0  0  0  0  0  0  0  0  0
   -2.6794   32.4792   -1.5625 O   0  0  0  0  0  0  0  0  0  0  0  0
   -2.3964   31.5526   -0.4937 C   0  0  0  0  0  0  0  0  0  0  0  0
   -0.9920   31.2547   -0.3486 O   0  0  0  0  0  0  0  0  0  0  0  0
   -0.7590   33.3680   -6.4214 C   0  0  0  0  0  0  0  0  0  0  0  0
   -0.9640   32.2065   -6.1120 O   0  0  0  0  0  0  0  0  0  0  0  0
   -1.4627   33.9353   -7.4266 O   0  0  0  0  0  0  0  0  0  0  0  0
   -1.3045   34.8279   -7.6636 H   0  0  0  0  0  0  0  0  0  0  0  0
 17 18  1  0
 18  7  1  0
  7  8  2  0
  8  9  1  0
  9  1  1  0
  1  2  2  0
  2  3  1  0
  3  4  1  0
  4 28  1  0
 28 29  2  0
 28 30  1  0
  4  5  2  0
  5 19  1  0
 19 20  2  0
 20 21  1  0
 21 22  2  0
 22 23  1  0
 23 24  2  0
 23 25  1  0
 25 26  1  0
 26 27  1  0
  9 10  2  0
 10 11  1  0
 10 12  1  0
 12 13  2  0
 13 14  1  0
 13  7  1  0
  5  1  1  0
 24 19  1  0
 27 22  1  0
  3  6  1  0
 30 31  1  0
 11 15  1  0
 14 16  1  0
M  END
> <minimizedAffinity>
-9.46730

> <CNNscore>
0.2389526963

> <CNNaffinity>
5.2958049774

> <CNN_VS>
1.2654469013

> <CNNaffinity_variance>
0.1826075315

$$$$
