


 51 54  0  0  0  0  0  0  0  0999 V2000
   -3.4663   -3.5392   31.6144 N   0  0  0  0  0  0  0  0  0  0  0  0
   -3.3725   -3.2775   30.2649 C   0  0  0  0  0  0  0  0  0  0  0  0
   -4.3394   -3.1458   29.5261 O   0  0  0  0  0  0  0  0  0  0  0  0
   -2.6430   -3.6952   32.1313 H   0  0  0  0  0  0  0  0  0  0  0  0
   -1.9958   -3.1474   29.7201 C   0  0  0  0  0  0  0  0  0  0  0  0
   -0.9993   -4.0076   30.1975 C   0  0  0  0  0  0  0  0  0  0  0  0
    0.3125   -3.8802   29.7300 C   0  0  0  0  0  0  0  0  0  0  0  0
    0.6338   -2.8642   28.8233 C   0  0  0  0  0  0  0  0  0  0  0  0
   -0.3643   -2.0204   28.3308 C   0  0  0  0  0  0  0  0  0  0  0  0
   -1.6760   -2.1488   28.7899 C   0  0  0  0  0  0  0  0  0  0  0  0
    1.3483   -4.8221   30.2282 C   0  0  0  0  0  0  0  0  0  0  0  0
    2.1951   -5.2622   29.4610 O   0  0  0  0  0  0  0  0  0  0  0  0
    1.3064   -5.1103   31.5749 N   0  0  0  0  0  0  0  0  0  0  0  0
    0.5919   -4.7149   32.1248 H   0  0  0  0  0  0  0  0  0  0  0  0
    2.2854   -5.9812   32.2111 C   0  0  0  0  0  0  0  0  0  0  0  0
    1.5897   -7.1930   32.8402 C   0  0  0  0  0  0  0  0  0  0  0  0
    3.1248   -5.1514   33.1708 C   0  0  0  0  0  0  0  0  0  0  0  0
    4.5180   -5.1009   32.9731 C   0  0  0  0  0  0  0  0  0  0  0  0
    5.3324   -4.3119   33.7869 C   0  0  0  0  0  0  0  0  0  0  0  0
    4.7680   -3.5529   34.8074 C   0  0  0  0  0  0  0  0  0  0  0  0
    3.3882   -3.5837   35.0140 C   0  0  0  0  0  0  0  0  0  0  0  0
    2.5709   -4.3696   34.1969 C   0  0  0  0  0  0  0  0  0  0  0  0
   -0.0690   -0.9271   27.4394 N   0  0  0  0  0  0  0  0  0  0  0  0
    1.3547   -0.5065   27.4455 C   0  0  0  0  0  0  0  0  0  0  0  0
   -0.7493   -1.0185   25.8666 S   0  0  0  0  0  0  0  0  0  0  0  0
    0.4931   -0.1854   24.8993 C   0  0  0  0  0  0  0  0  0  0  0  0
   -0.7438   -2.4081   25.4591 O   0  0  0  0  0  0  0  0  0  0  0  0
   -1.9737   -0.2459   25.8199 O   0  0  0  0  0  0  0  0  0  0  0  0
   -4.7643   -3.5914   32.3015 C   0  0  0  0  0  0  0  0  0  0  0  0
   -4.9651   -4.8364   33.2063 C   0  0  0  0  0  0  0  0  0  0  0  0
   -4.1172   -6.0731   32.9801 C   0  0  0  0  0  0  0  0  0  0  0  0
   -3.2269   -6.5359   33.9598 C   0  0  0  0  0  0  0  0  0  0  0  0
   -2.4268   -7.6586   33.7308 C   0  0  0  0  0  0  0  0  0  0  0  0
   -2.4900   -8.3215   32.5076 C   0  0  0  0  0  0  0  0  0  0  0  0
   -3.3380   -7.8535   31.5077 C   0  0  0  0  0  0  0  0  0  0  0  0
   -4.1361   -6.7309   31.7408 C   0  0  0  0  0  0  0  0  0  0  0  0
   -5.1310   -2.2068   32.9193 C   0  0  0  0  0  0  0  0  0  0  0  0
   -5.6489   -2.4150   34.2633 O   0  0  0  0  0  0  0  0  0  0  0  0
   -6.6740   -3.3994   34.3217 C   0  0  0  0  0  0  0  0  0  0  0  0
   -6.2156   -1.3882   32.1800 C   0  0  0  0  0  0  0  0  0  0  0  0
   -7.5765   -1.4373   32.7280 N   0  0  0  0  0  0  0  0  0  0  0  0
   -7.5633   -2.0470   33.5456 H   0  0  0  0  0  0  0  0  0  0  0  0
   -8.6099   -1.9297   31.8165 C   0  0  0  0  0  0  0  0  0  0  0  0
  -12.4242   -2.0618   32.0480 C   0  0  0  0  0  0  0  0  0  0  0  0
  -12.6169   -2.0785   33.4290 C   0  0  0  0  0  0  0  0  0  0  0  0
  -11.5162   -2.0384   34.2887 C   0  0  0  0  0  0  0  0  0  0  0  0
  -10.2198   -1.9814   33.7745 C   0  0  0  0  0  0  0  0  0  0  0  0
  -10.0061   -1.9542   32.3900 C   0  0  0  0  0  0  0  0  0  0  0  0
  -11.1220   -1.9872   31.5380 C   0  0  0  0  0  0  0  0  0  0  0  0
  -13.4697   -1.0271   30.1760 C   0  0  0  0  0  0  0  0  0  0  0  0
  -13.4106   -2.1087   31.1002 O   0  0  0  0  0  0  0  0  0  0  0  0
 50 51  1  0
 51 44  1  0
 44 45  2  0
 45 46  1  0
 46 47  2  0
 47 48  1  0
 48 43  1  0
 43 41  1  0
 41 40  1  0
 37 40  1  0
 37 38  1  0
 38 39  1  0
 37 29  1  0
 29 30  1  0
 30 31  1  0
 31 32  2  0
 32 33  1  0
 33 34  2  0
 34 35  1  0
 35 36  2  0
 29  1  1  0
  1  2  1  0
  2  3  2  0
  2  5  1  0
  5  6  2  0
  6  7  1  0
  7 11  1  0
 11 12  2  0
 11 13  1  0
 13 15  1  0
 15 16  1  0
 15 17  1  0
 17 18  2  0
 18 19  1  0
 19 20  2  0
 20 21  1  0
 21 22  2  0
  7  8  2  0
  8  9  1  0
  9 23  1  0
 23 24  1  0
 23 25  1  0
 25 26  1  0
 25 27  2  0
 25 28  2  0
  9 10  2  0
 48 49  2  0
 49 44  1  0
 36 31  1  0
 10  5  1  0
 22 17  1  0
 41 42  1  0
  1  4  1  0
 13 14  1  0
M  END
> <minimizedAffinity>
-10.95893

> <CNNscore>
0.9029636383

> <CNNaffinity>
7.8636507988

> <CNN_VS>
7.1005907059

> <CNNaffinity_variance>
1.0296427011

$$$$



 51 54  0  0  0  0  0  0  0  0999 V2000
   -3.4687   -3.6490   31.5759 N   0  0  0  0  0  0  0  0  0  0  0  0
   -3.3653   -3.3360   30.2380 C   0  0  0  0  0  0  0  0  0  0  0  0
   -4.3265   -3.1893   29.4948 O   0  0  0  0  0  0  0  0  0  0  0  0
   -2.6485   -3.8134   32.0951 H   0  0  0  0  0  0  0  0  0  0  0  0
   -1.9852   -3.1679   29.7127 C   0  0  0  0  0  0  0  0  0  0  0  0
   -0.9771   -4.0168   30.1858 C   0  0  0  0  0  0  0  0  0  0  0  0
    0.3372   -3.8542   29.7368 C   0  0  0  0  0  0  0  0  0  0  0  0
    0.6486   -2.8149   28.8533 C   0  0  0  0  0  0  0  0  0  0  0  0
   -0.3606   -1.9820   28.3647 C   0  0  0  0  0  0  0  0  0  0  0  0
   -1.6747   -2.1455   28.8053 C   0  0  0  0  0  0  0  0  0  0  0  0
    1.3860   -4.7845   30.2297 C   0  0  0  0  0  0  0  0  0  0  0  0
    2.2291   -5.2213   29.4565 O   0  0  0  0  0  0  0  0  0  0  0  0
    1.3597   -5.0659   31.5783 N   0  0  0  0  0  0  0  0  0  0  0  0
    0.6472   -4.6738   32.1331 H   0  0  0  0  0  0  0  0  0  0  0  0
    2.3525   -5.9250   32.2094 C   0  0  0  0  0  0  0  0  0  0  0  0
    1.6714   -7.1287   32.8692 C   0  0  0  0  0  0  0  0  0  0  0  0
    3.2073   -5.0789   33.1409 C   0  0  0  0  0  0  0  0  0  0  0  0
    2.5741   -4.3908   34.1936 C   0  0  0  0  0  0  0  0  0  0  0  0
    3.3130   -3.6446   35.1130 C   0  0  0  0  0  0  0  0  0  0  0  0
    4.6985   -3.5798   35.0017 C   0  0  0  0  0  0  0  0  0  0  0  0
    5.3448   -4.2614   33.9697 C   0  0  0  0  0  0  0  0  0  0  0  0
    4.6067   -5.0128   33.0511 C   0  0  0  0  0  0  0  0  0  0  0  0
   -0.0771   -0.8662   27.4978 N   0  0  0  0  0  0  0  0  0  0  0  0
    1.3212   -0.3742   27.5793 C   0  0  0  0  0  0  0  0  0  0  0  0
   -0.6718   -0.9760   25.8918 S   0  0  0  0  0  0  0  0  0  0  0  0
    0.6020   -0.1194   24.9879 C   0  0  0  0  0  0  0  0  0  0  0  0
   -0.6158   -2.3662   25.4904 O   0  0  0  0  0  0  0  0  0  0  0  0
   -1.9079   -0.2296   25.7781 O   0  0  0  0  0  0  0  0  0  0  0  0
   -4.7726   -3.7434   32.2472 C   0  0  0  0  0  0  0  0  0  0  0  0
   -4.9424   -4.9927   33.1526 C   0  0  0  0  0  0  0  0  0  0  0  0
   -4.0453   -6.1975   32.9449 C   0  0  0  0  0  0  0  0  0  0  0  0
   -3.0964   -6.5743   33.9063 C   0  0  0  0  0  0  0  0  0  0  0  0
   -2.2527   -7.6677   33.6930 C   0  0  0  0  0  0  0  0  0  0  0  0
   -2.3311   -8.3866   32.5028 C   0  0  0  0  0  0  0  0  0  0  0  0
   -3.2388   -8.0037   31.5192 C   0  0  0  0  0  0  0  0  0  0  0  0
   -4.0804   -6.9100   31.7366 C   0  0  0  0  0  0  0  0  0  0  0  0
   -5.1933   -2.3708   32.8572 C   0  0  0  0  0  0  0  0  0  0  0  0
   -6.0126   -2.6121   34.0354 O   0  0  0  0  0  0  0  0  0  0  0  0
   -7.4067   -2.6276   33.7539 C   0  0  0  0  0  0  0  0  0  0  0  0
   -6.0358   -1.4432   31.9501 C   0  0  0  0  0  0  0  0  0  0  0  0
   -5.3019   -0.5446   31.0510 N   0  0  0  0  0  0  0  0  0  0  0  0
   -4.3093   -0.7666   31.1277 H   0  0  0  0  0  0  0  0  0  0  0  0
   -5.4642    0.8859   31.3128 C   0  0  0  0  0  0  0  0  0  0  0  0
   -9.2455    1.0671   30.7753 C   0  0  0  0  0  0  0  0  0  0  0  0
   -9.4310    2.4347   30.5755 C   0  0  0  0  0  0  0  0  0  0  0  0
   -8.3347    3.3004   30.6053 C   0  0  0  0  0  0  0  0  0  0  0  0
   -7.0497    2.8055   30.8342 C   0  0  0  0  0  0  0  0  0  0  0  0
   -6.8418    1.4335   31.0277 C   0  0  0  0  0  0  0  0  0  0  0  0
   -7.9519    0.5742   30.9874 C   0  0  0  0  0  0  0  0  0  0  0  0
   -9.9004   -1.1509   31.3402 C   0  0  0  0  0  0  0  0  0  0  0  0
  -10.2308    0.1171   30.7830 O   0  0  0  0  0  0  0  0  0  0  0  0
 50 51  1  0
 51 44  1  0
 44 45  2  0
 45 46  1  0
 46 47  2  0
 47 48  1  0
 48 43  1  0
 43 41  1  0
 41 40  1  0
 37 40  1  0
 37 38  1  0
 38 39  1  0
 37 29  1  0
 29 30  1  0
 30 31  1  0
 31 32  2  0
 32 33  1  0
 33 34  2  0
 34 35  1  0
 35 36  2  0
 29  1  1  0
  1  2  1  0
  2  3  2  0
  2  5  1  0
  5  6  2  0
  6  7  1  0
  7 11  1  0
 11 12  2  0
 11 13  1  0
 13 15  1  0
 15 16  1  0
 15 17  1  0
 17 18  2  0
 18 19  1  0
 19 20  2  0
 20 21  1  0
 21 22  2  0
  7  8  2  0
  8  9  1  0
  9 23  1  0
 23 24  1  0
 23 25  1  0
 25 26  1  0
 25 27  2  0
 25 28  2  0
  9 10  2  0
 48 49  2  0
 49 44  1  0
 36 31  1  0
 10  5  1  0
 22 17  1  0
 41 42  1  0
  1  4  1  0
 13 14  1  0
M  END
> <minimizedAffinity>
-10.96199

> <CNNscore>
0.8369045258

> <CNNaffinity>
8.0087747574

> <CNN_VS>
6.7025799751

> <CNNaffinity_variance>
0.7131908536

$$$$



 51 54  0  0  0  0  0  0  0  0999 V2000
   -3.0483   -3.8555   31.4655 N   0  0  0  0  0  0  0  0  0  0  0  0
   -2.8520   -3.3656   30.1927 C   0  0  0  0  0  0  0  0  0  0  0  0
   -3.7572   -2.9995   29.4548 O   0  0  0  0  0  0  0  0  0  0  0  0
   -2.2754   -4.1898   31.9755 H   0  0  0  0  0  0  0  0  0  0  0  0
   -1.4402   -3.2874   29.7348 C   0  0  0  0  0  0  0  0  0  0  0  0
   -1.0545   -2.2135   28.9233 C   0  0  0  0  0  0  0  0  0  0  0  0
    0.2581   -2.1374   28.4470 C   0  0  0  0  0  0  0  0  0  0  0  0
    1.1677   -3.1582   28.7438 C   0  0  0  0  0  0  0  0  0  0  0  0
    0.7890   -4.2181   29.5710 C   0  0  0  0  0  0  0  0  0  0  0  0
   -0.5182   -4.2940   30.0538 C   0  0  0  0  0  0  0  0  0  0  0  0
    0.6537   -0.9740   27.6113 C   0  0  0  0  0  0  0  0  0  0  0  0
    1.1459    0.0171   28.1356 O   0  0  0  0  0  0  0  0  0  0  0  0
    0.4714   -1.1152   26.2528 N   0  0  0  0  0  0  0  0  0  0  0  0
    0.0684   -1.9454   25.9098 H   0  0  0  0  0  0  0  0  0  0  0  0
    0.8558   -0.0754   25.3079 C   0  0  0  0  0  0  0  0  0  0  0  0
   -0.3429    0.3253   24.4415 C   0  0  0  0  0  0  0  0  0  0  0  0
    2.0788   -0.5468   24.5357 C   0  0  0  0  0  0  0  0  0  0  0  0
    2.7021   -1.7457   24.9319 C   0  0  0  0  0  0  0  0  0  0  0  0
    3.7930   -2.2568   24.2270 C   0  0  0  0  0  0  0  0  0  0  0  0
    4.2750   -1.5834   23.1089 C   0  0  0  0  0  0  0  0  0  0  0  0
    3.6655   -0.3978   22.6960 C   0  0  0  0  0  0  0  0  0  0  0  0
    2.5702    0.1127   23.3980 C   0  0  0  0  0  0  0  0  0  0  0  0
    1.6753   -5.3180   29.8571 N   0  0  0  0  0  0  0  0  0  0  0  0
    2.8222   -5.4325   28.9215 C   0  0  0  0  0  0  0  0  0  0  0  0
    2.1088   -5.5418   31.5024 S   0  0  0  0  0  0  0  0  0  0  0  0
    0.9356   -6.7835   32.0072 C   0  0  0  0  0  0  0  0  0  0  0  0
    3.4195   -6.1563   31.5379 O   0  0  0  0  0  0  0  0  0  0  0  0
    1.8495   -4.3250   32.2442 O   0  0  0  0  0  0  0  0  0  0  0  0
   -4.3824   -3.8916   32.0807 C   0  0  0  0  0  0  0  0  0  0  0  0
   -4.6884   -5.1859   32.8809 C   0  0  0  0  0  0  0  0  0  0  0  0
   -3.8579   -6.4315   32.6394 C   0  0  0  0  0  0  0  0  0  0  0  0
   -3.0490   -6.9753   33.6477 C   0  0  0  0  0  0  0  0  0  0  0  0
   -2.2633   -8.1056   33.4071 C   0  0  0  0  0  0  0  0  0  0  0  0
   -2.2583   -8.6949   32.1453 C   0  0  0  0  0  0  0  0  0  0  0  0
   -3.0234   -8.1461   31.1199 C   0  0  0  0  0  0  0  0  0  0  0  0
   -3.8075   -7.0161   31.3649 C   0  0  0  0  0  0  0  0  0  0  0  0
   -4.7180   -2.5376   32.7787 C   0  0  0  0  0  0  0  0  0  0  0  0
   -5.1408   -2.8062   34.1451 O   0  0  0  0  0  0  0  0  0  0  0  0
   -6.5113   -3.1735   34.2447 C   0  0  0  0  0  0  0  0  0  0  0  0
   -5.8579   -1.7022   32.1494 C   0  0  0  0  0  0  0  0  0  0  0  0
   -6.4543   -0.6530   32.9849 N   0  0  0  0  0  0  0  0  0  0  0  0
   -6.7668   -1.0847   33.8546 H   0  0  0  0  0  0  0  0  0  0  0  0
   -7.5939    0.0532   32.3987 C   0  0  0  0  0  0  0  0  0  0  0  0
  -10.6087   -2.2750   32.7305 C   0  0  0  0  0  0  0  0  0  0  0  0
  -11.0088   -2.4004   31.4005 C   0  0  0  0  0  0  0  0  0  0  0  0
  -10.3008   -1.7407   30.3926 C   0  0  0  0  0  0  0  0  0  0  0  0
   -9.1918   -0.9537   30.7072 C   0  0  0  0  0  0  0  0  0  0  0  0
   -8.7687   -0.8229   32.0366 C   0  0  0  0  0  0  0  0  0  0  0  0
   -9.4850   -1.4980   33.0383 C   0  0  0  0  0  0  0  0  0  0  0  0
  -11.6209   -4.2144   33.6694 C   0  0  0  0  0  0  0  0  0  0  0  0
  -11.2188   -2.8557   33.8094 O   0  0  0  0  0  0  0  0  0  0  0  0
 50 51  1  0
 51 44  1  0
 44 45  2  0
 45 46  1  0
 46 47  2  0
 47 48  1  0
 48 43  1  0
 43 41  1  0
 41 40  1  0
 37 40  1  0
 37 38  1  0
 38 39  1  0
 37 29  1  0
 29 30  1  0
 30 31  1  0
 31 32  2  0
 32 33  1  0
 33 34  2  0
 34 35  1  0
 35 36  2  0
 29  1  1  0
  1  2  1  0
  2  3  2  0
  2  5  1  0
  5  6  2  0
  6  7  1  0
  7 11  1  0
 11 12  2  0
 11 13  1  0
 13 15  1  0
 15 16  1  0
 15 17  1  0
 17 18  2  0
 18 19  1  0
 19 20  2  0
 20 21  1  0
 21 22  2  0
  7  8  2  0
  8  9  1  0
  9 23  1  0
 23 24  1  0
 23 25  1  0
 25 26  1  0
 25 27  2  0
 25 28  2  0
  9 10  2  0
 48 49  2  0
 49 44  1  0
 36 31  1  0
 10  5  1  0
 22 17  1  0
 41 42  1  0
  1  4  1  0
 13 14  1  0
M  END
> <minimizedAffinity>
-9.56074

> <CNNscore>
0.8244618177

> <CNNaffinity>
7.5930037498

> <CNN_VS>
6.2601418495

> <CNNaffinity_variance>
0.9644171596

$$$$



 51 54  0  0  0  0  0  0  0  0999 V2000
   -3.2277   -3.7319   31.3026 N   0  0  0  0  0  0  0  0  0  0  0  0
   -3.0675   -3.2318   30.0288 C   0  0  0  0  0  0  0  0  0  0  0  0
   -3.9927   -2.8544   29.3220 O   0  0  0  0  0  0  0  0  0  0  0  0
   -2.4416   -4.0747   31.7860 H   0  0  0  0  0  0  0  0  0  0  0  0
   -1.6699   -3.1570   29.5289 C   0  0  0  0  0  0  0  0  0  0  0  0
   -0.7146   -4.0266   30.0691 C   0  0  0  0  0  0  0  0  0  0  0  0
    0.6155   -3.9502   29.6442 C   0  0  0  0  0  0  0  0  0  0  0  0
    0.9958   -2.9746   28.7161 C   0  0  0  0  0  0  0  0  0  0  0  0
    0.0390   -2.1217   28.1612 C   0  0  0  0  0  0  0  0  0  0  0  0
   -1.2907   -2.1994   28.5779 C   0  0  0  0  0  0  0  0  0  0  0  0
    1.6071   -4.9019   30.2093 C   0  0  0  0  0  0  0  0  0  0  0  0
    2.4512   -5.4098   29.4822 O   0  0  0  0  0  0  0  0  0  0  0  0
    1.5300   -5.1201   31.5676 N   0  0  0  0  0  0  0  0  0  0  0  0
    0.8204   -4.6724   32.0827 H   0  0  0  0  0  0  0  0  0  0  0  0
    2.4649   -5.9920   32.2659 C   0  0  0  0  0  0  0  0  0  0  0  0
    1.7116   -7.1308   32.9614 C   0  0  0  0  0  0  0  0  0  0  0  0
    3.3332   -5.1418   33.1810 C   0  0  0  0  0  0  0  0  0  0  0  0
    2.7237   -4.4902   34.2704 C   0  0  0  0  0  0  0  0  0  0  0  0
    3.4784   -3.7427   35.1759 C   0  0  0  0  0  0  0  0  0  0  0  0
    4.8565   -3.6400   35.0135 C   0  0  0  0  0  0  0  0  0  0  0  0
    5.4798   -4.2851   33.9445 C   0  0  0  0  0  0  0  0  0  0  0  0
    4.7261   -5.0378   33.0398 C   0  0  0  0  0  0  0  0  0  0  0  0
    0.3950   -1.0676   27.2452 N   0  0  0  0  0  0  0  0  0  0  0  0
    0.9209    0.1555   27.9019 C   0  0  0  0  0  0  0  0  0  0  0  0
    1.2836   -1.5332   25.8528 S   0  0  0  0  0  0  0  0  0  0  0  0
    0.8681   -0.2237   24.7188 C   0  0  0  0  0  0  0  0  0  0  0  0
    2.6927   -1.3992   26.1585 O   0  0  0  0  0  0  0  0  0  0  0  0
    0.7612   -2.7816   25.3365 O   0  0  0  0  0  0  0  0  0  0  0  0
   -4.5428   -3.7665   31.9578 C   0  0  0  0  0  0  0  0  0  0  0  0
   -4.7800   -5.0055   32.8621 C   0  0  0  0  0  0  0  0  0  0  0  0
   -3.8986   -6.2293   32.7045 C   0  0  0  0  0  0  0  0  0  0  0  0
   -3.9001   -6.9814   31.5209 C   0  0  0  0  0  0  0  0  0  0  0  0
   -3.1076   -8.1256   31.3956 C   0  0  0  0  0  0  0  0  0  0  0  0
   -2.3185   -8.5469   32.4630 C   0  0  0  0  0  0  0  0  0  0  0  0
   -2.3339   -7.8367   33.6602 C   0  0  0  0  0  0  0  0  0  0  0  0
   -3.1276   -6.6934   33.7811 C   0  0  0  0  0  0  0  0  0  0  0  0
   -4.9086   -2.3754   32.5613 C   0  0  0  0  0  0  0  0  0  0  0  0
   -5.2421   -2.5468   33.9674 O   0  0  0  0  0  0  0  0  0  0  0  0
   -6.5768   -2.9922   34.1756 C   0  0  0  0  0  0  0  0  0  0  0  0
   -6.1221   -1.6499   31.9336 C   0  0  0  0  0  0  0  0  0  0  0  0
   -6.2180   -0.2014   32.1513 N   0  0  0  0  0  0  0  0  0  0  0  0
   -5.5028    0.0617   32.8293 H   0  0  0  0  0  0  0  0  0  0  0  0
   -7.5072    0.2813   32.6475 C   0  0  0  0  0  0  0  0  0  0  0  0
  -10.1767   -0.6467   30.0722 C   0  0  0  0  0  0  0  0  0  0  0  0
  -10.9168   -1.5991   30.7722 C   0  0  0  0  0  0  0  0  0  0  0  0
  -10.5609   -1.9374   32.0803 C   0  0  0  0  0  0  0  0  0  0  0  0
   -9.4661   -1.3275   32.6949 C   0  0  0  0  0  0  0  0  0  0  0  0
   -8.7159   -0.3615   32.0113 C   0  0  0  0  0  0  0  0  0  0  0  0
   -9.0898   -0.0256   30.7000 C   0  0  0  0  0  0  0  0  0  0  0  0
   -9.9506    1.0647   28.4329 C   0  0  0  0  0  0  0  0  0  0  0  0
  -10.4103   -0.2353   28.7878 O   0  0  0  0  0  0  0  0  0  0  0  0
 50 51  1  0
 51 44  1  0
 44 45  2  0
 45 46  1  0
 46 47  2  0
 47 48  1  0
 48 43  1  0
 43 41  1  0
 41 40  1  0
 37 40  1  0
 37 38  1  0
 38 39  1  0
 37 29  1  0
 29 30  1  0
 30 31  1  0
 31 32  2  0
 32 33  1  0
 33 34  2  0
 34 35  1  0
 35 36  2  0
 29  1  1  0
  1  2  1  0
  2  3  2  0
  2  5  1  0
  5  6  2  0
  6  7  1  0
  7 11  1  0
 11 12  2  0
 11 13  1  0
 13 15  1  0
 15 16  1  0
 15 17  1  0
 17 18  2  0
 18 19  1  0
 19 20  2  0
 20 21  1  0
 21 22  2  0
  7  8  2  0
  8  9  1  0
  9 23  1  0
 23 24  1  0
 23 25  1  0
 25 26  1  0
 25 27  2  0
 25 28  2  0
  9 10  2  0
 48 49  2  0
 49 44  1  0
 36 31  1  0
 10  5  1  0
 22 17  1  0
 41 42  1  0
  1  4  1  0
 13 14  1  0
M  END
> <minimizedAffinity>
-10.31015

> <CNNscore>
0.7190288305

> <CNNaffinity>
7.8086047173

> <CNN_VS>
5.6146121025

> <CNNaffinity_variance>
1.0116170645

$$$$



 51 54  0  0  0  0  0  0  0  0999 V2000
   -3.2194   -4.0521   30.6738 N   0  0  0  0  0  0  0  0  0  0  0  0
   -2.7725   -2.9223   30.0240 C   0  0  0  0  0  0  0  0  0  0  0  0
   -3.4279   -1.8948   29.9117 O   0  0  0  0  0  0  0  0  0  0  0  0
   -2.6598   -4.8621   30.6680 H   0  0  0  0  0  0  0  0  0  0  0  0
   -1.4043   -2.9996   29.4485 C   0  0  0  0  0  0  0  0  0  0  0  0
   -0.4892   -3.9002   30.0073 C   0  0  0  0  0  0  0  0  0  0  0  0
    0.8161   -3.9646   29.5098 C   0  0  0  0  0  0  0  0  0  0  0  0
    1.2163   -3.0967   28.4880 C   0  0  0  0  0  0  0  0  0  0  0  0
    0.2976   -2.2137   27.9160 C   0  0  0  0  0  0  0  0  0  0  0  0
   -1.0079   -2.1512   28.4053 C   0  0  0  0  0  0  0  0  0  0  0  0
    1.7624   -4.9478   30.0981 C   0  0  0  0  0  0  0  0  0  0  0  0
    2.6432   -5.4402   29.4044 O   0  0  0  0  0  0  0  0  0  0  0  0
    1.6023   -5.2128   31.4408 N   0  0  0  0  0  0  0  0  0  0  0  0
    0.8679   -4.7748   31.9286 H   0  0  0  0  0  0  0  0  0  0  0  0
    2.4849   -6.1203   32.1614 C   0  0  0  0  0  0  0  0  0  0  0  0
    1.6680   -7.0537   33.0611 C   0  0  0  0  0  0  0  0  0  0  0  0
    3.5457   -5.3000   32.8797 C   0  0  0  0  0  0  0  0  0  0  0  0
    3.1538   -4.5074   33.9756 C   0  0  0  0  0  0  0  0  0  0  0  0
    4.0915   -3.7776   34.7080 C   0  0  0  0  0  0  0  0  0  0  0  0
    5.4384   -3.8336   34.3634 C   0  0  0  0  0  0  0  0  0  0  0  0
    5.8473   -4.6197   33.2853 C   0  0  0  0  0  0  0  0  0  0  0  0
    4.9102   -5.3547   32.5540 C   0  0  0  0  0  0  0  0  0  0  0  0
    0.6803   -1.2648   26.9010 N   0  0  0  0  0  0  0  0  0  0  0  0
    2.1235   -1.2952   26.5548 C   0  0  0  0  0  0  0  0  0  0  0  0
   -0.3499   -1.1523   25.5331 S   0  0  0  0  0  0  0  0  0  0  0  0
    0.7155   -0.3403   24.3589 C   0  0  0  0  0  0  0  0  0  0  0  0
   -0.5823   -2.4935   25.0392 O   0  0  0  0  0  0  0  0  0  0  0  0
   -1.4653   -0.2785   25.8339 O   0  0  0  0  0  0  0  0  0  0  0  0
   -4.5105   -4.0783   31.3753 C   0  0  0  0  0  0  0  0  0  0  0  0
   -4.6428   -5.1997   32.4403 C   0  0  0  0  0  0  0  0  0  0  0  0
   -3.7540   -6.4253   32.3539 C   0  0  0  0  0  0  0  0  0  0  0  0
   -3.5270   -7.0766   31.1328 C   0  0  0  0  0  0  0  0  0  0  0  0
   -2.7314   -8.2236   31.0674 C   0  0  0  0  0  0  0  0  0  0  0  0
   -2.1694   -8.7489   32.2283 C   0  0  0  0  0  0  0  0  0  0  0  0
   -2.4160   -8.1401   33.4557 C   0  0  0  0  0  0  0  0  0  0  0  0
   -3.2120   -6.9936   33.5166 C   0  0  0  0  0  0  0  0  0  0  0  0
   -4.9469   -2.6442   31.8066 C   0  0  0  0  0  0  0  0  0  0  0  0
   -4.6311   -2.4613   33.2154 O   0  0  0  0  0  0  0  0  0  0  0  0
   -5.7701   -2.5603   34.0615 C   0  0  0  0  0  0  0  0  0  0  0  0
   -6.4520   -2.3129   31.6735 C   0  0  0  0  0  0  0  0  0  0  0  0
   -6.7987   -0.9724   31.1861 N   0  0  0  0  0  0  0  0  0  0  0  0
   -5.9588   -0.3954   31.2317 H   0  0  0  0  0  0  0  0  0  0  0  0
   -7.8580   -0.2836   31.9240 C   0  0  0  0  0  0  0  0  0  0  0  0
  -10.8920   -2.2801   33.1193 C   0  0  0  0  0  0  0  0  0  0  0  0
  -11.7096   -2.2428   31.9903 C   0  0  0  0  0  0  0  0  0  0  0  0
  -11.2796   -1.5804   30.8376 C   0  0  0  0  0  0  0  0  0  0  0  0
  -10.0331   -0.9531   30.8066 C   0  0  0  0  0  0  0  0  0  0  0  0
   -9.1933   -0.9877   31.9277 C   0  0  0  0  0  0  0  0  0  0  0  0
   -9.6352   -1.6637   33.0766 C   0  0  0  0  0  0  0  0  0  0  0  0
  -12.1394   -3.9480   34.2724 C   0  0  0  0  0  0  0  0  0  0  0  0
  -11.1969   -2.8814   34.3105 O   0  0  0  0  0  0  0  0  0  0  0  0
 50 51  1  0
 51 44  1  0
 44 45  2  0
 45 46  1  0
 46 47  2  0
 47 48  1  0
 48 43  1  0
 43 41  1  0
 41 40  1  0
 37 40  1  0
 37 38  1  0
 38 39  1  0
 37 29  1  0
 29 30  1  0
 30 31  1  0
 31 32  2  0
 32 33  1  0
 33 34  2  0
 34 35  1  0
 35 36  2  0
 29  1  1  0
  1  2  1  0
  2  3  2  0
  2  5  1  0
  5  6  2  0
  6  7  1  0
  7 11  1  0
 11 12  2  0
 11 13  1  0
 13 15  1  0
 15 16  1  0
 15 17  1  0
 17 18  2  0
 18 19  1  0
 19 20  2  0
 20 21  1  0
 21 22  2  0
  7  8  2  0
  8  9  1  0
  9 23  1  0
 23 24  1  0
 23 25  1  0
 25 26  1  0
 25 27  2  0
 25 28  2  0
  9 10  2  0
 48 49  2  0
 49 44  1  0
 36 31  1  0
 10  5  1  0
 22 17  1  0
 41 42  1  0
  1  4  1  0
 13 14  1  0
M  END
> <minimizedAffinity>
-10.27733

> <CNNscore>
0.3849937916

> <CNNaffinity>
6.9052290916

> <CNN_VS>
2.6584703922

> <CNNaffinity_variance>
1.5488214493

$$$$



 51 54  0  0  0  0  0  0  0  0999 V2000
   -0.2720   -2.0017   26.5630 N   0  0  0  0  0  0  0  0  0  0  0  0
   -0.9115   -1.5397   27.6927 C   0  0  0  0  0  0  0  0  0  0  0  0
   -1.2595   -0.3774   27.8532 O   0  0  0  0  0  0  0  0  0  0  0  0
    0.0339   -2.9370   26.5333 H   0  0  0  0  0  0  0  0  0  0  0  0
   -1.1812   -2.5505   28.7484 C   0  0  0  0  0  0  0  0  0  0  0  0
   -0.1192   -3.3331   29.2176 C   0  0  0  0  0  0  0  0  0  0  0  0
   -0.3536   -4.3179   30.1825 C   0  0  0  0  0  0  0  0  0  0  0  0
   -1.6552   -4.5492   30.6405 C   0  0  0  0  0  0  0  0  0  0  0  0
   -2.7109   -3.7540   30.1885 C   0  0  0  0  0  0  0  0  0  0  0  0
   -2.4797   -2.7658   29.2306 C   0  0  0  0  0  0  0  0  0  0  0  0
    0.7927   -5.1173   30.6877 C   0  0  0  0  0  0  0  0  0  0  0  0
    1.8119   -5.2178   30.0165 O   0  0  0  0  0  0  0  0  0  0  0  0
    0.6377   -5.6734   31.9388 N   0  0  0  0  0  0  0  0  0  0  0  0
   -0.2147   -5.5459   32.4146 H   0  0  0  0  0  0  0  0  0  0  0  0
    1.6947   -6.4437   32.5800 C   0  0  0  0  0  0  0  0  0  0  0  0
    1.0931   -7.5754   33.4198 C   0  0  0  0  0  0  0  0  0  0  0  0
    2.6001   -5.4881   33.3424 C   0  0  0  0  0  0  0  0  0  0  0  0
    3.9259   -5.3210   32.8985 C   0  0  0  0  0  0  0  0  0  0  0  0
    4.7856   -4.4163   33.5236 C   0  0  0  0  0  0  0  0  0  0  0  0
    4.3331   -3.6566   34.5979 C   0  0  0  0  0  0  0  0  0  0  0  0
    3.0200   -3.8025   35.0473 C   0  0  0  0  0  0  0  0  0  0  0  0
    2.1566   -4.7044   34.4195 C   0  0  0  0  0  0  0  0  0  0  0  0
   -4.0739   -3.9931   30.5911 N   0  0  0  0  0  0  0  0  0  0  0  0
   -4.2614   -5.2253   31.3975 C   0  0  0  0  0  0  0  0  0  0  0  0
   -4.9404   -2.6408   31.1955 S   0  0  0  0  0  0  0  0  0  0  0  0
   -4.5702   -2.7373   32.9352 C   0  0  0  0  0  0  0  0  0  0  0  0
   -4.3032   -1.4421   30.6914 O   0  0  0  0  0  0  0  0  0  0  0  0
   -6.3615   -2.8495   31.0079 O   0  0  0  0  0  0  0  0  0  0  0  0
   -0.0350   -1.1332   25.4014 C   0  0  0  0  0  0  0  0  0  0  0  0
   -1.1840   -0.1347   25.0981 C   0  0  0  0  0  0  0  0  0  0  0  0
   -2.0568   -0.3438   23.8758 C   0  0  0  0  0  0  0  0  0  0  0  0
   -2.7363   -1.5520   23.6632 C   0  0  0  0  0  0  0  0  0  0  0  0
   -3.5139   -1.7472   22.5185 C   0  0  0  0  0  0  0  0  0  0  0  0
   -3.6041   -0.7430   21.5579 C   0  0  0  0  0  0  0  0  0  0  0  0
   -2.9046    0.4481   21.7312 C   0  0  0  0  0  0  0  0  0  0  0  0
   -2.1285    0.6391   22.8770 C   0  0  0  0  0  0  0  0  0  0  0  0
    1.4135   -0.5546   25.4163 C   0  0  0  0  0  0  0  0  0  0  0  0
    1.4593    0.6183   24.5561 O   0  0  0  0  0  0  0  0  0  0  0  0
    1.9359    0.3334   23.2465 C   0  0  0  0  0  0  0  0  0  0  0  0
    2.5338   -1.4892   24.9019 C   0  0  0  0  0  0  0  0  0  0  0  0
    3.8206   -1.4371   25.6062 N   0  0  0  0  0  0  0  0  0  0  0  0
    4.0099   -0.4629   25.8415 H   0  0  0  0  0  0  0  0  0  0  0  0
    4.9713   -1.9523   24.8636 C   0  0  0  0  0  0  0  0  0  0  0  0
    8.0968   -3.2875   26.6153 C   0  0  0  0  0  0  0  0  0  0  0  0
    8.7123   -2.1042   27.0223 C   0  0  0  0  0  0  0  0  0  0  0  0
    8.1154   -0.8729   26.7398 C   0  0  0  0  0  0  0  0  0  0  0  0
    6.9029   -0.8172   26.0506 C   0  0  0  0  0  0  0  0  0  0  0  0
    6.2643   -1.9954   25.6417 C   0  0  0  0  0  0  0  0  0  0  0  0
    6.8718   -3.2261   25.9394 C   0  0  0  0  0  0  0  0  0  0  0  0
    7.6291   -5.5603   27.1474 C   0  0  0  0  0  0  0  0  0  0  0  0
    8.5791   -4.5525   26.8169 O   0  0  0  0  0  0  0  0  0  0  0  0
 50 51  1  0
 51 44  1  0
 44 45  2  0
 45 46  1  0
 46 47  2  0
 47 48  1  0
 48 43  1  0
 43 41  1  0
 41 40  1  0
 37 40  1  0
 37 38  1  0
 38 39  1  0
 37 29  1  0
 29 30  1  0
 30 31  1  0
 31 32  2  0
 32 33  1  0
 33 34  2  0
 34 35  1  0
 35 36  2  0
 29  1  1  0
  1  2  1  0
  2  3  2  0
  2  5  1  0
  5  6  2  0
  6  7  1  0
  7 11  1  0
 11 12  2  0
 11 13  1  0
 13 15  1  0
 15 16  1  0
 15 17  1  0
 17 18  2  0
 18 19  1  0
 19 20  2  0
 20 21  1  0
 21 22  2  0
  7  8  2  0
  8  9  1  0
  9 23  1  0
 23 24  1  0
 23 25  1  0
 25 26  1  0
 25 27  2  0
 25 28  2  0
  9 10  2  0
 48 49  2  0
 49 44  1  0
 36 31  1  0
 10  5  1  0
 22 17  1  0
 41 42  1  0
  1  4  1  0
 13 14  1  0
M  END
> <minimizedAffinity>
-9.35131

> <CNNscore>
0.2369570583

> <CNNaffinity>
6.4816665649

> <CNN_VS>
1.5358766317

> <CNNaffinity_variance>
1.1773227453

$$$$



 51 54  0  0  0  0  0  0  0  0999 V2000
    0.8601   -5.0776   32.0091 N   0  0  0  0  0  0  0  0  0  0  0  0
    0.8028   -5.1325   30.6335 C   0  0  0  0  0  0  0  0  0  0  0  0
    1.2479   -6.0581   29.9679 O   0  0  0  0  0  0  0  0  0  0  0  0
    0.5373   -4.2704   32.4711 H   0  0  0  0  0  0  0  0  0  0  0  0
    0.1450   -3.9812   29.9621 C   0  0  0  0  0  0  0  0  0  0  0  0
   -1.2332   -3.8012   30.1316 C   0  0  0  0  0  0  0  0  0  0  0  0
   -1.8830   -2.7487   29.4793 C   0  0  0  0  0  0  0  0  0  0  0  0
   -1.1629   -1.9086   28.6230 C   0  0  0  0  0  0  0  0  0  0  0  0
    0.2155   -2.0749   28.4710 C   0  0  0  0  0  0  0  0  0  0  0  0
    0.8688   -3.1200   29.1256 C   0  0  0  0  0  0  0  0  0  0  0  0
   -3.3408   -2.5586   29.6963 C   0  0  0  0  0  0  0  0  0  0  0  0
   -4.1200   -3.4712   29.4527 O   0  0  0  0  0  0  0  0  0  0  0  0
   -3.7214   -1.3400   30.2147 N   0  0  0  0  0  0  0  0  0  0  0  0
   -3.0320   -0.6576   30.3831 H   0  0  0  0  0  0  0  0  0  0  0  0
   -5.1110   -1.0291   30.5216 C   0  0  0  0  0  0  0  0  0  0  0  0
   -5.2990    0.4854   30.6592 C   0  0  0  0  0  0  0  0  0  0  0  0
   -5.5358   -1.8430   31.7345 C   0  0  0  0  0  0  0  0  0  0  0  0
   -4.5371   -2.4547   32.5162 C   0  0  0  0  0  0  0  0  0  0  0  0
   -4.8627   -3.1666   33.6717 C   0  0  0  0  0  0  0  0  0  0  0  0
   -6.1913   -3.2728   34.0711 C   0  0  0  0  0  0  0  0  0  0  0  0
   -7.1946   -2.6668   33.3138 C   0  0  0  0  0  0  0  0  0  0  0  0
   -6.8697   -1.9496   32.1591 C   0  0  0  0  0  0  0  0  0  0  0  0
    0.9860   -1.2687   27.5580 N   0  0  0  0  0  0  0  0  0  0  0  0
    2.3201   -1.8307   27.2294 C   0  0  0  0  0  0  0  0  0  0  0  0
    0.1495   -0.6482   26.1940 S   0  0  0  0  0  0  0  0  0  0  0  0
    0.1125   -2.0748   25.1278 C   0  0  0  0  0  0  0  0  0  0  0  0
   -1.2165   -0.3806   26.5932 O   0  0  0  0  0  0  0  0  0  0  0  0
    0.9448    0.3855   25.5638 O   0  0  0  0  0  0  0  0  0  0  0  0
    1.3911   -6.1939   32.8040 C   0  0  0  0  0  0  0  0  0  0  0  0
    0.6299   -7.5343   32.6217 C   0  0  0  0  0  0  0  0  0  0  0  0
   -0.8684   -7.5207   32.3886 C   0  0  0  0  0  0  0  0  0  0  0  0
   -1.4231   -7.9785   31.1847 C   0  0  0  0  0  0  0  0  0  0  0  0
   -2.8027   -7.9337   30.9664 C   0  0  0  0  0  0  0  0  0  0  0  0
   -3.6458   -7.4083   31.9423 C   0  0  0  0  0  0  0  0  0  0  0  0
   -3.1107   -6.9118   33.1277 C   0  0  0  0  0  0  0  0  0  0  0  0
   -1.7309   -6.9585   33.3418 C   0  0  0  0  0  0  0  0  0  0  0  0
    2.9477   -6.2528   32.7234 C   0  0  0  0  0  0  0  0  0  0  0  0
    3.4836   -4.9339   33.0254 O   0  0  0  0  0  0  0  0  0  0  0  0
    2.8744   -4.3286   34.1592 C   0  0  0  0  0  0  0  0  0  0  0  0
    3.5524   -6.6415   31.3536 C   0  0  0  0  0  0  0  0  0  0  0  0
    4.8374   -6.0296   30.9948 N   0  0  0  0  0  0  0  0  0  0  0  0
    4.7883   -5.0378   31.2282 H   0  0  0  0  0  0  0  0  0  0  0  0
    5.2223   -6.1418   29.5875 C   0  0  0  0  0  0  0  0  0  0  0  0
    8.5391   -4.2530   29.3600 C   0  0  0  0  0  0  0  0  0  0  0  0
    8.3044   -3.4125   28.2722 C   0  0  0  0  0  0  0  0  0  0  0  0
    7.0718   -3.4475   27.6152 C   0  0  0  0  0  0  0  0  0  0  0  0
    6.0690   -4.3203   28.0404 C   0  0  0  0  0  0  0  0  0  0  0  0
    6.2823   -5.1658   29.1372 C   0  0  0  0  0  0  0  0  0  0  0  0
    7.5232   -5.1144   29.7928 C   0  0  0  0  0  0  0  0  0  0  0  0
    9.9370   -5.5308   30.8024 C   0  0  0  0  0  0  0  0  0  0  0  0
    9.7005   -4.3265   30.0804 O   0  0  0  0  0  0  0  0  0  0  0  0
 50 51  1  0
 51 44  1  0
 44 45  2  0
 45 46  1  0
 46 47  2  0
 47 48  1  0
 48 43  1  0
 43 41  1  0
 41 40  1  0
 37 40  1  0
 37 38  1  0
 38 39  1  0
 37 29  1  0
 29 30  1  0
 30 31  1  0
 31 32  2  0
 32 33  1  0
 33 34  2  0
 34 35  1  0
 35 36  2  0
 29  1  1  0
  1  2  1  0
  2  3  2  0
  2  5  1  0
  5  6  2  0
  6  7  1  0
  7 11  1  0
 11 12  2  0
 11 13  1  0
 13 15  1  0
 15 16  1  0
 15 17  1  0
 17 18  2  0
 18 19  1  0
 19 20  2  0
 20 21  1  0
 21 22  2  0
  7  8  2  0
  8  9  1  0
  9 23  1  0
 23 24  1  0
 23 25  1  0
 25 26  1  0
 25 27  2  0
 25 28  2  0
  9 10  2  0
 48 49  2  0
 49 44  1  0
 36 31  1  0
 10  5  1  0
 22 17  1  0
 41 42  1  0
  1  4  1  0
 13 14  1  0
M  END
> <minimizedAffinity>
-9.78630

> <CNNscore>
0.1995245516

> <CNNaffinity>
6.0544486046

> <CNN_VS>
1.2080111504

> <CNNaffinity_variance>
2.9424140453

$$$$



 51 54  0  0  0  0  0  0  0  0999 V2000
    3.2216   -6.5291   31.0807 N   0  0  0  0  0  0  0  0  0  0  0  0
    3.3359   -6.1569   29.7590 C   0  0  0  0  0  0  0  0  0  0  0  0
    2.4644   -5.5616   29.1394 O   0  0  0  0  0  0  0  0  0  0  0  0
    3.9395   -7.0616   31.4932 H   0  0  0  0  0  0  0  0  0  0  0  0
    4.6143   -6.5132   29.0898 C   0  0  0  0  0  0  0  0  0  0  0  0
    4.6858   -7.7124   28.3705 C   0  0  0  0  0  0  0  0  0  0  0  0
    5.8881   -8.0898   27.7642 C   0  0  0  0  0  0  0  0  0  0  0  0
    7.0269   -7.2916   27.9181 C   0  0  0  0  0  0  0  0  0  0  0  0
    6.9500   -6.0848   28.6171 C   0  0  0  0  0  0  0  0  0  0  0  0
    5.7501   -5.7016   29.2179 C   0  0  0  0  0  0  0  0  0  0  0  0
    5.9339   -9.3521   26.9814 C   0  0  0  0  0  0  0  0  0  0  0  0
    6.5355  -10.3236   27.4214 O   0  0  0  0  0  0  0  0  0  0  0  0
    5.2355   -9.3529   25.7937 N   0  0  0  0  0  0  0  0  0  0  0  0
    4.7770   -8.5292   25.5099 H   0  0  0  0  0  0  0  0  0  0  0  0
    5.1539  -10.5336   24.9444 C   0  0  0  0  0  0  0  0  0  0  0  0
    5.0467  -10.1230   23.4720 C   0  0  0  0  0  0  0  0  0  0  0  0
    4.0250  -11.4196   25.4491 C   0  0  0  0  0  0  0  0  0  0  0  0
    4.2877  -12.7866   25.6611 C   0  0  0  0  0  0  0  0  0  0  0  0
    3.3076  -13.6365   26.1761 C   0  0  0  0  0  0  0  0  0  0  0  0
    2.0503  -13.1337   26.4961 C   0  0  0  0  0  0  0  0  0  0  0  0
    1.7734  -11.7800   26.3004 C   0  0  0  0  0  0  0  0  0  0  0  0
    2.7552  -10.9268   25.7893 C   0  0  0  0  0  0  0  0  0  0  0  0
    8.1093   -5.2601   28.8470 N   0  0  0  0  0  0  0  0  0  0  0  0
    9.2717   -5.9906   29.4116 C   0  0  0  0  0  0  0  0  0  0  0  0
    8.5308   -4.1679   27.5921 S   0  0  0  0  0  0  0  0  0  0  0  0
    9.5355   -5.2049   26.5489 C   0  0  0  0  0  0  0  0  0  0  0  0
    7.3272   -3.8570   26.8494 O   0  0  0  0  0  0  0  0  0  0  0  0
    9.3562   -3.1051   28.1283 O   0  0  0  0  0  0  0  0  0  0  0  0
    2.0546   -6.1510   31.8901 C   0  0  0  0  0  0  0  0  0  0  0  0
    2.2750   -4.9127   32.7996 C   0  0  0  0  0  0  0  0  0  0  0  0
    3.6207   -4.7008   33.4658 C   0  0  0  0  0  0  0  0  0  0  0  0
    3.7221   -4.1030   34.7304 C   0  0  0  0  0  0  0  0  0  0  0  0
    4.9683   -3.8836   35.3234 C   0  0  0  0  0  0  0  0  0  0  0  0
    6.1335   -4.2389   34.6484 C   0  0  0  0  0  0  0  0  0  0  0  0
    6.0554   -4.7965   33.3752 C   0  0  0  0  0  0  0  0  0  0  0  0
    4.8075   -5.0142   32.7861 C   0  0  0  0  0  0  0  0  0  0  0  0
    0.7472   -6.1749   31.0397 C   0  0  0  0  0  0  0  0  0  0  0  0
    0.0501   -4.9095   31.2150 O   0  0  0  0  0  0  0  0  0  0  0  0
   -0.1257   -4.1943   29.9982 C   0  0  0  0  0  0  0  0  0  0  0  0
   -0.2862   -7.2695   31.3960 C   0  0  0  0  0  0  0  0  0  0  0  0
   -1.3205   -7.5602   30.3958 N   0  0  0  0  0  0  0  0  0  0  0  0
   -1.4094   -6.7440   29.7905 H   0  0  0  0  0  0  0  0  0  0  0  0
   -2.6474   -7.8722   30.9277 C   0  0  0  0  0  0  0  0  0  0  0  0
   -3.8579   -4.3973   31.9667 C   0  0  0  0  0  0  0  0  0  0  0  0
   -4.5486   -4.6857   33.1434 C   0  0  0  0  0  0  0  0  0  0  0  0
   -4.6177   -6.0013   33.6087 C   0  0  0  0  0  0  0  0  0  0  0  0
   -3.9985   -7.0339   32.9025 C   0  0  0  0  0  0  0  0  0  0  0  0
   -3.2919   -6.7629   31.7233 C   0  0  0  0  0  0  0  0  0  0  0  0
   -3.2241   -5.4349   31.2717 C   0  0  0  0  0  0  0  0  0  0  0  0
   -4.1607   -3.0186   30.0497 C   0  0  0  0  0  0  0  0  0  0  0  0
   -3.7250   -3.1595   31.3979 O   0  0  0  0  0  0  0  0  0  0  0  0
 50 51  1  0
 51 44  1  0
 44 45  2  0
 45 46  1  0
 46 47  2  0
 47 48  1  0
 48 43  1  0
 43 41  1  0
 41 40  1  0
 37 40  1  0
 37 38  1  0
 38 39  1  0
 37 29  1  0
 29 30  1  0
 30 31  1  0
 31 32  2  0
 32 33  1  0
 33 34  2  0
 34 35  1  0
 35 36  2  0
 29  1  1  0
  1  2  1  0
  2  3  2  0
  2  5  1  0
  5  6  2  0
  6  7  1  0
  7 11  1  0
 11 12  2  0
 11 13  1  0
 13 15  1  0
 15 16  1  0
 15 17  1  0
 17 18  2  0
 18 19  1  0
 19 20  2  0
 20 21  1  0
 21 22  2  0
  7  8  2  0
  8  9  1  0
  9 23  1  0
 23 24  1  0
 23 25  1  0
 25 26  1  0
 25 27  2  0
 25 28  2  0
  9 10  2  0
 48 49  2  0
 49 44  1  0
 36 31  1  0
 10  5  1  0
 22 17  1  0
 41 42  1  0
  1  4  1  0
 13 14  1  0
M  END
> <minimizedAffinity>
-8.91263

> <CNNscore>
0.1750395745

> <CNNaffinity>
5.9905161858

> <CNN_VS>
1.0485774279

> <CNNaffinity_variance>
1.8906301260

$$$$



 51 54  0  0  0  0  0  0  0  0999 V2000
    0.9264   -5.1287   32.3090 N   0  0  0  0  0  0  0  0  0  0  0  0
    0.9546   -5.1841   30.9325 C   0  0  0  0  0  0  0  0  0  0  0  0
    1.6946   -5.9205   30.2937 O   0  0  0  0  0  0  0  0  0  0  0  0
    0.3489   -4.4652   32.7509 H   0  0  0  0  0  0  0  0  0  0  0  0
    0.0069   -4.2844   30.2244 C   0  0  0  0  0  0  0  0  0  0  0  0
    0.5233   -3.2368   29.4520 C   0  0  0  0  0  0  0  0  0  0  0  0
   -0.3474   -2.3526   28.8073 C   0  0  0  0  0  0  0  0  0  0  0  0
   -1.7298   -2.4895   28.9747 C   0  0  0  0  0  0  0  0  0  0  0  0
   -2.2452   -3.5472   29.7273 C   0  0  0  0  0  0  0  0  0  0  0  0
   -1.3794   -4.4356   30.3667 C   0  0  0  0  0  0  0  0  0  0  0  0
    0.2218   -1.2655   27.9692 C   0  0  0  0  0  0  0  0  0  0  0  0
    0.9417   -0.4148   28.4764 O   0  0  0  0  0  0  0  0  0  0  0  0
   -0.0772   -1.3183   26.6252 N   0  0  0  0  0  0  0  0  0  0  0  0
   -0.6647   -2.0363   26.2956 H   0  0  0  0  0  0  0  0  0  0  0  0
    0.4482   -0.3459   25.6764 C   0  0  0  0  0  0  0  0  0  0  0  0
   -0.6391    0.0627   24.6769 C   0  0  0  0  0  0  0  0  0  0  0  0
    1.7161   -0.9096   25.0529 C   0  0  0  0  0  0  0  0  0  0  0  0
    2.1885   -0.3364   23.8567 C   0  0  0  0  0  0  0  0  0  0  0  0
    3.3762   -0.7742   23.2686 C   0  0  0  0  0  0  0  0  0  0  0  0
    4.1172   -1.7867   23.8701 C   0  0  0  0  0  0  0  0  0  0  0  0
    3.6695   -2.3618   25.0601 C   0  0  0  0  0  0  0  0  0  0  0  0
    2.4829   -1.9213   25.6526 C   0  0  0  0  0  0  0  0  0  0  0  0
   -3.6580   -3.6937   29.9714 N   0  0  0  0  0  0  0  0  0  0  0  0
   -4.0313   -4.9717   30.6279 C   0  0  0  0  0  0  0  0  0  0  0  0
   -4.4664   -2.3274   30.6231 S   0  0  0  0  0  0  0  0  0  0  0  0
   -4.0869   -2.4902   32.3559 C   0  0  0  0  0  0  0  0  0  0  0  0
   -3.7868   -1.1398   30.1490 O   0  0  0  0  0  0  0  0  0  0  0  0
   -5.8960   -2.4752   30.4420 O   0  0  0  0  0  0  0  0  0  0  0  0
    1.7370   -6.0355   33.1340 C   0  0  0  0  0  0  0  0  0  0  0  0
    1.2750   -7.5171   33.1076 C   0  0  0  0  0  0  0  0  0  0  0  0
   -0.1349   -7.8557   32.6637 C   0  0  0  0  0  0  0  0  0  0  0  0
   -0.3930   -8.3680   31.3839 C   0  0  0  0  0  0  0  0  0  0  0  0
   -1.6987   -8.6483   30.9722 C   0  0  0  0  0  0  0  0  0  0  0  0
   -2.7682   -8.3981   31.8284 C   0  0  0  0  0  0  0  0  0  0  0  0
   -2.5360   -7.8520   33.0877 C   0  0  0  0  0  0  0  0  0  0  0  0
   -1.2291   -7.5733   33.4953 C   0  0  0  0  0  0  0  0  0  0  0  0
    3.2608   -5.7706   32.9320 C   0  0  0  0  0  0  0  0  0  0  0  0
    3.4900   -4.3335   32.9214 O   0  0  0  0  0  0  0  0  0  0  0  0
    4.1174   -3.8583   34.1062 C   0  0  0  0  0  0  0  0  0  0  0  0
    3.8835   -6.2987   31.6180 C   0  0  0  0  0  0  0  0  0  0  0  0
    5.1752   -5.7285   31.2166 N   0  0  0  0  0  0  0  0  0  0  0  0
    5.1019   -4.7130   31.2771 H   0  0  0  0  0  0  0  0  0  0  0  0
    5.6258   -6.0672   29.8663 C   0  0  0  0  0  0  0  0  0  0  0  0
    7.2261   -3.4408   27.5946 C   0  0  0  0  0  0  0  0  0  0  0  0
    8.4739   -3.2787   28.1958 C   0  0  0  0  0  0  0  0  0  0  0  0
    8.8047   -4.0234   29.3308 C   0  0  0  0  0  0  0  0  0  0  0  0
    7.8928   -4.9320   29.8703 C   0  0  0  0  0  0  0  0  0  0  0  0
    6.6378   -5.1158   29.2750 C   0  0  0  0  0  0  0  0  0  0  0  0
    6.3218   -4.3664   28.1301 C   0  0  0  0  0  0  0  0  0  0  0  0
    7.2909   -1.4585   26.2778 C   0  0  0  0  0  0  0  0  0  0  0  0
    6.7741   -2.7680   26.4917 O   0  0  0  0  0  0  0  0  0  0  0  0
 50 51  1  0
 51 44  1  0
 44 45  2  0
 45 46  1  0
 46 47  2  0
 47 48  1  0
 48 43  1  0
 43 41  1  0
 41 40  1  0
 37 40  1  0
 37 38  1  0
 38 39  1  0
 37 29  1  0
 29 30  1  0
 30 31  1  0
 31 32  2  0
 32 33  1  0
 33 34  2  0
 34 35  1  0
 35 36  2  0
 29  1  1  0
  1  2  1  0
  2  3  2  0
  2  5  1  0
  5  6  2  0
  6  7  1  0
  7 11  1  0
 11 12  2  0
 11 13  1  0
 13 15  1  0
 15 16  1  0
 15 17  1  0
 17 18  2  0
 18 19  1  0
 19 20  2  0
 20 21  1  0
 21 22  2  0
  7  8  2  0
  8  9  1  0
  9 23  1  0
 23 24  1  0
 23 25  1  0
 25 26  1  0
 25 27  2  0
 25 28  2  0
  9 10  2  0
 48 49  2  0
 49 44  1  0
 36 31  1  0
 10  5  1  0
 22 17  1  0
 41 42  1  0
  1  4  1  0
 13 14  1  0
M  END
> <minimizedAffinity>
-8.70234

> <CNNscore>
0.1378621161

> <CNNaffinity>
6.0475769043

> <CNN_VS>
0.8337317705

> <CNNaffinity_variance>
2.1814596653

$$$$
