


 21 22  0  0  0  0  0  0  0  0999 V2000
   14.0938   10.0087   -2.7714 C   0  0  0  0  0  0  0  0  0  0  0  0
   12.9445   10.3620   -2.0536 C   0  0  0  0  0  0  0  0  0  0  0  0
   12.9745   10.5600   -0.6646 C   0  0  0  0  0  0  0  0  0  0  0  0
   14.1956   10.3959    0.0120 C   0  0  0  0  0  0  0  0  0  0  0  0
   14.6364   10.4926    1.3697 C   0  0  0  0  0  0  0  0  0  0  0  0
   15.9894   10.2123    1.3366 C   0  0  0  0  0  0  0  0  0  0  0  0
   16.4030    9.9350    0.0751 O   0  0  0  0  0  0  0  0  0  0  0  0
   15.3145   10.0465   -0.7334 C   0  0  0  0  0  0  0  0  0  0  0  0
   15.3164    9.8428   -2.1141 C   0  0  0  0  0  0  0  0  0  0  0  0
   15.0483    9.7051   -4.9296 C   0  0  0  0  0  0  0  0  0  0  0  0
   13.8894    9.8541   -4.1183 O   0  0  0  0  0  0  0  0  0  0  0  0
   13.8235   10.8572    2.5664 C   0  0  0  0  0  0  0  0  0  0  0  0
   14.5977   10.9615    3.8905 C   0  0  0  0  0  0  0  0  0  0  0  0
   14.6544    9.7231    4.8603 C   0  0  0  0  0  0  0  0  0  0  0  0
   13.5384    8.7310    4.4783 C   0  0  0  0  0  0  0  0  0  0  0  0
   16.0081    9.0160    4.7478 C   0  0  0  0  0  0  0  0  0  0  0  0
   14.4028   10.3132    6.2974 C   0  0  0  0  0  0  0  0  0  0  0  0
   14.2228    9.4530    7.5894 C   0  0  0  0  0  0  0  0  0  0  0  0
   12.8823    8.7153    7.6678 C   0  0  0  0  0  0  0  0  0  0  0  0
   14.2820   10.4326    8.7903 C   0  0  0  0  0  0  0  0  0  0  0  0
   15.3764    8.4500    7.7824 C   0  0  0  0  0  0  0  0  0  0  0  0
 10 11  1  0
 11  1  1  0
  1  2  2  0
  2  3  1  0
  3  4  2  0
  4  5  1  0
  5 12  1  0
 12 13  1  0
 13 14  1  0
 14 15  1  0
 14 16  1  0
 14 17  1  0
 17 18  1  0
 18 19  1  0
 18 20  1  0
 18 21  1  0
  5  6  2  0
  6  7  1  0
  7  8  1  0
  8  9  2  0
  9  1  1  0
  8  4  1  0
M  END
> <minimizedAffinity>
-7.63659

> <CNNscore>
0.3906805515

> <CNNaffinity>
4.7753200531

> <CNN_VS>
1.8656246662

> <CNNaffinity_variance>
0.8114032745

$$$$



 21 22  0  0  0  0  0  0  0  0999 V2000
   23.5596    8.7506   -0.6811 C   0  0  0  0  0  0  0  0  0  0  0  0
   23.2591    7.5710    0.0112 C   0  0  0  0  0  0  0  0  0  0  0  0
   24.0277    7.1410    1.1037 C   0  0  0  0  0  0  0  0  0  0  0  0
   25.1252    7.9230    1.5035 C   0  0  0  0  0  0  0  0  0  0  0  0
   26.1281    7.8386    2.5204 C   0  0  0  0  0  0  0  0  0  0  0  0
   26.9107    8.9662    2.3578 C   0  0  0  0  0  0  0  0  0  0  0  0
   26.4783    9.7183    1.3154 O   0  0  0  0  0  0  0  0  0  0  0  0
   25.3918    9.0871    0.7938 C   0  0  0  0  0  0  0  0  0  0  0  0
   24.6468    9.5406   -0.2958 C   0  0  0  0  0  0  0  0  0  0  0  0
   22.8106    8.1872   -2.8679 C   0  0  0  0  0  0  0  0  0  0  0  0
   22.7096    9.0234   -1.7216 O   0  0  0  0  0  0  0  0  0  0  0  0
   26.2795    6.7825    3.5633 C   0  0  0  0  0  0  0  0  0  0  0  0
   25.6556    7.1036    4.9312 C   0  0  0  0  0  0  0  0  0  0  0  0
   24.3652    6.3339    5.3998 C   0  0  0  0  0  0  0  0  0  0  0  0
   23.8187    5.5013    4.2234 C   0  0  0  0  0  0  0  0  0  0  0  0
   24.6946    5.3942    6.5632 C   0  0  0  0  0  0  0  0  0  0  0  0
   23.3404    7.4568    5.8066 C   0  0  0  0  0  0  0  0  0  0  0  0
   23.6165    8.5638    6.8743 C   0  0  0  0  0  0  0  0  0  0  0  0
   22.4013    8.9161    7.7384 C   0  0  0  0  0  0  0  0  0  0  0  0
   24.0173    9.8445    6.0969 C   0  0  0  0  0  0  0  0  0  0  0  0
   24.8099    8.2081    7.7816 C   0  0  0  0  0  0  0  0  0  0  0  0
 10 11  1  0
 11  1  1  0
  1  2  2  0
  2  3  1  0
  3  4  2  0
  4  5  1  0
  5 12  1  0
 12 13  1  0
 13 14  1  0
 14 15  1  0
 14 16  1  0
 14 17  1  0
 17 18  1  0
 18 19  1  0
 18 20  1  0
 18 21  1  0
  5  6  2  0
  6  7  1  0
  7  8  1  0
  8  9  2  0
  9  1  1  0
  8  4  1  0
M  END
> <minimizedAffinity>
-5.62479

> <CNNscore>
0.3701961935

> <CNNaffinity>
4.2531323433

> <CNN_VS>
1.5744934082

> <CNNaffinity_variance>
0.9968430996

$$$$



 21 22  0  0  0  0  0  0  0  0999 V2000
   14.2382    9.7115   -3.7179 C   0  0  0  0  0  0  0  0  0  0  0  0
   15.5081    9.9687   -3.1868 C   0  0  0  0  0  0  0  0  0  0  0  0
   15.7066   10.1623   -1.8112 C   0  0  0  0  0  0  0  0  0  0  0  0
   14.5941   10.0943   -0.9548 C   0  0  0  0  0  0  0  0  0  0  0  0
   14.3728   10.2353    0.4517 C   0  0  0  0  0  0  0  0  0  0  0  0
   13.0173   10.0335    0.6314 C   0  0  0  0  0  0  0  0  0  0  0  0
   12.3942    9.8005   -0.5504 O   0  0  0  0  0  0  0  0  0  0  0  0
   13.3505    9.8360   -1.5175 C   0  0  0  0  0  0  0  0  0  0  0  0
   13.1213    9.6394   -2.8801 C   0  0  0  0  0  0  0  0  0  0  0  0
   15.4753    9.6068   -5.7475 C   0  0  0  0  0  0  0  0  0  0  0  0
   14.2211    9.5479   -5.0790 O   0  0  0  0  0  0  0  0  0  0  0  0
   15.3894   10.5032    1.5103 C   0  0  0  0  0  0  0  0  0  0  0  0
   14.8288   10.8735    2.8931 C   0  0  0  0  0  0  0  0  0  0  0  0
   14.7877    9.7897    4.0337 C   0  0  0  0  0  0  0  0  0  0  0  0
   14.8663   10.4940    5.4025 C   0  0  0  0  0  0  0  0  0  0  0  0
   13.4863    8.9858    3.9622 C   0  0  0  0  0  0  0  0  0  0  0  0
   16.0603    8.8944    3.7977 C   0  0  0  0  0  0  0  0  0  0  0  0
   17.4654    9.1692    4.4236 C   0  0  0  0  0  0  0  0  0  0  0  0
   18.5487    8.1770    3.9884 C   0  0  0  0  0  0  0  0  0  0  0  0
   17.3046    9.0329    5.9601 C   0  0  0  0  0  0  0  0  0  0  0  0
   17.9462   10.6086    4.1574 C   0  0  0  0  0  0  0  0  0  0  0  0
 10 11  1  0
 11  1  1  0
  1  2  2  0
  2  3  1  0
  3  4  2  0
  4  5  1  0
  5 12  1  0
 12 13  1  0
 13 14  1  0
 14 15  1  0
 14 16  1  0
 14 17  1  0
 17 18  1  0
 18 19  1  0
 18 20  1  0
 18 21  1  0
  5  6  2  0
  6  7  1  0
  7  8  1  0
  8  9  2  0
  9  1  1  0
  8  4  1  0
M  END
> <minimizedAffinity>
-6.70333

> <CNNscore>
0.3390943110

> <CNNaffinity>
4.3557901382

> <CNN_VS>
1.4770236015

> <CNNaffinity_variance>
1.1126898527

$$$$



 21 22  0  0  0  0  0  0  0  0999 V2000
   14.1344    9.9938   -3.4462 C   0  0  0  0  0  0  0  0  0  0  0  0
   12.8873    9.9310   -2.8124 C   0  0  0  0  0  0  0  0  0  0  0  0
   12.7598   10.0628   -1.4211 C   0  0  0  0  0  0  0  0  0  0  0  0
   13.9213   10.2622   -0.6550 C   0  0  0  0  0  0  0  0  0  0  0  0
   14.2166   10.4297    0.7349 C   0  0  0  0  0  0  0  0  0  0  0  0
   15.5873   10.5940    0.8011 C   0  0  0  0  0  0  0  0  0  0  0  0
   16.1510   10.5214   -0.4303 O   0  0  0  0  0  0  0  0  0  0  0  0
   15.1404   10.3204   -1.3186 C   0  0  0  0  0  0  0  0  0  0  0  0
   15.2993   10.1928   -2.6993 C   0  0  0  0  0  0  0  0  0  0  0  0
   15.3106    9.5878   -5.4741 C   0  0  0  0  0  0  0  0  0  0  0  0
   14.0804    9.8459   -4.8081 O   0  0  0  0  0  0  0  0  0  0  0  0
   13.2518   10.4616    1.8725 C   0  0  0  0  0  0  0  0  0  0  0  0
   13.4056    9.3352    2.9074 C   0  0  0  0  0  0  0  0  0  0  0  0
   14.3377    9.5470    4.1579 C   0  0  0  0  0  0  0  0  0  0  0  0
   14.4505   11.0555    4.4539 C   0  0  0  0  0  0  0  0  0  0  0  0
   13.7551    8.8417    5.3860 C   0  0  0  0  0  0  0  0  0  0  0  0
   15.7350    8.9597    3.7347 C   0  0  0  0  0  0  0  0  0  0  0  0
   17.0628    9.1707    4.5310 C   0  0  0  0  0  0  0  0  0  0  0  0
   16.8841    9.1836    6.0526 C   0  0  0  0  0  0  0  0  0  0  0  0
   17.6150   10.5601    4.1190 C   0  0  0  0  0  0  0  0  0  0  0  0
   18.1390    8.1375    4.1461 C   0  0  0  0  0  0  0  0  0  0  0  0
 10 11  1  0
 11  1  1  0
  1  2  2  0
  2  3  1  0
  3  4  2  0
  4  5  1  0
  5 12  1  0
 12 13  1  0
 13 14  1  0
 14 15  1  0
 14 16  1  0
 14 17  1  0
 17 18  1  0
 18 19  1  0
 18 20  1  0
 18 21  1  0
  5  6  2  0
  6  7  1  0
  7  8  1  0
  8  9  2  0
  9  1  1  0
  8  4  1  0
M  END
> <minimizedAffinity>
-7.10236

> <CNNscore>
0.3241520524

> <CNNaffinity>
4.2902379036

> <CNN_VS>
1.3906893730

> <CNNaffinity_variance>
1.5023688078

$$$$



 21 22  0  0  0  0  0  0  0  0999 V2000
   14.0910    9.8608   -3.3509 C   0  0  0  0  0  0  0  0  0  0  0  0
   12.8938    9.9554   -2.6308 C   0  0  0  0  0  0  0  0  0  0  0  0
   12.8827   10.1422   -1.2400 C   0  0  0  0  0  0  0  0  0  0  0  0
   14.1115   10.2348   -0.5639 C   0  0  0  0  0  0  0  0  0  0  0  0
   14.5233   10.4102    0.7950 C   0  0  0  0  0  0  0  0  0  0  0  0
   15.9049   10.4239    0.7604 C   0  0  0  0  0  0  0  0  0  0  0  0
   16.3666   10.2524   -0.5033 O   0  0  0  0  0  0  0  0  0  0  0  0
   15.2783   10.1379   -1.3116 C   0  0  0  0  0  0  0  0  0  0  0  0
   15.3218    9.9521   -2.6942 C   0  0  0  0  0  0  0  0  0  0  0  0
   15.0756    9.8396   -5.5168 C   0  0  0  0  0  0  0  0  0  0  0  0
   13.9226    9.6789   -4.6993 O   0  0  0  0  0  0  0  0  0  0  0  0
   13.6528   10.5828    1.9944 C   0  0  0  0  0  0  0  0  0  0  0  0
   13.7020    9.4407    3.0224 C   0  0  0  0  0  0  0  0  0  0  0  0
   14.6391    9.5639    4.2808 C   0  0  0  0  0  0  0  0  0  0  0  0
   15.9392    8.7776    4.0212 C   0  0  0  0  0  0  0  0  0  0  0  0
   14.9898   11.0307    4.5462 C   0  0  0  0  0  0  0  0  0  0  0  0
   13.8277    8.9170    5.4640 C   0  0  0  0  0  0  0  0  0  0  0  0
   14.2813    8.9270    6.9592 C   0  0  0  0  0  0  0  0  0  0  0  0
   15.7985    9.0191    7.1518 C   0  0  0  0  0  0  0  0  0  0  0  0
   13.8182    7.5814    7.5757 C   0  0  0  0  0  0  0  0  0  0  0  0
   13.5895   10.0422    7.7665 C   0  0  0  0  0  0  0  0  0  0  0  0
 10 11  1  0
 11  1  1  0
  1  2  2  0
  2  3  1  0
  3  4  2  0
  4  5  1  0
  5 12  1  0
 12 13  1  0
 13 14  1  0
 14 15  1  0
 14 16  1  0
 14 17  1  0
 17 18  1  0
 18 19  1  0
 18 20  1  0
 18 21  1  0
  5  6  2  0
  6  7  1  0
  7  8  1  0
  8  9  2  0
  9  1  1  0
  8  4  1  0
M  END
> <minimizedAffinity>
-7.81085

> <CNNscore>
0.3185194731

> <CNNaffinity>
4.6336226463

> <CNN_VS>
1.4758991003

> <CNNaffinity_variance>
1.0130143166

$$$$



 21 22  0  0  0  0  0  0  0  0999 V2000
   13.3440    9.7889   -3.8348 C   0  0  0  0  0  0  0  0  0  0  0  0
   14.7440    9.7758   -3.8583 C   0  0  0  0  0  0  0  0  0  0  0  0
   15.5029    9.9613   -2.6926 C   0  0  0  0  0  0  0  0  0  0  0  0
   14.8284   10.1650   -1.4762 C   0  0  0  0  0  0  0  0  0  0  0  0
   15.2121   10.3925   -0.1168 C   0  0  0  0  0  0  0  0  0  0  0  0
   14.0266   10.4993    0.5856 C   0  0  0  0  0  0  0  0  0  0  0  0
   12.9553   10.3745   -0.2366 O   0  0  0  0  0  0  0  0  0  0  0  0
   13.4394   10.1702   -1.4915 C   0  0  0  0  0  0  0  0  0  0  0  0
   12.6576    9.9889   -2.6334 C   0  0  0  0  0  0  0  0  0  0  0  0
   11.3389    9.5313   -5.0894 C   0  0  0  0  0  0  0  0  0  0  0  0
   12.7597    9.5931   -5.0595 O   0  0  0  0  0  0  0  0  0  0  0  0
   16.5950   10.4612    0.4389 C   0  0  0  0  0  0  0  0  0  0  0  0
   16.7339   11.1781    1.7918 C   0  0  0  0  0  0  0  0  0  0  0  0
   17.2529   10.3821    3.0465 C   0  0  0  0  0  0  0  0  0  0  0  0
   18.6052    9.7263    2.7045 C   0  0  0  0  0  0  0  0  0  0  0  0
   17.4450   11.3254    4.2375 C   0  0  0  0  0  0  0  0  0  0  0  0
   16.1587    9.2847    3.3200 C   0  0  0  0  0  0  0  0  0  0  0  0
   14.9018    9.4928    4.2247 C   0  0  0  0  0  0  0  0  0  0  0  0
   13.6454    8.7722    3.7250 C   0  0  0  0  0  0  0  0  0  0  0  0
   14.5948   11.0130    4.2204 C   0  0  0  0  0  0  0  0  0  0  0  0
   15.1726    9.1026    5.6904 C   0  0  0  0  0  0  0  0  0  0  0  0
 10 11  1  0
 11  1  1  0
  1  2  2  0
  2  3  1  0
  3  4  2  0
  4  5  1  0
  5 12  1  0
 12 13  1  0
 13 14  1  0
 14 15  1  0
 14 16  1  0
 14 17  1  0
 17 18  1  0
 18 19  1  0
 18 20  1  0
 18 21  1  0
  5  6  2  0
  6  7  1  0
  7  8  1  0
  8  9  2  0
  9  1  1  0
  8  4  1  0
M  END
> <minimizedAffinity>
-7.12722

> <CNNscore>
0.3174666762

> <CNNaffinity>
4.6767945290

> <CNN_VS>
1.4847264290

> <CNNaffinity_variance>
0.8739196658

$$$$



 21 22  0  0  0  0  0  0  0  0999 V2000
    3.5483    5.5576   -7.3548 C   0  0  0  0  0  0  0  0  0  0  0  0
    3.9429    6.7075   -6.6598 C   0  0  0  0  0  0  0  0  0  0  0  0
    4.7477    7.6900   -7.2567 C   0  0  0  0  0  0  0  0  0  0  0  0
    5.1622    7.5033   -8.5868 C   0  0  0  0  0  0  0  0  0  0  0  0
    5.9623    8.2314   -9.5231 C   0  0  0  0  0  0  0  0  0  0  0  0
    5.9563    7.4725  -10.6783 C   0  0  0  0  0  0  0  0  0  0  0  0
    5.2353    6.3354  -10.5155 O   0  0  0  0  0  0  0  0  0  0  0  0
    4.7501    6.3512   -9.2445 C   0  0  0  0  0  0  0  0  0  0  0  0
    3.9508    5.3569   -8.6785 C   0  0  0  0  0  0  0  0  0  0  0  0
    2.7616    4.8807   -5.2138 C   0  0  0  0  0  0  0  0  0  0  0  0
    2.7650    4.7012   -6.6249 O   0  0  0  0  0  0  0  0  0  0  0  0
    6.6307    9.5492   -9.3173 C   0  0  0  0  0  0  0  0  0  0  0  0
    8.1246    9.6012   -9.6768 C   0  0  0  0  0  0  0  0  0  0  0  0
    8.6170   10.5551  -10.8278 C   0  0  0  0  0  0  0  0  0  0  0  0
   10.1184   10.3118  -11.0776 C   0  0  0  0  0  0  0  0  0  0  0  0
    7.8462   10.2763  -12.1214 C   0  0  0  0  0  0  0  0  0  0  0  0
    8.3748   12.0130  -10.2868 C   0  0  0  0  0  0  0  0  0  0  0  0
    8.8046   13.3174  -11.0321 C   0  0  0  0  0  0  0  0  0  0  0  0
    7.6891   13.9588  -11.8638 C   0  0  0  0  0  0  0  0  0  0  0  0
    9.9400   12.9195  -12.0107 C   0  0  0  0  0  0  0  0  0  0  0  0
    9.3991   14.3643  -10.0705 C   0  0  0  0  0  0  0  0  0  0  0  0
 10 11  1  0
 11  1  1  0
  1  2  2  0
  2  3  1  0
  3  4  2  0
  4  5  1  0
  5 12  1  0
 12 13  1  0
 13 14  1  0
 14 15  1  0
 14 16  1  0
 14 17  1  0
 17 18  1  0
 18 19  1  0
 18 20  1  0
 18 21  1  0
  5  6  2  0
  6  7  1  0
  7  8  1  0
  8  9  2  0
  9  1  1  0
  8  4  1  0
M  END
> <minimizedAffinity>
-4.00224

> <CNNscore>
0.2790823281

> <CNNaffinity>
3.9684543610

> <CNN_VS>
1.1075254679

> <CNNaffinity_variance>
0.4285208285

$$$$



 21 22  0  0  0  0  0  0  0  0999 V2000
   13.6242    9.8387   -3.7929 C   0  0  0  0  0  0  0  0  0  0  0  0
   12.8290    9.9228   -2.6433 C   0  0  0  0  0  0  0  0  0  0  0  0
   13.3873   10.1449   -1.3751 C   0  0  0  0  0  0  0  0  0  0  0  0
   14.7820   10.2844   -1.2692 C   0  0  0  0  0  0  0  0  0  0  0  0
   15.7124   10.5044   -0.2048 C   0  0  0  0  0  0  0  0  0  0  0  0
   16.9551   10.5505   -0.8080 C   0  0  0  0  0  0  0  0  0  0  0  0
   16.8588   10.3579   -2.1470 O   0  0  0  0  0  0  0  0  0  0  0  0
   15.5382   10.1965   -2.4312 C   0  0  0  0  0  0  0  0  0  0  0  0
   15.0127    9.9764   -3.7053 C   0  0  0  0  0  0  0  0  0  0  0  0
   11.5100    9.4782   -4.8227 C   0  0  0  0  0  0  0  0  0  0  0  0
   12.9199    9.6184   -4.9483 O   0  0  0  0  0  0  0  0  0  0  0  0
   15.4100   10.6866    1.2448 C   0  0  0  0  0  0  0  0  0  0  0  0
   14.9252    9.4303    1.9866 C   0  0  0  0  0  0  0  0  0  0  0  0
   13.5735    9.4728    2.7917 C   0  0  0  0  0  0  0  0  0  0  0  0
   13.0032   10.9041    2.7458 C   0  0  0  0  0  0  0  0  0  0  0  0
   12.5529    8.5111    2.1764 C   0  0  0  0  0  0  0  0  0  0  0  0
   13.9588    9.0773    4.2654 C   0  0  0  0  0  0  0  0  0  0  0  0
   14.9496    9.8804    5.1681 C   0  0  0  0  0  0  0  0  0  0  0  0
   16.2885    9.1754    5.4083 C   0  0  0  0  0  0  0  0  0  0  0  0
   14.2616   10.0477    6.5480 C   0  0  0  0  0  0  0  0  0  0  0  0
   15.2034   11.3008    4.6278 C   0  0  0  0  0  0  0  0  0  0  0  0
 10 11  1  0
 11  1  1  0
  1  2  2  0
  2  3  1  0
  3  4  2  0
  4  5  1  0
  5 12  1  0
 12 13  1  0
 13 14  1  0
 14 15  1  0
 14 16  1  0
 14 17  1  0
 17 18  1  0
 18 19  1  0
 18 20  1  0
 18 21  1  0
  5  6  2  0
  6  7  1  0
  7  8  1  0
  8  9  2  0
  9  1  1  0
  8  4  1  0
M  END
> <minimizedAffinity>
-7.41512

> <CNNscore>
0.2489084154

> <CNNaffinity>
4.6517720222

> <CNN_VS>
1.1578651667

> <CNNaffinity_variance>
0.9374904633

$$$$



 21 22  0  0  0  0  0  0  0  0999 V2000
    6.4784    9.3586   -9.0298 C   0  0  0  0  0  0  0  0  0  0  0  0
    7.8083    9.4294   -9.4625 C   0  0  0  0  0  0  0  0  0  0  0  0
    8.4207   10.6551   -9.7657 C   0  0  0  0  0  0  0  0  0  0  0  0
    7.6692   11.8349   -9.6278 C   0  0  0  0  0  0  0  0  0  0  0  0
    7.9055   13.2310   -9.8335 C   0  0  0  0  0  0  0  0  0  0  0  0
    6.7217   13.8572   -9.4919 C   0  0  0  0  0  0  0  0  0  0  0  0
    5.7805   12.9567   -9.1143 O   0  0  0  0  0  0  0  0  0  0  0  0
    6.3537   11.7255   -9.1950 C   0  0  0  0  0  0  0  0  0  0  0  0
    5.7172   10.5224   -8.8863 C   0  0  0  0  0  0  0  0  0  0  0  0
    4.7112    7.9536   -8.2788 C   0  0  0  0  0  0  0  0  0  0  0  0
    6.0367    8.0854   -8.7778 O   0  0  0  0  0  0  0  0  0  0  0  0
    9.1701   13.8832  -10.2822 C   0  0  0  0  0  0  0  0  0  0  0  0
    9.4168   13.8833  -11.7997 C   0  0  0  0  0  0  0  0  0  0  0  0
    9.6636   15.2449  -12.5496 C   0  0  0  0  0  0  0  0  0  0  0  0
   11.0294   15.8168  -12.1216 C   0  0  0  0  0  0  0  0  0  0  0  0
    9.6682   15.0285  -14.0656 C   0  0  0  0  0  0  0  0  0  0  0  0
    8.4961   16.1907  -12.0816 C   0  0  0  0  0  0  0  0  0  0  0  0
    8.1528   17.5662  -12.7385 C   0  0  0  0  0  0  0  0  0  0  0  0
    9.3643   18.2999  -13.3228 C   0  0  0  0  0  0  0  0  0  0  0  0
    7.5664   18.4630  -11.6172 C   0  0  0  0  0  0  0  0  0  0  0  0
    7.0587   17.4364  -13.8155 C   0  0  0  0  0  0  0  0  0  0  0  0
 10 11  1  0
 11  1  1  0
  1  2  2  0
  2  3  1  0
  3  4  2  0
  4  5  1  0
  5 12  1  0
 12 13  1  0
 13 14  1  0
 14 15  1  0
 14 16  1  0
 14 17  1  0
 17 18  1  0
 18 19  1  0
 18 20  1  0
 18 21  1  0
  5  6  2  0
  6  7  1  0
  7  8  1  0
  8  9  2  0
  9  1  1  0
  8  4  1  0
M  END
> <minimizedAffinity>
-3.69348

> <CNNscore>
0.2240084410

> <CNNaffinity>
4.2171101570

> <CNN_VS>
0.9446682930

> <CNNaffinity_variance>
0.3284244835

$$$$
