


 43 47  0  0  0  0  0  0  0  0999 V2000
  -15.0119   20.3148   -6.5290 C   0  0  0  0  0  0  0  0  0  0  0  0
  -13.8861   19.5996   -5.7771 C   0  0  0  0  0  0  0  0  0  0  0  0
  -14.5703   18.7268   -4.8049 N   0  0  0  0  0  0  0  0  0  0  0  0
  -15.7040   19.5367   -4.3232 C   0  0  0  0  0  0  0  0  0  0  0  0
  -16.1662   20.4065   -5.5051 C   0  0  0  0  0  0  0  0  0  0  0  0
  -13.9465   18.4845   -4.0352 H   0  0  0  0  0  0  0  0  0  0  0  0
  -14.6647   21.6390   -7.2007 N   0  0  0  0  0  0  0  0  0  0  0  0
  -13.8291   20.0572   -8.9967 O   0  0  0  0  0  0  0  0  0  0  0  0
  -14.3307   21.4080   -8.8909 S   0  0  0  0  0  0  0  0  0  0  0  0
  -15.4859   21.8515   -9.6426 O   0  0  0  0  0  0  0  0  0  0  0  0
  -13.0634   22.6043   -9.2137 C   0  0  0  0  0  0  0  0  0  0  0  0
  -13.4907   23.8176   -9.7862 C   0  0  0  0  0  0  0  0  0  0  0  0
  -12.5753   24.8262  -10.0851 C   0  0  0  0  0  0  0  0  0  0  0  0
  -11.2242   24.6235   -9.8246 C   0  0  0  0  0  0  0  0  0  0  0  0
  -10.7951   23.4127   -9.2756 C   0  0  0  0  0  0  0  0  0  0  0  0
  -11.7073   22.3904   -8.9711 C   0  0  0  0  0  0  0  0  0  0  0  0
  -11.0287   20.9397   -8.3385 Cl  0  0  0  0  0  0  0  0  0  0  0  0
  -13.5961   22.4633   -6.5413 C   0  0  0  0  0  0  0  0  0  0  0  0
  -13.9988   23.0677   -5.2185 C   0  0  0  0  0  0  0  0  0  0  0  0
  -15.3133   23.5035   -4.9974 C   0  0  0  0  0  0  0  0  0  0  0  0
  -15.6709   24.0836   -3.7799 C   0  0  0  0  0  0  0  0  0  0  0  0
  -14.7236   24.2260   -2.7680 C   0  0  0  0  0  0  0  0  0  0  0  0
  -13.4186   23.7823   -2.9698 C   0  0  0  0  0  0  0  0  0  0  0  0
  -13.0577   23.2036   -4.1874 C   0  0  0  0  0  0  0  0  0  0  0  0
  -17.4892   20.0033   -6.1164 N   0  0  0  0  0  0  0  0  0  0  0  0
  -18.9265   20.6814   -5.4576 S   0  0  0  0  0  0  0  0  0  0  0  0
  -19.8902   20.6653   -6.5364 O   0  0  0  0  0  0  0  0  0  0  0  0
  -18.5884   21.9171   -4.7827 O   0  0  0  0  0  0  0  0  0  0  0  0
  -19.3997   19.5483   -4.1816 C   0  0  0  0  0  0  0  0  0  0  0  0
  -19.0277   19.8612   -2.8624 C   0  0  0  0  0  0  0  0  0  0  0  0
  -19.3693   19.0142   -1.8092 C   0  0  0  0  0  0  0  0  0  0  0  0
  -20.1117   17.8627   -2.0587 C   0  0  0  0  0  0  0  0  0  0  0  0
  -20.5075   17.5630   -3.3643 C   0  0  0  0  0  0  0  0  0  0  0  0
  -20.1601   18.4038   -4.4323 C   0  0  0  0  0  0  0  0  0  0  0  0
  -20.7768   17.9565   -5.9792 Cl  0  0  0  0  0  0  0  0  0  0  0  0
  -17.4476   19.9305   -7.6067 C   0  0  0  0  0  0  0  0  0  0  0  0
  -18.0563   18.6602   -8.1475 C   0  0  0  0  0  0  0  0  0  0  0  0
  -17.4090   17.4319   -7.9499 C   0  0  0  0  0  0  0  0  0  0  0  0
  -17.9862   16.2453   -8.4041 C   0  0  0  0  0  0  0  0  0  0  0  0
  -19.2128   16.2826   -9.0641 C   0  0  0  0  0  0  0  0  0  0  0  0
  -19.9302   14.8192   -9.6105 Cl  0  0  0  0  0  0  0  0  0  0  0  0
  -19.8610   17.4962   -9.2818 C   0  0  0  0  0  0  0  0  0  0  0  0
  -19.2835   18.6836   -8.8271 C   0  0  0  0  0  0  0  0  0  0  0  0
  8  9  2  0
  9 10  2  0
  9 11  1  0
 11 12  2  0
 12 13  1  0
 13 14  2  0
 14 15  1  0
 15 16  2  0
 16 17  1  0
  9  7  1  0
  7 18  1  0
 18 19  1  0
 19 20  2  0
 20 21  1  0
 21 22  2  0
 22 23  1  0
 23 24  2  0
  1  7  1  0
  1  2  1  0
  2  3  1  0
  3  4  1  0
  4  5  1  0
  5 25  1  0
 25 36  1  0
 36 37  1  0
 37 38  2  0
 38 39  1  0
 39 40  2  0
 40 41  1  0
 40 42  1  0
 42 43  2  0
 25 26  1  0
 26 27  2  0
 26 28  2  0
 26 29  1  0
 29 30  2  0
 30 31  1  0
 31 32  2  0
 32 33  1  0
 33 34  2  0
 34 35  1  0
 16 11  1  0
 24 19  1  0
  5  1  1  0
 43 37  1  0
 34 29  1  0
  3  6  1  0
M  END
> <minimizedAffinity>
-9.73519

> <CNNscore>
0.8462104797

> <CNNaffinity>
8.2062692642

> <CNN_VS>
6.9442310333

> <CNNaffinity_variance>
1.1608413458

$$$$



 43 47  0  0  0  0  0  0  0  0999 V2000
  -16.7678   19.5966   -5.6150 C   0  0  0  0  0  0  0  0  0  0  0  0
  -16.0080   19.0512   -4.4027 C   0  0  0  0  0  0  0  0  0  0  0  0
  -15.5783   17.6971   -4.7988 N   0  0  0  0  0  0  0  0  0  0  0  0
  -16.7230   17.1585   -5.5556 C   0  0  0  0  0  0  0  0  0  0  0  0
  -17.3699   18.3444   -6.2921 C   0  0  0  0  0  0  0  0  0  0  0  0
  -15.3865   17.1240   -3.9771 H   0  0  0  0  0  0  0  0  0  0  0  0
  -17.7738   20.7133   -5.3574 N   0  0  0  0  0  0  0  0  0  0  0  0
  -16.2836   21.8986   -7.0309 O   0  0  0  0  0  0  0  0  0  0  0  0
  -17.1738   22.2357   -5.9439 S   0  0  0  0  0  0  0  0  0  0  0  0
  -18.3030   23.1220   -6.1324 O   0  0  0  0  0  0  0  0  0  0  0  0
  -16.2897   22.8794   -4.5491 C   0  0  0  0  0  0  0  0  0  0  0  0
  -15.7931   24.1900   -4.6838 C   0  0  0  0  0  0  0  0  0  0  0  0
  -15.0791   24.7917   -3.6481 C   0  0  0  0  0  0  0  0  0  0  0  0
  -14.8462   24.0821   -2.4747 C   0  0  0  0  0  0  0  0  0  0  0  0
  -15.3202   22.7743   -2.3465 C   0  0  0  0  0  0  0  0  0  0  0  0
  -16.0396   22.1584   -3.3823 C   0  0  0  0  0  0  0  0  0  0  0  0
  -16.5239   20.5305   -3.0982 Cl  0  0  0  0  0  0  0  0  0  0  0  0
  -18.2918   20.8359   -3.9529 C   0  0  0  0  0  0  0  0  0  0  0  0
  -19.3605   19.8340   -3.5903 C   0  0  0  0  0  0  0  0  0  0  0  0
  -20.6129   19.8584   -4.2209 C   0  0  0  0  0  0  0  0  0  0  0  0
  -21.6036   18.9439   -3.8621 C   0  0  0  0  0  0  0  0  0  0  0  0
  -21.3518   17.9903   -2.8778 C   0  0  0  0  0  0  0  0  0  0  0  0
  -20.1063   17.9456   -2.2554 C   0  0  0  0  0  0  0  0  0  0  0  0
  -19.1142   18.8605   -2.6110 C   0  0  0  0  0  0  0  0  0  0  0  0
  -17.1557   18.3607   -7.7890 N   0  0  0  0  0  0  0  0  0  0  0  0
  -18.1204   17.3156   -8.7570 S   0  0  0  0  0  0  0  0  0  0  0  0
  -17.3253   16.1220   -8.9459 O   0  0  0  0  0  0  0  0  0  0  0  0
  -18.6172   18.0640   -9.8927 O   0  0  0  0  0  0  0  0  0  0  0  0
  -19.5356   16.9696   -7.7504 C   0  0  0  0  0  0  0  0  0  0  0  0
  -19.4175   15.9498   -6.7899 C   0  0  0  0  0  0  0  0  0  0  0  0
  -20.4921   15.6267   -5.9626 C   0  0  0  0  0  0  0  0  0  0  0  0
  -21.6844   16.3389   -6.0653 C   0  0  0  0  0  0  0  0  0  0  0  0
  -21.7962   17.3717   -6.9990 C   0  0  0  0  0  0  0  0  0  0  0  0
  -20.7239   17.6978   -7.8429 C   0  0  0  0  0  0  0  0  0  0  0  0
  -20.9704   19.0416   -8.8950 Cl  0  0  0  0  0  0  0  0  0  0  0  0
  -16.9630   19.7353   -8.3378 C   0  0  0  0  0  0  0  0  0  0  0  0
  -15.5097   20.0830   -8.5474 C   0  0  0  0  0  0  0  0  0  0  0  0
  -15.1593   21.1997   -9.3200 C   0  0  0  0  0  0  0  0  0  0  0  0
  -13.8204   21.5582   -9.4813 C   0  0  0  0  0  0  0  0  0  0  0  0
  -12.8238   20.7968   -8.8741 C   0  0  0  0  0  0  0  0  0  0  0  0
  -11.1755   21.2473   -9.0611 Cl  0  0  0  0  0  0  0  0  0  0  0  0
  -13.1546   19.6758   -8.1163 C   0  0  0  0  0  0  0  0  0  0  0  0
  -14.4945   19.3171   -7.9547 C   0  0  0  0  0  0  0  0  0  0  0  0
  8  9  2  0
  9 10  2  0
  9 11  1  0
 11 12  2  0
 12 13  1  0
 13 14  2  0
 14 15  1  0
 15 16  2  0
 16 17  1  0
  9  7  1  0
  7 18  1  0
 18 19  1  0
 19 20  2  0
 20 21  1  0
 21 22  2  0
 22 23  1  0
 23 24  2  0
  1  7  1  0
  1  2  1  0
  2  3  1  0
  3  4  1  0
  4  5  1  0
  5 25  1  0
 25 36  1  0
 36 37  1  0
 37 38  2  0
 38 39  1  0
 39 40  2  0
 40 41  1  0
 40 42  1  0
 42 43  2  0
 25 26  1  0
 26 27  2  0
 26 28  2  0
 26 29  1  0
 29 30  2  0
 30 31  1  0
 31 32  2  0
 32 33  1  0
 33 34  2  0
 34 35  1  0
 16 11  1  0
 24 19  1  0
  5  1  1  0
 43 37  1  0
 34 29  1  0
  3  6  1  0
M  END
> <minimizedAffinity>
-10.50180

> <CNNscore>
0.8450111747

> <CNNaffinity>
7.8822264671

> <CNN_VS>
6.6605696678

> <CNNaffinity_variance>
1.5005850792

$$$$



 43 47  0  0  0  0  0  0  0  0999 V2000
  -15.8247   19.7615   -5.4650 C   0  0  0  0  0  0  0  0  0  0  0  0
  -14.8107   18.6358   -5.2439 C   0  0  0  0  0  0  0  0  0  0  0  0
  -15.6063   17.4966   -4.7496 N   0  0  0  0  0  0  0  0  0  0  0  0
  -16.5963   18.1091   -3.8451 C   0  0  0  0  0  0  0  0  0  0  0  0
  -16.9370   19.4924   -4.4260 C   0  0  0  0  0  0  0  0  0  0  0  0
  -15.0159   16.8356   -4.2447 H   0  0  0  0  0  0  0  0  0  0  0  0
  -15.2890   21.1892   -5.4526 N   0  0  0  0  0  0  0  0  0  0  0  0
  -16.7058   22.5817   -3.8778 O   0  0  0  0  0  0  0  0  0  0  0  0
  -15.4359   21.8926   -3.8698 S   0  0  0  0  0  0  0  0  0  0  0  0
  -15.1322   20.8687   -2.8923 O   0  0  0  0  0  0  0  0  0  0  0  0
  -14.0755   23.0273   -3.8104 C   0  0  0  0  0  0  0  0  0  0  0  0
  -12.9800   22.7222   -4.6405 C   0  0  0  0  0  0  0  0  0  0  0  0
  -11.8552   23.5459   -4.6678 C   0  0  0  0  0  0  0  0  0  0  0  0
  -11.8131   24.6742   -3.8557 C   0  0  0  0  0  0  0  0  0  0  0  0
  -12.8902   24.9680   -3.0160 C   0  0  0  0  0  0  0  0  0  0  0  0
  -14.0272   24.1460   -2.9798 C   0  0  0  0  0  0  0  0  0  0  0  0
  -15.2566   24.6099   -1.8668 Cl  0  0  0  0  0  0  0  0  0  0  0  0
  -15.8213   22.1123   -6.5112 C   0  0  0  0  0  0  0  0  0  0  0  0
  -15.1953   21.9308   -7.8723 C   0  0  0  0  0  0  0  0  0  0  0  0
  -14.0356   22.6334   -8.2300 C   0  0  0  0  0  0  0  0  0  0  0  0
  -13.4775   22.4780   -9.4993 C   0  0  0  0  0  0  0  0  0  0  0  0
  -14.0651   21.6134  -10.4205 C   0  0  0  0  0  0  0  0  0  0  0  0
  -15.2081   20.8977  -10.0715 C   0  0  0  0  0  0  0  0  0  0  0  0
  -15.7696   21.0528   -8.8033 C   0  0  0  0  0  0  0  0  0  0  0  0
  -18.3145   19.6064   -5.0393 N   0  0  0  0  0  0  0  0  0  0  0  0
  -19.4889   20.5617   -4.2220 S   0  0  0  0  0  0  0  0  0  0  0  0
  -20.0954   21.3856   -5.2447 O   0  0  0  0  0  0  0  0  0  0  0  0
  -18.8703   21.1596   -3.0573 O   0  0  0  0  0  0  0  0  0  0  0  0
  -20.6541   19.3831   -3.5982 C   0  0  0  0  0  0  0  0  0  0  0  0
  -21.8753   19.2505   -4.2821 C   0  0  0  0  0  0  0  0  0  0  0  0
  -22.8370   18.3402   -3.8464 C   0  0  0  0  0  0  0  0  0  0  0  0
  -22.5767   17.5322   -2.7425 C   0  0  0  0  0  0  0  0  0  0  0  0
  -21.3532   17.6409   -2.0775 C   0  0  0  0  0  0  0  0  0  0  0  0
  -20.3829   18.5610   -2.5021 C   0  0  0  0  0  0  0  0  0  0  0  0
  -18.8899   18.5385   -1.6396 Cl  0  0  0  0  0  0  0  0  0  0  0  0
  -18.2831   19.7718   -6.5224 C   0  0  0  0  0  0  0  0  0  0  0  0
  -18.8006   18.5597   -7.2571 C   0  0  0  0  0  0  0  0  0  0  0  0
  -18.6744   18.4769   -8.6514 C   0  0  0  0  0  0  0  0  0  0  0  0
  -19.1064   17.3403   -9.3360 C   0  0  0  0  0  0  0  0  0  0  0  0
  -19.6725   16.2817   -8.6286 C   0  0  0  0  0  0  0  0  0  0  0  0
  -20.1911   14.8758   -9.4707 Cl  0  0  0  0  0  0  0  0  0  0  0  0
  -19.8190   16.3549   -7.2453 C   0  0  0  0  0  0  0  0  0  0  0  0
  -19.3865   17.4923   -6.5601 C   0  0  0  0  0  0  0  0  0  0  0  0
  8  9  2  0
  9 10  2  0
  9 11  1  0
 11 12  2  0
 12 13  1  0
 13 14  2  0
 14 15  1  0
 15 16  2  0
 16 17  1  0
  9  7  1  0
  7 18  1  0
 18 19  1  0
 19 20  2  0
 20 21  1  0
 21 22  2  0
 22 23  1  0
 23 24  2  0
  1  7  1  0
  1  2  1  0
  2  3  1  0
  3  4  1  0
  4  5  1  0
  5 25  1  0
 25 36  1  0
 36 37  1  0
 37 38  2  0
 38 39  1  0
 39 40  2  0
 40 41  1  0
 40 42  1  0
 42 43  2  0
 25 26  1  0
 26 27  2  0
 26 28  2  0
 26 29  1  0
 29 30  2  0
 30 31  1  0
 31 32  2  0
 32 33  1  0
 33 34  2  0
 34 35  1  0
 16 11  1  0
 24 19  1  0
  5  1  1  0
 43 37  1  0
 34 29  1  0
  3  6  1  0
M  END
> <minimizedAffinity>
-8.40044

> <CNNscore>
0.7836711407

> <CNNaffinity>
8.1716642380

> <CNN_VS>
6.4038972855

> <CNNaffinity_variance>
0.4218764305

$$$$



 43 47  0  0  0  0  0  0  0  0999 V2000
  -15.1222   20.1702   -6.8415 C   0  0  0  0  0  0  0  0  0  0  0  0
  -14.0265   19.8869   -5.8102 C   0  0  0  0  0  0  0  0  0  0  0  0
  -14.5954   18.8562   -4.9218 N   0  0  0  0  0  0  0  0  0  0  0  0
  -16.0066   19.2517   -4.7621 C   0  0  0  0  0  0  0  0  0  0  0  0
  -16.4443   19.8931   -6.0903 C   0  0  0  0  0  0  0  0  0  0  0  0
  -14.1172   18.8517   -4.0209 H   0  0  0  0  0  0  0  0  0  0  0  0
  -15.0757   21.5202   -7.5490 N   0  0  0  0  0  0  0  0  0  0  0  0
  -13.9561   20.0048   -9.2449 O   0  0  0  0  0  0  0  0  0  0  0  0
  -14.4823   21.3485   -9.1738 S   0  0  0  0  0  0  0  0  0  0  0  0
  -15.5121   21.8110  -10.0803 O   0  0  0  0  0  0  0  0  0  0  0  0
  -13.1931   22.5620   -9.2574 C   0  0  0  0  0  0  0  0  0  0  0  0
  -13.5313   23.7808   -9.8759 C   0  0  0  0  0  0  0  0  0  0  0  0
  -12.5906   24.8028   -9.9988 C   0  0  0  0  0  0  0  0  0  0  0  0
  -11.3013   24.6084   -9.5148 C   0  0  0  0  0  0  0  0  0  0  0  0
  -10.9574   23.3925   -8.9192 C   0  0  0  0  0  0  0  0  0  0  0  0
  -11.8957   22.3566   -8.7904 C   0  0  0  0  0  0  0  0  0  0  0  0
  -11.3173   20.9016   -8.0735 Cl  0  0  0  0  0  0  0  0  0  0  0  0
  -14.3694   22.6307   -6.8250 C   0  0  0  0  0  0  0  0  0  0  0  0
  -14.8122   22.8270   -5.3957 C   0  0  0  0  0  0  0  0  0  0  0  0
  -13.8744   22.8967   -4.3554 C   0  0  0  0  0  0  0  0  0  0  0  0
  -14.2939   23.0537   -3.0341 C   0  0  0  0  0  0  0  0  0  0  0  0
  -15.6520   23.1523   -2.7386 C   0  0  0  0  0  0  0  0  0  0  0  0
  -16.5925   23.1006   -3.7649 C   0  0  0  0  0  0  0  0  0  0  0  0
  -16.1756   22.9415   -5.0872 C   0  0  0  0  0  0  0  0  0  0  0  0
  -17.3947   19.0593   -6.9199 N   0  0  0  0  0  0  0  0  0  0  0  0
  -17.1951   17.3506   -6.9084 S   0  0  0  0  0  0  0  0  0  0  0  0
  -17.1848   16.9730   -5.5119 O   0  0  0  0  0  0  0  0  0  0  0  0
  -16.0893   17.0076   -7.7781 O   0  0  0  0  0  0  0  0  0  0  0  0
  -18.6490   16.7350   -7.7103 C   0  0  0  0  0  0  0  0  0  0  0  0
  -19.5272   15.9444   -6.9485 C   0  0  0  0  0  0  0  0  0  0  0  0
  -20.6913   15.4290   -7.5164 C   0  0  0  0  0  0  0  0  0  0  0  0
  -21.0052   15.7229   -8.8410 C   0  0  0  0  0  0  0  0  0  0  0  0
  -20.1495   16.5314   -9.5927 C   0  0  0  0  0  0  0  0  0  0  0  0
  -18.9706   17.0466   -9.0332 C   0  0  0  0  0  0  0  0  0  0  0  0
  -18.0452   18.0905  -10.0469 Cl  0  0  0  0  0  0  0  0  0  0  0  0
  -18.8080   19.5333   -6.8443 C   0  0  0  0  0  0  0  0  0  0  0  0
  -19.4463   19.2580   -5.5051 C   0  0  0  0  0  0  0  0  0  0  0  0
  -20.5688   18.4215   -5.4210 C   0  0  0  0  0  0  0  0  0  0  0  0
  -21.1385   18.1220   -4.1828 C   0  0  0  0  0  0  0  0  0  0  0  0
  -20.5904   18.6631   -3.0216 C   0  0  0  0  0  0  0  0  0  0  0  0
  -21.2836   18.2821   -1.4954 Cl  0  0  0  0  0  0  0  0  0  0  0  0
  -19.4850   19.5080   -3.0896 C   0  0  0  0  0  0  0  0  0  0  0  0
  -18.9149   19.8076   -4.3287 C   0  0  0  0  0  0  0  0  0  0  0  0
  8  9  2  0
  9 10  2  0
  9 11  1  0
 11 12  2  0
 12 13  1  0
 13 14  2  0
 14 15  1  0
 15 16  2  0
 16 17  1  0
  9  7  1  0
  7 18  1  0
 18 19  1  0
 19 20  2  0
 20 21  1  0
 21 22  2  0
 22 23  1  0
 23 24  2  0
  1  7  1  0
  1  2  1  0
  2  3  1  0
  3  4  1  0
  4  5  1  0
  5 25  1  0
 25 36  1  0
 36 37  1  0
 37 38  2  0
 38 39  1  0
 39 40  2  0
 40 41  1  0
 40 42  1  0
 42 43  2  0
 25 26  1  0
 26 27  2  0
 26 28  2  0
 26 29  1  0
 29 30  2  0
 30 31  1  0
 31 32  2  0
 32 33  1  0
 33 34  2  0
 34 35  1  0
 16 11  1  0
 24 19  1  0
  5  1  1  0
 43 37  1  0
 34 29  1  0
  3  6  1  0
M  END
> <minimizedAffinity>
-9.57570

> <CNNscore>
0.5602011681

> <CNNaffinity>
8.2097349167

> <CNN_VS>
4.5991029739

> <CNNaffinity_variance>
0.5410286784

$$$$



 43 47  0  0  0  0  0  0  0  0999 V2000
  -14.8553   20.8877   -5.9101 C   0  0  0  0  0  0  0  0  0  0  0  0
  -13.7976   20.4453   -4.8952 C   0  0  0  0  0  0  0  0  0  0  0  0
  -14.5556   19.7809   -3.8186 N   0  0  0  0  0  0  0  0  0  0  0  0
  -15.7694   20.6037   -3.6665 C   0  0  0  0  0  0  0  0  0  0  0  0
  -16.1243   21.1396   -5.0643 C   0  0  0  0  0  0  0  0  0  0  0  0
  -14.0170   19.7679   -2.9524 H   0  0  0  0  0  0  0  0  0  0  0  0
  -14.4849   22.0379   -6.8404 N   0  0  0  0  0  0  0  0  0  0  0  0
  -14.2783   20.0221   -8.3635 O   0  0  0  0  0  0  0  0  0  0  0  0
  -14.2014   21.4619   -8.4558 S   0  0  0  0  0  0  0  0  0  0  0  0
  -15.0501   22.2129   -9.3568 O   0  0  0  0  0  0  0  0  0  0  0  0
  -12.5490   22.0093   -8.7895 C   0  0  0  0  0  0  0  0  0  0  0  0
  -11.5161   21.1593   -8.3503 C   0  0  0  0  0  0  0  0  0  0  0  0
  -10.1789   21.4962   -8.5578 C   0  0  0  0  0  0  0  0  0  0  0  0
   -9.8652   22.6919   -9.1952 C   0  0  0  0  0  0  0  0  0  0  0  0
  -10.8877   23.5468   -9.6136 C   0  0  0  0  0  0  0  0  0  0  0  0
  -12.2370   23.2183   -9.4099 C   0  0  0  0  0  0  0  0  0  0  0  0
  -13.3849   24.3870   -9.9406 Cl  0  0  0  0  0  0  0  0  0  0  0  0
  -13.3751   22.9393   -6.3801 C   0  0  0  0  0  0  0  0  0  0  0  0
  -13.6101   23.5857   -5.0368 C   0  0  0  0  0  0  0  0  0  0  0  0
  -12.5875   23.6463   -4.0791 C   0  0  0  0  0  0  0  0  0  0  0  0
  -12.8207   24.2238   -2.8307 C   0  0  0  0  0  0  0  0  0  0  0  0
  -14.0731   24.7549   -2.5288 C   0  0  0  0  0  0  0  0  0  0  0  0
  -15.0923   24.7152   -3.4775 C   0  0  0  0  0  0  0  0  0  0  0  0
  -14.8622   24.1362   -4.7264 C   0  0  0  0  0  0  0  0  0  0  0  0
  -17.3494   20.5170   -5.6954 N   0  0  0  0  0  0  0  0  0  0  0  0
  -18.8946   21.0945   -5.2069 S   0  0  0  0  0  0  0  0  0  0  0  0
  -19.4981   21.6402   -6.4031 O   0  0  0  0  0  0  0  0  0  0  0  0
  -18.7310   21.9083   -4.0205 O   0  0  0  0  0  0  0  0  0  0  0  0
  -19.7582   19.6410   -4.6800 C   0  0  0  0  0  0  0  0  0  0  0  0
  -20.6521   19.0493   -5.5896 C   0  0  0  0  0  0  0  0  0  0  0  0
  -21.3633   17.9022   -5.2407 C   0  0  0  0  0  0  0  0  0  0  0  0
  -21.1663   17.3175   -3.9923 C   0  0  0  0  0  0  0  0  0  0  0  0
  -20.2579   17.8862   -3.0966 C   0  0  0  0  0  0  0  0  0  0  0  0
  -19.5448   19.0462   -3.4344 C   0  0  0  0  0  0  0  0  0  0  0  0
  -18.4017   19.5986   -2.2675 Cl  0  0  0  0  0  0  0  0  0  0  0  0
  -17.1958   20.2780   -7.1607 C   0  0  0  0  0  0  0  0  0  0  0  0
  -17.7575   18.9478   -7.5984 C   0  0  0  0  0  0  0  0  0  0  0  0
  -18.2948   18.8018   -8.8856 C   0  0  0  0  0  0  0  0  0  0  0  0
  -18.7737   17.5644   -9.3177 C   0  0  0  0  0  0  0  0  0  0  0  0
  -18.7223   16.4667   -8.4609 C   0  0  0  0  0  0  0  0  0  0  0  0
  -19.2990   14.9393   -8.9988 Cl  0  0  0  0  0  0  0  0  0  0  0  0
  -18.2058   16.5989   -7.1740 C   0  0  0  0  0  0  0  0  0  0  0  0
  -17.7264   17.8372   -6.7417 C   0  0  0  0  0  0  0  0  0  0  0  0
  8  9  2  0
  9 10  2  0
  9 11  1  0
 11 12  2  0
 12 13  1  0
 13 14  2  0
 14 15  1  0
 15 16  2  0
 16 17  1  0
  9  7  1  0
  7 18  1  0
 18 19  1  0
 19 20  2  0
 20 21  1  0
 21 22  2  0
 22 23  1  0
 23 24  2  0
  1  7  1  0
  1  2  1  0
  2  3  1  0
  3  4  1  0
  4  5  1  0
  5 25  1  0
 25 36  1  0
 36 37  1  0
 37 38  2  0
 38 39  1  0
 39 40  2  0
 40 41  1  0
 40 42  1  0
 42 43  2  0
 25 26  1  0
 26 27  2  0
 26 28  2  0
 26 29  1  0
 29 30  2  0
 30 31  1  0
 31 32  2  0
 32 33  1  0
 33 34  2  0
 34 35  1  0
 16 11  1  0
 24 19  1  0
  5  1  1  0
 43 37  1  0
 34 29  1  0
  3  6  1  0
M  END
> <minimizedAffinity>
-8.68951

> <CNNscore>
0.5393599272

> <CNNaffinity>
8.0131950378

> <CNN_VS>
4.3219962120

> <CNNaffinity_variance>
0.9329919219

$$$$



 43 47  0  0  0  0  0  0  0  0999 V2000
  -16.2981   19.9505   -5.4149 C   0  0  0  0  0  0  0  0  0  0  0  0
  -15.7582   18.7748   -4.5960 C   0  0  0  0  0  0  0  0  0  0  0  0
  -14.3125   19.0341   -4.4629 N   0  0  0  0  0  0  0  0  0  0  0  0
  -13.9161   19.5707   -5.7775 C   0  0  0  0  0  0  0  0  0  0  0  0
  -15.1128   20.3775   -6.3104 C   0  0  0  0  0  0  0  0  0  0  0  0
  -13.8081   18.1716   -4.2577 H   0  0  0  0  0  0  0  0  0  0  0  0
  -17.6041   19.7275   -6.1700 N   0  0  0  0  0  0  0  0  0  0  0  0
  -18.2574   21.8674   -4.9784 O   0  0  0  0  0  0  0  0  0  0  0  0
  -18.8905   20.6673   -5.4745 S   0  0  0  0  0  0  0  0  0  0  0  0
  -19.9770   20.7197   -6.4301 O   0  0  0  0  0  0  0  0  0  0  0  0
  -19.4671   19.6367   -4.1528 C   0  0  0  0  0  0  0  0  0  0  0  0
  -18.8515   19.8340   -2.9021 C   0  0  0  0  0  0  0  0  0  0  0  0
  -19.2264   19.0734   -1.7951 C   0  0  0  0  0  0  0  0  0  0  0  0
  -20.2115   18.1014   -1.9343 C   0  0  0  0  0  0  0  0  0  0  0  0
  -20.8094   17.8896   -3.1789 C   0  0  0  0  0  0  0  0  0  0  0  0
  -20.4398   18.6488   -4.3000 C   0  0  0  0  0  0  0  0  0  0  0  0
  -21.2321   18.2478   -5.7754 Cl  0  0  0  0  0  0  0  0  0  0  0  0
  -18.0218   18.2995   -6.3762 C   0  0  0  0  0  0  0  0  0  0  0  0
  -18.1442   17.8859   -7.8223 C   0  0  0  0  0  0  0  0  0  0  0  0
  -17.1197   17.1658   -8.4536 C   0  0  0  0  0  0  0  0  0  0  0  0
  -17.2304   16.8087   -9.7978 C   0  0  0  0  0  0  0  0  0  0  0  0
  -18.3680   17.1579  -10.5227 C   0  0  0  0  0  0  0  0  0  0  0  0
  -19.3997   17.8591   -9.9025 C   0  0  0  0  0  0  0  0  0  0  0  0
  -19.2905   18.2193   -8.5586 C   0  0  0  0  0  0  0  0  0  0  0  0
  -14.9234   21.8778   -6.3094 N   0  0  0  0  0  0  0  0  0  0  0  0
  -13.7344   22.5437   -5.2594 S   0  0  0  0  0  0  0  0  0  0  0  0
  -13.1608   23.6571   -5.9833 O   0  0  0  0  0  0  0  0  0  0  0  0
  -12.8983   21.4693   -4.7661 O   0  0  0  0  0  0  0  0  0  0  0  0
  -14.6575   23.1177   -3.8615 C   0  0  0  0  0  0  0  0  0  0  0  0
  -15.6358   22.2590   -3.3304 C   0  0  0  0  0  0  0  0  0  0  0  0
  -16.3977   22.6468   -2.2292 C   0  0  0  0  0  0  0  0  0  0  0  0
  -16.1693   23.8825   -1.6290 C   0  0  0  0  0  0  0  0  0  0  0  0
  -15.1788   24.7266   -2.1363 C   0  0  0  0  0  0  0  0  0  0  0  0
  -14.4137   24.3497   -3.2502 C   0  0  0  0  0  0  0  0  0  0  0  0
  -13.1753   25.4515   -3.7255 Cl  0  0  0  0  0  0  0  0  0  0  0  0
  -14.9675   22.4744   -7.6769 C   0  0  0  0  0  0  0  0  0  0  0  0
  -13.6202   22.4802   -8.3562 C   0  0  0  0  0  0  0  0  0  0  0  0
  -13.2629   23.5436   -9.1979 C   0  0  0  0  0  0  0  0  0  0  0  0
  -12.0016   23.5830   -9.7936 C   0  0  0  0  0  0  0  0  0  0  0  0
  -11.0924   22.5547   -9.5542 C   0  0  0  0  0  0  0  0  0  0  0  0
   -9.5337   22.6111  -10.2767 Cl  0  0  0  0  0  0  0  0  0  0  0  0
  -11.4377   21.4838   -8.7330 C   0  0  0  0  0  0  0  0  0  0  0  0
  -12.6998   21.4444   -8.1366 C   0  0  0  0  0  0  0  0  0  0  0  0
  8  9  2  0
  9 10  2  0
  9 11  1  0
 11 12  2  0
 12 13  1  0
 13 14  2  0
 14 15  1  0
 15 16  2  0
 16 17  1  0
  9  7  1  0
  7 18  1  0
 18 19  1  0
 19 20  2  0
 20 21  1  0
 21 22  2  0
 22 23  1  0
 23 24  2  0
  1  7  1  0
  1  2  1  0
  2  3  1  0
  3  4  1  0
  4  5  1  0
  5 25  1  0
 25 36  1  0
 36 37  1  0
 37 38  2  0
 38 39  1  0
 39 40  2  0
 40 41  1  0
 40 42  1  0
 42 43  2  0
 25 26  1  0
 26 27  2  0
 26 28  2  0
 26 29  1  0
 29 30  2  0
 30 31  1  0
 31 32  2  0
 32 33  1  0
 33 34  2  0
 34 35  1  0
 16 11  1  0
 24 19  1  0
  5  1  1  0
 43 37  1  0
 34 29  1  0
  3  6  1  0
M  END
> <minimizedAffinity>
-8.37640

> <CNNscore>
0.5287556648

> <CNNaffinity>
7.7803158760

> <CNN_VS>
4.1138858795

> <CNNaffinity_variance>
0.7837638855

$$$$



 43 47  0  0  0  0  0  0  0  0999 V2000
  -17.4516   18.9022   -4.8459 C   0  0  0  0  0  0  0  0  0  0  0  0
  -16.9089   17.4711   -4.8049 C   0  0  0  0  0  0  0  0  0  0  0  0
  -15.4434   17.6158   -4.8856 N   0  0  0  0  0  0  0  0  0  0  0  0
  -15.2382   18.7094   -5.8526 C   0  0  0  0  0  0  0  0  0  0  0  0
  -16.4114   19.6888   -5.6756 C   0  0  0  0  0  0  0  0  0  0  0  0
  -15.0129   16.7532   -5.2189 H   0  0  0  0  0  0  0  0  0  0  0  0
  -18.8917   19.0843   -5.3131 N   0  0  0  0  0  0  0  0  0  0  0  0
  -20.2486   20.0899   -7.2036 O   0  0  0  0  0  0  0  0  0  0  0  0
  -18.9486   19.4925   -7.0019 S   0  0  0  0  0  0  0  0  0  0  0  0
  -17.7281   20.1960   -7.3362 O   0  0  0  0  0  0  0  0  0  0  0  0
  -18.8226   17.9139   -7.7978 C   0  0  0  0  0  0  0  0  0  0  0  0
  -17.7711   17.7708   -8.7230 C   0  0  0  0  0  0  0  0  0  0  0  0
  -17.5836   16.5713   -9.4091 C   0  0  0  0  0  0  0  0  0  0  0  0
  -18.4542   15.5103   -9.1835 C   0  0  0  0  0  0  0  0  0  0  0  0
  -19.5106   15.6565   -8.2812 C   0  0  0  0  0  0  0  0  0  0  0  0
  -19.7092   16.8591   -7.5854 C   0  0  0  0  0  0  0  0  0  0  0  0
  -21.0758   16.9064   -6.5387 Cl  0  0  0  0  0  0  0  0  0  0  0  0
  -19.7467   20.0125   -4.4986 C   0  0  0  0  0  0  0  0  0  0  0  0
  -20.7483   19.3203   -3.6070 C   0  0  0  0  0  0  0  0  0  0  0  0
  -20.3532   18.7512   -2.3877 C   0  0  0  0  0  0  0  0  0  0  0  0
  -21.2811   18.0916   -1.5812 C   0  0  0  0  0  0  0  0  0  0  0  0
  -22.6137   18.0016   -1.9782 C   0  0  0  0  0  0  0  0  0  0  0  0
  -23.0218   18.5768   -3.1795 C   0  0  0  0  0  0  0  0  0  0  0  0
  -22.0952   19.2354   -3.9891 C   0  0  0  0  0  0  0  0  0  0  0  0
  -16.0529   21.0040   -5.0210 N   0  0  0  0  0  0  0  0  0  0  0  0
  -14.9613   20.9763   -3.6915 S   0  0  0  0  0  0  0  0  0  0  0  0
  -13.7236   20.4454   -4.2199 O   0  0  0  0  0  0  0  0  0  0  0  0
  -15.6186   20.3461   -2.5657 O   0  0  0  0  0  0  0  0  0  0  0  0
  -14.7700   22.6798   -3.2472 C   0  0  0  0  0  0  0  0  0  0  0  0
  -13.5158   23.2741   -3.4716 C   0  0  0  0  0  0  0  0  0  0  0  0
  -13.2966   24.6120   -3.1468 C   0  0  0  0  0  0  0  0  0  0  0  0
  -14.3357   25.3774   -2.6235 C   0  0  0  0  0  0  0  0  0  0  0  0
  -15.5912   24.7981   -2.4256 C   0  0  0  0  0  0  0  0  0  0  0  0
  -15.8190   23.4499   -2.7399 C   0  0  0  0  0  0  0  0  0  0  0  0
  -17.4324   22.8833   -2.5178 Cl  0  0  0  0  0  0  0  0  0  0  0  0
  -15.8280   22.1049   -6.0035 C   0  0  0  0  0  0  0  0  0  0  0  0
  -14.5317   21.9566   -6.7615 C   0  0  0  0  0  0  0  0  0  0  0  0
  -13.4740   22.8464   -6.5244 C   0  0  0  0  0  0  0  0  0  0  0  0
  -12.2547   22.6901   -7.1847 C   0  0  0  0  0  0  0  0  0  0  0  0
  -12.0892   21.6445   -8.0908 C   0  0  0  0  0  0  0  0  0  0  0  0
  -10.5822   21.4437   -8.8930 Cl  0  0  0  0  0  0  0  0  0  0  0  0
  -13.1351   20.7614   -8.3487 C   0  0  0  0  0  0  0  0  0  0  0  0
  -14.3553   20.9178   -7.6878 C   0  0  0  0  0  0  0  0  0  0  0  0
  8  9  2  0
  9 10  2  0
  9 11  1  0
 11 12  2  0
 12 13  1  0
 13 14  2  0
 14 15  1  0
 15 16  2  0
 16 17  1  0
  9  7  1  0
  7 18  1  0
 18 19  1  0
 19 20  2  0
 20 21  1  0
 21 22  2  0
 22 23  1  0
 23 24  2  0
  1  7  1  0
  1  2  1  0
  2  3  1  0
  3  4  1  0
  4  5  1  0
  5 25  1  0
 25 36  1  0
 36 37  1  0
 37 38  2  0
 38 39  1  0
 39 40  2  0
 40 41  1  0
 40 42  1  0
 42 43  2  0
 25 26  1  0
 26 27  2  0
 26 28  2  0
 26 29  1  0
 29 30  2  0
 30 31  1  0
 31 32  2  0
 32 33  1  0
 33 34  2  0
 34 35  1  0
 16 11  1  0
 24 19  1  0
  5  1  1  0
 43 37  1  0
 34 29  1  0
  3  6  1  0
M  END
> <minimizedAffinity>
-8.73113

> <CNNscore>
0.5154260397

> <CNNaffinity>
8.0731773376

> <CNN_VS>
4.1611256599

> <CNNaffinity_variance>
0.1945071369

$$$$



 43 47  0  0  0  0  0  0  0  0999 V2000
  -17.1025   19.2712   -5.9076 C   0  0  0  0  0  0  0  0  0  0  0  0
  -16.8242   17.7810   -5.6924 C   0  0  0  0  0  0  0  0  0  0  0  0
  -15.6063   17.7359   -4.8619 N   0  0  0  0  0  0  0  0  0  0  0  0
  -14.7607   18.8188   -5.3963 C   0  0  0  0  0  0  0  0  0  0  0  0
  -15.7085   19.9375   -5.8625 C   0  0  0  0  0  0  0  0  0  0  0  0
  -15.1393   16.8338   -4.9541 H   0  0  0  0  0  0  0  0  0  0  0  0
  -17.9386   19.6514   -7.1249 N   0  0  0  0  0  0  0  0  0  0  0  0
  -19.7211   21.4086   -6.7236 O   0  0  0  0  0  0  0  0  0  0  0  0
  -19.5856   19.9712   -6.6703 S   0  0  0  0  0  0  0  0  0  0  0  0
  -20.4435   19.0972   -7.4427 O   0  0  0  0  0  0  0  0  0  0  0  0
  -19.6639   19.3672   -5.0058 C   0  0  0  0  0  0  0  0  0  0  0  0
  -20.1606   18.0595   -4.8459 C   0  0  0  0  0  0  0  0  0  0  0  0
  -20.2686   17.4880   -3.5785 C   0  0  0  0  0  0  0  0  0  0  0  0
  -19.8919   18.2252   -2.4608 C   0  0  0  0  0  0  0  0  0  0  0  0
  -19.4181   19.5302   -2.6151 C   0  0  0  0  0  0  0  0  0  0  0  0
  -19.3055   20.1158   -3.8856 C   0  0  0  0  0  0  0  0  0  0  0  0
  -18.7459   21.7441   -3.9173 Cl  0  0  0  0  0  0  0  0  0  0  0  0
  -17.8685   18.7204   -8.3015 C   0  0  0  0  0  0  0  0  0  0  0  0
  -18.8305   17.5594   -8.2391 C   0  0  0  0  0  0  0  0  0  0  0  0
  -18.7356   16.6007   -7.2200 C   0  0  0  0  0  0  0  0  0  0  0  0
  -19.6137   15.5171   -7.1840 C   0  0  0  0  0  0  0  0  0  0  0  0
  -20.6009   15.3843   -8.1584 C   0  0  0  0  0  0  0  0  0  0  0  0
  -20.7156   16.3386   -9.1666 C   0  0  0  0  0  0  0  0  0  0  0  0
  -19.8372   17.4224   -9.2062 C   0  0  0  0  0  0  0  0  0  0  0  0
  -15.7091   21.1770   -4.9962 N   0  0  0  0  0  0  0  0  0  0  0  0
  -14.8771   21.1144   -3.4917 S   0  0  0  0  0  0  0  0  0  0  0  0
  -13.6351   20.4252   -3.7662 O   0  0  0  0  0  0  0  0  0  0  0  0
  -15.7888   20.6257   -2.4784 O   0  0  0  0  0  0  0  0  0  0  0  0
  -14.5728   22.8118   -3.0892 C   0  0  0  0  0  0  0  0  0  0  0  0
  -13.3605   23.3764   -3.5231 C   0  0  0  0  0  0  0  0  0  0  0  0
  -13.0577   24.7079   -3.2425 C   0  0  0  0  0  0  0  0  0  0  0  0
  -13.9749   25.4969   -2.5529 C   0  0  0  0  0  0  0  0  0  0  0  0
  -15.1926   24.9474   -2.1450 C   0  0  0  0  0  0  0  0  0  0  0  0
  -15.5024   23.6058   -2.4138 C   0  0  0  0  0  0  0  0  0  0  0  0
  -17.0685   23.0775   -1.9218 Cl  0  0  0  0  0  0  0  0  0  0  0  0
  -15.5172   22.4357   -5.7752 C   0  0  0  0  0  0  0  0  0  0  0  0
  -14.3825   22.3434   -6.7655 C   0  0  0  0  0  0  0  0  0  0  0  0
  -13.0739   22.6492   -6.3644 C   0  0  0  0  0  0  0  0  0  0  0  0
  -12.0104   22.5217   -7.2588 C   0  0  0  0  0  0  0  0  0  0  0  0
  -12.2519   22.0924   -8.5621 C   0  0  0  0  0  0  0  0  0  0  0  0
  -10.9396   21.9215   -9.6592 Cl  0  0  0  0  0  0  0  0  0  0  0  0
  -13.5479   21.7995   -8.9804 C   0  0  0  0  0  0  0  0  0  0  0  0
  -14.6123   21.9269   -8.0854 C   0  0  0  0  0  0  0  0  0  0  0  0
  8  9  2  0
  9 10  2  0
  9 11  1  0
 11 12  2  0
 12 13  1  0
 13 14  2  0
 14 15  1  0
 15 16  2  0
 16 17  1  0
  9  7  1  0
  7 18  1  0
 18 19  1  0
 19 20  2  0
 20 21  1  0
 21 22  2  0
 22 23  1  0
 23 24  2  0
  1  7  1  0
  1  2  1  0
  2  3  1  0
  3  4  1  0
  4  5  1  0
  5 25  1  0
 25 36  1  0
 36 37  1  0
 37 38  2  0
 38 39  1  0
 39 40  2  0
 40 41  1  0
 40 42  1  0
 42 43  2  0
 25 26  1  0
 26 27  2  0
 26 28  2  0
 26 29  1  0
 29 30  2  0
 30 31  1  0
 31 32  2  0
 32 33  1  0
 33 34  2  0
 34 35  1  0
 16 11  1  0
 24 19  1  0
  5  1  1  0
 43 37  1  0
 34 29  1  0
  3  6  1  0
M  END
> <minimizedAffinity>
-8.92309

> <CNNscore>
0.4786743224

> <CNNaffinity>
7.6626682281

> <CNN_VS>
3.6679224968

> <CNNaffinity_variance>
0.9150881171

$$$$



 43 47  0  0  0  0  0  0  0  0999 V2000
  -16.5015   19.8224   -5.0308 C   0  0  0  0  0  0  0  0  0  0  0  0
  -16.4663   18.5728   -4.1467 C   0  0  0  0  0  0  0  0  0  0  0  0
  -16.1933   17.4575   -5.0724 N   0  0  0  0  0  0  0  0  0  0  0  0
  -16.9837   17.7801   -6.2743 C   0  0  0  0  0  0  0  0  0  0  0  0
  -16.9941   19.3130   -6.4045 C   0  0  0  0  0  0  0  0  0  0  0  0
  -16.4951   16.5707   -4.6687 H   0  0  0  0  0  0  0  0  0  0  0  0
  -17.2698   21.0270   -4.4980 N   0  0  0  0  0  0  0  0  0  0  0  0
  -19.5665   22.0845   -4.3166 O   0  0  0  0  0  0  0  0  0  0  0  0
  -18.9731   20.8599   -4.8021 S   0  0  0  0  0  0  0  0  0  0  0  0
  -19.1449   20.4220   -6.1714 O   0  0  0  0  0  0  0  0  0  0  0  0
  -19.4228   19.4708   -3.7972 C   0  0  0  0  0  0  0  0  0  0  0  0
  -19.0086   19.5215   -2.4525 C   0  0  0  0  0  0  0  0  0  0  0  0
  -19.3057   18.4789   -1.5754 C   0  0  0  0  0  0  0  0  0  0  0  0
  -20.0086   17.3724   -2.0403 C   0  0  0  0  0  0  0  0  0  0  0  0
  -20.4028   17.3104   -3.3790 C   0  0  0  0  0  0  0  0  0  0  0  0
  -20.1090   18.3536   -4.2709 C   0  0  0  0  0  0  0  0  0  0  0  0
  -20.6210   18.1194   -5.8983 Cl  0  0  0  0  0  0  0  0  0  0  0  0
  -16.7704   22.3790   -4.9207 C   0  0  0  0  0  0  0  0  0  0  0  0
  -15.8417   23.0405   -3.9320 C   0  0  0  0  0  0  0  0  0  0  0  0
  -15.6423   22.4940   -2.6560 C   0  0  0  0  0  0  0  0  0  0  0  0
  -14.8010   23.1255   -1.7395 C   0  0  0  0  0  0  0  0  0  0  0  0
  -14.1430   24.3027   -2.0900 C   0  0  0  0  0  0  0  0  0  0  0  0
  -14.3203   24.8466   -3.3601 C   0  0  0  0  0  0  0  0  0  0  0  0
  -15.1630   24.2181   -4.2780 C   0  0  0  0  0  0  0  0  0  0  0  0
  -16.1580   19.8639   -7.5377 N   0  0  0  0  0  0  0  0  0  0  0  0
  -14.4636   19.5670   -7.5132 S   0  0  0  0  0  0  0  0  0  0  0  0
  -14.2322   18.5688   -8.5343 O   0  0  0  0  0  0  0  0  0  0  0  0
  -14.0537   19.3366   -6.1436 O   0  0  0  0  0  0  0  0  0  0  0  0
  -13.7415   21.1153   -7.9793 C   0  0  0  0  0  0  0  0  0  0  0  0
  -12.8669   21.7272   -7.0644 C   0  0  0  0  0  0  0  0  0  0  0  0
  -12.2619   22.9460   -7.3680 C   0  0  0  0  0  0  0  0  0  0  0  0
  -12.5004   23.5502   -8.5998 C   0  0  0  0  0  0  0  0  0  0  0  0
  -13.3465   22.9313   -9.5229 C   0  0  0  0  0  0  0  0  0  0  0  0
  -13.9678   21.7097   -9.2228 C   0  0  0  0  0  0  0  0  0  0  0  0
  -14.9258   21.0192  -10.4793 Cl  0  0  0  0  0  0  0  0  0  0  0  0
  -16.8090   19.7132   -8.8724 C   0  0  0  0  0  0  0  0  0  0  0  0
  -17.6647   18.4743   -8.9693 C   0  0  0  0  0  0  0  0  0  0  0  0
  -19.0623   18.5806   -8.9205 C   0  0  0  0  0  0  0  0  0  0  0  0
  -19.8646   17.4471   -9.0568 C   0  0  0  0  0  0  0  0  0  0  0  0
  -19.2717   16.1991   -9.2373 C   0  0  0  0  0  0  0  0  0  0  0  0
  -20.2608   14.8051   -9.4197 Cl  0  0  0  0  0  0  0  0  0  0  0  0
  -17.8847   16.0747   -9.2726 C   0  0  0  0  0  0  0  0  0  0  0  0
  -17.0818   17.2091   -9.1364 C   0  0  0  0  0  0  0  0  0  0  0  0
  8  9  2  0
  9 10  2  0
  9 11  1  0
 11 12  2  0
 12 13  1  0
 13 14  2  0
 14 15  1  0
 15 16  2  0
 16 17  1  0
  9  7  1  0
  7 18  1  0
 18 19  1  0
 19 20  2  0
 20 21  1  0
 21 22  2  0
 22 23  1  0
 23 24  2  0
  1  7  1  0
  1  2  1  0
  2  3  1  0
  3  4  1  0
  4  5  1  0
  5 25  1  0
 25 36  1  0
 36 37  1  0
 37 38  2  0
 38 39  1  0
 39 40  2  0
 40 41  1  0
 40 42  1  0
 42 43  2  0
 25 26  1  0
 26 27  2  0
 26 28  2  0
 26 29  1  0
 29 30  2  0
 30 31  1  0
 31 32  2  0
 32 33  1  0
 33 34  2  0
 34 35  1  0
 16 11  1  0
 24 19  1  0
  5  1  1  0
 43 37  1  0
 34 29  1  0
  3  6  1  0
M  END
> <minimizedAffinity>
-10.10435

> <CNNscore>
0.4775985181

> <CNNaffinity>
7.3011612892

> <CNN_VS>
3.4870238304

> <CNNaffinity_variance>
2.3731105328

$$$$
