


 22 21  0  0  0  0  0  0  0  0999 V2000
   -1.6945   12.0022   19.6350 C   0  0  0  0  0  0  0  0  0  0  0  0
   -1.8311   10.4945   19.8656 C   0  0  0  0  0  0  0  0  0  0  0  0
   -3.2836   10.0042   19.8394 C   0  0  0  0  0  0  0  0  0  0  0  0
   -3.4073    8.4943   19.6176 C   0  0  0  0  0  0  0  0  0  0  0  0
   -2.5836    7.6617   20.6090 C   0  0  0  0  0  0  0  0  0  0  0  0
   -1.3578    6.9963   19.9690 C   0  0  0  0  0  0  0  0  0  0  0  0
   -1.2038    5.4720   20.2389 C   0  0  0  0  0  0  0  0  0  0  0  0
   -2.1198    5.1048   21.4264 C   0  0  0  0  0  0  0  0  0  0  0  0
    0.2479    5.1536   20.6561 C   0  0  0  0  0  0  0  0  0  0  0  0
   -1.5537    4.5892   19.0081 C   0  0  0  0  0  0  0  0  0  0  0  0
   -2.8630    4.9381   18.2916 C   0  0  0  0  0  0  0  0  0  0  0  0
   -2.8437    4.4591   16.8468 C   0  0  0  0  0  0  0  0  0  0  0  0
   -3.0443   12.7247   19.5574 C   0  0  0  0  0  0  0  0  0  0  0  0
   -3.0445   13.8959   18.5717 C   0  0  0  0  0  0  0  0  0  0  0  0
   -2.0269   14.9859   18.9233 C   0  0  0  0  0  0  0  0  0  0  0  0
   -2.4582   16.4268   18.6278 C   0  0  0  0  0  0  0  0  0  0  0  0
   -3.7408   16.5203   17.7984 C   0  0  0  0  0  0  0  0  0  0  0  0
   -4.2877   17.9470   17.6805 C   0  0  0  0  0  0  0  0  0  0  0  0
   -5.0529   18.2691   16.3933 C   0  0  0  0  0  0  0  0  0  0  0  0
   -4.3836   19.3478   15.5394 C   0  0  0  0  0  0  0  0  0  0  0  0
   -5.2684   20.6761   13.5884 C   0  0  0  0  0  0  0  0  0  0  0  0
   -4.8786   19.2959   14.0933 C   0  0  0  0  0  0  0  0  0  0  0  0
 21 22  1  0
 22 20  1  0
 20 19  1  0
 19 18  1  0
 18 17  1  0
 17 16  1  0
 16 15  1  0
 15 14  1  0
 14 13  1  0
 13  1  1  0
  1  2  1  0
  2  3  1  0
  3  4  1  0
  4  5  1  0
  5  6  1  0
  6  7  1  0
  7  8  1  0
  7  9  1  0
  7 10  1  0
 10 11  1  0
 11 12  1  0
M  END
> <minimizedAffinity>
-6.79005

> <CNNscore>
0.7527956963

> <CNNaffinity>
6.5617337227

> <CNN_VS>
4.9396448135

> <CNNaffinity_variance>
1.0482746363

$$$$



 22 21  0  0  0  0  0  0  0  0999 V2000
   -3.1347   10.3183   19.7356 C   0  0  0  0  0  0  0  0  0  0  0  0
   -2.8818    8.8080   19.7387 C   0  0  0  0  0  0  0  0  0  0  0  0
   -1.5669    8.4128   20.4208 C   0  0  0  0  0  0  0  0  0  0  0  0
   -1.0028    7.0807   19.9189 C   0  0  0  0  0  0  0  0  0  0  0  0
   -1.9970    5.9169   20.0265 C   0  0  0  0  0  0  0  0  0  0  0  0
   -3.4297    6.3710   20.3366 C   0  0  0  0  0  0  0  0  0  0  0  0
   -4.5489    5.6695   19.5150 C   0  0  0  0  0  0  0  0  0  0  0  0
   -5.8710    6.4248   19.7711 C   0  0  0  0  0  0  0  0  0  0  0  0
   -4.7384    4.2199   20.0108 C   0  0  0  0  0  0  0  0  0  0  0  0
   -4.2551    5.6197   17.9892 C   0  0  0  0  0  0  0  0  0  0  0  0
   -3.9983    4.2249   17.4078 C   0  0  0  0  0  0  0  0  0  0  0  0
   -2.8158    4.2377   16.4495 C   0  0  0  0  0  0  0  0  0  0  0  0
   -1.8443   11.1453   19.7042 C   0  0  0  0  0  0  0  0  0  0  0  0
   -2.0594   12.6114   20.0882 C   0  0  0  0  0  0  0  0  0  0  0  0
   -2.8082   13.4155   19.0205 C   0  0  0  0  0  0  0  0  0  0  0  0
   -2.2799   14.8289   18.7517 C   0  0  0  0  0  0  0  0  0  0  0  0
   -3.2263   15.6815   17.9037 C   0  0  0  0  0  0  0  0  0  0  0  0
   -3.1444   17.1791   18.2181 C   0  0  0  0  0  0  0  0  0  0  0  0
   -4.3862   18.0071   17.8737 C   0  0  0  0  0  0  0  0  0  0  0  0
   -4.6561   18.1060   16.3711 C   0  0  0  0  0  0  0  0  0  0  0  0
   -4.8652   19.7461   14.4684 C   0  0  0  0  0  0  0  0  0  0  0  0
   -4.2261   19.4660   15.8193 C   0  0  0  0  0  0  0  0  0  0  0  0
 21 22  1  0
 22 20  1  0
 20 19  1  0
 19 18  1  0
 18 17  1  0
 17 16  1  0
 16 15  1  0
 15 14  1  0
 14 13  1  0
 13  1  1  0
  1  2  1  0
  2  3  1  0
  3  4  1  0
  4  5  1  0
  5  6  1  0
  6  7  1  0
  7  8  1  0
  7  9  1  0
  7 10  1  0
 10 11  1  0
 11 12  1  0
M  END
> <minimizedAffinity>
-6.33352

> <CNNscore>
0.6666879058

> <CNNaffinity>
6.6867771149

> <CNN_VS>
4.4579935074

> <CNNaffinity_variance>
0.5375905037

$$$$



 22 21  0  0  0  0  0  0  0  0999 V2000
   -1.8882    9.2968   20.0764 C   0  0  0  0  0  0  0  0  0  0  0  0
   -2.0152    7.7936   20.3399 C   0  0  0  0  0  0  0  0  0  0  0  0
   -0.7637    6.9994   19.9477 C   0  0  0  0  0  0  0  0  0  0  0  0
   -0.8156    5.5342   20.3889 C   0  0  0  0  0  0  0  0  0  0  0  0
   -1.9250    4.7278   19.7008 C   0  0  0  0  0  0  0  0  0  0  0  0
   -1.8259    4.7458   18.1695 C   0  0  0  0  0  0  0  0  0  0  0  0
   -2.7258    3.7173   17.4264 C   0  0  0  0  0  0  0  0  0  0  0  0
   -3.0284    4.2790   16.0204 C   0  0  0  0  0  0  0  0  0  0  0  0
   -4.0726    3.5633   18.1650 C   0  0  0  0  0  0  0  0  0  0  0  0
   -2.0813    2.3077   17.3056 C   0  0  0  0  0  0  0  0  0  0  0  0
   -1.6743    1.6484   18.6281 C   0  0  0  0  0  0  0  0  0  0  0  0
   -2.5804    0.4703   18.9569 C   0  0  0  0  0  0  0  0  0  0  0  0
   -3.2090    9.9475   19.6497 C   0  0  0  0  0  0  0  0  0  0  0  0
   -3.1088   11.4669   19.4937 C   0  0  0  0  0  0  0  0  0  0  0  0
   -4.1142   12.0423   18.4909 C   0  0  0  0  0  0  0  0  0  0  0  0
   -3.9807   13.5395   18.1912 C   0  0  0  0  0  0  0  0  0  0  0  0
   -2.6702   14.1470   18.6964 C   0  0  0  0  0  0  0  0  0  0  0  0
   -2.6335   15.6765   18.6083 C   0  0  0  0  0  0  0  0  0  0  0  0
   -3.8932   16.3482   18.0530 C   0  0  0  0  0  0  0  0  0  0  0  0
   -3.6820   17.8120   17.6615 C   0  0  0  0  0  0  0  0  0  0  0  0
   -4.2979   19.2768   15.7048 C   0  0  0  0  0  0  0  0  0  0  0  0
   -4.8130   18.3138   16.7627 C   0  0  0  0  0  0  0  0  0  0  0  0
 21 22  1  0
 22 20  1  0
 20 19  1  0
 19 18  1  0
 18 17  1  0
 17 16  1  0
 16 15  1  0
 15 14  1  0
 14 13  1  0
 13  1  1  0
  1  2  1  0
  2  3  1  0
  3  4  1  0
  4  5  1  0
  5  6  1  0
  6  7  1  0
  7  8  1  0
  7  9  1  0
  7 10  1  0
 10 11  1  0
 11 12  1  0
M  END
> <minimizedAffinity>
-6.17793

> <CNNscore>
0.6429077983

> <CNNaffinity>
6.3444352150

> <CNN_VS>
4.0788869858

> <CNNaffinity_variance>
0.4438954294

$$$$



 22 21  0  0  0  0  0  0  0  0999 V2000
   -4.1398    7.2812   20.6517 C   0  0  0  0  0  0  0  0  0  0  0  0
   -4.9640    7.4095   19.3676 C   0  0  0  0  0  0  0  0  0  0  0  0
   -5.9413    6.2477   19.1534 C   0  0  0  0  0  0  0  0  0  0  0  0
   -5.6399    5.4291   17.8950 C   0  0  0  0  0  0  0  0  0  0  0  0
   -4.5384    4.3802   18.0979 C   0  0  0  0  0  0  0  0  0  0  0  0
   -3.2095    4.7609   17.4315 C   0  0  0  0  0  0  0  0  0  0  0  0
   -2.0157    3.8066   17.7212 C   0  0  0  0  0  0  0  0  0  0  0  0
   -1.6537    3.0852   16.4049 C   0  0  0  0  0  0  0  0  0  0  0  0
   -2.4375    2.7277   18.7415 C   0  0  0  0  0  0  0  0  0  0  0  0
   -0.7648    4.5371   18.2854 C   0  0  0  0  0  0  0  0  0  0  0  0
   -1.0444    5.8286   19.0622 C   0  0  0  0  0  0  0  0  0  0  0  0
   -0.1757    5.9195   20.3088 C   0  0  0  0  0  0  0  0  0  0  0  0
   -3.2023    8.4710   20.8874 C   0  0  0  0  0  0  0  0  0  0  0  0
   -2.7761    9.1674   19.5927 C   0  0  0  0  0  0  0  0  0  0  0  0
   -3.1881   10.6418   19.5319 C   0  0  0  0  0  0  0  0  0  0  0  0
   -2.1373   11.6097   18.9767 C   0  0  0  0  0  0  0  0  0  0  0  0
   -2.1926   12.9996   19.6146 C   0  0  0  0  0  0  0  0  0  0  0  0
   -2.8827   14.0472   18.7344 C   0  0  0  0  0  0  0  0  0  0  0  0
   -2.1055   15.3463   18.5011 C   0  0  0  0  0  0  0  0  0  0  0  0
   -3.0026   16.5783   18.3668 C   0  0  0  0  0  0  0  0  0  0  0  0
   -5.1062   17.4703   17.3025 C   0  0  0  0  0  0  0  0  0  0  0  0
   -4.3360   16.2234   17.7073 C   0  0  0  0  0  0  0  0  0  0  0  0
 21 22  1  0
 22 20  1  0
 20 19  1  0
 19 18  1  0
 18 17  1  0
 17 16  1  0
 16 15  1  0
 15 14  1  0
 14 13  1  0
 13  1  1  0
  1  2  1  0
  2  3  1  0
  3  4  1  0
  4  5  1  0
  5  6  1  0
  6  7  1  0
  7  8  1  0
  7  9  1  0
  7 10  1  0
 10 11  1  0
 11 12  1  0
M  END
> <minimizedAffinity>
-5.77662

> <CNNscore>
0.6280966997

> <CNNaffinity>
6.5799460411

> <CNN_VS>
4.1328425407

> <CNNaffinity_variance>
0.3673492372

$$$$



 22 21  0  0  0  0  0  0  0  0999 V2000
   -2.9555   11.5610   18.4837 C   0  0  0  0  0  0  0  0  0  0  0  0
   -2.2179   11.2226   19.7823 C   0  0  0  0  0  0  0  0  0  0  0  0
   -1.7644    9.7601   19.8609 C   0  0  0  0  0  0  0  0  0  0  0  0
   -2.9048    8.7908   20.1841 C   0  0  0  0  0  0  0  0  0  0  0  0
   -2.4208    7.3984   20.6099 C   0  0  0  0  0  0  0  0  0  0  0  0
   -2.2684    6.4243   19.4339 C   0  0  0  0  0  0  0  0  0  0  0  0
   -0.9805    5.5520   19.4474 C   0  0  0  0  0  0  0  0  0  0  0  0
    0.2027    6.4447   19.0148 C   0  0  0  0  0  0  0  0  0  0  0  0
   -1.1042    4.4117   18.4143 C   0  0  0  0  0  0  0  0  0  0  0  0
   -0.6824    4.9134   20.8331 C   0  0  0  0  0  0  0  0  0  0  0  0
   -1.4322    3.6120   21.1393 C   0  0  0  0  0  0  0  0  0  0  0  0
   -2.8991    3.8813   21.4439 C   0  0  0  0  0  0  0  0  0  0  0  0
   -4.2016   12.4259   18.7063 C   0  0  0  0  0  0  0  0  0  0  0  0
   -4.0796   13.8254   18.0983 C   0  0  0  0  0  0  0  0  0  0  0  0
   -2.8549   14.5995   18.5967 C   0  0  0  0  0  0  0  0  0  0  0  0
   -2.8903   16.1175   18.3880 C   0  0  0  0  0  0  0  0  0  0  0  0
   -3.6196   16.5395   17.1106 C   0  0  0  0  0  0  0  0  0  0  0  0
   -4.9077   17.3264   17.3758 C   0  0  0  0  0  0  0  0  0  0  0  0
   -4.8942   18.7992   16.9553 C   0  0  0  0  0  0  0  0  0  0  0  0
   -4.2218   19.0413   15.6025 C   0  0  0  0  0  0  0  0  0  0  0  0
   -5.1912   19.8600   13.4245 C   0  0  0  0  0  0  0  0  0  0  0  0
   -4.8659   20.2169   14.8662 C   0  0  0  0  0  0  0  0  0  0  0  0
 21 22  1  0
 22 20  1  0
 20 19  1  0
 19 18  1  0
 18 17  1  0
 17 16  1  0
 16 15  1  0
 15 14  1  0
 14 13  1  0
 13  1  1  0
  1  2  1  0
  2  3  1  0
  3  4  1  0
  4  5  1  0
  5  6  1  0
  6  7  1  0
  7  8  1  0
  7  9  1  0
  7 10  1  0
 10 11  1  0
 11 12  1  0
M  END
> <minimizedAffinity>
-6.92954

> <CNNscore>
0.6030763984

> <CNNaffinity>
6.2864050865

> <CNN_VS>
3.7911825180

> <CNNaffinity_variance>
1.3141745329

$$$$



 22 21  0  0  0  0  0  0  0  0999 V2000
   -4.1125    7.9854   19.1292 C   0  0  0  0  0  0  0  0  0  0  0  0
   -4.6436    6.5493   19.1342 C   0  0  0  0  0  0  0  0  0  0  0  0
   -3.6018    5.5138   18.6950 C   0  0  0  0  0  0  0  0  0  0  0  0
   -3.1091    5.7238   17.2606 C   0  0  0  0  0  0  0  0  0  0  0  0
   -3.1193    4.4420   16.4172 C   0  0  0  0  0  0  0  0  0  0  0  0
   -3.0952    3.1611   17.2619 C   0  0  0  0  0  0  0  0  0  0  0  0
   -1.7459    2.3868   17.2689 C   0  0  0  0  0  0  0  0  0  0  0  0
   -2.0605    0.8824   17.1219 C   0  0  0  0  0  0  0  0  0  0  0  0
   -1.0320    2.5821   18.6235 C   0  0  0  0  0  0  0  0  0  0  0  0
   -0.7712    2.8360   16.1441 C   0  0  0  0  0  0  0  0  0  0  0  0
   -1.3008    2.6973   14.7124 C   0  0  0  0  0  0  0  0  0  0  0  0
   -0.9995    1.3169   14.1460 C   0  0  0  0  0  0  0  0  0  0  0  0
   -3.2017    8.2953   20.3228 C   0  0  0  0  0  0  0  0  0  0  0  0
   -2.9831    9.7947   20.5400 C   0  0  0  0  0  0  0  0  0  0  0  0
   -2.5893   10.5425   19.2622 C   0  0  0  0  0  0  0  0  0  0  0  0
   -1.6548   11.7431   19.4484 C   0  0  0  0  0  0  0  0  0  0  0  0
   -2.3693   13.0924   19.3454 C   0  0  0  0  0  0  0  0  0  0  0  0
   -3.6566   13.0386   18.5156 C   0  0  0  0  0  0  0  0  0  0  0  0
   -4.2280   14.3891   18.0732 C   0  0  0  0  0  0  0  0  0  0  0  0
   -3.2414   15.5485   18.2257 C   0  0  0  0  0  0  0  0  0  0  0  0
   -4.2926   17.7836   17.7232 C   0  0  0  0  0  0  0  0  0  0  0  0
   -3.4824   16.6241   17.1656 C   0  0  0  0  0  0  0  0  0  0  0  0
 21 22  1  0
 22 20  1  0
 20 19  1  0
 19 18  1  0
 18 17  1  0
 17 16  1  0
 16 15  1  0
 15 14  1  0
 14 13  1  0
 13  1  1  0
  1  2  1  0
  2  3  1  0
  3  4  1  0
  4  5  1  0
  5  6  1  0
  6  7  1  0
  7  8  1  0
  7  9  1  0
  7 10  1  0
 10 11  1  0
 11 12  1  0
M  END
> <minimizedAffinity>
-5.30234

> <CNNscore>
0.5877837539

> <CNNaffinity>
6.1409239769

> <CNN_VS>
3.6095354557

> <CNNaffinity_variance>
0.4087836444

$$$$



 22 21  0  0  0  0  0  0  0  0999 V2000
   -3.6869    7.6356   20.6824 C   0  0  0  0  0  0  0  0  0  0  0  0
   -2.6492    6.5150   20.7929 C   0  0  0  0  0  0  0  0  0  0  0  0
   -2.0992    6.0593   19.4362 C   0  0  0  0  0  0  0  0  0  0  0  0
   -0.9641    5.0388   19.5567 C   0  0  0  0  0  0  0  0  0  0  0  0
   -1.3059    3.6706   18.9520 C   0  0  0  0  0  0  0  0  0  0  0  0
   -0.9459    3.5590   17.4644 C   0  0  0  0  0  0  0  0  0  0  0  0
   -2.1215    3.1890   16.5152 C   0  0  0  0  0  0  0  0  0  0  0  0
   -1.5372    2.9482   15.1065 C   0  0  0  0  0  0  0  0  0  0  0  0
   -3.1094    4.3707   16.4126 C   0  0  0  0  0  0  0  0  0  0  0  0
   -2.9180    1.9370   16.9787 C   0  0  0  0  0  0  0  0  0  0  0  0
   -2.2313    0.5876   16.7399 C   0  0  0  0  0  0  0  0  0  0  0  0
   -2.4870   -0.3713   17.8941 C   0  0  0  0  0  0  0  0  0  0  0  0
   -3.2232    8.8018   19.8020 C   0  0  0  0  0  0  0  0  0  0  0  0
   -1.8408    9.3344   20.1874 C   0  0  0  0  0  0  0  0  0  0  0  0
   -1.7588   10.8643   20.1915 C   0  0  0  0  0  0  0  0  0  0  0  0
   -1.9590   11.5506   18.8357 C   0  0  0  0  0  0  0  0  0  0  0  0
   -3.2680   12.3372   18.7389 C   0  0  0  0  0  0  0  0  0  0  0  0
   -3.0616   13.8498   18.6054 C   0  0  0  0  0  0  0  0  0  0  0  0
   -4.2364   14.6393   18.0199 C   0  0  0  0  0  0  0  0  0  0  0  0
   -3.8050   15.7776   17.0930 C   0  0  0  0  0  0  0  0  0  0  0  0
   -4.1733   18.2451   17.4523 C   0  0  0  0  0  0  0  0  0  0  0  0
   -3.3934   17.0158   17.8907 C   0  0  0  0  0  0  0  0  0  0  0  0
 21 22  1  0
 22 20  1  0
 20 19  1  0
 19 18  1  0
 18 17  1  0
 17 16  1  0
 16 15  1  0
 15 14  1  0
 14 13  1  0
 13  1  1  0
  1  2  1  0
  2  3  1  0
  3  4  1  0
  4  5  1  0
  5  6  1  0
  6  7  1  0
  7  8  1  0
  7  9  1  0
  7 10  1  0
 10 11  1  0
 11 12  1  0
M  END
> <minimizedAffinity>
-5.62658

> <CNNscore>
0.5700435042

> <CNNaffinity>
6.2220420837

> <CNN_VS>
3.5468347073

> <CNNaffinity_variance>
0.3203919232

$$$$



 22 21  0  0  0  0  0  0  0  0999 V2000
   -3.4453    7.3804   19.2059 C   0  0  0  0  0  0  0  0  0  0  0  0
   -4.1817    6.0565   19.4297 C   0  0  0  0  0  0  0  0  0  0  0  0
   -5.6799    6.1327   19.1133 C   0  0  0  0  0  0  0  0  0  0  0  0
   -6.5191    5.1396   19.9220 C   0  0  0  0  0  0  0  0  0  0  0  0
   -5.7587    3.8609   20.2975 C   0  0  0  0  0  0  0  0  0  0  0  0
   -6.2166    3.2533   21.6303 C   0  0  0  0  0  0  0  0  0  0  0  0
   -7.2204    2.0702   21.5190 C   0  0  0  0  0  0  0  0  0  0  0  0
   -7.3453    1.4201   22.9139 C   0  0  0  0  0  0  0  0  0  0  0  0
   -6.6687    0.9985   20.5546 C   0  0  0  0  0  0  0  0  0  0  0  0
   -8.6245    2.4985   21.0072 C   0  0  0  0  0  0  0  0  0  0  0  0
   -9.6173    2.9433   22.0870 C   0  0  0  0  0  0  0  0  0  0  0  0
   -9.6746    4.4609   22.1898 C   0  0  0  0  0  0  0  0  0  0  0  0
   -3.4000    8.2639   20.4580 C   0  0  0  0  0  0  0  0  0  0  0  0
   -2.8525    9.6670   20.1852 C   0  0  0  0  0  0  0  0  0  0  0  0
   -3.4278   10.3079   18.9181 C   0  0  0  0  0  0  0  0  0  0  0  0
   -2.7328   11.5870   18.4383 C   0  0  0  0  0  0  0  0  0  0  0  0
   -3.2716   12.8574   19.0997 C   0  0  0  0  0  0  0  0  0  0  0  0
   -4.3755   13.5453   18.2894 C   0  0  0  0  0  0  0  0  0  0  0  0
   -4.0119   14.8995   17.6727 C   0  0  0  0  0  0  0  0  0  0  0  0
   -2.8259   15.5825   18.3564 C   0  0  0  0  0  0  0  0  0  0  0  0
   -4.2794   17.5262   17.6761 C   0  0  0  0  0  0  0  0  0  0  0  0
   -2.9880   17.1033   18.3581 C   0  0  0  0  0  0  0  0  0  0  0  0
 21 22  1  0
 22 20  1  0
 20 19  1  0
 19 18  1  0
 18 17  1  0
 17 16  1  0
 16 15  1  0
 15 14  1  0
 14 13  1  0
 13  1  1  0
  1  2  1  0
  2  3  1  0
  3  4  1  0
  4  5  1  0
  5  6  1  0
  6  7  1  0
  7  8  1  0
  7  9  1  0
  7 10  1  0
 10 11  1  0
 11 12  1  0
M  END
> <minimizedAffinity>
-5.31276

> <CNNscore>
0.5442619324

> <CNNaffinity>
6.2908282280

> <CNN_VS>
3.4238584042

> <CNNaffinity_variance>
0.3930976093

$$$$



 22 21  0  0  0  0  0  0  0  0999 V2000
   -2.3857   12.1903   20.0246 C   0  0  0  0  0  0  0  0  0  0  0  0
   -2.8625   12.8880   18.7476 C   0  0  0  0  0  0  0  0  0  0  0  0
   -2.6071   14.3998   18.7488 C   0  0  0  0  0  0  0  0  0  0  0  0
   -3.7615   15.2077   18.1496 C   0  0  0  0  0  0  0  0  0  0  0  0
   -3.4761   16.7131   18.0683 C   0  0  0  0  0  0  0  0  0  0  0  0
   -3.4888   17.2552   16.6326 C   0  0  0  0  0  0  0  0  0  0  0  0
   -4.7516   18.0719   16.2346 C   0  0  0  0  0  0  0  0  0  0  0  0
   -5.4711   18.4973   17.5328 C   0  0  0  0  0  0  0  0  0  0  0  0
   -5.7257   17.1815   15.4339 C   0  0  0  0  0  0  0  0  0  0  0  0
   -4.4293   19.3253   15.3732 C   0  0  0  0  0  0  0  0  0  0  0  0
   -5.0110   19.3235   13.9551 C   0  0  0  0  0  0  0  0  0  0  0  0
   -5.2158   20.7423   13.4430 C   0  0  0  0  0  0  0  0  0  0  0  0
   -1.2579   11.1822   19.7754 C   0  0  0  0  0  0  0  0  0  0  0  0
   -1.6479    9.7439   20.1250 C   0  0  0  0  0  0  0  0  0  0  0  0
   -3.1620    9.5096   20.1321 C   0  0  0  0  0  0  0  0  0  0  0  0
   -3.6222    8.0868   19.7961 C   0  0  0  0  0  0  0  0  0  0  0  0
   -3.2667    7.0613   20.8748 C   0  0  0  0  0  0  0  0  0  0  0  0
   -2.4275    5.8911   20.3505 C   0  0  0  0  0  0  0  0  0  0  0  0
   -1.1943    6.2661   19.5230 C   0  0  0  0  0  0  0  0  0  0  0  0
    0.1194    5.7598   20.1218 C   0  0  0  0  0  0  0  0  0  0  0  0
   -0.1790    3.2766   19.8086 C   0  0  0  0  0  0  0  0  0  0  0  0
   -0.0719    4.4105   20.8159 C   0  0  0  0  0  0  0  0  0  0  0  0
 21 22  1  0
 22 20  1  0
 20 19  1  0
 19 18  1  0
 18 17  1  0
 17 16  1  0
 16 15  1  0
 15 14  1  0
 14 13  1  0
 13  1  1  0
  1  2  1  0
  2  3  1  0
  3  4  1  0
  4  5  1  0
  5  6  1  0
  6  7  1  0
  7  8  1  0
  7  9  1  0
  7 10  1  0
 10 11  1  0
 11 12  1  0
M  END
> <minimizedAffinity>
-6.57924

> <CNNscore>
0.5396829247

> <CNNaffinity>
6.5906181335

> <CNN_VS>
3.5568439960

> <CNNaffinity_variance>
1.0947955847

$$$$
