


 32 36  0  0  0  0  0  0  0  0999 V2000
   -4.2514   11.2095   20.6788 N   0  0  0  0  0  0  0  0  0  0  0  0
   -3.8353   12.1518   19.7876 C   0  0  0  0  0  0  0  0  0  0  0  0
   -4.5457   12.6952   18.9528 O   0  0  0  0  0  0  0  0  0  0  0  0
   -2.3419   12.3190   19.8973 C   0  0  0  0  0  0  0  0  0  0  0  0
   -1.9429   11.3564   21.0181 C   0  0  0  0  0  0  0  0  0  0  0  0
   -3.1989   10.5664   21.2587 C   0  0  0  0  0  0  0  0  0  0  0  0
   -3.2450    9.4840   21.8245 O   0  0  0  0  0  0  0  0  0  0  0  0
   -1.4934   12.2396   22.1869 C   0  0  0  0  0  0  0  0  0  0  0  0
   -1.9736   13.5985   21.8472 N   0  0  0  0  0  0  0  0  0  0  0  0
   -1.0955   14.6681   22.3391 C   0  0  0  0  0  0  0  0  0  0  0  0
   -0.1538   15.0303   21.1948 C   0  0  0  0  0  0  0  0  0  0  0  0
   -0.5618   14.1399   20.0320 C   0  0  0  0  0  0  0  0  0  0  0  0
   -1.9789   13.7055   20.3821 C   0  0  0  0  0  0  0  0  0  0  0  0
   -2.0156   11.8300   23.5263 C   0  0  0  0  0  0  0  0  0  0  0  0
   -1.5628   10.6889   24.1680 N   0  0  0  0  0  0  0  0  0  0  0  0
   -2.2294   10.6625   25.3102 C   0  0  0  0  0  0  0  0  0  0  0  0
   -3.0733   11.7333   25.4702 O   0  0  0  0  0  0  0  0  0  0  0  0
   -2.9316   12.4715   24.3335 C   0  0  0  0  0  0  0  0  0  0  0  0
   -3.7711   13.9375   24.0417 Cl  0  0  0  0  0  0  0  0  0  0  0  0
   -2.0744    9.6135   26.2792 C   0  0  0  0  0  0  0  0  0  0  0  0
   -2.8722    9.3793   27.3873 C   0  0  0  0  0  0  0  0  0  0  0  0
   -2.4357    8.2510   28.1453 C   0  0  0  0  0  0  0  0  0  0  0  0
   -1.3293    7.6774   27.5750 C   0  0  0  0  0  0  0  0  0  0  0  0
   -0.4810    6.2997   28.1486 Cl  0  0  0  0  0  0  0  0  0  0  0  0
   -0.8077    8.4616   26.1704 S   0  0  0  0  0  0  0  0  0  0  0  0
   -5.6303   10.7949   20.8462 C   0  0  0  0  0  0  0  0  0  0  0  0
   -5.9141    9.3630   20.3761 C   0  0  0  0  0  0  0  0  0  0  0  0
   -5.5330    9.1521   18.9104 C   0  0  0  0  0  0  0  0  0  0  0  0
   -7.1053    9.3657   17.0044 C   0  0  0  0  0  0  0  0  0  0  0  0
   -6.6076    8.4033   18.0909 N   0  0  0  0  0  0  0  0  0  0  0  0
   -7.8010    8.0066   18.9518 C   0  0  0  0  0  0  0  0  0  0  0  0
   -6.0333    7.1682   17.4083 C   0  0  0  0  0  0  0  0  0  0  0  0
 29 30  1  0
 30 31  1  0
 30 32  1  0
 30 28  1  0
 28 27  1  0
 27 26  1  0
 26  1  1  0
  1  2  1  0
  2  3  2  0
  4  2  1  0
  4  5  1  0
  5  6  1  0
  6  7  2  0
  5  8  1  0
  8 14  1  0
 14 15  1  0
 15 16  2  0
 16 20  1  0
 20 21  2  0
 21 22  1  0
 22 23  2  0
 23 24  1  0
 23 25  1  0
 16 17  1  0
 17 18  1  0
 18 19  1  0
  8  9  1  0
  9 10  1  0
 10 11  1  0
 11 12  1  0
 13 12  1  0
  6  1  1  0
 18 14  2  0
 13  9  1  0
 13  4  1  0
 25 20  1  0
M  CHG 1  30   1
M  END
> <minimizedAffinity>
-7.40771

> <CNNscore>
0.9056085944

> <CNNaffinity>
7.9363403320

> <CNN_VS>
7.1872181892

> <CNNaffinity_variance>
0.3027593791

$$$$



 32 36  0  0  0  0  0  0  0  0999 V2000
   -4.5354   10.9995   20.6921 N   0  0  0  0  0  0  0  0  0  0  0  0
   -5.5494   11.9063   20.6227 C   0  0  0  0  0  0  0  0  0  0  0  0
   -6.7204   11.6383   20.3906 O   0  0  0  0  0  0  0  0  0  0  0  0
   -4.9844   13.2982   20.7385 C   0  0  0  0  0  0  0  0  0  0  0  0
   -3.4821   13.0736   20.9250 C   0  0  0  0  0  0  0  0  0  0  0  0
   -3.3153   11.6054   20.6496 C   0  0  0  0  0  0  0  0  0  0  0  0
   -2.2571   11.0647   20.3635 O   0  0  0  0  0  0  0  0  0  0  0  0
   -3.1700   13.5079   22.3610 C   0  0  0  0  0  0  0  0  0  0  0  0
   -4.4892   13.6094   23.0260 N   0  0  0  0  0  0  0  0  0  0  0  0
   -4.5456   14.6561   24.0548 C   0  0  0  0  0  0  0  0  0  0  0  0
   -5.1115   15.9052   23.3862 C   0  0  0  0  0  0  0  0  0  0  0  0
   -5.3981   15.5048   21.9478 C   0  0  0  0  0  0  0  0  0  0  0  0
   -5.4684   13.9842   21.9972 C   0  0  0  0  0  0  0  0  0  0  0  0
   -2.2804   12.5795   23.1233 C   0  0  0  0  0  0  0  0  0  0  0  0
   -2.7740   11.7430   24.1110 N   0  0  0  0  0  0  0  0  0  0  0  0
   -1.7161   11.0758   24.5416 C   0  0  0  0  0  0  0  0  0  0  0  0
   -0.5608   11.4038   23.8767 O   0  0  0  0  0  0  0  0  0  0  0  0
   -0.9269   12.3590   22.9764 C   0  0  0  0  0  0  0  0  0  0  0  0
    0.1631   13.0972   21.8781 Cl  0  0  0  0  0  0  0  0  0  0  0  0
   -1.7837   10.1054   25.5986 C   0  0  0  0  0  0  0  0  0  0  0  0
   -2.7119   10.0568   26.6258 C   0  0  0  0  0  0  0  0  0  0  0  0
   -2.4891    8.9590   27.5110 C   0  0  0  0  0  0  0  0  0  0  0  0
   -1.4047    8.2218   27.1123 C   0  0  0  0  0  0  0  0  0  0  0  0
   -0.7853    6.8167   27.8794 Cl  0  0  0  0  0  0  0  0  0  0  0  0
   -0.6551    8.8189   25.7188 S   0  0  0  0  0  0  0  0  0  0  0  0
   -4.7163    9.5633   20.6155 C   0  0  0  0  0  0  0  0  0  0  0  0
   -4.9404    9.0364   19.1927 C   0  0  0  0  0  0  0  0  0  0  0  0
   -5.0682    7.5132   19.1563 C   0  0  0  0  0  0  0  0  0  0  0  0
   -7.5276    7.6768   18.8834 C   0  0  0  0  0  0  0  0  0  0  0  0
   -6.2658    7.0103   18.3197 N   0  0  0  0  0  0  0  0  0  0  0  0
   -6.4400    5.5004   18.4320 C   0  0  0  0  0  0  0  0  0  0  0  0
   -6.1315    7.4045   16.8542 C   0  0  0  0  0  0  0  0  0  0  0  0
 29 30  1  0
 30 31  1  0
 30 32  1  0
 30 28  1  0
 28 27  1  0
 27 26  1  0
 26  1  1  0
  1  2  1  0
  2  3  2  0
  4  2  1  0
  4  5  1  0
  5  6  1  0
  6  7  2  0
  5  8  1  0
  8 14  1  0
 14 15  1  0
 15 16  2  0
 16 20  1  0
 20 21  2  0
 21 22  1  0
 22 23  2  0
 23 24  1  0
 23 25  1  0
 16 17  1  0
 17 18  1  0
 18 19  1  0
  8  9  1  0
  9 10  1  0
 10 11  1  0
 11 12  1  0
 13 12  1  0
  6  1  1  0
 18 14  2  0
 13  9  1  0
 13  4  1  0
 25 20  1  0
M  CHG 1  30   1
M  END
> <minimizedAffinity>
-8.59640

> <CNNscore>
0.8930661678

> <CNNaffinity>
7.9124884605

> <CNN_VS>
7.0663757324

> <CNNaffinity_variance>
0.1208771095

$$$$



 32 36  0  0  0  0  0  0  0  0999 V2000
   -5.2678   11.0007   20.2059 N   0  0  0  0  0  0  0  0  0  0  0  0
   -4.5064    9.8721   20.2470 C   0  0  0  0  0  0  0  0  0  0  0  0
   -3.6561    9.6254   21.0915 O   0  0  0  0  0  0  0  0  0  0  0  0
   -4.7755    9.0422   19.0186 C   0  0  0  0  0  0  0  0  0  0  0  0
   -5.8425    9.8364   18.2618 C   0  0  0  0  0  0  0  0  0  0  0  0
   -5.8901   11.1438   19.0018 C   0  0  0  0  0  0  0  0  0  0  0  0
   -6.3530   12.1827   18.5542 O   0  0  0  0  0  0  0  0  0  0  0  0
   -7.1216    8.9960   18.3387 C   0  0  0  0  0  0  0  0  0  0  0  0
   -6.8552    7.9881   19.3903 N   0  0  0  0  0  0  0  0  0  0  0  0
   -7.5212    6.7016   19.1483 C   0  0  0  0  0  0  0  0  0  0  0  0
   -6.5100    5.8049   18.4405 C   0  0  0  0  0  0  0  0  0  0  0  0
   -5.2403    6.6331   18.3240 C   0  0  0  0  0  0  0  0  0  0  0  0
   -5.4114    7.7176   19.3794 C   0  0  0  0  0  0  0  0  0  0  0  0
   -8.3631    9.7623   18.6640 C   0  0  0  0  0  0  0  0  0  0  0  0
   -9.1929   10.2614   17.6734 N   0  0  0  0  0  0  0  0  0  0  0  0
  -10.1752   10.8560   18.3302 C   0  0  0  0  0  0  0  0  0  0  0  0
  -10.0553   10.7536   19.6938 O   0  0  0  0  0  0  0  0  0  0  0  0
   -8.9023   10.0567   19.8988 C   0  0  0  0  0  0  0  0  0  0  0  0
   -8.3037    9.6457   21.4518 Cl  0  0  0  0  0  0  0  0  0  0  0  0
  -11.2551   11.5353   17.6701 C   0  0  0  0  0  0  0  0  0  0  0  0
  -11.1639   12.3688   16.5673 C   0  0  0  0  0  0  0  0  0  0  0  0
  -12.4337   12.8829   16.1655 C   0  0  0  0  0  0  0  0  0  0  0  0
  -13.4313   12.4122   16.9789 C   0  0  0  0  0  0  0  0  0  0  0  0
  -15.1059   12.7684   16.8545 Cl  0  0  0  0  0  0  0  0  0  0  0  0
  -12.8788   11.3848   18.2033 S   0  0  0  0  0  0  0  0  0  0  0  0
   -5.2632   12.0277   21.2289 C   0  0  0  0  0  0  0  0  0  0  0  0
   -4.4025   13.2494   20.8844 C   0  0  0  0  0  0  0  0  0  0  0  0
   -2.9076   12.9310   20.9271 C   0  0  0  0  0  0  0  0  0  0  0  0
   -3.1461   14.0892   23.1069 C   0  0  0  0  0  0  0  0  0  0  0  0
   -2.1369   13.7129   22.0141 N   0  0  0  0  0  0  0  0  0  0  0  0
   -1.5348   15.0007   21.4648 C   0  0  0  0  0  0  0  0  0  0  0  0
   -1.0422   12.8630   22.6470 C   0  0  0  0  0  0  0  0  0  0  0  0
 29 30  1  0
 30 31  1  0
 30 32  1  0
 30 28  1  0
 28 27  1  0
 27 26  1  0
 26  1  1  0
  1  2  1  0
  2  3  2  0
  4  2  1  0
  4  5  1  0
  5  6  1  0
  6  7  2  0
  5  8  1  0
  8 14  1  0
 14 15  1  0
 15 16  2  0
 16 20  1  0
 20 21  2  0
 21 22  1  0
 22 23  2  0
 23 24  1  0
 23 25  1  0
 16 17  1  0
 17 18  1  0
 18 19  1  0
  8  9  1  0
  9 10  1  0
 10 11  1  0
 11 12  1  0
 13 12  1  0
  6  1  1  0
 18 14  2  0
 13  9  1  0
 13  4  1  0
 25 20  1  0
M  CHG 1  30   1
M  END
> <minimizedAffinity>
-5.92254

> <CNNscore>
0.7897992730

> <CNNaffinity>
7.2790317535

> <CNN_VS>
5.7489738464

> <CNNaffinity_variance>
0.4794894755

$$$$



 32 36  0  0  0  0  0  0  0  0999 V2000
   -5.5133   10.9203   21.0713 N   0  0  0  0  0  0  0  0  0  0  0  0
   -6.7341   11.4766   21.3067 C   0  0  0  0  0  0  0  0  0  0  0  0
   -7.8048   10.8913   21.2173 O   0  0  0  0  0  0  0  0  0  0  0  0
   -6.5708   12.9532   21.5580 C   0  0  0  0  0  0  0  0  0  0  0  0
   -5.0596   13.1785   21.4720 C   0  0  0  0  0  0  0  0  0  0  0  0
   -4.5447   11.8702   20.9401 C   0  0  0  0  0  0  0  0  0  0  0  0
   -3.4544   11.7126   20.4107 O   0  0  0  0  0  0  0  0  0  0  0  0
   -4.6079   13.5280   22.8940 C   0  0  0  0  0  0  0  0  0  0  0  0
   -5.7464   13.1492   23.7617 N   0  0  0  0  0  0  0  0  0  0  0  0
   -5.8922   14.0101   24.9427 C   0  0  0  0  0  0  0  0  0  0  0  0
   -6.9048   15.0922   24.5805 C   0  0  0  0  0  0  0  0  0  0  0  0
   -7.3425   14.7828   23.1578 C   0  0  0  0  0  0  0  0  0  0  0  0
   -6.9725   13.3174   22.9705 C   0  0  0  0  0  0  0  0  0  0  0  0
   -3.3627   12.8377   23.3496 C   0  0  0  0  0  0  0  0  0  0  0  0
   -3.4045   11.7380   24.1909 N   0  0  0  0  0  0  0  0  0  0  0  0
   -2.1369   11.3996   24.3597 C   0  0  0  0  0  0  0  0  0  0  0  0
   -1.2655   12.1943   23.6572 O   0  0  0  0  0  0  0  0  0  0  0  0
   -2.0512   13.1052   23.0170 C   0  0  0  0  0  0  0  0  0  0  0  0
   -1.4389   14.3290   21.9842 Cl  0  0  0  0  0  0  0  0  0  0  0  0
   -1.7268   10.3056   25.1955 C   0  0  0  0  0  0  0  0  0  0  0  0
   -0.6335    9.4765   25.0044 C   0  0  0  0  0  0  0  0  0  0  0  0
   -0.5158    8.4850   26.0247 C   0  0  0  0  0  0  0  0  0  0  0  0
   -1.5225    8.6099   26.9463 C   0  0  0  0  0  0  0  0  0  0  0  0
   -1.7619    7.6340   28.3380 Cl  0  0  0  0  0  0  0  0  0  0  0  0
   -2.5955    9.8730   26.6102 S   0  0  0  0  0  0  0  0  0  0  0  0
   -5.2955    9.5147   20.7918 C   0  0  0  0  0  0  0  0  0  0  0  0
   -5.4394    9.1421   19.3111 C   0  0  0  0  0  0  0  0  0  0  0  0
   -5.2882    7.6384   19.0785 C   0  0  0  0  0  0  0  0  0  0  0  0
   -5.8138    6.8864   16.7745 C   0  0  0  0  0  0  0  0  0  0  0  0
   -6.3954    7.0335   18.1868 N   0  0  0  0  0  0  0  0  0  0  0  0
   -7.6142    7.9445   18.1021 C   0  0  0  0  0  0  0  0  0  0  0  0
   -6.8182    5.6537   18.6754 C   0  0  0  0  0  0  0  0  0  0  0  0
 29 30  1  0
 30 31  1  0
 30 32  1  0
 30 28  1  0
 28 27  1  0
 27 26  1  0
 26  1  1  0
  1  2  1  0
  2  3  2  0
  4  2  1  0
  4  5  1  0
  5  6  1  0
  6  7  2  0
  5  8  1  0
  8 14  1  0
 14 15  1  0
 15 16  2  0
 16 20  1  0
 20 21  2  0
 21 22  1  0
 22 23  2  0
 23 24  1  0
 23 25  1  0
 16 17  1  0
 17 18  1  0
 18 19  1  0
  8  9  1  0
  9 10  1  0
 10 11  1  0
 11 12  1  0
 13 12  1  0
  6  1  1  0
 18 14  2  0
 13  9  1  0
 13  4  1  0
 25 20  1  0
M  CHG 1  30   1
M  END
> <minimizedAffinity>
-7.97635

> <CNNscore>
0.7499035597

> <CNNaffinity>
7.3957123756

> <CNN_VS>
5.5460710526

> <CNNaffinity_variance>
0.0301548187

$$$$



 32 36  0  0  0  0  0  0  0  0999 V2000
   -5.7947   10.5596   19.3136 N   0  0  0  0  0  0  0  0  0  0  0  0
   -5.2636    9.4473   19.8932 C   0  0  0  0  0  0  0  0  0  0  0  0
   -4.9569    9.3452   21.0733 O   0  0  0  0  0  0  0  0  0  0  0  0
   -4.9854    8.4145   18.8320 C   0  0  0  0  0  0  0  0  0  0  0  0
   -5.4691    9.0736   17.5383 C   0  0  0  0  0  0  0  0  0  0  0  0
   -5.7394   10.4928   17.9534 C   0  0  0  0  0  0  0  0  0  0  0  0
   -5.8231   11.4405   17.1861 O   0  0  0  0  0  0  0  0  0  0  0  0
   -6.7016    8.2761   17.0988 C   0  0  0  0  0  0  0  0  0  0  0  0
   -7.0779    7.4693   18.2820 N   0  0  0  0  0  0  0  0  0  0  0  0
   -7.6670    6.1685   17.9385 C   0  0  0  0  0  0  0  0  0  0  0  0
   -6.5337    5.1475   17.9650 C   0  0  0  0  0  0  0  0  0  0  0  0
   -5.2914    5.9259   18.3678 C   0  0  0  0  0  0  0  0  0  0  0  0
   -5.8436    7.1836   19.0255 C   0  0  0  0  0  0  0  0  0  0  0  0
   -7.8632    9.1033   16.6503 C   0  0  0  0  0  0  0  0  0  0  0  0
   -8.8922    9.4441   17.5129 N   0  0  0  0  0  0  0  0  0  0  0  0
   -9.7139   10.1755   16.7782 C   0  0  0  0  0  0  0  0  0  0  0  0
   -9.2726   10.3591   15.4914 O   0  0  0  0  0  0  0  0  0  0  0  0
   -8.0958    9.6760   15.4175 C   0  0  0  0  0  0  0  0  0  0  0  0
   -7.1265    9.6030   14.0052 Cl  0  0  0  0  0  0  0  0  0  0  0  0
  -10.9412   10.7196   17.2891 C   0  0  0  0  0  0  0  0  0  0  0  0
  -11.1241   11.3680   18.4996 C   0  0  0  0  0  0  0  0  0  0  0  0
  -12.4759   11.7821   18.6980 C   0  0  0  0  0  0  0  0  0  0  0  0
  -13.2563   11.4331   17.6268 C   0  0  0  0  0  0  0  0  0  0  0  0
  -14.9349   11.7402   17.4412 Cl  0  0  0  0  0  0  0  0  0  0  0  0
  -12.4098   10.6226   16.4076 S   0  0  0  0  0  0  0  0  0  0  0  0
   -6.1841   11.7528   20.0388 C   0  0  0  0  0  0  0  0  0  0  0  0
   -5.7200   11.7754   21.5004 C   0  0  0  0  0  0  0  0  0  0  0  0
   -4.6911   12.8761   21.7607 C   0  0  0  0  0  0  0  0  0  0  0  0
   -5.9662   13.0598   23.8797 C   0  0  0  0  0  0  0  0  0  0  0  0
   -5.0933   13.8468   22.8933 N   0  0  0  0  0  0  0  0  0  0  0  0
   -5.9141   15.0189   22.3689 C   0  0  0  0  0  0  0  0  0  0  0  0
   -3.8748   14.3682   23.6447 C   0  0  0  0  0  0  0  0  0  0  0  0
 29 30  1  0
 30 31  1  0
 30 32  1  0
 30 28  1  0
 28 27  1  0
 27 26  1  0
 26  1  1  0
  1  2  1  0
  2  3  2  0
  4  2  1  0
  4  5  1  0
  5  6  1  0
  6  7  2  0
  5  8  1  0
  8 14  1  0
 14 15  1  0
 15 16  2  0
 16 20  1  0
 20 21  2  0
 21 22  1  0
 22 23  2  0
 23 24  1  0
 23 25  1  0
 16 17  1  0
 17 18  1  0
 18 19  1  0
  8  9  1  0
  9 10  1  0
 10 11  1  0
 11 12  1  0
 13 12  1  0
  6  1  1  0
 18 14  2  0
 13  9  1  0
 13  4  1  0
 25 20  1  0
M  CHG 1  30   1
M  END
> <minimizedAffinity>
-6.02708

> <CNNscore>
0.6154546142

> <CNNaffinity>
7.0021042824

> <CNN_VS>
4.3094773293

> <CNNaffinity_variance>
0.3396641314

$$$$



 32 36  0  0  0  0  0  0  0  0999 V2000
   -5.6518   10.1027   19.5457 N   0  0  0  0  0  0  0  0  0  0  0  0
   -5.8030    8.8980   20.1632 C   0  0  0  0  0  0  0  0  0  0  0  0
   -6.0843    8.7410   21.3435 O   0  0  0  0  0  0  0  0  0  0  0  0
   -5.4360    7.7951   19.2045 C   0  0  0  0  0  0  0  0  0  0  0  0
   -5.0798    8.5318   17.9113 C   0  0  0  0  0  0  0  0  0  0  0  0
   -5.0400    9.9736   18.3346 C   0  0  0  0  0  0  0  0  0  0  0  0
   -4.4816   10.8675   17.7158 O   0  0  0  0  0  0  0  0  0  0  0  0
   -6.1840    8.1758   16.9102 C   0  0  0  0  0  0  0  0  0  0  0  0
   -7.2663    7.5825   17.7283 N   0  0  0  0  0  0  0  0  0  0  0  0
   -8.0263    6.5412   17.0246 C   0  0  0  0  0  0  0  0  0  0  0  0
   -7.4012    5.2024   17.4049 C   0  0  0  0  0  0  0  0  0  0  0  0
   -6.2789    5.5360   18.3748 C   0  0  0  0  0  0  0  0  0  0  0  0
   -6.6330    6.9281   18.8809 C   0  0  0  0  0  0  0  0  0  0  0  0
   -6.7123    9.3265   16.1157 C   0  0  0  0  0  0  0  0  0  0  0  0
   -6.0538    9.8014   14.9932 N   0  0  0  0  0  0  0  0  0  0  0  0
   -6.8117   10.7943   14.5578 C   0  0  0  0  0  0  0  0  0  0  0  0
   -7.9438   10.9825   15.3110 O   0  0  0  0  0  0  0  0  0  0  0  0
   -7.8746   10.0460   16.2984 C   0  0  0  0  0  0  0  0  0  0  0  0
   -9.0723    9.8520   17.5097 Cl  0  0  0  0  0  0  0  0  0  0  0  0
   -6.4737   11.5868   13.4084 C   0  0  0  0  0  0  0  0  0  0  0  0
   -6.7573   12.9282   13.2097 C   0  0  0  0  0  0  0  0  0  0  0  0
   -6.2799   13.4062   11.9520 C   0  0  0  0  0  0  0  0  0  0  0  0
   -5.6515   12.4068   11.2557 C   0  0  0  0  0  0  0  0  0  0  0  0
   -4.9252   12.5405    9.7061 Cl  0  0  0  0  0  0  0  0  0  0  0  0
   -5.6308   10.9243   12.0691 S   0  0  0  0  0  0  0  0  0  0  0  0
   -5.9176   11.3821   20.1732 C   0  0  0  0  0  0  0  0  0  0  0  0
   -7.4070   11.7361   20.2648 C   0  0  0  0  0  0  0  0  0  0  0  0
   -7.6443   13.0300   21.0443 C   0  0  0  0  0  0  0  0  0  0  0  0
   -8.6894   11.3522   22.5419 C   0  0  0  0  0  0  0  0  0  0  0  0
   -8.1986   12.8040   22.4686 N   0  0  0  0  0  0  0  0  0  0  0  0
   -9.3817   13.7172   22.7667 C   0  0  0  0  0  0  0  0  0  0  0  0
   -7.1204   12.9977   23.5276 C   0  0  0  0  0  0  0  0  0  0  0  0
 29 30  1  0
 30 31  1  0
 30 32  1  0
 30 28  1  0
 28 27  1  0
 27 26  1  0
 26  1  1  0
  1  2  1  0
  2  3  2  0
  4  2  1  0
  4  5  1  0
  5  6  1  0
  6  7  2  0
  5  8  1  0
  8 14  1  0
 14 15  1  0
 15 16  2  0
 16 20  1  0
 20 21  2  0
 21 22  1  0
 22 23  2  0
 23 24  1  0
 23 25  1  0
 16 17  1  0
 17 18  1  0
 18 19  1  0
  8  9  1  0
  9 10  1  0
 10 11  1  0
 11 12  1  0
 13 12  1  0
  6  1  1  0
 18 14  2  0
 13  9  1  0
 13  4  1  0
 25 20  1  0
M  CHG 1  30   1
M  END
> <minimizedAffinity>
-6.31514

> <CNNscore>
0.5889994502

> <CNNaffinity>
6.7743792534

> <CNN_VS>
3.9901056290

> <CNNaffinity_variance>
0.0982900336

$$$$



 32 36  0  0  0  0  0  0  0  0999 V2000
   -5.6961   10.6183   19.6196 N   0  0  0  0  0  0  0  0  0  0  0  0
   -5.2299    9.4501   20.1426 C   0  0  0  0  0  0  0  0  0  0  0  0
   -4.9745    9.2586   21.3237 O   0  0  0  0  0  0  0  0  0  0  0  0
   -4.9480    8.4793   19.0254 C   0  0  0  0  0  0  0  0  0  0  0  0
   -5.3551    9.2406   17.7618 C   0  0  0  0  0  0  0  0  0  0  0  0
   -5.5892   10.6390   18.2610 C   0  0  0  0  0  0  0  0  0  0  0  0
   -5.6073   11.6377   17.5566 O   0  0  0  0  0  0  0  0  0  0  0  0
   -6.5977    8.5230   17.2240 C   0  0  0  0  0  0  0  0  0  0  0  0
   -7.0504    7.6556   18.3354 N   0  0  0  0  0  0  0  0  0  0  0  0
   -7.6729    6.4045   17.8834 C   0  0  0  0  0  0  0  0  0  0  0  0
   -6.5800    5.3400   17.8835 C   0  0  0  0  0  0  0  0  0  0  0  0
   -5.3269    6.0406   18.3837 C   0  0  0  0  0  0  0  0  0  0  0  0
   -5.8581    7.2731   19.1035 C   0  0  0  0  0  0  0  0  0  0  0  0
   -7.7092    9.4231   16.7892 C   0  0  0  0  0  0  0  0  0  0  0  0
   -8.7665    9.7343   17.6284 N   0  0  0  0  0  0  0  0  0  0  0  0
   -9.5282   10.5484   16.9164 C   0  0  0  0  0  0  0  0  0  0  0  0
   -9.0204   10.8132   15.6689 O   0  0  0  0  0  0  0  0  0  0  0  0
   -7.8642   10.0957   15.5952 C   0  0  0  0  0  0  0  0  0  0  0  0
   -6.8317   10.0953   14.2265 Cl  0  0  0  0  0  0  0  0  0  0  0  0
  -10.7602   11.0960   17.4122 C   0  0  0  0  0  0  0  0  0  0  0  0
  -12.0435   10.7174   17.0530 C   0  0  0  0  0  0  0  0  0  0  0  0
  -13.0457   11.4702   17.7364 C   0  0  0  0  0  0  0  0  0  0  0  0
  -12.4772   12.3824   18.5867 C   0  0  0  0  0  0  0  0  0  0  0  0
  -13.3073   13.4868   19.6055 Cl  0  0  0  0  0  0  0  0  0  0  0  0
  -10.7863   12.3575   18.5746 S   0  0  0  0  0  0  0  0  0  0  0  0
   -6.0698   11.7756   20.4084 C   0  0  0  0  0  0  0  0  0  0  0  0
   -5.0194   12.8930   20.4154 C   0  0  0  0  0  0  0  0  0  0  0  0
   -3.6794   12.4200   20.9798 C   0  0  0  0  0  0  0  0  0  0  0  0
   -1.9207   12.6526   22.7128 C   0  0  0  0  0  0  0  0  0  0  0  0
   -3.4049   12.9083   22.4197 N   0  0  0  0  0  0  0  0  0  0  0  0
   -4.2275   12.1372   23.4450 C   0  0  0  0  0  0  0  0  0  0  0  0
   -3.6703   14.4015   22.5660 C   0  0  0  0  0  0  0  0  0  0  0  0
 29 30  1  0
 30 31  1  0
 30 32  1  0
 30 28  1  0
 28 27  1  0
 27 26  1  0
 26  1  1  0
  1  2  1  0
  2  3  2  0
  4  2  1  0
  4  5  1  0
  5  6  1  0
  6  7  2  0
  5  8  1  0
  8 14  1  0
 14 15  1  0
 15 16  2  0
 16 20  1  0
 20 21  2  0
 21 22  1  0
 22 23  2  0
 23 24  1  0
 23 25  1  0
 16 17  1  0
 17 18  1  0
 18 19  1  0
  8  9  1  0
  9 10  1  0
 10 11  1  0
 11 12  1  0
 13 12  1  0
  6  1  1  0
 18 14  2  0
 13  9  1  0
 13  4  1  0
 25 20  1  0
M  CHG 1  30   1
M  END
> <minimizedAffinity>
-5.95280

> <CNNscore>
0.5422226191

> <CNNaffinity>
6.9779677391

> <CNN_VS>
3.7836120129

> <CNNaffinity_variance>
0.4503061473

$$$$



 32 36  0  0  0  0  0  0  0  0999 V2000
   -5.8781   10.6213   19.0114 N   0  0  0  0  0  0  0  0  0  0  0  0
   -5.4278    9.5434   19.7121 C   0  0  0  0  0  0  0  0  0  0  0  0
   -5.2374    9.5174   20.9204 O   0  0  0  0  0  0  0  0  0  0  0  0
   -5.0709    8.4372   18.7534 C   0  0  0  0  0  0  0  0  0  0  0  0
   -5.4151    9.0137   17.3782 C   0  0  0  0  0  0  0  0  0  0  0  0
   -5.6945   10.4615   17.6704 C   0  0  0  0  0  0  0  0  0  0  0  0
   -5.6850   11.3561   16.8375 O   0  0  0  0  0  0  0  0  0  0  0  0
   -6.6161    8.2058   16.8753 C   0  0  0  0  0  0  0  0  0  0  0  0
   -7.1203    7.4865   18.0674 N   0  0  0  0  0  0  0  0  0  0  0  0
   -7.7004    6.1738   17.7554 C   0  0  0  0  0  0  0  0  0  0  0  0
   -6.5961    5.1410   17.9589 C   0  0  0  0  0  0  0  0  0  0  0  0
   -5.3822    5.9274   18.4275 C   0  0  0  0  0  0  0  0  0  0  0  0
   -5.9688    7.2345   18.9441 C   0  0  0  0  0  0  0  0  0  0  0  0
   -7.7122    9.0169   16.2629 C   0  0  0  0  0  0  0  0  0  0  0  0
   -8.7507    9.5310   17.0220 N   0  0  0  0  0  0  0  0  0  0  0  0
   -9.5028   10.1887   16.1552 C   0  0  0  0  0  0  0  0  0  0  0  0
   -9.0059   10.1610   14.8758 O   0  0  0  0  0  0  0  0  0  0  0  0
   -7.8677    9.4156   14.9518 C   0  0  0  0  0  0  0  0  0  0  0  0
   -6.8540    9.0894   13.6082 Cl  0  0  0  0  0  0  0  0  0  0  0  0
  -10.7150   10.8627   16.5289 C   0  0  0  0  0  0  0  0  0  0  0  0
  -10.8237   12.0899   17.1626 C   0  0  0  0  0  0  0  0  0  0  0  0
  -12.1814   12.4680   17.3903 C   0  0  0  0  0  0  0  0  0  0  0  0
  -13.0413   11.5126   16.9146 C   0  0  0  0  0  0  0  0  0  0  0  0
  -14.7562   11.5603   16.9722 Cl  0  0  0  0  0  0  0  0  0  0  0  0
  -12.2599   10.1854   16.2161 S   0  0  0  0  0  0  0  0  0  0  0  0
   -6.3104   11.8663   19.6150 C   0  0  0  0  0  0  0  0  0  0  0  0
   -7.8296   11.9818   19.7901 C   0  0  0  0  0  0  0  0  0  0  0  0
   -8.2359   12.0495   21.2626 C   0  0  0  0  0  0  0  0  0  0  0  0
   -8.7294    9.6653   21.7343 C   0  0  0  0  0  0  0  0  0  0  0  0
   -9.3607   11.0608   21.6425 N   0  0  0  0  0  0  0  0  0  0  0  0
  -10.4549   11.0143   20.5827 C   0  0  0  0  0  0  0  0  0  0  0  0
   -9.9713   11.3988   22.9969 C   0  0  0  0  0  0  0  0  0  0  0  0
 29 30  1  0
 30 31  1  0
 30 32  1  0
 30 28  1  0
 28 27  1  0
 27 26  1  0
 26  1  1  0
  1  2  1  0
  2  3  2  0
  4  2  1  0
  4  5  1  0
  5  6  1  0
  6  7  2  0
  5  8  1  0
  8 14  1  0
 14 15  1  0
 15 16  2  0
 16 20  1  0
 20 21  2  0
 21 22  1  0
 22 23  2  0
 23 24  1  0
 23 25  1  0
 16 17  1  0
 17 18  1  0
 18 19  1  0
  8  9  1  0
  9 10  1  0
 10 11  1  0
 11 12  1  0
 13 12  1  0
  6  1  1  0
 18 14  2  0
 13  9  1  0
 13  4  1  0
 25 20  1  0
M  CHG 1  30   1
M  END
> <minimizedAffinity>
-5.86546

> <CNNscore>
0.5320625305

> <CNNaffinity>
6.7542719841

> <CNN_VS>
3.5936949253

> <CNNaffinity_variance>
0.1484111995

$$$$



 32 36  0  0  0  0  0  0  0  0999 V2000
   -8.2701   10.2741   17.0471 N   0  0  0  0  0  0  0  0  0  0  0  0
   -8.4666    9.0345   16.5177 C   0  0  0  0  0  0  0  0  0  0  0  0
   -8.7877    8.8052   15.3596 O   0  0  0  0  0  0  0  0  0  0  0  0
   -8.3625    8.0019   17.6100 C   0  0  0  0  0  0  0  0  0  0  0  0
   -8.0367    8.8192   18.8622 C   0  0  0  0  0  0  0  0  0  0  0  0
   -8.2326   10.2389   18.4091 C   0  0  0  0  0  0  0  0  0  0  0  0
   -8.4020   11.1925   19.1547 O   0  0  0  0  0  0  0  0  0  0  0  0
   -6.5991    8.4475   19.2411 C   0  0  0  0  0  0  0  0  0  0  0  0
   -6.0563    7.7537   18.0508 N   0  0  0  0  0  0  0  0  0  0  0  0
   -5.0826    6.7045   18.3800 C   0  0  0  0  0  0  0  0  0  0  0  0
   -5.8514    5.3879   18.4367 C   0  0  0  0  0  0  0  0  0  0  0  0
   -7.2906    5.7397   18.0953 C   0  0  0  0  0  0  0  0  0  0  0  0
   -7.1816    7.0831   17.3861 C   0  0  0  0  0  0  0  0  0  0  0  0
   -5.7229    9.6020   19.6069 C   0  0  0  0  0  0  0  0  0  0  0  0
   -5.4948    9.9551   20.9268 N   0  0  0  0  0  0  0  0  0  0  0  0
   -4.6771   10.9926   20.8574 C   0  0  0  0  0  0  0  0  0  0  0  0
   -4.3319   11.3255   19.5712 O   0  0  0  0  0  0  0  0  0  0  0  0
   -4.9991   10.4373   18.7820 C   0  0  0  0  0  0  0  0  0  0  0  0
   -4.8921   10.4193   17.0710 Cl  0  0  0  0  0  0  0  0  0  0  0  0
   -4.2031   11.6907   22.0199 C   0  0  0  0  0  0  0  0  0  0  0  0
   -2.9259   11.6456   22.5547 C   0  0  0  0  0  0  0  0  0  0  0  0
   -2.7931   12.4601   23.7196 C   0  0  0  0  0  0  0  0  0  0  0  0
   -3.9745   13.0899   24.0130 C   0  0  0  0  0  0  0  0  0  0  0  0
   -4.2635   14.1647   25.3199 Cl  0  0  0  0  0  0  0  0  0  0  0  0
   -5.2245   12.7211   22.9353 S   0  0  0  0  0  0  0  0  0  0  0  0
   -8.2999   11.5044   16.2810 C   0  0  0  0  0  0  0  0  0  0  0  0
   -9.7089   12.0658   16.0544 C   0  0  0  0  0  0  0  0  0  0  0  0
   -9.6790   13.4641   15.4366 C   0  0  0  0  0  0  0  0  0  0  0  0
   -9.2611   13.1734   13.0095 C   0  0  0  0  0  0  0  0  0  0  0  0
  -10.3365   13.5404   14.0406 N   0  0  0  0  0  0  0  0  0  0  0  0
  -10.8319   14.9466   13.7247 C   0  0  0  0  0  0  0  0  0  0  0  0
  -11.4852   12.5486   13.9063 C   0  0  0  0  0  0  0  0  0  0  0  0
 29 30  1  0
 30 31  1  0
 30 32  1  0
 30 28  1  0
 28 27  1  0
 27 26  1  0
 26  1  1  0
  1  2  1  0
  2  3  2  0
  4  2  1  0
  4  5  1  0
  5  6  1  0
  6  7  2  0
  5  8  1  0
  8 14  1  0
 14 15  1  0
 15 16  2  0
 16 20  1  0
 20 21  2  0
 21 22  1  0
 22 23  2  0
 23 24  1  0
 23 25  1  0
 16 17  1  0
 17 18  1  0
 18 19  1  0
  8  9  1  0
  9 10  1  0
 10 11  1  0
 11 12  1  0
 13 12  1  0
  6  1  1  0
 18 14  2  0
 13  9  1  0
 13  4  1  0
 25 20  1  0
M  CHG 1  30   1
M  END
> <minimizedAffinity>
-6.05611

> <CNNscore>
0.4749016762

> <CNNaffinity>
6.7221722603

> <CNN_VS>
3.1923708916

> <CNNaffinity_variance>
0.4472708404

$$$$
