


 38 41  0  0  0  0  0  0  0  0999 V2000
   20.2692  -28.4359   11.8519 C   0  0  0  0  0  0  0  0  0  0  0  0
   21.4844  -27.9204   11.6011 C   0  0  0  0  0  0  0  0  0  0  0  0
   19.1130  -31.7770   13.1292 C   0  0  0  0  0  0  0  0  0  0  0  0
   19.9638  -31.0035   12.1274 C   0  0  0  0  0  0  0  0  0  0  0  0
   21.2685  -31.5345   11.9397 O   0  0  0  0  0  0  0  0  0  0  0  0
   19.9528  -29.6030   12.7472 C   0  0  0  0  0  0  0  0  0  0  0  0
   18.6057  -29.4206   13.2278 O   0  0  0  0  0  0  0  0  0  0  0  0
   18.0434  -30.7288   13.4840 C   0  0  0  0  0  0  0  0  0  0  0  0
   21.7336  -31.5578   12.7906 H   0  0  0  0  0  0  0  0  0  0  0  0
   16.8072  -30.8730   12.7397 N   0  0  0  0  0  0  0  0  0  0  0  0
   16.6489  -31.2892   11.4466 C   0  0  0  0  0  0  0  0  0  0  0  0
   15.3882  -31.2670   11.0747 N   0  0  0  0  0  0  0  0  0  0  0  0
   14.7040  -30.7972   12.1688 C   0  0  0  0  0  0  0  0  0  0  0  0
   13.3593  -30.5411   12.4094 C   0  0  0  0  0  0  0  0  0  0  0  0
   12.9747  -30.0740   13.6254 N   0  0  0  0  0  0  0  0  0  0  0  0
   13.9303  -29.8740   14.5540 C   0  0  0  0  0  0  0  0  0  0  0  0
   15.2546  -30.0909   14.4431 N   0  0  0  0  0  0  0  0  0  0  0  0
   15.5680  -30.5462   13.2182 C   0  0  0  0  0  0  0  0  0  0  0  0
   21.0534  -31.3330   14.4487 C   0  0  0  0  0  0  0  0  0  0  0  0
   19.8536  -32.0796   14.3288 O   0  0  0  0  0  0  0  0  0  0  0  0
   21.7424  -26.7429   10.7166 C   0  0  0  0  0  0  0  0  0  0  0  0
   22.6149  -27.1838    9.6618 N   0  0  0  0  0  0  0  0  0  0  0  0
   22.1595  -27.8783    8.5718 C   0  0  0  0  0  0  0  0  0  0  0  0
   21.0045  -28.2696    8.4566 O   0  0  0  0  0  0  0  0  0  0  0  0
   23.5757  -26.9790    9.7253 H   0  0  0  0  0  0  0  0  0  0  0  0
   23.1255  -28.1243    7.4558 C   0  0  0  0  0  0  0  0  0  0  0  0
   23.1767  -29.4305    6.9246 C   0  0  0  0  0  0  0  0  0  0  0  0
   24.0051  -29.7220    5.8297 C   0  0  0  0  0  0  0  0  0  0  0  0
   24.7851  -28.7246    5.2346 C   0  0  0  0  0  0  0  0  0  0  0  0
   24.7417  -27.4424    5.7752 C   0  0  0  0  0  0  0  0  0  0  0  0
   25.4763  -26.4258    5.2356 O   0  0  0  0  0  0  0  0  0  0  0  0
   23.9318  -27.1393    6.8766 C   0  0  0  0  0  0  0  0  0  0  0  0
   23.9549  -25.8509    7.3374 O   0  0  0  0  0  0  0  0  0  0  0  0
   26.0305  -26.5885    4.4979 H   0  0  0  0  0  0  0  0  0  0  0  0
   24.5073  -25.2159    6.9256 H   0  0  0  0  0  0  0  0  0  0  0  0
   24.0497  -31.0930    5.2935 N   0  0  0  0  0  0  0  0  0  0  0  0
   23.1032  -31.4747    4.5872 O   0  0  0  0  0  0  0  0  0  0  0  0
   25.0307  -31.7890    5.5892 O   0  0  0  0  0  0  0  0  0  0  0  0
 19 20  1  0
  3 20  1  0
  3  4  1  0
  4  5  1  0
  4  6  1  0
  6  1  1  0
  1  2  2  0
  2 21  1  0
 21 22  1  0
 22 23  1  0
 23 24  2  0
 23 26  1  0
 26 27  2  0
 27 28  1  0
 28 36  1  0
 36 37  2  0
 36 38  1  0
 28 29  2  0
 29 30  1  0
 30 31  1  0
 30 32  2  0
 32 33  1  0
  6  7  1  0
  7  8  1  0
  8 10  1  0
 10 11  1  0
 11 12  2  0
 12 13  1  0
 13 14  2  0
 14 15  1  0
 15 16  2  0
 16 17  1  0
 17 18  2  0
  8  3  1  0
 18 10  1  0
 32 26  1  0
 18 13  1  0
  5  9  1  0
 22 25  1  0
 31 34  1  0
 33 35  1  0
M  CHG 1  36   1
M  CHG 1  38  -1
M  END
> <minimizedAffinity>
-9.98299

> <CNNscore>
0.9390751719

> <CNNaffinity>
7.1753306389

> <CNN_VS>
6.7381749153

> <CNNaffinity_variance>
0.1098496318

$$$$



 38 41  0  0  0  0  0  0  0  0999 V2000
   20.1726  -31.0939    9.8231 C   0  0  0  0  0  0  0  0  0  0  0  0
   20.6988  -30.2433    8.9259 C   0  0  0  0  0  0  0  0  0  0  0  0
   18.8728  -31.3240   13.3430 C   0  0  0  0  0  0  0  0  0  0  0  0
   19.6059  -32.0047   12.1919 C   0  0  0  0  0  0  0  0  0  0  0  0
   20.7733  -32.7140   12.5839 O   0  0  0  0  0  0  0  0  0  0  0  0
   19.8898  -30.8121   11.2738 C   0  0  0  0  0  0  0  0  0  0  0  0
   18.6936  -30.0090   11.3284 O   0  0  0  0  0  0  0  0  0  0  0  0
   18.0312  -30.2816   12.5855 C   0  0  0  0  0  0  0  0  0  0  0  0
   21.3862  -32.1075   13.0280 H   0  0  0  0  0  0  0  0  0  0  0  0
   16.6672  -30.7004   12.3272 N   0  0  0  0  0  0  0  0  0  0  0  0
   16.2016  -31.4471   11.2803 C   0  0  0  0  0  0  0  0  0  0  0  0
   14.8984  -31.6110   11.3355 N   0  0  0  0  0  0  0  0  0  0  0  0
   14.5018  -30.9236   12.4562 C   0  0  0  0  0  0  0  0  0  0  0  0
   13.2635  -30.7095   13.0499 C   0  0  0  0  0  0  0  0  0  0  0  0
   13.1860  -29.9720   14.1878 N   0  0  0  0  0  0  0  0  0  0  0  0
   14.3304  -29.4715   14.6929 C   0  0  0  0  0  0  0  0  0  0  0  0
   15.5816  -29.6156   14.2164 N   0  0  0  0  0  0  0  0  0  0  0  0
   15.5875  -30.3492   13.0903 C   0  0  0  0  0  0  0  0  0  0  0  0
   20.4318  -29.5285   13.5642 C   0  0  0  0  0  0  0  0  0  0  0  0
   19.7857  -30.6160   14.2056 O   0  0  0  0  0  0  0  0  0  0  0  0
   20.9409  -30.5682    7.4867 C   0  0  0  0  0  0  0  0  0  0  0  0
   22.1115  -29.8410    7.0756 N   0  0  0  0  0  0  0  0  0  0  0  0
   23.1228  -30.4204    6.3549 C   0  0  0  0  0  0  0  0  0  0  0  0
   23.1649  -31.6166    6.0947 O   0  0  0  0  0  0  0  0  0  0  0  0
   22.1893  -28.8908    7.3213 H   0  0  0  0  0  0  0  0  0  0  0  0
   24.1995  -29.5236    5.8300 C   0  0  0  0  0  0  0  0  0  0  0  0
   25.2458  -30.1306    5.1035 C   0  0  0  0  0  0  0  0  0  0  0  0
   26.2538  -29.3483    4.5187 C   0  0  0  0  0  0  0  0  0  0  0  0
   26.2361  -27.9539    4.6313 C   0  0  0  0  0  0  0  0  0  0  0  0
   25.2098  -27.3640    5.3640 C   0  0  0  0  0  0  0  0  0  0  0  0
   25.1355  -26.0080    5.5058 O   0  0  0  0  0  0  0  0  0  0  0  0
   24.2052  -28.1317    5.9660 C   0  0  0  0  0  0  0  0  0  0  0  0
   23.2378  -27.4627    6.6655 O   0  0  0  0  0  0  0  0  0  0  0  0
   25.7888  -25.4599    5.1176 H   0  0  0  0  0  0  0  0  0  0  0  0
   23.2722  -26.5291    6.7368 H   0  0  0  0  0  0  0  0  0  0  0  0
   27.3411  -30.0009    3.7696 N   0  0  0  0  0  0  0  0  0  0  0  0
   27.7715  -31.0858    4.1916 O   0  0  0  0  0  0  0  0  0  0  0  0
   27.7685  -29.4194    2.7629 O   0  0  0  0  0  0  0  0  0  0  0  0
 19 20  1  0
  3 20  1  0
  3  4  1  0
  4  5  1  0
  4  6  1  0
  6  1  1  0
  1  2  2  0
  2 21  1  0
 21 22  1  0
 22 23  1  0
 23 24  2  0
 23 26  1  0
 26 27  2  0
 27 28  1  0
 28 36  1  0
 36 37  2  0
 36 38  1  0
 28 29  2  0
 29 30  1  0
 30 31  1  0
 30 32  2  0
 32 33  1  0
  6  7  1  0
  7  8  1  0
  8 10  1  0
 10 11  1  0
 11 12  2  0
 12 13  1  0
 13 14  2  0
 14 15  1  0
 15 16  2  0
 16 17  1  0
 17 18  2  0
  8  3  1  0
 18 10  1  0
 32 26  1  0
 18 13  1  0
  5  9  1  0
 22 25  1  0
 31 34  1  0
 33 35  1  0
M  CHG 1  36   1
M  CHG 1  38  -1
M  END
> <minimizedAffinity>
-7.76788

> <CNNscore>
0.8930999637

> <CNNaffinity>
6.8656668663

> <CNN_VS>
6.1317267418

> <CNNaffinity_variance>
0.0324518308

$$$$



 38 41  0  0  0  0  0  0  0  0999 V2000
   19.9005  -30.6520   10.5970 C   0  0  0  0  0  0  0  0  0  0  0  0
   20.8338  -30.5743    9.6336 C   0  0  0  0  0  0  0  0  0  0  0  0
   21.2894  -31.7793   13.9034 C   0  0  0  0  0  0  0  0  0  0  0  0
   20.9993  -30.6219   12.9536 C   0  0  0  0  0  0  0  0  0  0  0  0
   20.4445  -29.4760   13.5851 O   0  0  0  0  0  0  0  0  0  0  0  0
   20.0539  -31.2902   11.9510 C   0  0  0  0  0  0  0  0  0  0  0  0
   20.6037  -32.6068   11.7436 O   0  0  0  0  0  0  0  0  0  0  0  0
   21.3699  -32.9596   12.9190 C   0  0  0  0  0  0  0  0  0  0  0  0
   19.6219  -29.7221   14.0364 H   0  0  0  0  0  0  0  0  0  0  0  0
   22.7213  -33.3061   12.5237 N   0  0  0  0  0  0  0  0  0  0  0  0
   23.2674  -33.2623   11.2705 C   0  0  0  0  0  0  0  0  0  0  0  0
   24.5130  -33.6824   11.2629 N   0  0  0  0  0  0  0  0  0  0  0  0
   24.7773  -34.0318   12.5644 C   0  0  0  0  0  0  0  0  0  0  0  0
   25.9013  -34.5465   13.1996 C   0  0  0  0  0  0  0  0  0  0  0  0
   25.8617  -34.7904   14.5351 N   0  0  0  0  0  0  0  0  0  0  0  0
   24.7156  -34.5217   15.1905 C   0  0  0  0  0  0  0  0  0  0  0  0
   23.5713  -34.0179   14.6905 N   0  0  0  0  0  0  0  0  0  0  0  0
   23.6755  -33.8046   13.3677 C   0  0  0  0  0  0  0  0  0  0  0  0
   19.7511  -33.3709   14.7999 C   0  0  0  0  0  0  0  0  0  0  0  0
   20.1831  -32.0201   14.7962 O   0  0  0  0  0  0  0  0  0  0  0  0
   20.6356  -29.9087    8.3096 C   0  0  0  0  0  0  0  0  0  0  0  0
   21.9398  -29.6120    7.7811 N   0  0  0  0  0  0  0  0  0  0  0  0
   22.4063  -30.1662    6.6179 C   0  0  0  0  0  0  0  0  0  0  0  0
   21.8029  -31.0306    5.9941 O   0  0  0  0  0  0  0  0  0  0  0  0
   22.5194  -28.9870    8.2737 H   0  0  0  0  0  0  0  0  0  0  0  0
   23.6994  -29.6455    6.0738 C   0  0  0  0  0  0  0  0  0  0  0  0
   24.6086  -30.5927    5.5573 C   0  0  0  0  0  0  0  0  0  0  0  0
   25.8110  -30.1763    4.9648 C   0  0  0  0  0  0  0  0  0  0  0  0
   26.1269  -28.8173    4.8616 C   0  0  0  0  0  0  0  0  0  0  0  0
   25.2324  -27.8899    5.3888 C   0  0  0  0  0  0  0  0  0  0  0  0
   25.4824  -26.5497    5.3143 O   0  0  0  0  0  0  0  0  0  0  0  0
   24.0359  -28.2903    5.9963 C   0  0  0  0  0  0  0  0  0  0  0  0
   23.2197  -27.3064    6.4848 O   0  0  0  0  0  0  0  0  0  0  0  0
   26.2723  -26.2419    4.9151 H   0  0  0  0  0  0  0  0  0  0  0  0
   23.4763  -26.4078    6.4162 H   0  0  0  0  0  0  0  0  0  0  0  0
   26.7502  -31.1806    4.4371 N   0  0  0  0  0  0  0  0  0  0  0  0
   27.9229  -30.8310    4.2299 O   0  0  0  0  0  0  0  0  0  0  0  0
   26.3078  -32.3174    4.2226 O   0  0  0  0  0  0  0  0  0  0  0  0
 19 20  1  0
  3 20  1  0
  3  4  1  0
  4  5  1  0
  4  6  1  0
  6  1  1  0
  1  2  2  0
  2 21  1  0
 21 22  1  0
 22 23  1  0
 23 24  2  0
 23 26  1  0
 26 27  2  0
 27 28  1  0
 28 36  1  0
 36 37  2  0
 36 38  1  0
 28 29  2  0
 29 30  1  0
 30 31  1  0
 30 32  2  0
 32 33  1  0
  6  7  1  0
  7  8  1  0
  8 10  1  0
 10 11  1  0
 11 12  2  0
 12 13  1  0
 13 14  2  0
 14 15  1  0
 15 16  2  0
 16 17  1  0
 17 18  2  0
  8  3  1  0
 18 10  1  0
 32 26  1  0
 18 13  1  0
  5  9  1  0
 22 25  1  0
 31 34  1  0
 33 35  1  0
M  CHG 1  36   1
M  CHG 1  38  -1
M  END
> <minimizedAffinity>
-7.88322

> <CNNscore>
0.6460825205

> <CNNaffinity>
6.4107108116

> <CNN_VS>
4.1418480873

> <CNNaffinity_variance>
0.0994031802

$$$$



 38 41  0  0  0  0  0  0  0  0999 V2000
   20.4023  -30.6198   10.8871 C   0  0  0  0  0  0  0  0  0  0  0  0
   19.7371  -31.2780   11.8513 C   0  0  0  0  0  0  0  0  0  0  0  0
   21.9769  -31.5543    7.6039 C   0  0  0  0  0  0  0  0  0  0  0  0
   21.9338  -31.7506    9.1157 C   0  0  0  0  0  0  0  0  0  0  0  0
   22.0047  -33.1086    9.5284 O   0  0  0  0  0  0  0  0  0  0  0  0
   20.6074  -31.0695    9.4660 C   0  0  0  0  0  0  0  0  0  0  0  0
   20.5639  -29.8926    8.6343 O   0  0  0  0  0  0  0  0  0  0  0  0
   21.3867  -30.1393    7.4701 C   0  0  0  0  0  0  0  0  0  0  0  0
   21.2744  -33.6065    9.1289 H   0  0  0  0  0  0  0  0  0  0  0  0
   22.3843  -29.0928    7.3582 N   0  0  0  0  0  0  0  0  0  0  0  0
   22.4094  -27.8841    7.9976 C   0  0  0  0  0  0  0  0  0  0  0  0
   23.4439  -27.1584    7.6352 N   0  0  0  0  0  0  0  0  0  0  0  0
   24.1056  -27.9234    6.7063 C   0  0  0  0  0  0  0  0  0  0  0  0
   25.2554  -27.7181    5.9530 C   0  0  0  0  0  0  0  0  0  0  0  0
   25.6775  -28.6867    5.0996 N   0  0  0  0  0  0  0  0  0  0  0  0
   24.9480  -29.8167    5.0193 C   0  0  0  0  0  0  0  0  0  0  0  0
   23.8290  -30.1330    5.6983 N   0  0  0  0  0  0  0  0  0  0  0  0
   23.4638  -29.1332    6.5188 C   0  0  0  0  0  0  0  0  0  0  0  0
   20.5278  -31.9304    5.7433 C   0  0  0  0  0  0  0  0  0  0  0  0
   21.0929  -32.4703    6.9268 O   0  0  0  0  0  0  0  0  0  0  0  0
   19.5444  -30.7753   13.2461 C   0  0  0  0  0  0  0  0  0  0  0  0
   18.1318  -30.5893   13.4419 N   0  0  0  0  0  0  0  0  0  0  0  0
   17.2166  -30.7979   12.4436 C   0  0  0  0  0  0  0  0  0  0  0  0
   17.5279  -31.0538   11.2868 O   0  0  0  0  0  0  0  0  0  0  0  0
   17.8102  -30.3012   14.3266 H   0  0  0  0  0  0  0  0  0  0  0  0
   15.7673  -30.7497   12.8131 C   0  0  0  0  0  0  0  0  0  0  0  0
   14.8729  -31.4875   12.0091 C   0  0  0  0  0  0  0  0  0  0  0  0
   13.5088  -31.5498   12.3339 C   0  0  0  0  0  0  0  0  0  0  0  0
   13.0101  -30.8950   13.4653 C   0  0  0  0  0  0  0  0  0  0  0  0
   13.8961  -30.1553   14.2438 C   0  0  0  0  0  0  0  0  0  0  0  0
   13.4707  -29.4983   15.3625 O   0  0  0  0  0  0  0  0  0  0  0  0
   15.2570  -30.0713   13.9244 C   0  0  0  0  0  0  0  0  0  0  0  0
   16.0504  -29.3210   14.7493 O   0  0  0  0  0  0  0  0  0  0  0  0
   12.5674  -29.5305   15.6097 H   0  0  0  0  0  0  0  0  0  0  0  0
   15.6753  -28.8793   15.4856 H   0  0  0  0  0  0  0  0  0  0  0  0
   12.5898  -32.3199   11.4786 N   0  0  0  0  0  0  0  0  0  0  0  0
   12.3064  -33.4787   11.8213 O   0  0  0  0  0  0  0  0  0  0  0  0
   12.1600  -31.7641   10.4585 O   0  0  0  0  0  0  0  0  0  0  0  0
 19 20  1  0
  3 20  1  0
  3  4  1  0
  4  5  1  0
  4  6  1  0
  6  1  1  0
  1  2  2  0
  2 21  1  0
 21 22  1  0
 22 23  1  0
 23 24  2  0
 23 26  1  0
 26 27  2  0
 27 28  1  0
 28 36  1  0
 36 37  2  0
 36 38  1  0
 28 29  2  0
 29 30  1  0
 30 31  1  0
 30 32  2  0
 32 33  1  0
  6  7  1  0
  7  8  1  0
  8 10  1  0
 10 11  1  0
 11 12  2  0
 12 13  1  0
 13 14  2  0
 14 15  1  0
 15 16  2  0
 16 17  1  0
 17 18  2  0
  8  3  1  0
 18 10  1  0
 32 26  1  0
 18 13  1  0
  5  9  1  0
 22 25  1  0
 31 34  1  0
 33 35  1  0
M  CHG 1  36   1
M  CHG 1  38  -1
M  END
> <minimizedAffinity>
-9.93129

> <CNNscore>
0.5922335386

> <CNNaffinity>
6.7507815361

> <CNN_VS>
3.9980392456

> <CNNaffinity_variance>
0.0396745466

$$$$



 38 41  0  0  0  0  0  0  0  0999 V2000
   21.1957  -31.9104   12.9949 C   0  0  0  0  0  0  0  0  0  0  0  0
   19.9547  -31.4382   12.7891 C   0  0  0  0  0  0  0  0  0  0  0  0
   23.1220  -35.1174   13.3647 C   0  0  0  0  0  0  0  0  0  0  0  0
   22.4051  -33.9575   14.0478 C   0  0  0  0  0  0  0  0  0  0  0  0
   21.5637  -34.3467   15.1248 O   0  0  0  0  0  0  0  0  0  0  0  0
   21.6486  -33.3397   12.8681 C   0  0  0  0  0  0  0  0  0  0  0  0
   22.5725  -33.3993   11.7628 O   0  0  0  0  0  0  0  0  0  0  0  0
   23.4993  -34.4813   12.0150 C   0  0  0  0  0  0  0  0  0  0  0  0
   20.9001  -34.9777   14.8049 H   0  0  0  0  0  0  0  0  0  0  0  0
   24.8560  -33.9719   11.9624 N   0  0  0  0  0  0  0  0  0  0  0  0
   25.3525  -32.8419   12.5515 C   0  0  0  0  0  0  0  0  0  0  0  0
   26.6226  -32.6575   12.2667 N   0  0  0  0  0  0  0  0  0  0  0  0
   26.9564  -33.7031   11.4415 C   0  0  0  0  0  0  0  0  0  0  0  0
   28.1346  -34.0682   10.8009 C   0  0  0  0  0  0  0  0  0  0  0  0
   28.1595  -35.1894   10.0348 N   0  0  0  0  0  0  0  0  0  0  0  0
   27.0221  -35.9037    9.9269 C   0  0  0  0  0  0  0  0  0  0  0  0
   25.8292  -35.6577   10.5013 N   0  0  0  0  0  0  0  0  0  0  0  0
   25.8713  -34.5353   11.2392 C   0  0  0  0  0  0  0  0  0  0  0  0
   20.8551  -35.8477   13.1876 C   0  0  0  0  0  0  0  0  0  0  0  0
   22.2227  -36.2137   13.1031 O   0  0  0  0  0  0  0  0  0  0  0  0
   19.5614  -30.0008   12.9088 C   0  0  0  0  0  0  0  0  0  0  0  0
   18.1401  -29.9635   13.1258 N   0  0  0  0  0  0  0  0  0  0  0  0
   17.2483  -30.5455   12.2634 C   0  0  0  0  0  0  0  0  0  0  0  0
   17.5742  -31.0478   11.1948 O   0  0  0  0  0  0  0  0  0  0  0  0
   17.7949  -29.5023   13.9241 H   0  0  0  0  0  0  0  0  0  0  0  0
   15.8136  -30.5998   12.6851 C   0  0  0  0  0  0  0  0  0  0  0  0
   14.9313  -31.3429   11.8726 C   0  0  0  0  0  0  0  0  0  0  0  0
   13.5859  -31.5001   12.2405 C   0  0  0  0  0  0  0  0  0  0  0  0
   13.0952  -30.9368   13.4235 C   0  0  0  0  0  0  0  0  0  0  0  0
   13.9679  -30.1909   14.2109 C   0  0  0  0  0  0  0  0  0  0  0  0
   13.5497  -29.6205   15.3788 O   0  0  0  0  0  0  0  0  0  0  0  0
   15.3091  -30.0125   13.8497 C   0  0  0  0  0  0  0  0  0  0  0  0
   16.0907  -29.2639   14.6873 O   0  0  0  0  0  0  0  0  0  0  0  0
   12.6595  -29.7173   15.6550 H   0  0  0  0  0  0  0  0  0  0  0  0
   15.7200  -28.8846   15.4597 H   0  0  0  0  0  0  0  0  0  0  0  0
   12.6790  -32.2740   11.3759 N   0  0  0  0  0  0  0  0  0  0  0  0
   12.4249  -33.4457   11.6969 O   0  0  0  0  0  0  0  0  0  0  0  0
   12.2291  -31.7079   10.3702 O   0  0  0  0  0  0  0  0  0  0  0  0
 19 20  1  0
  3 20  1  0
  3  4  1  0
  4  5  1  0
  4  6  1  0
  6  1  1  0
  1  2  2  0
  2 21  1  0
 21 22  1  0
 22 23  1  0
 23 24  2  0
 23 26  1  0
 26 27  2  0
 27 28  1  0
 28 36  1  0
 36 37  2  0
 36 38  1  0
 28 29  2  0
 29 30  1  0
 30 31  1  0
 30 32  2  0
 32 33  1  0
  6  7  1  0
  7  8  1  0
  8 10  1  0
 10 11  1  0
 11 12  2  0
 12 13  1  0
 13 14  2  0
 14 15  1  0
 15 16  2  0
 16 17  1  0
 17 18  2  0
  8  3  1  0
 18 10  1  0
 32 26  1  0
 18 13  1  0
  5  9  1  0
 22 25  1  0
 31 34  1  0
 33 35  1  0
M  CHG 1  36   1
M  CHG 1  38  -1
M  END
> <minimizedAffinity>
-9.27687

> <CNNscore>
0.5114419460

> <CNNaffinity>
6.6587677002

> <CNN_VS>
3.4055731297

> <CNNaffinity_variance>
0.2521805167

$$$$



 38 41  0  0  0  0  0  0  0  0999 V2000
   20.4168  -29.3605   11.1561 C   0  0  0  0  0  0  0  0  0  0  0  0
   20.5973  -29.7994    9.8991 C   0  0  0  0  0  0  0  0  0  0  0  0
   18.8209  -31.9991   13.3062 C   0  0  0  0  0  0  0  0  0  0  0  0
   19.7334  -31.6734   12.1285 C   0  0  0  0  0  0  0  0  0  0  0  0
   20.9310  -32.4375   12.0915 O   0  0  0  0  0  0  0  0  0  0  0  0
   19.9663  -30.1743   12.3388 C   0  0  0  0  0  0  0  0  0  0  0  0
   18.6868  -29.6547   12.7533 O   0  0  0  0  0  0  0  0  0  0  0  0
   17.9426  -30.7364   13.3609 C   0  0  0  0  0  0  0  0  0  0  0  0
   21.4257  -32.3033   12.9150 H   0  0  0  0  0  0  0  0  0  0  0  0
   16.6660  -30.8770   12.6876 N   0  0  0  0  0  0  0  0  0  0  0  0
   16.4325  -31.3094   11.4112 C   0  0  0  0  0  0  0  0  0  0  0  0
   15.1536  -31.2781   11.1086 N   0  0  0  0  0  0  0  0  0  0  0  0
   14.5355  -30.7853   12.2315 C   0  0  0  0  0  0  0  0  0  0  0  0
   13.2088  -30.5105   12.5416 C   0  0  0  0  0  0  0  0  0  0  0  0
   12.8965  -30.0221   13.7699 N   0  0  0  0  0  0  0  0  0  0  0  0
   13.9037  -29.8199   14.6418 C   0  0  0  0  0  0  0  0  0  0  0  0
   15.2176  -30.0534   14.4618 N   0  0  0  0  0  0  0  0  0  0  0  0
   15.4585  -30.5295   13.2283 C   0  0  0  0  0  0  0  0  0  0  0  0
   20.9252  -31.7194   14.4003 C   0  0  0  0  0  0  0  0  0  0  0  0
   19.5607  -32.0794   14.5412 O   0  0  0  0  0  0  0  0  0  0  0  0
   21.0677  -28.9508    8.7616 C   0  0  0  0  0  0  0  0  0  0  0  0
   21.4773  -29.8387    7.7070 N   0  0  0  0  0  0  0  0  0  0  0  0
   22.5228  -29.5529    6.8686 C   0  0  0  0  0  0  0  0  0  0  0  0
   23.1210  -28.4840    6.8778 O   0  0  0  0  0  0  0  0  0  0  0  0
   20.9880  -30.6839    7.5828 H   0  0  0  0  0  0  0  0  0  0  0  0
   22.9709  -30.6291    5.9304 C   0  0  0  0  0  0  0  0  0  0  0  0
   24.3507  -30.7010    5.6449 C   0  0  0  0  0  0  0  0  0  0  0  0
   24.8571  -31.7264    4.8310 C   0  0  0  0  0  0  0  0  0  0  0  0
   24.0098  -32.7039    4.2981 C   0  0  0  0  0  0  0  0  0  0  0  0
   22.6474  -32.6161    4.5706 C   0  0  0  0  0  0  0  0  0  0  0  0
   21.7709  -33.5425    4.0832 O   0  0  0  0  0  0  0  0  0  0  0  0
   22.1250  -31.5906    5.3684 C   0  0  0  0  0  0  0  0  0  0  0  0
   20.7731  -31.5873    5.5811 O   0  0  0  0  0  0  0  0  0  0  0  0
   22.0817  -34.2441    3.5455 H   0  0  0  0  0  0  0  0  0  0  0  0
   20.2355  -32.2469    5.1889 H   0  0  0  0  0  0  0  0  0  0  0  0
   26.2997  -31.7808    4.5393 N   0  0  0  0  0  0  0  0  0  0  0  0
   27.0905  -31.7434    5.4951 O   0  0  0  0  0  0  0  0  0  0  0  0
   26.6383  -31.8522    3.3499 O   0  0  0  0  0  0  0  0  0  0  0  0
 19 20  1  0
  3 20  1  0
  3  4  1  0
  4  5  1  0
  4  6  1  0
  6  1  1  0
  1  2  2  0
  2 21  1  0
 21 22  1  0
 22 23  1  0
 23 24  2  0
 23 26  1  0
 26 27  2  0
 27 28  1  0
 28 36  1  0
 36 37  2  0
 36 38  1  0
 28 29  2  0
 29 30  1  0
 30 31  1  0
 30 32  2  0
 32 33  1  0
  6  7  1  0
  7  8  1  0
  8 10  1  0
 10 11  1  0
 11 12  2  0
 12 13  1  0
 13 14  2  0
 14 15  1  0
 15 16  2  0
 16 17  1  0
 17 18  2  0
  8  3  1  0
 18 10  1  0
 32 26  1  0
 18 13  1  0
  5  9  1  0
 22 25  1  0
 31 34  1  0
 33 35  1  0
M  CHG 1  36   1
M  CHG 1  38  -1
M  END
> <minimizedAffinity>
-8.67120

> <CNNscore>
0.4417509437

> <CNNaffinity>
6.3770623207

> <CNN_VS>
2.8170733452

> <CNNaffinity_variance>
0.0234596897

$$$$



 38 41  0  0  0  0  0  0  0  0999 V2000
   19.9945  -30.6834   10.5512 C   0  0  0  0  0  0  0  0  0  0  0  0
   20.7144  -30.9169    9.4410 C   0  0  0  0  0  0  0  0  0  0  0  0
   21.6215  -31.6521   13.7988 C   0  0  0  0  0  0  0  0  0  0  0  0
   21.2733  -30.5434   12.8111 C   0  0  0  0  0  0  0  0  0  0  0  0
   20.7840  -29.3555   13.4185 O   0  0  0  0  0  0  0  0  0  0  0  0
   20.2444  -31.2492   11.9229 C   0  0  0  0  0  0  0  0  0  0  0  0
   20.7595  -32.5844   11.7476 O   0  0  0  0  0  0  0  0  0  0  0  0
   21.6101  -32.8856   12.8785 C   0  0  0  0  0  0  0  0  0  0  0  0
   19.9958  -29.5625   13.9447 H   0  0  0  0  0  0  0  0  0  0  0  0
   22.9222  -33.2763   12.4004 N   0  0  0  0  0  0  0  0  0  0  0  0
   24.1399  -32.9630   12.9384 C   0  0  0  0  0  0  0  0  0  0  0  0
   25.1313  -33.4523   12.2271 N   0  0  0  0  0  0  0  0  0  0  0  0
   24.5286  -34.0930   11.1725 C   0  0  0  0  0  0  0  0  0  0  0  0
   25.0237  -34.7946   10.0796 C   0  0  0  0  0  0  0  0  0  0  0  0
   24.1576  -35.3347    9.1837 N   0  0  0  0  0  0  0  0  0  0  0  0
   22.8390  -35.1586    9.3976 C   0  0  0  0  0  0  0  0  0  0  0  0
   22.2421  -34.5101   10.4157 N   0  0  0  0  0  0  0  0  0  0  0  0
   23.1525  -33.9971   11.2608 C   0  0  0  0  0  0  0  0  0  0  0  0
   20.3037  -33.1857   15.0696 C   0  0  0  0  0  0  0  0  0  0  0  0
   20.5849  -31.8248   14.7860 O   0  0  0  0  0  0  0  0  0  0  0  0
   20.4344  -30.3110    8.1032 C   0  0  0  0  0  0  0  0  0  0  0  0
   21.5943  -29.5475    7.7288 N   0  0  0  0  0  0  0  0  0  0  0  0
   22.5330  -30.0186    6.8486 C   0  0  0  0  0  0  0  0  0  0  0  0
   22.5196  -31.1560    6.3941 O   0  0  0  0  0  0  0  0  0  0  0  0
   21.7187  -28.6526    8.1198 H   0  0  0  0  0  0  0  0  0  0  0  0
   23.5964  -29.0674    6.3971 C   0  0  0  0  0  0  0  0  0  0  0  0
   24.6229  -29.5891    5.5817 C   0  0  0  0  0  0  0  0  0  0  0  0
   25.6159  -28.7454    5.0599 C   0  0  0  0  0  0  0  0  0  0  0  0
   25.6021  -27.3717    5.3248 C   0  0  0  0  0  0  0  0  0  0  0  0
   24.5957  -26.8676    6.1440 C   0  0  0  0  0  0  0  0  0  0  0  0
   24.5260  -25.5355    6.4351 O   0  0  0  0  0  0  0  0  0  0  0  0
   23.6066  -27.6988    6.6844 C   0  0  0  0  0  0  0  0  0  0  0  0
   22.6581  -27.1123    7.4777 O   0  0  0  0  0  0  0  0  0  0  0  0
   25.1694  -24.9468    6.0923 H   0  0  0  0  0  0  0  0  0  0  0  0
   22.6950  -26.1920    7.6497 H   0  0  0  0  0  0  0  0  0  0  0  0
   26.6829  -29.3098    4.2160 N   0  0  0  0  0  0  0  0  0  0  0  0
   26.8983  -30.5301    4.2856 O   0  0  0  0  0  0  0  0  0  0  0  0
   27.3100  -28.5262    3.4902 O   0  0  0  0  0  0  0  0  0  0  0  0
 19 20  1  0
  3 20  1  0
  3  4  1  0
  4  5  1  0
  4  6  1  0
  6  1  1  0
  1  2  2  0
  2 21  1  0
 21 22  1  0
 22 23  1  0
 23 24  2  0
 23 26  1  0
 26 27  2  0
 27 28  1  0
 28 36  1  0
 36 37  2  0
 36 38  1  0
 28 29  2  0
 29 30  1  0
 30 31  1  0
 30 32  2  0
 32 33  1  0
  6  7  1  0
  7  8  1  0
  8 10  1  0
 10 11  1  0
 11 12  2  0
 12 13  1  0
 13 14  2  0
 14 15  1  0
 15 16  2  0
 16 17  1  0
 17 18  2  0
  8  3  1  0
 18 10  1  0
 32 26  1  0
 18 13  1  0
  5  9  1  0
 22 25  1  0
 31 34  1  0
 33 35  1  0
M  CHG 1  36   1
M  CHG 1  38  -1
M  END
> <minimizedAffinity>
-8.04350

> <CNNscore>
0.3447084427

> <CNNaffinity>
6.2731652260

> <CNN_VS>
2.1624131203

> <CNNaffinity_variance>
0.0310336631

$$$$



 38 41  0  0  0  0  0  0  0  0999 V2000
   20.9039  -33.7864   13.4230 C   0  0  0  0  0  0  0  0  0  0  0  0
   19.7329  -33.1276   13.4268 C   0  0  0  0  0  0  0  0  0  0  0  0
   20.3252  -37.5004   13.4828 C   0  0  0  0  0  0  0  0  0  0  0  0
   20.2255  -36.1920   12.7056 C   0  0  0  0  0  0  0  0  0  0  0  0
   20.6458  -36.2862   11.3513 O   0  0  0  0  0  0  0  0  0  0  0  0
   21.1027  -35.2716   13.5594 C   0  0  0  0  0  0  0  0  0  0  0  0
   20.7904  -35.6216   14.9228 O   0  0  0  0  0  0  0  0  0  0  0  0
   20.3119  -36.9870   14.9336 C   0  0  0  0  0  0  0  0  0  0  0  0
   21.5635  -36.5986   11.3186 H   0  0  0  0  0  0  0  0  0  0  0  0
   19.0061  -37.0320   15.5627 N   0  0  0  0  0  0  0  0  0  0  0  0
   17.8222  -36.5505   15.0762 C   0  0  0  0  0  0  0  0  0  0  0  0
   16.8346  -36.7257   15.9260 N   0  0  0  0  0  0  0  0  0  0  0  0
   17.4092  -37.3290   17.0177 C   0  0  0  0  0  0  0  0  0  0  0  0
   16.9048  -37.7607   18.2387 C   0  0  0  0  0  0  0  0  0  0  0  0
   17.7393  -38.3418   19.1391 N   0  0  0  0  0  0  0  0  0  0  0  0
   19.0376  -38.4706   18.8025 C   0  0  0  0  0  0  0  0  0  0  0  0
   19.6389  -38.1013   17.6556 N   0  0  0  0  0  0  0  0  0  0  0  0
   18.7613  -37.5304   16.8129 C   0  0  0  0  0  0  0  0  0  0  0  0
   22.0112  -38.9533   14.3488 C   0  0  0  0  0  0  0  0  0  0  0  0
   21.5894  -38.1552   13.2549 O   0  0  0  0  0  0  0  0  0  0  0  0
   19.5893  -31.6480   13.2664 C   0  0  0  0  0  0  0  0  0  0  0  0
   18.2036  -31.3277   13.4794 N   0  0  0  0  0  0  0  0  0  0  0  0
   17.3382  -31.0797   12.4463 C   0  0  0  0  0  0  0  0  0  0  0  0
   17.6902  -31.0063   11.2753 O   0  0  0  0  0  0  0  0  0  0  0  0
   17.8638  -31.2849   14.4024 H   0  0  0  0  0  0  0  0  0  0  0  0
   15.8863  -30.9373   12.7795 C   0  0  0  0  0  0  0  0  0  0  0  0
   14.9686  -31.6458   11.9755 C   0  0  0  0  0  0  0  0  0  0  0  0
   13.5963  -31.6198   12.2692 C   0  0  0  0  0  0  0  0  0  0  0  0
   13.1115  -30.9044   13.3695 C   0  0  0  0  0  0  0  0  0  0  0  0
   14.0215  -30.1943   14.1478 C   0  0  0  0  0  0  0  0  0  0  0  0
   13.6103  -29.4813   15.2372 O   0  0  0  0  0  0  0  0  0  0  0  0
   15.3917  -30.1982   13.8589 C   0  0  0  0  0  0  0  0  0  0  0  0
   16.2090  -29.4708   14.6810 O   0  0  0  0  0  0  0  0  0  0  0  0
   12.7014  -29.4541   15.4635 H   0  0  0  0  0  0  0  0  0  0  0  0
   15.8439  -28.9868   15.3955 H   0  0  0  0  0  0  0  0  0  0  0  0
   12.6533  -32.3607   11.4142 N   0  0  0  0  0  0  0  0  0  0  0  0
   12.2258  -31.7990   10.3933 O   0  0  0  0  0  0  0  0  0  0  0  0
   12.3353  -33.5029   11.7728 O   0  0  0  0  0  0  0  0  0  0  0  0
 19 20  1  0
  3 20  1  0
  3  4  1  0
  4  5  1  0
  4  6  1  0
  6  1  1  0
  1  2  2  0
  2 21  1  0
 21 22  1  0
 22 23  1  0
 23 24  2  0
 23 26  1  0
 26 27  2  0
 27 28  1  0
 28 36  1  0
 36 37  2  0
 36 38  1  0
 28 29  2  0
 29 30  1  0
 30 31  1  0
 30 32  2  0
 32 33  1  0
  6  7  1  0
  7  8  1  0
  8 10  1  0
 10 11  1  0
 11 12  2  0
 12 13  1  0
 13 14  2  0
 14 15  1  0
 15 16  2  0
 16 17  1  0
 17 18  2  0
  8  3  1  0
 18 10  1  0
 32 26  1  0
 18 13  1  0
  5  9  1  0
 22 25  1  0
 31 34  1  0
 33 35  1  0
M  CHG 1  36   1
M  CHG 1  38  -1
M  END
> <minimizedAffinity>
-9.13502

> <CNNscore>
0.3414262533

> <CNNaffinity>
5.9174180031

> <CNN_VS>
2.0203619003

> <CNNaffinity_variance>
0.1198531687

$$$$



 38 41  0  0  0  0  0  0  0  0999 V2000
   21.4174  -31.8773   13.5830 C   0  0  0  0  0  0  0  0  0  0  0  0
   20.1988  -31.3328   13.7373 C   0  0  0  0  0  0  0  0  0  0  0  0
   23.0675  -35.0865   14.6368 C   0  0  0  0  0  0  0  0  0  0  0  0
   23.1170  -33.8371   13.7635 C   0  0  0  0  0  0  0  0  0  0  0  0
   24.3886  -33.2038   13.7254 O   0  0  0  0  0  0  0  0  0  0  0  0
   22.0223  -32.9811   14.4075 C   0  0  0  0  0  0  0  0  0  0  0  0
   20.9642  -33.9082   14.7234 O   0  0  0  0  0  0  0  0  0  0  0  0
   21.5538  -35.2200   14.8806 C   0  0  0  0  0  0  0  0  0  0  0  0
   24.6579  -32.9649   14.6262 H   0  0  0  0  0  0  0  0  0  0  0  0
   20.8931  -36.1522   13.9877 N   0  0  0  0  0  0  0  0  0  0  0  0
   21.0314  -36.2578   12.6311 C   0  0  0  0  0  0  0  0  0  0  0  0
   20.2525  -37.1903   12.1293 N   0  0  0  0  0  0  0  0  0  0  0  0
   19.5662  -37.6961   13.2059 C   0  0  0  0  0  0  0  0  0  0  0  0
   18.5998  -38.6865   13.3354 C   0  0  0  0  0  0  0  0  0  0  0  0
   18.0993  -38.9758   14.5644 N   0  0  0  0  0  0  0  0  0  0  0  0
   18.5675  -38.2753   15.6158 C   0  0  0  0  0  0  0  0  0  0  0  0
   19.5011  -37.3049   15.6179 N   0  0  0  0  0  0  0  0  0  0  0  0
   19.9502  -37.0648   14.3742 C   0  0  0  0  0  0  0  0  0  0  0  0
   25.0430  -35.3340   15.9557 C   0  0  0  0  0  0  0  0  0  0  0  0
   23.7050  -34.8659   15.9111 O   0  0  0  0  0  0  0  0  0  0  0  0
   19.6365  -30.2488   12.8747 C   0  0  0  0  0  0  0  0  0  0  0  0
   18.2240  -30.1835   13.1371 N   0  0  0  0  0  0  0  0  0  0  0  0
   17.2876  -30.6294   12.2415 C   0  0  0  0  0  0  0  0  0  0  0  0
   17.5654  -31.0179   11.1135 O   0  0  0  0  0  0  0  0  0  0  0  0
   17.9182  -29.8041   13.9925 H   0  0  0  0  0  0  0  0  0  0  0  0
   15.8631  -30.6780   12.6971 C   0  0  0  0  0  0  0  0  0  0  0  0
   14.9692  -31.4588   11.9342 C   0  0  0  0  0  0  0  0  0  0  0  0
   13.6337  -31.6116   12.3381 C   0  0  0  0  0  0  0  0  0  0  0  0
   13.1646  -31.0063   13.5091 C   0  0  0  0  0  0  0  0  0  0  0  0
   14.0484  -30.2238   14.2471 C   0  0  0  0  0  0  0  0  0  0  0  0
   13.6514  -29.6114   15.4011 O   0  0  0  0  0  0  0  0  0  0  0  0
   15.3797  -30.0495   13.8492 C   0  0  0  0  0  0  0  0  0  0  0  0
   16.1734  -29.2630   14.6393 O   0  0  0  0  0  0  0  0  0  0  0  0
   12.7685  -29.7041   15.7008 H   0  0  0  0  0  0  0  0  0  0  0  0
   15.8168  -28.8567   15.4046 H   0  0  0  0  0  0  0  0  0  0  0  0
   12.7143  -32.4254   11.5249 N   0  0  0  0  0  0  0  0  0  0  0  0
   12.3909  -33.5445   11.9531 O   0  0  0  0  0  0  0  0  0  0  0  0
   12.3242  -31.9442   10.4522 O   0  0  0  0  0  0  0  0  0  0  0  0
 19 20  1  0
  3 20  1  0
  3  4  1  0
  4  5  1  0
  4  6  1  0
  6  1  1  0
  1  2  2  0
  2 21  1  0
 21 22  1  0
 22 23  1  0
 23 24  2  0
 23 26  1  0
 26 27  2  0
 27 28  1  0
 28 36  1  0
 36 37  2  0
 36 38  1  0
 28 29  2  0
 29 30  1  0
 30 31  1  0
 30 32  2  0
 32 33  1  0
  6  7  1  0
  7  8  1  0
  8 10  1  0
 10 11  1  0
 11 12  2  0
 12 13  1  0
 13 14  2  0
 14 15  1  0
 15 16  2  0
 16 17  1  0
 17 18  2  0
  8  3  1  0
 18 10  1  0
 32 26  1  0
 18 13  1  0
  5  9  1  0
 22 25  1  0
 31 34  1  0
 33 35  1  0
M  CHG 1  36   1
M  CHG 1  38  -1
M  END
> <minimizedAffinity>
-9.08121

> <CNNscore>
0.3273353577

> <CNNaffinity>
6.4380049706

> <CNN_VS>
2.1073865891

> <CNNaffinity_variance>
0.0171516761

$$$$
