


 24 25  0  0  0  0  0  0  0  0999 V2000
   29.3024   18.7437   61.5470 C   0  0  0  0  0  0  0  0  0  0  0  0
   29.3372   19.5446   60.3111 N   0  0  0  0  0  0  0  0  0  0  0  0
   30.4817   20.2150   59.9271 C   0  0  0  0  0  0  0  0  0  0  0  0
   30.5376   20.9625   58.8248 C   0  0  0  0  0  0  0  0  0  0  0  0
   29.3646   21.0995   57.9690 C   0  0  0  0  0  0  0  0  0  0  0  0
   29.3720   21.7791   56.9511 O   0  0  0  0  0  0  0  0  0  0  0  0
   28.2633   20.4199   58.4117 N   0  0  0  0  0  0  0  0  0  0  0  0
   28.1615   19.6845   59.5698 C   0  0  0  0  0  0  0  0  0  0  0  0
   27.0744   19.2096   59.8916 O   0  0  0  0  0  0  0  0  0  0  0  0
   31.8482   21.6220   58.6193 C   0  0  0  0  0  0  0  0  0  0  0  0
   32.7267   20.8873   59.6364 C   0  0  0  0  0  0  0  0  0  0  0  0
   31.7763   20.2695   60.6724 C   0  0  0  0  0  0  0  0  0  0  0  0
   27.4607   20.4615   57.8431 H   0  0  0  0  0  0  0  0  0  0  0  0
   30.0788   17.3879   61.5039 C   0  0  0  0  0  0  0  0  0  0  0  0
   29.1893   16.2911   61.0708 N   0  0  0  0  0  0  0  0  0  0  0  0
   28.4559   16.1535   61.7661 H   0  0  0  0  0  0  0  0  0  0  0  0
   29.7311   15.4324   60.9734 H   0  0  0  0  0  0  0  0  0  0  0  0
   30.7753   16.9721   62.8251 C   0  0  0  0  0  0  0  0  0  0  0  0
   29.8725   16.3646   63.9580 C   0  0  0  0  0  0  0  0  0  0  0  0
   30.8182   15.9200   65.0945 C   0  0  0  0  0  0  0  0  0  0  0  0
   28.9506   17.4741   64.5045 C   0  0  0  0  0  0  0  0  0  0  0  0
   29.0580   15.1563   63.4232 C   0  0  0  0  0  0  0  0  0  0  0  0
   26.8214   13.8897   63.1636 C   0  0  0  0  0  0  0  0  0  0  0  0
   27.5231   15.2043   63.4532 C   0  0  0  0  0  0  0  0  0  0  0  0
 23 24  1  0
 24 22  1  0
 22 19  1  0
 19 20  1  0
 19 21  1  0
 19 18  1  0
 18 14  1  0
 14 15  1  0
 14  1  1  0
  1  2  1  0
  2  3  1  0
  3  4  2  0
  4  5  1  0
  5  6  2  0
  5  7  1  0
  7  8  1  0
  8  9  2  0
  4 10  1  0
 10 11  1  0
 11 12  1  0
  8  2  1  0
 12  3  1  0
 15 16  1  0
 15 17  1  0
  7 13  1  0
M  END
> <minimizedAffinity>
-6.30848

> <CNNscore>
0.1683650166

> <CNNaffinity>
4.1777310371

> <CNN_VS>
0.7033837438

> <CNNaffinity_variance>
0.7401161194

$$$$



 24 25  0  0  0  0  0  0  0  0999 V2000
   12.6093   11.5101   47.4947 C   0  0  0  0  0  0  0  0  0  0  0  0
   11.7747   11.2992   48.6902 N   0  0  0  0  0  0  0  0  0  0  0  0
   10.4317   11.6201   48.6888 C   0  0  0  0  0  0  0  0  0  0  0  0
    9.6560   11.4584   49.7607 C   0  0  0  0  0  0  0  0  0  0  0  0
   10.2137   10.9249   50.9982 C   0  0  0  0  0  0  0  0  0  0  0  0
    9.5378   10.7649   52.0060 O   0  0  0  0  0  0  0  0  0  0  0  0
   11.5497   10.6386   50.9352 N   0  0  0  0  0  0  0  0  0  0  0  0
   12.3846   10.8431   49.8613 C   0  0  0  0  0  0  0  0  0  0  0  0
   13.5894   10.6315   49.9824 O   0  0  0  0  0  0  0  0  0  0  0  0
    8.2567   11.8989   49.5541 C   0  0  0  0  0  0  0  0  0  0  0  0
    8.2086   12.0720   48.0329 C   0  0  0  0  0  0  0  0  0  0  0  0
    9.6618   12.2319   47.5630 C   0  0  0  0  0  0  0  0  0  0  0  0
   11.9555   10.2455   51.7415 H   0  0  0  0  0  0  0  0  0  0  0  0
   12.7115   12.9840   46.9849 C   0  0  0  0  0  0  0  0  0  0  0  0
   13.8866   13.1515   46.1059 N   0  0  0  0  0  0  0  0  0  0  0  0
   14.7390   12.9988   46.6450 H   0  0  0  0  0  0  0  0  0  0  0  0
   13.8920   14.0964   45.7218 H   0  0  0  0  0  0  0  0  0  0  0  0
   12.7548   14.0731   48.0874 C   0  0  0  0  0  0  0  0  0  0  0  0
   14.1605   14.6639   48.4649 C   0  0  0  0  0  0  0  0  0  0  0  0
   14.8594   13.6195   49.3616 C   0  0  0  0  0  0  0  0  0  0  0  0
   14.9919   14.8256   47.1756 C   0  0  0  0  0  0  0  0  0  0  0  0
   14.0057   16.0122   49.2182 C   0  0  0  0  0  0  0  0  0  0  0  0
   12.8065   17.9210   47.9564 C   0  0  0  0  0  0  0  0  0  0  0  0
   12.7302   16.8460   49.0253 C   0  0  0  0  0  0  0  0  0  0  0  0
 23 24  1  0
 24 22  1  0
 22 19  1  0
 19 20  1  0
 19 21  1  0
 19 18  1  0
 18 14  1  0
 14 15  1  0
 14  1  1  0
  1  2  1  0
  2  3  1  0
  3  4  2  0
  4  5  1  0
  5  6  2  0
  5  7  1  0
  7  8  1  0
  8  9  2  0
  4 10  1  0
 10 11  1  0
 11 12  1  0
  8  2  1  0
 12  3  1  0
 15 16  1  0
 15 17  1  0
  7 13  1  0
M  END
> <minimizedAffinity>
-5.46458

> <CNNscore>
0.1534118205

> <CNNaffinity>
3.8541450500

> <CNN_VS>
0.5912714005

> <CNNaffinity_variance>
0.8525612354

$$$$



 24 25  0  0  0  0  0  0  0  0999 V2000
   10.2743    8.0621   49.9938 C   0  0  0  0  0  0  0  0  0  0  0  0
   11.2203    9.1423   49.6643 N   0  0  0  0  0  0  0  0  0  0  0  0
   11.9209    9.1391   48.4745 C   0  0  0  0  0  0  0  0  0  0  0  0
   12.7972   10.0923   48.1573 C   0  0  0  0  0  0  0  0  0  0  0  0
   13.0500   11.1947   49.0781 C   0  0  0  0  0  0  0  0  0  0  0  0
   13.8491   12.0873   48.8277 O   0  0  0  0  0  0  0  0  0  0  0  0
   12.3326   11.1316   50.2409 N   0  0  0  0  0  0  0  0  0  0  0  0
   11.4619   10.1352   50.6168 C   0  0  0  0  0  0  0  0  0  0  0  0
   10.9623   10.1598   51.7396 O   0  0  0  0  0  0  0  0  0  0  0  0
   13.4635    9.8770   46.8517 C   0  0  0  0  0  0  0  0  0  0  0  0
   12.6008    8.7668   46.2438 C   0  0  0  0  0  0  0  0  0  0  0  0
   11.8704    8.0887   47.4121 C   0  0  0  0  0  0  0  0  0  0  0  0
   12.4517   11.8760   50.8741 H   0  0  0  0  0  0  0  0  0  0  0  0
   10.8916    6.7989   50.6765 C   0  0  0  0  0  0  0  0  0  0  0  0
    9.8676    6.0751   51.4571 N   0  0  0  0  0  0  0  0  0  0  0  0
    9.5492    6.6628   52.2276 H   0  0  0  0  0  0  0  0  0  0  0  0
   10.2692    5.2145   51.8293 H   0  0  0  0  0  0  0  0  0  0  0  0
   12.1187    7.0612   51.5870 C   0  0  0  0  0  0  0  0  0  0  0  0
   12.5309    5.9246   52.5897 C   0  0  0  0  0  0  0  0  0  0  0  0
   13.1076    6.6193   53.8421 C   0  0  0  0  0  0  0  0  0  0  0  0
   11.2640    5.1505   53.0084 C   0  0  0  0  0  0  0  0  0  0  0  0
   13.5896    4.9859   51.9515 C   0  0  0  0  0  0  0  0  0  0  0  0
   12.9819    3.5905   49.8641 C   0  0  0  0  0  0  0  0  0  0  0  0
   13.1514    3.6326   51.3720 C   0  0  0  0  0  0  0  0  0  0  0  0
 23 24  1  0
 24 22  1  0
 22 19  1  0
 19 20  1  0
 19 21  1  0
 19 18  1  0
 18 14  1  0
 14 15  1  0
 14  1  1  0
  1  2  1  0
  2  3  1  0
  3  4  2  0
  4  5  1  0
  5  6  2  0
  5  7  1  0
  7  8  1  0
  8  9  2  0
  4 10  1  0
 10 11  1  0
 11 12  1  0
  8  2  1  0
 12  3  1  0
 15 16  1  0
 15 17  1  0
  7 13  1  0
M  END
> <minimizedAffinity>
-5.72221

> <CNNscore>
0.1480480433

> <CNNaffinity>
4.3140845299

> <CNN_VS>
0.6386917830

> <CNNaffinity_variance>
0.4197291136

$$$$



 24 25  0  0  0  0  0  0  0  0999 V2000
   13.0117   10.9263   48.5999 C   0  0  0  0  0  0  0  0  0  0  0  0
   11.7554   10.8542   49.3659 N   0  0  0  0  0  0  0  0  0  0  0  0
   10.5975   11.4407   48.8949 C   0  0  0  0  0  0  0  0  0  0  0  0
    9.4512   11.4083   49.5744 C   0  0  0  0  0  0  0  0  0  0  0  0
    9.3813   10.7369   50.8671 C   0  0  0  0  0  0  0  0  0  0  0  0
    8.3505   10.6878   51.5251 O   0  0  0  0  0  0  0  0  0  0  0  0
   10.5640   10.1875   51.2798 N   0  0  0  0  0  0  0  0  0  0  0  0
   11.7723   10.2498   50.6253 C   0  0  0  0  0  0  0  0  0  0  0  0
   12.7778    9.7948   51.1662 O   0  0  0  0  0  0  0  0  0  0  0  0
    8.3430   12.1294   48.9058 C   0  0  0  0  0  0  0  0  0  0  0  0
    8.9206   12.3531   47.5049 C   0  0  0  0  0  0  0  0  0  0  0  0
   10.4458   12.2286   47.6337 C   0  0  0  0  0  0  0  0  0  0  0  0
   10.5489    9.6969   52.1332 H   0  0  0  0  0  0  0  0  0  0  0  0
   13.9988   12.0654   49.0132 C   0  0  0  0  0  0  0  0  0  0  0  0
   14.5482   11.8156   50.3613 N   0  0  0  0  0  0  0  0  0  0  0  0
   13.7953   11.8564   51.0483 H   0  0  0  0  0  0  0  0  0  0  0  0
   15.2473   12.5253   50.5805 H   0  0  0  0  0  0  0  0  0  0  0  0
   13.4196   13.5028   48.9699 C   0  0  0  0  0  0  0  0  0  0  0  0
   14.4405   14.6954   49.0249 C   0  0  0  0  0  0  0  0  0  0  0  0
   15.2305   14.6706   47.6987 C   0  0  0  0  0  0  0  0  0  0  0  0
   13.6517   16.0194   49.0913 C   0  0  0  0  0  0  0  0  0  0  0  0
   15.4014   14.5410   50.2342 C   0  0  0  0  0  0  0  0  0  0  0  0
   17.7442   13.9831   51.1687 C   0  0  0  0  0  0  0  0  0  0  0  0
   16.9169   14.4723   49.9939 C   0  0  0  0  0  0  0  0  0  0  0  0
 23 24  1  0
 24 22  1  0
 22 19  1  0
 19 20  1  0
 19 21  1  0
 19 18  1  0
 18 14  1  0
 14 15  1  0
 14  1  1  0
  1  2  1  0
  2  3  1  0
  3  4  2  0
  4  5  1  0
  5  6  2  0
  5  7  1  0
  7  8  1  0
  8  9  2  0
  4 10  1  0
 10 11  1  0
 11 12  1  0
  8  2  1  0
 12  3  1  0
 15 16  1  0
 15 17  1  0
  7 13  1  0
M  END
> <minimizedAffinity>
-5.58755

> <CNNscore>
0.1433889866

> <CNNaffinity>
4.4974884987

> <CNN_VS>
0.6448903084

> <CNNaffinity_variance>
0.4197665453

$$$$



 24 25  0  0  0  0  0  0  0  0999 V2000
   30.7627   19.1198   61.2619 C   0  0  0  0  0  0  0  0  0  0  0  0
   30.2709   19.8522   60.0820 N   0  0  0  0  0  0  0  0  0  0  0  0
   28.9559   19.7475   59.6740 C   0  0  0  0  0  0  0  0  0  0  0  0
   28.4870   20.3828   58.6001 C   0  0  0  0  0  0  0  0  0  0  0  0
   29.3681   21.2284   57.8029 C   0  0  0  0  0  0  0  0  0  0  0  0
   28.9792   21.8254   56.8076 O   0  0  0  0  0  0  0  0  0  0  0  0
   30.6581   21.2796   58.2546 N   0  0  0  0  0  0  0  0  0  0  0  0
   31.1815   20.5955   59.3272 C   0  0  0  0  0  0  0  0  0  0  0  0
   32.3873   20.6606   59.5566 O   0  0  0  0  0  0  0  0  0  0  0  0
   27.0591   20.1038   58.3204 C   0  0  0  0  0  0  0  0  0  0  0  0
   26.6180   19.4197   59.6178 C   0  0  0  0  0  0  0  0  0  0  0  0
   27.8938   18.8988   60.2954 C   0  0  0  0  0  0  0  0  0  0  0  0
   31.2757   21.8666   57.7614 H   0  0  0  0  0  0  0  0  0  0  0  0
   29.8566   19.1871   62.5336 C   0  0  0  0  0  0  0  0  0  0  0  0
   29.8521   20.5515   63.0992 N   0  0  0  0  0  0  0  0  0  0  0  0
   30.7883   20.7858   63.4293 H   0  0  0  0  0  0  0  0  0  0  0  0
   29.1961   20.5941   63.8791 H   0  0  0  0  0  0  0  0  0  0  0  0
   30.2075   18.1819   63.6606 C   0  0  0  0  0  0  0  0  0  0  0  0
   30.3741   16.6729   63.2571 C   0  0  0  0  0  0  0  0  0  0  0  0
   31.6680   16.5729   62.4208 C   0  0  0  0  0  0  0  0  0  0  0  0
   30.5630   15.8358   64.5390 C   0  0  0  0  0  0  0  0  0  0  0  0
   29.1529   16.1867   62.4315 C   0  0  0  0  0  0  0  0  0  0  0  0
   27.2840   14.5454   63.1292 C   0  0  0  0  0  0  0  0  0  0  0  0
   27.8024   15.9721   63.1309 C   0  0  0  0  0  0  0  0  0  0  0  0
 23 24  1  0
 24 22  1  0
 22 19  1  0
 19 20  1  0
 19 21  1  0
 19 18  1  0
 18 14  1  0
 14 15  1  0
 14  1  1  0
  1  2  1  0
  2  3  1  0
  3  4  2  0
  4  5  1  0
  5  6  2  0
  5  7  1  0
  7  8  1  0
  8  9  2  0
  4 10  1  0
 10 11  1  0
 11 12  1  0
  8  2  1  0
 12  3  1  0
 15 16  1  0
 15 17  1  0
  7 13  1  0
M  END
> <minimizedAffinity>
-6.74642

> <CNNscore>
0.1405694634

> <CNNaffinity>
3.8985297680

> <CNN_VS>
0.5480142236

> <CNNaffinity_variance>
1.2755979300

$$$$



 24 25  0  0  0  0  0  0  0  0999 V2000
   10.9777    5.7169   49.0502 C   0  0  0  0  0  0  0  0  0  0  0  0
   11.3999    4.6318   49.9527 N   0  0  0  0  0  0  0  0  0  0  0  0
   10.7924    4.4463   51.1788 C   0  0  0  0  0  0  0  0  0  0  0  0
   11.1654    3.4857   52.0243 C   0  0  0  0  0  0  0  0  0  0  0  0
   12.2523    2.5787   51.6737 C   0  0  0  0  0  0  0  0  0  0  0  0
   12.6286    1.6866   52.4225 O   0  0  0  0  0  0  0  0  0  0  0  0
   12.8171    2.8238   50.4523 N   0  0  0  0  0  0  0  0  0  0  0  0
   12.4881    3.8378   49.5829 C   0  0  0  0  0  0  0  0  0  0  0  0
   13.1517    3.9978   48.5608 O   0  0  0  0  0  0  0  0  0  0  0  0
   10.4071    3.4863   53.2971 C   0  0  0  0  0  0  0  0  0  0  0  0
    9.2501    4.4343   52.9670 C   0  0  0  0  0  0  0  0  0  0  0  0
    9.7061    5.2843   51.7721 C   0  0  0  0  0  0  0  0  0  0  0  0
   13.5328    2.2114   50.1659 H   0  0  0  0  0  0  0  0  0  0  0  0
   10.6020    7.0693   49.7376 C   0  0  0  0  0  0  0  0  0  0  0  0
    9.2669    7.5241   49.2991 N   0  0  0  0  0  0  0  0  0  0  0  0
    9.2897    7.7326   48.3009 H   0  0  0  0  0  0  0  0  0  0  0  0
    9.0071    8.3641   49.8161 H   0  0  0  0  0  0  0  0  0  0  0  0
   11.6134    8.2270   49.5367 C   0  0  0  0  0  0  0  0  0  0  0  0
   12.1784    8.9251   50.8254 C   0  0  0  0  0  0  0  0  0  0  0  0
   13.5784    9.4668   50.4644 C   0  0  0  0  0  0  0  0  0  0  0  0
   11.2734   10.1240   51.1761 C   0  0  0  0  0  0  0  0  0  0  0  0
   12.2716    7.9159   52.0011 C   0  0  0  0  0  0  0  0  0  0  0  0
   13.7979    5.9674   52.7412 C   0  0  0  0  0  0  0  0  0  0  0  0
   13.6505    7.4589   52.5000 C   0  0  0  0  0  0  0  0  0  0  0  0
 23 24  1  0
 24 22  1  0
 22 19  1  0
 19 20  1  0
 19 21  1  0
 19 18  1  0
 18 14  1  0
 14 15  1  0
 14  1  1  0
  1  2  1  0
  2  3  1  0
  3  4  2  0
  4  5  1  0
  5  6  2  0
  5  7  1  0
  7  8  1  0
  8  9  2  0
  4 10  1  0
 10 11  1  0
 11 12  1  0
  8  2  1  0
 12  3  1  0
 15 16  1  0
 15 17  1  0
  7 13  1  0
M  END
> <minimizedAffinity>
-4.73551

> <CNNscore>
0.1279934198

> <CNNaffinity>
3.8943126202

> <CNN_VS>
0.4984463751

> <CNNaffinity_variance>
0.8272755742

$$$$



 24 25  0  0  0  0  0  0  0  0999 V2000
   12.3180    7.6614   52.1082 C   0  0  0  0  0  0  0  0  0  0  0  0
   12.4417    6.2365   51.7552 N   0  0  0  0  0  0  0  0  0  0  0  0
   11.4373    5.5809   51.0710 C   0  0  0  0  0  0  0  0  0  0  0  0
   11.5126    4.2882   50.7547 C   0  0  0  0  0  0  0  0  0  0  0  0
   12.6854    3.5065   51.1297 C   0  0  0  0  0  0  0  0  0  0  0  0
   12.7926    2.3168   50.8628 O   0  0  0  0  0  0  0  0  0  0  0  0
   13.6364    4.2126   51.8137 N   0  0  0  0  0  0  0  0  0  0  0  0
   13.5631    5.5313   52.1984 C   0  0  0  0  0  0  0  0  0  0  0  0
   14.4536    6.0077   52.8991 O   0  0  0  0  0  0  0  0  0  0  0  0
   10.3118    3.7765   50.0539 C   0  0  0  0  0  0  0  0  0  0  0  0
    9.5872    5.0768   49.6928 C   0  0  0  0  0  0  0  0  0  0  0  0
   10.1278    6.1583   50.6396 C   0  0  0  0  0  0  0  0  0  0  0  0
   14.4579    3.7270   52.0556 H   0  0  0  0  0  0  0  0  0  0  0  0
   12.8943    8.6750   51.0674 C   0  0  0  0  0  0  0  0  0  0  0  0
   14.3106    8.9748   51.3604 N   0  0  0  0  0  0  0  0  0  0  0  0
   14.3782    9.4521   52.2593 H   0  0  0  0  0  0  0  0  0  0  0  0
   14.6898    9.5745   50.6276 H   0  0  0  0  0  0  0  0  0  0  0  0
   12.1197   10.0113   50.9333 C   0  0  0  0  0  0  0  0  0  0  0  0
   11.7405   10.4848   49.4844 C   0  0  0  0  0  0  0  0  0  0  0  0
   12.9660   11.2383   48.9241 C   0  0  0  0  0  0  0  0  0  0  0  0
   11.4964    9.2409   48.6053 C   0  0  0  0  0  0  0  0  0  0  0  0
   10.4979   11.4144   49.5174 C   0  0  0  0  0  0  0  0  0  0  0  0
    8.5072   11.6250   51.1505 C   0  0  0  0  0  0  0  0  0  0  0  0
    9.1510   10.8618   50.0071 C   0  0  0  0  0  0  0  0  0  0  0  0
 23 24  1  0
 24 22  1  0
 22 19  1  0
 19 20  1  0
 19 21  1  0
 19 18  1  0
 18 14  1  0
 14 15  1  0
 14  1  1  0
  1  2  1  0
  2  3  1  0
  3  4  2  0
  4  5  1  0
  5  6  2  0
  5  7  1  0
  7  8  1  0
  8  9  2  0
  4 10  1  0
 10 11  1  0
 11 12  1  0
  8  2  1  0
 12  3  1  0
 15 16  1  0
 15 17  1  0
  7 13  1  0
M  END
> <minimizedAffinity>
-5.03927

> <CNNscore>
0.1187059656

> <CNNaffinity>
4.3217029572

> <CNN_VS>
0.5130119324

> <CNNaffinity_variance>
0.3561144769

$$$$



 24 25  0  0  0  0  0  0  0  0999 V2000
   31.1609   19.5900   60.5671 C   0  0  0  0  0  0  0  0  0  0  0  0
   29.8569   19.8139   59.9192 N   0  0  0  0  0  0  0  0  0  0  0  0
   29.7234   20.7049   58.8728 C   0  0  0  0  0  0  0  0  0  0  0  0
   28.5535   20.9423   58.2798 C   0  0  0  0  0  0  0  0  0  0  0  0
   27.3488   20.2528   58.7273 C   0  0  0  0  0  0  0  0  0  0  0  0
   26.2547   20.4449   58.2135 O   0  0  0  0  0  0  0  0  0  0  0  0
   27.5484   19.3938   59.7728 N   0  0  0  0  0  0  0  0  0  0  0  0
   28.7317   19.1678   60.4369 C   0  0  0  0  0  0  0  0  0  0  0  0
   28.7404   18.4402   61.4275 O   0  0  0  0  0  0  0  0  0  0  0  0
   28.6272   21.9593   57.2049 C   0  0  0  0  0  0  0  0  0  0  0  0
   30.1403   22.0892   57.0057 C   0  0  0  0  0  0  0  0  0  0  0  0
   30.7991   21.5633   58.2893 C   0  0  0  0  0  0  0  0  0  0  0  0
   26.7644   18.8848   60.0819 H   0  0  0  0  0  0  0  0  0  0  0  0
   31.1541   19.5816   62.1300 C   0  0  0  0  0  0  0  0  0  0  0  0
   31.8382   20.7782   62.6609 N   0  0  0  0  0  0  0  0  0  0  0  0
   32.8241   20.7496   62.4009 H   0  0  0  0  0  0  0  0  0  0  0  0
   31.7549   20.7944   63.6774 H   0  0  0  0  0  0  0  0  0  0  0  0
   31.7650   18.3220   62.7962 C   0  0  0  0  0  0  0  0  0  0  0  0
   31.1951   17.8967   64.1968 C   0  0  0  0  0  0  0  0  0  0  0  0
   32.2672   18.2611   65.2462 C   0  0  0  0  0  0  0  0  0  0  0  0
   29.9306   18.7300   64.4903 C   0  0  0  0  0  0  0  0  0  0  0  0
   30.8965   16.3738   64.2293 C   0  0  0  0  0  0  0  0  0  0  0  0
   28.9114   14.9708   63.3548 C   0  0  0  0  0  0  0  0  0  0  0  0
   30.1956   15.7133   63.0328 C   0  0  0  0  0  0  0  0  0  0  0  0
 23 24  1  0
 24 22  1  0
 22 19  1  0
 19 20  1  0
 19 21  1  0
 19 18  1  0
 18 14  1  0
 14 15  1  0
 14  1  1  0
  1  2  1  0
  2  3  1  0
  3  4  2  0
  4  5  1  0
  5  6  2  0
  5  7  1  0
  7  8  1  0
  8  9  2  0
  4 10  1  0
 10 11  1  0
 11 12  1  0
  8  2  1  0
 12  3  1  0
 15 16  1  0
 15 17  1  0
  7 13  1  0
M  END
> <minimizedAffinity>
-5.58662

> <CNNscore>
0.1166367829

> <CNNaffinity>
4.2983155251

> <CNN_VS>
0.5013417006

> <CNNaffinity_variance>
0.5576077104

$$$$



 24 25  0  0  0  0  0  0  0  0999 V2000
   12.5945    9.9629   51.0192 C   0  0  0  0  0  0  0  0  0  0  0  0
   12.0464    8.6056   50.8531 N   0  0  0  0  0  0  0  0  0  0  0  0
   12.3601    7.5957   51.7410 C   0  0  0  0  0  0  0  0  0  0  0  0
   11.8950    6.3538   51.6057 C   0  0  0  0  0  0  0  0  0  0  0  0
   11.0195    6.0139   50.4900 C   0  0  0  0  0  0  0  0  0  0  0  0
   10.5743    4.8855   50.3266 O   0  0  0  0  0  0  0  0  0  0  0  0
   10.7577    7.0556   49.6432 N   0  0  0  0  0  0  0  0  0  0  0  0
   11.2641    8.3318   49.7287 C   0  0  0  0  0  0  0  0  0  0  0  0
   11.0205    9.1407   48.8358 O   0  0  0  0  0  0  0  0  0  0  0  0
   12.3835    5.4192   52.6463 C   0  0  0  0  0  0  0  0  0  0  0  0
   12.9952    6.3846   53.6662 C   0  0  0  0  0  0  0  0  0  0  0  0
   13.2788    7.6942   52.9160 C   0  0  0  0  0  0  0  0  0  0  0  0
   10.1436    6.8734   48.8956 H   0  0  0  0  0  0  0  0  0  0  0  0
   13.8470   10.3045   50.1490 C   0  0  0  0  0  0  0  0  0  0  0  0
   15.0832    9.8358   50.8076 N   0  0  0  0  0  0  0  0  0  0  0  0
   15.2194   10.3480   51.6791 H   0  0  0  0  0  0  0  0  0  0  0  0
   15.8792    9.9969   50.1906 H   0  0  0  0  0  0  0  0  0  0  0  0
   14.0171   11.7999   49.7770 C   0  0  0  0  0  0  0  0  0  0  0  0
   13.5257   12.2515   48.3550 C   0  0  0  0  0  0  0  0  0  0  0  0
   13.8866   11.1149   47.3744 C   0  0  0  0  0  0  0  0  0  0  0  0
   11.9899   12.3934   48.3841 C   0  0  0  0  0  0  0  0  0  0  0  0
   14.2144   13.5762   47.9305 C   0  0  0  0  0  0  0  0  0  0  0  0
   13.7165   15.7246   49.2761 C   0  0  0  0  0  0  0  0  0  0  0  0
   14.6684   14.5731   49.0073 C   0  0  0  0  0  0  0  0  0  0  0  0
 23 24  1  0
 24 22  1  0
 22 19  1  0
 19 20  1  0
 19 21  1  0
 19 18  1  0
 18 14  1  0
 14 15  1  0
 14  1  1  0
  1  2  1  0
  2  3  1  0
  3  4  2  0
  4  5  1  0
  5  6  2  0
  5  7  1  0
  7  8  1  0
  8  9  2  0
  4 10  1  0
 10 11  1  0
 11 12  1  0
  8  2  1  0
 12  3  1  0
 15 16  1  0
 15 17  1  0
  7 13  1  0
M  END
> <minimizedAffinity>
-5.66749

> <CNNscore>
0.1076463908

> <CNNaffinity>
4.5732002258

> <CNN_VS>
0.4922885001

> <CNNaffinity_variance>
0.2220001221

$$$$
