


 38 39  0  0  0  0  0  0  0  0999 V2000
  -18.8850   51.8896   19.6917 N   0  0  0  0  0  0  0  0  0  0  0  0
  -18.5660   53.2044   19.4456 C   0  0  0  0  0  0  0  0  0  0  0  0
  -17.7692   53.8465   20.1185 O   0  0  0  0  0  0  0  0  0  0  0  0
  -19.5142   51.4324   19.0881 H   0  0  0  0  0  0  0  0  0  0  0  0
  -19.2565   53.8285   18.2938 C   0  0  0  0  0  0  0  0  0  0  0  0
  -20.2673   53.1098   17.6530 C   0  0  0  0  0  0  0  0  0  0  0  0
  -20.9068   53.6557   16.5391 C   0  0  0  0  0  0  0  0  0  0  0  0
  -20.5568   54.9309   16.0644 C   0  0  0  0  0  0  0  0  0  0  0  0
  -21.1777   55.4850   14.9320 C   0  0  0  0  0  0  0  0  0  0  0  0
  -20.8287   56.7609   14.4634 C   0  0  0  0  0  0  0  0  0  0  0  0
  -19.8542   57.4910   15.1528 C   0  0  0  0  0  0  0  0  0  0  0  0
  -19.2269   56.9531   16.2783 C   0  0  0  0  0  0  0  0  0  0  0  0
  -19.5587   55.6721   16.7388 C   0  0  0  0  0  0  0  0  0  0  0  0
  -18.9148   55.1118   17.8530 C   0  0  0  0  0  0  0  0  0  0  0  0
  -21.4640   57.3235   13.2218 C   0  0  0  0  0  0  0  0  0  0  0  0
  -22.6029   56.6832   12.8365 F   0  0  0  0  0  0  0  0  0  0  0  0
  -20.6319   57.3180   12.1348 F   0  0  0  0  0  0  0  0  0  0  0  0
  -21.9797   59.0573   13.2361 P   0  0  0  0  0  0  0  0  0  0  0  0
  -21.4937   59.9383   14.3460 O   0  0  0  0  0  0  0  0  0  0  0  0
  -21.6153   59.6587   11.7793 O   0  0  0  0  0  0  0  0  0  0  0  0
  -23.5866   59.1328   13.1136 O   0  0  0  0  0  0  0  0  0  0  0  0
  -20.6516   59.6881   11.6735 H   0  0  0  0  0  0  0  0  0  0  0  0
  -23.9892   58.7987   13.9304 H   0  0  0  0  0  0  0  0  0  0  0  0
  -18.3208   51.1445   20.8220 C   0  0  0  0  0  0  0  0  0  0  0  0
  -16.8308   50.8449   20.5387 C   0  0  0  0  0  0  0  0  0  0  0  0
  -15.9794   51.0901   21.5828 N   0  0  0  0  0  0  0  0  0  0  0  0
  -16.4035   50.3647   19.4939 O   0  0  0  0  0  0  0  0  0  0  0  0
  -16.3255   51.4755   22.4201 H   0  0  0  0  0  0  0  0  0  0  0  0
  -15.0213   50.8811   21.4962 H   0  0  0  0  0  0  0  0  0  0  0  0
  -19.1437   49.8701   21.0545 C   0  0  0  0  0  0  0  0  0  0  0  0
  -18.5470   48.5971   20.4497 C   0  0  0  0  0  0  0  0  0  0  0  0
  -18.5428   47.3217   21.3092 C   0  0  0  0  0  0  0  0  0  0  0  0
  -19.4027   46.0884   20.8788 C   0  0  0  0  0  0  0  0  0  0  0  0
  -19.4384   45.1325   22.0961 C   0  0  0  0  0  0  0  0  0  0  0  0
  -20.8596   46.4967   20.5868 C   0  0  0  0  0  0  0  0  0  0  0  0
  -18.7649   45.3708   19.6573 C   0  0  0  0  0  0  0  0  0  0  0  0
  -18.9340   43.7086   17.7681 C   0  0  0  0  0  0  0  0  0  0  0  0
  -19.6841   44.4131   18.8895 C   0  0  0  0  0  0  0  0  0  0  0  0
 37 38  1  0
 38 36  1  0
 36 33  1  0
 33 34  1  0
 33 35  1  0
 33 32  1  0
 32 31  1  0
 31 30  1  0
 24 30  1  0
 24  1  1  0
  1  2  1  0
  2  3  2  0
  2  5  1  0
  5  6  2  0
  6  7  1  0
  7  8  2  0
  8  9  1  0
  9 10  2  0
 10 15  1  0
 15 16  1  0
 15 17  1  0
 15 18  1  0
 18 19  2  0
 18 20  1  0
 18 21  1  0
 10 11  1  0
 11 12  2  0
 12 13  1  0
 13 14  2  0
 24 25  1  0
 25 26  1  0
 25 27  2  0
 14  5  1  0
 13  8  1  0
  1  4  1  0
 20 22  1  0
 21 23  1  0
 26 28  1  0
 26 29  1  0
M  END
> <minimizedAffinity>
-8.69767

> <CNNscore>
0.8302212358

> <CNNaffinity>
6.2828769684

> <CNN_VS>
5.2161779404

> <CNNaffinity_variance>
0.0277939420

$$$$



 38 39  0  0  0  0  0  0  0  0999 V2000
  -18.9441   51.8789   19.8856 N   0  0  0  0  0  0  0  0  0  0  0  0
  -18.5756   53.1663   19.5726 C   0  0  0  0  0  0  0  0  0  0  0  0
  -17.7332   53.8011   20.1951 O   0  0  0  0  0  0  0  0  0  0  0  0
  -19.6092   51.4243   19.3197 H   0  0  0  0  0  0  0  0  0  0  0  0
  -19.2705   53.7697   18.4125 C   0  0  0  0  0  0  0  0  0  0  0  0
  -20.2861   53.0411   17.7907 C   0  0  0  0  0  0  0  0  0  0  0  0
  -20.9299   53.5669   16.6697 C   0  0  0  0  0  0  0  0  0  0  0  0
  -20.5797   54.8320   16.1689 C   0  0  0  0  0  0  0  0  0  0  0  0
  -21.2051   55.3656   15.0291 C   0  0  0  0  0  0  0  0  0  0  0  0
  -20.8557   56.6315   14.5343 C   0  0  0  0  0  0  0  0  0  0  0  0
  -19.8762   57.3726   15.2048 C   0  0  0  0  0  0  0  0  0  0  0  0
  -19.2444   56.8549   16.3373 C   0  0  0  0  0  0  0  0  0  0  0  0
  -19.5766   55.5837   16.8239 C   0  0  0  0  0  0  0  0  0  0  0  0
  -18.9283   55.0435   17.9455 C   0  0  0  0  0  0  0  0  0  0  0  0
  -21.4961   57.1716   13.2853 C   0  0  0  0  0  0  0  0  0  0  0  0
  -22.8514   57.2875   13.3565 F   0  0  0  0  0  0  0  0  0  0  0  0
  -21.2309   56.4224   12.1707 F   0  0  0  0  0  0  0  0  0  0  0  0
  -20.9962   58.8119   12.7093 P   0  0  0  0  0  0  0  0  0  0  0  0
  -21.7536   59.4328   11.5758 O   0  0  0  0  0  0  0  0  0  0  0  0
  -20.9630   59.7681   14.0137 O   0  0  0  0  0  0  0  0  0  0  0  0
  -19.4133   58.8040   12.3977 O   0  0  0  0  0  0  0  0  0  0  0  0
  -21.8650   59.8881   14.3496 H   0  0  0  0  0  0  0  0  0  0  0  0
  -19.2406   58.2572   11.6153 H   0  0  0  0  0  0  0  0  0  0  0  0
  -18.3811   51.1595   21.0330 C   0  0  0  0  0  0  0  0  0  0  0  0
  -18.4525   49.6390   20.7628 C   0  0  0  0  0  0  0  0  0  0  0  0
  -19.6966   49.1621   20.4467 N   0  0  0  0  0  0  0  0  0  0  0  0
  -17.4840   48.8860   20.7597 O   0  0  0  0  0  0  0  0  0  0  0  0
  -20.4719   49.7689   20.4501 H   0  0  0  0  0  0  0  0  0  0  0  0
  -19.8159   48.2125   20.2161 H   0  0  0  0  0  0  0  0  0  0  0  0
  -19.1315   51.5665   22.3084 C   0  0  0  0  0  0  0  0  0  0  0  0
  -18.7850   50.7441   23.5517 C   0  0  0  0  0  0  0  0  0  0  0  0
  -18.4505   51.5002   24.8484 C   0  0  0  0  0  0  0  0  0  0  0  0
  -17.1962   52.4327   24.9061 C   0  0  0  0  0  0  0  0  0  0  0  0
  -16.0785   51.7136   24.1120 C   0  0  0  0  0  0  0  0  0  0  0  0
  -17.4619   53.7724   24.1925 C   0  0  0  0  0  0  0  0  0  0  0  0
  -16.7442   52.6586   26.3752 C   0  0  0  0  0  0  0  0  0  0  0  0
  -18.6161   53.6759   27.7250 C   0  0  0  0  0  0  0  0  0  0  0  0
  -17.2755   53.9290   27.0503 C   0  0  0  0  0  0  0  0  0  0  0  0
 37 38  1  0
 38 36  1  0
 36 33  1  0
 33 34  1  0
 33 35  1  0
 33 32  1  0
 32 31  1  0
 31 30  1  0
 24 30  1  0
 24  1  1  0
  1  2  1  0
  2  3  2  0
  2  5  1  0
  5  6  2  0
  6  7  1  0
  7  8  2  0
  8  9  1  0
  9 10  2  0
 10 15  1  0
 15 16  1  0
 15 17  1  0
 15 18  1  0
 18 19  2  0
 18 20  1  0
 18 21  1  0
 10 11  1  0
 11 12  2  0
 12 13  1  0
 13 14  2  0
 24 25  1  0
 25 26  1  0
 25 27  2  0
 14  5  1  0
 13  8  1  0
  1  4  1  0
 20 22  1  0
 21 23  1  0
 26 28  1  0
 26 29  1  0
M  END
> <minimizedAffinity>
-7.37737

> <CNNscore>
0.8232573271

> <CNNaffinity>
6.3467507362

> <CNN_VS>
5.2250089645

> <CNNaffinity_variance>
0.1165796146

$$$$



 38 39  0  0  0  0  0  0  0  0999 V2000
  -18.8449   51.7534   19.7659 N   0  0  0  0  0  0  0  0  0  0  0  0
  -18.6464   53.1058   19.6152 C   0  0  0  0  0  0  0  0  0  0  0  0
  -17.9697   53.7815   20.3804 O   0  0  0  0  0  0  0  0  0  0  0  0
  -19.3793   51.2737   19.0924 H   0  0  0  0  0  0  0  0  0  0  0  0
  -19.3143   53.7273   18.4487 C   0  0  0  0  0  0  0  0  0  0  0  0
  -20.3042   53.0025   17.7828 C   0  0  0  0  0  0  0  0  0  0  0  0
  -20.9213   53.5461   16.6552 C   0  0  0  0  0  0  0  0  0  0  0  0
  -20.5699   54.8249   16.1916 C   0  0  0  0  0  0  0  0  0  0  0  0
  -21.1681   55.3769   15.0459 C   0  0  0  0  0  0  0  0  0  0  0  0
  -20.8178   56.6565   14.5884 C   0  0  0  0  0  0  0  0  0  0  0  0
  -19.8654   57.3923   15.3022 C   0  0  0  0  0  0  0  0  0  0  0  0
  -19.2608   56.8566   16.4410 C   0  0  0  0  0  0  0  0  0  0  0  0
  -19.5936   55.5721   16.8908 C   0  0  0  0  0  0  0  0  0  0  0  0
  -18.9719   55.0141   18.0188 C   0  0  0  0  0  0  0  0  0  0  0  0
  -21.4279   57.2171   13.3333 C   0  0  0  0  0  0  0  0  0  0  0  0
  -22.7698   57.4370   13.4132 F   0  0  0  0  0  0  0  0  0  0  0  0
  -21.2314   56.4266   12.2331 F   0  0  0  0  0  0  0  0  0  0  0  0
  -20.8111   58.8023   12.7175 P   0  0  0  0  0  0  0  0  0  0  0  0
  -19.3646   58.9096   12.3432 O   0  0  0  0  0  0  0  0  0  0  0  0
  -21.7868   59.2358   11.5023 O   0  0  0  0  0  0  0  0  0  0  0  0
  -21.2167   59.9679   13.7565 O   0  0  0  0  0  0  0  0  0  0  0  0
  -21.6726   58.6209   10.7608 H   0  0  0  0  0  0  0  0  0  0  0  0
  -20.7088   59.8616   14.5760 H   0  0  0  0  0  0  0  0  0  0  0  0
  -18.2884   51.0006   20.8949 C   0  0  0  0  0  0  0  0  0  0  0  0
  -16.7450   51.0704   20.8394 C   0  0  0  0  0  0  0  0  0  0  0  0
  -16.1890   50.7078   19.6417 N   0  0  0  0  0  0  0  0  0  0  0  0
  -16.0328   51.4728   21.7536 O   0  0  0  0  0  0  0  0  0  0  0  0
  -16.7632   50.3853   18.9099 H   0  0  0  0  0  0  0  0  0  0  0  0
  -15.2150   50.7696   19.5123 H   0  0  0  0  0  0  0  0  0  0  0  0
  -18.8142   49.5592   20.8555 C   0  0  0  0  0  0  0  0  0  0  0  0
  -18.9173   48.8722   22.2192 C   0  0  0  0  0  0  0  0  0  0  0  0
  -20.1065   47.9284   22.4650 C   0  0  0  0  0  0  0  0  0  0  0  0
  -19.8616   46.3930   22.6336 C   0  0  0  0  0  0  0  0  0  0  0  0
  -20.8245   45.6848   21.6497 C   0  0  0  0  0  0  0  0  0  0  0  0
  -18.4297   46.0057   22.2162 C   0  0  0  0  0  0  0  0  0  0  0  0
  -20.1631   45.9432   24.0898 C   0  0  0  0  0  0  0  0  0  0  0  0
  -21.1966   43.7806   24.8746 C   0  0  0  0  0  0  0  0  0  0  0  0
  -19.9218   44.4599   24.3951 C   0  0  0  0  0  0  0  0  0  0  0  0
 37 38  1  0
 38 36  1  0
 36 33  1  0
 33 34  1  0
 33 35  1  0
 33 32  1  0
 32 31  1  0
 31 30  1  0
 24 30  1  0
 24  1  1  0
  1  2  1  0
  2  3  2  0
  2  5  1  0
  5  6  2  0
  6  7  1  0
  7  8  2  0
  8  9  1  0
  9 10  2  0
 10 15  1  0
 15 16  1  0
 15 17  1  0
 15 18  1  0
 18 19  2  0
 18 20  1  0
 18 21  1  0
 10 11  1  0
 11 12  2  0
 12 13  1  0
 13 14  2  0
 24 25  1  0
 25 26  1  0
 25 27  2  0
 14  5  1  0
 13  8  1  0
  1  4  1  0
 20 22  1  0
 21 23  1  0
 26 28  1  0
 26 29  1  0
M  END
> <minimizedAffinity>
-7.35902

> <CNNscore>
0.8167704344

> <CNNaffinity>
6.2949433327

> <CNN_VS>
5.1415238380

> <CNNaffinity_variance>
0.0706003979

$$$$



 38 39  0  0  0  0  0  0  0  0999 V2000
  -18.6900   52.1738   19.5663 N   0  0  0  0  0  0  0  0  0  0  0  0
  -18.5042   53.5291   19.7076 C   0  0  0  0  0  0  0  0  0  0  0  0
  -18.0206   54.0470   20.7066 O   0  0  0  0  0  0  0  0  0  0  0  0
  -19.0591   51.8306   18.7206 H   0  0  0  0  0  0  0  0  0  0  0  0
  -18.9340   54.3598   18.5595 C   0  0  0  0  0  0  0  0  0  0  0  0
  -18.5226   55.6929   18.5100 C   0  0  0  0  0  0  0  0  0  0  0  0
  -18.9467   56.5109   17.4618 C   0  0  0  0  0  0  0  0  0  0  0  0
  -19.7705   56.0027   16.4435 C   0  0  0  0  0  0  0  0  0  0  0  0
  -20.2219   56.8194   15.3927 C   0  0  0  0  0  0  0  0  0  0  0  0
  -21.0410   56.3071   14.3748 C   0  0  0  0  0  0  0  0  0  0  0  0
  -21.3958   54.9540   14.4094 C   0  0  0  0  0  0  0  0  0  0  0  0
  -20.9568   54.1304   15.4480 C   0  0  0  0  0  0  0  0  0  0  0  0
  -20.1544   54.6419   16.4764 C   0  0  0  0  0  0  0  0  0  0  0  0
  -19.7304   53.8287   17.5389 C   0  0  0  0  0  0  0  0  0  0  0  0
  -21.5588   57.2016   13.2823 C   0  0  0  0  0  0  0  0  0  0  0  0
  -22.9122   57.3560   13.2799 F   0  0  0  0  0  0  0  0  0  0  0  0
  -21.2165   56.7796   12.0259 F   0  0  0  0  0  0  0  0  0  0  0  0
  -20.9731   58.9123   13.2290 P   0  0  0  0  0  0  0  0  0  0  0  0
  -20.9871   59.7123   14.4954 O   0  0  0  0  0  0  0  0  0  0  0  0
  -19.5055   58.8760   12.5496 O   0  0  0  0  0  0  0  0  0  0  0  0
  -21.7451   59.6998   12.0515 O   0  0  0  0  0  0  0  0  0  0  0  0
  -18.8864   58.4208   13.1416 H   0  0  0  0  0  0  0  0  0  0  0  0
  -22.6764   59.8159   12.2967 H   0  0  0  0  0  0  0  0  0  0  0  0
  -18.3575   51.2219   20.6313 C   0  0  0  0  0  0  0  0  0  0  0  0
  -17.3169   50.2096   20.0999 C   0  0  0  0  0  0  0  0  0  0  0  0
  -17.7460   48.9105   20.0422 N   0  0  0  0  0  0  0  0  0  0  0  0
  -16.1997   50.5091   19.6912 O   0  0  0  0  0  0  0  0  0  0  0  0
  -18.6432   48.6734   20.3711 H   0  0  0  0  0  0  0  0  0  0  0  0
  -17.1574   48.2136   19.6719 H   0  0  0  0  0  0  0  0  0  0  0  0
  -19.6411   50.5416   21.1263 C   0  0  0  0  0  0  0  0  0  0  0  0
  -19.7856   50.4651   22.6480 C   0  0  0  0  0  0  0  0  0  0  0  0
  -19.1623   49.2607   23.3736 C   0  0  0  0  0  0  0  0  0  0  0  0
  -20.0318   47.9958   23.6738 C   0  0  0  0  0  0  0  0  0  0  0  0
  -21.5089   48.4564   23.6203 C   0  0  0  0  0  0  0  0  0  0  0  0
  -19.8565   46.9242   22.5804 C   0  0  0  0  0  0  0  0  0  0  0  0
  -19.7038   47.4225   25.0800 C   0  0  0  0  0  0  0  0  0  0  0  0
  -17.5327   46.2742   25.6535 C   0  0  0  0  0  0  0  0  0  0  0  0
  -18.9384   46.0937   25.0984 C   0  0  0  0  0  0  0  0  0  0  0  0
 37 38  1  0
 38 36  1  0
 36 33  1  0
 33 34  1  0
 33 35  1  0
 33 32  1  0
 32 31  1  0
 31 30  1  0
 24 30  1  0
 24  1  1  0
  1  2  1  0
  2  3  2  0
  2  5  1  0
  5  6  2  0
  6  7  1  0
  7  8  2  0
  8  9  1  0
  9 10  2  0
 10 15  1  0
 15 16  1  0
 15 17  1  0
 15 18  1  0
 18 19  2  0
 18 20  1  0
 18 21  1  0
 10 11  1  0
 11 12  2  0
 12 13  1  0
 13 14  2  0
 24 25  1  0
 25 26  1  0
 25 27  2  0
 14  5  1  0
 13  8  1  0
  1  4  1  0
 20 22  1  0
 21 23  1  0
 26 28  1  0
 26 29  1  0
M  END
> <minimizedAffinity>
-7.46355

> <CNNscore>
0.7884626389

> <CNNaffinity>
6.2523303032

> <CNN_VS>
4.9297289848

> <CNNaffinity_variance>
0.0422369204

$$$$



 38 39  0  0  0  0  0  0  0  0999 V2000
  -18.9127   52.1194   19.5599 N   0  0  0  0  0  0  0  0  0  0  0  0
  -18.5712   53.4489   19.6429 C   0  0  0  0  0  0  0  0  0  0  0  0
  -17.9498   53.9324   20.5812 O   0  0  0  0  0  0  0  0  0  0  0  0
  -19.3886   51.8003   18.7593 H   0  0  0  0  0  0  0  0  0  0  0  0
  -19.0077   54.2966   18.5099 C   0  0  0  0  0  0  0  0  0  0  0  0
  -18.5214   55.6026   18.4280 C   0  0  0  0  0  0  0  0  0  0  0  0
  -18.9481   56.4378   17.3946 C   0  0  0  0  0  0  0  0  0  0  0  0
  -19.8499   55.9730   16.4226 C   0  0  0  0  0  0  0  0  0  0  0  0
  -20.3040   56.8086   15.3879 C   0  0  0  0  0  0  0  0  0  0  0  0
  -21.2015   56.3395   14.4163 C   0  0  0  0  0  0  0  0  0  0  0  0
  -21.6333   55.0101   14.4807 C   0  0  0  0  0  0  0  0  0  0  0  0
  -21.1926   54.1684   15.5039 C   0  0  0  0  0  0  0  0  0  0  0  0
  -20.3114   54.6376   16.4869 C   0  0  0  0  0  0  0  0  0  0  0  0
  -19.8838   53.8073   17.5346 C   0  0  0  0  0  0  0  0  0  0  0  0
  -21.7193   57.2564   13.3426 C   0  0  0  0  0  0  0  0  0  0  0  0
  -22.9652   57.7518   13.5827 F   0  0  0  0  0  0  0  0  0  0  0  0
  -21.7683   56.6720   12.1056 F   0  0  0  0  0  0  0  0  0  0  0  0
  -20.7732   58.7515   12.9661 P   0  0  0  0  0  0  0  0  0  0  0  0
  -19.3752   58.6014   12.4492 O   0  0  0  0  0  0  0  0  0  0  0  0
  -21.6936   59.6428   11.9786 O   0  0  0  0  0  0  0  0  0  0  0  0
  -20.8029   59.7331   14.2460 O   0  0  0  0  0  0  0  0  0  0  0  0
  -21.7877   59.1886   11.1267 H   0  0  0  0  0  0  0  0  0  0  0  0
  -20.2810   59.3432   14.9647 H   0  0  0  0  0  0  0  0  0  0  0  0
  -18.5927   51.1602   20.6222 C   0  0  0  0  0  0  0  0  0  0  0  0
  -17.4542   50.2316   20.1409 C   0  0  0  0  0  0  0  0  0  0  0  0
  -17.5698   48.9223   20.5251 N   0  0  0  0  0  0  0  0  0  0  0  0
  -16.5287   50.5826   19.4163 O   0  0  0  0  0  0  0  0  0  0  0  0
  -18.3137   48.6438   21.1067 H   0  0  0  0  0  0  0  0  0  0  0  0
  -16.9090   48.2595   20.2198 H   0  0  0  0  0  0  0  0  0  0  0  0
  -19.8601   50.3859   21.0089 C   0  0  0  0  0  0  0  0  0  0  0  0
  -21.1743   51.1213   20.7362 C   0  0  0  0  0  0  0  0  0  0  0  0
  -22.3034   50.9920   21.7724 C   0  0  0  0  0  0  0  0  0  0  0  0
  -23.6472   50.2955   21.3787 C   0  0  0  0  0  0  0  0  0  0  0  0
  -24.2658   49.7615   22.6936 C   0  0  0  0  0  0  0  0  0  0  0  0
  -24.6499   51.3067   20.7900 C   0  0  0  0  0  0  0  0  0  0  0  0
  -23.3915   49.1203   20.3952 C   0  0  0  0  0  0  0  0  0  0  0  0
  -22.5557   46.7817   19.9557 C   0  0  0  0  0  0  0  0  0  0  0  0
  -22.8179   47.8410   21.0166 C   0  0  0  0  0  0  0  0  0  0  0  0
 37 38  1  0
 38 36  1  0
 36 33  1  0
 33 34  1  0
 33 35  1  0
 33 32  1  0
 32 31  1  0
 31 30  1  0
 24 30  1  0
 24  1  1  0
  1  2  1  0
  2  3  2  0
  2  5  1  0
  5  6  2  0
  6  7  1  0
  7  8  2  0
  8  9  1  0
  9 10  2  0
 10 15  1  0
 15 16  1  0
 15 17  1  0
 15 18  1  0
 18 19  2  0
 18 20  1  0
 18 21  1  0
 10 11  1  0
 11 12  2  0
 12 13  1  0
 13 14  2  0
 24 25  1  0
 25 26  1  0
 25 27  2  0
 14  5  1  0
 13  8  1  0
  1  4  1  0
 20 22  1  0
 21 23  1  0
 26 28  1  0
 26 29  1  0
M  END
> <minimizedAffinity>
-7.30986

> <CNNscore>
0.7864566445

> <CNNaffinity>
6.2921833992

> <CNN_VS>
4.9485292435

> <CNNaffinity_variance>
0.0318157077

$$$$



 38 39  0  0  0  0  0  0  0  0999 V2000
  -18.6831   51.9474   19.5807 N   0  0  0  0  0  0  0  0  0  0  0  0
  -18.5273   53.3029   19.4094 C   0  0  0  0  0  0  0  0  0  0  0  0
  -17.8660   54.0098   20.1597 O   0  0  0  0  0  0  0  0  0  0  0  0
  -19.2075   51.4420   18.9182 H   0  0  0  0  0  0  0  0  0  0  0  0
  -19.2224   53.8870   18.2396 C   0  0  0  0  0  0  0  0  0  0  0  0
  -20.2330   53.1451   17.6255 C   0  0  0  0  0  0  0  0  0  0  0  0
  -20.8768   53.6523   16.4959 C   0  0  0  0  0  0  0  0  0  0  0  0
  -20.5314   54.9121   15.9786 C   0  0  0  0  0  0  0  0  0  0  0  0
  -21.1567   55.4270   14.8302 C   0  0  0  0  0  0  0  0  0  0  0  0
  -20.8123   56.6878   14.3189 C   0  0  0  0  0  0  0  0  0  0  0  0
  -19.8379   57.4426   14.9814 C   0  0  0  0  0  0  0  0  0  0  0  0
  -19.2063   56.9436   16.1223 C   0  0  0  0  0  0  0  0  0  0  0  0
  -19.5335   55.6776   16.6255 C   0  0  0  0  0  0  0  0  0  0  0  0
  -18.8852   55.1560   17.7558 C   0  0  0  0  0  0  0  0  0  0  0  0
  -21.4523   57.2075   13.0612 C   0  0  0  0  0  0  0  0  0  0  0  0
  -22.6528   56.6354   12.7664 F   0  0  0  0  0  0  0  0  0  0  0  0
  -20.6688   57.0547   11.9491 F   0  0  0  0  0  0  0  0  0  0  0  0
  -21.8295   58.9739   12.9613 P   0  0  0  0  0  0  0  0  0  0  0  0
  -21.4578   59.7146   11.7134 O   0  0  0  0  0  0  0  0  0  0  0  0
  -23.4001   59.1306   13.3156 O   0  0  0  0  0  0  0  0  0  0  0  0
  -21.2316   59.7174   14.2622 O   0  0  0  0  0  0  0  0  0  0  0  0
  -23.9320   58.7239   12.6137 H   0  0  0  0  0  0  0  0  0  0  0  0
  -20.2627   59.7180   14.2175 H   0  0  0  0  0  0  0  0  0  0  0  0
  -18.0955   51.2281   20.7157 C   0  0  0  0  0  0  0  0  0  0  0  0
  -16.5770   51.0605   20.4786 C   0  0  0  0  0  0  0  0  0  0  0  0
  -15.7729   51.7040   21.3811 N   0  0  0  0  0  0  0  0  0  0  0  0
  -16.0824   50.3635   19.5987 O   0  0  0  0  0  0  0  0  0  0  0  0
  -16.1730   52.2627   22.0861 H   0  0  0  0  0  0  0  0  0  0  0  0
  -14.7947   51.6079   21.3249 H   0  0  0  0  0  0  0  0  0  0  0  0
  -18.8150   49.8845   20.8957 C   0  0  0  0  0  0  0  0  0  0  0  0
  -18.0635   48.6707   20.3439 C   0  0  0  0  0  0  0  0  0  0  0  0
  -18.6818   47.2789   20.5584 C   0  0  0  0  0  0  0  0  0  0  0  0
  -19.7791   47.0735   21.6537 C   0  0  0  0  0  0  0  0  0  0  0  0
  -19.5750   45.6457   22.2163 C   0  0  0  0  0  0  0  0  0  0  0  0
  -19.5857   48.0505   22.8295 C   0  0  0  0  0  0  0  0  0  0  0  0
  -21.2008   47.2059   21.0414 C   0  0  0  0  0  0  0  0  0  0  0  0
  -23.0498   48.7845   20.3704 C   0  0  0  0  0  0  0  0  0  0  0  0
  -21.9647   48.4876   21.3955 C   0  0  0  0  0  0  0  0  0  0  0  0
 37 38  1  0
 38 36  1  0
 36 33  1  0
 33 34  1  0
 33 35  1  0
 33 32  1  0
 32 31  1  0
 31 30  1  0
 24 30  1  0
 24  1  1  0
  1  2  1  0
  2  3  2  0
  2  5  1  0
  5  6  2  0
  6  7  1  0
  7  8  2  0
  8  9  1  0
  9 10  2  0
 10 15  1  0
 15 16  1  0
 15 17  1  0
 15 18  1  0
 18 19  2  0
 18 20  1  0
 18 21  1  0
 10 11  1  0
 11 12  2  0
 12 13  1  0
 13 14  2  0
 24 25  1  0
 25 26  1  0
 25 27  2  0
 14  5  1  0
 13  8  1  0
  1  4  1  0
 20 22  1  0
 21 23  1  0
 26 28  1  0
 26 29  1  0
M  END
> <minimizedAffinity>
-8.29303

> <CNNscore>
0.7777013183

> <CNNaffinity>
6.2167053223

> <CNN_VS>
4.8347401619

> <CNNaffinity_variance>
0.0403581746

$$$$



 38 39  0  0  0  0  0  0  0  0999 V2000
  -19.2239   51.8264   19.8885 N   0  0  0  0  0  0  0  0  0  0  0  0
  -18.7575   53.0696   19.5308 C   0  0  0  0  0  0  0  0  0  0  0  0
  -17.8512   53.6485   20.1170 O   0  0  0  0  0  0  0  0  0  0  0  0
  -19.9373   51.4136   19.3500 H   0  0  0  0  0  0  0  0  0  0  0  0
  -19.4269   53.6973   18.3686 C   0  0  0  0  0  0  0  0  0  0  0  0
  -20.4994   53.0286   17.7756 C   0  0  0  0  0  0  0  0  0  0  0  0
  -21.1226   53.5761   16.6533 C   0  0  0  0  0  0  0  0  0  0  0  0
  -20.6940   54.8043   16.1224 C   0  0  0  0  0  0  0  0  0  0  0  0
  -21.2985   55.3579   14.9809 C   0  0  0  0  0  0  0  0  0  0  0  0
  -20.8706   56.5871   14.4561 C   0  0  0  0  0  0  0  0  0  0  0  0
  -19.8325   57.2715   15.0979 C   0  0  0  0  0  0  0  0  0  0  0  0
  -19.2206   56.7333   16.2317 C   0  0  0  0  0  0  0  0  0  0  0  0
  -19.6319   55.4975   16.7483 C   0  0  0  0  0  0  0  0  0  0  0  0
  -19.0052   54.9354   17.8714 C   0  0  0  0  0  0  0  0  0  0  0  0
  -21.4912   57.1461   13.2054 C   0  0  0  0  0  0  0  0  0  0  0  0
  -22.8500   57.2330   13.2456 F   0  0  0  0  0  0  0  0  0  0  0  0
  -21.1835   56.4312   12.0793 F   0  0  0  0  0  0  0  0  0  0  0  0
  -21.0114   58.8104   12.6835 P   0  0  0  0  0  0  0  0  0  0  0  0
  -21.7918   59.4683   11.5871 O   0  0  0  0  0  0  0  0  0  0  0  0
  -20.9621   59.7169   14.0224 O   0  0  0  0  0  0  0  0  0  0  0  0
  -19.4341   58.8251   12.3454 O   0  0  0  0  0  0  0  0  0  0  0  0
  -21.8590   59.8180   14.3776 H   0  0  0  0  0  0  0  0  0  0  0  0
  -19.2712   58.3093   11.5402 H   0  0  0  0  0  0  0  0  0  0  0  0
  -18.6959   51.0938   21.0442 C   0  0  0  0  0  0  0  0  0  0  0  0
  -17.3046   50.5210   20.6889 C   0  0  0  0  0  0  0  0  0  0  0  0
  -17.2411   49.8417   19.5016 N   0  0  0  0  0  0  0  0  0  0  0  0
  -16.2906   50.6891   21.3585 O   0  0  0  0  0  0  0  0  0  0  0  0
  -18.0567   49.7084   18.9665 H   0  0  0  0  0  0  0  0  0  0  0  0
  -16.3799   49.4866   19.1830 H   0  0  0  0  0  0  0  0  0  0  0  0
  -19.6939   50.0030   21.4559 C   0  0  0  0  0  0  0  0  0  0  0  0
  -19.2782   49.1740   22.6735 C   0  0  0  0  0  0  0  0  0  0  0  0
  -20.2956   49.0052   23.8145 C   0  0  0  0  0  0  0  0  0  0  0  0
  -20.5572   50.1853   24.8069 C   0  0  0  0  0  0  0  0  0  0  0  0
  -19.2018   50.9097   24.9937 C   0  0  0  0  0  0  0  0  0  0  0  0
  -21.5361   51.2135   24.2077 C   0  0  0  0  0  0  0  0  0  0  0  0
  -21.0689   49.6529   26.1738 C   0  0  0  0  0  0  0  0  0  0  0  0
  -23.2116   48.3344   25.9978 C   0  0  0  0  0  0  0  0  0  0  0  0
  -22.5894   49.6721   26.3721 C   0  0  0  0  0  0  0  0  0  0  0  0
 37 38  1  0
 38 36  1  0
 36 33  1  0
 33 34  1  0
 33 35  1  0
 33 32  1  0
 32 31  1  0
 31 30  1  0
 24 30  1  0
 24  1  1  0
  1  2  1  0
  2  3  2  0
  2  5  1  0
  5  6  2  0
  6  7  1  0
  7  8  2  0
  8  9  1  0
  9 10  2  0
 10 15  1  0
 15 16  1  0
 15 17  1  0
 15 18  1  0
 18 19  2  0
 18 20  1  0
 18 21  1  0
 10 11  1  0
 11 12  2  0
 12 13  1  0
 13 14  2  0
 24 25  1  0
 25 26  1  0
 25 27  2  0
 14  5  1  0
 13  8  1  0
  1  4  1  0
 20 22  1  0
 21 23  1  0
 26 28  1  0
 26 29  1  0
M  END
> <minimizedAffinity>
-7.42200

> <CNNscore>
0.7280307412

> <CNNaffinity>
6.2774596214

> <CNN_VS>
4.5701837540

> <CNNaffinity_variance>
0.0859920606

$$$$



 38 39  0  0  0  0  0  0  0  0999 V2000
  -19.0748   51.6500   19.4865 N   0  0  0  0  0  0  0  0  0  0  0  0
  -18.4952   52.8968   19.4625 C   0  0  0  0  0  0  0  0  0  0  0  0
  -17.6816   53.2827   20.2927 O   0  0  0  0  0  0  0  0  0  0  0  0
  -19.6996   51.4027   18.7669 H   0  0  0  0  0  0  0  0  0  0  0  0
  -18.9179   53.7808   18.3522 C   0  0  0  0  0  0  0  0  0  0  0  0
  -19.4902   53.2007   17.2188 C   0  0  0  0  0  0  0  0  0  0  0  0
  -19.8597   54.0050   16.1398 C   0  0  0  0  0  0  0  0  0  0  0  0
  -19.6786   55.3973   16.1878 C   0  0  0  0  0  0  0  0  0  0  0  0
  -20.0270   56.2177   15.1013 C   0  0  0  0  0  0  0  0  0  0  0  0
  -19.8488   57.6087   15.1547 C   0  0  0  0  0  0  0  0  0  0  0  0
  -19.3277   58.1791   16.3213 C   0  0  0  0  0  0  0  0  0  0  0  0
  -18.9748   57.3769   17.4084 C   0  0  0  0  0  0  0  0  0  0  0  0
  -19.1335   55.9860   17.3526 C   0  0  0  0  0  0  0  0  0  0  0  0
  -18.7567   55.1686   18.4297 C   0  0  0  0  0  0  0  0  0  0  0  0
  -20.1787   58.4714   13.9678 C   0  0  0  0  0  0  0  0  0  0  0  0
  -19.0930   58.8796   13.2536 F   0  0  0  0  0  0  0  0  0  0  0  0
  -20.8731   59.6047   14.2956 F   0  0  0  0  0  0  0  0  0  0  0  0
  -21.2518   57.7843   12.6838 P   0  0  0  0  0  0  0  0  0  0  0  0
  -22.3458   56.8465   13.0931 O   0  0  0  0  0  0  0  0  0  0  0  0
  -21.8146   59.0398   11.8330 O   0  0  0  0  0  0  0  0  0  0  0  0
  -20.3394   57.1230   11.5293 O   0  0  0  0  0  0  0  0  0  0  0  0
  -22.4048   59.5700   12.3911 H   0  0  0  0  0  0  0  0  0  0  0  0
  -19.9076   56.3262   11.8752 H   0  0  0  0  0  0  0  0  0  0  0  0
  -18.7949   50.6757   20.5464 C   0  0  0  0  0  0  0  0  0  0  0  0
  -17.6303   49.7619   20.1005 C   0  0  0  0  0  0  0  0  0  0  0  0
  -17.7339   48.4542   20.4932 N   0  0  0  0  0  0  0  0  0  0  0  0
  -16.6934   50.1221   19.3953 O   0  0  0  0  0  0  0  0  0  0  0  0
  -18.4870   48.1683   21.0591 H   0  0  0  0  0  0  0  0  0  0  0  0
  -17.0552   47.7998   20.2095 H   0  0  0  0  0  0  0  0  0  0  0  0
  -20.0726   49.8876   20.8652 C   0  0  0  0  0  0  0  0  0  0  0  0
  -19.8879   48.3716   20.9657 C   0  0  0  0  0  0  0  0  0  0  0  0
  -21.0786   47.4721   20.5936 C   0  0  0  0  0  0  0  0  0  0  0  0
  -20.9776   45.9238   20.7898 C   0  0  0  0  0  0  0  0  0  0  0  0
  -21.0441   45.6701   22.3156 C   0  0  0  0  0  0  0  0  0  0  0  0
  -22.1848   45.2005   20.1621 C   0  0  0  0  0  0  0  0  0  0  0  0
  -19.6385   45.3819   20.2182 C   0  0  0  0  0  0  0  0  0  0  0  0
  -18.7426   43.2158   21.1489 C   0  0  0  0  0  0  0  0  0  0  0  0
  -18.6906   44.7345   21.2351 C   0  0  0  0  0  0  0  0  0  0  0  0
 37 38  1  0
 38 36  1  0
 36 33  1  0
 33 34  1  0
 33 35  1  0
 33 32  1  0
 32 31  1  0
 31 30  1  0
 24 30  1  0
 24  1  1  0
  1  2  1  0
  2  3  2  0
  2  5  1  0
  5  6  2  0
  6  7  1  0
  7  8  2  0
  8  9  1  0
  9 10  2  0
 10 15  1  0
 15 16  1  0
 15 17  1  0
 15 18  1  0
 18 19  2  0
 18 20  1  0
 18 21  1  0
 10 11  1  0
 11 12  2  0
 12 13  1  0
 13 14  2  0
 24 25  1  0
 25 26  1  0
 25 27  2  0
 14  5  1  0
 13  8  1  0
  1  4  1  0
 20 22  1  0
 21 23  1  0
 26 28  1  0
 26 29  1  0
M  END
> <minimizedAffinity>
-7.44388

> <CNNscore>
0.6889957786

> <CNNaffinity>
5.9892811775

> <CNN_VS>
4.1265892982

> <CNNaffinity_variance>
0.0287579838

$$$$



 38 39  0  0  0  0  0  0  0  0999 V2000
  -19.6526   52.4594   20.2129 N   0  0  0  0  0  0  0  0  0  0  0  0
  -18.6851   52.8142   19.3024 C   0  0  0  0  0  0  0  0  0  0  0  0
  -17.5768   52.2951   19.2532 O   0  0  0  0  0  0  0  0  0  0  0  0
  -20.5302   52.9037   20.1710 H   0  0  0  0  0  0  0  0  0  0  0  0
  -19.0569   53.8910   18.3562 C   0  0  0  0  0  0  0  0  0  0  0  0
  -18.5543   55.1747   18.5761 C   0  0  0  0  0  0  0  0  0  0  0  0
  -18.9213   56.2181   17.7249 C   0  0  0  0  0  0  0  0  0  0  0  0
  -19.7785   55.9877   16.6360 C   0  0  0  0  0  0  0  0  0  0  0  0
  -20.1729   57.0322   15.7824 C   0  0  0  0  0  0  0  0  0  0  0  0
  -21.0258   56.7974   14.6930 C   0  0  0  0  0  0  0  0  0  0  0  0
  -21.4734   55.4934   14.4537 C   0  0  0  0  0  0  0  0  0  0  0  0
  -21.0919   54.4456   15.2941 C   0  0  0  0  0  0  0  0  0  0  0  0
  -20.2557   54.6785   16.3939 C   0  0  0  0  0  0  0  0  0  0  0  0
  -19.8885   53.6368   17.2600 C   0  0  0  0  0  0  0  0  0  0  0  0
  -21.4810   57.9310   13.8157 C   0  0  0  0  0  0  0  0  0  0  0  0
  -21.3655   59.1621   14.3871 F   0  0  0  0  0  0  0  0  0  0  0  0
  -22.7830   57.8149   13.4093 F   0  0  0  0  0  0  0  0  0  0  0  0
  -20.6555   58.1636   12.2230 P   0  0  0  0  0  0  0  0  0  0  0  0
  -20.4769   56.9741   11.3302 O   0  0  0  0  0  0  0  0  0  0  0  0
  -21.4274   59.3732   11.4762 O   0  0  0  0  0  0  0  0  0  0  0  0
  -19.2460   58.9113   12.4614 O   0  0  0  0  0  0  0  0  0  0  0  0
  -22.3274   59.0913   11.2495 H   0  0  0  0  0  0  0  0  0  0  0  0
  -18.6347   58.3113   12.9166 H   0  0  0  0  0  0  0  0  0  0  0  0
  -19.4230   51.4422   21.2443 C   0  0  0  0  0  0  0  0  0  0  0  0
  -18.6016   52.0648   22.3965 C   0  0  0  0  0  0  0  0  0  0  0  0
  -17.2943   51.6627   22.4622 N   0  0  0  0  0  0  0  0  0  0  0  0
  -19.0284   52.9064   23.1803 O   0  0  0  0  0  0  0  0  0  0  0  0
  -16.9548   50.9871   21.8317 H   0  0  0  0  0  0  0  0  0  0  0  0
  -16.6938   52.0493   23.1399 H   0  0  0  0  0  0  0  0  0  0  0  0
  -18.7281   50.2266   20.6159 C   0  0  0  0  0  0  0  0  0  0  0  0
  -19.1895   48.8700   21.1534 C   0  0  0  0  0  0  0  0  0  0  0  0
  -18.6128   47.6009   20.5037 C   0  0  0  0  0  0  0  0  0  0  0  0
  -18.9764   46.1942   21.0824 C   0  0  0  0  0  0  0  0  0  0  0  0
  -18.6711   46.2520   22.5991 C   0  0  0  0  0  0  0  0  0  0  0  0
  -20.4828   45.9028   20.9392 C   0  0  0  0  0  0  0  0  0  0  0  0
  -18.1230   45.0839   20.4097 C   0  0  0  0  0  0  0  0  0  0  0  0
  -17.0381   42.8357   20.7700 C   0  0  0  0  0  0  0  0  0  0  0  0
  -17.2853   44.2176   21.3582 C   0  0  0  0  0  0  0  0  0  0  0  0
 37 38  1  0
 38 36  1  0
 36 33  1  0
 33 34  1  0
 33 35  1  0
 33 32  1  0
 32 31  1  0
 31 30  1  0
 24 30  1  0
 24  1  1  0
  1  2  1  0
  2  3  2  0
  2  5  1  0
  5  6  2  0
  6  7  1  0
  7  8  2  0
  8  9  1  0
  9 10  2  0
 10 15  1  0
 15 16  1  0
 15 17  1  0
 15 18  1  0
 18 19  2  0
 18 20  1  0
 18 21  1  0
 10 11  1  0
 11 12  2  0
 12 13  1  0
 13 14  2  0
 24 25  1  0
 25 26  1  0
 25 27  2  0
 14  5  1  0
 13  8  1  0
  1  4  1  0
 20 22  1  0
 21 23  1  0
 26 28  1  0
 26 29  1  0
M  END
> <minimizedAffinity>
-8.02147

> <CNNscore>
0.6883794665

> <CNNaffinity>
6.0288090706

> <CNN_VS>
4.1501083374

> <CNNaffinity_variance>
0.0476457290

$$$$
