


 25 28  0  0  0  0  0  0  0  0999 V2000
    4.9809   11.8620   40.6747 C   0  0  0  0  0  0  0  0  0  0  0  0
    4.5467   13.0942   40.2107 C   0  0  0  0  0  0  0  0  0  0  0  0
    4.1083   14.0833   41.1038 C   0  0  0  0  0  0  0  0  0  0  0  0
    3.6409   15.4052   40.5493 C   0  0  0  0  0  0  0  0  0  0  0  0
    4.0999   13.8561   42.4847 C   0  0  0  0  0  0  0  0  0  0  0  0
    3.6658   14.8495   43.2687 N   0  0  0  0  0  0  0  0  0  0  0  0
    3.6851   14.5909   44.5800 C   0  0  0  0  0  0  0  0  0  0  0  0
    3.2945   15.4575   45.5538 N   0  0  0  0  0  0  0  0  0  0  0  0
    3.4179   14.9682   46.7990 N   0  0  0  0  0  0  0  0  0  0  0  0
    3.9080   13.7335   46.6060 C   0  0  0  0  0  0  0  0  0  0  0  0
    4.1903   12.8910   47.7957 C   0  0  0  0  0  0  0  0  0  0  0  0
    4.0914   13.4346   45.2179 C   0  0  0  0  0  0  0  0  0  0  0  0
    4.5421   12.3675   44.4035 C   0  0  0  0  0  0  0  0  0  0  0  0
    4.5479   12.6014   42.9831 C   0  0  0  0  0  0  0  0  0  0  0  0
    4.9844   11.6275   42.0472 C   0  0  0  0  0  0  0  0  0  0  0  0
    2.9527   16.3608   45.3632 H   0  0  0  0  0  0  0  0  0  0  0  0
    6.6954   10.4673   39.7975 C   0  0  0  0  0  0  0  0  0  0  0  0
    5.3744   10.9862   39.7027 O   0  0  0  0  0  0  0  0  0  0  0  0
    5.0044   11.0457   44.9908 C   0  0  0  0  0  0  0  0  0  0  0  0
    6.4613   10.9438   45.1727 N   0  0  0  0  0  0  0  0  0  0  0  0
    6.8335   10.8821   46.6024 C   0  0  0  0  0  0  0  0  0  0  0  0
    7.1657    9.4626   47.0874 C   0  0  0  0  0  0  0  0  0  0  0  0
    8.2520    8.8627   46.3705 O   0  0  0  0  0  0  0  0  0  0  0  0
    8.3858    9.3574   45.0303 C   0  0  0  0  0  0  0  0  0  0  0  0
    7.0443    9.8036   44.4302 C   0  0  0  0  0  0  0  0  0  0  0  0
 17 18  1  0
 18  1  1  0
  1  2  2  0
  2  3  1  0
  3  4  1  0
  3  5  2  0
  5  6  1  0
  6  7  2  0
  7  8  1  0
  8  9  1  0
  9 10  2  0
 10 11  1  0
 10 12  1  0
 12 13  2  0
 13 19  1  0
 19 20  1  0
 20 21  1  0
 21 22  1  0
 22 23  1  0
 23 24  1  0
 24 25  1  0
 13 14  1  0
 14 15  2  0
 15  1  1  0
 14  5  1  0
 12  7  1  0
 25 20  1  0
  8 16  1  0
M  END
> <minimizedAffinity>
-8.92674

> <CNNscore>
0.9587330818

> <CNNaffinity>
7.5327820778

> <CNN_VS>
7.2219271660

> <CNNaffinity_variance>
0.0714263767

$$$$



 25 28  0  0  0  0  0  0  0  0999 V2000
    4.3946   14.1595   43.6198 C   0  0  0  0  0  0  0  0  0  0  0  0
    3.9129   14.4682   44.8826 C   0  0  0  0  0  0  0  0  0  0  0  0
    4.3056   13.7203   46.0028 C   0  0  0  0  0  0  0  0  0  0  0  0
    3.7498   14.0924   47.3541 C   0  0  0  0  0  0  0  0  0  0  0  0
    5.1947   12.6468   45.8781 C   0  0  0  0  0  0  0  0  0  0  0  0
    5.5182   11.9835   46.9940 N   0  0  0  0  0  0  0  0  0  0  0  0
    6.3775   10.9731   46.8279 C   0  0  0  0  0  0  0  0  0  0  0  0
    6.8446   10.1720   47.8238 N   0  0  0  0  0  0  0  0  0  0  0  0
    7.7086    9.2319   47.4058 N   0  0  0  0  0  0  0  0  0  0  0  0
    7.7922    9.4456   46.0832 C   0  0  0  0  0  0  0  0  0  0  0  0
    8.6937    8.5788   45.2827 C   0  0  0  0  0  0  0  0  0  0  0  0
    6.9639   10.5328   45.6570 C   0  0  0  0  0  0  0  0  0  0  0  0
    6.6236   11.2148   44.4635 C   0  0  0  0  0  0  0  0  0  0  0  0
    5.7069   12.3172   44.5927 C   0  0  0  0  0  0  0  0  0  0  0  0
    5.2860   13.0985   43.4848 C   0  0  0  0  0  0  0  0  0  0  0  0
    6.5741   10.2723   48.7651 H   0  0  0  0  0  0  0  0  0  0  0  0
    3.7383   14.3523   41.3424 C   0  0  0  0  0  0  0  0  0  0  0  0
    3.9298   14.9595   42.6144 O   0  0  0  0  0  0  0  0  0  0  0  0
    7.1976   10.8152   43.1157 C   0  0  0  0  0  0  0  0  0  0  0  0
    6.4271    9.7733   42.4178 N   0  0  0  0  0  0  0  0  0  0  0  0
    5.6255   10.3330   41.3085 C   0  0  0  0  0  0  0  0  0  0  0  0
    6.2539   10.1073   39.9248 C   0  0  0  0  0  0  0  0  0  0  0  0
    6.4458    8.7217   39.6131 O   0  0  0  0  0  0  0  0  0  0  0  0
    6.6304    7.9015   40.7759 C   0  0  0  0  0  0  0  0  0  0  0  0
    7.2830    8.6649   41.9379 C   0  0  0  0  0  0  0  0  0  0  0  0
 17 18  1  0
 18  1  1  0
  1  2  2  0
  2  3  1  0
  3  4  1  0
  3  5  2  0
  5  6  1  0
  6  7  2  0
  7  8  1  0
  8  9  1  0
  9 10  2  0
 10 11  1  0
 10 12  1  0
 12 13  2  0
 13 19  1  0
 19 20  1  0
 20 21  1  0
 21 22  1  0
 22 23  1  0
 23 24  1  0
 24 25  1  0
 13 14  1  0
 14 15  2  0
 15  1  1  0
 14  5  1  0
 12  7  1  0
 25 20  1  0
  8 16  1  0
M  END
> <minimizedAffinity>
-8.18683

> <CNNscore>
0.8578737378

> <CNNaffinity>
7.3243050575

> <CNN_VS>
6.2833290100

> <CNNaffinity_variance>
0.0330203809

$$$$



 25 28  0  0  0  0  0  0  0  0999 V2000
    6.9293    9.2570   44.0287 C   0  0  0  0  0  0  0  0  0  0  0  0
    6.7476    9.8461   45.2705 C   0  0  0  0  0  0  0  0  0  0  0  0
    6.0599   11.0628   45.3937 C   0  0  0  0  0  0  0  0  0  0  0  0
    5.8930   11.6656   46.7655 C   0  0  0  0  0  0  0  0  0  0  0  0
    5.5365   11.7126   44.2702 C   0  0  0  0  0  0  0  0  0  0  0  0
    4.8955   12.8694   44.4721 N   0  0  0  0  0  0  0  0  0  0  0  0
    4.4042   13.4486   43.3720 C   0  0  0  0  0  0  0  0  0  0  0  0
    3.7149   14.6217   43.3472 N   0  0  0  0  0  0  0  0  0  0  0  0
    3.3152   14.9919   42.1191 N   0  0  0  0  0  0  0  0  0  0  0  0
    3.7733   14.0089   41.3281 C   0  0  0  0  0  0  0  0  0  0  0  0
    3.4921   14.0841   39.8721 C   0  0  0  0  0  0  0  0  0  0  0  0
    4.4791   13.0051   42.0657 C   0  0  0  0  0  0  0  0  0  0  0  0
    5.1650   11.7887   41.8310 C   0  0  0  0  0  0  0  0  0  0  0  0
    5.7052   11.1224   42.9871 C   0  0  0  0  0  0  0  0  0  0  0  0
    6.4060    9.8906   42.9048 C   0  0  0  0  0  0  0  0  0  0  0  0
    3.5264   15.1510   44.1556 H   0  0  0  0  0  0  0  0  0  0  0  0
    8.4884    7.8550   45.1503 C   0  0  0  0  0  0  0  0  0  0  0  0
    7.6209    8.0788   44.0455 O   0  0  0  0  0  0  0  0  0  0  0  0
    5.3198   11.2072   40.4369 C   0  0  0  0  0  0  0  0  0  0  0  0
    4.4129   10.0845   40.1482 N   0  0  0  0  0  0  0  0  0  0  0  0
    3.2636   10.5058   39.3187 C   0  0  0  0  0  0  0  0  0  0  0  0
    3.4093   10.1309   37.8359 C   0  0  0  0  0  0  0  0  0  0  0  0
    3.5536    8.7209   37.6234 O   0  0  0  0  0  0  0  0  0  0  0  0
    4.1515    8.0403   38.7362 C   0  0  0  0  0  0  0  0  0  0  0  0
    5.1142    8.9379   39.5277 C   0  0  0  0  0  0  0  0  0  0  0  0
 17 18  1  0
 18  1  1  0
  1  2  2  0
  2  3  1  0
  3  4  1  0
  3  5  2  0
  5  6  1  0
  6  7  2  0
  7  8  1  0
  8  9  1  0
  9 10  2  0
 10 11  1  0
 10 12  1  0
 12 13  2  0
 13 19  1  0
 19 20  1  0
 20 21  1  0
 21 22  1  0
 22 23  1  0
 23 24  1  0
 24 25  1  0
 13 14  1  0
 14 15  2  0
 15  1  1  0
 14  5  1  0
 12  7  1  0
 25 20  1  0
  8 16  1  0
M  END
> <minimizedAffinity>
-6.99762

> <CNNscore>
0.8150174022

> <CNNaffinity>
7.0423545837

> <CNN_VS>
5.7396416664

> <CNNaffinity_variance>
0.2998130023

$$$$



 25 28  0  0  0  0  0  0  0  0999 V2000
    6.9714    9.1953   43.6601 C   0  0  0  0  0  0  0  0  0  0  0  0
    7.6250    8.8843   44.8425 C   0  0  0  0  0  0  0  0  0  0  0  0
    7.3962    9.6325   46.0070 C   0  0  0  0  0  0  0  0  0  0  0  0
    8.1355    9.2578   47.2665 C   0  0  0  0  0  0  0  0  0  0  0  0
    6.5017   10.7088   46.0089 C   0  0  0  0  0  0  0  0  0  0  0  0
    6.3404   11.3723   47.1594 N   0  0  0  0  0  0  0  0  0  0  0  0
    5.4694   12.3854   47.1161 C   0  0  0  0  0  0  0  0  0  0  0  0
    5.1496   13.1871   48.1681 N   0  0  0  0  0  0  0  0  0  0  0  0
    4.2383   14.1302   47.8761 N   0  0  0  0  0  0  0  0  0  0  0  0
    3.9687   13.9177   46.5783 C   0  0  0  0  0  0  0  0  0  0  0  0
    2.9663   14.7878   45.9129 C   0  0  0  0  0  0  0  0  0  0  0  0
    4.7254   12.8283   46.0395 C   0  0  0  0  0  0  0  0  0  0  0  0
    4.8924   12.1461   44.8099 C   0  0  0  0  0  0  0  0  0  0  0  0
    5.8147   11.0409   44.8084 C   0  0  0  0  0  0  0  0  0  0  0  0
    6.0731   10.2591   43.6522 C   0  0  0  0  0  0  0  0  0  0  0  0
    5.5496   13.0854   49.0620 H   0  0  0  0  0  0  0  0  0  0  0  0
    8.5555    8.6025   41.9887 C   0  0  0  0  0  0  0  0  0  0  0  0
    7.2876    8.3946   42.5990 O   0  0  0  0  0  0  0  0  0  0  0  0
    4.1357   12.5484   43.5563 C   0  0  0  0  0  0  0  0  0  0  0  0
    4.9151   13.3763   42.6218 N   0  0  0  0  0  0  0  0  0  0  0  0
    4.8957   12.8233   41.2505 C   0  0  0  0  0  0  0  0  0  0  0  0
    3.9193   13.5488   40.3120 C   0  0  0  0  0  0  0  0  0  0  0  0
    4.2076   14.9455   40.1703 O   0  0  0  0  0  0  0  0  0  0  0  0
    4.8606   15.5067   41.3182 C   0  0  0  0  0  0  0  0  0  0  0  0
    4.4784   14.7908   42.6222 C   0  0  0  0  0  0  0  0  0  0  0  0
 17 18  1  0
 18  1  1  0
  1  2  2  0
  2  3  1  0
  3  4  1  0
  3  5  2  0
  5  6  1  0
  6  7  2  0
  7  8  1  0
  8  9  1  0
  9 10  2  0
 10 11  1  0
 10 12  1  0
 12 13  2  0
 13 19  1  0
 19 20  1  0
 20 21  1  0
 21 22  1  0
 22 23  1  0
 23 24  1  0
 24 25  1  0
 13 14  1  0
 14 15  2  0
 15  1  1  0
 14  5  1  0
 12  7  1  0
 25 20  1  0
  8 16  1  0
M  END
> <minimizedAffinity>
-7.72332

> <CNNscore>
0.6254976988

> <CNNaffinity>
7.4205493927

> <CNN_VS>
4.6415367126

> <CNNaffinity_variance>
0.2734704316

$$$$



 25 28  0  0  0  0  0  0  0  0999 V2000
    3.8189   14.3008   42.3704 C   0  0  0  0  0  0  0  0  0  0  0  0
    3.6971   14.3857   43.7488 C   0  0  0  0  0  0  0  0  0  0  0  0
    4.2096   13.3766   44.5778 C   0  0  0  0  0  0  0  0  0  0  0  0
    4.0474   13.5126   46.0706 C   0  0  0  0  0  0  0  0  0  0  0  0
    4.8594   12.2606   44.0386 C   0  0  0  0  0  0  0  0  0  0  0  0
    5.3183   11.3423   44.8965 N   0  0  0  0  0  0  0  0  0  0  0  0
    5.9403   10.2997   44.3369 C   0  0  0  0  0  0  0  0  0  0  0  0
    6.4870    9.2569   45.0193 N   0  0  0  0  0  0  0  0  0  0  0  0
    7.0669    8.3357   44.2318 N   0  0  0  0  0  0  0  0  0  0  0  0
    6.8780    8.8156   42.9924 C   0  0  0  0  0  0  0  0  0  0  0  0
    7.4179    8.0428   41.8453 C   0  0  0  0  0  0  0  0  0  0  0  0
    6.1622   10.0555   42.9953 C   0  0  0  0  0  0  0  0  0  0  0  0
    5.6723   11.0104   42.0715 C   0  0  0  0  0  0  0  0  0  0  0  0
    5.0018   12.1567   42.6271 C   0  0  0  0  0  0  0  0  0  0  0  0
    4.4705   13.1988   41.8231 C   0  0  0  0  0  0  0  0  0  0  0  0
    6.4600    9.1842   46.0007 H   0  0  0  0  0  0  0  0  0  0  0  0
    3.1894   15.2087   40.2647 C   0  0  0  0  0  0  0  0  0  0  0  0
    3.2719   15.3442   41.6782 O   0  0  0  0  0  0  0  0  0  0  0  0
    5.8483   10.8449   40.5723 C   0  0  0  0  0  0  0  0  0  0  0  0
    5.0258    9.7757   39.9836 N   0  0  0  0  0  0  0  0  0  0  0  0
    3.6053   10.1718   39.8751 C   0  0  0  0  0  0  0  0  0  0  0  0
    3.1955   10.5975   38.4569 C   0  0  0  0  0  0  0  0  0  0  0  0
    3.3937    9.5672   37.4806 O   0  0  0  0  0  0  0  0  0  0  0  0
    4.4494    8.6584   37.8248 C   0  0  0  0  0  0  0  0  0  0  0  0
    5.5443    9.3215   38.6735 C   0  0  0  0  0  0  0  0  0  0  0  0
 17 18  1  0
 18  1  1  0
  1  2  2  0
  2  3  1  0
  3  4  1  0
  3  5  2  0
  5  6  1  0
  6  7  2  0
  7  8  1  0
  8  9  1  0
  9 10  2  0
 10 11  1  0
 10 12  1  0
 12 13  2  0
 13 19  1  0
 19 20  1  0
 20 21  1  0
 21 22  1  0
 22 23  1  0
 23 24  1  0
 24 25  1  0
 13 14  1  0
 14 15  2  0
 15  1  1  0
 14  5  1  0
 12  7  1  0
 25 20  1  0
  8 16  1  0
M  END
> <minimizedAffinity>
-7.59427

> <CNNscore>
0.5540363789

> <CNNaffinity>
6.6363410950

> <CNN_VS>
3.6767745018

> <CNNaffinity_variance>
0.0769534335

$$$$



 25 28  0  0  0  0  0  0  0  0999 V2000
    6.9159    9.8516   46.1632 C   0  0  0  0  0  0  0  0  0  0  0  0
    6.4352   10.7165   47.1343 C   0  0  0  0  0  0  0  0  0  0  0  0
    5.6803   11.8447   46.7801 C   0  0  0  0  0  0  0  0  0  0  0  0
    5.1845   12.7576   47.8729 C   0  0  0  0  0  0  0  0  0  0  0  0
    5.3890   12.1265   45.4406 C   0  0  0  0  0  0  0  0  0  0  0  0
    4.6649   13.2222   45.1862 N   0  0  0  0  0  0  0  0  0  0  0  0
    4.4030   13.4454   43.8944 C   0  0  0  0  0  0  0  0  0  0  0  0
    3.6815   14.4938   43.4125 N   0  0  0  0  0  0  0  0  0  0  0  0
    3.5472   14.4930   42.0757 N   0  0  0  0  0  0  0  0  0  0  0  0
    4.2158   13.3941   41.6918 C   0  0  0  0  0  0  0  0  0  0  0  0
    4.2615   13.0640   40.2448 C   0  0  0  0  0  0  0  0  0  0  0  0
    4.7871   12.6927   42.8014 C   0  0  0  0  0  0  0  0  0  0  0  0
    5.5651   11.5359   43.0503 C   0  0  0  0  0  0  0  0  0  0  0  0
    5.8663   11.2485   44.4283 C   0  0  0  0  0  0  0  0  0  0  0  0
    6.6256   10.1176   44.8277 C   0  0  0  0  0  0  0  0  0  0  0  0
    3.2933   15.1895   43.9909 H   0  0  0  0  0  0  0  0  0  0  0  0
    8.2088    7.9161   45.6769 C   0  0  0  0  0  0  0  0  0  0  0  0
    7.6417    8.7965   46.6395 O   0  0  0  0  0  0  0  0  0  0  0  0
    6.0529   10.6365   41.9283 C   0  0  0  0  0  0  0  0  0  0  0  0
    7.1168    9.7004   42.3258 N   0  0  0  0  0  0  0  0  0  0  0  0
    6.8551    8.3305   41.8346 C   0  0  0  0  0  0  0  0  0  0  0  0
    7.6711    7.9620   40.5861 C   0  0  0  0  0  0  0  0  0  0  0  0
    9.0866    8.0427   40.7948 O   0  0  0  0  0  0  0  0  0  0  0  0
    9.4556    8.9958   41.8020 C   0  0  0  0  0  0  0  0  0  0  0  0
    8.4594   10.1603   41.9044 C   0  0  0  0  0  0  0  0  0  0  0  0
 17 18  1  0
 18  1  1  0
  1  2  2  0
  2  3  1  0
  3  4  1  0
  3  5  2  0
  5  6  1  0
  6  7  2  0
  7  8  1  0
  8  9  1  0
  9 10  2  0
 10 11  1  0
 10 12  1  0
 12 13  2  0
 13 19  1  0
 19 20  1  0
 20 21  1  0
 21 22  1  0
 22 23  1  0
 23 24  1  0
 24 25  1  0
 13 14  1  0
 14 15  2  0
 15  1  1  0
 14  5  1  0
 12  7  1  0
 25 20  1  0
  8 16  1  0
M  END
> <minimizedAffinity>
-7.43345

> <CNNscore>
0.5269439220

> <CNNaffinity>
6.8728852272

> <CNN_VS>
3.6216251850

> <CNNaffinity_variance>
0.2505498827

$$$$



 25 28  0  0  0  0  0  0  0  0999 V2000
    5.9394   11.5423   46.5716 C   0  0  0  0  0  0  0  0  0  0  0  0
    5.2304   12.7162   46.7752 C   0  0  0  0  0  0  0  0  0  0  0  0
    4.6430   13.3957   45.6975 C   0  0  0  0  0  0  0  0  0  0  0  0
    3.8867   14.6712   45.9701 C   0  0  0  0  0  0  0  0  0  0  0  0
    4.7529   12.9074   44.3906 C   0  0  0  0  0  0  0  0  0  0  0  0
    4.1656   13.6147   43.4185 N   0  0  0  0  0  0  0  0  0  0  0  0
    4.2883   13.1050   42.1889 C   0  0  0  0  0  0  0  0  0  0  0  0
    3.7666   13.6552   41.0588 N   0  0  0  0  0  0  0  0  0  0  0  0
    4.0172   12.9484   39.9440 N   0  0  0  0  0  0  0  0  0  0  0  0
    4.7322   11.9023   40.3873 C   0  0  0  0  0  0  0  0  0  0  0  0
    5.1762   10.8820   39.4041 C   0  0  0  0  0  0  0  0  0  0  0  0
    4.9428   11.9513   41.8025 C   0  0  0  0  0  0  0  0  0  0  0  0
    5.5812   11.1962   42.8162 C   0  0  0  0  0  0  0  0  0  0  0  0
    5.4698   11.7007   44.1597 C   0  0  0  0  0  0  0  0  0  0  0  0
    6.0485   11.0429   45.2766 C   0  0  0  0  0  0  0  0  0  0  0  0
    3.2524   14.4947   41.0581 H   0  0  0  0  0  0  0  0  0  0  0  0
    7.2786    9.8286   47.5329 C   0  0  0  0  0  0  0  0  0  0  0  0
    6.4665   10.9841   47.7018 O   0  0  0  0  0  0  0  0  0  0  0  0
    6.3387    9.9161   42.5107 C   0  0  0  0  0  0  0  0  0  0  0  0
    7.7806   10.1082   42.2863 N   0  0  0  0  0  0  0  0  0  0  0  0
    8.5942    9.3435   43.2557 C   0  0  0  0  0  0  0  0  0  0  0  0
    9.1744    8.0440   42.6769 C   0  0  0  0  0  0  0  0  0  0  0  0
   10.0178    8.2619   41.5390 O   0  0  0  0  0  0  0  0  0  0  0  0
    9.6766    9.4444   40.8013 C   0  0  0  0  0  0  0  0  0  0  0  0
    8.1829    9.7887   40.8979 C   0  0  0  0  0  0  0  0  0  0  0  0
 17 18  1  0
 18  1  1  0
  1  2  2  0
  2  3  1  0
  3  4  1  0
  3  5  2  0
  5  6  1  0
  6  7  2  0
  7  8  1  0
  8  9  1  0
  9 10  2  0
 10 11  1  0
 10 12  1  0
 12 13  2  0
 13 19  1  0
 19 20  1  0
 20 21  1  0
 21 22  1  0
 22 23  1  0
 23 24  1  0
 24 25  1  0
 13 14  1  0
 14 15  2  0
 15  1  1  0
 14  5  1  0
 12  7  1  0
 25 20  1  0
  8 16  1  0
M  END
> <minimizedAffinity>
-7.60452

> <CNNscore>
0.4194700420

> <CNNaffinity>
6.5459656715

> <CNN_VS>
2.7458364964

> <CNNaffinity_variance>
0.1227965280

$$$$



 25 28  0  0  0  0  0  0  0  0999 V2000
    4.4020   13.1639   42.1697 C   0  0  0  0  0  0  0  0  0  0  0  0
    3.9269   13.9853   43.1805 C   0  0  0  0  0  0  0  0  0  0  0  0
    4.2270   13.7163   44.5243 C   0  0  0  0  0  0  0  0  0  0  0  0
    3.6823   14.6365   45.5872 C   0  0  0  0  0  0  0  0  0  0  0  0
    5.0151   12.6162   44.8813 C   0  0  0  0  0  0  0  0  0  0  0  0
    5.2543   12.4281   46.1841 N   0  0  0  0  0  0  0  0  0  0  0  0
    6.0193   11.3717   46.4766 C   0  0  0  0  0  0  0  0  0  0  0  0
    6.3910   10.9988   47.7315 N   0  0  0  0  0  0  0  0  0  0  0  0
    7.1719    9.9061   47.7655 N   0  0  0  0  0  0  0  0  0  0  0  0
    7.3003    9.5693   46.4724 C   0  0  0  0  0  0  0  0  0  0  0  0
    8.1327    8.3888   46.1286 C   0  0  0  0  0  0  0  0  0  0  0  0
    6.5846   10.4582   45.6078 C   0  0  0  0  0  0  0  0  0  0  0  0
    6.3319   10.6339   44.2256 C   0  0  0  0  0  0  0  0  0  0  0  0
    5.5190   11.7643   43.8598 C   0  0  0  0  0  0  0  0  0  0  0  0
    5.1936   12.0710   42.5126 C   0  0  0  0  0  0  0  0  0  0  0  0
    6.1129   11.4855   48.5408 H   0  0  0  0  0  0  0  0  0  0  0  0
    3.2864   14.7357   40.7772 C   0  0  0  0  0  0  0  0  0  0  0  0
    4.0326   13.5317   40.9068 O   0  0  0  0  0  0  0  0  0  0  0  0
    6.8920    9.6884   43.1778 C   0  0  0  0  0  0  0  0  0  0  0  0
    8.0133   10.2438   42.4030 N   0  0  0  0  0  0  0  0  0  0  0  0
    9.2820   10.1957   43.1609 C   0  0  0  0  0  0  0  0  0  0  0  0
   10.2028    9.0400   42.7400 C   0  0  0  0  0  0  0  0  0  0  0  0
   10.5715    9.0896   41.3560 O   0  0  0  0  0  0  0  0  0  0  0  0
    9.5923    9.7407   40.5336 C   0  0  0  0  0  0  0  0  0  0  0  0
    8.1664    9.5896   41.0838 C   0  0  0  0  0  0  0  0  0  0  0  0
 17 18  1  0
 18  1  1  0
  1  2  2  0
  2  3  1  0
  3  4  1  0
  3  5  2  0
  5  6  1  0
  6  7  2  0
  7  8  1  0
  8  9  1  0
  9 10  2  0
 10 11  1  0
 10 12  1  0
 12 13  2  0
 13 19  1  0
 19 20  1  0
 20 21  1  0
 21 22  1  0
 22 23  1  0
 23 24  1  0
 24 25  1  0
 13 14  1  0
 14 15  2  0
 15  1  1  0
 14  5  1  0
 12  7  1  0
 25 20  1  0
  8 16  1  0
M  END
> <minimizedAffinity>
-8.67923

> <CNNscore>
0.2899368703

> <CNNaffinity>
6.2061839104

> <CNN_VS>
1.7994015217

> <CNNaffinity_variance>
0.1202927828

$$$$



 25 28  0  0  0  0  0  0  0  0999 V2000
    2.2525   18.3570   34.0548 C   0  0  0  0  0  0  0  0  0  0  0  0
    3.0547   19.2346   34.7677 C   0  0  0  0  0  0  0  0  0  0  0  0
    3.5090   18.9077   36.0541 C   0  0  0  0  0  0  0  0  0  0  0  0
    4.3749   19.8982   36.7908 C   0  0  0  0  0  0  0  0  0  0  0  0
    3.1692   17.6884   36.6511 C   0  0  0  0  0  0  0  0  0  0  0  0
    3.6414   17.4530   37.8805 N   0  0  0  0  0  0  0  0  0  0  0  0
    3.2995   16.2724   38.4063 C   0  0  0  0  0  0  0  0  0  0  0  0
    3.6731   15.8267   39.6365 N   0  0  0  0  0  0  0  0  0  0  0  0
    3.2108   14.6009   39.9345 N   0  0  0  0  0  0  0  0  0  0  0  0
    2.5103   14.2537   38.8433 C   0  0  0  0  0  0  0  0  0  0  0  0
    1.8584   12.9199   38.8165 C   0  0  0  0  0  0  0  0  0  0  0  0
    2.5241   15.2775   37.8427 C   0  0  0  0  0  0  0  0  0  0  0  0
    2.0048   15.5143   36.5467 C   0  0  0  0  0  0  0  0  0  0  0  0
    2.3530   16.7699   35.9346 C   0  0  0  0  0  0  0  0  0  0  0  0
    1.9145   17.1375   34.6356 C   0  0  0  0  0  0  0  0  0  0  0  0
    4.2313   16.3544   40.2523 H   0  0  0  0  0  0  0  0  0  0  0  0
    1.5350   17.8071   31.8554 C   0  0  0  0  0  0  0  0  0  0  0  0
    1.8731   18.7978   32.8184 O   0  0  0  0  0  0  0  0  0  0  0  0
    1.1326   14.4985   35.8304 C   0  0  0  0  0  0  0  0  0  0  0  0
   -0.1780   14.2774   36.4628 N   0  0  0  0  0  0  0  0  0  0  0  0
   -1.0140   15.4966   36.4353 C   0  0  0  0  0  0  0  0  0  0  0  0
   -2.0878   15.4775   35.3367 C   0  0  0  0  0  0  0  0  0  0  0  0
   -2.9982   14.3774   35.4585 O   0  0  0  0  0  0  0  0  0  0  0  0
   -2.4187   13.2335   36.1024 C   0  0  0  0  0  0  0  0  0  0  0  0
   -0.9039   13.1312   35.8706 C   0  0  0  0  0  0  0  0  0  0  0  0
 17 18  1  0
 18  1  1  0
  1  2  2  0
  2  3  1  0
  3  4  1  0
  3  5  2  0
  5  6  1  0
  6  7  2  0
  7  8  1  0
  8  9  1  0
  9 10  2  0
 10 11  1  0
 10 12  1  0
 12 13  2  0
 13 19  1  0
 19 20  1  0
 20 21  1  0
 21 22  1  0
 22 23  1  0
 23 24  1  0
 24 25  1  0
 13 14  1  0
 14 15  2  0
 15  1  1  0
 14  5  1  0
 12  7  1  0
 25 20  1  0
  8 16  1  0
M  END
> <minimizedAffinity>
-7.40696

> <CNNscore>
0.2823919654

> <CNNaffinity>
4.8072915077

> <CNN_VS>
1.3575404882

> <CNNaffinity_variance>
0.2631674707

$$$$
