


 20 21  0  0  0  0  0  0  0  0999 V2000
    2.2083    6.1274    9.6347 N   0  0  0  0  0  0  0  0  0  0  0  0
    0.9520    5.6497    9.8078 C   0  0  0  0  0  0  0  0  0  0  0  0
    0.7637    4.4187   10.1617 N   0  0  0  0  0  0  0  0  0  0  0  0
   -0.5332    3.9890   10.3283 C   0  0  0  0  0  0  0  0  0  0  0  0
   -1.6041    4.7701   10.1283 C   0  0  0  0  0  0  0  0  0  0  0  0
   -1.3758    6.1603    9.7157 C   0  0  0  0  0  0  0  0  0  0  0  0
   -2.3064    6.9251    9.4928 O   0  0  0  0  0  0  0  0  0  0  0  0
   -0.0681    6.5238    9.6021 N   0  0  0  0  0  0  0  0  0  0  0  0
    2.9831    5.5356    9.7711 H   0  0  0  0  0  0  0  0  0  0  0  0
    2.3461    7.0663    9.3725 H   0  0  0  0  0  0  0  0  0  0  0  0
    0.1461    7.4543    9.3621 H   0  0  0  0  0  0  0  0  0  0  0  0
   -0.6931    2.5411   10.7326 C   0  0  0  0  0  0  0  0  0  0  0  0
   -1.7278    2.3714   11.8498 C   0  0  0  0  0  0  0  0  0  0  0  0
   -2.9115    1.5520   11.3929 C   0  0  0  0  0  0  0  0  0  0  0  0
   -4.1746    2.1462   11.2621 C   0  0  0  0  0  0  0  0  0  0  0  0
   -5.2751    1.3881   10.8572 C   0  0  0  0  0  0  0  0  0  0  0  0
   -5.1162    0.0311   10.5851 C   0  0  0  0  0  0  0  0  0  0  0  0
   -6.6053   -0.9967   10.0372 Br  0  0  0  0  0  0  0  0  0  0  0  0
   -3.8683   -0.5748   10.7156 C   0  0  0  0  0  0  0  0  0  0  0  0
   -2.7684    0.1844   11.1209 C   0  0  0  0  0  0  0  0  0  0  0  0
  1  2  1  0
  2  3  2  0
  3  4  1  0
  4 12  1  0
 12 13  1  0
 13 14  1  0
 14 15  2  0
 15 16  1  0
 16 17  2  0
 17 18  1  0
 17 19  1  0
 19 20  2  0
  4  5  2  0
  5  6  1  0
  6  7  2  0
  6  8  1  0
  8  2  1  0
 20 14  1  0
  1  9  1  0
  1 10  1  0
  8 11  1  0
M  END
> <minimizedAffinity>
-8.40189

> <CNNscore>
0.8473144770

> <CNNaffinity>
5.1874403954

> <CNN_VS>
4.3953933716

> <CNNaffinity_variance>
0.8919797540

$$$$



 20 21  0  0  0  0  0  0  0  0999 V2000
   -1.2471    5.0073    8.9198 N   0  0  0  0  0  0  0  0  0  0  0  0
   -2.0247    5.5390    7.9455 C   0  0  0  0  0  0  0  0  0  0  0  0
   -2.3390    6.7945    7.9722 N   0  0  0  0  0  0  0  0  0  0  0  0
   -3.1266    7.2818    6.9541 C   0  0  0  0  0  0  0  0  0  0  0  0
   -3.5950    6.5243    5.9522 C   0  0  0  0  0  0  0  0  0  0  0  0
   -3.2404    5.0998    5.9412 C   0  0  0  0  0  0  0  0  0  0  0  0
   -3.6506    4.3426    5.0701 O   0  0  0  0  0  0  0  0  0  0  0  0
   -2.4329    4.6957    6.9610 N   0  0  0  0  0  0  0  0  0  0  0  0
   -0.9243    5.5749    9.6565 H   0  0  0  0  0  0  0  0  0  0  0  0
   -1.0051    4.0535    8.8908 H   0  0  0  0  0  0  0  0  0  0  0  0
   -2.1339    3.7580    6.9857 H   0  0  0  0  0  0  0  0  0  0  0  0
   -3.4696    8.7515    7.0418 C   0  0  0  0  0  0  0  0  0  0  0  0
   -2.4737    9.6174    6.2635 C   0  0  0  0  0  0  0  0  0  0  0  0
   -1.5709   10.3973    7.1899 C   0  0  0  0  0  0  0  0  0  0  0  0
   -0.4394    9.7894    7.7519 C   0  0  0  0  0  0  0  0  0  0  0  0
    0.3877   10.5015    8.6228 C   0  0  0  0  0  0  0  0  0  0  0  0
    0.0834   11.8240    8.9374 C   0  0  0  0  0  0  0  0  0  0  0  0
    1.2022   12.7893   10.1167 Br  0  0  0  0  0  0  0  0  0  0  0  0
   -1.0404   12.4402    8.3909 C   0  0  0  0  0  0  0  0  0  0  0  0
   -1.8672   11.7269    7.5202 C   0  0  0  0  0  0  0  0  0  0  0  0
  1  2  1  0
  2  3  2  0
  3  4  1  0
  4 12  1  0
 12 13  1  0
 13 14  1  0
 14 15  2  0
 15 16  1  0
 16 17  2  0
 17 18  1  0
 17 19  1  0
 19 20  2  0
  4  5  2  0
  5  6  1  0
  6  7  2  0
  6  8  1  0
  8  2  1  0
 20 14  1  0
  1  9  1  0
  1 10  1  0
  8 11  1  0
M  END
> <minimizedAffinity>
-6.00850

> <CNNscore>
0.5954537392

> <CNNaffinity>
4.6724605560

> <CNN_VS>
2.7822341919

> <CNNaffinity_variance>
0.1695541292

$$$$



 20 21  0  0  0  0  0  0  0  0999 V2000
    1.0648    8.4943    8.1107 N   0  0  0  0  0  0  0  0  0  0  0  0
    0.3747    9.6605    8.1216 C   0  0  0  0  0  0  0  0  0  0  0  0
   -0.8102    9.7239    7.6038 N   0  0  0  0  0  0  0  0  0  0  0  0
   -1.4671   10.9325    7.6479 C   0  0  0  0  0  0  0  0  0  0  0  0
   -0.9397   12.0436    8.1812 C   0  0  0  0  0  0  0  0  0  0  0  0
    0.4093   11.9598    8.7540 C   0  0  0  0  0  0  0  0  0  0  0  0
    0.9635   12.9393    9.2378 O   0  0  0  0  0  0  0  0  0  0  0  0
    0.9847   10.7263    8.7039 N   0  0  0  0  0  0  0  0  0  0  0  0
    0.6684    7.6916    7.7012 H   0  0  0  0  0  0  0  0  0  0  0  0
    1.9626    8.4498    8.5123 H   0  0  0  0  0  0  0  0  0  0  0  0
    1.8755   10.6022    9.1044 H   0  0  0  0  0  0  0  0  0  0  0  0
   -2.8423   10.9500    7.0202 C   0  0  0  0  0  0  0  0  0  0  0  0
   -2.8637   10.2223    5.6721 C   0  0  0  0  0  0  0  0  0  0  0  0
   -3.8802    9.1052    5.6582 C   0  0  0  0  0  0  0  0  0  0  0  0
   -5.2513    9.3964    5.6920 C   0  0  0  0  0  0  0  0  0  0  0  0
   -6.1938    8.3662    5.6973 C   0  0  0  0  0  0  0  0  0  0  0  0
   -5.7675    7.0402    5.6724 C   0  0  0  0  0  0  0  0  0  0  0  0
   -7.0425    5.6444    5.6799 Br  0  0  0  0  0  0  0  0  0  0  0  0
   -4.4083    6.7350    5.6439 C   0  0  0  0  0  0  0  0  0  0  0  0
   -3.4665    7.7661    5.6390 C   0  0  0  0  0  0  0  0  0  0  0  0
  1  2  1  0
  2  3  2  0
  3  4  1  0
  4 12  1  0
 12 13  1  0
 13 14  1  0
 14 15  2  0
 15 16  1  0
 16 17  2  0
 17 18  1  0
 17 19  1  0
 19 20  2  0
  4  5  2  0
  5  6  1  0
  6  7  2  0
  6  8  1  0
  8  2  1  0
 20 14  1  0
  1  9  1  0
  1 10  1  0
  8 11  1  0
M  END
> <minimizedAffinity>
-5.71171

> <CNNscore>
0.5943039656

> <CNNaffinity>
4.5591979027

> <CNN_VS>
2.7095494270

> <CNNaffinity_variance>
0.4029312432

$$$$



 20 21  0  0  0  0  0  0  0  0999 V2000
    0.5833    0.8065    9.5071 N   0  0  0  0  0  0  0  0  0  0  0  0
   -0.4477    1.5461    9.9830 C   0  0  0  0  0  0  0  0  0  0  0  0
   -1.5433    0.9715   10.3644 N   0  0  0  0  0  0  0  0  0  0  0  0
   -2.5553    1.7713   10.8444 C   0  0  0  0  0  0  0  0  0  0  0  0
   -2.4710    3.1070   10.9211 C   0  0  0  0  0  0  0  0  0  0  0  0
   -1.2273    3.7459   10.4740 C   0  0  0  0  0  0  0  0  0  0  0  0
   -1.0873    4.9627   10.4938 O   0  0  0  0  0  0  0  0  0  0  0  0
   -0.2590    2.8907   10.0423 N   0  0  0  0  0  0  0  0  0  0  0  0
    0.4987   -0.1723    9.4433 H   0  0  0  0  0  0  0  0  0  0  0  0
    1.4169    1.2479    9.2252 H   0  0  0  0  0  0  0  0  0  0  0  0
    0.6096    3.2603    9.7629 H   0  0  0  0  0  0  0  0  0  0  0  0
   -3.8137    1.0474   11.2660 C   0  0  0  0  0  0  0  0  0  0  0  0
   -5.0759    1.7630   10.7737 C   0  0  0  0  0  0  0  0  0  0  0  0
   -5.9211    0.8648    9.9017 C   0  0  0  0  0  0  0  0  0  0  0  0
   -7.2107    1.2604    9.5195 C   0  0  0  0  0  0  0  0  0  0  0  0
   -8.0020    0.4251    8.7283 C   0  0  0  0  0  0  0  0  0  0  0  0
   -7.5067   -0.8111    8.3196 C   0  0  0  0  0  0  0  0  0  0  0  0
   -8.5771   -1.9432    7.2486 Br  0  0  0  0  0  0  0  0  0  0  0  0
   -6.2291   -1.2203    8.6957 C   0  0  0  0  0  0  0  0  0  0  0  0
   -5.4387   -0.3843    9.4873 C   0  0  0  0  0  0  0  0  0  0  0  0
  1  2  1  0
  2  3  2  0
  3  4  1  0
  4 12  1  0
 12 13  1  0
 13 14  1  0
 14 15  2  0
 15 16  1  0
 16 17  2  0
 17 18  1  0
 17 19  1  0
 19 20  2  0
  4  5  2  0
  5  6  1  0
  6  7  2  0
  6  8  1  0
  8  2  1  0
 20 14  1  0
  1  9  1  0
  1 10  1  0
  8 11  1  0
M  END
> <minimizedAffinity>
-5.96263

> <CNNscore>
0.5474595428

> <CNNaffinity>
5.3863940239

> <CNN_VS>
2.9488327503

> <CNNaffinity_variance>
0.0273553673

$$$$



 20 21  0  0  0  0  0  0  0  0999 V2000
    1.9735    4.8466    9.1975 N   0  0  0  0  0  0  0  0  0  0  0  0
    0.7759    5.4806    9.2014 C   0  0  0  0  0  0  0  0  0  0  0  0
    0.6850    6.7088    8.8023 N   0  0  0  0  0  0  0  0  0  0  0  0
   -0.5572    7.3010    8.8224 C   0  0  0  0  0  0  0  0  0  0  0  0
   -1.6672    6.6805    9.2464 C   0  0  0  0  0  0  0  0  0  0  0  0
   -1.5472    5.2919    9.7072 C   0  0  0  0  0  0  0  0  0  0  0  0
   -2.5141    4.6696   10.1296 O   0  0  0  0  0  0  0  0  0  0  0  0
   -0.2952    4.7613    9.6288 N   0  0  0  0  0  0  0  0  0  0  0  0
    2.7814    5.3223    8.8972 H   0  0  0  0  0  0  0  0  0  0  0  0
    2.0357    3.9102    9.4952 H   0  0  0  0  0  0  0  0  0  0  0  0
   -0.1611    3.8221    9.8915 H   0  0  0  0  0  0  0  0  0  0  0  0
   -0.6017    8.7380    8.3549 C   0  0  0  0  0  0  0  0  0  0  0  0
    0.7792    9.2399    7.9205 C   0  0  0  0  0  0  0  0  0  0  0  0
    1.0781   10.6079    8.4866 C   0  0  0  0  0  0  0  0  0  0  0  0
    2.3297   10.8790    9.0573 C   0  0  0  0  0  0  0  0  0  0  0  0
    2.6037   12.1371    9.5978 C   0  0  0  0  0  0  0  0  0  0  0  0
    1.6245   13.1276    9.5724 C   0  0  0  0  0  0  0  0  0  0  0  0
    1.9940   14.8312   10.3041 Br  0  0  0  0  0  0  0  0  0  0  0  0
    0.3742   12.8717    9.0133 C   0  0  0  0  0  0  0  0  0  0  0  0
    0.1011   11.6130    8.4733 C   0  0  0  0  0  0  0  0  0  0  0  0
  1  2  1  0
  2  3  2  0
  3  4  1  0
  4 12  1  0
 12 13  1  0
 13 14  1  0
 14 15  2  0
 15 16  1  0
 16 17  2  0
 17 18  1  0
 17 19  1  0
 19 20  2  0
  4  5  2  0
  5  6  1  0
  6  7  2  0
  6  8  1  0
  8  2  1  0
 20 14  1  0
  1  9  1  0
  1 10  1  0
  8 11  1  0
M  END
> <minimizedAffinity>
-6.56635

> <CNNscore>
0.4973349273

> <CNNaffinity>
4.4932827950

> <CNN_VS>
2.2346665859

> <CNNaffinity_variance>
0.7546231151

$$$$



 20 21  0  0  0  0  0  0  0  0999 V2000
    2.2790    5.6977    9.6003 N   0  0  0  0  0  0  0  0  0  0  0  0
    2.1865    6.9044   10.2101 C   0  0  0  0  0  0  0  0  0  0  0  0
    2.4436    7.9901    9.5536 N   0  0  0  0  0  0  0  0  0  0  0  0
    2.3281    9.1879   10.2217 C   0  0  0  0  0  0  0  0  0  0  0  0
    1.9813    9.2858   11.5128 C   0  0  0  0  0  0  0  0  0  0  0  0
    1.7042    8.0457   12.2480 C   0  0  0  0  0  0  0  0  0  0  0  0
    1.4041    8.0565   13.4355 O   0  0  0  0  0  0  0  0  0  0  0  0
    1.8069    6.9022   11.5151 N   0  0  0  0  0  0  0  0  0  0  0  0
    2.5499    5.6432    8.6554 H   0  0  0  0  0  0  0  0  0  0  0  0
    2.0753    4.8756   10.1022 H   0  0  0  0  0  0  0  0  0  0  0  0
    1.5984    6.0422   11.9467 H   0  0  0  0  0  0  0  0  0  0  0  0
    2.6494   10.4212    9.4086 C   0  0  0  0  0  0  0  0  0  0  0  0
    1.6871   10.5938    8.2290 C   0  0  0  0  0  0  0  0  0  0  0  0
    0.5503   11.5282    8.5696 C   0  0  0  0  0  0  0  0  0  0  0  0
    0.7010   12.4849    9.5835 C   0  0  0  0  0  0  0  0  0  0  0  0
   -0.3536   13.3386    9.9135 C   0  0  0  0  0  0  0  0  0  0  0  0
   -1.5644   13.2356    9.2324 C   0  0  0  0  0  0  0  0  0  0  0  0
   -2.9930   14.3906    9.6784 Br  0  0  0  0  0  0  0  0  0  0  0  0
   -1.7310   12.2865    8.2260 C   0  0  0  0  0  0  0  0  0  0  0  0
   -0.6757   11.4330    7.8970 C   0  0  0  0  0  0  0  0  0  0  0  0
  1  2  1  0
  2  3  2  0
  3  4  1  0
  4 12  1  0
 12 13  1  0
 13 14  1  0
 14 15  2  0
 15 16  1  0
 16 17  2  0
 17 18  1  0
 17 19  1  0
 19 20  2  0
  4  5  2  0
  5  6  1  0
  6  7  2  0
  6  8  1  0
  8  2  1  0
 20 14  1  0
  1  9  1  0
  1 10  1  0
  8 11  1  0
M  END
> <minimizedAffinity>
-6.10468

> <CNNscore>
0.4645395279

> <CNNaffinity>
4.3983817101

> <CNN_VS>
2.0432221889

> <CNNaffinity_variance>
0.7041617036

$$$$



 20 21  0  0  0  0  0  0  0  0999 V2000
    1.0547    4.6083    9.9152 N   0  0  0  0  0  0  0  0  0  0  0  0
    1.0846    5.9623    9.9642 C   0  0  0  0  0  0  0  0  0  0  0  0
    1.4769    6.5692   11.0383 N   0  0  0  0  0  0  0  0  0  0  0  0
    1.4924    7.9454   11.0298 C   0  0  0  0  0  0  0  0  0  0  0  0
    1.1091    8.6843    9.9791 C   0  0  0  0  0  0  0  0  0  0  0  0
    0.6553    7.9828    8.7720 C   0  0  0  0  0  0  0  0  0  0  0  0
    0.2691    8.5922    7.7821 O   0  0  0  0  0  0  0  0  0  0  0  0
    0.6974    6.6232    8.8415 N   0  0  0  0  0  0  0  0  0  0  0  0
    1.3253    4.0813   10.7015 H   0  0  0  0  0  0  0  0  0  0  0  0
    0.7625    4.1518    9.0934 H   0  0  0  0  0  0  0  0  0  0  0  0
    0.4377    6.0998    8.0491 H   0  0  0  0  0  0  0  0  0  0  0  0
    1.9500    8.5998   12.3134 C   0  0  0  0  0  0  0  0  0  0  0  0
    2.4398    7.5696   13.3363 C   0  0  0  0  0  0  0  0  0  0  0  0
    2.9811    8.2336   14.5802 C   0  0  0  0  0  0  0  0  0  0  0  0
    4.2403    7.8754   15.0821 C   0  0  0  0  0  0  0  0  0  0  0  0
    4.7365    8.4741   16.2418 C   0  0  0  0  0  0  0  0  0  0  0  0
    3.9726    9.4312   16.9059 C   0  0  0  0  0  0  0  0  0  0  0  0
    4.6431   10.2423   18.4765 Br  0  0  0  0  0  0  0  0  0  0  0  0
    2.7173    9.7938   16.4223 C   0  0  0  0  0  0  0  0  0  0  0  0
    2.2218    9.1942   15.2625 C   0  0  0  0  0  0  0  0  0  0  0  0
  1  2  1  0
  2  3  2  0
  3  4  1  0
  4 12  1  0
 12 13  1  0
 13 14  1  0
 14 15  2  0
 15 16  1  0
 16 17  2  0
 17 18  1  0
 17 19  1  0
 19 20  2  0
  4  5  2  0
  5  6  1  0
  6  7  2  0
  6  8  1  0
  8  2  1  0
 20 14  1  0
  1  9  1  0
  1 10  1  0
  8 11  1  0
M  END
> <minimizedAffinity>
-6.52265

> <CNNscore>
0.4609280527

> <CNNaffinity>
4.3240642548

> <CNN_VS>
1.9930825233

> <CNNaffinity_variance>
0.6181483865

$$$$



 20 21  0  0  0  0  0  0  0  0999 V2000
   -0.1425    3.0292   10.2635 N   0  0  0  0  0  0  0  0  0  0  0  0
   -0.1531    4.3707   10.0716 C   0  0  0  0  0  0  0  0  0  0  0  0
    0.9041    5.0751   10.3206 N   0  0  0  0  0  0  0  0  0  0  0  0
    0.8383    6.4324   10.1023 C   0  0  0  0  0  0  0  0  0  0  0  0
   -0.2621    7.0599    9.6635 C   0  0  0  0  0  0  0  0  0  0  0  0
   -1.4570    6.2500    9.3965 C   0  0  0  0  0  0  0  0  0  0  0  0
   -2.5048    6.7576    9.0155 O   0  0  0  0  0  0  0  0  0  0  0  0
   -1.3087    4.9121    9.6040 N   0  0  0  0  0  0  0  0  0  0  0  0
    0.6696    2.5866   10.6009 H   0  0  0  0  0  0  0  0  0  0  0  0
   -0.9469    2.4973   10.0656 H   0  0  0  0  0  0  0  0  0  0  0  0
   -2.0666    4.3151    9.4079 H   0  0  0  0  0  0  0  0  0  0  0  0
    2.0983    7.2053   10.4190 C   0  0  0  0  0  0  0  0  0  0  0  0
    1.7905    8.5521   11.0815 C   0  0  0  0  0  0  0  0  0  0  0  0
    2.3053    8.6055   12.5004 C   0  0  0  0  0  0  0  0  0  0  0  0
    3.2916    9.5347   12.8602 C   0  0  0  0  0  0  0  0  0  0  0  0
    3.7830    9.5753   14.1667 C   0  0  0  0  0  0  0  0  0  0  0  0
    3.2915    8.6834   15.1172 C   0  0  0  0  0  0  0  0  0  0  0  0
    3.9561    8.7370   16.8863 Br  0  0  0  0  0  0  0  0  0  0  0  0
    2.3150    7.7508   14.7735 C   0  0  0  0  0  0  0  0  0  0  0  0
    1.8245    7.7109   13.4665 C   0  0  0  0  0  0  0  0  0  0  0  0
  1  2  1  0
  2  3  2  0
  3  4  1  0
  4 12  1  0
 12 13  1  0
 13 14  1  0
 14 15  2  0
 15 16  1  0
 16 17  2  0
 17 18  1  0
 17 19  1  0
 19 20  2  0
  4  5  2  0
  5  6  1  0
  6  7  2  0
  6  8  1  0
  8  2  1  0
 20 14  1  0
  1  9  1  0
  1 10  1  0
  8 11  1  0
M  END
> <minimizedAffinity>
-6.58101

> <CNNscore>
0.4594410360

> <CNNaffinity>
4.7868485451

> <CNN_VS>
2.1992745399

> <CNNaffinity_variance>
0.2409807295

$$$$



 20 21  0  0  0  0  0  0  0  0999 V2000
    0.1332    1.1307    9.9450 N   0  0  0  0  0  0  0  0  0  0  0  0
   -1.2048    1.3440    9.9202 C   0  0  0  0  0  0  0  0  0  0  0  0
   -2.0242    0.3953   10.2435 N   0  0  0  0  0  0  0  0  0  0  0  0
   -3.3723    0.6696   10.2058 C   0  0  0  0  0  0  0  0  0  0  0  0
   -3.8771    1.8558    9.8381 C   0  0  0  0  0  0  0  0  0  0  0  0
   -2.9367    2.9186    9.4628 C   0  0  0  0  0  0  0  0  0  0  0  0
   -3.3261    4.0202    9.0947 O   0  0  0  0  0  0  0  0  0  0  0  0
   -1.6191    2.5857    9.5547 N   0  0  0  0  0  0  0  0  0  0  0  0
    0.4864    0.2487   10.2028 H   0  0  0  0  0  0  0  0  0  0  0  0
    0.7521    1.8578    9.7052 H   0  0  0  0  0  0  0  0  0  0  0  0
   -0.9419    3.2700    9.3488 H   0  0  0  0  0  0  0  0  0  0  0  0
   -4.2816   -0.4774   10.5837 C   0  0  0  0  0  0  0  0  0  0  0  0
   -5.7463   -0.0377   10.6774 C   0  0  0  0  0  0  0  0  0  0  0  0
   -6.5777   -0.6289    9.5637 C   0  0  0  0  0  0  0  0  0  0  0  0
   -7.9647   -0.7685    9.7142 C   0  0  0  0  0  0  0  0  0  0  0  0
   -8.7344   -1.3310    8.6939 C   0  0  0  0  0  0  0  0  0  0  0  0
   -8.1182   -1.7594    7.5203 C   0  0  0  0  0  0  0  0  0  0  0  0
   -9.1590   -2.5215    6.1383 Br  0  0  0  0  0  0  0  0  0  0  0  0
   -6.7402   -1.6321    7.3581 C   0  0  0  0  0  0  0  0  0  0  0  0
   -5.9713   -1.0696    8.3793 C   0  0  0  0  0  0  0  0  0  0  0  0
  1  2  1  0
  2  3  2  0
  3  4  1  0
  4 12  1  0
 12 13  1  0
 13 14  1  0
 14 15  2  0
 15 16  1  0
 16 17  2  0
 17 18  1  0
 17 19  1  0
 19 20  2  0
  4  5  2  0
  5  6  1  0
  6  7  2  0
  6  8  1  0
  8  2  1  0
 20 14  1  0
  1  9  1  0
  1 10  1  0
  8 11  1  0
M  END
> <minimizedAffinity>
-6.22370

> <CNNscore>
0.4584689438

> <CNNaffinity>
4.8918437958

> <CNN_VS>
2.2427585125

> <CNNaffinity_variance>
0.1811240464

$$$$
