


 26 28  0  0  0  0  0  0  0  0999 V2000
   53.8452    1.3489    3.4312 N   0  0  0  0  0  0  0  0  0  0  0  0
   54.9929    1.0338    3.9276 C   0  0  0  0  0  0  0  0  0  0  0  0
   55.7547    1.9108    4.6497 O   0  0  0  0  0  0  0  0  0  0  0  0
   57.0978    1.3825    4.6947 C   0  0  0  0  0  0  0  0  0  0  0  0
   56.9259   -0.1130    4.5056 C   0  0  0  0  0  0  0  0  0  0  0  0
   57.9301   -0.7802    3.5585 C   0  0  0  0  0  0  0  0  0  0  0  0
   58.0859   -2.1643    3.8732 O   0  0  0  0  0  0  0  0  0  0  0  0
   57.2828   -0.6464    2.1833 C   0  0  0  0  0  0  0  0  0  0  0  0
   55.7907   -0.7817    2.4849 C   0  0  0  0  0  0  0  0  0  0  0  0
   55.6411   -0.1684    3.8027 N   0  0  0  0  0  0  0  0  0  0  0  0
   57.2233   -2.6056    3.8264 H   0  0  0  0  0  0  0  0  0  0  0  0
   51.0097    1.7286    3.9625 C   0  0  0  0  0  0  0  0  0  0  0  0
   51.9911    2.8735    3.9449 C   0  0  0  0  0  0  0  0  0  0  0  0
   53.3519    2.6393    3.6747 C   0  0  0  0  0  0  0  0  0  0  0  0
   54.2595    3.7029    3.6901 C   0  0  0  0  0  0  0  0  0  0  0  0
   53.8284    5.0074    3.9310 C   0  0  0  0  0  0  0  0  0  0  0  0
   55.1519    6.3739    3.9130 Br  0  0  0  0  0  0  0  0  0  0  0  0
   52.4755    5.2729    4.1689 C   0  0  0  0  0  0  0  0  0  0  0  0
   51.5623    4.2014    4.1733 C   0  0  0  0  0  0  0  0  0  0  0  0
   49.8709    4.5094    4.4565 Cl  0  0  0  0  0  0  0  0  0  0  0  0
   52.0273    6.6158    4.4062 C   0  0  0  0  0  0  0  0  0  0  0  0
   51.6684    7.7026    4.6003 N   0  0  0  0  0  0  0  0  0  0  0  0
   57.7973    1.6745    6.0046 C   0  0  0  0  0  0  0  0  0  0  0  0
   57.3115    2.8159    6.5476 F   0  0  0  0  0  0  0  0  0  0  0  0
   59.1286    1.8321    5.8520 F   0  0  0  0  0  0  0  0  0  0  0  0
   57.5930    0.6863    6.9027 F   0  0  0  0  0  0  0  0  0  0  0  0
 12 13  1  0
 13 14  2  0
 14  1  1  0
  1  2  2  0
  2  3  1  0
  3  4  1  0
  4 23  1  0
 23 24  1  0
 23 25  1  0
 23 26  1  0
  4  5  1  0
  5  6  1  0
  6  7  1  0
  6  8  1  0
  8  9  1  0
  9 10  1  0
 14 15  1  0
 15 16  2  0
 16 17  1  0
 16 18  1  0
 18 21  1  0
 21 22  3  0
 18 19  2  0
 19 20  1  0
 19 13  1  0
 10  2  1  0
  5 10  1  0
  7 11  1  0
M  END
> <minimizedAffinity>
-8.17059

> <CNNscore>
0.9429190159

> <CNNaffinity>
8.5588970184

> <CNN_VS>
8.0703468323

> <CNNaffinity_variance>
0.6838982701

$$$$



 26 28  0  0  0  0  0  0  0  0999 V2000
   53.9999    1.5028    3.1328 N   0  0  0  0  0  0  0  0  0  0  0  0
   55.0164    1.0219    3.7637 C   0  0  0  0  0  0  0  0  0  0  0  0
   55.6906    1.7214    4.7266 O   0  0  0  0  0  0  0  0  0  0  0  0
   56.9665    1.0734    4.9192 C   0  0  0  0  0  0  0  0  0  0  0  0
   56.7352   -0.3614    4.4835 C   0  0  0  0  0  0  0  0  0  0  0  0
   57.8486   -0.9820    3.6315 C   0  0  0  0  0  0  0  0  0  0  0  0
   57.8552   -2.4043    3.7587 O   0  0  0  0  0  0  0  0  0  0  0  0
   57.4698   -0.6062    2.2020 C   0  0  0  0  0  0  0  0  0  0  0  0
   55.9423   -0.6465    2.2233 C   0  0  0  0  0  0  0  0  0  0  0  0
   55.5974   -0.2057    3.5730 N   0  0  0  0  0  0  0  0  0  0  0  0
   56.9886   -2.7560    3.5015 H   0  0  0  0  0  0  0  0  0  0  0  0
   55.8977    3.7066    3.2225 C   0  0  0  0  0  0  0  0  0  0  0  0
   54.4319    3.8869    3.5274 C   0  0  0  0  0  0  0  0  0  0  0  0
   53.5551    2.7875    3.4784 C   0  0  0  0  0  0  0  0  0  0  0  0
   52.1924    2.9699    3.7332 C   0  0  0  0  0  0  0  0  0  0  0  0
   51.6909    4.2253    4.0772 C   0  0  0  0  0  0  0  0  0  0  0  0
   49.8229    4.3485    4.4154 Br  0  0  0  0  0  0  0  0  0  0  0  0
   52.5464    5.3287    4.1664 C   0  0  0  0  0  0  0  0  0  0  0  0
   53.9159    5.1520    3.8913 C   0  0  0  0  0  0  0  0  0  0  0  0
   55.0020    6.5096    4.0068 Cl  0  0  0  0  0  0  0  0  0  0  0  0
   52.0351    6.6195    4.5309 C   0  0  0  0  0  0  0  0  0  0  0  0
   51.6245    7.6653    4.8230 N   0  0  0  0  0  0  0  0  0  0  0  0
   57.4358    1.1220    6.3572 C   0  0  0  0  0  0  0  0  0  0  0  0
   58.7890    1.1334    6.4053 F   0  0  0  0  0  0  0  0  0  0  0  0
   57.0130    0.0586    7.0718 F   0  0  0  0  0  0  0  0  0  0  0  0
   57.0045    2.2416    6.9780 F   0  0  0  0  0  0  0  0  0  0  0  0
 12 13  1  0
 13 14  2  0
 14  1  1  0
  1  2  2  0
  2  3  1  0
  3  4  1  0
  4 23  1  0
 23 24  1  0
 23 25  1  0
 23 26  1  0
  4  5  1  0
  5  6  1  0
  6  7  1  0
  6  8  1  0
  8  9  1  0
  9 10  1  0
 14 15  1  0
 15 16  2  0
 16 17  1  0
 16 18  1  0
 18 21  1  0
 21 22  3  0
 18 19  2  0
 19 20  1  0
 19 13  1  0
 10  2  1  0
  5 10  1  0
  7 11  1  0
M  END
> <minimizedAffinity>
-7.22899

> <CNNscore>
0.7872487903

> <CNNaffinity>
8.3228216171

> <CNN_VS>
6.5521311760

> <CNNaffinity_variance>
0.6881750226

$$$$



 26 28  0  0  0  0  0  0  0  0999 V2000
   55.8290    3.4672    4.4047 N   0  0  0  0  0  0  0  0  0  0  0  0
   56.1087    2.2128    4.3000 C   0  0  0  0  0  0  0  0  0  0  0  0
   55.1500    1.2495    4.1453 O   0  0  0  0  0  0  0  0  0  0  0  0
   55.7573   -0.0210    4.4646 C   0  0  0  0  0  0  0  0  0  0  0  0
   57.2372    0.1872    4.2036 C   0  0  0  0  0  0  0  0  0  0  0  0
   58.1842   -0.4011    5.2561 C   0  0  0  0  0  0  0  0  0  0  0  0
   59.4643   -0.6831    4.6895 O   0  0  0  0  0  0  0  0  0  0  0  0
   58.3249    0.7141    6.2878 C   0  0  0  0  0  0  0  0  0  0  0  0
   58.2681    1.9840    5.4395 C   0  0  0  0  0  0  0  0  0  0  0  0
   57.3540    1.6405    4.3526 N   0  0  0  0  0  0  0  0  0  0  0  0
   59.8350    0.1282    4.3084 H   0  0  0  0  0  0  0  0  0  0  0  0
   55.1556    6.2767    4.0587 C   0  0  0  0  0  0  0  0  0  0  0  0
   54.1065    5.1972    4.1481 C   0  0  0  0  0  0  0  0  0  0  0  0
   54.4828    3.8529    4.3238 C   0  0  0  0  0  0  0  0  0  0  0  0
   53.5042    2.8554    4.3755 C   0  0  0  0  0  0  0  0  0  0  0  0
   52.1495    3.1778    4.2956 C   0  0  0  0  0  0  0  0  0  0  0  0
   50.9097    1.7381    4.3918 Br  0  0  0  0  0  0  0  0  0  0  0  0
   51.7464    4.5101    4.1549 C   0  0  0  0  0  0  0  0  0  0  0  0
   52.7302    5.5147    4.0829 C   0  0  0  0  0  0  0  0  0  0  0  0
   52.2514    7.1820    3.9187 Cl  0  0  0  0  0  0  0  0  0  0  0  0
   50.3526    4.8460    4.0834 C   0  0  0  0  0  0  0  0  0  0  0  0
   49.2244    5.1138    4.0271 N   0  0  0  0  0  0  0  0  0  0  0  0
   55.2231   -1.1542    3.6155 C   0  0  0  0  0  0  0  0  0  0  0  0
   54.6313   -0.6623    2.5013 F   0  0  0  0  0  0  0  0  0  0  0  0
   54.3055   -1.8971    4.2684 F   0  0  0  0  0  0  0  0  0  0  0  0
   56.2159   -1.9761    3.2108 F   0  0  0  0  0  0  0  0  0  0  0  0
 12 13  1  0
 13 14  2  0
 14  1  1  0
  1  2  2  0
  2  3  1  0
  3  4  1  0
  4 23  1  0
 23 24  1  0
 23 25  1  0
 23 26  1  0
  4  5  1  0
  5  6  1  0
  6  7  1  0
  6  8  1  0
  8  9  1  0
  9 10  1  0
 14 15  1  0
 15 16  2  0
 16 17  1  0
 16 18  1  0
 18 21  1  0
 21 22  3  0
 18 19  2  0
 19 20  1  0
 19 13  1  0
 10  2  1  0
  5 10  1  0
  7 11  1  0
M  END
> <minimizedAffinity>
-4.37007

> <CNNscore>
0.6951298714

> <CNNaffinity>
7.9575181007

> <CNN_VS>
5.5315084457

> <CNNaffinity_variance>
0.3760467470

$$$$



 26 28  0  0  0  0  0  0  0  0999 V2000
   56.1419    3.3513    4.2018 N   0  0  0  0  0  0  0  0  0  0  0  0
   56.2939    2.0809    4.0416 C   0  0  0  0  0  0  0  0  0  0  0  0
   55.2408    1.2214    3.8880 O   0  0  0  0  0  0  0  0  0  0  0  0
   55.7313   -0.1134    4.1385 C   0  0  0  0  0  0  0  0  0  0  0  0
   57.2149   -0.0387    3.8304 C   0  0  0  0  0  0  0  0  0  0  0  0
   58.1345   -0.7568    4.8251 C   0  0  0  0  0  0  0  0  0  0  0  0
   59.3612   -1.1384    4.2015 O   0  0  0  0  0  0  0  0  0  0  0  0
   58.4181    0.2981    5.8904 C   0  0  0  0  0  0  0  0  0  0  0  0
   58.4574    1.6000    5.0911 C   0  0  0  0  0  0  0  0  0  0  0  0
   57.4782    1.3895    4.0272 N   0  0  0  0  0  0  0  0  0  0  0  0
   59.7965   -0.3522    3.8363 H   0  0  0  0  0  0  0  0  0  0  0  0
   53.9266    1.6961    5.1070 C   0  0  0  0  0  0  0  0  0  0  0  0
   53.7350    3.1105    4.6203 C   0  0  0  0  0  0  0  0  0  0  0  0
   54.8378    3.8680    4.1849 C   0  0  0  0  0  0  0  0  0  0  0  0
   54.6547    5.1887    3.7637 C   0  0  0  0  0  0  0  0  0  0  0  0
   53.3819    5.7585    3.7297 C   0  0  0  0  0  0  0  0  0  0  0  0
   53.2545    7.5576    3.1249 Br  0  0  0  0  0  0  0  0  0  0  0  0
   52.2637    5.0162    4.1249 C   0  0  0  0  0  0  0  0  0  0  0  0
   52.4475    3.6926    4.5680 C   0  0  0  0  0  0  0  0  0  0  0  0
   51.0683    2.7455    5.0547 Cl  0  0  0  0  0  0  0  0  0  0  0  0
   50.9514    5.5962    4.0806 C   0  0  0  0  0  0  0  0  0  0  0  0
   49.8918    6.0691    4.0439 N   0  0  0  0  0  0  0  0  0  0  0  0
   55.0607   -1.1553    3.2695 C   0  0  0  0  0  0  0  0  0  0  0  0
   54.2776   -0.5545    2.3425 F   0  0  0  0  0  0  0  0  0  0  0  0
   54.2779   -1.9919    3.9819 F   0  0  0  0  0  0  0  0  0  0  0  0
   55.9701   -1.8991    2.6027 F   0  0  0  0  0  0  0  0  0  0  0  0
 12 13  1  0
 13 14  2  0
 14  1  1  0
  1  2  2  0
  2  3  1  0
  3  4  1  0
  4 23  1  0
 23 24  1  0
 23 25  1  0
 23 26  1  0
  4  5  1  0
  5  6  1  0
  6  7  1  0
  6  8  1  0
  8  9  1  0
  9 10  1  0
 14 15  1  0
 15 16  2  0
 16 17  1  0
 16 18  1  0
 18 21  1  0
 21 22  3  0
 18 19  2  0
 19 20  1  0
 19 13  1  0
 10  2  1  0
  5 10  1  0
  7 11  1  0
M  END
> <minimizedAffinity>
-3.29391

> <CNNscore>
0.6765176654

> <CNNaffinity>
7.9131941795

> <CNN_VS>
5.3534154892

> <CNNaffinity_variance>
0.5056685805

$$$$



 26 28  0  0  0  0  0  0  0  0999 V2000
   55.7696    3.8987    4.5597 N   0  0  0  0  0  0  0  0  0  0  0  0
   54.5003    4.1207    4.5116 C   0  0  0  0  0  0  0  0  0  0  0  0
   53.5855    3.1401    4.2423 O   0  0  0  0  0  0  0  0  0  0  0  0
   52.3501    3.7900    3.8730 C   0  0  0  0  0  0  0  0  0  0  0  0
   52.4211    5.1511    4.5395 C   0  0  0  0  0  0  0  0  0  0  0  0
   51.9573    6.3335    3.6808 C   0  0  0  0  0  0  0  0  0  0  0  0
   51.5075    7.4132    4.5000 O   0  0  0  0  0  0  0  0  0  0  0  0
   53.2165    6.7601    2.9323 C   0  0  0  0  0  0  0  0  0  0  0  0
   54.3302    6.5008    3.9462 C   0  0  0  0  0  0  0  0  0  0  0  0
   53.8691    5.3262    4.6827 N   0  0  0  0  0  0  0  0  0  0  0  0
   52.2205    7.6825    5.1000 H   0  0  0  0  0  0  0  0  0  0  0  0
   57.9121    2.8382    6.2186 C   0  0  0  0  0  0  0  0  0  0  0  0
   57.2455    2.0243    5.1382 C   0  0  0  0  0  0  0  0  0  0  0  0
   56.2188    2.5853    4.3567 C   0  0  0  0  0  0  0  0  0  0  0  0
   55.5860    1.8134    3.3774 C   0  0  0  0  0  0  0  0  0  0  0  0
   55.9862    0.4996    3.1334 C   0  0  0  0  0  0  0  0  0  0  0  0
   55.0616   -0.4475    1.7670 Br  0  0  0  0  0  0  0  0  0  0  0  0
   57.0275   -0.0717    3.8728 C   0  0  0  0  0  0  0  0  0  0  0  0
   57.6534    0.6967    4.8728 C   0  0  0  0  0  0  0  0  0  0  0  0
   58.9597    0.0098    5.7988 Cl  0  0  0  0  0  0  0  0  0  0  0  0
   57.4488   -1.4198    3.6164 C   0  0  0  0  0  0  0  0  0  0  0  0
   57.7900   -2.5091    3.4050 N   0  0  0  0  0  0  0  0  0  0  0  0
   51.1275    3.0321    4.3434 C   0  0  0  0  0  0  0  0  0  0  0  0
   51.1567    2.8907    5.6898 F   0  0  0  0  0  0  0  0  0  0  0  0
   51.0510    1.7966    3.8068 F   0  0  0  0  0  0  0  0  0  0  0  0
   49.9902    3.6931    4.0358 F   0  0  0  0  0  0  0  0  0  0  0  0
 12 13  1  0
 13 14  2  0
 14  1  1  0
  1  2  2  0
  2  3  1  0
  3  4  1  0
  4 23  1  0
 23 24  1  0
 23 25  1  0
 23 26  1  0
  4  5  1  0
  5  6  1  0
  6  7  1  0
  6  8  1  0
  8  9  1  0
  9 10  1  0
 14 15  1  0
 15 16  2  0
 16 17  1  0
 16 18  1  0
 18 21  1  0
 21 22  3  0
 18 19  2  0
 19 20  1  0
 19 13  1  0
 10  2  1  0
  5 10  1  0
  7 11  1  0
M  END
> <minimizedAffinity>
-6.67630

> <CNNscore>
0.5982487202

> <CNNaffinity>
7.9738945961

> <CNN_VS>
4.7703723907

> <CNNaffinity_variance>
0.3409417868

$$$$



 26 28  0  0  0  0  0  0  0  0999 V2000
   55.1539    3.4601    3.8562 N   0  0  0  0  0  0  0  0  0  0  0  0
   54.7680    2.3818    3.2635 C   0  0  0  0  0  0  0  0  0  0  0  0
   53.4773    2.1795    2.8582 O   0  0  0  0  0  0  0  0  0  0  0  0
   53.3157    0.7650    2.6176 C   0  0  0  0  0  0  0  0  0  0  0  0
   54.7150    0.2689    2.3052 C   0  0  0  0  0  0  0  0  0  0  0  0
   55.1079   -1.0601    2.9611 C   0  0  0  0  0  0  0  0  0  0  0  0
   56.1218   -1.7221    2.2042 O   0  0  0  0  0  0  0  0  0  0  0  0
   55.6787   -0.6472    4.3144 C   0  0  0  0  0  0  0  0  0  0  0  0
   56.3694    0.6819    4.0114 C   0  0  0  0  0  0  0  0  0  0  0  0
   55.5356    1.2831    2.9730 N   0  0  0  0  0  0  0  0  0  0  0  0
   56.8928   -1.1399    2.1178 H   0  0  0  0  0  0  0  0  0  0  0  0
   52.4313    2.7611    4.6084 C   0  0  0  0  0  0  0  0  0  0  0  0
   52.8823    4.1895    4.4341 C   0  0  0  0  0  0  0  0  0  0  0  0
   54.2084    4.4759    4.0612 C   0  0  0  0  0  0  0  0  0  0  0  0
   54.6255    5.8042    3.9313 C   0  0  0  0  0  0  0  0  0  0  0  0
   53.7315    6.8568    4.1274 C   0  0  0  0  0  0  0  0  0  0  0  0
   54.4096    8.6208    3.9091 Br  0  0  0  0  0  0  0  0  0  0  0  0
   52.3985    6.5993    4.4656 C   0  0  0  0  0  0  0  0  0  0  0  0
   51.9806    5.2633    4.6162 C   0  0  0  0  0  0  0  0  0  0  0  0
   50.3226    4.9181    5.0262 Cl  0  0  0  0  0  0  0  0  0  0  0  0
   51.4735    7.6801    4.6572 C   0  0  0  0  0  0  0  0  0  0  0  0
   50.7241    8.5524    4.8159 N   0  0  0  0  0  0  0  0  0  0  0  0
   52.3793    0.4711    1.4656 C   0  0  0  0  0  0  0  0  0  0  0  0
   51.3211    1.3155    1.4985 F   0  0  0  0  0  0  0  0  0  0  0  0
   51.8956   -0.7877    1.5049 F   0  0  0  0  0  0  0  0  0  0  0  0
   52.9933    0.6465    0.2752 F   0  0  0  0  0  0  0  0  0  0  0  0
 12 13  1  0
 13 14  2  0
 14  1  1  0
  1  2  2  0
  2  3  1  0
  3  4  1  0
  4 23  1  0
 23 24  1  0
 23 25  1  0
 23 26  1  0
  4  5  1  0
  5  6  1  0
  6  7  1  0
  6  8  1  0
  8  9  1  0
  9 10  1  0
 14 15  1  0
 15 16  2  0
 16 17  1  0
 16 18  1  0
 18 21  1  0
 21 22  3  0
 18 19  2  0
 19 20  1  0
 19 13  1  0
 10  2  1  0
  5 10  1  0
  7 11  1  0
M  END
> <minimizedAffinity>
-0.54049

> <CNNscore>
0.4770555198

> <CNNaffinity>
7.7241020203

> <CNN_VS>
3.6848254204

> <CNNaffinity_variance>
0.7030943036

$$$$



 26 28  0  0  0  0  0  0  0  0999 V2000
   55.4964    4.2355    4.3894 N   0  0  0  0  0  0  0  0  0  0  0  0
   54.2306    4.4623    4.4840 C   0  0  0  0  0  0  0  0  0  0  0  0
   53.2905    3.4735    4.3862 O   0  0  0  0  0  0  0  0  0  0  0  0
   52.0187    4.1086    4.1335 C   0  0  0  0  0  0  0  0  0  0  0  0
   52.1695    5.5056    4.7058 C   0  0  0  0  0  0  0  0  0  0  0  0
   51.6030    6.6391    3.8428 C   0  0  0  0  0  0  0  0  0  0  0  0
   51.2560    7.7673    4.6466 O   0  0  0  0  0  0  0  0  0  0  0  0
   52.7607    7.0138    2.9224 C   0  0  0  0  0  0  0  0  0  0  0  0
   53.9904    6.8067    3.8058 C   0  0  0  0  0  0  0  0  0  0  0  0
   53.6240    5.6796    4.6605 N   0  0  0  0  0  0  0  0  0  0  0  0
   52.0368    8.0664    5.1382 H   0  0  0  0  0  0  0  0  0  0  0  0
   54.2216    2.5815    2.3631 C   0  0  0  0  0  0  0  0  0  0  0  0
   55.3396    2.0731    3.2381 C   0  0  0  0  0  0  0  0  0  0  0  0
   55.9185    2.9098    4.2099 C   0  0  0  0  0  0  0  0  0  0  0  0
   56.9749    2.4394    4.9960 C   0  0  0  0  0  0  0  0  0  0  0  0
   57.4408    1.1317    4.8594 C   0  0  0  0  0  0  0  0  0  0  0  0
   58.8728    0.5998    5.9932 Br  0  0  0  0  0  0  0  0  0  0  0  0
   56.8603    0.2679    3.9243 C   0  0  0  0  0  0  0  0  0  0  0  0
   55.8095    0.7449    3.1178 C   0  0  0  0  0  0  0  0  0  0  0  0
   55.0640   -0.3162    1.9541 Cl  0  0  0  0  0  0  0  0  0  0  0  0
   57.3303   -1.0817    3.7891 C   0  0  0  0  0  0  0  0  0  0  0  0
   57.7106   -2.1726    3.6755 N   0  0  0  0  0  0  0  0  0  0  0  0
   50.8635    3.3870    4.7932 C   0  0  0  0  0  0  0  0  0  0  0  0
   50.9952    3.4309    6.1402 F   0  0  0  0  0  0  0  0  0  0  0  0
   50.7966    2.0882    4.4340 F   0  0  0  0  0  0  0  0  0  0  0  0
   49.6822    3.9669    4.4882 F   0  0  0  0  0  0  0  0  0  0  0  0
 12 13  1  0
 13 14  2  0
 14  1  1  0
  1  2  2  0
  2  3  1  0
  3  4  1  0
  4 23  1  0
 23 24  1  0
 23 25  1  0
 23 26  1  0
  4  5  1  0
  5  6  1  0
  6  7  1  0
  6  8  1  0
  8  9  1  0
  9 10  1  0
 14 15  1  0
 15 16  2  0
 16 17  1  0
 16 18  1  0
 18 21  1  0
 21 22  3  0
 18 19  2  0
 19 20  1  0
 19 13  1  0
 10  2  1  0
  5 10  1  0
  7 11  1  0
M  END
> <minimizedAffinity>
-7.17285

> <CNNscore>
0.4769895971

> <CNNaffinity>
7.6805973053

> <CNN_VS>
3.6635649204

> <CNNaffinity_variance>
0.1571753025

$$$$



 26 28  0  0  0  0  0  0  0  0999 V2000
   52.7844   -2.2863   14.8269 N   0  0  0  0  0  0  0  0  0  0  0  0
   51.5865   -1.8220   14.7160 C   0  0  0  0  0  0  0  0  0  0  0  0
   51.3127   -0.4833   14.6531 O   0  0  0  0  0  0  0  0  0  0  0  0
   49.9072   -0.3149   14.9382 C   0  0  0  0  0  0  0  0  0  0  0  0
   49.2785   -1.6412   14.5540 C   0  0  0  0  0  0  0  0  0  0  0  0
   48.2317   -2.1857   15.5330 C   0  0  0  0  0  0  0  0  0  0  0  0
   47.3134   -3.0532   14.8671 O   0  0  0  0  0  0  0  0  0  0  0  0
   49.0511   -2.9936   16.5349 C   0  0  0  0  0  0  0  0  0  0  0  0
   50.1722   -3.5796   15.6775 C   0  0  0  0  0  0  0  0  0  0  0  0
   50.4236   -2.5479   14.6738 N   0  0  0  0  0  0  0  0  0  0  0  0
   47.8010   -3.7784   14.4462 H   0  0  0  0  0  0  0  0  0  0  0  0
   54.8979   -2.5902   16.8035 C   0  0  0  0  0  0  0  0  0  0  0  0
   54.8975   -1.4810   15.7819 C   0  0  0  0  0  0  0  0  0  0  0  0
   53.8477   -1.3717   14.8516 C   0  0  0  0  0  0  0  0  0  0  0  0
   53.8711   -0.3578   13.8889 C   0  0  0  0  0  0  0  0  0  0  0  0
   54.9051    0.5780   13.8609 C   0  0  0  0  0  0  0  0  0  0  0  0
   54.8225    1.9197   12.5148 Br  0  0  0  0  0  0  0  0  0  0  0  0
   55.9439    0.5128   14.7960 C   0  0  0  0  0  0  0  0  0  0  0  0
   55.9331   -0.5186   15.7542 C   0  0  0  0  0  0  0  0  0  0  0  0
   57.2105   -0.6133   16.9355 Cl  0  0  0  0  0  0  0  0  0  0  0  0
   57.0035    1.4810   14.7766 C   0  0  0  0  0  0  0  0  0  0  0  0
   57.8630    2.2612   14.7630 N   0  0  0  0  0  0  0  0  0  0  0  0
   49.2824    0.8163   14.1507 C   0  0  0  0  0  0  0  0  0  0  0  0
   48.7819    1.7500   14.9940 F   0  0  0  0  0  0  0  0  0  0  0  0
   48.2705    0.3964   13.3631 F   0  0  0  0  0  0  0  0  0  0  0  0
   50.1940    1.4330   13.3675 F   0  0  0  0  0  0  0  0  0  0  0  0
 12 13  1  0
 13 14  2  0
 14  1  1  0
  1  2  2  0
  2  3  1  0
  3  4  1  0
  4 23  1  0
 23 24  1  0
 23 25  1  0
 23 26  1  0
  4  5  1  0
  5  6  1  0
  6  7  1  0
  6  8  1  0
  8  9  1  0
  9 10  1  0
 14 15  1  0
 15 16  2  0
 16 17  1  0
 16 18  1  0
 18 21  1  0
 21 22  3  0
 18 19  2  0
 19 20  1  0
 19 13  1  0
 10  2  1  0
  5 10  1  0
  7 11  1  0
M  END
> <minimizedAffinity>
46.63643

> <CNNscore>
0.3596867025

> <CNNaffinity>
5.3316936493

> <CNN_VS>
1.9177392721

> <CNNaffinity_variance>
0.0188387260

$$$$



 26 28  0  0  0  0  0  0  0  0999 V2000
   55.8310    3.5899    5.1879 N   0  0  0  0  0  0  0  0  0  0  0  0
   54.5927    3.6237    4.8299 C   0  0  0  0  0  0  0  0  0  0  0  0
   53.9414    2.5395    4.3087 O   0  0  0  0  0  0  0  0  0  0  0  0
   52.7444    3.0232    3.6621 C   0  0  0  0  0  0  0  0  0  0  0  0
   52.4306    4.3290    4.3678 C   0  0  0  0  0  0  0  0  0  0  0  0
   52.0044    5.4872    3.4582 C   0  0  0  0  0  0  0  0  0  0  0  0
   51.2009    6.4273    4.1722 O   0  0  0  0  0  0  0  0  0  0  0  0
   53.3216    6.1482    3.0635 C   0  0  0  0  0  0  0  0  0  0  0  0
   54.1827    5.9861    4.3156 C   0  0  0  0  0  0  0  0  0  0  0  0
   53.7526    4.7068    4.8753 N   0  0  0  0  0  0  0  0  0  0  0  0
   51.6937    6.7564    4.9401 H   0  0  0  0  0  0  0  0  0  0  0  0
   58.5237    3.3492    6.2640 C   0  0  0  0  0  0  0  0  0  0  0  0
   57.8221    2.2067    5.5736 C   0  0  0  0  0  0  0  0  0  0  0  0
   56.5221    2.3756    5.0625 C   0  0  0  0  0  0  0  0  0  0  0  0
   55.8679    1.3019    4.4506 C   0  0  0  0  0  0  0  0  0  0  0  0
   56.5027    0.0688    4.3015 C   0  0  0  0  0  0  0  0  0  0  0  0
   55.5189   -1.3131    3.4404 Br  0  0  0  0  0  0  0  0  0  0  0  0
   57.8079   -0.1163    4.7702 C   0  0  0  0  0  0  0  0  0  0  0  0
   58.4619    0.9573    5.4042 C   0  0  0  0  0  0  0  0  0  0  0  0
   60.0916    0.7533    5.9861 Cl  0  0  0  0  0  0  0  0  0  0  0  0
   58.4678   -1.3808    4.6084 C   0  0  0  0  0  0  0  0  0  0  0  0
   59.0051   -2.4017    4.4790 N   0  0  0  0  0  0  0  0  0  0  0  0
   51.5832    2.0606    3.7863 C   0  0  0  0  0  0  0  0  0  0  0  0
   52.0160    0.7866    3.6344 F   0  0  0  0  0  0  0  0  0  0  0  0
   50.6320    2.2801    2.8550 F   0  0  0  0  0  0  0  0  0  0  0  0
   51.0037    2.1432    5.0038 F   0  0  0  0  0  0  0  0  0  0  0  0
 12 13  1  0
 13 14  2  0
 14  1  1  0
  1  2  2  0
  2  3  1  0
  3  4  1  0
  4 23  1  0
 23 24  1  0
 23 25  1  0
 23 26  1  0
  4  5  1  0
  5  6  1  0
  6  7  1  0
  6  8  1  0
  8  9  1  0
  9 10  1  0
 14 15  1  0
 15 16  2  0
 16 17  1  0
 16 18  1  0
 18 21  1  0
 21 22  3  0
 18 19  2  0
 19 20  1  0
 19 13  1  0
 10  2  1  0
  5 10  1  0
  7 11  1  0
M  END
> <minimizedAffinity>
-1.33793

> <CNNscore>
0.2888464928

> <CNNaffinity>
7.3738436699

> <CNN_VS>
2.1299088001

> <CNNaffinity_variance>
0.2890945375

$$$$
