


 18 19  0  0  0  0  0  0  0  0999 V2000
   48.9114   23.1388   12.0734 C   0  0  0  0  0  0  0  0  0  0  0  0
   49.6353   21.8345   11.8835 C   0  0  0  0  0  0  0  0  0  0  0  0
   48.8884   20.6659   11.7064 C   0  0  0  0  0  0  0  0  0  0  0  0
   49.5467   19.4625   11.5287 C   0  0  0  0  0  0  0  0  0  0  0  0
   48.8290   18.2857   11.3319 N   0  0  0  0  0  0  0  0  0  0  0  0
   50.8823   19.3599   11.5007 N   0  0  0  0  0  0  0  0  0  0  0  0
   51.6165   20.4716   11.6642 C   0  0  0  0  0  0  0  0  0  0  0  0
   52.9950   20.3503   11.6185 C   0  0  0  0  0  0  0  0  0  0  0  0
   53.8277   21.4573   11.7837 C   0  0  0  0  0  0  0  0  0  0  0  0
   55.5397   21.2201   11.7003 Cl  0  0  0  0  0  0  0  0  0  0  0  0
   53.2955   22.7263   12.0416 C   0  0  0  0  0  0  0  0  0  0  0  0
   54.0986   23.8781   12.0898 N   0  0  0  0  0  0  0  0  0  0  0  0
   51.9046   22.8628   12.0357 C   0  0  0  0  0  0  0  0  0  0  0  0
   51.0469   21.7485   11.8685 C   0  0  0  0  0  0  0  0  0  0  0  0
   47.8447   18.3019   11.3422 H   0  0  0  0  0  0  0  0  0  0  0  0
   49.3059   17.4375   11.1824 H   0  0  0  0  0  0  0  0  0  0  0  0
   55.0795   23.7945   12.0944 H   0  0  0  0  0  0  0  0  0  0  0  0
   53.6804   24.7689   12.1189 H   0  0  0  0  0  0  0  0  0  0  0  0
  1  2  1  0
  2  3  2  0
  3  4  1  0
  4  5  1  0
  4  6  2  0
  6  7  1  0
  7  8  2  0
  8  9  1  0
  9 10  1  0
  9 11  2  0
 11 12  1  0
 11 13  1  0
 13 14  2  0
 14  2  1  0
 14  7  1  0
  5 15  1  0
  5 16  1  0
 12 17  1  0
 12 18  1  0
M  END
> <minimizedAffinity>
-7.05732

> <CNNscore>
0.9632852077

> <CNNaffinity>
5.1471920013

> <CNN_VS>
4.9582138062

> <CNNaffinity_variance>
0.1528801322

$$$$



 18 19  0  0  0  0  0  0  0  0999 V2000
   53.7189   20.1473   11.4005 C   0  0  0  0  0  0  0  0  0  0  0  0
   52.7273   21.2004   11.8119 C   0  0  0  0  0  0  0  0  0  0  0  0
   53.1959   22.4690   12.1667 C   0  0  0  0  0  0  0  0  0  0  0  0
   52.2902   23.4439   12.5438 C   0  0  0  0  0  0  0  0  0  0  0  0
   52.7266   24.7214   12.8847 N   0  0  0  0  0  0  0  0  0  0  0  0
   50.9667   23.2371   12.5716 N   0  0  0  0  0  0  0  0  0  0  0  0
   50.4973   22.0269   12.2298 C   0  0  0  0  0  0  0  0  0  0  0  0
   49.1264   21.8342   12.2501 C   0  0  0  0  0  0  0  0  0  0  0  0
   48.5604   20.6047   11.9125 C   0  0  0  0  0  0  0  0  0  0  0  0
   46.8372   20.4523   11.9521 Cl  0  0  0  0  0  0  0  0  0  0  0  0
   49.3654   19.5089   11.5787 C   0  0  0  0  0  0  0  0  0  0  0  0
   48.8249   18.2974   11.1161 N   0  0  0  0  0  0  0  0  0  0  0  0
   50.7461   19.7135   11.5053 C   0  0  0  0  0  0  0  0  0  0  0  0
   51.3346   20.9560   11.8443 C   0  0  0  0  0  0  0  0  0  0  0  0
   53.6887   24.9301   12.8814 H   0  0  0  0  0  0  0  0  0  0  0  0
   52.0731   25.4160   13.1289 H   0  0  0  0  0  0  0  0  0  0  0  0
   47.8539   18.1420   11.1627 H   0  0  0  0  0  0  0  0  0  0  0  0
   49.4172   17.6038   10.7455 H   0  0  0  0  0  0  0  0  0  0  0  0
  1  2  1  0
  2  3  2  0
  3  4  1  0
  4  5  1  0
  4  6  2  0
  6  7  1  0
  7  8  2  0
  8  9  1  0
  9 10  1  0
  9 11  2  0
 11 12  1  0
 11 13  1  0
 13 14  2  0
 14  2  1  0
 14  7  1  0
  5 15  1  0
  5 16  1  0
 12 17  1  0
 12 18  1  0
M  END
> <minimizedAffinity>
-7.72243

> <CNNscore>
0.8638691902

> <CNNaffinity>
5.4089298248

> <CNN_VS>
4.6726078987

> <CNNaffinity_variance>
0.1751773804

$$$$



 18 19  0  0  0  0  0  0  0  0999 V2000
   54.9492   20.8235   11.8301 C   0  0  0  0  0  0  0  0  0  0  0  0
   53.9103   21.9045   11.9454 C   0  0  0  0  0  0  0  0  0  0  0  0
   54.3271   23.2348   12.0527 C   0  0  0  0  0  0  0  0  0  0  0  0
   53.3777   24.2351   12.1568 C   0  0  0  0  0  0  0  0  0  0  0  0
   53.7633   25.5700   12.2465 N   0  0  0  0  0  0  0  0  0  0  0  0
   52.0600   23.9931   12.1435 N   0  0  0  0  0  0  0  0  0  0  0  0
   51.6402   22.7226   12.0364 C   0  0  0  0  0  0  0  0  0  0  0  0
   50.2754   22.4912   12.0099 C   0  0  0  0  0  0  0  0  0  0  0  0
   49.7594   21.1994   11.9049 C   0  0  0  0  0  0  0  0  0  0  0  0
   48.0411   20.9993   11.8663 Cl  0  0  0  0  0  0  0  0  0  0  0  0
   50.6079   20.0865   11.8624 C   0  0  0  0  0  0  0  0  0  0  0  0
   50.1256   18.7870   11.6333 N   0  0  0  0  0  0  0  0  0  0  0  0
   51.9858   20.3188   11.8352 C   0  0  0  0  0  0  0  0  0  0  0  0
   52.5240   21.6243   11.9403 C   0  0  0  0  0  0  0  0  0  0  0  0
   54.7188   25.8065   12.2603 H   0  0  0  0  0  0  0  0  0  0  0  0
   53.0803   26.2774   12.2963 H   0  0  0  0  0  0  0  0  0  0  0  0
   49.1570   18.6113   11.6499 H   0  0  0  0  0  0  0  0  0  0  0  0
   50.7562   18.0520   11.4562 H   0  0  0  0  0  0  0  0  0  0  0  0
  1  2  1  0
  2  3  2  0
  3  4  1  0
  4  5  1  0
  4  6  2  0
  6  7  1  0
  7  8  2  0
  8  9  1  0
  9 10  1  0
  9 11  2  0
 11 12  1  0
 11 13  1  0
 13 14  2  0
 14  2  1  0
 14  7  1  0
  5 15  1  0
  5 16  1  0
 12 17  1  0
 12 18  1  0
M  END
> <minimizedAffinity>
-6.65303

> <CNNscore>
0.8116157651

> <CNNaffinity>
5.2181220055

> <CNN_VS>
4.2351102829

> <CNNaffinity_variance>
0.0483947396

$$$$



 18 19  0  0  0  0  0  0  0  0999 V2000
   52.4559   23.4371   12.3453 C   0  0  0  0  0  0  0  0  0  0  0  0
   52.0226   22.0025   12.2205 C   0  0  0  0  0  0  0  0  0  0  0  0
   50.7106   21.7240   11.8256 C   0  0  0  0  0  0  0  0  0  0  0  0
   50.3050   20.4071   11.7060 C   0  0  0  0  0  0  0  0  0  0  0  0
   49.0100   20.1000   11.2970 N   0  0  0  0  0  0  0  0  0  0  0  0
   51.1209   19.3697   11.9367 N   0  0  0  0  0  0  0  0  0  0  0  0
   52.3857   19.6171   12.3122 C   0  0  0  0  0  0  0  0  0  0  0  0
   53.2196   18.5341   12.5328 C   0  0  0  0  0  0  0  0  0  0  0  0
   54.5459   18.7072   12.9292 C   0  0  0  0  0  0  0  0  0  0  0  0
   55.5236   17.3002   13.1716 Cl  0  0  0  0  0  0  0  0  0  0  0  0
   55.0683   19.9861   13.1562 C   0  0  0  0  0  0  0  0  0  0  0  0
   56.4287   20.1994   13.4352 N   0  0  0  0  0  0  0  0  0  0  0  0
   54.2464   21.0832   12.8836 C   0  0  0  0  0  0  0  0  0  0  0  0
   52.8987   20.9229   12.4799 C   0  0  0  0  0  0  0  0  0  0  0  0
   48.3674   20.8228   11.1133 H   0  0  0  0  0  0  0  0  0  0  0  0
   48.7370   19.1600   11.1916 H   0  0  0  0  0  0  0  0  0  0  0  0
   57.0174   19.4344   13.6286 H   0  0  0  0  0  0  0  0  0  0  0  0
   56.7933   21.1139   13.4371 H   0  0  0  0  0  0  0  0  0  0  0  0
  1  2  1  0
  2  3  2  0
  3  4  1  0
  4  5  1  0
  4  6  2  0
  6  7  1  0
  7  8  2  0
  8  9  1  0
  9 10  1  0
  9 11  2  0
 11 12  1  0
 11 13  1  0
 13 14  2  0
 14  2  1  0
 14  7  1  0
  5 15  1  0
  5 16  1  0
 12 17  1  0
 12 18  1  0
M  END
> <minimizedAffinity>
-5.12611

> <CNNscore>
0.4447779059

> <CNNaffinity>
4.0780167580

> <CNN_VS>
1.8138117790

> <CNNaffinity_variance>
0.3319623470

$$$$



 18 19  0  0  0  0  0  0  0  0999 V2000
   57.1453   28.0280   16.0745 C   0  0  0  0  0  0  0  0  0  0  0  0
   56.8861   28.9554   14.9194 C   0  0  0  0  0  0  0  0  0  0  0  0
   57.6184   30.1429   14.8277 C   0  0  0  0  0  0  0  0  0  0  0  0
   57.3877   31.0000   13.7670 C   0  0  0  0  0  0  0  0  0  0  0  0
   58.1149   32.1805   13.6402 N   0  0  0  0  0  0  0  0  0  0  0  0
   56.4974   30.7396   12.8003 N   0  0  0  0  0  0  0  0  0  0  0  0
   55.7880   29.6021   12.8684 C   0  0  0  0  0  0  0  0  0  0  0  0
   54.8824   29.3414   11.8540 C   0  0  0  0  0  0  0  0  0  0  0  0
   54.1044   28.1835   11.8543 C   0  0  0  0  0  0  0  0  0  0  0  0
   53.0057   27.9288   10.5420 Cl  0  0  0  0  0  0  0  0  0  0  0  0
   54.1855   27.2620   12.9053 C   0  0  0  0  0  0  0  0  0  0  0  0
   53.5088   26.0311   12.8742 N   0  0  0  0  0  0  0  0  0  0  0  0
   55.1357   27.4945   13.9035 C   0  0  0  0  0  0  0  0  0  0  0  0
   55.9328   28.6648   13.9159 C   0  0  0  0  0  0  0  0  0  0  0  0
   58.7831   32.4227   14.3215 H   0  0  0  0  0  0  0  0  0  0  0  0
   57.9609   32.7731   12.8693 H   0  0  0  0  0  0  0  0  0  0  0  0
   52.8374   25.8560   12.1758 H   0  0  0  0  0  0  0  0  0  0  0  0
   53.7060   25.3438   13.5509 H   0  0  0  0  0  0  0  0  0  0  0  0
  1  2  1  0
  2  3  2  0
  3  4  1  0
  4  5  1  0
  4  6  2  0
  6  7  1  0
  7  8  2  0
  8  9  1  0
  9 10  1  0
  9 11  2  0
 11 12  1  0
 11 13  1  0
 13 14  2  0
 14  2  1  0
 14  7  1  0
  5 15  1  0
  5 16  1  0
 12 17  1  0
 12 18  1  0
M  END
> <minimizedAffinity>
-4.74157

> <CNNscore>
0.2922030687

> <CNNaffinity>
4.3487191200

> <CNN_VS>
1.2707090378

> <CNNaffinity_variance>
0.4680353105

$$$$



 18 19  0  0  0  0  0  0  0  0999 V2000
   53.8159   24.4965   14.8383 C   0  0  0  0  0  0  0  0  0  0  0  0
   53.6735   24.0033   16.2517 C   0  0  0  0  0  0  0  0  0  0  0  0
   53.2851   22.6780   16.4699 C   0  0  0  0  0  0  0  0  0  0  0  0
   53.1542   22.2160   17.7669 C   0  0  0  0  0  0  0  0  0  0  0  0
   52.7866   20.8960   18.0141 N   0  0  0  0  0  0  0  0  0  0  0  0
   53.3998   22.9791   18.8404 N   0  0  0  0  0  0  0  0  0  0  0  0
   53.7785   24.2530   18.6511 C   0  0  0  0  0  0  0  0  0  0  0  0
   54.0420   25.0237   19.7707 C   0  0  0  0  0  0  0  0  0  0  0  0
   54.4363   26.3572   19.6585 C   0  0  0  0  0  0  0  0  0  0  0  0
   54.7579   27.2460   21.1078 Cl  0  0  0  0  0  0  0  0  0  0  0  0
   54.5407   26.9740   18.4059 C   0  0  0  0  0  0  0  0  0  0  0  0
   55.0523   28.2735   18.2528 N   0  0  0  0  0  0  0  0  0  0  0  0
   54.3274   26.1855   17.2718 C   0  0  0  0  0  0  0  0  0  0  0  0
   53.9276   24.8307   17.3703 C   0  0  0  0  0  0  0  0  0  0  0  0
   52.5943   20.2896   17.2628 H   0  0  0  0  0  0  0  0  0  0  0  0
   52.7191   20.5690   18.9403 H   0  0  0  0  0  0  0  0  0  0  0  0
   55.2067   28.8382   19.0443 H   0  0  0  0  0  0  0  0  0  0  0  0
   55.2563   28.6195   17.3540 H   0  0  0  0  0  0  0  0  0  0  0  0
  1  2  1  0
  2  3  2  0
  3  4  1  0
  4  5  1  0
  4  6  2  0
  6  7  1  0
  7  8  2  0
  8  9  1  0
  9 10  1  0
  9 11  2  0
 11 12  1  0
 11 13  1  0
 13 14  2  0
 14  2  1  0
 14  7  1  0
  5 15  1  0
  5 16  1  0
 12 17  1  0
 12 18  1  0
M  END
> <minimizedAffinity>
-4.50028

> <CNNscore>
0.2670952678

> <CNNaffinity>
4.2565016747

> <CNN_VS>
1.1368914843

> <CNNaffinity_variance>
0.0858954117

$$$$



 18 19  0  0  0  0  0  0  0  0999 V2000
   54.6942   22.8616   12.2190 C   0  0  0  0  0  0  0  0  0  0  0  0
   54.0208   21.5205   12.3142 C   0  0  0  0  0  0  0  0  0  0  0  0
   54.7951   20.3939   12.6080 C   0  0  0  0  0  0  0  0  0  0  0  0
   54.1828   19.1571   12.6997 C   0  0  0  0  0  0  0  0  0  0  0  0
   54.9259   18.0210   13.0089 N   0  0  0  0  0  0  0  0  0  0  0  0
   52.8647   18.9828   12.5352 N   0  0  0  0  0  0  0  0  0  0  0  0
   52.1039   20.0532   12.2573 C   0  0  0  0  0  0  0  0  0  0  0  0
   50.7417   19.8578   12.1044 C   0  0  0  0  0  0  0  0  0  0  0  0
   49.8841   20.9181   11.8104 C   0  0  0  0  0  0  0  0  0  0  0  0
   48.1931   20.5892   11.6478 Cl  0  0  0  0  0  0  0  0  0  0  0  0
   50.3799   22.2137   11.6207 C   0  0  0  0  0  0  0  0  0  0  0  0
   49.5323   23.3205   11.4464 N   0  0  0  0  0  0  0  0  0  0  0  0
   51.7461   22.4248   11.8263 C   0  0  0  0  0  0  0  0  0  0  0  0
   52.6284   21.3586   12.1257 C   0  0  0  0  0  0  0  0  0  0  0  0
   55.8991   18.0901   13.1407 H   0  0  0  0  0  0  0  0  0  0  0  0
   54.4782   17.1485   13.0956 H   0  0  0  0  0  0  0  0  0  0  0  0
   48.5682   23.1841   11.3008 H   0  0  0  0  0  0  0  0  0  0  0  0
   49.9024   24.2325   11.4699 H   0  0  0  0  0  0  0  0  0  0  0  0
  1  2  1  0
  2  3  2  0
  3  4  1  0
  4  5  1  0
  4  6  2  0
  6  7  1  0
  7  8  2  0
  8  9  1  0
  9 10  1  0
  9 11  2  0
 11 12  1  0
 11 13  1  0
 13 14  2  0
 14  2  1  0
 14  7  1  0
  5 15  1  0
  5 16  1  0
 12 17  1  0
 12 18  1  0
M  END
> <minimizedAffinity>
-6.06682

> <CNNscore>
0.2529872358

> <CNNaffinity>
4.2311282158

> <CNN_VS>
1.0704214573

> <CNNaffinity_variance>
0.4672335684

$$$$



 18 19  0  0  0  0  0  0  0  0999 V2000
   56.6896   27.3013    6.5952 C   0  0  0  0  0  0  0  0  0  0  0  0
   57.3079   28.0047    7.7717 C   0  0  0  0  0  0  0  0  0  0  0  0
   58.6615   28.3506    7.7182 C   0  0  0  0  0  0  0  0  0  0  0  0
   59.2372   29.0000    8.7952 C   0  0  0  0  0  0  0  0  0  0  0  0
   60.5783   29.3728    8.7623 N   0  0  0  0  0  0  0  0  0  0  0  0
   58.5508   29.3338    9.8963 N   0  0  0  0  0  0  0  0  0  0  0  0
   57.2488   29.0143    9.9644 C   0  0  0  0  0  0  0  0  0  0  0  0
   56.5509   29.3790   11.1032 C   0  0  0  0  0  0  0  0  0  0  0  0
   55.1965   29.0797   11.2523 C   0  0  0  0  0  0  0  0  0  0  0  0
   54.3965   29.5826   12.7019 Cl  0  0  0  0  0  0  0  0  0  0  0  0
   54.5050   28.3629   10.2683 C   0  0  0  0  0  0  0  0  0  0  0  0
   53.1172   28.1539   10.3320 N   0  0  0  0  0  0  0  0  0  0  0  0
   55.1917   28.0394    9.0948 C   0  0  0  0  0  0  0  0  0  0  0  0
   56.5660   28.3374    8.9289 C   0  0  0  0  0  0  0  0  0  0  0  0
   61.1311   29.1535    7.9777 H   0  0  0  0  0  0  0  0  0  0  0  0
   60.9737   29.8558    9.5235 H   0  0  0  0  0  0  0  0  0  0  0  0
   52.6228   28.3780   11.1534 H   0  0  0  0  0  0  0  0  0  0  0  0
   52.6390   27.7834    9.5553 H   0  0  0  0  0  0  0  0  0  0  0  0
  1  2  1  0
  2  3  2  0
  3  4  1  0
  4  5  1  0
  4  6  2  0
  6  7  1  0
  7  8  2  0
  8  9  1  0
  9 10  1  0
  9 11  2  0
 11 12  1  0
 11 13  1  0
 13 14  2  0
 14  2  1  0
 14  7  1  0
  5 15  1  0
  5 16  1  0
 12 17  1  0
 12 18  1  0
M  END
> <minimizedAffinity>
-4.82450

> <CNNscore>
0.2413213700

> <CNNaffinity>
4.2210083008

> <CNN_VS>
1.0186195374

> <CNNaffinity_variance>
0.0757852271

$$$$



 18 19  0  0  0  0  0  0  0  0999 V2000
   58.9667   27.1171   20.6455 C   0  0  0  0  0  0  0  0  0  0  0  0
   57.5456   27.5031   20.3409 C   0  0  0  0  0  0  0  0  0  0  0  0
   56.6723   27.7608   21.4020 C   0  0  0  0  0  0  0  0  0  0  0  0
   55.3643   28.1187   21.1302 C   0  0  0  0  0  0  0  0  0  0  0  0
   54.4775   28.3989   22.1664 N   0  0  0  0  0  0  0  0  0  0  0  0
   54.8884   28.2489   19.8846 N   0  0  0  0  0  0  0  0  0  0  0  0
   55.7130   28.0102   18.8526 C   0  0  0  0  0  0  0  0  0  0  0  0
   55.2093   28.1631   17.5720 C   0  0  0  0  0  0  0  0  0  0  0  0
   56.0010   27.9300   16.4473 C   0  0  0  0  0  0  0  0  0  0  0  0
   55.2968   28.1561   14.8829 Cl  0  0  0  0  0  0  0  0  0  0  0  0
   57.3251   27.4938   16.5767 C   0  0  0  0  0  0  0  0  0  0  0  0
   58.1828   27.3695   15.4710 N   0  0  0  0  0  0  0  0  0  0  0  0
   57.8533   27.3895   17.8665 C   0  0  0  0  0  0  0  0  0  0  0  0
   57.0621   27.6236   19.0173 C   0  0  0  0  0  0  0  0  0  0  0  0
   54.7731   28.3198   23.1022 H   0  0  0  0  0  0  0  0  0  0  0  0
   53.5549   28.6760   21.9634 H   0  0  0  0  0  0  0  0  0  0  0  0
   57.8222   27.4412   14.5577 H   0  0  0  0  0  0  0  0  0  0  0  0
   59.1445   27.2108   15.6094 H   0  0  0  0  0  0  0  0  0  0  0  0
  1  2  1  0
  2  3  2  0
  3  4  1  0
  4  5  1  0
  4  6  2  0
  6  7  1  0
  7  8  2  0
  8  9  1  0
  9 10  1  0
  9 11  2  0
 11 12  1  0
 11 13  1  0
 13 14  2  0
 14  2  1  0
 14  7  1  0
  5 15  1  0
  5 16  1  0
 12 17  1  0
 12 18  1  0
M  END
> <minimizedAffinity>
-4.82172

> <CNNscore>
0.2334465981

> <CNNaffinity>
3.7312345505

> <CNN_VS>
0.8710440397

> <CNNaffinity_variance>
0.5368228555

$$$$
