


 18 19  0  0  0  0  0  0  0  0999 V2000
   82.2411   72.0237   -7.3094 C   0  0  0  0  0  0  0  0  0  0  0  0
   83.3091   71.9940   -8.2066 C   0  0  0  0  0  0  0  0  0  0  0  0
   83.1941   71.3325   -9.4395 C   0  0  0  0  0  0  0  0  0  0  0  0
   81.9669   70.7147   -9.7000 C   0  0  0  0  0  0  0  0  0  0  0  0
   80.9056   70.7123   -8.8619 N   0  0  0  0  0  0  0  0  0  0  0  0
   81.0715   71.3674   -7.6910 C   0  0  0  0  0  0  0  0  0  0  0  0
   80.0214   71.3704   -6.8532 F   0  0  0  0  0  0  0  0  0  0  0  0
   84.3039   71.3217  -10.3136 N   0  0  0  0  0  0  0  0  0  0  0  0
   83.8825   70.9934  -11.6882 C   0  0  0  0  0  0  0  0  0  0  0  0
   85.0545   70.6301  -12.5985 C   0  0  0  0  0  0  0  0  0  0  0  0
   85.8843   71.8450  -13.0088 C   0  0  0  0  0  0  0  0  0  0  0  0
   86.9298   72.2656  -12.0838 N   0  0  0  0  0  0  0  0  0  0  0  0
   86.6414   72.1082  -10.6562 C   0  0  0  0  0  0  0  0  0  0  0  0
   85.2218   72.4713  -10.1756 C   0  0  0  0  0  0  0  0  0  0  0  0
   87.1162   73.2536  -12.2552 H   0  0  0  0  0  0  0  0  0  0  0  0
   82.2369   72.6371   -6.0874 O   0  0  0  0  0  0  0  0  0  0  0  0
   82.5924   74.6438   -4.8539 C   0  0  0  0  0  0  0  0  0  0  0  0
   81.8974   74.0219   -6.0520 C   0  0  0  0  0  0  0  0  0  0  0  0
 17 18  1  0
 18 16  1  0
 16  1  1  0
  1  2  2  0
  2  3  1  0
  3  8  1  0
  8  9  1  0
  9 10  1  0
 10 11  1  0
 11 12  1  0
 12 13  1  0
 13 14  1  0
  3  4  2  0
  4  5  1  0
  5  6  2  0
  6  7  1  0
  6  1  1  0
 14  8  1  0
 12 15  1  0
M  END
> <minimizedAffinity>
-6.07228

> <CNNscore>
0.9467298388

> <CNNaffinity>
7.6970791817

> <CNN_VS>
7.2870545387

> <CNNaffinity_variance>
1.2839293480

$$$$



 18 19  0  0  0  0  0  0  0  0999 V2000
   82.1313   72.4747   -6.7920 C   0  0  0  0  0  0  0  0  0  0  0  0
   83.0604   72.3796   -7.8285 C   0  0  0  0  0  0  0  0  0  0  0  0
   82.7771   71.6302   -8.9813 C   0  0  0  0  0  0  0  0  0  0  0  0
   81.5316   70.9953   -9.0180 C   0  0  0  0  0  0  0  0  0  0  0  0
   80.6011   71.0541   -8.0386 N   0  0  0  0  0  0  0  0  0  0  0  0
   80.9260   71.7927   -6.9537 C   0  0  0  0  0  0  0  0  0  0  0  0
   80.0064   71.8569   -5.9765 F   0  0  0  0  0  0  0  0  0  0  0  0
   83.7505   71.5555  -10.0024 N   0  0  0  0  0  0  0  0  0  0  0  0
   85.0826   71.9141   -9.4809 C   0  0  0  0  0  0  0  0  0  0  0  0
   86.1006   72.1861  -10.5871 C   0  0  0  0  0  0  0  0  0  0  0  0
   86.5768   70.9111  -11.2803 C   0  0  0  0  0  0  0  0  0  0  0  0
   85.7496   70.4125  -12.3725 N   0  0  0  0  0  0  0  0  0  0  0  0
   84.3027   70.5924  -12.2312 C   0  0  0  0  0  0  0  0  0  0  0  0
   83.6894   70.3392  -10.8391 C   0  0  0  0  0  0  0  0  0  0  0  0
   85.9298   69.4129  -12.4663 H   0  0  0  0  0  0  0  0  0  0  0  0
   82.2956   73.1754   -5.6295 O   0  0  0  0  0  0  0  0  0  0  0  0
   82.8070   75.1895   -4.4647 C   0  0  0  0  0  0  0  0  0  0  0  0
   82.1435   74.5921   -5.6927 C   0  0  0  0  0  0  0  0  0  0  0  0
 17 18  1  0
 18 16  1  0
 16  1  1  0
  1  2  2  0
  2  3  1  0
  3  8  1  0
  8  9  1  0
  9 10  1  0
 10 11  1  0
 11 12  1  0
 12 13  1  0
 13 14  1  0
  3  4  2  0
  4  5  1  0
  5  6  2  0
  6  7  1  0
  6  1  1  0
 14  8  1  0
 12 15  1  0
M  END
> <minimizedAffinity>
-5.53197

> <CNNscore>
0.9201220870

> <CNNaffinity>
7.0389895439

> <CNN_VS>
6.4767298698

> <CNNaffinity_variance>
0.3600156009

$$$$



 18 19  0  0  0  0  0  0  0  0999 V2000
   81.0731   70.5842   -9.2924 C   0  0  0  0  0  0  0  0  0  0  0  0
   82.2232   70.6734  -10.0771 C   0  0  0  0  0  0  0  0  0  0  0  0
   83.3916   71.2681   -9.5751 C   0  0  0  0  0  0  0  0  0  0  0  0
   83.3254   71.7590   -8.2674 C   0  0  0  0  0  0  0  0  0  0  0  0
   82.2346   71.6998   -7.4703 N   0  0  0  0  0  0  0  0  0  0  0  0
   81.1395   71.1135   -8.0041 C   0  0  0  0  0  0  0  0  0  0  0  0
   80.0519   71.0500   -7.2182 F   0  0  0  0  0  0  0  0  0  0  0  0
   84.5303   71.3433  -10.4079 N   0  0  0  0  0  0  0  0  0  0  0  0
   84.1877   70.9779  -11.7949 C   0  0  0  0  0  0  0  0  0  0  0  0
   85.4179   70.7067  -12.6594 C   0  0  0  0  0  0  0  0  0  0  0  0
   86.1627   71.9828  -13.0465 C   0  0  0  0  0  0  0  0  0  0  0  0
   87.1363   72.4886  -12.0863 N   0  0  0  0  0  0  0  0  0  0  0  0
   86.8087   72.3132  -10.6694 C   0  0  0  0  0  0  0  0  0  0  0  0
   85.3478   72.5631  -10.2433 C   0  0  0  0  0  0  0  0  0  0  0  0
   87.2494   73.4879  -12.2569 H   0  0  0  0  0  0  0  0  0  0  0  0
   79.8842   70.0259   -9.6723 O   0  0  0  0  0  0  0  0  0  0  0  0
   79.5614   68.0274  -10.9279 C   0  0  0  0  0  0  0  0  0  0  0  0
   79.7927   69.5260  -11.0049 C   0  0  0  0  0  0  0  0  0  0  0  0
 17 18  1  0
 18 16  1  0
 16  1  1  0
  1  2  2  0
  2  3  1  0
  3  8  1  0
  8  9  1  0
  9 10  1  0
 10 11  1  0
 11 12  1  0
 12 13  1  0
 13 14  1  0
  3  4  2  0
  4  5  1  0
  5  6  2  0
  6  7  1  0
  6  1  1  0
 14  8  1  0
 12 15  1  0
M  END
> <minimizedAffinity>
-6.32912

> <CNNscore>
0.9140433073

> <CNNaffinity>
7.4262900352

> <CNN_VS>
6.7879505157

> <CNNaffinity_variance>
0.5754523873

$$$$



 18 19  0  0  0  0  0  0  0  0999 V2000
   81.1921   70.9018   -9.1600 C   0  0  0  0  0  0  0  0  0  0  0  0
   82.3659   71.4906   -9.6313 C   0  0  0  0  0  0  0  0  0  0  0  0
   83.0031   71.0019  -10.7828 C   0  0  0  0  0  0  0  0  0  0  0  0
   82.3993   69.9067  -11.4085 C   0  0  0  0  0  0  0  0  0  0  0  0
   81.2662   69.3000  -10.9882 N   0  0  0  0  0  0  0  0  0  0  0  0
   80.6936   69.8147   -9.8769 C   0  0  0  0  0  0  0  0  0  0  0  0
   79.5670   69.2181   -9.4533 F   0  0  0  0  0  0  0  0  0  0  0  0
   84.1938   71.6245  -11.2194 N   0  0  0  0  0  0  0  0  0  0  0  0
   85.1888   71.6687  -10.1318 C   0  0  0  0  0  0  0  0  0  0  0  0
   86.3480   72.6197  -10.4250 C   0  0  0  0  0  0  0  0  0  0  0  0
   87.3216   72.0644  -11.4627 C   0  0  0  0  0  0  0  0  0  0  0  0
   86.9827   72.2881  -12.8629 N   0  0  0  0  0  0  0  0  0  0  0  0
   85.5583   72.2576  -13.2036 C   0  0  0  0  0  0  0  0  0  0  0  0
   84.6925   71.1711  -12.5343 C   0  0  0  0  0  0  0  0  0  0  0  0
   87.4485   71.5668  -13.4136 H   0  0  0  0  0  0  0  0  0  0  0  0
   80.4856   71.2929   -8.0566 O   0  0  0  0  0  0  0  0  0  0  0  0
   81.7651   72.5583   -6.4958 C   0  0  0  0  0  0  0  0  0  0  0  0
   81.1433   71.2057   -6.7942 C   0  0  0  0  0  0  0  0  0  0  0  0
 17 18  1  0
 18 16  1  0
 16  1  1  0
  1  2  2  0
  2  3  1  0
  3  8  1  0
  8  9  1  0
  9 10  1  0
 10 11  1  0
 11 12  1  0
 12 13  1  0
 13 14  1  0
  3  4  2  0
  4  5  1  0
  5  6  2  0
  6  7  1  0
  6  1  1  0
 14  8  1  0
 12 15  1  0
M  END
> <minimizedAffinity>
-5.07848

> <CNNscore>
0.7365293503

> <CNNaffinity>
7.0526714325

> <CNN_VS>
5.1944994926

> <CNNaffinity_variance>
0.5741780400

$$$$



 18 19  0  0  0  0  0  0  0  0999 V2000
   77.8827   65.1913   -8.9462 C   0  0  0  0  0  0  0  0  0  0  0  0
   78.5745   64.1143   -8.3911 C   0  0  0  0  0  0  0  0  0  0  0  0
   78.2998   63.6800   -7.0847 C   0  0  0  0  0  0  0  0  0  0  0  0
   77.3127   64.3865   -6.3907 C   0  0  0  0  0  0  0  0  0  0  0  0
   76.6188   65.4376   -6.8833 N   0  0  0  0  0  0  0  0  0  0  0  0
   76.9221   65.8100   -8.1472 C   0  0  0  0  0  0  0  0  0  0  0  0
   76.2366   66.8528   -8.6443 F   0  0  0  0  0  0  0  0  0  0  0  0
   79.0302   62.5901   -6.5608 N   0  0  0  0  0  0  0  0  0  0  0  0
   78.1249   61.4902   -6.1792 C   0  0  0  0  0  0  0  0  0  0  0  0
   78.8030   60.4395   -5.3015 C   0  0  0  0  0  0  0  0  0  0  0  0
   79.7635   59.5454   -6.0832 C   0  0  0  0  0  0  0  0  0  0  0  0
   81.1199   60.0469   -6.2682 N   0  0  0  0  0  0  0  0  0  0  0  0
   81.2630   61.4938   -6.4471 C   0  0  0  0  0  0  0  0  0  0  0  0
   80.2250   62.2037   -7.3396 C   0  0  0  0  0  0  0  0  0  0  0  0
   81.5083   59.5925   -7.0946 H   0  0  0  0  0  0  0  0  0  0  0  0
   78.0621   65.6975  -10.2036 O   0  0  0  0  0  0  0  0  0  0  0  0
   79.6533   66.7529  -11.6280 C   0  0  0  0  0  0  0  0  0  0  0  0
   78.8741   66.8632  -10.3296 C   0  0  0  0  0  0  0  0  0  0  0  0
 17 18  1  0
 18 16  1  0
 16  1  1  0
  1  2  2  0
  2  3  1  0
  3  8  1  0
  8  9  1  0
  9 10  1  0
 10 11  1  0
 11 12  1  0
 12 13  1  0
 13 14  1  0
  3  4  2  0
  4  5  1  0
  5  6  2  0
  6  7  1  0
  6  1  1  0
 14  8  1  0
 12 15  1  0
M  END
> <minimizedAffinity>
-4.38229

> <CNNscore>
0.5947911739

> <CNNaffinity>
4.0152645111

> <CNN_VS>
2.3882439137

> <CNNaffinity_variance>
0.8964355588

$$$$



 18 19  0  0  0  0  0  0  0  0999 V2000
   80.2477   62.7958   -8.4834 C   0  0  0  0  0  0  0  0  0  0  0  0
   81.3886   62.0806   -8.8486 C   0  0  0  0  0  0  0  0  0  0  0  0
   82.5133   62.0438   -8.0093 C   0  0  0  0  0  0  0  0  0  0  0  0
   82.4179   62.7603   -6.8122 C   0  0  0  0  0  0  0  0  0  0  0  0
   81.3373   63.4707   -6.4167 N   0  0  0  0  0  0  0  0  0  0  0  0
   80.2823   63.4680   -7.2622 C   0  0  0  0  0  0  0  0  0  0  0  0
   79.2045   64.1708   -6.8761 F   0  0  0  0  0  0  0  0  0  0  0  0
   83.6493   61.3130   -8.4232 N   0  0  0  0  0  0  0  0  0  0  0  0
   84.4540   60.8959   -7.2599 C   0  0  0  0  0  0  0  0  0  0  0  0
   85.8506   60.4115   -7.6460 C   0  0  0  0  0  0  0  0  0  0  0  0
   85.8397   59.0279   -8.2931 C   0  0  0  0  0  0  0  0  0  0  0  0
   85.5909   58.9793   -9.7288 N   0  0  0  0  0  0  0  0  0  0  0  0
   84.6555   59.9716  -10.2640 C   0  0  0  0  0  0  0  0  0  0  0  0
   83.3886   60.2700   -9.4369 C   0  0  0  0  0  0  0  0  0  0  0  0
   85.2206   58.0545   -9.9480 H   0  0  0  0  0  0  0  0  0  0  0  0
   79.0975   62.8996   -9.2153 O   0  0  0  0  0  0  0  0  0  0  0  0
   76.8580   62.4255   -8.5564 C   0  0  0  0  0  0  0  0  0  0  0  0
   78.1499   61.8402   -9.0980 C   0  0  0  0  0  0  0  0  0  0  0  0
 17 18  1  0
 18 16  1  0
 16  1  1  0
  1  2  2  0
  2  3  1  0
  3  8  1  0
  8  9  1  0
  9 10  1  0
 10 11  1  0
 11 12  1  0
 12 13  1  0
 13 14  1  0
  3  4  2  0
  4  5  1  0
  5  6  2  0
  6  7  1  0
  6  1  1  0
 14  8  1  0
 12 15  1  0
M  END
> <minimizedAffinity>
-4.35353

> <CNNscore>
0.5156204104

> <CNNaffinity>
4.4344410896

> <CNN_VS>
2.2864882946

> <CNNaffinity_variance>
0.0729747042

$$$$



 18 19  0  0  0  0  0  0  0  0999 V2000
   78.3604   65.1104   -9.9764 C   0  0  0  0  0  0  0  0  0  0  0  0
   78.2178   63.9662  -10.7619 C   0  0  0  0  0  0  0  0  0  0  0  0
   78.2870   64.0422  -12.1620 C   0  0  0  0  0  0  0  0  0  0  0  0
   78.4982   65.3135  -12.7046 C   0  0  0  0  0  0  0  0  0  0  0  0
   78.6381   66.4508  -11.9864 N   0  0  0  0  0  0  0  0  0  0  0  0
   78.5665   66.3177  -10.6428 C   0  0  0  0  0  0  0  0  0  0  0  0
   78.7054   67.4428   -9.9221 F   0  0  0  0  0  0  0  0  0  0  0  0
   78.1295   62.8590  -12.9176 N   0  0  0  0  0  0  0  0  0  0  0  0
   78.9034   61.7532  -12.3233 C   0  0  0  0  0  0  0  0  0  0  0  0
   79.0536   60.5595  -13.2650 C   0  0  0  0  0  0  0  0  0  0  0  0
   77.7659   59.7499  -13.4050 C   0  0  0  0  0  0  0  0  0  0  0  0
   76.8040   60.2174  -14.3959 N   0  0  0  0  0  0  0  0  0  0  0  0
   76.7006   61.6679  -14.5728 C   0  0  0  0  0  0  0  0  0  0  0  0
   76.7387   62.5415  -13.3026 C   0  0  0  0  0  0  0  0  0  0  0  0
   75.8841   59.8723  -14.1216 H   0  0  0  0  0  0  0  0  0  0  0  0
   78.3148   65.1566   -8.6106 O   0  0  0  0  0  0  0  0  0  0  0  0
   76.8494   64.6072   -6.8147 C   0  0  0  0  0  0  0  0  0  0  0  0
   77.7072   64.0548   -7.9390 C   0  0  0  0  0  0  0  0  0  0  0  0
 17 18  1  0
 18 16  1  0
 16  1  1  0
  1  2  2  0
  2  3  1  0
  3  8  1  0
  8  9  1  0
  9 10  1  0
 10 11  1  0
 11 12  1  0
 12 13  1  0
 13 14  1  0
  3  4  2  0
  4  5  1  0
  5  6  2  0
  6  7  1  0
  6  1  1  0
 14  8  1  0
 12 15  1  0
M  END
> <minimizedAffinity>
-3.90576

> <CNNscore>
0.4436182380

> <CNNaffinity>
3.8950498104

> <CNN_VS>
1.7279151678

> <CNNaffinity_variance>
0.2802282274

$$$$



 18 19  0  0  0  0  0  0  0  0999 V2000
   78.7021   65.7998  -10.3663 C   0  0  0  0  0  0  0  0  0  0  0  0
   79.8022   64.9615  -10.1835 C   0  0  0  0  0  0  0  0  0  0  0  0
   79.8824   64.1137   -9.0674 C   0  0  0  0  0  0  0  0  0  0  0  0
   78.8126   64.1686   -8.1686 C   0  0  0  0  0  0  0  0  0  0  0  0
   77.7283   64.9660   -8.2999 N   0  0  0  0  0  0  0  0  0  0  0  0
   77.7025   65.7584   -9.3951 C   0  0  0  0  0  0  0  0  0  0  0  0
   76.6283   66.5531   -9.5333 F   0  0  0  0  0  0  0  0  0  0  0  0
   81.0185   63.2873   -8.9191 N   0  0  0  0  0  0  0  0  0  0  0  0
   81.9217   63.8225   -7.8833 C   0  0  0  0  0  0  0  0  0  0  0  0
   83.3082   63.1816   -7.9148 C   0  0  0  0  0  0  0  0  0  0  0  0
   83.3150   61.7574   -7.3628 C   0  0  0  0  0  0  0  0  0  0  0  0
   82.9678   60.6926   -8.2963 N   0  0  0  0  0  0  0  0  0  0  0  0
   81.9525   61.0113   -9.3030 C   0  0  0  0  0  0  0  0  0  0  0  0
   80.7349   61.8391   -8.8445 C   0  0  0  0  0  0  0  0  0  0  0  0
   82.6257   59.9016   -7.7507 H   0  0  0  0  0  0  0  0  0  0  0  0
   78.5149   66.6611  -11.4117 O   0  0  0  0  0  0  0  0  0  0  0  0
   79.8042   68.6236  -11.0103 C   0  0  0  0  0  0  0  0  0  0  0  0
   79.6534   67.3846  -11.8748 C   0  0  0  0  0  0  0  0  0  0  0  0
 17 18  1  0
 18 16  1  0
 16  1  1  0
  1  2  2  0
  2  3  1  0
  3  8  1  0
  8  9  1  0
  9 10  1  0
 10 11  1  0
 11 12  1  0
 12 13  1  0
 13 14  1  0
  3  4  2  0
  4  5  1  0
  5  6  2  0
  6  7  1  0
  6  1  1  0
 14  8  1  0
 12 15  1  0
M  END
> <minimizedAffinity>
-4.68483

> <CNNscore>
0.4287222028

> <CNNaffinity>
3.9181487560

> <CNN_VS>
1.6797974110

> <CNNaffinity_variance>
0.7448542714

$$$$



 18 19  0  0  0  0  0  0  0  0999 V2000
   77.7018   62.7344   -7.6137 C   0  0  0  0  0  0  0  0  0  0  0  0
   78.7998   62.1508   -8.2464 C   0  0  0  0  0  0  0  0  0  0  0  0
   80.1088   62.4532   -7.8390 C   0  0  0  0  0  0  0  0  0  0  0  0
   80.2358   63.3621   -6.7839 C   0  0  0  0  0  0  0  0  0  0  0  0
   79.2041   63.9564   -6.1427 N   0  0  0  0  0  0  0  0  0  0  0  0
   77.9663   63.6255   -6.5743 C   0  0  0  0  0  0  0  0  0  0  0  0
   76.9359   64.2110   -5.9419 F   0  0  0  0  0  0  0  0  0  0  0  0
   81.1906   61.8443   -8.5133 N   0  0  0  0  0  0  0  0  0  0  0  0
   82.3979   61.8402   -7.6664 C   0  0  0  0  0  0  0  0  0  0  0  0
   83.6707   61.5171   -8.4473 C   0  0  0  0  0  0  0  0  0  0  0  0
   83.7763   60.0403   -8.8227 C   0  0  0  0  0  0  0  0  0  0  0  0
   83.1013   59.6269  -10.0471 N   0  0  0  0  0  0  0  0  0  0  0  0
   81.8403   60.3042  -10.3589 C   0  0  0  0  0  0  0  0  0  0  0  0
   80.8706   60.5702   -9.1898 C   0  0  0  0  0  0  0  0  0  0  0  0
   82.9063   58.6285   -9.9716 H   0  0  0  0  0  0  0  0  0  0  0  0
   76.3880   62.5134   -7.9211 O   0  0  0  0  0  0  0  0  0  0  0  0
   74.5854   61.2751   -8.8655 C   0  0  0  0  0  0  0  0  0  0  0  0
   76.0483   61.2378   -8.4611 C   0  0  0  0  0  0  0  0  0  0  0  0
 17 18  1  0
 18 16  1  0
 16  1  1  0
  1  2  2  0
  2  3  1  0
  3  8  1  0
  8  9  1  0
  9 10  1  0
 10 11  1  0
 11 12  1  0
 12 13  1  0
 13 14  1  0
  3  4  2  0
  4  5  1  0
  5  6  2  0
  6  7  1  0
  6  1  1  0
 14  8  1  0
 12 15  1  0
M  END
> <minimizedAffinity>
-3.86647

> <CNNscore>
0.4070860744

> <CNNaffinity>
4.3257508278

> <CNN_VS>
1.7609529495

> <CNNaffinity_variance>
0.4602531493

$$$$
