


 35 36  0  0  0  0  0  0  0  0999 V2000
  -41.5071  -60.6221  -50.0199 C   0  0  0  0  0  0  0  0  0  0  0  0
  -42.3828  -59.6044  -50.5253 O   0  0  0  0  0  0  0  0  0  0  0  0
  -40.1167  -59.9398  -49.8461 C   0  0  0  0  0  0  0  0  0  0  0  0
  -38.9560  -60.8553  -50.2542 C   0  0  0  0  0  0  0  0  0  0  0  0
  -39.0737  -61.1973  -51.7575 C   0  0  0  0  0  0  0  0  0  0  0  0
  -38.2982  -62.3780  -51.9915 O   0  0  0  0  0  0  0  0  0  0  0  0
  -40.5255  -61.4475  -52.2186 C   0  0  0  0  0  0  0  0  0  0  0  0
  -41.0266  -60.2855  -52.8934 O   0  0  0  0  0  0  0  0  0  0  0  0
  -41.4502  -61.7694  -51.0440 C   0  0  0  0  0  0  0  0  0  0  0  0
  -42.4292  -58.8730  -49.8899 H   0  0  0  0  0  0  0  0  0  0  0  0
  -38.6559  -63.1095  -51.4645 H   0  0  0  0  0  0  0  0  0  0  0  0
  -41.0327  -59.5334  -52.2808 H   0  0  0  0  0  0  0  0  0  0  0  0
  -42.0352  -61.0556  -48.6211 C   0  0  0  0  0  0  0  0  0  0  0  0
  -42.3296  -60.0308  -47.4491 C   0  0  0  0  0  0  0  0  0  0  0  0
  -41.4540  -58.7746  -47.6410 C   0  0  0  0  0  0  0  0  0  0  0  0
  -42.0237  -60.6539  -46.0855 C   0  0  0  0  0  0  0  0  0  0  0  0
  -43.8533  -59.6392  -47.6220 C   0  0  0  0  0  0  0  0  0  0  0  0
  -45.0166  -59.9279  -46.5877 C   0  0  0  0  0  0  0  0  0  0  0  0
  -45.1910  -58.7785  -45.5864 C   0  0  0  0  0  0  0  0  0  0  0  0
  -44.7346  -61.2299  -45.8248 C   0  0  0  0  0  0  0  0  0  0  0  0
  -46.3175  -60.0624  -47.4780 C   0  0  0  0  0  0  0  0  0  0  0  0
  -46.6283  -57.4946  -47.7374 C   0  0  0  0  0  0  0  0  0  0  0  0
  -46.9957  -58.8882  -48.2570 C   0  0  0  0  0  0  0  0  0  0  0  0
  -48.5293  -59.0305  -48.3056 C   0  0  0  0  0  0  0  0  0  0  0  0
  -46.4963  -58.9802  -49.7227 C   0  0  0  0  0  0  0  0  0  0  0  0
  -37.5745  -60.2232  -49.9664 C   0  0  0  0  0  0  0  0  0  0  0  0
  -37.0604  -60.5032  -48.5477 C   0  0  0  0  0  0  0  0  0  0  0  0
  -38.1495  -60.3133  -47.4883 C   0  0  0  0  0  0  0  0  0  0  0  0
  -37.6507  -59.6894  -46.3067 O   0  0  0  0  0  0  0  0  0  0  0  0
  -37.1353  -60.4697  -45.3106 C   0  0  0  0  0  0  0  0  0  0  0  0
  -35.8017  -60.8489  -45.1573 C   0  0  0  0  0  0  0  0  0  0  0  0
  -35.4183  -61.6533  -44.0785 C   0  0  0  0  0  0  0  0  0  0  0  0
  -36.3643  -62.0815  -43.1490 C   0  0  0  0  0  0  0  0  0  0  0  0
  -37.6965  -61.7053  -43.2951 C   0  0  0  0  0  0  0  0  0  0  0  0
  -38.0769  -60.9023  -44.3721 C   0  0  0  0  0  0  0  0  0  0  0  0
 22 23  1  0
 23 24  1  0
 23 25  1  0
 23 21  1  0
 21 18  1  0
 18 19  1  0
 18 20  1  0
 18 17  1  0
 17 14  1  0
 14 15  1  0
 14 16  1  0
 14 13  1  0
 13  1  1  0
  1  2  1  0
  1  3  1  0
  3  4  1  0
  4 26  1  0
 26 27  1  0
 27 28  1  0
 28 29  1  0
 29 30  1  0
 30 31  2  0
 31 32  1  0
 32 33  2  0
 33 34  1  0
 34 35  2  0
  4  5  1  0
  5  6  1  0
  5  7  1  0
  7  8  1  0
  7  9  1  0
  9  1  1  0
 35 30  1  0
  2 10  1  0
  6 11  1  0
  8 12  1  0
M  END
> <minimizedAffinity>
-8.11984

> <CNNscore>
0.2659710944

> <CNNaffinity>
5.4609837532

> <CNN_VS>
1.4524638653

> <CNNaffinity_variance>
0.6275750399

$$$$



 35 36  0  0  0  0  0  0  0  0999 V2000
  -45.6749  -61.6967  -43.4407 C   0  0  0  0  0  0  0  0  0  0  0  0
  -46.0583  -63.0777  -43.5027 O   0  0  0  0  0  0  0  0  0  0  0  0
  -44.1325  -61.6725  -43.6627 C   0  0  0  0  0  0  0  0  0  0  0  0
  -43.4244  -60.6481  -42.7677 C   0  0  0  0  0  0  0  0  0  0  0  0
  -43.6316  -61.0301  -41.2838 C   0  0  0  0  0  0  0  0  0  0  0  0
  -43.3868  -59.8571  -40.5000 O   0  0  0  0  0  0  0  0  0  0  0  0
  -45.0507  -61.5548  -40.9771 C   0  0  0  0  0  0  0  0  0  0  0  0
  -45.0289  -62.9859  -40.8869 O   0  0  0  0  0  0  0  0  0  0  0  0
  -46.0557  -61.1465  -42.0548 C   0  0  0  0  0  0  0  0  0  0  0  0
  -45.8245  -63.4394  -44.3718 H   0  0  0  0  0  0  0  0  0  0  0  0
  -44.0199  -59.1650  -40.7472 H   0  0  0  0  0  0  0  0  0  0  0  0
  -44.7493  -63.3592  -41.7374 H   0  0  0  0  0  0  0  0  0  0  0  0
  -46.3667  -60.9549  -44.6217 C   0  0  0  0  0  0  0  0  0  0  0  0
  -47.8819  -61.1864  -45.0231 C   0  0  0  0  0  0  0  0  0  0  0  0
  -48.6055  -61.9194  -43.8739 C   0  0  0  0  0  0  0  0  0  0  0  0
  -47.9897  -62.0225  -46.3000 C   0  0  0  0  0  0  0  0  0  0  0  0
  -48.4888  -59.7335  -45.1825 C   0  0  0  0  0  0  0  0  0  0  0  0
  -48.9976  -59.0746  -46.5291 C   0  0  0  0  0  0  0  0  0  0  0  0
  -49.4196  -57.6132  -46.3280 C   0  0  0  0  0  0  0  0  0  0  0  0
  -50.1804  -59.8734  -47.0945 C   0  0  0  0  0  0  0  0  0  0  0  0
  -47.7514  -59.1414  -47.5015 C   0  0  0  0  0  0  0  0  0  0  0  0
  -46.6168  -59.0704  -49.8392 C   0  0  0  0  0  0  0  0  0  0  0  0
  -47.6781  -58.4698  -48.9119 C   0  0  0  0  0  0  0  0  0  0  0  0
  -47.4774  -56.9447  -48.8212 C   0  0  0  0  0  0  0  0  0  0  0  0
  -49.0580  -58.6951  -49.5837 C   0  0  0  0  0  0  0  0  0  0  0  0
  -41.9130  -60.5383  -43.0752 C   0  0  0  0  0  0  0  0  0  0  0  0
  -41.3284  -61.8046  -43.7155 C   0  0  0  0  0  0  0  0  0  0  0  0
  -40.3092  -61.4825  -44.8119 C   0  0  0  0  0  0  0  0  0  0  0  0
  -39.3547  -60.5090  -44.3928 O   0  0  0  0  0  0  0  0  0  0  0  0
  -38.0288  -60.8385  -44.3870 C   0  0  0  0  0  0  0  0  0  0  0  0
  -37.0755  -60.4665  -45.3349 C   0  0  0  0  0  0  0  0  0  0  0  0
  -35.7457  -60.8783  -45.1949 C   0  0  0  0  0  0  0  0  0  0  0  0
  -35.3626  -61.6624  -44.1082 C   0  0  0  0  0  0  0  0  0  0  0  0
  -36.3085  -62.0358  -43.1576 C   0  0  0  0  0  0  0  0  0  0  0  0
  -37.6349  -61.6234  -43.2992 C   0  0  0  0  0  0  0  0  0  0  0  0
 22 23  1  0
 23 24  1  0
 23 25  1  0
 23 21  1  0
 21 18  1  0
 18 19  1  0
 18 20  1  0
 18 17  1  0
 17 14  1  0
 14 15  1  0
 14 16  1  0
 14 13  1  0
 13  1  1  0
  1  2  1  0
  1  3  1  0
  3  4  1  0
  4 26  1  0
 26 27  1  0
 27 28  1  0
 28 29  1  0
 29 30  1  0
 30 31  2  0
 31 32  1  0
 32 33  2  0
 33 34  1  0
 34 35  2  0
  4  5  1  0
  5  6  1  0
  5  7  1  0
  7  8  1  0
  7  9  1  0
  9  1  1  0
 35 30  1  0
  2 10  1  0
  6 11  1  0
  8 12  1  0
M  END
> <minimizedAffinity>
-5.24543

> <CNNscore>
0.2461646944

> <CNNaffinity>
4.9167037010

> <CNN_VS>
1.2103189230

> <CNNaffinity_variance>
0.2722189128

$$$$



 35 36  0  0  0  0  0  0  0  0999 V2000
  -45.1948  -59.6492  -47.1761 C   0  0  0  0  0  0  0  0  0  0  0  0
  -46.0593  -60.7010  -47.6283 O   0  0  0  0  0  0  0  0  0  0  0  0
  -43.8626  -59.8237  -47.9656 C   0  0  0  0  0  0  0  0  0  0  0  0
  -42.6252  -59.5569  -47.0998 C   0  0  0  0  0  0  0  0  0  0  0  0
  -42.5712  -60.5864  -45.9473 C   0  0  0  0  0  0  0  0  0  0  0  0
  -41.7225  -60.0465  -44.9284 O   0  0  0  0  0  0  0  0  0  0  0  0
  -43.9547  -60.8995  -45.3382 C   0  0  0  0  0  0  0  0  0  0  0  0
  -44.4360  -62.1509  -45.8469 O   0  0  0  0  0  0  0  0  0  0  0  0
  -44.9800  -59.8119  -45.6609 C   0  0  0  0  0  0  0  0  0  0  0  0
  -46.2046  -60.6120  -48.5832 H   0  0  0  0  0  0  0  0  0  0  0  0
  -42.0989  -59.2145  -44.6014 H   0  0  0  0  0  0  0  0  0  0  0  0
  -44.5398  -62.0902  -46.8095 H   0  0  0  0  0  0  0  0  0  0  0  0
  -45.8442  -58.2918  -47.5752 C   0  0  0  0  0  0  0  0  0  0  0  0
  -47.0931  -58.1791  -48.5438 C   0  0  0  0  0  0  0  0  0  0  0  0
  -48.3087  -58.8667  -47.8872 C   0  0  0  0  0  0  0  0  0  0  0  0
  -46.8049  -58.8454  -49.8907 C   0  0  0  0  0  0  0  0  0  0  0  0
  -47.3737  -56.6266  -48.6696 C   0  0  0  0  0  0  0  0  0  0  0  0
  -47.6351  -55.6232  -47.4732 C   0  0  0  0  0  0  0  0  0  0  0  0
  -47.6276  -56.3369  -46.1150 C   0  0  0  0  0  0  0  0  0  0  0  0
  -48.9805  -54.9095  -47.6664 C   0  0  0  0  0  0  0  0  0  0  0  0
  -46.4332  -54.5968  -47.5436 C   0  0  0  0  0  0  0  0  0  0  0  0
  -46.7649  -53.4902  -45.2150 C   0  0  0  0  0  0  0  0  0  0  0  0
  -46.3001  -53.3109  -46.6637 C   0  0  0  0  0  0  0  0  0  0  0  0
  -47.0206  -52.1005  -47.2885 C   0  0  0  0  0  0  0  0  0  0  0  0
  -44.7910  -52.9544  -46.6229 C   0  0  0  0  0  0  0  0  0  0  0  0
  -41.3112  -59.6103  -47.9131 C   0  0  0  0  0  0  0  0  0  0  0  0
  -40.2375  -58.6415  -47.3995 C   0  0  0  0  0  0  0  0  0  0  0  0
  -38.9173  -59.3515  -47.0874 C   0  0  0  0  0  0  0  0  0  0  0  0
  -39.0288  -60.2334  -45.9720 O   0  0  0  0  0  0  0  0  0  0  0  0
  -37.9018  -60.5724  -45.2782 C   0  0  0  0  0  0  0  0  0  0  0  0
  -36.5878  -60.5017  -45.7408 C   0  0  0  0  0  0  0  0  0  0  0  0
  -35.5277  -60.8817  -44.9104 C   0  0  0  0  0  0  0  0  0  0  0  0
  -35.7755  -61.3333  -43.6154 C   0  0  0  0  0  0  0  0  0  0  0  0
  -37.0842  -61.4048  -43.1467 C   0  0  0  0  0  0  0  0  0  0  0  0
  -38.1404  -61.0247  -43.9769 C   0  0  0  0  0  0  0  0  0  0  0  0
 22 23  1  0
 23 24  1  0
 23 25  1  0
 23 21  1  0
 21 18  1  0
 18 19  1  0
 18 20  1  0
 18 17  1  0
 17 14  1  0
 14 15  1  0
 14 16  1  0
 14 13  1  0
 13  1  1  0
  1  2  1  0
  1  3  1  0
  3  4  1  0
  4 26  1  0
 26 27  1  0
 27 28  1  0
 28 29  1  0
 29 30  1  0
 30 31  2  0
 31 32  1  0
 32 33  2  0
 33 34  1  0
 34 35  2  0
  4  5  1  0
  5  6  1  0
  5  7  1  0
  7  8  1  0
  7  9  1  0
  9  1  1  0
 35 30  1  0
  2 10  1  0
  6 11  1  0
  8 12  1  0
M  END
> <minimizedAffinity>
-7.10379

> <CNNscore>
0.2387405932

> <CNNaffinity>
5.4264321327

> <CNN_VS>
1.2955095768

> <CNNaffinity_variance>
0.2652882040

$$$$



 35 36  0  0  0  0  0  0  0  0999 V2000
  -45.1909  -61.7593  -45.1935 C   0  0  0  0  0  0  0  0  0  0  0  0
  -44.9074  -61.4817  -46.5721 O   0  0  0  0  0  0  0  0  0  0  0  0
  -43.9545  -61.2495  -44.3934 C   0  0  0  0  0  0  0  0  0  0  0  0
  -43.5725  -62.1850  -43.2398 C   0  0  0  0  0  0  0  0  0  0  0  0
  -43.1681  -63.5650  -43.8081 C   0  0  0  0  0  0  0  0  0  0  0  0
  -43.2769  -64.5165  -42.7437 O   0  0  0  0  0  0  0  0  0  0  0  0
  -44.0499  -64.0254  -44.9886 C   0  0  0  0  0  0  0  0  0  0  0  0
  -43.3583  -63.8035  -46.2251 O   0  0  0  0  0  0  0  0  0  0  0  0
  -45.3830  -63.2776  -45.0311 C   0  0  0  0  0  0  0  0  0  0  0  0
  -44.7836  -60.5270  -46.6909 H   0  0  0  0  0  0  0  0  0  0  0  0
  -44.1953  -64.5510  -42.4334 H   0  0  0  0  0  0  0  0  0  0  0  0
  -43.1853  -62.8552  -46.3331 H   0  0  0  0  0  0  0  0  0  0  0  0
  -46.4377  -60.9220  -44.7838 C   0  0  0  0  0  0  0  0  0  0  0  0
  -46.5712  -59.3689  -45.0677 C   0  0  0  0  0  0  0  0  0  0  0  0
  -45.1661  -58.7307  -45.0715 C   0  0  0  0  0  0  0  0  0  0  0  0
  -47.4304  -58.6878  -44.0004 C   0  0  0  0  0  0  0  0  0  0  0  0
  -47.1953  -59.2711  -46.5188 C   0  0  0  0  0  0  0  0  0  0  0  0
  -48.7345  -59.3434  -46.8821 C   0  0  0  0  0  0  0  0  0  0  0  0
  -49.5193  -58.1669  -46.2870 C   0  0  0  0  0  0  0  0  0  0  0  0
  -49.3350  -60.6634  -46.3783 C   0  0  0  0  0  0  0  0  0  0  0  0
  -48.7755  -59.2679  -48.4619 C   0  0  0  0  0  0  0  0  0  0  0  0
  -48.0736  -58.4669  -50.8332 C   0  0  0  0  0  0  0  0  0  0  0  0
  -47.6886  -58.5849  -49.3550 C   0  0  0  0  0  0  0  0  0  0  0  0
  -46.3171  -59.2771  -49.2350 C   0  0  0  0  0  0  0  0  0  0  0  0
  -47.5062  -57.1443  -48.8097 C   0  0  0  0  0  0  0  0  0  0  0  0
  -42.4245  -61.6176  -42.3732 C   0  0  0  0  0  0  0  0  0  0  0  0
  -41.4651  -60.7083  -43.1529 C   0  0  0  0  0  0  0  0  0  0  0  0
  -40.3660  -61.5008  -43.8660 C   0  0  0  0  0  0  0  0  0  0  0  0
  -39.1717  -61.5854  -43.0911 O   0  0  0  0  0  0  0  0  0  0  0  0
  -37.9665  -61.3920  -43.7050 C   0  0  0  0  0  0  0  0  0  0  0  0
  -37.7322  -60.6464  -44.8603 C   0  0  0  0  0  0  0  0  0  0  0  0
  -36.4357  -60.5338  -45.3745 C   0  0  0  0  0  0  0  0  0  0  0  0
  -35.3689  -61.1646  -44.7371 C   0  0  0  0  0  0  0  0  0  0  0  0
  -35.5954  -61.9088  -43.5828 C   0  0  0  0  0  0  0  0  0  0  0  0
  -36.8898  -62.0195  -43.0713 C   0  0  0  0  0  0  0  0  0  0  0  0
 22 23  1  0
 23 24  1  0
 23 25  1  0
 23 21  1  0
 21 18  1  0
 18 19  1  0
 18 20  1  0
 18 17  1  0
 17 14  1  0
 14 15  1  0
 14 16  1  0
 14 13  1  0
 13  1  1  0
  1  2  1  0
  1  3  1  0
  3  4  1  0
  4 26  1  0
 26 27  1  0
 27 28  1  0
 28 29  1  0
 29 30  1  0
 30 31  2  0
 31 32  1  0
 32 33  2  0
 33 34  1  0
 34 35  2  0
  4  5  1  0
  5  6  1  0
  5  7  1  0
  7  8  1  0
  7  9  1  0
  9  1  1  0
 35 30  1  0
  2 10  1  0
  6 11  1  0
  8 12  1  0
M  END
> <minimizedAffinity>
-6.58917

> <CNNscore>
0.2371781021

> <CNNaffinity>
4.7868885994

> <CNN_VS>
1.1353451014

> <CNNaffinity_variance>
0.7593567967

$$$$



 35 36  0  0  0  0  0  0  0  0999 V2000
  -41.4172  -60.6038  -49.9773 C   0  0  0  0  0  0  0  0  0  0  0  0
  -42.2931  -59.5772  -50.4640 O   0  0  0  0  0  0  0  0  0  0  0  0
  -40.0054  -59.9503  -49.8844 C   0  0  0  0  0  0  0  0  0  0  0  0
  -38.8858  -60.9010  -50.3257 C   0  0  0  0  0  0  0  0  0  0  0  0
  -39.0823  -61.2724  -51.8138 C   0  0  0  0  0  0  0  0  0  0  0  0
  -38.3450  -62.4755  -52.0571 O   0  0  0  0  0  0  0  0  0  0  0  0
  -40.5595  -61.4989  -52.2004 C   0  0  0  0  0  0  0  0  0  0  0  0
  -41.0662  -60.3404  -52.8770 O   0  0  0  0  0  0  0  0  0  0  0  0
  -41.4343  -61.7739  -50.9768 C   0  0  0  0  0  0  0  0  0  0  0  0
  -42.2932  -58.8314  -49.8438 H   0  0  0  0  0  0  0  0  0  0  0  0
  -38.6934  -63.1870  -51.4975 H   0  0  0  0  0  0  0  0  0  0  0  0
  -41.0266  -59.5753  -52.2820 H   0  0  0  0  0  0  0  0  0  0  0  0
  -41.8878  -60.9948  -48.5458 C   0  0  0  0  0  0  0  0  0  0  0  0
  -41.9631  -59.9633  -47.3454 C   0  0  0  0  0  0  0  0  0  0  0  0
  -43.4364  -59.5729  -47.1030 C   0  0  0  0  0  0  0  0  0  0  0  0
  -41.1526  -58.7026  -47.6534 C   0  0  0  0  0  0  0  0  0  0  0  0
  -41.4179  -60.7574  -46.0896 C   0  0  0  0  0  0  0  0  0  0  0  0
  -42.2476  -61.7519  -45.1792 C   0  0  0  0  0  0  0  0  0  0  0  0
  -41.3355  -62.6623  -44.3465 C   0  0  0  0  0  0  0  0  0  0  0  0
  -43.1740  -62.6151  -46.0472 C   0  0  0  0  0  0  0  0  0  0  0  0
  -43.0829  -60.8114  -44.2196 C   0  0  0  0  0  0  0  0  0  0  0  0
  -43.2020  -61.7707  -41.8065 C   0  0  0  0  0  0  0  0  0  0  0  0
  -42.7901  -60.5953  -42.6987 C   0  0  0  0  0  0  0  0  0  0  0  0
  -43.4230  -59.2968  -42.1624 C   0  0  0  0  0  0  0  0  0  0  0  0
  -41.2540  -60.4283  -42.5612 C   0  0  0  0  0  0  0  0  0  0  0  0
  -37.4786  -60.2950  -50.1174 C   0  0  0  0  0  0  0  0  0  0  0  0
  -36.9327  -60.4971  -48.6974 C   0  0  0  0  0  0  0  0  0  0  0  0
  -38.0351  -60.4281  -47.6370 C   0  0  0  0  0  0  0  0  0  0  0  0
  -37.6135  -59.7350  -46.4640 O   0  0  0  0  0  0  0  0  0  0  0  0
  -37.1113  -60.4508  -45.4142 C   0  0  0  0  0  0  0  0  0  0  0  0
  -35.7839  -60.8384  -45.2314 C   0  0  0  0  0  0  0  0  0  0  0  0
  -35.4140  -61.5703  -44.0978 C   0  0  0  0  0  0  0  0  0  0  0  0
  -36.3675  -61.9175  -43.1425 C   0  0  0  0  0  0  0  0  0  0  0  0
  -37.6937  -61.5325  -43.3177 C   0  0  0  0  0  0  0  0  0  0  0  0
  -38.0605  -60.8018  -44.4495 C   0  0  0  0  0  0  0  0  0  0  0  0
 22 23  1  0
 23 24  1  0
 23 25  1  0
 23 21  1  0
 21 18  1  0
 18 19  1  0
 18 20  1  0
 18 17  1  0
 17 14  1  0
 14 15  1  0
 14 16  1  0
 14 13  1  0
 13  1  1  0
  1  2  1  0
  1  3  1  0
  3  4  1  0
  4 26  1  0
 26 27  1  0
 27 28  1  0
 28 29  1  0
 29 30  1  0
 30 31  2  0
 31 32  1  0
 32 33  2  0
 33 34  1  0
 34 35  2  0
  4  5  1  0
  5  6  1  0
  5  7  1  0
  7  8  1  0
  7  9  1  0
  9  1  1  0
 35 30  1  0
  2 10  1  0
  6 11  1  0
  8 12  1  0
M  END
> <minimizedAffinity>
-7.83478

> <CNNscore>
0.2244646251

> <CNNaffinity>
5.1868915558

> <CNN_VS>
1.1642736197

> <CNNaffinity_variance>
1.0922995806

$$$$



 35 36  0  0  0  0  0  0  0  0999 V2000
  -44.9822  -59.5059  -47.2304 C   0  0  0  0  0  0  0  0  0  0  0  0
  -45.9084  -60.5067  -47.6758 O   0  0  0  0  0  0  0  0  0  0  0  0
  -43.6618  -59.7677  -48.0156 C   0  0  0  0  0  0  0  0  0  0  0  0
  -42.4118  -59.5696  -47.1494 C   0  0  0  0  0  0  0  0  0  0  0  0
  -42.4226  -60.5909  -45.9884 C   0  0  0  0  0  0  0  0  0  0  0  0
  -41.5441  -60.0953  -44.9721 O   0  0  0  0  0  0  0  0  0  0  0  0
  -43.8235  -60.8141  -45.3797 C   0  0  0  0  0  0  0  0  0  0  0  0
  -44.3793  -62.0381  -45.8793 O   0  0  0  0  0  0  0  0  0  0  0  0
  -44.7801  -59.6688  -45.7134 C   0  0  0  0  0  0  0  0  0  0  0  0
  -46.0464  -60.4170  -48.6317 H   0  0  0  0  0  0  0  0  0  0  0  0
  -41.8697  -59.2392  -44.6528 H   0  0  0  0  0  0  0  0  0  0  0  0
  -44.4777  -61.9791  -46.8425 H   0  0  0  0  0  0  0  0  0  0  0  0
  -45.5470  -58.1148  -47.6420 C   0  0  0  0  0  0  0  0  0  0  0  0
  -45.5755  -56.8667  -46.6662 C   0  0  0  0  0  0  0  0  0  0  0  0
  -46.4331  -55.7490  -47.2961 C   0  0  0  0  0  0  0  0  0  0  0  0
  -44.1631  -56.3354  -46.4135 C   0  0  0  0  0  0  0  0  0  0  0  0
  -46.2828  -57.3922  -45.3515 C   0  0  0  0  0  0  0  0  0  0  0  0
  -46.3649  -56.6316  -43.9654 C   0  0  0  0  0  0  0  0  0  0  0  0
  -46.3713  -55.1082  -44.1476 C   0  0  0  0  0  0  0  0  0  0  0  0
  -45.1830  -57.0329  -43.0715 C   0  0  0  0  0  0  0  0  0  0  0  0
  -47.7381  -57.0996  -43.3343 C   0  0  0  0  0  0  0  0  0  0  0  0
  -49.2705  -55.0230  -43.0238 C   0  0  0  0  0  0  0  0  0  0  0  0
  -48.6176  -56.2428  -42.3659 C   0  0  0  0  0  0  0  0  0  0  0  0
  -47.8388  -55.7957  -41.1136 C   0  0  0  0  0  0  0  0  0  0  0  0
  -49.7609  -57.1661  -41.8695 C   0  0  0  0  0  0  0  0  0  0  0  0
  -41.1022  -59.7096  -47.9594 C   0  0  0  0  0  0  0  0  0  0  0  0
  -39.8868  -59.0797  -47.2657 C   0  0  0  0  0  0  0  0  0  0  0  0
  -38.7279  -60.0689  -47.1150 C   0  0  0  0  0  0  0  0  0  0  0  0
  -37.7262  -59.5947  -46.2173 O   0  0  0  0  0  0  0  0  0  0  0  0
  -37.2994  -60.4102  -45.2076 C   0  0  0  0  0  0  0  0  0  0  0  0
  -38.0800  -60.9390  -44.1797 C   0  0  0  0  0  0  0  0  0  0  0  0
  -37.5018  -61.7674  -43.2116 C   0  0  0  0  0  0  0  0  0  0  0  0
  -36.1427  -62.0712  -43.2665 C   0  0  0  0  0  0  0  0  0  0  0  0
  -35.3582  -61.5483  -44.2906 C   0  0  0  0  0  0  0  0  0  0  0  0
  -35.9374  -60.7222  -45.2557 C   0  0  0  0  0  0  0  0  0  0  0  0
 22 23  1  0
 23 24  1  0
 23 25  1  0
 23 21  1  0
 21 18  1  0
 18 19  1  0
 18 20  1  0
 18 17  1  0
 17 14  1  0
 14 15  1  0
 14 16  1  0
 14 13  1  0
 13  1  1  0
  1  2  1  0
  1  3  1  0
  3  4  1  0
  4 26  1  0
 26 27  1  0
 27 28  1  0
 28 29  1  0
 29 30  1  0
 30 31  2  0
 31 32  1  0
 32 33  2  0
 33 34  1  0
 34 35  2  0
  4  5  1  0
  5  6  1  0
  5  7  1  0
  7  8  1  0
  7  9  1  0
  9  1  1  0
 35 30  1  0
  2 10  1  0
  6 11  1  0
  8 12  1  0
M  END
> <minimizedAffinity>
-6.05804

> <CNNscore>
0.2078116089

> <CNNaffinity>
5.0528855324

> <CNN_VS>
1.0500482321

> <CNNaffinity_variance>
0.2545839548

$$$$



 35 36  0  0  0  0  0  0  0  0999 V2000
  -41.5380  -60.5648  -49.9580 C   0  0  0  0  0  0  0  0  0  0  0  0
  -42.4024  -59.5388  -50.4661 O   0  0  0  0  0  0  0  0  0  0  0  0
  -40.1281  -59.9121  -49.8359 C   0  0  0  0  0  0  0  0  0  0  0  0
  -38.9999  -60.8645  -50.2505 C   0  0  0  0  0  0  0  0  0  0  0  0
  -39.1641  -61.2394  -51.7416 C   0  0  0  0  0  0  0  0  0  0  0  0
  -38.4226  -62.4436  -51.9660 O   0  0  0  0  0  0  0  0  0  0  0  0
  -40.6327  -61.4658  -52.1598 C   0  0  0  0  0  0  0  0  0  0  0  0
  -41.1237  -60.3086  -52.8500 O   0  0  0  0  0  0  0  0  0  0  0  0
  -41.5341  -61.7373  -50.9548 C   0  0  0  0  0  0  0  0  0  0  0  0
  -42.4154  -58.7915  -49.8478 H   0  0  0  0  0  0  0  0  0  0  0  0
  -38.7837  -63.1535  -51.4123 H   0  0  0  0  0  0  0  0  0  0  0  0
  -41.0965  -59.5421  -52.2561 H   0  0  0  0  0  0  0  0  0  0  0  0
  -42.0399  -60.9520  -48.5362 C   0  0  0  0  0  0  0  0  0  0  0  0
  -42.3130  -59.8891  -47.3932 C   0  0  0  0  0  0  0  0  0  0  0  0
  -41.2985  -58.7332  -47.5217 C   0  0  0  0  0  0  0  0  0  0  0  0
  -42.1779  -60.5256  -46.0083 C   0  0  0  0  0  0  0  0  0  0  0  0
  -43.7697  -59.3427  -47.6830 C   0  0  0  0  0  0  0  0  0  0  0  0
  -45.0726  -59.6599  -46.8414 C   0  0  0  0  0  0  0  0  0  0  0  0
  -44.9614  -60.9962  -46.0956 C   0  0  0  0  0  0  0  0  0  0  0  0
  -46.3015  -59.6903  -47.7610 C   0  0  0  0  0  0  0  0  0  0  0  0
  -45.1729  -58.4737  -45.7994 C   0  0  0  0  0  0  0  0  0  0  0  0
  -46.9606  -56.7488  -45.0337 C   0  0  0  0  0  0  0  0  0  0  0  0
  -45.8843  -57.1064  -46.0637 C   0  0  0  0  0  0  0  0  0  0  0  0
  -46.4829  -57.0257  -47.4813 C   0  0  0  0  0  0  0  0  0  0  0  0
  -44.7879  -56.0120  -45.9836 C   0  0  0  0  0  0  0  0  0  0  0  0
  -37.5971  -60.2590  -50.0130 C   0  0  0  0  0  0  0  0  0  0  0  0
  -37.0257  -60.5726  -48.6236 C   0  0  0  0  0  0  0  0  0  0  0  0
  -38.0756  -60.4274  -47.5186 C   0  0  0  0  0  0  0  0  0  0  0  0
  -37.5654  -59.7447  -46.3751 O   0  0  0  0  0  0  0  0  0  0  0  0
  -37.0486  -60.4741  -45.3418 C   0  0  0  0  0  0  0  0  0  0  0  0
  -35.7200  -60.8692  -45.1859 C   0  0  0  0  0  0  0  0  0  0  0  0
  -35.3342  -61.6152  -44.0667 C   0  0  0  0  0  0  0  0  0  0  0  0
  -36.2730  -61.9690  -43.0994 C   0  0  0  0  0  0  0  0  0  0  0  0
  -37.6003  -61.5766  -43.2479 C   0  0  0  0  0  0  0  0  0  0  0  0
  -37.9829  -60.8319  -44.3652 C   0  0  0  0  0  0  0  0  0  0  0  0
 22 23  1  0
 23 24  1  0
 23 25  1  0
 23 21  1  0
 21 18  1  0
 18 19  1  0
 18 20  1  0
 18 17  1  0
 17 14  1  0
 14 15  1  0
 14 16  1  0
 14 13  1  0
 13  1  1  0
  1  2  1  0
  1  3  1  0
  3  4  1  0
  4 26  1  0
 26 27  1  0
 27 28  1  0
 28 29  1  0
 29 30  1  0
 30 31  2  0
 31 32  1  0
 32 33  2  0
 33 34  1  0
 34 35  2  0
  4  5  1  0
  5  6  1  0
  5  7  1  0
  7  8  1  0
  7  9  1  0
  9  1  1  0
 35 30  1  0
  2 10  1  0
  6 11  1  0
  8 12  1  0
M  END
> <minimizedAffinity>
-7.73931

> <CNNscore>
0.2047253102

> <CNNaffinity>
4.9607696533

> <CNN_VS>
1.0155950785

> <CNNaffinity_variance>
1.1049276590

$$$$



 35 36  0  0  0  0  0  0  0  0999 V2000
  -45.3583  -59.6750  -46.8429 C   0  0  0  0  0  0  0  0  0  0  0  0
  -46.2381  -60.6951  -47.3362 O   0  0  0  0  0  0  0  0  0  0  0  0
  -44.0626  -59.7778  -47.7026 C   0  0  0  0  0  0  0  0  0  0  0  0
  -42.7883  -59.5695  -46.8751 C   0  0  0  0  0  0  0  0  0  0  0  0
  -42.6779  -60.6847  -45.8097 C   0  0  0  0  0  0  0  0  0  0  0  0
  -41.7861  -60.2189  -44.7910 O   0  0  0  0  0  0  0  0  0  0  0  0
  -44.0311  -61.0545  -45.1652 C   0  0  0  0  0  0  0  0  0  0  0  0
  -44.5299  -62.2664  -45.7476 O   0  0  0  0  0  0  0  0  0  0  0  0
  -45.0743  -59.9530  -45.3561 C   0  0  0  0  0  0  0  0  0  0  0  0
  -46.4269  -60.5335  -48.2738 H   0  0  0  0  0  0  0  0  0  0  0  0
  -42.1506  -59.4176  -44.3838 H   0  0  0  0  0  0  0  0  0  0  0  0
  -44.6775  -62.1321  -46.6968 H   0  0  0  0  0  0  0  0  0  0  0  0
  -46.0307  -58.2957  -47.1058 C   0  0  0  0  0  0  0  0  0  0  0  0
  -47.5747  -58.0252  -46.8750 C   0  0  0  0  0  0  0  0  0  0  0  0
  -47.9462  -56.6550  -47.4801 C   0  0  0  0  0  0  0  0  0  0  0  0
  -47.9149  -58.0254  -45.3832 C   0  0  0  0  0  0  0  0  0  0  0  0
  -48.3146  -59.1708  -47.6780 C   0  0  0  0  0  0  0  0  0  0  0  0
  -49.8715  -59.4582  -47.6774 C   0  0  0  0  0  0  0  0  0  0  0  0
  -50.6733  -58.2685  -47.1334 C   0  0  0  0  0  0  0  0  0  0  0  0
  -50.1782  -60.7061  -46.8374 C   0  0  0  0  0  0  0  0  0  0  0  0
  -50.2340  -59.6954  -49.1990 C   0  0  0  0  0  0  0  0  0  0  0  0
  -50.8194  -57.2045  -49.6573 C   0  0  0  0  0  0  0  0  0  0  0  0
  -50.4441  -58.5633  -50.2572 C   0  0  0  0  0  0  0  0  0  0  0  0
  -51.4781  -58.9541  -51.3308 C   0  0  0  0  0  0  0  0  0  0  0  0
  -49.0897  -58.3847  -50.9919 C   0  0  0  0  0  0  0  0  0  0  0  0
  -41.5123  -59.5498  -47.7482 C   0  0  0  0  0  0  0  0  0  0  0  0
  -40.2742  -59.0298  -47.0054 C   0  0  0  0  0  0  0  0  0  0  0  0
  -39.0887  -59.9934  -47.1087 C   0  0  0  0  0  0  0  0  0  0  0  0
  -37.9498  -59.5280  -46.3873 O   0  0  0  0  0  0  0  0  0  0  0  0
  -37.4145  -60.3181  -45.4097 C   0  0  0  0  0  0  0  0  0  0  0  0
  -36.0663  -60.6337  -45.2411 C   0  0  0  0  0  0  0  0  0  0  0  0
  -35.6630  -61.4578  -44.1847 C   0  0  0  0  0  0  0  0  0  0  0  0
  -36.6039  -61.9694  -43.2928 C   0  0  0  0  0  0  0  0  0  0  0  0
  -37.9507  -61.6571  -43.4542 C   0  0  0  0  0  0  0  0  0  0  0  0
  -38.3508  -60.8342  -44.5089 C   0  0  0  0  0  0  0  0  0  0  0  0
 22 23  1  0
 23 24  1  0
 23 25  1  0
 23 21  1  0
 21 18  1  0
 18 19  1  0
 18 20  1  0
 18 17  1  0
 17 14  1  0
 14 15  1  0
 14 16  1  0
 14 13  1  0
 13  1  1  0
  1  2  1  0
  1  3  1  0
  3  4  1  0
  4 26  1  0
 26 27  1  0
 27 28  1  0
 28 29  1  0
 29 30  1  0
 30 31  2  0
 31 32  1  0
 32 33  2  0
 33 34  1  0
 34 35  2  0
  4  5  1  0
  5  6  1  0
  5  7  1  0
  7  8  1  0
  7  9  1  0
  9  1  1  0
 35 30  1  0
  2 10  1  0
  6 11  1  0
  8 12  1  0
M  END
> <minimizedAffinity>
-6.98490

> <CNNscore>
0.1971379817

> <CNNaffinity>
4.5975575447

> <CNN_VS>
0.9063532352

> <CNNaffinity_variance>
1.0341397524

$$$$



 35 36  0  0  0  0  0  0  0  0999 V2000
  -45.0430  -58.8477  -46.7767 C   0  0  0  0  0  0  0  0  0  0  0  0
  -45.6340  -59.0574  -48.0669 O   0  0  0  0  0  0  0  0  0  0  0  0
  -43.7162  -59.6654  -46.7779 C   0  0  0  0  0  0  0  0  0  0  0  0
  -43.4508  -60.3599  -45.4366 C   0  0  0  0  0  0  0  0  0  0  0  0
  -44.5764  -61.3817  -45.1541 C   0  0  0  0  0  0  0  0  0  0  0  0
  -44.5674  -61.6530  -43.7482 O   0  0  0  0  0  0  0  0  0  0  0  0
  -45.9781  -60.8799  -45.5622 C   0  0  0  0  0  0  0  0  0  0  0  0
  -46.3582  -61.4688  -46.8133 O   0  0  0  0  0  0  0  0  0  0  0  0
  -46.0209  -59.3579  -45.7034 C   0  0  0  0  0  0  0  0  0  0  0  0
  -45.0286  -58.7404  -48.7553 H   0  0  0  0  0  0  0  0  0  0  0  0
  -44.7441  -60.8338  -43.2597 H   0  0  0  0  0  0  0  0  0  0  0  0
  -45.7312  -61.1977  -47.5020 H   0  0  0  0  0  0  0  0  0  0  0  0
  -44.7031  -57.3341  -46.6468 C   0  0  0  0  0  0  0  0  0  0  0  0
  -45.8043  -56.1948  -46.6442 C   0  0  0  0  0  0  0  0  0  0  0  0
  -45.2071  -54.9099  -47.2557 C   0  0  0  0  0  0  0  0  0  0  0  0
  -46.2846  -55.8991  -45.2219 C   0  0  0  0  0  0  0  0  0  0  0  0
  -46.9554  -56.7372  -47.5853 C   0  0  0  0  0  0  0  0  0  0  0  0
  -48.5015  -56.4263  -47.4466 C   0  0  0  0  0  0  0  0  0  0  0  0
  -48.7677  -54.9313  -47.2268 C   0  0  0  0  0  0  0  0  0  0  0  0
  -49.0992  -57.2271  -46.2810 C   0  0  0  0  0  0  0  0  0  0  0  0
  -49.1255  -56.8824  -48.8271 C   0  0  0  0  0  0  0  0  0  0  0  0
  -50.4651  -58.7396  -50.0572 C   0  0  0  0  0  0  0  0  0  0  0  0
  -49.1607  -58.3551  -49.3517 C   0  0  0  0  0  0  0  0  0  0  0  0
  -48.8578  -59.3772  -48.2391 C   0  0  0  0  0  0  0  0  0  0  0  0
  -48.0182  -58.4834  -50.3931 C   0  0  0  0  0  0  0  0  0  0  0  0
  -42.0771  -61.0687  -45.3989 C   0  0  0  0  0  0  0  0  0  0  0  0
  -41.2249  -60.6807  -44.1830 C   0  0  0  0  0  0  0  0  0  0  0  0
  -40.1827  -61.7489  -43.8407 C   0  0  0  0  0  0  0  0  0  0  0  0
  -39.1096  -61.2260  -43.0602 O   0  0  0  0  0  0  0  0  0  0  0  0
  -37.8381  -61.2827  -43.5568 C   0  0  0  0  0  0  0  0  0  0  0  0
  -36.7440  -61.9190  -42.9704 C   0  0  0  0  0  0  0  0  0  0  0  0
  -35.4953  -61.8962  -43.6011 C   0  0  0  0  0  0  0  0  0  0  0  0
  -35.3342  -61.2386  -44.8193 C   0  0  0  0  0  0  0  0  0  0  0  0
  -36.4222  -60.6030  -45.4109 C   0  0  0  0  0  0  0  0  0  0  0  0
  -37.6675  -60.6273  -44.7799 C   0  0  0  0  0  0  0  0  0  0  0  0
 22 23  1  0
 23 24  1  0
 23 25  1  0
 23 21  1  0
 21 18  1  0
 18 19  1  0
 18 20  1  0
 18 17  1  0
 17 14  1  0
 14 15  1  0
 14 16  1  0
 14 13  1  0
 13  1  1  0
  1  2  1  0
  1  3  1  0
  3  4  1  0
  4 26  1  0
 26 27  1  0
 27 28  1  0
 28 29  1  0
 29 30  1  0
 30 31  2  0
 31 32  1  0
 32 33  2  0
 33 34  1  0
 34 35  2  0
  4  5  1  0
  5  6  1  0
  5  7  1  0
  7  8  1  0
  7  9  1  0
  9  1  1  0
 35 30  1  0
  2 10  1  0
  6 11  1  0
  8 12  1  0
M  END
> <minimizedAffinity>
-6.48563

> <CNNscore>
0.1876659840

> <CNNaffinity>
5.1504302025

> <CNN_VS>
0.9665605426

> <CNNaffinity_variance>
0.2676582038

$$$$
