


 32 35  0  0  0  0  0  0  0  0999 V2000
   40.3374   38.1154   31.0824 C   0  0  0  0  0  0  0  0  0  0  0  0
   40.3086   38.9234   32.2379 C   0  0  0  0  0  0  0  0  0  0  0  0
   41.2151   39.9433   32.3608 O   0  0  0  0  0  0  0  0  0  0  0  0
   39.3785   38.7240   33.2595 C   0  0  0  0  0  0  0  0  0  0  0  0
   38.4364   37.7130   33.1367 C   0  0  0  0  0  0  0  0  0  0  0  0
   37.5503   37.5719   34.1707 O   0  0  0  0  0  0  0  0  0  0  0  0
   38.4185   36.9080   31.9960 C   0  0  0  0  0  0  0  0  0  0  0  0
   37.4067   35.8530   31.8362 C   0  0  0  0  0  0  0  0  0  0  0  0
   36.5733   35.6341   32.7094 O   0  0  0  0  0  0  0  0  0  0  0  0
   37.4253   35.0834   30.5879 C   0  0  0  0  0  0  0  0  0  0  0  0
   38.3766   35.3609   29.6886 C   0  0  0  0  0  0  0  0  0  0  0  0
   39.3424   36.3341   29.8397 O   0  0  0  0  0  0  0  0  0  0  0  0
   39.3579   37.1056   30.9760 C   0  0  0  0  0  0  0  0  0  0  0  0
   41.8470   40.0924   31.6852 H   0  0  0  0  0  0  0  0  0  0  0  0
   37.6048   38.1385   34.9150 H   0  0  0  0  0  0  0  0  0  0  0  0
   43.5349   39.1257   26.3660 C   0  0  0  0  0  0  0  0  0  0  0  0
   42.4806   38.8022   27.3298 N   0  0  0  0  0  0  0  0  0  0  0  0
   42.8544   37.6094   28.1103 C   0  0  0  0  0  0  0  0  0  0  0  0
   41.7406   37.2122   29.0861 C   0  0  0  0  0  0  0  0  0  0  0  0
   41.3797   38.3974   30.0007 C   0  0  0  0  0  0  0  0  0  0  0  0
   41.0551   39.6559   29.1664 C   0  0  0  0  0  0  0  0  0  0  0  0
   39.8880   39.4684   28.3519 O   0  0  0  0  0  0  0  0  0  0  0  0
   42.2362   39.9594   28.2222 C   0  0  0  0  0  0  0  0  0  0  0  0
   40.0422   38.7413   27.7286 H   0  0  0  0  0  0  0  0  0  0  0  0
   38.4441   34.6613   28.3961 C   0  0  0  0  0  0  0  0  0  0  0  0
   38.1424   33.2883   28.3819 C   0  0  0  0  0  0  0  0  0  0  0  0
   38.1803   32.5600   27.1909 C   0  0  0  0  0  0  0  0  0  0  0  0
   38.5164   33.2011   26.0017 C   0  0  0  0  0  0  0  0  0  0  0  0
   38.5665   32.2169   24.3889 Br  0  0  0  0  0  0  0  0  0  0  0  0
   38.8103   34.5627   25.9897 C   0  0  0  0  0  0  0  0  0  0  0  0
   38.7708   35.2919   27.1827 C   0  0  0  0  0  0  0  0  0  0  0  0
   39.1068   36.9870   27.0907 Cl  0  0  0  0  0  0  0  0  0  0  0  0
 16 17  1  0
 17 18  1  0
 18 19  1  0
 19 20  1  0
 20  1  1  0
  1  2  2  0
  2  3  1  0
  2  4  1  0
  4  5  2  0
  5  6  1  0
  5  7  1  0
  7  8  1  0
  8  9  2  0
  8 10  1  0
 10 11  2  0
 11 25  1  0
 25 26  2  0
 26 27  1  0
 27 28  2  0
 28 29  1  0
 28 30  1  0
 30 31  2  0
 31 32  1  0
 11 12  1  0
 12 13  1  0
 20 21  1  0
 21 22  1  0
 21 23  1  0
 23 17  1  0
 13  1  1  0
 13  7  2  0
 31 25  1  0
  3 14  1  0
  6 15  1  0
 22 24  1  0
M  END
> <minimizedAffinity>
-9.38287

> <CNNscore>
0.5719474554

> <CNNaffinity>
5.5570788383

> <CNN_VS>
3.1783571243

> <CNNaffinity_variance>
0.0976165906

$$$$



 32 35  0  0  0  0  0  0  0  0999 V2000
   38.9174   36.4020   29.7723 C   0  0  0  0  0  0  0  0  0  0  0  0
   38.1970   35.2682   29.3428 C   0  0  0  0  0  0  0  0  0  0  0  0
   38.4192   34.7748   28.0841 O   0  0  0  0  0  0  0  0  0  0  0  0
   37.2691   34.6243   30.1631 C   0  0  0  0  0  0  0  0  0  0  0  0
   37.0536   35.0955   31.4501 C   0  0  0  0  0  0  0  0  0  0  0  0
   36.1343   34.4179   32.2050 O   0  0  0  0  0  0  0  0  0  0  0  0
   37.7660   36.2011   31.9190 C   0  0  0  0  0  0  0  0  0  0  0  0
   37.5725   36.6933   33.2910 C   0  0  0  0  0  0  0  0  0  0  0  0
   36.7630   36.1661   34.0473 O   0  0  0  0  0  0  0  0  0  0  0  0
   38.3937   37.8290   33.7229 C   0  0  0  0  0  0  0  0  0  0  0  0
   39.2402   38.3692   32.8384 C   0  0  0  0  0  0  0  0  0  0  0  0
   39.4125   37.9274   31.5430 O   0  0  0  0  0  0  0  0  0  0  0  0
   38.6908   36.8497   31.0909 C   0  0  0  0  0  0  0  0  0  0  0  0
   39.0383   35.1938   27.5192 H   0  0  0  0  0  0  0  0  0  0  0  0
   35.6825   33.6811   31.8431 H   0  0  0  0  0  0  0  0  0  0  0  0
   42.0602   39.5615   26.0803 C   0  0  0  0  0  0  0  0  0  0  0  0
   41.0190   38.9872   26.9355 N   0  0  0  0  0  0  0  0  0  0  0  0
   40.6871   37.6237   26.4859 C   0  0  0  0  0  0  0  0  0  0  0  0
   39.5559   37.0209   27.3270 C   0  0  0  0  0  0  0  0  0  0  0  0
   39.9237   37.0506   28.8221 C   0  0  0  0  0  0  0  0  0  0  0  0
   40.3318   38.4745   29.2591 C   0  0  0  0  0  0  0  0  0  0  0  0
   39.2407   39.4002   29.1439 O   0  0  0  0  0  0  0  0  0  0  0  0
   41.4682   38.9808   28.3474 C   0  0  0  0  0  0  0  0  0  0  0  0
   38.9578   39.4529   28.2176 H   0  0  0  0  0  0  0  0  0  0  0  0
   40.1259   39.4866   33.2010 C   0  0  0  0  0  0  0  0  0  0  0  0
   39.9492   40.7047   32.5217 C   0  0  0  0  0  0  0  0  0  0  0  0
   40.7493   41.8107   32.8167 C   0  0  0  0  0  0  0  0  0  0  0  0
   41.7312   41.7084   33.7984 C   0  0  0  0  0  0  0  0  0  0  0  0
   42.8137   43.2049   34.1997 Br  0  0  0  0  0  0  0  0  0  0  0  0
   41.9185   40.5144   34.4911 C   0  0  0  0  0  0  0  0  0  0  0  0
   41.1159   39.4076   34.1961 C   0  0  0  0  0  0  0  0  0  0  0  0
   41.3738   37.9683   35.1216 Cl  0  0  0  0  0  0  0  0  0  0  0  0
 16 17  1  0
 17 18  1  0
 18 19  1  0
 19 20  1  0
 20  1  1  0
  1  2  2  0
  2  3  1  0
  2  4  1  0
  4  5  2  0
  5  6  1  0
  5  7  1  0
  7  8  1  0
  8  9  2  0
  8 10  1  0
 10 11  2  0
 11 25  1  0
 25 26  2  0
 26 27  1  0
 27 28  2  0
 28 29  1  0
 28 30  1  0
 30 31  2  0
 31 32  1  0
 11 12  1  0
 12 13  1  0
 20 21  1  0
 21 22  1  0
 21 23  1  0
 23 17  1  0
 13  1  1  0
 13  7  2  0
 31 25  1  0
  3 14  1  0
  6 15  1  0
 22 24  1  0
M  END
> <minimizedAffinity>
-8.13745

> <CNNscore>
0.3584847450

> <CNNaffinity>
5.1999292374

> <CNN_VS>
1.8640953302

> <CNNaffinity_variance>
0.0137079181

$$$$



 32 35  0  0  0  0  0  0  0  0999 V2000
   40.0893   40.0887   29.3788 C   0  0  0  0  0  0  0  0  0  0  0  0
   40.2906   41.3000   30.0725 C   0  0  0  0  0  0  0  0  0  0  0  0
   40.7647   42.3886   29.3890 O   0  0  0  0  0  0  0  0  0  0  0  0
   40.0134   41.4298   31.4344 C   0  0  0  0  0  0  0  0  0  0  0  0
   39.5066   40.3442   32.1339 C   0  0  0  0  0  0  0  0  0  0  0  0
   39.2521   40.5375   33.4652 O   0  0  0  0  0  0  0  0  0  0  0  0
   39.2713   39.1356   31.4756 C   0  0  0  0  0  0  0  0  0  0  0  0
   38.7047   37.9853   32.1955 C   0  0  0  0  0  0  0  0  0  0  0  0
   38.4516   38.0476   33.3943 O   0  0  0  0  0  0  0  0  0  0  0  0
   38.4422   36.7674   31.4218 C   0  0  0  0  0  0  0  0  0  0  0  0
   38.7636   36.7625   30.1228 C   0  0  0  0  0  0  0  0  0  0  0  0
   39.3151   37.8296   29.4446 O   0  0  0  0  0  0  0  0  0  0  0  0
   39.5577   39.0061   30.1107 C   0  0  0  0  0  0  0  0  0  0  0  0
   40.9564   42.3205   28.4743 H   0  0  0  0  0  0  0  0  0  0  0  0
   39.4278   41.3689   33.8599 H   0  0  0  0  0  0  0  0  0  0  0  0
   40.3347   39.9534   23.5985 C   0  0  0  0  0  0  0  0  0  0  0  0
   39.9343   39.9768   25.0072 N   0  0  0  0  0  0  0  0  0  0  0  0
   40.4246   38.7692   25.6949 C   0  0  0  0  0  0  0  0  0  0  0  0
   39.9675   38.7385   27.1579 C   0  0  0  0  0  0  0  0  0  0  0  0
   40.4074   40.0225   27.8853 C   0  0  0  0  0  0  0  0  0  0  0  0
   39.9412   41.2773   27.1150 C   0  0  0  0  0  0  0  0  0  0  0  0
   38.5096   41.3705   27.0658 O   0  0  0  0  0  0  0  0  0  0  0  0
   40.4517   41.2014   25.6616 C   0  0  0  0  0  0  0  0  0  0  0  0
   38.1510   40.5978   26.6019 H   0  0  0  0  0  0  0  0  0  0  0  0
   38.5000   35.5951   29.2671 C   0  0  0  0  0  0  0  0  0  0  0  0
   39.1902   35.5140   28.0451 C   0  0  0  0  0  0  0  0  0  0  0  0
   38.9951   34.4320   27.1839 C   0  0  0  0  0  0  0  0  0  0  0  0
   38.1098   33.4186   27.5406 C   0  0  0  0  0  0  0  0  0  0  0  0
   37.8458   31.9530   26.3766 Br  0  0  0  0  0  0  0  0  0  0  0  0
   37.4215   33.4728   28.7505 C   0  0  0  0  0  0  0  0  0  0  0  0
   37.6185   34.5560   29.6132 C   0  0  0  0  0  0  0  0  0  0  0  0
   36.7634   34.5409   31.1176 Cl  0  0  0  0  0  0  0  0  0  0  0  0
 16 17  1  0
 17 18  1  0
 18 19  1  0
 19 20  1  0
 20  1  1  0
  1  2  2  0
  2  3  1  0
  2  4  1  0
  4  5  2  0
  5  6  1  0
  5  7  1  0
  7  8  1  0
  8  9  2  0
  8 10  1  0
 10 11  2  0
 11 25  1  0
 25 26  2  0
 26 27  1  0
 27 28  2  0
 28 29  1  0
 28 30  1  0
 30 31  2  0
 31 32  1  0
 11 12  1  0
 12 13  1  0
 20 21  1  0
 21 22  1  0
 21 23  1  0
 23 17  1  0
 13  1  1  0
 13  7  2  0
 31 25  1  0
  3 14  1  0
  6 15  1  0
 22 24  1  0
M  END
> <minimizedAffinity>
-9.61880

> <CNNscore>
0.2926142514

> <CNNaffinity>
5.5893383026

> <CNN_VS>
1.6355201006

> <CNNaffinity_variance>
0.2443663627

$$$$



 32 35  0  0  0  0  0  0  0  0999 V2000
   37.9292   37.1589   33.7085 C   0  0  0  0  0  0  0  0  0  0  0  0
   36.9244   36.2976   34.1957 C   0  0  0  0  0  0  0  0  0  0  0  0
   36.4864   36.4467   35.4853 O   0  0  0  0  0  0  0  0  0  0  0  0
   36.3528   35.3012   33.4026 C   0  0  0  0  0  0  0  0  0  0  0  0
   36.7661   35.1562   32.0862 C   0  0  0  0  0  0  0  0  0  0  0  0
   36.1641   34.1636   31.3605 O   0  0  0  0  0  0  0  0  0  0  0  0
   37.7416   36.0062   31.5613 C   0  0  0  0  0  0  0  0  0  0  0  0
   38.1677   35.8862   30.1591 C   0  0  0  0  0  0  0  0  0  0  0  0
   37.7006   35.0217   29.4245 O   0  0  0  0  0  0  0  0  0  0  0  0
   39.1616   36.8478   29.6709 C   0  0  0  0  0  0  0  0  0  0  0  0
   39.6448   37.7498   30.5332 C   0  0  0  0  0  0  0  0  0  0  0  0
   39.2665   37.8557   31.8555 O   0  0  0  0  0  0  0  0  0  0  0  0
   38.3188   37.0000   32.3619 C   0  0  0  0  0  0  0  0  0  0  0  0
   36.8583   37.1101   36.0326 H   0  0  0  0  0  0  0  0  0  0  0  0
   35.5142   33.6195   31.7600 H   0  0  0  0  0  0  0  0  0  0  0  0
   40.9180   40.6888   37.1865 C   0  0  0  0  0  0  0  0  0  0  0  0
   40.4334   39.5907   36.3472 N   0  0  0  0  0  0  0  0  0  0  0  0
   39.2095   39.0100   36.9270 C   0  0  0  0  0  0  0  0  0  0  0  0
   38.7141   37.8179   36.1001 C   0  0  0  0  0  0  0  0  0  0  0  0
   38.5037   38.2327   34.6321 C   0  0  0  0  0  0  0  0  0  0  0  0
   39.7751   38.8987   34.0620 C   0  0  0  0  0  0  0  0  0  0  0  0
   40.8808   37.9842   34.0171 O   0  0  0  0  0  0  0  0  0  0  0  0
   40.1837   40.0766   34.9699 C   0  0  0  0  0  0  0  0  0  0  0  0
   41.0901   37.6856   34.9160 H   0  0  0  0  0  0  0  0  0  0  0  0
   40.6168   38.7725   30.1162 C   0  0  0  0  0  0  0  0  0  0  0  0
   41.9815   38.4440   30.1936 C   0  0  0  0  0  0  0  0  0  0  0  0
   42.9610   39.3624   29.8094 C   0  0  0  0  0  0  0  0  0  0  0  0
   42.5826   40.6172   29.3399 C   0  0  0  0  0  0  0  0  0  0  0  0
   43.9072   41.8605   28.8183 Br  0  0  0  0  0  0  0  0  0  0  0  0
   41.2362   40.9617   29.2458 C   0  0  0  0  0  0  0  0  0  0  0  0
   40.2557   40.0409   29.6293 C   0  0  0  0  0  0  0  0  0  0  0  0
   38.6020   40.5180   29.4489 Cl  0  0  0  0  0  0  0  0  0  0  0  0
 16 17  1  0
 17 18  1  0
 18 19  1  0
 19 20  1  0
 20  1  1  0
  1  2  2  0
  2  3  1  0
  2  4  1  0
  4  5  2  0
  5  6  1  0
  5  7  1  0
  7  8  1  0
  8  9  2  0
  8 10  1  0
 10 11  2  0
 11 25  1  0
 25 26  2  0
 26 27  1  0
 27 28  2  0
 28 29  1  0
 28 30  1  0
 30 31  2  0
 31 32  1  0
 11 12  1  0
 12 13  1  0
 20 21  1  0
 21 22  1  0
 21 23  1  0
 23 17  1  0
 13  1  1  0
 13  7  2  0
 31 25  1  0
  3 14  1  0
  6 15  1  0
 22 24  1  0
M  END
> <minimizedAffinity>
-7.51871

> <CNNscore>
0.2772022486

> <CNNaffinity>
4.9885916710

> <CNN_VS>
1.3828488588

> <CNNaffinity_variance>
0.2354086041

$$$$



 32 35  0  0  0  0  0  0  0  0999 V2000
   45.3965   33.8585   30.9708 C   0  0  0  0  0  0  0  0  0  0  0  0
   45.1165   32.9818   32.0394 C   0  0  0  0  0  0  0  0  0  0  0  0
   44.2571   33.3873   33.0264 O   0  0  0  0  0  0  0  0  0  0  0  0
   45.6800   31.7074   32.1205 C   0  0  0  0  0  0  0  0  0  0  0  0
   46.5303   31.2721   31.1142 C   0  0  0  0  0  0  0  0  0  0  0  0
   47.0466   30.0115   31.2506 O   0  0  0  0  0  0  0  0  0  0  0  0
   46.8120   32.1030   30.0281 C   0  0  0  0  0  0  0  0  0  0  0  0
   47.6857   31.6446   28.9377 C   0  0  0  0  0  0  0  0  0  0  0  0
   48.2108   30.5363   28.9671 O   0  0  0  0  0  0  0  0  0  0  0  0
   47.8932   32.5584   27.8095 C   0  0  0  0  0  0  0  0  0  0  0  0
   47.3075   33.7607   27.8542 C   0  0  0  0  0  0  0  0  0  0  0  0
   46.5040   34.2068   28.8828 O   0  0  0  0  0  0  0  0  0  0  0  0
   46.2511   33.3842   29.9534 C   0  0  0  0  0  0  0  0  0  0  0  0
   43.8691   34.2394   32.9889 H   0  0  0  0  0  0  0  0  0  0  0  0
   46.8261   29.4935   31.9996 H   0  0  0  0  0  0  0  0  0  0  0  0
   43.7827   39.4146   31.0964 C   0  0  0  0  0  0  0  0  0  0  0  0
   44.4837   38.1323   31.1931 N   0  0  0  0  0  0  0  0  0  0  0  0
   43.7916   37.2454   32.1449 C   0  0  0  0  0  0  0  0  0  0  0  0
   44.5390   35.9172   32.3113 C   0  0  0  0  0  0  0  0  0  0  0  0
   44.7364   35.2369   30.9440 C   0  0  0  0  0  0  0  0  0  0  0  0
   45.4032   36.2034   29.9408 C   0  0  0  0  0  0  0  0  0  0  0  0
   46.7302   36.5653   30.3517 O   0  0  0  0  0  0  0  0  0  0  0  0
   44.5737   37.5009   29.8557 C   0  0  0  0  0  0  0  0  0  0  0  0
   46.6909   37.0201   31.2076 H   0  0  0  0  0  0  0  0  0  0  0  0
   47.4346   34.7225   26.7481 C   0  0  0  0  0  0  0  0  0  0  0  0
   46.6145   34.5324   25.6222 C   0  0  0  0  0  0  0  0  0  0  0  0
   46.6760   35.4086   24.5364 C   0  0  0  0  0  0  0  0  0  0  0  0
   47.5566   36.4863   24.5699 C   0  0  0  0  0  0  0  0  0  0  0  0
   47.6399   37.6737   23.1017 Br  0  0  0  0  0  0  0  0  0  0  0  0
   48.3725   36.7000   25.6786 C   0  0  0  0  0  0  0  0  0  0  0  0
   48.3093   35.8229   26.7663 C   0  0  0  0  0  0  0  0  0  0  0  0
   49.3200   36.1694   28.1276 Cl  0  0  0  0  0  0  0  0  0  0  0  0
 16 17  1  0
 17 18  1  0
 18 19  1  0
 19 20  1  0
 20  1  1  0
  1  2  2  0
  2  3  1  0
  2  4  1  0
  4  5  2  0
  5  6  1  0
  5  7  1  0
  7  8  1  0
  8  9  2  0
  8 10  1  0
 10 11  2  0
 11 25  1  0
 25 26  2  0
 26 27  1  0
 27 28  2  0
 28 29  1  0
 28 30  1  0
 30 31  2  0
 31 32  1  0
 11 12  1  0
 12 13  1  0
 20 21  1  0
 21 22  1  0
 21 23  1  0
 23 17  1  0
 13  1  1  0
 13  7  2  0
 31 25  1  0
  3 14  1  0
  6 15  1  0
 22 24  1  0
M  END
> <minimizedAffinity>
-6.26281

> <CNNscore>
0.2464527190

> <CNNaffinity>
3.9793221951

> <CNN_VS>
0.9807147980

> <CNNaffinity_variance>
1.2741948366

$$$$



 32 35  0  0  0  0  0  0  0  0999 V2000
   38.3455   36.8464   31.6048 C   0  0  0  0  0  0  0  0  0  0  0  0
   37.3836   36.3209   32.4923 C   0  0  0  0  0  0  0  0  0  0  0  0
   37.1652   36.9522   33.6884 O   0  0  0  0  0  0  0  0  0  0  0  0
   36.6378   35.1810   32.1877 C   0  0  0  0  0  0  0  0  0  0  0  0
   36.8280   34.5469   30.9684 C   0  0  0  0  0  0  0  0  0  0  0  0
   36.0631   33.4370   30.7288 O   0  0  0  0  0  0  0  0  0  0  0  0
   37.7543   35.0521   30.0540 C   0  0  0  0  0  0  0  0  0  0  0  0
   37.9448   34.4104   28.7447 C   0  0  0  0  0  0  0  0  0  0  0  0
   37.3189   33.4021   28.4338 O   0  0  0  0  0  0  0  0  0  0  0  0
   38.9015   35.0303   27.8219 C   0  0  0  0  0  0  0  0  0  0  0  0
   39.5658   36.1157   28.2356 C   0  0  0  0  0  0  0  0  0  0  0  0
   39.4089   36.7115   29.4698 O   0  0  0  0  0  0  0  0  0  0  0  0
   38.5067   36.1917   30.3656 C   0  0  0  0  0  0  0  0  0  0  0  0
   37.6563   37.7187   33.9102 H   0  0  0  0  0  0  0  0  0  0  0  0
   35.4552   33.1383   31.3762 H   0  0  0  0  0  0  0  0  0  0  0  0
   41.4199   41.7186   32.1524 C   0  0  0  0  0  0  0  0  0  0  0  0
   40.7410   40.5073   31.6865 N   0  0  0  0  0  0  0  0  0  0  0  0
   41.3010   39.3209   32.3575 C   0  0  0  0  0  0  0  0  0  0  0  0
   40.6493   38.0320   31.8432 C   0  0  0  0  0  0  0  0  0  0  0  0
   39.1193   38.1032   32.0021 C   0  0  0  0  0  0  0  0  0  0  0  0
   38.5585   39.3859   31.3500 C   0  0  0  0  0  0  0  0  0  0  0  0
   38.7684   39.3968   29.9299 O   0  0  0  0  0  0  0  0  0  0  0  0
   39.2844   40.6141   31.9358 C   0  0  0  0  0  0  0  0  0  0  0  0
   39.7199   39.3710   29.7435 H   0  0  0  0  0  0  0  0  0  0  0  0
   40.5156   36.8195   27.3597 C   0  0  0  0  0  0  0  0  0  0  0  0
   39.9879   37.5532   26.2828 C   0  0  0  0  0  0  0  0  0  0  0  0
   40.8283   38.2512   25.4128 C   0  0  0  0  0  0  0  0  0  0  0  0
   42.2053   38.2245   25.6159 C   0  0  0  0  0  0  0  0  0  0  0  0
   43.3438   39.1698   24.4400 Br  0  0  0  0  0  0  0  0  0  0  0  0
   42.7505   37.5118   26.6814 C   0  0  0  0  0  0  0  0  0  0  0  0
   41.9081   36.8142   27.5532 C   0  0  0  0  0  0  0  0  0  0  0  0
   42.6471   35.9834   28.8792 Cl  0  0  0  0  0  0  0  0  0  0  0  0
 16 17  1  0
 17 18  1  0
 18 19  1  0
 19 20  1  0
 20  1  1  0
  1  2  2  0
  2  3  1  0
  2  4  1  0
  4  5  2  0
  5  6  1  0
  5  7  1  0
  7  8  1  0
  8  9  2  0
  8 10  1  0
 10 11  2  0
 11 25  1  0
 25 26  2  0
 26 27  1  0
 27 28  2  0
 28 29  1  0
 28 30  1  0
 30 31  2  0
 31 32  1  0
 11 12  1  0
 12 13  1  0
 20 21  1  0
 21 22  1  0
 21 23  1  0
 23 17  1  0
 13  1  1  0
 13  7  2  0
 31 25  1  0
  3 14  1  0
  6 15  1  0
 22 24  1  0
M  END
> <minimizedAffinity>
-9.28236

> <CNNscore>
0.2355669141

> <CNNaffinity>
4.6466460228

> <CNN_VS>
1.0945960283

> <CNNaffinity_variance>
0.5273357034

$$$$



 32 35  0  0  0  0  0  0  0  0999 V2000
   43.7283   37.0675   34.7537 C   0  0  0  0  0  0  0  0  0  0  0  0
   43.2856   37.4093   36.0484 C   0  0  0  0  0  0  0  0  0  0  0  0
   42.5601   38.5584   36.2229 O   0  0  0  0  0  0  0  0  0  0  0  0
   43.5547   36.6089   37.1598 C   0  0  0  0  0  0  0  0  0  0  0  0
   44.2642   35.4281   36.9945 C   0  0  0  0  0  0  0  0  0  0  0  0
   44.4916   34.6866   38.1226 O   0  0  0  0  0  0  0  0  0  0  0  0
   44.6981   35.0445   35.7240 C   0  0  0  0  0  0  0  0  0  0  0  0
   45.4234   33.7806   35.5272 C   0  0  0  0  0  0  0  0  0  0  0  0
   45.6907   33.0471   36.4735 O   0  0  0  0  0  0  0  0  0  0  0  0
   45.8023   33.4263   34.1554 C   0  0  0  0  0  0  0  0  0  0  0  0
   45.4985   34.2842   33.1744 C   0  0  0  0  0  0  0  0  0  0  0  0
   44.8374   35.4816   33.3529 O   0  0  0  0  0  0  0  0  0  0  0  0
   44.4331   35.8536   34.6118 C   0  0  0  0  0  0  0  0  0  0  0  0
   42.3697   39.1083   35.4885 H   0  0  0  0  0  0  0  0  0  0  0  0
   44.1791   34.9886   38.9527 H   0  0  0  0  0  0  0  0  0  0  0  0
   41.5825   40.1012   30.3172 C   0  0  0  0  0  0  0  0  0  0  0  0
   41.8405   39.1477   31.3987 N   0  0  0  0  0  0  0  0  0  0  0  0
   43.0571   38.3682   31.1092 C   0  0  0  0  0  0  0  0  0  0  0  0
   43.3171   37.3194   32.1968 C   0  0  0  0  0  0  0  0  0  0  0  0
   43.3893   37.9885   33.5819 C   0  0  0  0  0  0  0  0  0  0  0  0
   42.1362   38.8535   33.8400 C   0  0  0  0  0  0  0  0  0  0  0  0
   40.9420   38.0587   33.8920 O   0  0  0  0  0  0  0  0  0  0  0  0
   41.9703   39.8657   32.6882 C   0  0  0  0  0  0  0  0  0  0  0  0
   40.8135   37.6120   33.0406 H   0  0  0  0  0  0  0  0  0  0  0  0
   45.8100   33.9889   31.7671 C   0  0  0  0  0  0  0  0  0  0  0  0
   45.9350   35.0767   30.8855 C   0  0  0  0  0  0  0  0  0  0  0  0
   46.2350   34.8734   29.5367 C   0  0  0  0  0  0  0  0  0  0  0  0
   46.4170   33.5784   29.0591 C   0  0  0  0  0  0  0  0  0  0  0  0
   46.8244   33.3019   27.2343 Br  0  0  0  0  0  0  0  0  0  0  0  0
   46.3071   32.4856   29.9158 C   0  0  0  0  0  0  0  0  0  0  0  0
   46.0080   32.6900   31.2668 C   0  0  0  0  0  0  0  0  0  0  0  0
   45.9262   31.2924   32.2840 Cl  0  0  0  0  0  0  0  0  0  0  0  0
 16 17  1  0
 17 18  1  0
 18 19  1  0
 19 20  1  0
 20  1  1  0
  1  2  2  0
  2  3  1  0
  2  4  1  0
  4  5  2  0
  5  6  1  0
  5  7  1  0
  7  8  1  0
  8  9  2  0
  8 10  1  0
 10 11  2  0
 11 25  1  0
 25 26  2  0
 26 27  1  0
 27 28  2  0
 28 29  1  0
 28 30  1  0
 30 31  2  0
 31 32  1  0
 11 12  1  0
 12 13  1  0
 20 21  1  0
 21 22  1  0
 21 23  1  0
 23 17  1  0
 13  1  1  0
 13  7  2  0
 31 25  1  0
  3 14  1  0
  6 15  1  0
 22 24  1  0
M  END
> <minimizedAffinity>
-6.25745

> <CNNscore>
0.2347338945

> <CNNaffinity>
4.5607705116

> <CNN_VS>
1.0705673695

> <CNNaffinity_variance>
0.3536250889

$$$$



 32 35  0  0  0  0  0  0  0  0999 V2000
   45.0183   34.8838   34.5943 C   0  0  0  0  0  0  0  0  0  0  0  0
   45.6292   33.9491   35.4558 C   0  0  0  0  0  0  0  0  0  0  0  0
   45.4318   34.0599   36.8070 O   0  0  0  0  0  0  0  0  0  0  0  0
   46.4231   32.9062   34.9757 C   0  0  0  0  0  0  0  0  0  0  0  0
   46.6095   32.7645   33.6082 C   0  0  0  0  0  0  0  0  0  0  0  0
   47.3951   31.7197   33.2016 O   0  0  0  0  0  0  0  0  0  0  0  0
   46.0009   33.6563   32.7229 C   0  0  0  0  0  0  0  0  0  0  0  0
   46.1625   33.5009   31.2696 C   0  0  0  0  0  0  0  0  0  0  0  0
   46.8564   32.6052   30.7994 O   0  0  0  0  0  0  0  0  0  0  0  0
   45.4517   34.4496   30.4061 C   0  0  0  0  0  0  0  0  0  0  0  0
   44.7307   35.4154   30.9875 C   0  0  0  0  0  0  0  0  0  0  0  0
   44.5910   35.5813   32.3497 O   0  0  0  0  0  0  0  0  0  0  0  0
   45.2110   34.7064   33.2080 C   0  0  0  0  0  0  0  0  0  0  0  0
   44.9020   34.7535   37.1478 H   0  0  0  0  0  0  0  0  0  0  0  0
   47.7812   31.1490   33.8367 H   0  0  0  0  0  0  0  0  0  0  0  0
   42.2897   38.9671   37.6556 C   0  0  0  0  0  0  0  0  0  0  0  0
   43.1281   37.8635   37.1820 N   0  0  0  0  0  0  0  0  0  0  0  0
   42.2848   36.7527   36.7062 C   0  0  0  0  0  0  0  0  0  0  0  0
   43.1373   35.5590   36.2606 C   0  0  0  0  0  0  0  0  0  0  0  0
   44.1555   35.9955   35.1909 C   0  0  0  0  0  0  0  0  0  0  0  0
   44.9848   37.2022   35.6821 C   0  0  0  0  0  0  0  0  0  0  0  0
   45.7901   36.8663   36.8220 O   0  0  0  0  0  0  0  0  0  0  0  0
   44.0304   38.3371   36.1063 C   0  0  0  0  0  0  0  0  0  0  0  0
   45.2157   36.5939   37.5547 H   0  0  0  0  0  0  0  0  0  0  0  0
   43.9583   36.3849   30.1950 C   0  0  0  0  0  0  0  0  0  0  0  0
   42.8826   35.8946   29.4341 C   0  0  0  0  0  0  0  0  0  0  0  0
   42.1012   36.7567   28.6617 C   0  0  0  0  0  0  0  0  0  0  0  0
   42.3871   38.1191   28.6476 C   0  0  0  0  0  0  0  0  0  0  0  0
   41.3294   39.2872   27.6039 Br  0  0  0  0  0  0  0  0  0  0  0  0
   43.4422   38.6292   29.4006 C   0  0  0  0  0  0  0  0  0  0  0  0
   44.2235   37.7654   30.1751 C   0  0  0  0  0  0  0  0  0  0  0  0
   45.4923   38.4698   31.1178 Cl  0  0  0  0  0  0  0  0  0  0  0  0
 16 17  1  0
 17 18  1  0
 18 19  1  0
 19 20  1  0
 20  1  1  0
  1  2  2  0
  2  3  1  0
  2  4  1  0
  4  5  2  0
  5  6  1  0
  5  7  1  0
  7  8  1  0
  8  9  2  0
  8 10  1  0
 10 11  2  0
 11 25  1  0
 25 26  2  0
 26 27  1  0
 27 28  2  0
 28 29  1  0
 28 30  1  0
 30 31  2  0
 31 32  1  0
 11 12  1  0
 12 13  1  0
 20 21  1  0
 21 22  1  0
 21 23  1  0
 23 17  1  0
 13  1  1  0
 13  7  2  0
 31 25  1  0
  3 14  1  0
  6 15  1  0
 22 24  1  0
M  END
> <minimizedAffinity>
-6.29196

> <CNNscore>
0.2061973363

> <CNNaffinity>
4.3846054077

> <CNN_VS>
0.9040939808

> <CNNaffinity_variance>
0.3476112783

$$$$



 32 35  0  0  0  0  0  0  0  0999 V2000
   38.2686   36.9397   31.7323 C   0  0  0  0  0  0  0  0  0  0  0  0
   37.3181   36.2711   32.5312 C   0  0  0  0  0  0  0  0  0  0  0  0
   37.0189   36.7718   33.7709 O   0  0  0  0  0  0  0  0  0  0  0  0
   36.6630   35.1178   32.0960 C   0  0  0  0  0  0  0  0  0  0  0  0
   36.9349   34.6146   30.8320 C   0  0  0  0  0  0  0  0  0  0  0  0
   36.2567   33.4839   30.4635 O   0  0  0  0  0  0  0  0  0  0  0  0
   37.8522   35.2633   30.0030 C   0  0  0  0  0  0  0  0  0  0  0  0
   38.1278   34.7609   28.6488 C   0  0  0  0  0  0  0  0  0  0  0  0
   37.5833   33.7471   28.2238 O   0  0  0  0  0  0  0  0  0  0  0  0
   39.0677   35.5263   27.8232 C   0  0  0  0  0  0  0  0  0  0  0  0
   39.6419   36.6098   28.3589 C   0  0  0  0  0  0  0  0  0  0  0  0
   39.4054   37.0758   29.6355 O   0  0  0  0  0  0  0  0  0  0  0  0
   38.5136   36.4159   30.4454 C   0  0  0  0  0  0  0  0  0  0  0  0
   37.4485   37.5450   34.0800 H   0  0  0  0  0  0  0  0  0  0  0  0
   35.6508   33.0864   31.0575 H   0  0  0  0  0  0  0  0  0  0  0  0
   41.6230   41.1791   33.7977 C   0  0  0  0  0  0  0  0  0  0  0  0
   41.0506   39.9128   33.3349 N   0  0  0  0  0  0  0  0  0  0  0  0
   39.9107   39.5293   34.1864 C   0  0  0  0  0  0  0  0  0  0  0  0
   39.3300   38.1756   33.7611 C   0  0  0  0  0  0  0  0  0  0  0  0
   38.9406   38.2022   32.2715 C   0  0  0  0  0  0  0  0  0  0  0  0
   40.1281   38.6696   31.4017 C   0  0  0  0  0  0  0  0  0  0  0  0
   41.2284   37.7498   31.4641 O   0  0  0  0  0  0  0  0  0  0  0  0
   40.6324   40.0324   31.9185 C   0  0  0  0  0  0  0  0  0  0  0  0
   41.5472   37.6886   32.3782 H   0  0  0  0  0  0  0  0  0  0  0  0
   40.5677   37.4537   27.5872 C   0  0  0  0  0  0  0  0  0  0  0  0
   41.7279   36.8476   27.0744 C   0  0  0  0  0  0  0  0  0  0  0  0
   42.6495   37.5847   26.3276 C   0  0  0  0  0  0  0  0  0  0  0  0
   42.4155   38.9352   26.0836 C   0  0  0  0  0  0  0  0  0  0  0  0
   43.6613   39.9336   25.0719 Br  0  0  0  0  0  0  0  0  0  0  0  0
   41.2685   39.5551   26.5739 C   0  0  0  0  0  0  0  0  0  0  0  0
   40.3451   38.8159   27.3205 C   0  0  0  0  0  0  0  0  0  0  0  0
   38.9224   39.6371   27.8647 Cl  0  0  0  0  0  0  0  0  0  0  0  0
 16 17  1  0
 17 18  1  0
 18 19  1  0
 19 20  1  0
 20  1  1  0
  1  2  2  0
  2  3  1  0
  2  4  1  0
  4  5  2  0
  5  6  1  0
  5  7  1  0
  7  8  1  0
  8  9  2  0
  8 10  1  0
 10 11  2  0
 11 25  1  0
 25 26  2  0
 26 27  1  0
 27 28  2  0
 28 29  1  0
 28 30  1  0
 30 31  2  0
 31 32  1  0
 11 12  1  0
 12 13  1  0
 20 21  1  0
 21 22  1  0
 21 23  1  0
 23 17  1  0
 13  1  1  0
 13  7  2  0
 31 25  1  0
  3 14  1  0
  6 15  1  0
 22 24  1  0
M  END
> <minimizedAffinity>
-8.91588

> <CNNscore>
0.2047163397

> <CNNaffinity>
4.7300920486

> <CNN_VS>
0.9683271050

> <CNNaffinity_variance>
0.3560633957

$$$$
