


 17 18  0  0  0  0  0  0  0  0999 V2000
   28.6793  -26.3330  -29.6560 C   0  0  0  0  0  0  0  0  0  0  0  0
   29.8348  -26.4198  -28.6945 C   0  0  0  0  0  0  0  0  0  0  0  0
   30.8043  -27.4029  -28.8742 C   0  0  0  0  0  0  0  0  0  0  0  0
   31.8797  -27.5716  -28.0739 N   0  0  0  0  0  0  0  0  0  0  0  0
   32.0001  -26.7265  -27.0351 C   0  0  0  0  0  0  0  0  0  0  0  0
   33.3798  -26.9874  -26.0527 Cl  0  0  0  0  0  0  0  0  0  0  0  0
   31.1079  -25.7167  -26.7503 C   0  0  0  0  0  0  0  0  0  0  0  0
   30.0135  -25.5689  -27.5978 C   0  0  0  0  0  0  0  0  0  0  0  0
   28.9024  -24.2958  -27.2360 Cl  0  0  0  0  0  0  0  0  0  0  0  0
   29.1237  -23.8720  -31.1747 N   0  0  0  0  0  0  0  0  0  0  0  0
   29.3660  -25.0378  -31.6743 C   0  0  0  0  0  0  0  0  0  0  0  0
   30.0551  -25.3452  -33.2743 S   0  0  0  0  0  0  0  0  0  0  0  0
   29.6444  -27.1107  -33.2028 C   0  0  0  0  0  0  0  0  0  0  0  0
   29.6195  -27.4274  -31.7133 C   0  0  0  0  0  0  0  0  0  0  0  0
   29.1203  -26.2353  -31.0379 N   0  0  0  0  0  0  0  0  0  0  0  0
   29.6108  -21.8048  -32.4851 N   0  0  0  0  0  0  0  0  0  0  0  0
   29.3952  -22.7755  -31.8897 C   0  0  0  0  0  0  0  0  0  0  0  0
 16 17  3  0
 17 10  1  0
 10 11  2  0
 11 12  1  0
 12 13  1  0
 13 14  1  0
 14 15  1  0
 15  1  1  0
  1  2  1  0
  2  3  2  0
  3  4  1  0
  4  5  2  0
  5  6  1  0
  5  7  1  0
  7  8  2  0
  8  9  1  0
 15 11  1  0
  8  2  1  0
M  END
> <minimizedAffinity>
-5.54985

> <CNNscore>
0.6470044851

> <CNNaffinity>
6.9777412415

> <CNN_VS>
4.5146298409

> <CNNaffinity_variance>
0.2800033092

$$$$



 17 18  0  0  0  0  0  0  0  0999 V2000
   29.3440  -26.9051  -28.6956 C   0  0  0  0  0  0  0  0  0  0  0  0
   29.3821  -25.9597  -29.8668 C   0  0  0  0  0  0  0  0  0  0  0  0
   29.5140  -24.5922  -29.6406 C   0  0  0  0  0  0  0  0  0  0  0  0
   29.5587  -23.6569  -30.6146 N   0  0  0  0  0  0  0  0  0  0  0  0
   29.4611  -24.0966  -31.8815 C   0  0  0  0  0  0  0  0  0  0  0  0
   29.5210  -22.8683  -33.0749 Cl  0  0  0  0  0  0  0  0  0  0  0  0
   29.3247  -25.4210  -32.2336 C   0  0  0  0  0  0  0  0  0  0  0  0
   29.2863  -26.3583  -31.2050 C   0  0  0  0  0  0  0  0  0  0  0  0
   29.1207  -28.0181  -31.6565 Cl  0  0  0  0  0  0  0  0  0  0  0  0
   30.4338  -29.0830  -27.0739 N   0  0  0  0  0  0  0  0  0  0  0  0
   31.0629  -27.9664  -27.2322 C   0  0  0  0  0  0  0  0  0  0  0  0
   32.6674  -27.5928  -26.5877 S   0  0  0  0  0  0  0  0  0  0  0  0
   32.4940  -25.8249  -26.9557 C   0  0  0  0  0  0  0  0  0  0  0  0
   31.5178  -25.7816  -28.1240 C   0  0  0  0  0  0  0  0  0  0  0  0
   30.5790  -26.8803  -27.9288 N   0  0  0  0  0  0  0  0  0  0  0  0
   31.5150  -30.9249  -25.7833 N   0  0  0  0  0  0  0  0  0  0  0  0
   30.9992  -30.0676  -26.3683 C   0  0  0  0  0  0  0  0  0  0  0  0
 16 17  3  0
 17 10  1  0
 10 11  2  0
 11 12  1  0
 12 13  1  0
 13 14  1  0
 14 15  1  0
 15  1  1  0
  1  2  1  0
  2  3  2  0
  3  4  1  0
  4  5  2  0
  5  6  1  0
  5  7  1  0
  7  8  2  0
  8  9  1  0
 15 11  1  0
  8  2  1  0
M  END
> <minimizedAffinity>
-5.03365

> <CNNscore>
0.5630269647

> <CNNaffinity>
7.0002093315

> <CNN_VS>
3.9413065910

> <CNNaffinity_variance>
0.3110774755

$$$$



 17 18  0  0  0  0  0  0  0  0999 V2000
   22.7850  -29.1494  -35.9984 C   0  0  0  0  0  0  0  0  0  0  0  0
   24.2093  -29.5822  -35.7723 C   0  0  0  0  0  0  0  0  0  0  0  0
   24.5144  -30.3967  -34.6849 C   0  0  0  0  0  0  0  0  0  0  0  0
   25.7547  -30.8426  -34.3879 N   0  0  0  0  0  0  0  0  0  0  0  0
   26.7492  -30.4572  -35.2066 C   0  0  0  0  0  0  0  0  0  0  0  0
   28.3000  -31.0493  -34.7815 Cl  0  0  0  0  0  0  0  0  0  0  0  0
   26.5758  -29.6525  -36.3107 C   0  0  0  0  0  0  0  0  0  0  0  0
   25.2842  -29.2144  -36.5896 C   0  0  0  0  0  0  0  0  0  0  0  0
   25.0754  -28.2099  -37.9802 Cl  0  0  0  0  0  0  0  0  0  0  0  0
   22.8399  -31.2220  -38.0628 N   0  0  0  0  0  0  0  0  0  0  0  0
   21.9996  -31.2540  -37.0829 C   0  0  0  0  0  0  0  0  0  0  0  0
   20.8272  -32.5434  -36.7786 S   0  0  0  0  0  0  0  0  0  0  0  0
   19.9306  -31.5515  -35.5527 C   0  0  0  0  0  0  0  0  0  0  0  0
   20.9814  -30.5923  -35.0089 C   0  0  0  0  0  0  0  0  0  0  0  0
   21.8788  -30.2804  -36.1151 N   0  0  0  0  0  0  0  0  0  0  0  0
   22.8425  -33.0852  -39.7229 N   0  0  0  0  0  0  0  0  0  0  0  0
   22.8611  -32.2216  -38.9502 C   0  0  0  0  0  0  0  0  0  0  0  0
 16 17  3  0
 17 10  1  0
 10 11  2  0
 11 12  1  0
 12 13  1  0
 13 14  1  0
 14 15  1  0
 15  1  1  0
  1  2  1  0
  2  3  2  0
  3  4  1  0
  4  5  2  0
  5  6  1  0
  5  7  1  0
  7  8  2  0
  8  9  1  0
 15 11  1  0
  8  2  1  0
M  END
> <minimizedAffinity>
-4.45737

> <CNNscore>
0.5002401471

> <CNNaffinity>
5.1733245850

> <CNN_VS>
2.5879046917

> <CNNaffinity_variance>
0.0989761576

$$$$



 17 18  0  0  0  0  0  0  0  0999 V2000
   21.3481  -31.5600  -34.3835 C   0  0  0  0  0  0  0  0  0  0  0  0
   22.2806  -30.7187  -35.2142 C   0  0  0  0  0  0  0  0  0  0  0  0
   21.9142  -30.3642  -36.5098 C   0  0  0  0  0  0  0  0  0  0  0  0
   22.6719  -29.6152  -37.3407 N   0  0  0  0  0  0  0  0  0  0  0  0
   23.8597  -29.1993  -36.8676 C   0  0  0  0  0  0  0  0  0  0  0  0
   24.7793  -28.2560  -37.9635 Cl  0  0  0  0  0  0  0  0  0  0  0  0
   24.3349  -29.4857  -35.6070 C   0  0  0  0  0  0  0  0  0  0  0  0
   23.5266  -30.2563  -34.7758 C   0  0  0  0  0  0  0  0  0  0  0  0
   24.1285  -30.6058  -33.1942 Cl  0  0  0  0  0  0  0  0  0  0  0  0
   21.2513  -31.1717  -31.4852 N   0  0  0  0  0  0  0  0  0  0  0  0
   20.4365  -30.5676  -32.2844 C   0  0  0  0  0  0  0  0  0  0  0  0
   19.2134  -29.3846  -31.8006 S   0  0  0  0  0  0  0  0  0  0  0  0
   18.3969  -29.4440  -33.4194 C   0  0  0  0  0  0  0  0  0  0  0  0
   19.5054  -29.8515  -34.3811 C   0  0  0  0  0  0  0  0  0  0  0  0
   20.3871  -30.7533  -33.6490 N   0  0  0  0  0  0  0  0  0  0  0  0
   21.1652  -30.7355  -29.0296 N   0  0  0  0  0  0  0  0  0  0  0  0
   21.2022  -30.9187  -30.1735 C   0  0  0  0  0  0  0  0  0  0  0  0
 16 17  3  0
 17 10  1  0
 10 11  2  0
 11 12  1  0
 12 13  1  0
 13 14  1  0
 14 15  1  0
 15  1  1  0
  1  2  1  0
  2  3  2  0
  3  4  1  0
  4  5  2  0
  5  6  1  0
  5  7  1  0
  7  8  2  0
  8  9  1  0
 15 11  1  0
  8  2  1  0
M  END
> <minimizedAffinity>
-4.60692

> <CNNscore>
0.4737579525

> <CNNaffinity>
4.9508452415

> <CNN_VS>
2.3455023766

> <CNNaffinity_variance>
0.0770540014

$$$$



 17 18  0  0  0  0  0  0  0  0999 V2000
   29.4279  -26.8735  -26.7844 C   0  0  0  0  0  0  0  0  0  0  0  0
   29.5994  -26.3561  -28.1880 C   0  0  0  0  0  0  0  0  0  0  0  0
   29.9756  -27.2337  -29.2014 C   0  0  0  0  0  0  0  0  0  0  0  0
   30.1580  -26.8781  -30.4921 N   0  0  0  0  0  0  0  0  0  0  0  0
   29.9642  -25.5830  -30.7967 C   0  0  0  0  0  0  0  0  0  0  0  0
   30.2114  -25.1880  -32.4458 Cl  0  0  0  0  0  0  0  0  0  0  0  0
   29.5940  -24.6195  -29.8849 C   0  0  0  0  0  0  0  0  0  0  0  0
   29.4108  -25.0215  -28.5647 C   0  0  0  0  0  0  0  0  0  0  0  0
   28.9408  -23.8070  -27.4288 Cl  0  0  0  0  0  0  0  0  0  0  0  0
   30.2015  -29.6951  -26.8073 N   0  0  0  0  0  0  0  0  0  0  0  0
   30.9836  -28.7746  -26.3507 C   0  0  0  0  0  0  0  0  0  0  0  0
   32.6282  -29.0303  -25.7513 S   0  0  0  0  0  0  0  0  0  0  0  0
   32.7087  -27.3711  -25.0223 C   0  0  0  0  0  0  0  0  0  0  0  0
   31.7432  -26.5471  -25.8640 C   0  0  0  0  0  0  0  0  0  0  0  0
   30.6573  -27.4393  -26.2532 N   0  0  0  0  0  0  0  0  0  0  0  0
   30.9599  -32.0720  -26.8583 N   0  0  0  0  0  0  0  0  0  0  0  0
   30.6230  -30.9631  -26.8464 C   0  0  0  0  0  0  0  0  0  0  0  0
 16 17  3  0
 17 10  1  0
 10 11  2  0
 11 12  1  0
 12 13  1  0
 13 14  1  0
 14 15  1  0
 15  1  1  0
  1  2  1  0
  2  3  2  0
  3  4  1  0
  4  5  2  0
  5  6  1  0
  5  7  1  0
  7  8  2  0
  8  9  1  0
 15 11  1  0
  8  2  1  0
M  END
> <minimizedAffinity>
-4.86070

> <CNNscore>
0.4144891798

> <CNNaffinity>
6.7584891319

> <CNN_VS>
2.8013205528

> <CNNaffinity_variance>
0.2673536241

$$$$



 17 18  0  0  0  0  0  0  0  0999 V2000
   23.1593  -31.8769  -33.8993 C   0  0  0  0  0  0  0  0  0  0  0  0
   23.8310  -30.9568  -34.8838 C   0  0  0  0  0  0  0  0  0  0  0  0
   23.0890  -30.4083  -35.9266 C   0  0  0  0  0  0  0  0  0  0  0  0
   23.5888  -29.5736  -36.8641 N   0  0  0  0  0  0  0  0  0  0  0  0
   24.8950  -29.2694  -36.7697 C   0  0  0  0  0  0  0  0  0  0  0  0
   25.4756  -28.2098  -37.9850 Cl  0  0  0  0  0  0  0  0  0  0  0  0
   25.7333  -29.7489  -35.7879 C   0  0  0  0  0  0  0  0  0  0  0  0
   25.1843  -30.6034  -34.8358 C   0  0  0  0  0  0  0  0  0  0  0  0
   26.2423  -31.1957  -33.6044 Cl  0  0  0  0  0  0  0  0  0  0  0  0
   20.4576  -32.8264  -33.2993 N   0  0  0  0  0  0  0  0  0  0  0  0
   20.9206  -31.7250  -32.8096 C   0  0  0  0  0  0  0  0  0  0  0  0
   20.0698  -30.6706  -31.6720 S   0  0  0  0  0  0  0  0  0  0  0  0
   21.2598  -29.3215  -31.9048 C   0  0  0  0  0  0  0  0  0  0  0  0
   22.5466  -30.0261  -32.3139 C   0  0  0  0  0  0  0  0  0  0  0  0
   22.1569  -31.1903  -33.1008 N   0  0  0  0  0  0  0  0  0  0  0  0
   18.1634  -33.5779  -32.6671 N   0  0  0  0  0  0  0  0  0  0  0  0
   19.2366  -33.2447  -32.9512 C   0  0  0  0  0  0  0  0  0  0  0  0
 16 17  3  0
 17 10  1  0
 10 11  2  0
 11 12  1  0
 12 13  1  0
 13 14  1  0
 14 15  1  0
 15  1  1  0
  1  2  1  0
  2  3  2  0
  3  4  1  0
  4  5  2  0
  5  6  1  0
  5  7  1  0
  7  8  2  0
  8  9  1  0
 15 11  1  0
  8  2  1  0
M  END
> <minimizedAffinity>
-3.75849

> <CNNscore>
0.3477071822

> <CNNaffinity>
4.5541801453

> <CNN_VS>
1.5835211277

> <CNNaffinity_variance>
0.1709730476

$$$$



 17 18  0  0  0  0  0  0  0  0999 V2000
   23.4015  -30.5937  -34.6186 C   0  0  0  0  0  0  0  0  0  0  0  0
   24.9011  -30.4764  -34.6857 C   0  0  0  0  0  0  0  0  0  0  0  0
   25.6755  -30.9748  -33.6414 C   0  0  0  0  0  0  0  0  0  0  0  0
   27.0249  -30.9225  -33.5979 N   0  0  0  0  0  0  0  0  0  0  0  0
   27.6425  -30.3400  -34.6405 C   0  0  0  0  0  0  0  0  0  0  0  0
   29.3522  -30.2992  -34.5315 Cl  0  0  0  0  0  0  0  0  0  0  0  0
   26.9888  -29.8080  -35.7297 C   0  0  0  0  0  0  0  0  0  0  0  0
   25.5987  -29.8825  -35.7437 C   0  0  0  0  0  0  0  0  0  0  0  0
   24.7873  -29.2176  -37.1169 Cl  0  0  0  0  0  0  0  0  0  0  0  0
   22.0215  -30.4911  -32.0407 N   0  0  0  0  0  0  0  0  0  0  0  0
   22.2748  -31.6078  -32.6375 C   0  0  0  0  0  0  0  0  0  0  0  0
   21.7861  -33.2095  -32.0673 S   0  0  0  0  0  0  0  0  0  0  0  0
   22.8719  -34.0528  -33.2508 C   0  0  0  0  0  0  0  0  0  0  0  0
   23.0050  -33.0657  -34.4031 C   0  0  0  0  0  0  0  0  0  0  0  0
   22.9743  -31.7301  -33.8185 N   0  0  0  0  0  0  0  0  0  0  0  0
   20.7193  -30.5102  -29.9120 N   0  0  0  0  0  0  0  0  0  0  0  0
   21.3399  -30.4943  -30.8907 C   0  0  0  0  0  0  0  0  0  0  0  0
 16 17  3  0
 17 10  1  0
 10 11  2  0
 11 12  1  0
 12 13  1  0
 13 14  1  0
 14 15  1  0
 15  1  1  0
  1  2  1  0
  2  3  2  0
  3  4  1  0
  4  5  2  0
  5  6  1  0
  5  7  1  0
  7  8  2  0
  8  9  1  0
 15 11  1  0
  8  2  1  0
M  END
> <minimizedAffinity>
-4.71283

> <CNNscore>
0.3468219638

> <CNNaffinity>
5.4584331512

> <CNN_VS>
1.8931045532

> <CNNaffinity_variance>
0.1783944964

$$$$



 17 18  0  0  0  0  0  0  0  0999 V2000
   30.7526  -27.8229  -28.8645 C   0  0  0  0  0  0  0  0  0  0  0  0
   31.3101  -27.7090  -27.4704 C   0  0  0  0  0  0  0  0  0  0  0  0
   31.9929  -26.5545  -27.0969 C   0  0  0  0  0  0  0  0  0  0  0  0
   32.5329  -26.3468  -25.8759 N   0  0  0  0  0  0  0  0  0  0  0  0
   32.3962  -27.3371  -24.9768 C   0  0  0  0  0  0  0  0  0  0  0  0
   33.1016  -27.0213  -23.4473 Cl  0  0  0  0  0  0  0  0  0  0  0  0
   31.7461  -28.5254  -25.2258 C   0  0  0  0  0  0  0  0  0  0  0  0
   31.1982  -28.7044  -26.4930 C   0  0  0  0  0  0  0  0  0  0  0  0
   30.3796  -30.1960  -26.7945 Cl  0  0  0  0  0  0  0  0  0  0  0  0
   30.6427  -26.9541  -31.6562 N   0  0  0  0  0  0  0  0  0  0  0  0
   30.1667  -26.2338  -30.6959 C   0  0  0  0  0  0  0  0  0  0  0  0
   29.3268  -24.6892  -30.8914 S   0  0  0  0  0  0  0  0  0  0  0  0
   29.4265  -24.3168  -29.1188 C   0  0  0  0  0  0  0  0  0  0  0  0
   29.4972  -25.6852  -28.4539 C   0  0  0  0  0  0  0  0  0  0  0  0
   30.2421  -26.5540  -29.3577 N   0  0  0  0  0  0  0  0  0  0  0  0
   30.4240  -26.1434  -34.0062 N   0  0  0  0  0  0  0  0  0  0  0  0
   30.5189  -26.5378  -32.9205 C   0  0  0  0  0  0  0  0  0  0  0  0
 16 17  3  0
 17 10  1  0
 10 11  2  0
 11 12  1  0
 12 13  1  0
 13 14  1  0
 14 15  1  0
 15  1  1  0
  1  2  1  0
  2  3  2  0
  3  4  1  0
  4  5  2  0
  5  6  1  0
  5  7  1  0
  7  8  2  0
  8  9  1  0
 15 11  1  0
  8  2  1  0
M  END
> <minimizedAffinity>
-6.11460

> <CNNscore>
0.3369232416

> <CNNaffinity>
6.7234759331

> <CNN_VS>
2.2652952671

> <CNNaffinity_variance>
0.2773466408

$$$$



 17 18  0  0  0  0  0  0  0  0999 V2000
   25.6123  -31.3980  -36.8282 C   0  0  0  0  0  0  0  0  0  0  0  0
   24.8766  -30.7357  -35.6936 C   0  0  0  0  0  0  0  0  0  0  0  0
   25.1383  -31.1292  -34.3839 C   0  0  0  0  0  0  0  0  0  0  0  0
   24.5376  -30.6042  -33.2934 N   0  0  0  0  0  0  0  0  0  0  0  0
   23.6236  -29.6421  -33.5096 C   0  0  0  0  0  0  0  0  0  0  0  0
   22.8923  -29.0144  -32.0926 Cl  0  0  0  0  0  0  0  0  0  0  0  0
   23.2759  -29.1695  -34.7556 C   0  0  0  0  0  0  0  0  0  0  0  0
   23.9172  -29.7299  -35.8568 C   0  0  0  0  0  0  0  0  0  0  0  0
   23.4788  -29.1268  -37.4157 Cl  0  0  0  0  0  0  0  0  0  0  0  0
   23.6941  -32.2551  -38.8643 N   0  0  0  0  0  0  0  0  0  0  0  0
   24.2856  -33.0967  -38.0838 C   0  0  0  0  0  0  0  0  0  0  0  0
   24.1103  -34.8558  -38.1507 S   0  0  0  0  0  0  0  0  0  0  0  0
   24.9216  -35.0802  -36.5437 C   0  0  0  0  0  0  0  0  0  0  0  0
   25.8327  -33.8666  -36.4136 C   0  0  0  0  0  0  0  0  0  0  0  0
   25.1491  -32.7556  -37.0655 N   0  0  0  0  0  0  0  0  0  0  0  0
   22.1225  -33.0700  -40.6233 N   0  0  0  0  0  0  0  0  0  0  0  0
   22.8672  -32.7017  -39.8152 C   0  0  0  0  0  0  0  0  0  0  0  0
 16 17  3  0
 17 10  1  0
 10 11  2  0
 11 12  1  0
 12 13  1  0
 13 14  1  0
 14 15  1  0
 15  1  1  0
  1  2  1  0
  2  3  2  0
  3  4  1  0
  4  5  2  0
  5  6  1  0
  5  7  1  0
  7  8  2  0
  8  9  1  0
 15 11  1  0
  8  2  1  0
M  END
> <minimizedAffinity>
-4.47696

> <CNNscore>
0.3362450302

> <CNNaffinity>
4.7037730217

> <CNN_VS>
1.5816203356

> <CNNaffinity_variance>
0.1103824601

$$$$
