


 12 11  0  0  0  0  0  0  0  0999 V2000
    2.5108   -9.6866  -14.0940 C   0  0  0  0  0  0  0  0  0  0  0  0
    1.5180  -10.1138  -15.1799 C   0  0  0  0  0  0  0  0  0  0  0  0
    0.8847  -11.4827  -14.9234 C   0  0  0  0  0  0  0  0  0  0  0  0
    0.0958  -11.9653  -16.1427 C   0  0  0  0  0  0  0  0  0  0  0  0
   -1.7061  -10.4218  -16.9924 C   0  0  0  0  0  0  0  0  0  0  0  0
   -1.3763  -11.5650  -16.0460 C   0  0  0  0  0  0  0  0  0  0  0  0
    3.8415  -10.4501  -14.0641 C   0  0  0  0  0  0  0  0  0  0  0  0
    4.3397  -10.7102  -12.6414 C   0  0  0  0  0  0  0  0  0  0  0  0
    5.8604  -10.9476  -12.5509 N   0  0  0  0  0  0  0  0  0  0  0  0
    6.2353  -12.3622  -12.9771 C   0  0  0  0  0  0  0  0  0  0  0  0
    6.6351   -9.9374  -13.3891 C   0  0  0  0  0  0  0  0  0  0  0  0
    6.2712  -10.7674  -11.0850 C   0  0  0  0  0  0  0  0  0  0  0  0
  5  6  1  0
  6  4  1  0
  4  3  1  0
  3  2  1  0
  2  1  1  0
  1  7  1  0
  7  8  1  0
  8  9  1  0
  9 10  1  0
  9 11  1  0
  9 12  1  0
M  CHG 1   9   1
M  END
> <minimizedAffinity>
-2.98315

> <CNNscore>
0.7814844251

> <CNNaffinity>
4.2698745728

> <CNN_VS>
3.3368403912

> <CNNaffinity_variance>
0.0423560739

$$$$



 12 11  0  0  0  0  0  0  0  0999 V2000
    3.4197   -9.5256  -14.2946 C   0  0  0  0  0  0  0  0  0  0  0  0
    2.6168  -10.6664  -14.9277 C   0  0  0  0  0  0  0  0  0  0  0  0
    1.1033  -10.5094  -14.7679 C   0  0  0  0  0  0  0  0  0  0  0  0
    0.3880  -10.6366  -16.1149 C   0  0  0  0  0  0  0  0  0  0  0  0
   -0.5257  -12.7142  -15.0195 C   0  0  0  0  0  0  0  0  0  0  0  0
   -0.7885  -11.6087  -16.0296 C   0  0  0  0  0  0  0  0  0  0  0  0
    3.9040   -9.7629  -12.8580 C   0  0  0  0  0  0  0  0  0  0  0  0
    4.6105  -11.1092  -12.6893 C   0  0  0  0  0  0  0  0  0  0  0  0
    5.3589  -11.2528  -11.3490 N   0  0  0  0  0  0  0  0  0  0  0  0
    6.0005   -9.9386  -10.9193 C   0  0  0  0  0  0  0  0  0  0  0  0
    4.4373  -11.7584  -10.2452 C   0  0  0  0  0  0  0  0  0  0  0  0
    6.4750  -12.2843  -11.5496 C   0  0  0  0  0  0  0  0  0  0  0  0
  5  6  1  0
  6  4  1  0
  4  3  1  0
  3  2  1  0
  2  1  1  0
  1  7  1  0
  7  8  1  0
  8  9  1  0
  9 10  1  0
  9 11  1  0
  9 12  1  0
M  CHG 1   9   1
M  END
> <minimizedAffinity>
-2.99896

> <CNNscore>
0.7349514961

> <CNNaffinity>
4.2858414650

> <CNN_VS>
3.1498856544

> <CNNaffinity_variance>
0.0325093456

$$$$



 12 11  0  0  0  0  0  0  0  0999 V2000
   -2.3821  -10.1423  -18.0802 C   0  0  0  0  0  0  0  0  0  0  0  0
   -1.3944  -10.3440  -16.9265 C   0  0  0  0  0  0  0  0  0  0  0  0
   -1.0824  -11.8142  -16.6402 C   0  0  0  0  0  0  0  0  0  0  0  0
    0.3496  -11.9871  -16.1287 C   0  0  0  0  0  0  0  0  0  0  0  0
    1.1918  -11.2446  -13.8726 C   0  0  0  0  0  0  0  0  0  0  0  0
    0.3724  -12.2784  -14.6284 C   0  0  0  0  0  0  0  0  0  0  0  0
   -3.4919   -9.1102  -17.8402 C   0  0  0  0  0  0  0  0  0  0  0  0
   -2.9438   -7.7309  -17.4698 C   0  0  0  0  0  0  0  0  0  0  0  0
   -4.0026   -6.6110  -17.5131 N   0  0  0  0  0  0  0  0  0  0  0  0
   -4.7291   -6.5752  -18.8525 C   0  0  0  0  0  0  0  0  0  0  0  0
   -5.0161   -6.7556  -16.3838 C   0  0  0  0  0  0  0  0  0  0  0  0
   -3.2722   -5.2755  -17.3316 C   0  0  0  0  0  0  0  0  0  0  0  0
  5  6  1  0
  6  4  1  0
  4  3  1  0
  3  2  1  0
  2  1  1  0
  1  7  1  0
  7  8  1  0
  8  9  1  0
  9 10  1  0
  9 11  1  0
  9 12  1  0
M  CHG 1   9   1
M  END
> <minimizedAffinity>
-3.83240

> <CNNscore>
0.7301480770

> <CNNaffinity>
4.7251582146

> <CNN_VS>
3.4500651360

> <CNNaffinity_variance>
0.7285721898

$$$$



 12 11  0  0  0  0  0  0  0  0999 V2000
    2.7783   -9.0551  -14.2098 C   0  0  0  0  0  0  0  0  0  0  0  0
    1.2993   -9.4172  -14.0409 C   0  0  0  0  0  0  0  0  0  0  0  0
    0.8015  -10.4422  -15.0619 C   0  0  0  0  0  0  0  0  0  0  0  0
    0.7057  -11.8387  -14.4432 C   0  0  0  0  0  0  0  0  0  0  0  0
   -0.9531  -12.0108  -16.3326 C   0  0  0  0  0  0  0  0  0  0  0  0
   -0.4623  -12.6287  -15.0330 C   0  0  0  0  0  0  0  0  0  0  0  0
    3.7128   -9.5077  -13.0801 C   0  0  0  0  0  0  0  0  0  0  0  0
    4.3714  -10.8585  -13.3658 C   0  0  0  0  0  0  0  0  0  0  0  0
    5.9114  -10.8232  -13.3017 N   0  0  0  0  0  0  0  0  0  0  0  0
    6.4072   -9.9212  -12.1774 C   0  0  0  0  0  0  0  0  0  0  0  0
    6.4964  -12.2207  -13.1336 C   0  0  0  0  0  0  0  0  0  0  0  0
    6.4175  -10.2499  -14.6303 C   0  0  0  0  0  0  0  0  0  0  0  0
  5  6  1  0
  6  4  1  0
  4  3  1  0
  3  2  1  0
  2  1  1  0
  1  7  1  0
  7  8  1  0
  8  9  1  0
  9 10  1  0
  9 11  1  0
  9 12  1  0
M  CHG 1   9   1
M  END
> <minimizedAffinity>
-3.13850

> <CNNscore>
0.7153071165

> <CNNaffinity>
4.1199717522

> <CNN_VS>
2.9470450878

> <CNNaffinity_variance>
0.0983834565

$$$$



 12 11  0  0  0  0  0  0  0  0999 V2000
   -6.9814   -6.5178  -17.3956 C   0  0  0  0  0  0  0  0  0  0  0  0
   -7.7041   -7.0531  -18.6359 C   0  0  0  0  0  0  0  0  0  0  0  0
   -8.2093   -8.4884  -18.4759 C   0  0  0  0  0  0  0  0  0  0  0  0
   -9.7255   -8.5222  -18.2708 C   0  0  0  0  0  0  0  0  0  0  0  0
  -11.8877   -9.6113  -18.9704 C   0  0  0  0  0  0  0  0  0  0  0  0
  -10.3724   -9.6376  -19.0916 C   0  0  0  0  0  0  0  0  0  0  0  0
   -6.1257   -5.2619  -17.6078 C   0  0  0  0  0  0  0  0  0  0  0  0
   -4.6875   -5.4391  -17.1177 C   0  0  0  0  0  0  0  0  0  0  0  0
   -3.8969   -4.1187  -17.0257 N   0  0  0  0  0  0  0  0  0  0  0  0
   -4.8141   -2.9055  -17.1267 C   0  0  0  0  0  0  0  0  0  0  0  0
   -3.0846   -4.0416  -15.7382 C   0  0  0  0  0  0  0  0  0  0  0  0
   -2.9225   -4.0786  -18.2085 C   0  0  0  0  0  0  0  0  0  0  0  0
  5  6  1  0
  6  4  1  0
  4  3  1  0
  3  2  1  0
  2  1  1  0
  1  7  1  0
  7  8  1  0
  8  9  1  0
  9 10  1  0
  9 11  1  0
  9 12  1  0
M  CHG 1   9   1
M  END
> <minimizedAffinity>
-4.21521

> <CNNscore>
0.7112722993

> <CNNaffinity>
4.4032964706

> <CNN_VS>
3.1319427490

> <CNNaffinity_variance>
0.5679789186

$$$$



 12 11  0  0  0  0  0  0  0  0999 V2000
   -2.1130   -9.9623  -17.2442 C   0  0  0  0  0  0  0  0  0  0  0  0
   -1.5316  -11.3716  -17.0917 C   0  0  0  0  0  0  0  0  0  0  0  0
   -0.1938  -11.4029  -16.3498 C   0  0  0  0  0  0  0  0  0  0  0  0
   -0.1760  -12.5030  -15.2861 C   0  0  0  0  0  0  0  0  0  0  0  0
    1.1655  -10.6615  -14.2091 C   0  0  0  0  0  0  0  0  0  0  0  0
    0.6011  -12.0637  -14.0454 C   0  0  0  0  0  0  0  0  0  0  0  0
   -1.8682   -9.2784  -18.5958 C   0  0  0  0  0  0  0  0  0  0  0  0
   -0.7194   -8.2695  -18.5461 C   0  0  0  0  0  0  0  0  0  0  0  0
   -1.0365   -6.9341  -19.2484 N   0  0  0  0  0  0  0  0  0  0  0  0
   -0.8228   -5.7451  -18.3190 C   0  0  0  0  0  0  0  0  0  0  0  0
   -0.2021   -6.7543  -20.5112 C   0  0  0  0  0  0  0  0  0  0  0  0
   -2.5150   -6.9627  -19.6526 C   0  0  0  0  0  0  0  0  0  0  0  0
  5  6  1  0
  6  4  1  0
  4  3  1  0
  3  2  1  0
  2  1  1  0
  1  7  1  0
  7  8  1  0
  8  9  1  0
  9 10  1  0
  9 11  1  0
  9 12  1  0
M  CHG 1   9   1
M  END
> <minimizedAffinity>
-3.61312

> <CNNscore>
0.7111999393

> <CNNaffinity>
4.8016343117

> <CNN_VS>
3.4149219990

> <CNNaffinity_variance>
0.5729541779

$$$$



 12 11  0  0  0  0  0  0  0  0999 V2000
   -2.7678   -7.0897  -17.8480 C   0  0  0  0  0  0  0  0  0  0  0  0
   -3.5002   -6.5613  -19.0855 C   0  0  0  0  0  0  0  0  0  0  0  0
   -5.0241   -6.6375  -18.9717 C   0  0  0  0  0  0  0  0  0  0  0  0
   -5.4909   -6.3036  -17.5530 C   0  0  0  0  0  0  0  0  0  0  0  0
   -7.8006   -6.7018  -18.4791 C   0  0  0  0  0  0  0  0  0  0  0  0
   -6.9532   -5.8589  -17.5395 C   0  0  0  0  0  0  0  0  0  0  0  0
   -1.6191   -6.2171  -17.3249 C   0  0  0  0  0  0  0  0  0  0  0  0
   -0.9378   -5.4131  -18.4337 C   0  0  0  0  0  0  0  0  0  0  0  0
    0.5970   -5.5585  -18.4512 N   0  0  0  0  0  0  0  0  0  0  0  0
    1.2131   -4.8746  -19.6661 C   0  0  0  0  0  0  0  0  0  0  0  0
    1.2258   -5.0053  -17.1777 C   0  0  0  0  0  0  0  0  0  0  0  0
    0.9198   -7.0549  -18.5325 C   0  0  0  0  0  0  0  0  0  0  0  0
  5  6  1  0
  6  4  1  0
  4  3  1  0
  3  2  1  0
  2  1  1  0
  1  7  1  0
  7  8  1  0
  8  9  1  0
  9 10  1  0
  9 11  1  0
  9 12  1  0
M  CHG 1   9   1
M  END
> <minimizedAffinity>
-3.20836

> <CNNscore>
0.6991923451

> <CNNaffinity>
4.2368168831

> <CNN_VS>
2.9623498917

> <CNNaffinity_variance>
0.1006763354

$$$$



 12 11  0  0  0  0  0  0  0  0999 V2000
   -1.3595   -8.9221  -18.4516 C   0  0  0  0  0  0  0  0  0  0  0  0
   -2.8618   -8.6231  -18.4198 C   0  0  0  0  0  0  0  0  0  0  0  0
   -3.2356   -7.3025  -19.0960 C   0  0  0  0  0  0  0  0  0  0  0  0
   -4.0595   -6.4150  -18.1603 C   0  0  0  0  0  0  0  0  0  0  0  0
   -6.3655   -5.5664  -17.6005 C   0  0  0  0  0  0  0  0  0  0  0  0
   -5.5454   -6.4614  -18.5159 C   0  0  0  0  0  0  0  0  0  0  0  0
   -0.8412   -9.8700  -17.3619 C   0  0  0  0  0  0  0  0  0  0  0  0
    0.2819   -9.2511  -16.5280 C   0  0  0  0  0  0  0  0  0  0  0  0
    1.1950  -10.2912  -15.8486 N   0  0  0  0  0  0  0  0  0  0  0  0
    0.6741  -11.7102  -16.0445 C   0  0  0  0  0  0  0  0  0  0  0  0
    2.6279  -10.1960  -16.3594 C   0  0  0  0  0  0  0  0  0  0  0  0
    1.2024   -9.9899  -14.3456 C   0  0  0  0  0  0  0  0  0  0  0  0
  5  6  1  0
  6  4  1  0
  4  3  1  0
  3  2  1  0
  2  1  1  0
  1  7  1  0
  7  8  1  0
  8  9  1  0
  9 10  1  0
  9 11  1  0
  9 12  1  0
M  CHG 1   9   1
M  END
> <minimizedAffinity>
-3.75529

> <CNNscore>
0.6961796284

> <CNNaffinity>
4.8116898537

> <CNN_VS>
3.3498003483

> <CNNaffinity_variance>
0.1807654053

$$$$



 12 11  0  0  0  0  0  0  0  0999 V2000
   -9.6848   -7.5726  -17.4677 C   0  0  0  0  0  0  0  0  0  0  0  0
   -9.8700   -8.7290  -18.4554 C   0  0  0  0  0  0  0  0  0  0  0  0
  -11.3310   -9.1420  -18.6446 C   0  0  0  0  0  0  0  0  0  0  0  0
  -11.4455  -10.3799  -19.5371 C   0  0  0  0  0  0  0  0  0  0  0  0
  -12.8564  -12.4043  -20.0488 C   0  0  0  0  0  0  0  0  0  0  0  0
  -12.8312  -11.0160  -19.4295 C   0  0  0  0  0  0  0  0  0  0  0  0
   -8.4792   -6.6585  -17.7237 C   0  0  0  0  0  0  0  0  0  0  0  0
   -7.1592   -7.4286  -17.7896 C   0  0  0  0  0  0  0  0  0  0  0  0
   -5.9131   -6.5400  -17.6032 N   0  0  0  0  0  0  0  0  0  0  0  0
   -6.2888   -5.0725  -17.4343 C   0  0  0  0  0  0  0  0  0  0  0  0
   -5.0746   -6.9948  -16.4143 C   0  0  0  0  0  0  0  0  0  0  0  0
   -5.0578   -6.6699  -18.8687 C   0  0  0  0  0  0  0  0  0  0  0  0
  5  6  1  0
  6  4  1  0
  4  3  1  0
  3  2  1  0
  2  1  1  0
  1  7  1  0
  7  8  1  0
  8  9  1  0
  9 10  1  0
  9 11  1  0
  9 12  1  0
M  CHG 1   9   1
M  END
> <minimizedAffinity>
-5.19609

> <CNNscore>
0.6946749687

> <CNNaffinity>
4.3562445641

> <CNN_VS>
3.0261740685

> <CNNaffinity_variance>
1.0344076157

$$$$
