


 56 58  0  0  0  0  0  0  0  0999 V2000
    7.6313   24.5938    3.9908 C   0  0  0  0  0  0  0  0  0  0  0  0
    8.0195   26.8807    4.8271 N   0  0  0  0  0  0  0  0  0  0  0  0
    8.6034   25.6722    4.5207 C   0  0  0  0  0  0  0  0  0  0  0  0
    9.8190   25.4927    4.5769 O   0  0  0  0  0  0  0  0  0  0  0  0
    7.0773   27.0303    4.5838 H   0  0  0  0  0  0  0  0  0  0  0  0
    8.7535   27.9476    5.5014 C   0  0  0  0  0  0  0  0  0  0  0  0
    7.8709   28.3650    6.6940 C   0  0  0  0  0  0  0  0  0  0  0  0
    8.4656   29.1171    7.6650 N   0  0  0  0  0  0  0  0  0  0  0  0
    6.6814   28.0549    6.7889 O   0  0  0  0  0  0  0  0  0  0  0  0
    9.4158   29.3623    7.5850 H   0  0  0  0  0  0  0  0  0  0  0  0
    7.9446   29.4146    8.4455 H   0  0  0  0  0  0  0  0  0  0  0  0
    9.0312   29.1062    4.5350 C   0  0  0  0  0  0  0  0  0  0  0  0
    7.7576   29.7533    3.9727 C   0  0  0  0  0  0  0  0  0  0  0  0
    7.7201   31.2594    4.2821 C   0  0  0  0  0  0  0  0  0  0  0  0
    7.9651   32.2432    3.0811 C   0  0  0  0  0  0  0  0  0  0  0  0
    9.3952   32.7911    3.1494 C   0  0  0  0  0  0  0  0  0  0  0  0
    6.9777   33.4251    3.2048 C   0  0  0  0  0  0  0  0  0  0  0  0
    7.6614   31.4063    1.7828 C   0  0  0  0  0  0  0  0  0  0  0  0
    8.2168   31.7317    0.3606 C   0  0  0  0  0  0  0  0  0  0  0  0
    8.2115   33.2500    0.0617 C   0  0  0  0  0  0  0  0  0  0  0  0
    7.2149   31.1319   -0.6642 C   0  0  0  0  0  0  0  0  0  0  0  0
    9.6658   31.2094    0.0544 C   0  0  0  0  0  0  0  0  0  0  0  0
    9.5284   28.9726   -1.0587 C   0  0  0  0  0  0  0  0  0  0  0  0
   10.0798   30.4119   -1.2306 C   0  0  0  0  0  0  0  0  0  0  0  0
   11.5918   30.2978   -1.4619 C   0  0  0  0  0  0  0  0  0  0  0  0
    9.4319   30.9777   -2.5051 C   0  0  0  0  0  0  0  0  0  0  0  0
    6.3798   24.5471    4.7599 N   0  0  0  0  0  0  0  0  0  0  0  0
    5.9061   23.3662    5.2930 C   0  0  0  0  0  0  0  0  0  0  0  0
    6.5107   22.3046    5.2015 O   0  0  0  0  0  0  0  0  0  0  0  0
    5.8682   25.3769    4.8977 H   0  0  0  0  0  0  0  0  0  0  0  0
    4.5618   23.5240    5.9726 C   0  0  0  0  0  0  0  0  0  0  0  0
    4.0779   22.2043    6.5682 C   0  0  0  0  0  0  0  0  0  0  0  0
    2.6037   22.2423    6.8818 C   0  0  0  0  0  0  0  0  0  0  0  0
    1.7740   23.1823    6.2584 C   0  0  0  0  0  0  0  0  0  0  0  0
    0.4085   23.2316    6.5535 C   0  0  0  0  0  0  0  0  0  0  0  0
   -0.1595   22.3489    7.4832 C   0  0  0  0  0  0  0  0  0  0  0  0
    0.6788   21.4139    8.1083 C   0  0  0  0  0  0  0  0  0  0  0  0
    2.0457   21.3611    7.8132 C   0  0  0  0  0  0  0  0  0  0  0  0
   -1.6014   22.4068    7.7615 C   0  0  0  0  0  0  0  0  0  0  0  0
   -2.4001   21.4422    8.3516 C   0  0  0  0  0  0  0  0  0  0  0  0
   -3.7787   21.8200    8.4450 C   0  0  0  0  0  0  0  0  0  0  0  0
   -3.9772   23.0763    7.9056 C   0  0  0  0  0  0  0  0  0  0  0  0
   -2.5340   23.7760    7.3142 S   0  0  0  0  0  0  0  0  0  0  0  0
   -4.8728   21.0273    9.0001 C   0  0  0  0  0  0  0  0  0  0  0  0
   -6.0752   21.6476    9.3684 C   0  0  0  0  0  0  0  0  0  0  0  0
   -7.1311   20.8975    9.8937 C   0  0  0  0  0  0  0  0  0  0  0  0
   -6.9970   19.5198   10.0520 C   0  0  0  0  0  0  0  0  0  0  0  0
   -5.8091   18.8910    9.6849 C   0  0  0  0  0  0  0  0  0  0  0  0
   -4.7519   19.6402    9.1613 C   0  0  0  0  0  0  0  0  0  0  0  0
    7.3407   24.8407    2.5063 C   0  0  0  0  0  0  0  0  0  0  0  0
    8.6183   25.1353    1.7174 C   0  0  0  0  0  0  0  0  0  0  0  0
    8.4844   24.7696    0.2562 C   0  0  0  0  0  0  0  0  0  0  0  0
    8.0765   23.4855    0.0388 N   0  0  0  0  0  0  0  0  0  0  0  0
    8.7014   25.5297   -0.6780 O   0  0  0  0  0  0  0  0  0  0  0  0
    7.9064   22.8872    0.8019 H   0  0  0  0  0  0  0  0  0  0  0  0
    7.9524   23.1575   -0.8811 H   0  0  0  0  0  0  0  0  0  0  0  0
 23 24  1  0
 24 25  1  0
 24 26  1  0
 24 22  1  0
 22 19  1  0
 19 20  1  0
 19 21  1  0
 19 18  1  0
 18 15  1  0
 15 16  1  0
 15 17  1  0
 15 14  1  0
 14 13  1  0
 13 12  1  0
  6 12  1  0
  6  2  1  0
  2  3  1  0
  3  4  2  0
  3  1  1  0
  1 50  1  0
 50 51  1  0
 51 52  1  0
 52 53  1  0
 52 54  2  0
  1 27  1  0
 27 28  1  0
 28 29  2  0
 28 31  1  0
 31 32  1  0
 32 33  1  0
 33 34  2  0
 34 35  1  0
 35 36  2  0
 36 39  1  0
 39 40  2  0
 40 41  1  0
 41 44  1  0
 44 45  2  0
 45 46  1  0
 46 47  2  0
 47 48  1  0
 48 49  2  0
 41 42  2  0
 42 43  1  0
 36 37  1  0
 37 38  2  0
  6  7  1  0
  7  8  1  0
  7  9  2  0
 38 33  1  0
 43 39  1  0
 49 44  1  0
  2  5  1  0
 53 55  1  0
 53 56  1  0
 27 30  1  0
  8 10  1  0
  8 11  1  0
M  END
> <minimizedAffinity>
-9.03179

> <CNNscore>
0.7494891882

> <CNNaffinity>
8.2150669098

> <CNN_VS>
6.1571040154

> <CNNaffinity_variance>
0.6737868786

$$$$



 56 58  0  0  0  0  0  0  0  0999 V2000
    8.0355   24.4760    4.1074 C   0  0  0  0  0  0  0  0  0  0  0  0
    8.1273   26.7504    5.0553 N   0  0  0  0  0  0  0  0  0  0  0  0
    8.8585   25.7230    4.5028 C   0  0  0  0  0  0  0  0  0  0  0  0
   10.0596   25.8245    4.2576 O   0  0  0  0  0  0  0  0  0  0  0  0
    7.1446   26.6911    5.0531 H   0  0  0  0  0  0  0  0  0  0  0  0
    8.7633   27.9251    5.6444 C   0  0  0  0  0  0  0  0  0  0  0  0
    7.8850   28.3075    6.8517 C   0  0  0  0  0  0  0  0  0  0  0  0
    8.4952   28.9893    7.8642 N   0  0  0  0  0  0  0  0  0  0  0  0
    6.6857   28.0303    6.9232 O   0  0  0  0  0  0  0  0  0  0  0  0
    9.4530   29.2085    7.8028 H   0  0  0  0  0  0  0  0  0  0  0  0
    7.9776   29.2620    8.6560 H   0  0  0  0  0  0  0  0  0  0  0  0
    8.8751   29.0537    4.6112 C   0  0  0  0  0  0  0  0  0  0  0  0
    7.5700   29.8388    4.4182 C   0  0  0  0  0  0  0  0  0  0  0  0
    7.8557   31.2980    4.0252 C   0  0  0  0  0  0  0  0  0  0  0  0
    7.7699   31.6577    2.4976 C   0  0  0  0  0  0  0  0  0  0  0  0
    7.2107   33.0756    2.3344 C   0  0  0  0  0  0  0  0  0  0  0  0
    6.8043   30.6649    1.8126 C   0  0  0  0  0  0  0  0  0  0  0  0
    9.2309   31.4775    1.9399 C   0  0  0  0  0  0  0  0  0  0  0  0
    9.8559   32.3210    0.7846 C   0  0  0  0  0  0  0  0  0  0  0  0
    8.7827   33.0637   -0.0467 C   0  0  0  0  0  0  0  0  0  0  0  0
   10.4932   31.3166   -0.2149 C   0  0  0  0  0  0  0  0  0  0  0  0
   10.9226   33.3898    1.2157 C   0  0  0  0  0  0  0  0  0  0  0  0
   10.2787   34.3360    3.4409 C   0  0  0  0  0  0  0  0  0  0  0  0
   11.4247   33.6157    2.6839 C   0  0  0  0  0  0  0  0  0  0  0  0
   12.6780   34.4908    2.8116 C   0  0  0  0  0  0  0  0  0  0  0  0
   11.6745   32.2931    3.4274 C   0  0  0  0  0  0  0  0  0  0  0  0
    6.7125   24.4571    4.7471 N   0  0  0  0  0  0  0  0  0  0  0  0
    6.1654   23.2885    5.2351 C   0  0  0  0  0  0  0  0  0  0  0  0
    6.7559   22.2154    5.2095 O   0  0  0  0  0  0  0  0  0  0  0  0
    6.2055   25.2970    4.8292 H   0  0  0  0  0  0  0  0  0  0  0  0
    4.7629   23.4752    5.7755 C   0  0  0  0  0  0  0  0  0  0  0  0
    4.2796   22.2321    6.5182 C   0  0  0  0  0  0  0  0  0  0  0  0
    2.8047   22.3036    6.8225 C   0  0  0  0  0  0  0  0  0  0  0  0
    1.9830   23.1971    6.1246 C   0  0  0  0  0  0  0  0  0  0  0  0
    0.6169   23.2778    6.4099 C   0  0  0  0  0  0  0  0  0  0  0  0
    0.0404   22.4738    7.4035 C   0  0  0  0  0  0  0  0  0  0  0  0
    0.8706   21.5853    8.1028 C   0  0  0  0  0  0  0  0  0  0  0  0
    2.2380   21.5012    7.8177 C   0  0  0  0  0  0  0  0  0  0  0  0
   -1.4021   22.5621    7.6712 C   0  0  0  0  0  0  0  0  0  0  0  0
   -2.2304   21.6046    8.2311 C   0  0  0  0  0  0  0  0  0  0  0  0
   -3.5997   22.0154    8.3222 C   0  0  0  0  0  0  0  0  0  0  0  0
   -3.7612   23.2890    7.8117 C   0  0  0  0  0  0  0  0  0  0  0  0
   -2.2953   23.9653    7.2495 S   0  0  0  0  0  0  0  0  0  0  0  0
   -4.7186   21.2380    8.8487 C   0  0  0  0  0  0  0  0  0  0  0  0
   -5.9139   21.8780    9.2063 C   0  0  0  0  0  0  0  0  0  0  0  0
   -6.9933   21.1429    9.7043 C   0  0  0  0  0  0  0  0  0  0  0  0
   -6.8899   19.7607    9.8458 C   0  0  0  0  0  0  0  0  0  0  0  0
   -5.7093   19.1125    9.4892 C   0  0  0  0  0  0  0  0  0  0  0  0
   -4.6286   19.8467    8.9928 C   0  0  0  0  0  0  0  0  0  0  0  0
    7.8961   24.4074    2.5827 C   0  0  0  0  0  0  0  0  0  0  0  0
    7.7719   25.7993    1.9592 C   0  0  0  0  0  0  0  0  0  0  0  0
    8.7613   26.0122    0.8357 C   0  0  0  0  0  0  0  0  0  0  0  0
   10.0679   25.9431    1.2240 N   0  0  0  0  0  0  0  0  0  0  0  0
    8.4601   26.2193   -0.3321 O   0  0  0  0  0  0  0  0  0  0  0  0
   10.2927   25.7758    2.1678 H   0  0  0  0  0  0  0  0  0  0  0  0
   10.7855   26.0606    0.5604 H   0  0  0  0  0  0  0  0  0  0  0  0
 23 24  1  0
 24 25  1  0
 24 26  1  0
 24 22  1  0
 22 19  1  0
 19 20  1  0
 19 21  1  0
 19 18  1  0
 18 15  1  0
 15 16  1  0
 15 17  1  0
 15 14  1  0
 14 13  1  0
 13 12  1  0
  6 12  1  0
  6  2  1  0
  2  3  1  0
  3  4  2  0
  3  1  1  0
  1 50  1  0
 50 51  1  0
 51 52  1  0
 52 53  1  0
 52 54  2  0
  1 27  1  0
 27 28  1  0
 28 29  2  0
 28 31  1  0
 31 32  1  0
 32 33  1  0
 33 34  2  0
 34 35  1  0
 35 36  2  0
 36 39  1  0
 39 40  2  0
 40 41  1  0
 41 44  1  0
 44 45  2  0
 45 46  1  0
 46 47  2  0
 47 48  1  0
 48 49  2  0
 41 42  2  0
 42 43  1  0
 36 37  1  0
 37 38  2  0
  6  7  1  0
  7  8  1  0
  7  9  2  0
 38 33  1  0
 43 39  1  0
 49 44  1  0
  2  5  1  0
 53 55  1  0
 53 56  1  0
 27 30  1  0
  8 10  1  0
  8 11  1  0
M  END
> <minimizedAffinity>
-8.81602

> <CNNscore>
0.7489926815

> <CNNaffinity>
8.1103324890

> <CNN_VS>
6.0745797157

> <CNNaffinity_variance>
0.8722069860

$$$$



 56 58  0  0  0  0  0  0  0  0999 V2000
    7.9555   24.7656    4.8679 C   0  0  0  0  0  0  0  0  0  0  0  0
    7.5179   27.1497    5.3199 N   0  0  0  0  0  0  0  0  0  0  0  0
    8.4776   26.2135    5.0070 C   0  0  0  0  0  0  0  0  0  0  0  0
    9.6446   26.5189    4.7660 O   0  0  0  0  0  0  0  0  0  0  0  0
    6.5706   26.8817    5.3138 H   0  0  0  0  0  0  0  0  0  0  0  0
    7.8607   28.5275    5.6604 C   0  0  0  0  0  0  0  0  0  0  0  0
    7.5144   28.6811    7.1543 C   0  0  0  0  0  0  0  0  0  0  0  0
    8.5452   28.9825    7.9962 N   0  0  0  0  0  0  0  0  0  0  0  0
    6.3700   28.5508    7.5943 O   0  0  0  0  0  0  0  0  0  0  0  0
    9.4573   29.0856    7.6404 H   0  0  0  0  0  0  0  0  0  0  0  0
    8.3767   29.0967    8.9595 H   0  0  0  0  0  0  0  0  0  0  0  0
    7.0916   29.5112    4.7691 C   0  0  0  0  0  0  0  0  0  0  0  0
    7.4915   30.9772    4.9880 C   0  0  0  0  0  0  0  0  0  0  0  0
    6.9640   31.8695    3.8517 C   0  0  0  0  0  0  0  0  0  0  0  0
    6.7915   33.4000    4.1648 C   0  0  0  0  0  0  0  0  0  0  0  0
    7.7116   34.2181    3.2515 C   0  0  0  0  0  0  0  0  0  0  0  0
    7.2039   33.6507    5.6325 C   0  0  0  0  0  0  0  0  0  0  0  0
    5.2592   33.7004    3.9650 C   0  0  0  0  0  0  0  0  0  0  0  0
    4.5029   33.6146    2.6021 C   0  0  0  0  0  0  0  0  0  0  0  0
    4.6755   32.2360    1.9209 C   0  0  0  0  0  0  0  0  0  0  0  0
    5.1976   34.6135    1.6359 C   0  0  0  0  0  0  0  0  0  0  0  0
    2.9616   33.9108    2.6535 C   0  0  0  0  0  0  0  0  0  0  0  0
    1.6129   31.8078    2.5129 C   0  0  0  0  0  0  0  0  0  0  0  0
    1.8749   33.1630    1.8058 C   0  0  0  0  0  0  0  0  0  0  0  0
    2.2824   32.8532    0.3600 C   0  0  0  0  0  0  0  0  0  0  0  0
    0.5314   33.9107    1.7853 C   0  0  0  0  0  0  0  0  0  0  0  0
    6.5475   24.6411    5.2703 N   0  0  0  0  0  0  0  0  0  0  0  0
    5.9805   23.4119    5.5357 C   0  0  0  0  0  0  0  0  0  0  0  0
    6.6147   22.3643    5.4990 O   0  0  0  0  0  0  0  0  0  0  0  0
    5.9967   25.4530    5.3523 H   0  0  0  0  0  0  0  0  0  0  0  0
    4.5013   23.5004    5.8487 C   0  0  0  0  0  0  0  0  0  0  0  0
    4.0141   22.2656    6.6026 C   0  0  0  0  0  0  0  0  0  0  0  0
    2.5371   22.3392    6.8961 C   0  0  0  0  0  0  0  0  0  0  0  0
    1.9747   21.5308    7.8915 C   0  0  0  0  0  0  0  0  0  0  0  0
    0.6040   21.5846    8.1607 C   0  0  0  0  0  0  0  0  0  0  0  0
   -0.2385   22.4411    7.4377 C   0  0  0  0  0  0  0  0  0  0  0  0
    0.3308   23.2436    6.4380 C   0  0  0  0  0  0  0  0  0  0  0  0
    1.7029   23.1931    6.1679 C   0  0  0  0  0  0  0  0  0  0  0  0
   -1.6730   22.4948    7.7530 C   0  0  0  0  0  0  0  0  0  0  0  0
   -2.4845   21.4797    8.2301 C   0  0  0  0  0  0  0  0  0  0  0  0
   -3.8512   21.8731    8.4022 C   0  0  0  0  0  0  0  0  0  0  0  0
   -4.0280   23.1933    8.0354 C   0  0  0  0  0  0  0  0  0  0  0  0
   -2.5789   23.9314    7.5084 S   0  0  0  0  0  0  0  0  0  0  0  0
   -4.9543   21.0396    8.8734 C   0  0  0  0  0  0  0  0  0  0  0  0
   -6.2570   21.5561    8.9192 C   0  0  0  0  0  0  0  0  0  0  0  0
   -7.3210   20.7650    9.3614 C   0  0  0  0  0  0  0  0  0  0  0  0
   -7.0938   19.4489    9.7583 C   0  0  0  0  0  0  0  0  0  0  0  0
   -5.8046   18.9225    9.7125 C   0  0  0  0  0  0  0  0  0  0  0  0
   -4.7396   19.7132    9.2722 C   0  0  0  0  0  0  0  0  0  0  0  0
    8.1473   24.2802    3.4269 C   0  0  0  0  0  0  0  0  0  0  0  0
    7.5408   25.2527    2.4131 C   0  0  0  0  0  0  0  0  0  0  0  0
    8.0183   24.9805    1.0043 C   0  0  0  0  0  0  0  0  0  0  0  0
    8.3163   26.1049    0.2905 N   0  0  0  0  0  0  0  0  0  0  0  0
    8.1506   23.8675    0.5131 O   0  0  0  0  0  0  0  0  0  0  0  0
    8.2041   26.9927    0.7010 H   0  0  0  0  0  0  0  0  0  0  0  0
    8.6435   26.0282   -0.6348 H   0  0  0  0  0  0  0  0  0  0  0  0
 23 24  1  0
 24 25  1  0
 24 26  1  0
 24 22  1  0
 22 19  1  0
 19 20  1  0
 19 21  1  0
 19 18  1  0
 18 15  1  0
 15 16  1  0
 15 17  1  0
 15 14  1  0
 14 13  1  0
 13 12  1  0
  6 12  1  0
  6  2  1  0
  2  3  1  0
  3  4  2  0
  3  1  1  0
  1 50  1  0
 50 51  1  0
 51 52  1  0
 52 53  1  0
 52 54  2  0
  1 27  1  0
 27 28  1  0
 28 29  2  0
 28 31  1  0
 31 32  1  0
 32 33  1  0
 33 34  2  0
 34 35  1  0
 35 36  2  0
 36 39  1  0
 39 40  2  0
 40 41  1  0
 41 44  1  0
 44 45  2  0
 45 46  1  0
 46 47  2  0
 47 48  1  0
 48 49  2  0
 41 42  2  0
 42 43  1  0
 36 37  1  0
 37 38  2  0
  6  7  1  0
  7  8  1  0
  7  9  2  0
 38 33  1  0
 43 39  1  0
 49 44  1  0
  2  5  1  0
 53 55  1  0
 53 56  1  0
 27 30  1  0
  8 10  1  0
  8 11  1  0
M  END
> <minimizedAffinity>
-9.25217

> <CNNscore>
0.7211645842

> <CNNaffinity>
8.0430269241

> <CNN_VS>
5.8003463745

> <CNNaffinity_variance>
0.7972282767

$$$$



 56 58  0  0  0  0  0  0  0  0999 V2000
    8.2205   29.0943    5.1915 C   0  0  0  0  0  0  0  0  0  0  0  0
    8.6120   29.7599    7.5332 N   0  0  0  0  0  0  0  0  0  0  0  0
    7.6998   29.2469    6.6387 C   0  0  0  0  0  0  0  0  0  0  0  0
    6.5861   28.8541    6.9829 O   0  0  0  0  0  0  0  0  0  0  0  0
    9.5463   29.8784    7.2463 H   0  0  0  0  0  0  0  0  0  0  0  0
    8.2374   30.1335    8.8940 C   0  0  0  0  0  0  0  0  0  0  0  0
    8.7884   31.5586    9.0965 C   0  0  0  0  0  0  0  0  0  0  0  0
    8.4970   32.1673   10.2826 N   0  0  0  0  0  0  0  0  0  0  0  0
    9.4676   32.1418    8.2487 O   0  0  0  0  0  0  0  0  0  0  0  0
    7.9543   31.6978   10.9566 H   0  0  0  0  0  0  0  0  0  0  0  0
    8.8296   33.0759   10.4644 H   0  0  0  0  0  0  0  0  0  0  0  0
    8.8050   29.1291    9.9053 C   0  0  0  0  0  0  0  0  0  0  0  0
    7.7309   28.4687   10.7812 C   0  0  0  0  0  0  0  0  0  0  0  0
    8.3018   27.2561   11.5356 C   0  0  0  0  0  0  0  0  0  0  0  0
    8.6967   27.4712   13.0416 C   0  0  0  0  0  0  0  0  0  0  0  0
   10.2196   27.6000   13.1600 C   0  0  0  0  0  0  0  0  0  0  0  0
    8.2420   26.2354   13.8500 C   0  0  0  0  0  0  0  0  0  0  0  0
    7.9078   28.7522   13.5049 C   0  0  0  0  0  0  0  0  0  0  0  0
    6.7594   28.7597   14.5623 C   0  0  0  0  0  0  0  0  0  0  0  0
    6.1087   30.1556   14.7121 C   0  0  0  0  0  0  0  0  0  0  0  0
    7.4154   28.4880   15.9442 C   0  0  0  0  0  0  0  0  0  0  0  0
    5.5949   27.7351   14.3169 C   0  0  0  0  0  0  0  0  0  0  0  0
    5.3126   25.9394   16.0365 C   0  0  0  0  0  0  0  0  0  0  0  0
    4.6294   27.1907   15.4261 C   0  0  0  0  0  0  0  0  0  0  0  0
    3.2463   26.7575   14.9241 C   0  0  0  0  0  0  0  0  0  0  0  0
    4.4397   28.1899   16.5793 C   0  0  0  0  0  0  0  0  0  0  0  0
    7.6731   27.9036    4.5263 N   0  0  0  0  0  0  0  0  0  0  0  0
    8.3754   26.7170    4.4818 C   0  0  0  0  0  0  0  0  0  0  0  0
    9.4633   26.5665    5.0247 O   0  0  0  0  0  0  0  0  0  0  0  0
    6.7857   27.9538    4.1030 H   0  0  0  0  0  0  0  0  0  0  0  0
    7.6707   25.6451    3.6766 C   0  0  0  0  0  0  0  0  0  0  0  0
    7.8136   24.2717    4.3278 C   0  0  0  0  0  0  0  0  0  0  0  0
    6.5309   23.8317    4.9865 C   0  0  0  0  0  0  0  0  0  0  0  0
    6.5418   22.7997    5.9328 C   0  0  0  0  0  0  0  0  0  0  0  0
    5.3546   22.3779    6.5385 C   0  0  0  0  0  0  0  0  0  0  0  0
    4.1278   22.9714    6.2086 C   0  0  0  0  0  0  0  0  0  0  0  0
    4.1236   24.0005    5.2554 C   0  0  0  0  0  0  0  0  0  0  0  0
    5.3109   24.4259    4.6491 C   0  0  0  0  0  0  0  0  0  0  0  0
    2.8959   22.5246    6.8740 C   0  0  0  0  0  0  0  0  0  0  0  0
    1.5955   22.9354    6.6360 C   0  0  0  0  0  0  0  0  0  0  0  0
    0.6323   22.3101    7.4924 C   0  0  0  0  0  0  0  0  0  0  0  0
    1.2516   21.4389    8.3677 C   0  0  0  0  0  0  0  0  0  0  0  0
    2.9459   21.3769    8.1487 S   0  0  0  0  0  0  0  0  0  0  0  0
   -0.8110   22.5341    7.5048 C   0  0  0  0  0  0  0  0  0  0  0  0
   -1.3217   23.8379    7.4332 C   0  0  0  0  0  0  0  0  0  0  0  0
   -2.7011   24.0631    7.4370 C   0  0  0  0  0  0  0  0  0  0  0  0
   -3.5833   22.9871    7.5082 C   0  0  0  0  0  0  0  0  0  0  0  0
   -3.0883   21.6864    7.5746 C   0  0  0  0  0  0  0  0  0  0  0  0
   -1.7091   21.4601    7.5727 C   0  0  0  0  0  0  0  0  0  0  0  0
    7.8947   30.3570    4.3863 C   0  0  0  0  0  0  0  0  0  0  0  0
    6.6924   30.1491    3.4629 C   0  0  0  0  0  0  0  0  0  0  0  0
    7.0572   30.3135    2.0046 C   0  0  0  0  0  0  0  0  0  0  0  0
    7.0147   29.1541    1.2860 N   0  0  0  0  0  0  0  0  0  0  0  0
    7.3583   31.3743    1.4740 O   0  0  0  0  0  0  0  0  0  0  0  0
    6.7705   28.3093    1.7286 H   0  0  0  0  0  0  0  0  0  0  0  0
    7.2283   29.1625    0.3249 H   0  0  0  0  0  0  0  0  0  0  0  0
 23 24  1  0
 24 25  1  0
 24 26  1  0
 24 22  1  0
 22 19  1  0
 19 20  1  0
 19 21  1  0
 19 18  1  0
 18 15  1  0
 15 16  1  0
 15 17  1  0
 15 14  1  0
 14 13  1  0
 13 12  1  0
  6 12  1  0
  6  2  1  0
  2  3  1  0
  3  4  2  0
  3  1  1  0
  1 50  1  0
 50 51  1  0
 51 52  1  0
 52 53  1  0
 52 54  2  0
  1 27  1  0
 27 28  1  0
 28 29  2  0
 28 31  1  0
 31 32  1  0
 32 33  1  0
 33 34  2  0
 34 35  1  0
 35 36  2  0
 36 39  1  0
 39 40  2  0
 40 41  1  0
 41 44  1  0
 44 45  2  0
 45 46  1  0
 46 47  2  0
 47 48  1  0
 48 49  2  0
 41 42  2  0
 42 43  1  0
 36 37  1  0
 37 38  2  0
  6  7  1  0
  7  8  1  0
  7  9  2  0
 38 33  1  0
 43 39  1  0
 49 44  1  0
  2  5  1  0
 53 55  1  0
 53 56  1  0
 27 30  1  0
  8 10  1  0
  8 11  1  0
M  END
> <minimizedAffinity>
-9.12786

> <CNNscore>
0.7209816575

> <CNNaffinity>
8.4533309937

> <CNN_VS>
6.0946965218

> <CNNaffinity_variance>
1.2039914131

$$$$



 56 58  0  0  0  0  0  0  0  0999 V2000
    7.8317   26.2337    3.9947 C   0  0  0  0  0  0  0  0  0  0  0  0
    7.8436   25.9554    1.5447 N   0  0  0  0  0  0  0  0  0  0  0  0
    8.6188   26.1351    2.6683 C   0  0  0  0  0  0  0  0  0  0  0  0
    9.8483   26.1258    2.6310 O   0  0  0  0  0  0  0  0  0  0  0  0
    6.8811   25.7792    1.6528 H   0  0  0  0  0  0  0  0  0  0  0  0
    8.4042   26.0179    0.1981 C   0  0  0  0  0  0  0  0  0  0  0  0
    8.7100   24.5578   -0.1892 C   0  0  0  0  0  0  0  0  0  0  0  0
    9.2536   23.7659    0.7802 N   0  0  0  0  0  0  0  0  0  0  0  0
    8.4789   24.0987   -1.3098 O   0  0  0  0  0  0  0  0  0  0  0  0
    9.4364   24.1368    1.6737 H   0  0  0  0  0  0  0  0  0  0  0  0
    9.4629   22.8237    0.5861 H   0  0  0  0  0  0  0  0  0  0  0  0
    9.6508   26.9116    0.1731 C   0  0  0  0  0  0  0  0  0  0  0  0
    9.6766   27.8941   -1.0063 C   0  0  0  0  0  0  0  0  0  0  0  0
   10.6604   27.4279   -2.0926 C   0  0  0  0  0  0  0  0  0  0  0  0
   10.1807   27.5332   -3.5856 C   0  0  0  0  0  0  0  0  0  0  0  0
   10.3452   28.9758   -4.0775 C   0  0  0  0  0  0  0  0  0  0  0  0
    8.6830   27.1587   -3.6480 C   0  0  0  0  0  0  0  0  0  0  0  0
   11.0437   26.4834   -4.3801 C   0  0  0  0  0  0  0  0  0  0  0  0
   10.5604   25.0563   -4.7884 C   0  0  0  0  0  0  0  0  0  0  0  0
   10.3465   24.9237   -6.3152 C   0  0  0  0  0  0  0  0  0  0  0  0
    9.1428   24.8681   -4.1811 C   0  0  0  0  0  0  0  0  0  0  0  0
   11.4876   23.8670   -4.3504 C   0  0  0  0  0  0  0  0  0  0  0  0
   13.7082   24.8526   -3.7513 C   0  0  0  0  0  0  0  0  0  0  0  0
   13.0267   23.7763   -4.6360 C   0  0  0  0  0  0  0  0  0  0  0  0
   13.4326   24.0544   -6.0887 C   0  0  0  0  0  0  0  0  0  0  0  0
   13.6222   22.4233   -4.2127 C   0  0  0  0  0  0  0  0  0  0  0  0
    6.9628   25.0689    4.2137 N   0  0  0  0  0  0  0  0  0  0  0  0
    7.3918   23.9771    4.9396 C   0  0  0  0  0  0  0  0  0  0  0  0
    8.4903   23.9265    5.4797 O   0  0  0  0  0  0  0  0  0  0  0  0
    6.0545   25.0677    3.8339 H   0  0  0  0  0  0  0  0  0  0  0  0
    6.3754   22.8546    4.9718 C   0  0  0  0  0  0  0  0  0  0  0  0
    5.9087   22.5633    6.3958 C   0  0  0  0  0  0  0  0  0  0  0  0
    4.4205   22.7544    6.5439 C   0  0  0  0  0  0  0  0  0  0  0  0
    3.7584   22.2795    7.6826 C   0  0  0  0  0  0  0  0  0  0  0  0
    2.3768   22.4421    7.8211 C   0  0  0  0  0  0  0  0  0  0  0  0
    1.6229   23.0759    6.8232 C   0  0  0  0  0  0  0  0  0  0  0  0
    2.2920   23.5437    5.6825 C   0  0  0  0  0  0  0  0  0  0  0  0
    3.6751   23.3840    5.5423 C   0  0  0  0  0  0  0  0  0  0  0  0
    0.1748   23.2531    7.0010 C   0  0  0  0  0  0  0  0  0  0  0  0
   -0.7315   22.3794    7.5769 C   0  0  0  0  0  0  0  0  0  0  0  0
   -2.0803   22.8616    7.5609 C   0  0  0  0  0  0  0  0  0  0  0  0
   -2.1471   24.1018    6.9557 C   0  0  0  0  0  0  0  0  0  0  0  0
   -0.6196   24.6642    6.4334 S   0  0  0  0  0  0  0  0  0  0  0  0
   -3.2652   22.1792    8.0746 C   0  0  0  0  0  0  0  0  0  0  0  0
   -3.2566   20.7877    8.2474 C   0  0  0  0  0  0  0  0  0  0  0  0
   -4.3824   20.1255    8.7450 C   0  0  0  0  0  0  0  0  0  0  0  0
   -5.5260   20.8481    9.0786 C   0  0  0  0  0  0  0  0  0  0  0  0
   -5.5451   22.2317    8.9163 C   0  0  0  0  0  0  0  0  0  0  0  0
   -4.4207   22.8948    8.4170 C   0  0  0  0  0  0  0  0  0  0  0  0
    8.8060   26.4050    5.1655 C   0  0  0  0  0  0  0  0  0  0  0  0
    9.0419   27.8796    5.4987 C   0  0  0  0  0  0  0  0  0  0  0  0
    8.0098   28.4194    6.4630 C   0  0  0  0  0  0  0  0  0  0  0  0
    8.2219   29.7144    6.8382 N   0  0  0  0  0  0  0  0  0  0  0  0
    7.0494   27.7893    6.8850 O   0  0  0  0  0  0  0  0  0  0  0  0
    8.9997   30.2068    6.4892 H   0  0  0  0  0  0  0  0  0  0  0  0
    7.5971   30.1561    7.4577 H   0  0  0  0  0  0  0  0  0  0  0  0
 23 24  1  0
 24 25  1  0
 24 26  1  0
 24 22  1  0
 22 19  1  0
 19 20  1  0
 19 21  1  0
 19 18  1  0
 18 15  1  0
 15 16  1  0
 15 17  1  0
 15 14  1  0
 14 13  1  0
 13 12  1  0
  6 12  1  0
  6  2  1  0
  2  3  1  0
  3  4  2  0
  3  1  1  0
  1 50  1  0
 50 51  1  0
 51 52  1  0
 52 53  1  0
 52 54  2  0
  1 27  1  0
 27 28  1  0
 28 29  2  0
 28 31  1  0
 31 32  1  0
 32 33  1  0
 33 34  2  0
 34 35  1  0
 35 36  2  0
 36 39  1  0
 39 40  2  0
 40 41  1  0
 41 44  1  0
 44 45  2  0
 45 46  1  0
 46 47  2  0
 47 48  1  0
 48 49  2  0
 41 42  2  0
 42 43  1  0
 36 37  1  0
 37 38  2  0
  6  7  1  0
  7  8  1  0
  7  9  2  0
 38 33  1  0
 43 39  1  0
 49 44  1  0
  2  5  1  0
 53 55  1  0
 53 56  1  0
 27 30  1  0
  8 10  1  0
  8 11  1  0
M  END
> <minimizedAffinity>
-9.31939

> <CNNscore>
0.6932933331

> <CNNaffinity>
8.2005414963

> <CNN_VS>
5.6853809357

> <CNNaffinity_variance>
1.5281152725

$$$$



 56 58  0  0  0  0  0  0  0  0999 V2000
    8.2889   29.0496    5.0699 C   0  0  0  0  0  0  0  0  0  0  0  0
    8.6527   29.6836    7.4248 N   0  0  0  0  0  0  0  0  0  0  0  0
    7.7387   29.2234    6.5037 C   0  0  0  0  0  0  0  0  0  0  0  0
    6.5971   28.8888    6.8162 O   0  0  0  0  0  0  0  0  0  0  0  0
    9.5992   29.7537    7.1633 H   0  0  0  0  0  0  0  0  0  0  0  0
    8.2623   30.0708    8.7773 C   0  0  0  0  0  0  0  0  0  0  0  0
    9.1012   31.3212    9.1063 C   0  0  0  0  0  0  0  0  0  0  0  0
    8.7110   32.4931    8.5260 N   0  0  0  0  0  0  0  0  0  0  0  0
   10.0775   31.2949    9.8588 O   0  0  0  0  0  0  0  0  0  0  0  0
    7.9307   32.5094    7.9258 H   0  0  0  0  0  0  0  0  0  0  0  0
    9.2097   33.3223    8.7076 H   0  0  0  0  0  0  0  0  0  0  0  0
    8.5053   28.9183    9.7603 C   0  0  0  0  0  0  0  0  0  0  0  0
    7.2137   28.2492   10.2509 C   0  0  0  0  0  0  0  0  0  0  0  0
    6.2540   29.2831   10.8636 C   0  0  0  0  0  0  0  0  0  0  0  0
    6.0515   29.2368   12.4215 C   0  0  0  0  0  0  0  0  0  0  0  0
    4.5852   28.9229   12.7399 C   0  0  0  0  0  0  0  0  0  0  0  0
    6.3960   30.6261   13.0032 C   0  0  0  0  0  0  0  0  0  0  0  0
    7.0666   28.1539   12.9458 C   0  0  0  0  0  0  0  0  0  0  0  0
    8.1204   28.3897   14.0732 C   0  0  0  0  0  0  0  0  0  0  0  0
    7.4660   28.5290   15.4684 C   0  0  0  0  0  0  0  0  0  0  0  0
    8.7640   29.7786   13.8070 C   0  0  0  0  0  0  0  0  0  0  0  0
    9.2438   27.2998   14.2005 C   0  0  0  0  0  0  0  0  0  0  0  0
   11.6514   27.6718   13.6292 C   0  0  0  0  0  0  0  0  0  0  0  0
   10.6643   27.5424   14.8185 C   0  0  0  0  0  0  0  0  0  0  0  0
   11.1793   26.4130   15.7195 C   0  0  0  0  0  0  0  0  0  0  0  0
   10.7456   28.8652   15.5983 C   0  0  0  0  0  0  0  0  0  0  0  0
    7.7570   27.8478    4.4121 N   0  0  0  0  0  0  0  0  0  0  0  0
    8.5880   26.8316    3.9882 C   0  0  0  0  0  0  0  0  0  0  0  0
    9.7995   26.8425    4.1705 O   0  0  0  0  0  0  0  0  0  0  0  0
    6.7861   27.7662    4.2708 H   0  0  0  0  0  0  0  0  0  0  0  0
    7.8469   25.7290    3.2609 C   0  0  0  0  0  0  0  0  0  0  0  0
    8.0622   24.3741    3.9306 C   0  0  0  0  0  0  0  0  0  0  0  0
    6.8241   23.9073    4.6533 C   0  0  0  0  0  0  0  0  0  0  0  0
    5.6050   24.5694    4.4639 C   0  0  0  0  0  0  0  0  0  0  0  0
    4.4556   24.1499    5.1400 C   0  0  0  0  0  0  0  0  0  0  0  0
    4.4978   23.0644    6.0266 C   0  0  0  0  0  0  0  0  0  0  0  0
    5.7238   22.4097    6.2161 C   0  0  0  0  0  0  0  0  0  0  0  0
    6.8754   22.8264    5.5389 C   0  0  0  0  0  0  0  0  0  0  0  0
    3.2717   22.6293    6.7102 C   0  0  0  0  0  0  0  0  0  0  0  0
    1.9625   22.9801    6.4285 C   0  0  0  0  0  0  0  0  0  0  0  0
    1.0079   22.3897    7.3186 C   0  0  0  0  0  0  0  0  0  0  0  0
    1.6423   21.6056    8.2628 C   0  0  0  0  0  0  0  0  0  0  0  0
    3.3403   21.5812    8.0671 S   0  0  0  0  0  0  0  0  0  0  0  0
   -0.4416   22.5682    7.2989 C   0  0  0  0  0  0  0  0  0  0  0  0
   -1.2890   21.4704    7.5061 C   0  0  0  0  0  0  0  0  0  0  0  0
   -2.6773   21.6313    7.4966 C   0  0  0  0  0  0  0  0  0  0  0  0
   -3.2320   22.8916    7.2839 C   0  0  0  0  0  0  0  0  0  0  0  0
   -2.4006   23.9911    7.0819 C   0  0  0  0  0  0  0  0  0  0  0  0
   -1.0122   23.8312    7.0894 C   0  0  0  0  0  0  0  0  0  0  0  0
    7.9777   30.2992    4.2389 C   0  0  0  0  0  0  0  0  0  0  0  0
    6.9211   30.0218    3.1674 C   0  0  0  0  0  0  0  0  0  0  0  0
    7.5366   29.7805    1.8074 C   0  0  0  0  0  0  0  0  0  0  0  0
    6.9146   28.8080    1.0795 N   0  0  0  0  0  0  0  0  0  0  0  0
    8.4987   30.3880    1.3570 O   0  0  0  0  0  0  0  0  0  0  0  0
    6.1417   28.3289    1.4569 H   0  0  0  0  0  0  0  0  0  0  0  0
    7.2387   28.5854    0.1769 H   0  0  0  0  0  0  0  0  0  0  0  0
 23 24  1  0
 24 25  1  0
 24 26  1  0
 24 22  1  0
 22 19  1  0
 19 20  1  0
 19 21  1  0
 19 18  1  0
 18 15  1  0
 15 16  1  0
 15 17  1  0
 15 14  1  0
 14 13  1  0
 13 12  1  0
  6 12  1  0
  6  2  1  0
  2  3  1  0
  3  4  2  0
  3  1  1  0
  1 50  1  0
 50 51  1  0
 51 52  1  0
 52 53  1  0
 52 54  2  0
  1 27  1  0
 27 28  1  0
 28 29  2  0
 28 31  1  0
 31 32  1  0
 32 33  1  0
 33 34  2  0
 34 35  1  0
 35 36  2  0
 36 39  1  0
 39 40  2  0
 40 41  1  0
 41 44  1  0
 44 45  2  0
 45 46  1  0
 46 47  2  0
 47 48  1  0
 48 49  2  0
 41 42  2  0
 42 43  1  0
 36 37  1  0
 37 38  2  0
  6  7  1  0
  7  8  1  0
  7  9  2  0
 38 33  1  0
 43 39  1  0
 49 44  1  0
  2  5  1  0
 53 55  1  0
 53 56  1  0
 27 30  1  0
  8 10  1  0
  8 11  1  0
M  END
> <minimizedAffinity>
-8.93771

> <CNNscore>
0.6901315451

> <CNNaffinity>
8.4233942032

> <CNN_VS>
5.8132500648

> <CNNaffinity_variance>
1.1045068502

$$$$



 56 58  0  0  0  0  0  0  0  0999 V2000
    8.3116   25.3301    3.1014 C   0  0  0  0  0  0  0  0  0  0  0  0
    7.9529   27.6583    3.8302 N   0  0  0  0  0  0  0  0  0  0  0  0
    8.6528   26.4948    4.0583 C   0  0  0  0  0  0  0  0  0  0  0  0
    9.5469   26.4159    4.8994 O   0  0  0  0  0  0  0  0  0  0  0  0
    7.3892   27.7256    3.0258 H   0  0  0  0  0  0  0  0  0  0  0  0
    8.0202   28.7953    4.7436 C   0  0  0  0  0  0  0  0  0  0  0  0
    7.6484   28.2331    6.1296 C   0  0  0  0  0  0  0  0  0  0  0  0
    8.5079   28.5054    7.1540 N   0  0  0  0  0  0  0  0  0  0  0  0
    6.6275   27.5725    6.3335 O   0  0  0  0  0  0  0  0  0  0  0  0
    9.3219   29.0333    6.9864 H   0  0  0  0  0  0  0  0  0  0  0  0
    8.3140   28.1741    8.0605 H   0  0  0  0  0  0  0  0  0  0  0  0
    7.0756   29.9134    4.2843 C   0  0  0  0  0  0  0  0  0  0  0  0
    7.7729   31.2693    4.1053 C   0  0  0  0  0  0  0  0  0  0  0  0
    6.7771   32.3461    3.6422 C   0  0  0  0  0  0  0  0  0  0  0  0
    6.7850   32.7190    2.1153 C   0  0  0  0  0  0  0  0  0  0  0  0
    8.1580   33.2821    1.7311 C   0  0  0  0  0  0  0  0  0  0  0  0
    5.7185   33.8098    1.8706 C   0  0  0  0  0  0  0  0  0  0  0  0
    6.4010   31.3942    1.3565 C   0  0  0  0  0  0  0  0  0  0  0  0
    7.3308   30.6360    0.3577 C   0  0  0  0  0  0  0  0  0  0  0  0
    6.9291   29.1506    0.1943 C   0  0  0  0  0  0  0  0  0  0  0  0
    8.7431   30.5863    1.0035 C   0  0  0  0  0  0  0  0  0  0  0  0
    7.4285   31.2460   -1.0860 C   0  0  0  0  0  0  0  0  0  0  0  0
    6.6752   31.7441   -3.4196 C   0  0  0  0  0  0  0  0  0  0  0  0
    6.2061   31.7284   -1.9414 C   0  0  0  0  0  0  0  0  0  0  0  0
    5.6986   33.1369   -1.6077 C   0  0  0  0  0  0  0  0  0  0  0  0
    5.0201   30.7523   -1.8708 C   0  0  0  0  0  0  0  0  0  0  0  0
    7.3886   24.3621    3.7107 N   0  0  0  0  0  0  0  0  0  0  0  0
    7.8425   23.3610    4.5442 C   0  0  0  0  0  0  0  0  0  0  0  0
    9.0194   23.2427    4.8632 O   0  0  0  0  0  0  0  0  0  0  0  0
    6.4252   24.4297    3.5197 H   0  0  0  0  0  0  0  0  0  0  0  0
    6.7408   22.4239    4.9937 C   0  0  0  0  0  0  0  0  0  0  0  0
    6.2925   22.7311    6.4203 C   0  0  0  0  0  0  0  0  0  0  0  0
    4.7915   22.8272    6.5237 C   0  0  0  0  0  0  0  0  0  0  0  0
    4.1108   22.1580    7.5481 C   0  0  0  0  0  0  0  0  0  0  0  0
    2.7181   22.2324    7.6430 C   0  0  0  0  0  0  0  0  0  0  0  0
    1.9716   22.9705    6.7134 C   0  0  0  0  0  0  0  0  0  0  0  0
    2.6597   23.6333    5.6863 C   0  0  0  0  0  0  0  0  0  0  0  0
    4.0539   23.5621    5.5903 C   0  0  0  0  0  0  0  0  0  0  0  0
    0.5101   23.0504    6.8460 C   0  0  0  0  0  0  0  0  0  0  0  0
   -0.3751   22.0455    7.1967 C   0  0  0  0  0  0  0  0  0  0  0  0
   -1.7446   22.4659    7.2026 C   0  0  0  0  0  0  0  0  0  0  0  0
   -1.8474   23.7958    6.8425 C   0  0  0  0  0  0  0  0  0  0  0  0
   -0.3290   24.5106    6.5173 S   0  0  0  0  0  0  0  0  0  0  0  0
   -2.9147   21.6491    7.5142 C   0  0  0  0  0  0  0  0  0  0  0  0
   -3.8391   22.0813    8.4758 C   0  0  0  0  0  0  0  0  0  0  0  0
   -4.9659   21.3111    8.7765 C   0  0  0  0  0  0  0  0  0  0  0  0
   -5.1818   20.1035    8.1159 C   0  0  0  0  0  0  0  0  0  0  0  0
   -4.2733   19.6656    7.1547 C   0  0  0  0  0  0  0  0  0  0  0  0
   -3.1452   20.4340    6.8545 C   0  0  0  0  0  0  0  0  0  0  0  0
    7.7261   25.8834    1.7975 C   0  0  0  0  0  0  0  0  0  0  0  0
    8.7429   25.8433    0.6548 C   0  0  0  0  0  0  0  0  0  0  0  0
    8.6309   24.5778   -0.1652 C   0  0  0  0  0  0  0  0  0  0  0  0
    8.2091   24.7806   -1.4472 N   0  0  0  0  0  0  0  0  0  0  0  0
    8.8955   23.4545    0.2419 O   0  0  0  0  0  0  0  0  0  0  0  0
    8.0004   25.6909   -1.7586 H   0  0  0  0  0  0  0  0  0  0  0  0
    8.1136   24.0165   -2.0607 H   0  0  0  0  0  0  0  0  0  0  0  0
 23 24  1  0
 24 25  1  0
 24 26  1  0
 24 22  1  0
 22 19  1  0
 19 20  1  0
 19 21  1  0
 19 18  1  0
 18 15  1  0
 15 16  1  0
 15 17  1  0
 15 14  1  0
 14 13  1  0
 13 12  1  0
  6 12  1  0
  6  2  1  0
  2  3  1  0
  3  4  2  0
  3  1  1  0
  1 50  1  0
 50 51  1  0
 51 52  1  0
 52 53  1  0
 52 54  2  0
  1 27  1  0
 27 28  1  0
 28 29  2  0
 28 31  1  0
 31 32  1  0
 32 33  1  0
 33 34  2  0
 34 35  1  0
 35 36  2  0
 36 39  1  0
 39 40  2  0
 40 41  1  0
 41 44  1  0
 44 45  2  0
 45 46  1  0
 46 47  2  0
 47 48  1  0
 48 49  2  0
 41 42  2  0
 42 43  1  0
 36 37  1  0
 37 38  2  0
  6  7  1  0
  7  8  1  0
  7  9  2  0
 38 33  1  0
 43 39  1  0
 49 44  1  0
  2  5  1  0
 53 55  1  0
 53 56  1  0
 27 30  1  0
  8 10  1  0
  8 11  1  0
M  END
> <minimizedAffinity>
-8.72281

> <CNNscore>
0.6732320786

> <CNNaffinity>
8.2836408615

> <CNN_VS>
5.5768127441

> <CNNaffinity_variance>
0.8701689243

$$$$



 56 58  0  0  0  0  0  0  0  0999 V2000
    8.6977   29.0501    4.6184 C   0  0  0  0  0  0  0  0  0  0  0  0
    8.1867   28.6968    7.0047 N   0  0  0  0  0  0  0  0  0  0  0  0
    8.3330   29.6306    6.0036 C   0  0  0  0  0  0  0  0  0  0  0  0
    8.1013   30.8263    6.1765 O   0  0  0  0  0  0  0  0  0  0  0  0
    8.1960   27.7408    6.7699 H   0  0  0  0  0  0  0  0  0  0  0  0
    8.0181   29.0798    8.4034 C   0  0  0  0  0  0  0  0  0  0  0  0
    6.6232   29.7298    8.4876 C   0  0  0  0  0  0  0  0  0  0  0  0
    6.5824   31.0929    8.5365 N   0  0  0  0  0  0  0  0  0  0  0  0
    5.5784   29.0754    8.5044 O   0  0  0  0  0  0  0  0  0  0  0  0
    7.4193   31.6113    8.5228 H   0  0  0  0  0  0  0  0  0  0  0  0
    5.7160   31.5580    8.5854 H   0  0  0  0  0  0  0  0  0  0  0  0
    9.1416   30.0277    8.8428 C   0  0  0  0  0  0  0  0  0  0  0  0
    9.0228   30.4823   10.3043 C   0  0  0  0  0  0  0  0  0  0  0  0
    9.7006   29.4785   11.2521 C   0  0  0  0  0  0  0  0  0  0  0  0
    8.7814   28.7469   12.2961 C   0  0  0  0  0  0  0  0  0  0  0  0
    8.2955   27.4166   11.7095 C   0  0  0  0  0  0  0  0  0  0  0  0
    7.5523   29.6394   12.5789 C   0  0  0  0  0  0  0  0  0  0  0  0
    9.6589   28.5920   13.5939 C   0  0  0  0  0  0  0  0  0  0  0  0
    9.2748   27.7235   14.8329 C   0  0  0  0  0  0  0  0  0  0  0  0
    9.1607   28.5647   16.1266 C   0  0  0  0  0  0  0  0  0  0  0  0
   10.4670   26.7635   15.0992 C   0  0  0  0  0  0  0  0  0  0  0  0
    7.9458   26.8966   14.7051 C   0  0  0  0  0  0  0  0  0  0  0  0
    6.8119   28.6233   16.1172 C   0  0  0  0  0  0  0  0  0  0  0  0
    6.5697   27.3059   15.3354 C   0  0  0  0  0  0  0  0  0  0  0  0
    5.9824   26.2895   16.3226 C   0  0  0  0  0  0  0  0  0  0  0  0
    5.5077   27.6210   14.2689 C   0  0  0  0  0  0  0  0  0  0  0  0
    7.9659   27.8098    4.3251 N   0  0  0  0  0  0  0  0  0  0  0  0
    8.6277   26.6273    4.0670 C   0  0  0  0  0  0  0  0  0  0  0  0
    9.8477   26.5240    4.1101 O   0  0  0  0  0  0  0  0  0  0  0  0
    6.9815   27.8233    4.3125 H   0  0  0  0  0  0  0  0  0  0  0  0
    7.6901   25.4941    3.7056 C   0  0  0  0  0  0  0  0  0  0  0  0
    7.8937   24.2871    4.6178 C   0  0  0  0  0  0  0  0  0  0  0  0
    6.5944   23.8235    5.2261 C   0  0  0  0  0  0  0  0  0  0  0  0
    6.5924   22.8306    6.2134 C   0  0  0  0  0  0  0  0  0  0  0  0
    5.3906   22.3870    6.7731 C   0  0  0  0  0  0  0  0  0  0  0  0
    4.1623   22.9188    6.3552 C   0  0  0  0  0  0  0  0  0  0  0  0
    4.1715   23.9087    5.3615 C   0  0  0  0  0  0  0  0  0  0  0  0
    5.3732   24.3560    4.8011 C   0  0  0  0  0  0  0  0  0  0  0  0
    2.9137   22.4507    6.9731 C   0  0  0  0  0  0  0  0  0  0  0  0
    1.6144   22.8119    6.6603 C   0  0  0  0  0  0  0  0  0  0  0  0
    0.6302   22.1797    7.4872 C   0  0  0  0  0  0  0  0  0  0  0  0
    1.2325   21.3540    8.4168 C   0  0  0  0  0  0  0  0  0  0  0  0
    2.9366   21.3415    8.2822 S   0  0  0  0  0  0  0  0  0  0  0  0
   -0.8183   22.3565    7.4230 C   0  0  0  0  0  0  0  0  0  0  0  0
   -1.6720   21.2794    7.7009 C   0  0  0  0  0  0  0  0  0  0  0  0
   -3.0595   21.4394    7.6495 C   0  0  0  0  0  0  0  0  0  0  0  0
   -3.6072   22.6784    7.3239 C   0  0  0  0  0  0  0  0  0  0  0  0
   -2.7695   23.7577    7.0507 C   0  0  0  0  0  0  0  0  0  0  0  0
   -1.3819   23.5985    7.0999 C   0  0  0  0  0  0  0  0  0  0  0  0
    8.4367   30.0980    3.5308 C   0  0  0  0  0  0  0  0  0  0  0  0
    8.4264   29.4768    2.1325 C   0  0  0  0  0  0  0  0  0  0  0  0
    8.3830   30.5241    1.0426 C   0  0  0  0  0  0  0  0  0  0  0  0
    9.4275   31.4020    1.0722 N   0  0  0  0  0  0  0  0  0  0  0  0
    7.5140   30.6058    0.1849 O   0  0  0  0  0  0  0  0  0  0  0  0
   10.1181   31.3220    1.7693 H   0  0  0  0  0  0  0  0  0  0  0  0
    9.4904   32.1152    0.3965 H   0  0  0  0  0  0  0  0  0  0  0  0
 23 24  1  0
 24 25  1  0
 24 26  1  0
 24 22  1  0
 22 19  1  0
 19 20  1  0
 19 21  1  0
 19 18  1  0
 18 15  1  0
 15 16  1  0
 15 17  1  0
 15 14  1  0
 14 13  1  0
 13 12  1  0
  6 12  1  0
  6  2  1  0
  2  3  1  0
  3  4  2  0
  3  1  1  0
  1 50  1  0
 50 51  1  0
 51 52  1  0
 52 53  1  0
 52 54  2  0
  1 27  1  0
 27 28  1  0
 28 29  2  0
 28 31  1  0
 31 32  1  0
 32 33  1  0
 33 34  2  0
 34 35  1  0
 35 36  2  0
 36 39  1  0
 39 40  2  0
 40 41  1  0
 41 44  1  0
 44 45  2  0
 45 46  1  0
 46 47  2  0
 47 48  1  0
 48 49  2  0
 41 42  2  0
 42 43  1  0
 36 37  1  0
 37 38  2  0
  6  7  1  0
  7  8  1  0
  7  9  2  0
 38 33  1  0
 43 39  1  0
 49 44  1  0
  2  5  1  0
 53 55  1  0
 53 56  1  0
 27 30  1  0
  8 10  1  0
  8 11  1  0
M  END
> <minimizedAffinity>
-8.64647

> <CNNscore>
0.6543036699

> <CNNaffinity>
8.2516784668

> <CNN_VS>
5.3991036415

> <CNNaffinity_variance>
0.9108898640

$$$$



 56 58  0  0  0  0  0  0  0  0999 V2000
    7.3475   24.6106    3.6227 C   0  0  0  0  0  0  0  0  0  0  0  0
    8.0041   26.8648    4.3758 N   0  0  0  0  0  0  0  0  0  0  0  0
    8.3824   25.5437    4.2911 C   0  0  0  0  0  0  0  0  0  0  0  0
    9.4958   25.1519    4.6372 O   0  0  0  0  0  0  0  0  0  0  0  0
    7.1858   27.1570    3.9130 H   0  0  0  0  0  0  0  0  0  0  0  0
    8.7783   27.8461    5.1304 C   0  0  0  0  0  0  0  0  0  0  0  0
    7.9476   28.1429    6.3941 C   0  0  0  0  0  0  0  0  0  0  0  0
    8.5400   28.9135    7.3520 N   0  0  0  0  0  0  0  0  0  0  0  0
    6.7993   27.7239    6.5557 O   0  0  0  0  0  0  0  0  0  0  0  0
    9.4570   29.2459    7.2187 H   0  0  0  0  0  0  0  0  0  0  0  0
    8.0503   29.1371    8.1763 H   0  0  0  0  0  0  0  0  0  0  0  0
    9.0358   29.0983    4.2823 C   0  0  0  0  0  0  0  0  0  0  0  0
    7.8603   29.4712    3.3680 C   0  0  0  0  0  0  0  0  0  0  0  0
    8.3573   29.9116    1.9807 C   0  0  0  0  0  0  0  0  0  0  0  0
    8.1783   31.4270    1.6042 C   0  0  0  0  0  0  0  0  0  0  0  0
    7.4600   31.5396    0.2546 C   0  0  0  0  0  0  0  0  0  0  0  0
    9.5774   32.0692    1.4733 C   0  0  0  0  0  0  0  0  0  0  0  0
    7.3887   32.0687    2.8053 C   0  0  0  0  0  0  0  0  0  0  0  0
    6.1484   33.0055    2.6596 C   0  0  0  0  0  0  0  0  0  0  0  0
    6.4057   34.1709    1.6746 C   0  0  0  0  0  0  0  0  0  0  0  0
    5.9418   33.6992    4.0344 C   0  0  0  0  0  0  0  0  0  0  0  0
    4.8138   32.3111    2.2095 C   0  0  0  0  0  0  0  0  0  0  0  0
    2.3325   32.4268    1.9080 C   0  0  0  0  0  0  0  0  0  0  0  0
    3.6738   33.0051    1.3866 C   0  0  0  0  0  0  0  0  0  0  0  0
    3.7229   32.7540   -0.1258 C   0  0  0  0  0  0  0  0  0  0  0  0
    3.6175   34.5226    1.6283 C   0  0  0  0  0  0  0  0  0  0  0  0
    6.0793   24.5649    4.3641 N   0  0  0  0  0  0  0  0  0  0  0  0
    5.7418   23.4805    5.1471 C   0  0  0  0  0  0  0  0  0  0  0  0
    6.4848   22.5201    5.3103 O   0  0  0  0  0  0  0  0  0  0  0  0
    5.4570   25.3251    4.3006 H   0  0  0  0  0  0  0  0  0  0  0  0
    4.3589   23.5989    5.7532 C   0  0  0  0  0  0  0  0  0  0  0  0
    3.9173   22.2883    6.3995 C   0  0  0  0  0  0  0  0  0  0  0  0
    2.4523   22.3087    6.7550 C   0  0  0  0  0  0  0  0  0  0  0  0
    1.5990   23.2558    6.1757 C   0  0  0  0  0  0  0  0  0  0  0  0
    0.2420   23.2887    6.5099 C   0  0  0  0  0  0  0  0  0  0  0  0
   -0.2936   22.3819    7.4356 C   0  0  0  0  0  0  0  0  0  0  0  0
    0.5683   21.4399    8.0165 C   0  0  0  0  0  0  0  0  0  0  0  0
    1.9266   21.4035    7.6821 C   0  0  0  0  0  0  0  0  0  0  0  0
   -1.7275   22.4232    7.7554 C   0  0  0  0  0  0  0  0  0  0  0  0
   -2.4958   21.4528    8.3754 C   0  0  0  0  0  0  0  0  0  0  0  0
   -3.8761   21.8133    8.5062 C   0  0  0  0  0  0  0  0  0  0  0  0
   -4.1067   23.0628    7.9637 C   0  0  0  0  0  0  0  0  0  0  0  0
   -2.6906   23.7767    7.3256 S   0  0  0  0  0  0  0  0  0  0  0  0
   -4.9430   21.0107    9.0986 C   0  0  0  0  0  0  0  0  0  0  0  0
   -4.7955   19.6214    9.2178 C   0  0  0  0  0  0  0  0  0  0  0  0
   -5.8071   18.8448    9.7897 C   0  0  0  0  0  0  0  0  0  0  0  0
   -6.9741   19.4497   10.2515 C   0  0  0  0  0  0  0  0  0  0  0  0
   -7.1305   20.8299   10.1433 C   0  0  0  0  0  0  0  0  0  0  0  0
   -6.1205   21.6073    9.5700 C   0  0  0  0  0  0  0  0  0  0  0  0
    7.1078   25.0529    2.1750 C   0  0  0  0  0  0  0  0  0  0  0  0
    8.1890   24.5221    1.2311 C   0  0  0  0  0  0  0  0  0  0  0  0
    9.0296   25.6332    0.6434 C   0  0  0  0  0  0  0  0  0  0  0  0
   10.0387   26.0583    1.4581 N   0  0  0  0  0  0  0  0  0  0  0  0
    8.8614   26.1273   -0.4634 O   0  0  0  0  0  0  0  0  0  0  0  0
   10.1599   25.6500    2.3456 H   0  0  0  0  0  0  0  0  0  0  0  0
   10.6454   26.7733    1.1582 H   0  0  0  0  0  0  0  0  0  0  0  0
 23 24  1  0
 24 25  1  0
 24 26  1  0
 24 22  1  0
 22 19  1  0
 19 20  1  0
 19 21  1  0
 19 18  1  0
 18 15  1  0
 15 16  1  0
 15 17  1  0
 15 14  1  0
 14 13  1  0
 13 12  1  0
  6 12  1  0
  6  2  1  0
  2  3  1  0
  3  4  2  0
  3  1  1  0
  1 50  1  0
 50 51  1  0
 51 52  1  0
 52 53  1  0
 52 54  2  0
  1 27  1  0
 27 28  1  0
 28 29  2  0
 28 31  1  0
 31 32  1  0
 32 33  1  0
 33 34  2  0
 34 35  1  0
 35 36  2  0
 36 39  1  0
 39 40  2  0
 40 41  1  0
 41 44  1  0
 44 45  2  0
 45 46  1  0
 46 47  2  0
 47 48  1  0
 48 49  2  0
 41 42  2  0
 42 43  1  0
 36 37  1  0
 37 38  2  0
  6  7  1  0
  7  8  1  0
  7  9  2  0
 38 33  1  0
 43 39  1  0
 49 44  1  0
  2  5  1  0
 53 55  1  0
 53 56  1  0
 27 30  1  0
  8 10  1  0
  8 11  1  0
M  END
> <minimizedAffinity>
-9.22021

> <CNNscore>
0.6357415318

> <CNNaffinity>
8.2238512039

> <CNN_VS>
5.2282438278

> <CNNaffinity_variance>
0.7457475662

$$$$
