


 26 29  0  0  0  0  0  0  0  0999 V2000
  -17.5869   36.5178    1.8564 C   0  0  0  0  0  0  0  0  0  0  0  0
  -18.0403   37.2894    2.9373 C   0  0  0  0  0  0  0  0  0  0  0  0
  -19.0031   38.2805    2.7548 C   0  0  0  0  0  0  0  0  0  0  0  0
  -19.5421   38.5254    1.4864 C   0  0  0  0  0  0  0  0  0  0  0  0
  -19.1112   37.7595    0.3815 C   0  0  0  0  0  0  0  0  0  0  0  0
  -19.4376   37.7423   -1.0145 C   0  0  0  0  0  0  0  0  0  0  0  0
  -18.6601   36.7618   -1.6241 C   0  0  0  0  0  0  0  0  0  0  0  0
  -17.8932   36.1975   -0.6289 N   0  0  0  0  0  0  0  0  0  0  0  0
  -18.1428   36.7814    0.5922 C   0  0  0  0  0  0  0  0  0  0  0  0
  -17.2476   35.4683   -0.7730 H   0  0  0  0  0  0  0  0  0  0  0  0
  -20.3918   38.5875   -1.7175 C   0  0  0  0  0  0  0  0  0  0  0  0
  -20.2026   38.8770   -3.0745 C   0  0  0  0  0  0  0  0  0  0  0  0
  -21.1164   39.6826   -3.7570 C   0  0  0  0  0  0  0  0  0  0  0  0
  -22.2247   40.2010   -3.0883 C   0  0  0  0  0  0  0  0  0  0  0  0
  -22.4213   39.9148   -1.7379 C   0  0  0  0  0  0  0  0  0  0  0  0
  -21.5090   39.1088   -1.0540 C   0  0  0  0  0  0  0  0  0  0  0  0
  -18.5789   36.2780   -3.0044 C   0  0  0  0  0  0  0  0  0  0  0  0
  -17.5054   36.6504   -3.8253 C   0  0  0  0  0  0  0  0  0  0  0  0
  -17.4215   36.1856   -5.1401 C   0  0  0  0  0  0  0  0  0  0  0  0
  -18.4090   35.3432   -5.6465 C   0  0  0  0  0  0  0  0  0  0  0  0
  -19.4804   34.9656   -4.8398 C   0  0  0  0  0  0  0  0  0  0  0  0
  -19.5641   35.4299   -3.5250 C   0  0  0  0  0  0  0  0  0  0  0  0
  -16.1249   35.0378    3.0552 O   0  0  0  0  0  0  0  0  0  0  0  0
  -16.5608   35.4617    1.9988 C   0  0  0  0  0  0  0  0  0  0  0  0
  -16.1289   34.9864    0.8183 O   0  0  0  0  0  0  0  0  0  0  0  0
  -16.4790   35.3281    0.0192 H   0  0  0  0  0  0  0  0  0  0  0  0
 23 24  2  0
 24 25  1  0
 24  1  1  0
  1  2  2  0
  2  3  1  0
  3  4  2  0
  4  5  1  0
  5  6  1  0
  6 11  1  0
 11 12  2  0
 12 13  1  0
 13 14  2  0
 14 15  1  0
 15 16  2  0
  6  7  2  0
  7 17  1  0
 17 18  2  0
 18 19  1  0
 19 20  2  0
 20 21  1  0
 21 22  2  0
  7  8  1  0
  8  9  1  0
  9  1  1  0
  9  5  2  0
 16 11  1  0
 22 17  1  0
 25 26  1  0
  8 10  1  0
M  END
> <minimizedAffinity>
-10.64142

> <CNNscore>
0.9743461013

> <CNNaffinity>
7.0786323547

> <CNN_VS>
6.8970379829

> <CNNaffinity_variance>
0.0491186380

$$$$



 26 29  0  0  0  0  0  0  0  0999 V2000
  -18.7570   37.4970    1.0317 C   0  0  0  0  0  0  0  0  0  0  0  0
  -19.5761   38.2968    1.8432 C   0  0  0  0  0  0  0  0  0  0  0  0
  -20.4635   39.2132    1.2816 C   0  0  0  0  0  0  0  0  0  0  0  0
  -20.5590   39.3530   -0.1078 C   0  0  0  0  0  0  0  0  0  0  0  0
  -19.7533   38.5562   -0.9498 C   0  0  0  0  0  0  0  0  0  0  0  0
  -19.5950   38.4412   -2.3702 C   0  0  0  0  0  0  0  0  0  0  0  0
  -18.6189   37.4799   -2.6160 C   0  0  0  0  0  0  0  0  0  0  0  0
  -18.2044   37.0213   -1.3853 N   0  0  0  0  0  0  0  0  0  0  0  0
  -18.8705   37.6547   -0.3608 C   0  0  0  0  0  0  0  0  0  0  0  0
  -17.5181   36.3276   -1.2547 H   0  0  0  0  0  0  0  0  0  0  0  0
  -20.2948   39.1841   -3.4082 C   0  0  0  0  0  0  0  0  0  0  0  0
  -21.4954   38.6901   -3.9332 C   0  0  0  0  0  0  0  0  0  0  0  0
  -22.1752   39.3996   -4.9254 C   0  0  0  0  0  0  0  0  0  0  0  0
  -21.6606   40.6069   -5.3962 C   0  0  0  0  0  0  0  0  0  0  0  0
  -20.4673   41.1066   -4.8762 C   0  0  0  0  0  0  0  0  0  0  0  0
  -19.7866   40.3989   -3.8836 C   0  0  0  0  0  0  0  0  0  0  0  0
  -18.0626   36.9268   -3.8532 C   0  0  0  0  0  0  0  0  0  0  0  0
  -18.7638   35.9484   -4.5716 C   0  0  0  0  0  0  0  0  0  0  0  0
  -18.2391   35.4234   -5.7553 C   0  0  0  0  0  0  0  0  0  0  0  0
  -17.0095   35.8723   -6.2328 C   0  0  0  0  0  0  0  0  0  0  0  0
  -16.3039   36.8450   -5.5277 C   0  0  0  0  0  0  0  0  0  0  0  0
  -16.8286   37.3703   -4.3444 C   0  0  0  0  0  0  0  0  0  0  0  0
  -17.4019   35.5151    1.0096 O   0  0  0  0  0  0  0  0  0  0  0  0
  -17.7940   36.5177    1.5812 C   0  0  0  0  0  0  0  0  0  0  0  0
  -17.3674   36.8360    2.8152 O   0  0  0  0  0  0  0  0  0  0  0  0
  -17.6832   37.6123    3.2344 H   0  0  0  0  0  0  0  0  0  0  0  0
 23 24  2  0
 24 25  1  0
 24  1  1  0
  1  2  2  0
  2  3  1  0
  3  4  2  0
  4  5  1  0
  5  6  1  0
  6 11  1  0
 11 12  2  0
 12 13  1  0
 13 14  2  0
 14 15  1  0
 15 16  2  0
  6  7  2  0
  7 17  1  0
 17 18  2  0
 18 19  1  0
 19 20  2  0
 20 21  1  0
 21 22  2  0
  7  8  1  0
  8  9  1  0
  9  1  1  0
  9  5  2  0
 16 11  1  0
 22 17  1  0
 25 26  1  0
  8 10  1  0
M  END
> <minimizedAffinity>
-8.00690

> <CNNscore>
0.7874549031

> <CNNaffinity>
6.6820206642

> <CNN_VS>
5.2617897987

> <CNNaffinity_variance>
0.2658272684

$$$$



 26 29  0  0  0  0  0  0  0  0999 V2000
  -25.0156   41.1266   -4.0468 C   0  0  0  0  0  0  0  0  0  0  0  0
  -25.2107   41.2814   -5.4278 C   0  0  0  0  0  0  0  0  0  0  0  0
  -24.2319   40.8852   -6.3376 C   0  0  0  0  0  0  0  0  0  0  0  0
  -23.0316   40.3198   -5.8917 C   0  0  0  0  0  0  0  0  0  0  0  0
  -22.8105   40.1440   -4.5084 C   0  0  0  0  0  0  0  0  0  0  0  0
  -21.7316   39.6172   -3.7249 C   0  0  0  0  0  0  0  0  0  0  0  0
  -22.0849   39.7239   -2.3828 C   0  0  0  0  0  0  0  0  0  0  0  0
  -23.3403   40.2896   -2.3538 N   0  0  0  0  0  0  0  0  0  0  0  0
  -23.8026   40.5560   -3.6225 C   0  0  0  0  0  0  0  0  0  0  0  0
  -23.8436   40.4796   -1.5293 H   0  0  0  0  0  0  0  0  0  0  0  0
  -20.4684   39.0714   -4.1998 C   0  0  0  0  0  0  0  0  0  0  0  0
  -19.2931   39.8237   -4.0819 C   0  0  0  0  0  0  0  0  0  0  0  0
  -18.0767   39.3049   -4.5304 C   0  0  0  0  0  0  0  0  0  0  0  0
  -18.0278   38.0315   -5.0964 C   0  0  0  0  0  0  0  0  0  0  0  0
  -19.1933   37.2755   -5.2145 C   0  0  0  0  0  0  0  0  0  0  0  0
  -20.4104   37.7922   -4.7659 C   0  0  0  0  0  0  0  0  0  0  0  0
  -21.4058   39.3321   -1.1454 C   0  0  0  0  0  0  0  0  0  0  0  0
  -20.6418   38.1578   -1.0960 C   0  0  0  0  0  0  0  0  0  0  0  0
  -19.9875   37.7845    0.0806 C   0  0  0  0  0  0  0  0  0  0  0  0
  -20.0894   38.5821    1.2186 C   0  0  0  0  0  0  0  0  0  0  0  0
  -20.8452   39.7519    1.1813 C   0  0  0  0  0  0  0  0  0  0  0  0
  -21.4991   40.1254    0.0047 C   0  0  0  0  0  0  0  0  0  0  0  0
  -26.1752   42.6739   -2.6235 O   0  0  0  0  0  0  0  0  0  0  0  0
  -26.0205   41.5401   -3.0430 C   0  0  0  0  0  0  0  0  0  0  0  0
  -26.7826   40.5205   -2.6118 O   0  0  0  0  0  0  0  0  0  0  0  0
  -26.6448   39.6573   -2.9492 H   0  0  0  0  0  0  0  0  0  0  0  0
 23 24  2  0
 24 25  1  0
 24  1  1  0
  1  2  2  0
  2  3  1  0
  3  4  2  0
  4  5  1  0
  5  6  1  0
  6 11  1  0
 11 12  2  0
 12 13  1  0
 13 14  2  0
 14 15  1  0
 15 16  2  0
  6  7  2  0
  7 17  1  0
 17 18  2  0
 18 19  1  0
 19 20  2  0
 20 21  1  0
 21 22  2  0
  7  8  1  0
  8  9  1  0
  9  1  1  0
  9  5  2  0
 16 11  1  0
 22 17  1  0
 25 26  1  0
  8 10  1  0
M  END
> <minimizedAffinity>
-8.49640

> <CNNscore>
0.6550339460

> <CNNaffinity>
5.0506968498

> <CNN_VS>
3.3083779812

> <CNNaffinity_variance>
0.5233634710

$$$$



 26 29  0  0  0  0  0  0  0  0999 V2000
  -17.0494   35.1021    0.0462 C   0  0  0  0  0  0  0  0  0  0  0  0
  -16.0928   34.2796   -0.5683 C   0  0  0  0  0  0  0  0  0  0  0  0
  -15.9288   34.2838   -1.9525 C   0  0  0  0  0  0  0  0  0  0  0  0
  -16.7149   35.1133   -2.7606 C   0  0  0  0  0  0  0  0  0  0  0  0
  -17.6799   35.9577   -2.1699 C   0  0  0  0  0  0  0  0  0  0  0  0
  -18.6288   36.9047   -2.6783 C   0  0  0  0  0  0  0  0  0  0  0  0
  -19.3355   37.4250   -1.5979 C   0  0  0  0  0  0  0  0  0  0  0  0
  -18.8263   36.8193   -0.4706 N   0  0  0  0  0  0  0  0  0  0  0  0
  -17.8269   35.9270   -0.7856 C   0  0  0  0  0  0  0  0  0  0  0  0
  -19.1381   37.0016    0.4453 H   0  0  0  0  0  0  0  0  0  0  0  0
  -18.8597   37.2781   -4.0662 C   0  0  0  0  0  0  0  0  0  0  0  0
  -19.7201   36.5123   -4.8626 C   0  0  0  0  0  0  0  0  0  0  0  0
  -19.9507   36.8672   -6.1933 C   0  0  0  0  0  0  0  0  0  0  0  0
  -19.3252   37.9898   -6.7343 C   0  0  0  0  0  0  0  0  0  0  0  0
  -18.4696   38.7589   -5.9466 C   0  0  0  0  0  0  0  0  0  0  0  0
  -18.2383   38.4060   -4.6156 C   0  0  0  0  0  0  0  0  0  0  0  0
  -20.3936   38.4333   -1.4993 C   0  0  0  0  0  0  0  0  0  0  0  0
  -20.7602   38.9581   -0.2522 C   0  0  0  0  0  0  0  0  0  0  0  0
  -21.7644   39.9246   -0.1553 C   0  0  0  0  0  0  0  0  0  0  0  0
  -22.4107   40.3767   -1.3039 C   0  0  0  0  0  0  0  0  0  0  0  0
  -22.0543   39.8630   -2.5490 C   0  0  0  0  0  0  0  0  0  0  0  0
  -21.0498   38.8970   -2.6461 C   0  0  0  0  0  0  0  0  0  0  0  0
  -18.3246   34.9009    2.0706 O   0  0  0  0  0  0  0  0  0  0  0  0
  -17.2663   35.1257    1.5093 C   0  0  0  0  0  0  0  0  0  0  0  0
  -16.1541   35.4283    2.2005 O   0  0  0  0  0  0  0  0  0  0  0  0
  -15.3520   35.5973    1.7466 H   0  0  0  0  0  0  0  0  0  0  0  0
 23 24  2  0
 24 25  1  0
 24  1  1  0
  1  2  2  0
  2  3  1  0
  3  4  2  0
  4  5  1  0
  5  6  1  0
  6 11  1  0
 11 12  2  0
 12 13  1  0
 13 14  2  0
 14 15  1  0
 15 16  2  0
  6  7  2  0
  7 17  1  0
 17 18  2  0
 18 19  1  0
 19 20  2  0
 20 21  1  0
 21 22  2  0
  7  8  1  0
  8  9  1  0
  9  1  1  0
  9  5  2  0
 16 11  1  0
 22 17  1  0
 25 26  1  0
  8 10  1  0
M  END
> <minimizedAffinity>
-9.72883

> <CNNscore>
0.6356330514

> <CNNaffinity>
6.4248986244

> <CNN_VS>
4.0838780403

> <CNNaffinity_variance>
0.0430592783

$$$$



 26 29  0  0  0  0  0  0  0  0999 V2000
  -17.7657   35.9148    0.0358 C   0  0  0  0  0  0  0  0  0  0  0  0
  -18.7684   36.5499    0.7844 C   0  0  0  0  0  0  0  0  0  0  0  0
  -19.7169   37.3625    0.1658 C   0  0  0  0  0  0  0  0  0  0  0  0
  -19.6912   37.5600   -1.2196 C   0  0  0  0  0  0  0  0  0  0  0  0
  -18.6991   36.9275   -1.9999 C   0  0  0  0  0  0  0  0  0  0  0  0
  -18.3840   36.9098   -3.3985 C   0  0  0  0  0  0  0  0  0  0  0  0
  -17.2605   36.1072   -3.5743 C   0  0  0  0  0  0  0  0  0  0  0  0
  -16.9105   35.6469   -2.3244 N   0  0  0  0  0  0  0  0  0  0  0  0
  -17.7601   36.1276   -1.3540 C   0  0  0  0  0  0  0  0  0  0  0  0
  -16.1485   35.0492   -2.1472 H   0  0  0  0  0  0  0  0  0  0  0  0
  -19.0751   37.6016   -4.4769 C   0  0  0  0  0  0  0  0  0  0  0  0
  -18.5360   38.7782   -5.0117 C   0  0  0  0  0  0  0  0  0  0  0  0
  -19.1904   39.4445   -6.0499 C   0  0  0  0  0  0  0  0  0  0  0  0
  -20.3848   38.9378   -6.5605 C   0  0  0  0  0  0  0  0  0  0  0  0
  -20.9262   37.7652   -6.0351 C   0  0  0  0  0  0  0  0  0  0  0  0
  -20.2729   37.0971   -4.9975 C   0  0  0  0  0  0  0  0  0  0  0  0
  -16.5092   35.7018   -4.7647 C   0  0  0  0  0  0  0  0  0  0  0  0
  -15.1118   35.8101   -4.7934 C   0  0  0  0  0  0  0  0  0  0  0  0
  -14.3917   35.4183   -5.9246 C   0  0  0  0  0  0  0  0  0  0  0  0
  -15.0611   34.9132   -7.0374 C   0  0  0  0  0  0  0  0  0  0  0  0
  -16.4496   34.8002   -7.0203 C   0  0  0  0  0  0  0  0  0  0  0  0
  -17.1697   35.1914   -5.8890 C   0  0  0  0  0  0  0  0  0  0  0  0
  -16.0993   35.3129    1.6561 O   0  0  0  0  0  0  0  0  0  0  0  0
  -16.7325   35.0511    0.6481 C   0  0  0  0  0  0  0  0  0  0  0  0
  -16.5396   33.9044   -0.0258 O   0  0  0  0  0  0  0  0  0  0  0  0
  -17.0386   33.7254   -0.7984 H   0  0  0  0  0  0  0  0  0  0  0  0
 23 24  2  0
 24 25  1  0
 24  1  1  0
  1  2  2  0
  2  3  1  0
  3  4  2  0
  4  5  1  0
  5  6  1  0
  6 11  1  0
 11 12  2  0
 12 13  1  0
 13 14  2  0
 14 15  1  0
 15 16  2  0
  6  7  2  0
  7 17  1  0
 17 18  2  0
 18 19  1  0
 19 20  2  0
 20 21  1  0
 21 22  2  0
  7  8  1  0
  8  9  1  0
  9  1  1  0
  9  5  2  0
 16 11  1  0
 22 17  1  0
 25 26  1  0
  8 10  1  0
M  END
> <minimizedAffinity>
-8.77531

> <CNNscore>
0.6243585348

> <CNNaffinity>
5.8145861626

> <CNN_VS>
3.6303865910

> <CNNaffinity_variance>
0.0095373476

$$$$



 26 29  0  0  0  0  0  0  0  0999 V2000
  -17.7864   36.4919    1.4916 C   0  0  0  0  0  0  0  0  0  0  0  0
  -16.7794   35.5183    1.5768 C   0  0  0  0  0  0  0  0  0  0  0  0
  -16.3559   34.8258    0.4438 C   0  0  0  0  0  0  0  0  0  0  0  0
  -16.9256   35.0900   -0.8071 C   0  0  0  0  0  0  0  0  0  0  0  0
  -17.9351   36.0698   -0.9252 C   0  0  0  0  0  0  0  0  0  0  0  0
  -18.7146   36.5796   -2.0152 C   0  0  0  0  0  0  0  0  0  0  0  0
  -19.5823   37.5424   -1.5078 C   0  0  0  0  0  0  0  0  0  0  0  0
  -19.3317   37.6196   -0.1557 N   0  0  0  0  0  0  0  0  0  0  0  0
  -18.3435   36.7404    0.2248 C   0  0  0  0  0  0  0  0  0  0  0  0
  -19.8005   38.2272    0.4610 H   0  0  0  0  0  0  0  0  0  0  0  0
  -18.6563   36.1835   -3.4148 C   0  0  0  0  0  0  0  0  0  0  0  0
  -17.8559   36.9013   -4.3121 C   0  0  0  0  0  0  0  0  0  0  0  0
  -17.7908   36.5242   -5.6550 C   0  0  0  0  0  0  0  0  0  0  0  0
  -18.5226   35.4272   -6.1077 C   0  0  0  0  0  0  0  0  0  0  0  0
  -19.3195   34.7058   -5.2197 C   0  0  0  0  0  0  0  0  0  0  0  0
  -19.3853   35.0809   -3.8763 C   0  0  0  0  0  0  0  0  0  0  0  0
  -20.5803   38.4084   -2.1403 C   0  0  0  0  0  0  0  0  0  0  0  0
  -20.8522   38.2951   -3.5108 C   0  0  0  0  0  0  0  0  0  0  0  0
  -21.8080   39.1150   -4.1158 C   0  0  0  0  0  0  0  0  0  0  0  0
  -22.5021   40.0548   -3.3567 C   0  0  0  0  0  0  0  0  0  0  0  0
  -22.2409   40.1760   -1.9935 C   0  0  0  0  0  0  0  0  0  0  0  0
  -21.2856   39.3559   -1.3883 C   0  0  0  0  0  0  0  0  0  0  0  0
  -19.3927   37.7167    2.7894 O   0  0  0  0  0  0  0  0  0  0  0  0
  -18.2751   37.2460    2.6667 C   0  0  0  0  0  0  0  0  0  0  0  0
  -17.3474   37.3761    3.6303 O   0  0  0  0  0  0  0  0  0  0  0  0
  -16.4949   37.0055    3.5130 H   0  0  0  0  0  0  0  0  0  0  0  0
 23 24  2  0
 24 25  1  0
 24  1  1  0
  1  2  2  0
  2  3  1  0
  3  4  2  0
  4  5  1  0
  5  6  1  0
  6 11  1  0
 11 12  2  0
 12 13  1  0
 13 14  2  0
 14 15  1  0
 15 16  2  0
  6  7  2  0
  7 17  1  0
 17 18  2  0
 18 19  1  0
 19 20  2  0
 20 21  1  0
 21 22  2  0
  7  8  1  0
  8  9  1  0
  9  1  1  0
  9  5  2  0
 16 11  1  0
 22 17  1  0
 25 26  1  0
  8 10  1  0
M  END
> <minimizedAffinity>
-9.68969

> <CNNscore>
0.5783795118

> <CNNaffinity>
6.2810540199

> <CNN_VS>
3.6328330040

> <CNNaffinity_variance>
0.2011861950

$$$$



 26 29  0  0  0  0  0  0  0  0999 V2000
  -28.4247   47.3636    4.5266 C   0  0  0  0  0  0  0  0  0  0  0  0
  -29.6877   47.2650    3.9232 C   0  0  0  0  0  0  0  0  0  0  0  0
  -30.8529   47.4034    4.6756 C   0  0  0  0  0  0  0  0  0  0  0  0
  -30.7873   47.6479    6.0522 C   0  0  0  0  0  0  0  0  0  0  0  0
  -29.5305   47.7603    6.6854 C   0  0  0  0  0  0  0  0  0  0  0  0
  -29.1052   47.9974    8.0339 C   0  0  0  0  0  0  0  0  0  0  0  0
  -27.7136   47.9810    8.0534 C   0  0  0  0  0  0  0  0  0  0  0  0
  -27.3081   47.7494    6.7577 N   0  0  0  0  0  0  0  0  0  0  0  0
  -28.3836   47.6099    5.9102 C   0  0  0  0  0  0  0  0  0  0  0  0
  -26.3673   47.6910    6.4734 H   0  0  0  0  0  0  0  0  0  0  0  0
  -29.9397   48.2083    9.2079 C   0  0  0  0  0  0  0  0  0  0  0  0
  -30.4713   47.1097    9.8947 C   0  0  0  0  0  0  0  0  0  0  0  0
  -31.2683   47.3038   11.0247 C   0  0  0  0  0  0  0  0  0  0  0  0
  -31.5363   48.5957   11.4757 C   0  0  0  0  0  0  0  0  0  0  0  0
  -31.0081   49.6943   10.7989 C   0  0  0  0  0  0  0  0  0  0  0  0
  -30.2103   49.5022    9.6692 C   0  0  0  0  0  0  0  0  0  0  0  0
  -26.7353   48.1874    9.1240 C   0  0  0  0  0  0  0  0  0  0  0  0
  -25.7520   49.1794    9.0057 C   0  0  0  0  0  0  0  0  0  0  0  0
  -24.8215   49.3832   10.0277 C   0  0  0  0  0  0  0  0  0  0  0  0
  -24.8657   48.5984   11.1781 C   0  0  0  0  0  0  0  0  0  0  0  0
  -25.8390   47.6098   11.3073 C   0  0  0  0  0  0  0  0  0  0  0  0
  -26.7697   47.4063   10.2857 C   0  0  0  0  0  0  0  0  0  0  0  0
  -26.0486   47.4720    4.1987 O   0  0  0  0  0  0  0  0  0  0  0  0
  -27.1610   47.2149    3.7719 C   0  0  0  0  0  0  0  0  0  0  0  0
  -27.3460   46.7533    2.5234 O   0  0  0  0  0  0  0  0  0  0  0  0
  -28.2110   46.5626    2.2177 H   0  0  0  0  0  0  0  0  0  0  0  0
 23 24  2  0
 24 25  1  0
 24  1  1  0
  1  2  2  0
  2  3  1  0
  3  4  2  0
  4  5  1  0
  5  6  1  0
  6 11  1  0
 11 12  2  0
 12 13  1  0
 13 14  2  0
 14 15  1  0
 15 16  2  0
  6  7  2  0
  7 17  1  0
 17 18  2  0
 18 19  1  0
 19 20  2  0
 20 21  1  0
 21 22  2  0
  7  8  1  0
  8  9  1  0
  9  1  1  0
  9  5  2  0
 16 11  1  0
 22 17  1  0
 25 26  1  0
  8 10  1  0
M  END
> <minimizedAffinity>
-2.31586

> <CNNscore>
0.5486466885

> <CNNaffinity>
5.0665822029

> <CNN_VS>
2.7797634602

> <CNNaffinity_variance>
0.4357203543

$$$$



 26 29  0  0  0  0  0  0  0  0999 V2000
  -18.0100   36.7455    1.6957 C   0  0  0  0  0  0  0  0  0  0  0  0
  -17.2339   35.6113    1.9790 C   0  0  0  0  0  0  0  0  0  0  0  0
  -16.8544   34.7327    0.9657 C   0  0  0  0  0  0  0  0  0  0  0  0
  -17.2376   34.9659   -0.3602 C   0  0  0  0  0  0  0  0  0  0  0  0
  -18.0118   36.1033   -0.6767 C   0  0  0  0  0  0  0  0  0  0  0  0
  -18.5650   36.6336   -1.8885 C   0  0  0  0  0  0  0  0  0  0  0  0
  -19.2635   37.7942   -1.5684 C   0  0  0  0  0  0  0  0  0  0  0  0
  -19.1316   37.9663   -0.2083 N   0  0  0  0  0  0  0  0  0  0  0  0
  -18.3827   36.9593    0.3569 C   0  0  0  0  0  0  0  0  0  0  0  0
  -19.5237   38.7153    0.2961 H   0  0  0  0  0  0  0  0  0  0  0  0
  -18.4560   36.0860   -3.2328 C   0  0  0  0  0  0  0  0  0  0  0  0
  -19.5798   35.5265   -3.8533 C   0  0  0  0  0  0  0  0  0  0  0  0
  -19.4844   35.0040   -5.1448 C   0  0  0  0  0  0  0  0  0  0  0  0
  -18.2670   35.0398   -5.8235 C   0  0  0  0  0  0  0  0  0  0  0  0
  -17.1444   35.5978   -5.2133 C   0  0  0  0  0  0  0  0  0  0  0  0
  -17.2380   36.1215   -3.9223 C   0  0  0  0  0  0  0  0  0  0  0  0
  -20.0008   38.7632   -2.3829 C   0  0  0  0  0  0  0  0  0  0  0  0
  -21.3608   39.0037   -2.1427 C   0  0  0  0  0  0  0  0  0  0  0  0
  -22.0653   39.9318   -2.9134 C   0  0  0  0  0  0  0  0  0  0  0  0
  -21.4171   40.6293   -3.9306 C   0  0  0  0  0  0  0  0  0  0  0  0
  -20.0655   40.3993   -4.1782 C   0  0  0  0  0  0  0  0  0  0  0  0
  -19.3608   39.4716   -3.4072 C   0  0  0  0  0  0  0  0  0  0  0  0
  -19.4166   38.4331    2.6645 O   0  0  0  0  0  0  0  0  0  0  0  0
  -18.4447   37.7012    2.7379 C   0  0  0  0  0  0  0  0  0  0  0  0
  -17.6471   37.6976    3.8195 O   0  0  0  0  0  0  0  0  0  0  0  0
  -16.9055   37.1259    3.8528 H   0  0  0  0  0  0  0  0  0  0  0  0
 23 24  2  0
 24 25  1  0
 24  1  1  0
  1  2  2  0
  2  3  1  0
  3  4  2  0
  4  5  1  0
  5  6  1  0
  6 11  1  0
 11 12  2  0
 12 13  1  0
 13 14  2  0
 14 15  1  0
 15 16  2  0
  6  7  2  0
  7 17  1  0
 17 18  2  0
 18 19  1  0
 19 20  2  0
 20 21  1  0
 21 22  2  0
  7  8  1  0
  8  9  1  0
  9  1  1  0
  9  5  2  0
 16 11  1  0
 22 17  1  0
 25 26  1  0
  8 10  1  0
M  END
> <minimizedAffinity>
-9.27795

> <CNNscore>
0.4455887973

> <CNNaffinity>
6.2166018486

> <CNN_VS>
2.7700481415

> <CNNaffinity_variance>
0.1004960909

$$$$



 26 29  0  0  0  0  0  0  0  0999 V2000
  -22.8267   39.9283   -5.0077 C   0  0  0  0  0  0  0  0  0  0  0  0
  -22.7980   39.5968   -6.3709 C   0  0  0  0  0  0  0  0  0  0  0  0
  -21.8488   38.7071   -6.8711 C   0  0  0  0  0  0  0  0  0  0  0  0
  -20.9037   38.1213   -6.0210 C   0  0  0  0  0  0  0  0  0  0  0  0
  -20.9132   38.4295   -4.6433 C   0  0  0  0  0  0  0  0  0  0  0  0
  -20.1170   38.0276   -3.5207 C   0  0  0  0  0  0  0  0  0  0  0  0
  -20.5977   38.6907   -2.3953 C   0  0  0  0  0  0  0  0  0  0  0  0
  -21.6558   39.4633   -2.8200 N   0  0  0  0  0  0  0  0  0  0  0  0
  -21.8680   39.3273   -4.1731 C   0  0  0  0  0  0  0  0  0  0  0  0
  -22.1927   40.0402   -2.2300 H   0  0  0  0  0  0  0  0  0  0  0  0
  -18.9896   37.1067   -3.5114 C   0  0  0  0  0  0  0  0  0  0  0  0
  -17.7092   37.5653   -3.8451 C   0  0  0  0  0  0  0  0  0  0  0  0
  -16.6219   36.6891   -3.8332 C   0  0  0  0  0  0  0  0  0  0  0  0
  -16.8077   35.3516   -3.4858 C   0  0  0  0  0  0  0  0  0  0  0  0
  -18.0790   34.8884   -3.1496 C   0  0  0  0  0  0  0  0  0  0  0  0
  -19.1673   35.7631   -3.1602 C   0  0  0  0  0  0  0  0  0  0  0  0
  -20.2065   38.6582   -0.9840 C   0  0  0  0  0  0  0  0  0  0  0  0
  -19.0160   38.0308   -0.5914 C   0  0  0  0  0  0  0  0  0  0  0  0
  -18.6368   38.0037    0.7530 C   0  0  0  0  0  0  0  0  0  0  0  0
  -19.4430   38.6045    1.7175 C   0  0  0  0  0  0  0  0  0  0  0  0
  -20.6282   39.2318    1.3392 C   0  0  0  0  0  0  0  0  0  0  0  0
  -21.0072   39.2594   -0.0050 C   0  0  0  0  0  0  0  0  0  0  0  0
  -24.3590   40.7501   -3.3519 O   0  0  0  0  0  0  0  0  0  0  0  0
  -23.8083   40.8737   -4.4322 C   0  0  0  0  0  0  0  0  0  0  0  0
  -24.0551   41.9258   -5.2311 O   0  0  0  0  0  0  0  0  0  0  0  0
  -23.6195   41.9990   -6.0574 H   0  0  0  0  0  0  0  0  0  0  0  0
 23 24  2  0
 24 25  1  0
 24  1  1  0
  1  2  2  0
  2  3  1  0
  3  4  2  0
  4  5  1  0
  5  6  1  0
  6 11  1  0
 11 12  2  0
 12 13  1  0
 13 14  2  0
 14 15  1  0
 15 16  2  0
  6  7  2  0
  7 17  1  0
 17 18  2  0
 18 19  1  0
 19 20  2  0
 20 21  1  0
 21 22  2  0
  7  8  1  0
  8  9  1  0
  9  1  1  0
  9  5  2  0
 16 11  1  0
 22 17  1  0
 25 26  1  0
  8 10  1  0
M  END
> <minimizedAffinity>
-8.65318

> <CNNscore>
0.3984754086

> <CNNaffinity>
5.2040877342

> <CNN_VS>
2.0737009048

> <CNNaffinity_variance>
0.1811373830

$$$$
