


 35 35  0  0  0  0  0  0  0  0999 V2000
   38.7799    5.4292    6.9312 C   0  0  0  0  0  0  0  0  0  0  0  0
   39.4835    6.7446    9.0846 C   0  0  0  0  0  0  0  0  0  0  0  0
   39.2870    6.5507   10.4262 O   0  0  0  0  0  0  0  0  0  0  0  0
   38.5682    5.3906   10.6426 N   0  0  0  0  0  0  0  0  0  0  0  0
   38.3430    4.9027    9.4289 C   0  0  0  0  0  0  0  0  0  0  0  0
   38.8835    5.7015    8.3946 C   0  0  0  0  0  0  0  0  0  0  0  0
   39.6940    9.2408    9.4258 C   0  0  0  0  0  0  0  0  0  0  0  0
   40.2542    7.9928    8.7074 C   0  0  0  0  0  0  0  0  0  0  0  0
   41.7342    7.8549    9.1138 C   0  0  0  0  0  0  0  0  0  0  0  0
   40.1535    8.2222    7.1908 C   0  0  0  0  0  0  0  0  0  0  0  0
   37.6572    3.7483    9.2621 O   0  0  0  0  0  0  0  0  0  0  0  0
   37.6174    2.9424   10.4470 C   0  0  0  0  0  0  0  0  0  0  0  0
   36.1805    1.8864   10.2156 P   0  0  0  0  0  0  0  0  0  0  0  0
   35.0218    2.5631    9.5350 O   0  0  0  0  0  0  0  0  0  0  0  0
   36.6169    0.5415    9.4915 O   0  0  0  0  0  0  0  0  0  0  0  0
   35.7496    1.3703   11.6730 O   0  0  0  0  0  0  0  0  0  0  0  0
   36.9017    0.7397    8.5857 H   0  0  0  0  0  0  0  0  0  0  0  0
   35.4597    2.1241   12.2103 H   0  0  0  0  0  0  0  0  0  0  0  0
   39.2962    4.0111    6.5461 C   0  0  0  0  0  0  0  0  0  0  0  0
   40.5294    4.0621    5.7540 N   0  0  0  0  0  0  0  0  0  0  0  0
   40.3490    4.5469    4.8749 H   0  0  0  0  0  0  0  0  0  0  0  0
   40.8481    3.1128    5.5596 H   0  0  0  0  0  0  0  0  0  0  0  0
   38.1596    3.2043    5.8380 C   0  0  0  0  0  0  0  0  0  0  0  0
   38.2434    3.0873    4.2691 N   0  0  0  0  0  0  0  0  0  0  0  0
   38.8116    4.4768    3.7654 C   0  0  0  0  0  0  0  0  0  0  0  0
   39.2750    2.0614    3.8278 C   0  0  0  0  0  0  0  0  0  0  0  0
   36.8738    2.9626    3.6071 C   0  0  0  0  0  0  0  0  0  0  0  0
   36.0979    1.6270    3.4054 N   0  0  0  0  0  0  0  0  0  0  0  0
   36.7707    0.7347    2.3733 C   0  0  0  0  0  0  0  0  0  0  0  0
   36.2660    0.8979    4.7483 C   0  0  0  0  0  0  0  0  0  0  0  0
   34.6364    1.8893    3.0832 C   0  0  0  0  0  0  0  0  0  0  0  0
   33.5349    0.8403    3.2137 N   0  0  0  0  0  0  0  0  0  0  0  0
   32.4158    1.2915    2.2045 C   0  0  0  0  0  0  0  0  0  0  0  0
   33.9092   -0.5721    2.7692 C   0  0  0  0  0  0  0  0  0  0  0  0
   32.8359    0.7921    4.5746 C   0  0  0  0  0  0  0  0  0  0  0  0
  7  8  1  0
  8  9  1  0
  8 10  1  0
  8  2  1  0
  2  3  1  0
  3  4  1  0
  4  5  2  0
  5 11  1  0
 11 12  1  0
 12 13  1  0
 13 14  2  0
 13 15  1  0
 13 16  1  0
  5  6  1  0
  6  1  1  0
  1 19  1  0
 19 20  1  0
 19 23  1  0
 23 24  1  0
 24 25  1  0
 24 26  1  0
 24 27  1  0
 27 28  1  0
 28 29  1  0
 28 30  1  0
 28 31  1  0
 31 32  1  0
 32 33  1  0
 32 34  1  0
 32 35  1  0
  6  2  2  0
 15 17  1  0
 16 18  1  0
 20 21  1  0
 20 22  1  0
M  CHG 1  24   1
M  CHG 1  28   1
M  CHG 1  32   1
M  END
> <minimizedAffinity>
-6.40253

> <CNNscore>
0.6937376261

> <CNNaffinity>
6.7366347313

> <CNN_VS>
4.6734571457

> <CNNaffinity_variance>
0.4553688765

$$$$



 35 35  0  0  0  0  0  0  0  0999 V2000
   39.1604    6.2392    6.6151 C   0  0  0  0  0  0  0  0  0  0  0  0
   39.8614    7.2206    8.9406 C   0  0  0  0  0  0  0  0  0  0  0  0
   39.6645    6.8291   10.2382 O   0  0  0  0  0  0  0  0  0  0  0  0
   38.9470    5.6490   10.2793 N   0  0  0  0  0  0  0  0  0  0  0  0
   38.7229    5.3467    9.0064 C   0  0  0  0  0  0  0  0  0  0  0  0
   39.2629    6.2910    8.1027 C   0  0  0  0  0  0  0  0  0  0  0  0
   40.0498    9.6465    9.6267 C   0  0  0  0  0  0  0  0  0  0  0  0
   40.6308    8.5119    8.7536 C   0  0  0  0  0  0  0  0  0  0  0  0
   42.1040    8.3248    9.1645 C   0  0  0  0  0  0  0  0  0  0  0  0
   40.5558    8.9481    7.2815 C   0  0  0  0  0  0  0  0  0  0  0  0
   38.0386    4.2292    8.6694 O   0  0  0  0  0  0  0  0  0  0  0  0
   37.6411    3.4500    9.8051 C   0  0  0  0  0  0  0  0  0  0  0  0
   38.3983    1.8432    9.5262 P   0  0  0  0  0  0  0  0  0  0  0  0
   39.5410    1.5312   10.4539 O   0  0  0  0  0  0  0  0  0  0  0  0
   37.2785    0.7165    9.5319 O   0  0  0  0  0  0  0  0  0  0  0  0
   38.8963    1.8280    8.0004 O   0  0  0  0  0  0  0  0  0  0  0  0
   36.9022    0.6392   10.4226 H   0  0  0  0  0  0  0  0  0  0  0  0
   39.5942    2.4911    7.8815 H   0  0  0  0  0  0  0  0  0  0  0  0
   38.9571    4.7918    6.0771 C   0  0  0  0  0  0  0  0  0  0  0  0
   40.1813    3.9884    6.1601 N   0  0  0  0  0  0  0  0  0  0  0  0
   40.9043    4.4092    5.5765 H   0  0  0  0  0  0  0  0  0  0  0  0
   39.9892    3.0414    5.8335 H   0  0  0  0  0  0  0  0  0  0  0  0
   38.3658    4.8389    4.6305 C   0  0  0  0  0  0  0  0  0  0  0  0
   37.2455    3.7860    4.2868 N   0  0  0  0  0  0  0  0  0  0  0  0
   36.6429    3.3312    5.6786 C   0  0  0  0  0  0  0  0  0  0  0  0
   36.0783    4.4166    3.5442 C   0  0  0  0  0  0  0  0  0  0  0  0
   37.8005    2.5072    3.6652 C   0  0  0  0  0  0  0  0  0  0  0  0
   36.9403    1.2966    3.1952 N   0  0  0  0  0  0  0  0  0  0  0  0
   36.1179    0.7135    4.3344 C   0  0  0  0  0  0  0  0  0  0  0  0
   35.9189    1.9234    2.2324 C   0  0  0  0  0  0  0  0  0  0  0  0
   37.8010    0.2518    2.5052 C   0  0  0  0  0  0  0  0  0  0  0  0
   37.2385   -0.9432    1.7396 N   0  0  0  0  0  0  0  0  0  0  0  0
   36.7822   -1.9631    2.8469 C   0  0  0  0  0  0  0  0  0  0  0  0
   35.9778   -0.6719    0.9213 C   0  0  0  0  0  0  0  0  0  0  0  0
   38.2546   -1.7149    0.8939 C   0  0  0  0  0  0  0  0  0  0  0  0
  7  8  1  0
  8  9  1  0
  8 10  1  0
  8  2  1  0
  2  3  1  0
  3  4  1  0
  4  5  2  0
  5 11  1  0
 11 12  1  0
 12 13  1  0
 13 14  2  0
 13 15  1  0
 13 16  1  0
  5  6  1  0
  6  1  1  0
  1 19  1  0
 19 20  1  0
 19 23  1  0
 23 24  1  0
 24 25  1  0
 24 26  1  0
 24 27  1  0
 27 28  1  0
 28 29  1  0
 28 30  1  0
 28 31  1  0
 31 32  1  0
 32 33  1  0
 32 34  1  0
 32 35  1  0
  6  2  2  0
 15 17  1  0
 16 18  1  0
 20 21  1  0
 20 22  1  0
M  CHG 1  24   1
M  CHG 1  28   1
M  CHG 1  32   1
M  END
> <minimizedAffinity>
-6.67602

> <CNNscore>
0.6590912938

> <CNNaffinity>
6.7191834450

> <CNN_VS>
4.4285554886

> <CNNaffinity_variance>
0.4089624882

$$$$



 35 35  0  0  0  0  0  0  0  0999 V2000
   38.7509    6.2520    6.7598 C   0  0  0  0  0  0  0  0  0  0  0  0
   39.5026    7.2408    9.0662 C   0  0  0  0  0  0  0  0  0  0  0  0
   39.2530    6.9097   10.3716 O   0  0  0  0  0  0  0  0  0  0  0  0
   38.4329    5.7995   10.4361 N   0  0  0  0  0  0  0  0  0  0  0  0
   38.2013    5.4780    9.1692 C   0  0  0  0  0  0  0  0  0  0  0  0
   38.8361    6.3417    8.2468 C   0  0  0  0  0  0  0  0  0  0  0  0
   39.9574    9.6298    9.7574 C   0  0  0  0  0  0  0  0  0  0  0  0
   40.3864    8.4525    8.8535 C   0  0  0  0  0  0  0  0  0  0  0  0
   41.8504    8.1181    9.1991 C   0  0  0  0  0  0  0  0  0  0  0  0
   40.2920    8.9086    7.3885 C   0  0  0  0  0  0  0  0  0  0  0  0
   37.4253    4.4153    8.8545 O   0  0  0  0  0  0  0  0  0  0  0  0
   38.1667    3.1942    8.7351 C   0  0  0  0  0  0  0  0  0  0  0  0
   37.5397    2.1636   10.0685 P   0  0  0  0  0  0  0  0  0  0  0  0
   36.9337    0.8649    9.6105 O   0  0  0  0  0  0  0  0  0  0  0  0
   38.6719    1.9597   11.1638 O   0  0  0  0  0  0  0  0  0  0  0  0
   36.4512    3.0420   10.8558 O   0  0  0  0  0  0  0  0  0  0  0  0
   39.3937    1.4315   10.7883 H   0  0  0  0  0  0  0  0  0  0  0  0
   35.7012    3.2288   10.2696 H   0  0  0  0  0  0  0  0  0  0  0  0
   40.0202    5.6125    6.1230 C   0  0  0  0  0  0  0  0  0  0  0  0
   40.5329    6.3951    4.9936 N   0  0  0  0  0  0  0  0  0  0  0  0
   39.8300    6.4268    4.2550 H   0  0  0  0  0  0  0  0  0  0  0  0
   41.3827    5.9590    4.6357 H   0  0  0  0  0  0  0  0  0  0  0  0
   39.7328    4.1237    5.7416 C   0  0  0  0  0  0  0  0  0  0  0  0
   39.2647    3.8472    4.2629 N   0  0  0  0  0  0  0  0  0  0  0  0
   40.3745    4.4903    3.3346 C   0  0  0  0  0  0  0  0  0  0  0  0
   39.2855    2.3649    3.9256 C   0  0  0  0  0  0  0  0  0  0  0  0
   37.9773    4.5818    3.8985 C   0  0  0  0  0  0  0  0  0  0  0  0
   36.5481    3.9661    3.9667 N   0  0  0  0  0  0  0  0  0  0  0  0
   36.4990    2.5839    3.3333 C   0  0  0  0  0  0  0  0  0  0  0  0
   36.3183    3.7359    5.4692 C   0  0  0  0  0  0  0  0  0  0  0  0
   35.5179    4.9136    3.3755 C   0  0  0  0  0  0  0  0  0  0  0  0
   34.3391    4.4609    2.5174 N   0  0  0  0  0  0  0  0  0  0  0  0
   34.9822    3.9225    1.1866 C   0  0  0  0  0  0  0  0  0  0  0  0
   33.5367    3.2817    3.0633 C   0  0  0  0  0  0  0  0  0  0  0  0
   33.3909    5.5756    2.0688 C   0  0  0  0  0  0  0  0  0  0  0  0
  7  8  1  0
  8  9  1  0
  8 10  1  0
  8  2  1  0
  2  3  1  0
  3  4  1  0
  4  5  2  0
  5 11  1  0
 11 12  1  0
 12 13  1  0
 13 14  2  0
 13 15  1  0
 13 16  1  0
  5  6  1  0
  6  1  1  0
  1 19  1  0
 19 20  1  0
 19 23  1  0
 23 24  1  0
 24 25  1  0
 24 26  1  0
 24 27  1  0
 27 28  1  0
 28 29  1  0
 28 30  1  0
 28 31  1  0
 31 32  1  0
 32 33  1  0
 32 34  1  0
 32 35  1  0
  6  2  2  0
 15 17  1  0
 16 18  1  0
 20 21  1  0
 20 22  1  0
M  CHG 1  24   1
M  CHG 1  28   1
M  CHG 1  32   1
M  END
> <minimizedAffinity>
-6.53360

> <CNNscore>
0.5025802851

> <CNNaffinity>
6.7429027557

> <CNN_VS>
3.3888499737

> <CNNaffinity_variance>
0.2358630896

$$$$



 35 35  0  0  0  0  0  0  0  0999 V2000
   39.2946    5.7388    6.1632 C   0  0  0  0  0  0  0  0  0  0  0  0
   39.7640    6.7456    8.5356 C   0  0  0  0  0  0  0  0  0  0  0  0
   39.4804    6.3441    9.8140 O   0  0  0  0  0  0  0  0  0  0  0  0
   38.8131    5.1342    9.7996 N   0  0  0  0  0  0  0  0  0  0  0  0
   38.7052    4.8247    8.5133 C   0  0  0  0  0  0  0  0  0  0  0  0
   39.2751    5.7926    7.6542 C   0  0  0  0  0  0  0  0  0  0  0  0
   41.8843    8.0138    9.0717 C   0  0  0  0  0  0  0  0  0  0  0  0
   40.4899    8.0690    8.4086 C   0  0  0  0  0  0  0  0  0  0  0  0
   40.7009    8.4268    6.9247 C   0  0  0  0  0  0  0  0  0  0  0  0
   39.6713    9.1740    9.0958 C   0  0  0  0  0  0  0  0  0  0  0  0
   38.0986    3.6794    8.1246 O   0  0  0  0  0  0  0  0  0  0  0  0
   37.0396    3.2783    9.0035 C   0  0  0  0  0  0  0  0  0  0  0  0
   37.6891    1.8288    9.8462 P   0  0  0  0  0  0  0  0  0  0  0  0
   37.9897    2.0469   11.3043 O   0  0  0  0  0  0  0  0  0  0  0  0
   36.7267    0.5898    9.5971 O   0  0  0  0  0  0  0  0  0  0  0  0
   39.0196    1.3968    9.0592 O   0  0  0  0  0  0  0  0  0  0  0  0
   35.8767    0.7470   10.0372 H   0  0  0  0  0  0  0  0  0  0  0  0
   39.6878    2.0945    9.1465 H   0  0  0  0  0  0  0  0  0  0  0  0
   40.2021    4.5977    5.6152 C   0  0  0  0  0  0  0  0  0  0  0  0
   41.5183    5.0862    5.1911 N   0  0  0  0  0  0  0  0  0  0  0  0
   41.4039    5.7504    4.4254 H   0  0  0  0  0  0  0  0  0  0  0  0
   42.0877    4.3003    4.8773 H   0  0  0  0  0  0  0  0  0  0  0  0
   39.4557    3.8205    4.4825 C   0  0  0  0  0  0  0  0  0  0  0  0
   39.0418    2.3331    4.7958 N   0  0  0  0  0  0  0  0  0  0  0  0
   39.2786    1.5300    3.4518 C   0  0  0  0  0  0  0  0  0  0  0  0
   39.9721    1.6830    5.8073 C   0  0  0  0  0  0  0  0  0  0  0  0
   37.5513    2.1780    5.0856 C   0  0  0  0  0  0  0  0  0  0  0  0
   36.5251    1.4857    4.1400 N   0  0  0  0  0  0  0  0  0  0  0  0
   36.9066    0.0408    3.8554 C   0  0  0  0  0  0  0  0  0  0  0  0
   35.2412    1.4114    4.9822 C   0  0  0  0  0  0  0  0  0  0  0  0
   36.3226    2.2947    2.8699 C   0  0  0  0  0  0  0  0  0  0  0  0
   35.3332    3.4508    2.7463 N   0  0  0  0  0  0  0  0  0  0  0  0
   35.9992    4.6465    3.5217 C   0  0  0  0  0  0  0  0  0  0  0  0
   35.1104    3.9836    1.3325 C   0  0  0  0  0  0  0  0  0  0  0  0
   33.9870    3.2365    3.4425 C   0  0  0  0  0  0  0  0  0  0  0  0
  7  8  1  0
  8  9  1  0
  8 10  1  0
  8  2  1  0
  2  3  1  0
  3  4  1  0
  4  5  2  0
  5 11  1  0
 11 12  1  0
 12 13  1  0
 13 14  2  0
 13 15  1  0
 13 16  1  0
  5  6  1  0
  6  1  1  0
  1 19  1  0
 19 20  1  0
 19 23  1  0
 23 24  1  0
 24 25  1  0
 24 26  1  0
 24 27  1  0
 27 28  1  0
 28 29  1  0
 28 30  1  0
 28 31  1  0
 31 32  1  0
 32 33  1  0
 32 34  1  0
 32 35  1  0
  6  2  2  0
 15 17  1  0
 16 18  1  0
 20 21  1  0
 20 22  1  0
M  CHG 1  24   1
M  CHG 1  28   1
M  CHG 1  32   1
M  END
> <minimizedAffinity>
-6.92814

> <CNNscore>
0.4989489615

> <CNNaffinity>
6.4623012543

> <CNN_VS>
3.2243585587

> <CNNaffinity_variance>
0.1795694083

$$$$



 35 35  0  0  0  0  0  0  0  0999 V2000
   39.0853    5.4812    5.8913 C   0  0  0  0  0  0  0  0  0  0  0  0
   39.7132    6.4398    8.2470 C   0  0  0  0  0  0  0  0  0  0  0  0
   39.4872    6.0288    9.5339 O   0  0  0  0  0  0  0  0  0  0  0  0
   38.7834    4.8397    9.5407 N   0  0  0  0  0  0  0  0  0  0  0  0
   38.5964    4.5518    8.2585 C   0  0  0  0  0  0  0  0  0  0  0  0
   39.1483    5.5144    7.3817 C   0  0  0  0  0  0  0  0  0  0  0  0
   41.6520    7.8259    9.0903 C   0  0  0  0  0  0  0  0  0  0  0  0
   40.4713    7.7425    8.0972 C   0  0  0  0  0  0  0  0  0  0  0  0
   41.0565    7.8643    6.6769 C   0  0  0  0  0  0  0  0  0  0  0  0
   39.5259    8.9235    8.3702 C   0  0  0  0  0  0  0  0  0  0  0  0
   37.9349    3.4308    7.8892 O   0  0  0  0  0  0  0  0  0  0  0  0
   36.8054    3.1442    8.7241 C   0  0  0  0  0  0  0  0  0  0  0  0
   37.3094    1.7003    9.6698 P   0  0  0  0  0  0  0  0  0  0  0  0
   36.4543    0.4839    9.4398 O   0  0  0  0  0  0  0  0  0  0  0  0
   38.8544    1.4180    9.4313 O   0  0  0  0  0  0  0  0  0  0  0  0
   37.2707    2.1270   11.2166 O   0  0  0  0  0  0  0  0  0  0  0  0
   38.9952    1.1474    8.5105 H   0  0  0  0  0  0  0  0  0  0  0  0
   36.3569    2.3258   11.4744 H   0  0  0  0  0  0  0  0  0  0  0  0
   39.9972    4.3786    5.2761 C   0  0  0  0  0  0  0  0  0  0  0  0
   41.1790    4.9381    4.6119 N   0  0  0  0  0  0  0  0  0  0  0  0
   40.8843    5.5290    3.8346 H   0  0  0  0  0  0  0  0  0  0  0  0
   41.7624    4.1791    4.2599 H   0  0  0  0  0  0  0  0  0  0  0  0
   39.1571    3.4573    4.3327 C   0  0  0  0  0  0  0  0  0  0  0  0
   39.0830    1.9303    4.7132 N   0  0  0  0  0  0  0  0  0  0  0  0
   39.3771    1.1398    3.3731 C   0  0  0  0  0  0  0  0  0  0  0  0
   40.2013    1.5231    5.6593 C   0  0  0  0  0  0  0  0  0  0  0  0
   37.6827    1.4872    5.1284 C   0  0  0  0  0  0  0  0  0  0  0  0
   36.3639    1.9123    4.4166 N   0  0  0  0  0  0  0  0  0  0  0  0
   35.1414    1.2963    5.0802 C   0  0  0  0  0  0  0  0  0  0  0  0
   36.2649    3.4206    4.6965 C   0  0  0  0  0  0  0  0  0  0  0  0
   36.4286    1.6163    2.9277 C   0  0  0  0  0  0  0  0  0  0  0  0
   35.9256    0.3211    2.2951 N   0  0  0  0  0  0  0  0  0  0  0  0
   36.5569    0.2950    0.8545 C   0  0  0  0  0  0  0  0  0  0  0  0
   36.4105   -0.9692    2.9527 C   0  0  0  0  0  0  0  0  0  0  0  0
   34.4147    0.2522    2.0598 C   0  0  0  0  0  0  0  0  0  0  0  0
  7  8  1  0
  8  9  1  0
  8 10  1  0
  8  2  1  0
  2  3  1  0
  3  4  1  0
  4  5  2  0
  5 11  1  0
 11 12  1  0
 12 13  1  0
 13 14  2  0
 13 15  1  0
 13 16  1  0
  5  6  1  0
  6  1  1  0
  1 19  1  0
 19 20  1  0
 19 23  1  0
 23 24  1  0
 24 25  1  0
 24 26  1  0
 24 27  1  0
 27 28  1  0
 28 29  1  0
 28 30  1  0
 28 31  1  0
 31 32  1  0
 32 33  1  0
 32 34  1  0
 32 35  1  0
  6  2  2  0
 15 17  1  0
 16 18  1  0
 20 21  1  0
 20 22  1  0
M  CHG 1  24   1
M  CHG 1  28   1
M  CHG 1  32   1
M  END
> <minimizedAffinity>
-6.66651

> <CNNscore>
0.3642506003

> <CNNaffinity>
6.1900134087

> <CNN_VS>
2.2547161579

> <CNNaffinity_variance>
0.1360635012

$$$$



 35 35  0  0  0  0  0  0  0  0999 V2000
   36.0156    6.1096    5.3445 C   0  0  0  0  0  0  0  0  0  0  0  0
   37.6707    4.5503    4.0440 C   0  0  0  0  0  0  0  0  0  0  0  0
   37.5305    3.6640    3.0092 O   0  0  0  0  0  0  0  0  0  0  0  0
   36.2164    3.6281    2.5836 N   0  0  0  0  0  0  0  0  0  0  0  0
   35.5849    4.4934    3.3675 C   0  0  0  0  0  0  0  0  0  0  0  0
   36.4318    5.1112    4.3167 C   0  0  0  0  0  0  0  0  0  0  0  0
   40.1405    4.5837    3.5046 C   0  0  0  0  0  0  0  0  0  0  0  0
   39.0685    4.6794    4.6132 C   0  0  0  0  0  0  0  0  0  0  0  0
   39.2439    6.0452    5.3048 C   0  0  0  0  0  0  0  0  0  0  0  0
   39.3188    3.5507    5.6263 C   0  0  0  0  0  0  0  0  0  0  0  0
   34.2588    4.7197    3.2231 O   0  0  0  0  0  0  0  0  0  0  0  0
   33.9577    5.6374    2.1637 C   0  0  0  0  0  0  0  0  0  0  0  0
   33.0050    4.6624    0.9912 P   0  0  0  0  0  0  0  0  0  0  0  0
   31.5276    4.9465    1.0106 O   0  0  0  0  0  0  0  0  0  0  0  0
   33.6376    4.8029   -0.4591 O   0  0  0  0  0  0  0  0  0  0  0  0
   33.2829    3.1209    1.3418 O   0  0  0  0  0  0  0  0  0  0  0  0
   33.5239    5.7131   -0.7747 H   0  0  0  0  0  0  0  0  0  0  0  0
   32.9309    2.9213    2.2234 H   0  0  0  0  0  0  0  0  0  0  0  0
   35.5533    5.4448    6.6750 C   0  0  0  0  0  0  0  0  0  0  0  0
   34.5962    4.3561    6.4519 N   0  0  0  0  0  0  0  0  0  0  0  0
   33.7541    4.7283    6.0130 H   0  0  0  0  0  0  0  0  0  0  0  0
   34.3533    3.9285    7.3455 H   0  0  0  0  0  0  0  0  0  0  0  0
   35.0067    6.5347    7.6536 C   0  0  0  0  0  0  0  0  0  0  0  0
   35.8307    6.7814    8.9735 N   0  0  0  0  0  0  0  0  0  0  0  0
   35.8784    8.3529    9.1616 C   0  0  0  0  0  0  0  0  0  0  0  0
   35.1047    6.2633   10.2047 C   0  0  0  0  0  0  0  0  0  0  0  0
   37.2922    6.3584    8.8510 C   0  0  0  0  0  0  0  0  0  0  0  0
   38.3488    6.4571    9.9913 N   0  0  0  0  0  0  0  0  0  0  0  0
   37.8864    7.3785   11.1100 C   0  0  0  0  0  0  0  0  0  0  0  0
   38.3628    5.0466   10.6025 C   0  0  0  0  0  0  0  0  0  0  0  0
   39.7097    6.8486    9.4407 C   0  0  0  0  0  0  0  0  0  0  0  0
   40.1135    8.2835    9.1111 N   0  0  0  0  0  0  0  0  0  0  0  0
   39.6590    8.5068    7.6218 C   0  0  0  0  0  0  0  0  0  0  0  0
   39.3927    9.3728    9.9024 C   0  0  0  0  0  0  0  0  0  0  0  0
   41.6202    8.5533    9.1033 C   0  0  0  0  0  0  0  0  0  0  0  0
  7  8  1  0
  8  9  1  0
  8 10  1  0
  8  2  1  0
  2  3  1  0
  3  4  1  0
  4  5  2  0
  5 11  1  0
 11 12  1  0
 12 13  1  0
 13 14  2  0
 13 15  1  0
 13 16  1  0
  5  6  1  0
  6  1  1  0
  1 19  1  0
 19 20  1  0
 19 23  1  0
 23 24  1  0
 24 25  1  0
 24 26  1  0
 24 27  1  0
 27 28  1  0
 28 29  1  0
 28 30  1  0
 28 31  1  0
 31 32  1  0
 32 33  1  0
 32 34  1  0
 32 35  1  0
  6  2  2  0
 15 17  1  0
 16 18  1  0
 20 21  1  0
 20 22  1  0
M  CHG 1  24   1
M  CHG 1  28   1
M  CHG 1  32   1
M  END
> <minimizedAffinity>
-5.83523

> <CNNscore>
0.1837033182

> <CNNaffinity>
4.9905629158

> <CNN_VS>
0.9167829752

> <CNNaffinity_variance>
0.7160100341

$$$$



 35 35  0  0  0  0  0  0  0  0999 V2000
   36.9835    5.3360    8.1368 C   0  0  0  0  0  0  0  0  0  0  0  0
   36.5694    2.8508    8.8542 C   0  0  0  0  0  0  0  0  0  0  0  0
   37.1552    1.6557    8.5309 O   0  0  0  0  0  0  0  0  0  0  0  0
   38.1927    1.8558    7.6406 N   0  0  0  0  0  0  0  0  0  0  0  0
   38.2170    3.1679    7.4413 C   0  0  0  0  0  0  0  0  0  0  0  0
   37.2220    3.8634    8.1665 C   0  0  0  0  0  0  0  0  0  0  0  0
   35.5573    3.7912   10.9715 C   0  0  0  0  0  0  0  0  0  0  0  0
   35.4056    2.7717    9.8205 C   0  0  0  0  0  0  0  0  0  0  0  0
   34.0828    3.0895    9.0970 C   0  0  0  0  0  0  0  0  0  0  0  0
   35.3363    1.3620   10.4296 C   0  0  0  0  0  0  0  0  0  0  0  0
   39.1299    3.7264    6.6134 O   0  0  0  0  0  0  0  0  0  0  0  0
   38.6440    3.8990    5.2759 C   0  0  0  0  0  0  0  0  0  0  0  0
   39.7212    2.8625    4.2766 P   0  0  0  0  0  0  0  0  0  0  0  0
   40.5654    1.9042    5.0721 O   0  0  0  0  0  0  0  0  0  0  0  0
   38.8694    2.1384    3.1480 O   0  0  0  0  0  0  0  0  0  0  0  0
   40.6524    3.8539    3.4244 O   0  0  0  0  0  0  0  0  0  0  0  0
   38.2609    1.5045    3.5589 H   0  0  0  0  0  0  0  0  0  0  0  0
   41.2250    4.3559    4.0252 H   0  0  0  0  0  0  0  0  0  0  0  0
   35.8177    5.7365    7.1847 C   0  0  0  0  0  0  0  0  0  0  0  0
   36.2969    6.3635    5.9486 N   0  0  0  0  0  0  0  0  0  0  0  0
   36.7887    7.2281    6.1743 H   0  0  0  0  0  0  0  0  0  0  0  0
   35.5028    6.5722    5.3433 H   0  0  0  0  0  0  0  0  0  0  0  0
   34.7865    6.6280    7.9505 C   0  0  0  0  0  0  0  0  0  0  0  0
   35.3543    7.9042    8.6791 N   0  0  0  0  0  0  0  0  0  0  0  0
   35.4614    9.0228    7.5636 C   0  0  0  0  0  0  0  0  0  0  0  0
   34.3741    8.4627    9.6983 C   0  0  0  0  0  0  0  0  0  0  0  0
   36.7832    7.7166    9.1821 C   0  0  0  0  0  0  0  0  0  0  0  0
   37.4842    8.6222   10.2379 N   0  0  0  0  0  0  0  0  0  0  0  0
   36.5920    9.7749   10.6732 C   0  0  0  0  0  0  0  0  0  0  0  0
   37.6126    7.7155   11.4727 C   0  0  0  0  0  0  0  0  0  0  0  0
   38.8397    9.0927    9.7382 C   0  0  0  0  0  0  0  0  0  0  0  0
   39.7338    8.2763    8.8082 N   0  0  0  0  0  0  0  0  0  0  0  0
   41.1000    9.0548    8.7633 C   0  0  0  0  0  0  0  0  0  0  0  0
   40.1018    6.8786    9.3015 C   0  0  0  0  0  0  0  0  0  0  0  0
   39.2741    8.2117    7.3496 C   0  0  0  0  0  0  0  0  0  0  0  0
  7  8  1  0
  8  9  1  0
  8 10  1  0
  8  2  1  0
  2  3  1  0
  3  4  1  0
  4  5  2  0
  5 11  1  0
 11 12  1  0
 12 13  1  0
 13 14  2  0
 13 15  1  0
 13 16  1  0
  5  6  1  0
  6  1  1  0
  1 19  1  0
 19 20  1  0
 19 23  1  0
 23 24  1  0
 24 25  1  0
 24 26  1  0
 24 27  1  0
 27 28  1  0
 28 29  1  0
 28 30  1  0
 28 31  1  0
 31 32  1  0
 32 33  1  0
 32 34  1  0
 32 35  1  0
  6  2  2  0
 15 17  1  0
 16 18  1  0
 20 21  1  0
 20 22  1  0
M  CHG 1  24   1
M  CHG 1  28   1
M  CHG 1  32   1
M  END
> <minimizedAffinity>
-6.02083

> <CNNscore>
0.1719203144

> <CNNaffinity>
5.3997263908

> <CNN_VS>
0.9283226728

> <CNNaffinity_variance>
0.4679467678

$$$$



 35 35  0  0  0  0  0  0  0  0999 V2000
   35.6189    3.7613    6.4462 C   0  0  0  0  0  0  0  0  0  0  0  0
   38.2028    3.9864    6.0786 C   0  0  0  0  0  0  0  0  0  0  0  0
   39.2765    4.1198    6.9185 O   0  0  0  0  0  0  0  0  0  0  0  0
   38.8582    4.1169    8.2355 N   0  0  0  0  0  0  0  0  0  0  0  0
   37.5394    3.9811    8.1695 C   0  0  0  0  0  0  0  0  0  0  0  0
   37.0502    3.8976    6.8452 C   0  0  0  0  0  0  0  0  0  0  0  0
   37.3354    4.5115    3.7627 C   0  0  0  0  0  0  0  0  0  0  0  0
   38.5233    3.9842    4.5982 C   0  0  0  0  0  0  0  0  0  0  0  0
   39.7302    4.8971    4.3075 C   0  0  0  0  0  0  0  0  0  0  0  0
   38.8372    2.5505    4.1409 C   0  0  0  0  0  0  0  0  0  0  0  0
   36.7904    3.9329    9.2952 O   0  0  0  0  0  0  0  0  0  0  0  0
   37.2307    2.9304   10.2204 C   0  0  0  0  0  0  0  0  0  0  0  0
   35.8595    1.7699   10.3009 P   0  0  0  0  0  0  0  0  0  0  0  0
   34.5592    2.3153    9.7760 O   0  0  0  0  0  0  0  0  0  0  0  0
   36.2755    0.4024    9.6078 O   0  0  0  0  0  0  0  0  0  0  0  0
   35.7067    1.3445   11.8410 O   0  0  0  0  0  0  0  0  0  0  0  0
   36.3965    0.5459    8.6562 H   0  0  0  0  0  0  0  0  0  0  0  0
   35.4499    2.1185   12.3663 H   0  0  0  0  0  0  0  0  0  0  0  0
   35.1846    2.2766    6.2651 C   0  0  0  0  0  0  0  0  0  0  0  0
   36.2306    1.3348    6.6772 N   0  0  0  0  0  0  0  0  0  0  0  0
   37.0544    1.4632    6.0897 H   0  0  0  0  0  0  0  0  0  0  0  0
   35.8869    0.3797    6.5768 H   0  0  0  0  0  0  0  0  0  0  0  0
   34.7045    2.0370    4.7967 C   0  0  0  0  0  0  0  0  0  0  0  0
   33.3091    1.3292    4.6124 N   0  0  0  0  0  0  0  0  0  0  0  0
   33.5858   -0.2188    4.7979 C   0  0  0  0  0  0  0  0  0  0  0  0
   32.3364    1.6873    5.7247 C   0  0  0  0  0  0  0  0  0  0  0  0
   32.7574    1.4600    3.1953 C   0  0  0  0  0  0  0  0  0  0  0  0
   31.7119    0.5010    2.5521 N   0  0  0  0  0  0  0  0  0  0  0  0
   30.5973    0.1479    3.5253 C   0  0  0  0  0  0  0  0  0  0  0  0
   31.0476    1.3587    1.4629 C   0  0  0  0  0  0  0  0  0  0  0  0
   32.3870   -0.7294    1.9699 C   0  0  0  0  0  0  0  0  0  0  0  0
   31.6475   -1.8232    1.2034 N   0  0  0  0  0  0  0  0  0  0  0  0
   32.2050   -1.7447   -0.2654 C   0  0  0  0  0  0  0  0  0  0  0  0
   31.9352   -3.2551    1.6498 C   0  0  0  0  0  0  0  0  0  0  0  0
   30.1381   -1.6139    1.0590 C   0  0  0  0  0  0  0  0  0  0  0  0
  7  8  1  0
  8  9  1  0
  8 10  1  0
  8  2  1  0
  2  3  1  0
  3  4  1  0
  4  5  2  0
  5 11  1  0
 11 12  1  0
 12 13  1  0
 13 14  2  0
 13 15  1  0
 13 16  1  0
  5  6  1  0
  6  1  1  0
  1 19  1  0
 19 20  1  0
 19 23  1  0
 23 24  1  0
 24 25  1  0
 24 26  1  0
 24 27  1  0
 27 28  1  0
 28 29  1  0
 28 30  1  0
 28 31  1  0
 31 32  1  0
 32 33  1  0
 32 34  1  0
 32 35  1  0
  6  2  2  0
 15 17  1  0
 16 18  1  0
 20 21  1  0
 20 22  1  0
M  CHG 1  24   1
M  CHG 1  28   1
M  CHG 1  32   1
M  END
> <minimizedAffinity>
-5.52455

> <CNNscore>
0.1694334298

> <CNNaffinity>
4.8855590820

> <CNN_VS>
0.8277770281

> <CNNaffinity_variance>
0.2403684407

$$$$



 35 35  0  0  0  0  0  0  0  0999 V2000
   37.7645    3.7290    6.8209 C   0  0  0  0  0  0  0  0  0  0  0  0
   38.7467    5.8492    8.0050 C   0  0  0  0  0  0  0  0  0  0  0  0
   39.1993    6.1094    9.2713 O   0  0  0  0  0  0  0  0  0  0  0  0
   39.1116    4.9743   10.0543 N   0  0  0  0  0  0  0  0  0  0  0  0
   38.6083    4.0474    9.2484 C   0  0  0  0  0  0  0  0  0  0  0  0
   38.3467    4.5225    7.9424 C   0  0  0  0  0  0  0  0  0  0  0  0
   39.4618    8.2517    7.6760 C   0  0  0  0  0  0  0  0  0  0  0  0
   38.7801    7.0184    7.0425 C   0  0  0  0  0  0  0  0  0  0  0  0
   39.5794    6.6512    5.7773 C   0  0  0  0  0  0  0  0  0  0  0  0
   37.3446    7.4065    6.6529 C   0  0  0  0  0  0  0  0  0  0  0  0
   38.3902    2.7878    9.6916 O   0  0  0  0  0  0  0  0  0  0  0  0
   37.4344    2.7252   10.7581 C   0  0  0  0  0  0  0  0  0  0  0  0
   36.1562    1.6205   10.1424 P   0  0  0  0  0  0  0  0  0  0  0  0
   36.6684    0.5219    9.2510 O   0  0  0  0  0  0  0  0  0  0  0  0
   35.2930    1.0720   11.3579 O   0  0  0  0  0  0  0  0  0  0  0  0
   35.0995    2.5348    9.3527 O   0  0  0  0  0  0  0  0  0  0  0  0
   35.8436    0.4965   11.9117 H   0  0  0  0  0  0  0  0  0  0  0  0
   35.5283    2.9274    8.5762 H   0  0  0  0  0  0  0  0  0  0  0  0
   38.7086    2.5877    6.3393 C   0  0  0  0  0  0  0  0  0  0  0  0
   40.0192    3.0897    5.9137 N   0  0  0  0  0  0  0  0  0  0  0  0
   39.9013    3.7156    5.1170 H   0  0  0  0  0  0  0  0  0  0  0  0
   40.6128    2.3050    5.6446 H   0  0  0  0  0  0  0  0  0  0  0  0
   38.0002    1.7417    5.2316 C   0  0  0  0  0  0  0  0  0  0  0  0
   37.1214    2.5306    4.1889 N   0  0  0  0  0  0  0  0  0  0  0  0
   35.7941    2.9240    4.9575 C   0  0  0  0  0  0  0  0  0  0  0  0
   37.7531    3.8571    3.7980 C   0  0  0  0  0  0  0  0  0  0  0  0
   36.6549    1.6612    3.0243 C   0  0  0  0  0  0  0  0  0  0  0  0
   35.9460    0.2816    3.1680 N   0  0  0  0  0  0  0  0  0  0  0  0
   35.2871    0.1257    4.5302 C   0  0  0  0  0  0  0  0  0  0  0  0
   34.7879    0.3568    2.1597 C   0  0  0  0  0  0  0  0  0  0  0  0
   36.9002   -0.8571    2.8496 C   0  0  0  0  0  0  0  0  0  0  0  0
   37.6787   -0.9742    1.5416 N   0  0  0  0  0  0  0  0  0  0  0  0
   39.0753   -0.3120    1.8336 C   0  0  0  0  0  0  0  0  0  0  0  0
   38.0115   -2.3960    1.0939 C   0  0  0  0  0  0  0  0  0  0  0  0
   37.1071   -0.1765    0.3669 C   0  0  0  0  0  0  0  0  0  0  0  0
  7  8  1  0
  8  9  1  0
  8 10  1  0
  8  2  1  0
  2  3  1  0
  3  4  1  0
  4  5  2  0
  5 11  1  0
 11 12  1  0
 12 13  1  0
 13 14  2  0
 13 15  1  0
 13 16  1  0
  5  6  1  0
  6  1  1  0
  1 19  1  0
 19 20  1  0
 19 23  1  0
 23 24  1  0
 24 25  1  0
 24 26  1  0
 24 27  1  0
 27 28  1  0
 28 29  1  0
 28 30  1  0
 28 31  1  0
 31 32  1  0
 32 33  1  0
 32 34  1  0
 32 35  1  0
  6  2  2  0
 15 17  1  0
 16 18  1  0
 20 21  1  0
 20 22  1  0
M  CHG 1  24   1
M  CHG 1  28   1
M  CHG 1  32   1
M  END
> <minimizedAffinity>
-5.83064

> <CNNscore>
0.0877320617

> <CNNaffinity>
5.6019310951

> <CNN_VS>
0.4914689660

> <CNNaffinity_variance>
0.1965952665

$$$$
