


 24 26  0  0  0  0  0  0  0  0999 V2000
   58.2826   63.4579   23.8284 C   0  0  0  0  0  0  0  0  0  0  0  0
   56.9228   64.1155   23.5926 C   0  0  0  0  0  0  0  0  0  0  0  0
   57.1716   64.8361   22.2674 C   0  0  0  0  0  0  0  0  0  0  0  0
   58.4998   65.3849   22.3921 O   0  0  0  0  0  0  0  0  0  0  0  0
   59.2273   64.5742   23.3502 C   0  0  0  0  0  0  0  0  0  0  0  0
   59.6916   65.4254   24.4438 N   0  0  0  0  0  0  0  0  0  0  0  0
   58.9584   66.3444   25.1565 C   0  0  0  0  0  0  0  0  0  0  0  0
   59.7927   66.9239   26.0899 C   0  0  0  0  0  0  0  0  0  0  0  0
   61.0787   66.3347   25.9455 C   0  0  0  0  0  0  0  0  0  0  0  0
   62.3319   66.4671   26.5590 C   0  0  0  0  0  0  0  0  0  0  0  0
   62.5878   67.3383   27.6062 N   0  0  0  0  0  0  0  0  0  0  0  0
   63.3512   65.6988   26.1283 N   0  0  0  0  0  0  0  0  0  0  0  0
   63.1221   64.8428   25.1142 C   0  0  0  0  0  0  0  0  0  0  0  0
   61.9707   64.6226   24.4542 N   0  0  0  0  0  0  0  0  0  0  0  0
   60.9835   65.4099   24.9150 C   0  0  0  0  0  0  0  0  0  0  0  0
   61.8703   67.9176   27.9512 H   0  0  0  0  0  0  0  0  0  0  0  0
   63.4869   67.3779   28.0052 H   0  0  0  0  0  0  0  0  0  0  0  0
   59.7335   62.0465   22.5698 C   0  0  0  0  0  0  0  0  0  0  0  0
   58.4008   62.2788   23.0099 O   0  0  0  0  0  0  0  0  0  0  0  0
   55.8027   63.2414   23.5079 O   0  0  0  0  0  0  0  0  0  0  0  0
   55.5622   62.7615   22.1929 C   0  0  0  0  0  0  0  0  0  0  0  0
   56.1390   65.9382   22.0174 C   0  0  0  0  0  0  0  0  0  0  0  0
   55.5965   66.8245   23.5282 S   0  0  0  0  0  0  0  0  0  0  0  0
   56.2413   68.4789   23.1786 C   0  0  0  0  0  0  0  0  0  0  0  0
 18 19  1  0
  1 19  1  0
  1  2  1  0
  2 20  1  0
 20 21  1  0
  2  3  1  0
  3 22  1  0
 22 23  1  0
 23 24  1  0
  3  4  1  0
  4  5  1  0
  5  6  1  0
  6  7  1  0
  7  8  2  0
  8  9  1  0
  9 10  2  0
 10 11  1  0
 10 12  1  0
 12 13  2  0
 13 14  1  0
 14 15  2  0
  5  1  1  0
 15  6  1  0
 15  9  1  0
 11 16  1  0
 11 17  1  0
M  END
> <minimizedAffinity>
-5.20044

> <CNNscore>
0.3827352524

> <CNNaffinity>
4.2163295746

> <CNN_VS>
1.6137379408

> <CNNaffinity_variance>
1.1067774296

$$$$



 24 26  0  0  0  0  0  0  0  0999 V2000
   60.2731   64.0769   24.9085 C   0  0  0  0  0  0  0  0  0  0  0  0
   58.7449   64.0898   24.9508 C   0  0  0  0  0  0  0  0  0  0  0  0
   58.4417   65.3814   24.1912 C   0  0  0  0  0  0  0  0  0  0  0  0
   59.4277   66.3236   24.6612 O   0  0  0  0  0  0  0  0  0  0  0  0
   60.5781   65.5697   25.1223 C   0  0  0  0  0  0  0  0  0  0  0  0
   60.8354   65.8965   26.5233 N   0  0  0  0  0  0  0  0  0  0  0  0
   59.9181   65.9794   27.5441 C   0  0  0  0  0  0  0  0  0  0  0  0
   60.5937   66.3188   28.6978 C   0  0  0  0  0  0  0  0  0  0  0  0
   61.9721   66.4427   28.3714 C   0  0  0  0  0  0  0  0  0  0  0  0
   63.1546   66.7539   29.0563 C   0  0  0  0  0  0  0  0  0  0  0  0
   63.2072   67.0351   30.4125 N   0  0  0  0  0  0  0  0  0  0  0  0
   64.3165   66.7683   28.3745 N   0  0  0  0  0  0  0  0  0  0  0  0
   64.2873   66.4938   27.0564 C   0  0  0  0  0  0  0  0  0  0  0  0
   63.2246   66.1770   26.2950 N   0  0  0  0  0  0  0  0  0  0  0  0
   62.0891   66.1759   27.0145 C   0  0  0  0  0  0  0  0  0  0  0  0
   62.3808   67.0351   30.9477 H   0  0  0  0  0  0  0  0  0  0  0  0
   64.0709   67.2349   30.8407 H   0  0  0  0  0  0  0  0  0  0  0  0
   61.4889   62.4315   23.6855 C   0  0  0  0  0  0  0  0  0  0  0  0
   60.7196   63.6261   23.6156 O   0  0  0  0  0  0  0  0  0  0  0  0
   58.0856   62.9733   24.3640 O   0  0  0  0  0  0  0  0  0  0  0  0
   57.7797   63.1596   22.9895 C   0  0  0  0  0  0  0  0  0  0  0  0
   57.0218   65.8828   24.4670 C   0  0  0  0  0  0  0  0  0  0  0  0
   56.2091   66.6834   23.0314 S   0  0  0  0  0  0  0  0  0  0  0  0
   55.8243   68.3024   23.7423 C   0  0  0  0  0  0  0  0  0  0  0  0
 18 19  1  0
  1 19  1  0
  1  2  1  0
  2 20  1  0
 20 21  1  0
  2  3  1  0
  3 22  1  0
 22 23  1  0
 23 24  1  0
  3  4  1  0
  4  5  1  0
  5  6  1  0
  6  7  1  0
  7  8  2  0
  8  9  1  0
  9 10  2  0
 10 11  1  0
 10 12  1  0
 12 13  2  0
 13 14  1  0
 14 15  2  0
  5  1  1  0
 15  6  1  0
 15  9  1  0
 11 16  1  0
 11 17  1  0
M  END
> <minimizedAffinity>
-4.93024

> <CNNscore>
0.3357764184

> <CNNaffinity>
4.2733244896

> <CNN_VS>
1.4348815680

> <CNNaffinity_variance>
0.5962994695

$$$$



 24 26  0  0  0  0  0  0  0  0999 V2000
   58.5286   63.8836   24.3230 C   0  0  0  0  0  0  0  0  0  0  0  0
   58.8142   65.3822   24.2241 C   0  0  0  0  0  0  0  0  0  0  0  0
   57.4847   65.9660   24.7027 C   0  0  0  0  0  0  0  0  0  0  0  0
   56.4774   65.1336   24.0918 O   0  0  0  0  0  0  0  0  0  0  0  0
   57.0719   63.8365   23.8300 C   0  0  0  0  0  0  0  0  0  0  0  0
   56.9702   63.5418   22.4022 N   0  0  0  0  0  0  0  0  0  0  0  0
   55.8575   63.1210   21.7130 C   0  0  0  0  0  0  0  0  0  0  0  0
   56.2113   62.9600   20.3895 C   0  0  0  0  0  0  0  0  0  0  0  0
   57.5866   63.2992   20.2651 C   0  0  0  0  0  0  0  0  0  0  0  0
   58.5313   63.3497   19.2310 C   0  0  0  0  0  0  0  0  0  0  0  0
   58.2458   63.0350   17.9117 N   0  0  0  0  0  0  0  0  0  0  0  0
   59.7885   63.7405   19.5172 N   0  0  0  0  0  0  0  0  0  0  0  0
   60.0853   64.0544   20.7928 C   0  0  0  0  0  0  0  0  0  0  0  0
   59.2698   64.0512   21.8626 N   0  0  0  0  0  0  0  0  0  0  0  0
   58.0289   63.6545   21.5317 C   0  0  0  0  0  0  0  0  0  0  0  0
   57.3392   62.7450   17.6600 H   0  0  0  0  0  0  0  0  0  0  0  0
   58.9494   63.1014   17.2264 H   0  0  0  0  0  0  0  0  0  0  0  0
   58.9630   62.0786   25.8178 C   0  0  0  0  0  0  0  0  0  0  0  0
   58.6365   63.4577   25.6945 O   0  0  0  0  0  0  0  0  0  0  0  0
   59.9057   65.8712   24.9956 O   0  0  0  0  0  0  0  0  0  0  0  0
   61.1541   65.3026   24.6271 C   0  0  0  0  0  0  0  0  0  0  0  0
   57.3227   67.4291   24.2827 C   0  0  0  0  0  0  0  0  0  0  0  0
   55.7340   67.8058   23.4481 S   0  0  0  0  0  0  0  0  0  0  0  0
   55.6939   69.6057   23.6317 C   0  0  0  0  0  0  0  0  0  0  0  0
 18 19  1  0
  1 19  1  0
  1  2  1  0
  2 20  1  0
 20 21  1  0
  2  3  1  0
  3 22  1  0
 22 23  1  0
 23 24  1  0
  3  4  1  0
  4  5  1  0
  5  6  1  0
  6  7  1  0
  7  8  2  0
  8  9  1  0
  9 10  2  0
 10 11  1  0
 10 12  1  0
 12 13  2  0
 13 14  1  0
 14 15  2  0
  5  1  1  0
 15  6  1  0
 15  9  1  0
 11 16  1  0
 11 17  1  0
M  END
> <minimizedAffinity>
-4.87900

> <CNNscore>
0.3285950124

> <CNNaffinity>
4.2376637459

> <CNN_VS>
1.3924751282

> <CNNaffinity_variance>
0.9071092606

$$$$



 24 26  0  0  0  0  0  0  0  0999 V2000
   56.8880   63.6937   22.9539 C   0  0  0  0  0  0  0  0  0  0  0  0
   57.3335   65.0744   23.4359 C   0  0  0  0  0  0  0  0  0  0  0  0
   56.2957   65.9700   22.7589 C   0  0  0  0  0  0  0  0  0  0  0  0
   56.1380   65.4143   21.4371 O   0  0  0  0  0  0  0  0  0  0  0  0
   56.4975   64.0102   21.4997 C   0  0  0  0  0  0  0  0  0  0  0  0
   57.5831   63.7508   20.5562 N   0  0  0  0  0  0  0  0  0  0  0  0
   58.7044   64.5168   20.3413 C   0  0  0  0  0  0  0  0  0  0  0  0
   59.4579   63.9041   19.3616 C   0  0  0  0  0  0  0  0  0  0  0  0
   58.7756   62.7203   18.9681 C   0  0  0  0  0  0  0  0  0  0  0  0
   58.9893   61.6809   18.0525 C   0  0  0  0  0  0  0  0  0  0  0  0
   60.1015   61.5966   17.2297 N   0  0  0  0  0  0  0  0  0  0  0  0
   58.0787   60.6915   17.9677 N   0  0  0  0  0  0  0  0  0  0  0  0
   56.9927   60.7529   18.7616 C   0  0  0  0  0  0  0  0  0  0  0  0
   56.6820   61.6882   19.6772 N   0  0  0  0  0  0  0  0  0  0  0  0
   57.6153   62.6543   19.7268 C   0  0  0  0  0  0  0  0  0  0  0  0
   60.7908   62.2988   17.2604 H   0  0  0  0  0  0  0  0  0  0  0  0
   60.2021   60.8346   16.6146 H   0  0  0  0  0  0  0  0  0  0  0  0
   54.8695   62.4262   22.9739 C   0  0  0  0  0  0  0  0  0  0  0  0
   55.7522   63.2537   23.7222 O   0  0  0  0  0  0  0  0  0  0  0  0
   57.3563   65.2765   24.8446 O   0  0  0  0  0  0  0  0  0  0  0  0
   58.6473   65.5902   25.3468 C   0  0  0  0  0  0  0  0  0  0  0  0
   56.7588   67.4277   22.6946 C   0  0  0  0  0  0  0  0  0  0  0  0
   55.9927   68.5217   23.9510 S   0  0  0  0  0  0  0  0  0  0  0  0
   56.4837   70.1408   23.3089 C   0  0  0  0  0  0  0  0  0  0  0  0
 18 19  1  0
  1 19  1  0
  1  2  1  0
  2 20  1  0
 20 21  1  0
  2  3  1  0
  3 22  1  0
 22 23  1  0
 23 24  1  0
  3  4  1  0
  4  5  1  0
  5  6  1  0
  6  7  1  0
  7  8  2  0
  8  9  1  0
  9 10  2  0
 10 11  1  0
 10 12  1  0
 12 13  2  0
 13 14  1  0
 14 15  2  0
  5  1  1  0
 15  6  1  0
 15  9  1  0
 11 16  1  0
 11 17  1  0
M  END
> <minimizedAffinity>
-5.03022

> <CNNscore>
0.2932966053

> <CNNaffinity>
4.6057047844

> <CNN_VS>
1.3508375883

> <CNNaffinity_variance>
1.0257228613

$$$$



 24 26  0  0  0  0  0  0  0  0999 V2000
   57.0364   62.2558   23.0432 C   0  0  0  0  0  0  0  0  0  0  0  0
   57.3679   63.7427   23.1719 C   0  0  0  0  0  0  0  0  0  0  0  0
   56.0630   64.3766   22.6895 C   0  0  0  0  0  0  0  0  0  0  0  0
   55.6593   63.5724   21.5621 O   0  0  0  0  0  0  0  0  0  0  0  0
   56.2393   62.2530   21.7273 C   0  0  0  0  0  0  0  0  0  0  0  0
   57.0716   61.9463   20.5657 N   0  0  0  0  0  0  0  0  0  0  0  0
   56.8310   61.0086   19.5894 C   0  0  0  0  0  0  0  0  0  0  0  0
   57.8754   61.0527   18.6894 C   0  0  0  0  0  0  0  0  0  0  0  0
   58.7828   62.0555   19.1285 C   0  0  0  0  0  0  0  0  0  0  0  0
   60.0019   62.5871   18.6861 C   0  0  0  0  0  0  0  0  0  0  0  0
   60.6519   62.1681   17.5358 N   0  0  0  0  0  0  0  0  0  0  0  0
   60.5785   63.5734   19.4000 N   0  0  0  0  0  0  0  0  0  0  0  0
   59.9608   63.9974   20.5190 C   0  0  0  0  0  0  0  0  0  0  0  0
   58.7945   63.5734   21.0382 N   0  0  0  0  0  0  0  0  0  0  0  0
   58.2563   62.5904   20.2959 C   0  0  0  0  0  0  0  0  0  0  0  0
   60.2643   61.4499   16.9852 H   0  0  0  0  0  0  0  0  0  0  0  0
   61.5012   62.5888   17.2694 H   0  0  0  0  0  0  0  0  0  0  0  0
   55.2601   60.8563   23.7963 C   0  0  0  0  0  0  0  0  0  0  0  0
   56.2212   61.8416   24.1558 O   0  0  0  0  0  0  0  0  0  0  0  0
   57.7212   64.2027   24.4716 O   0  0  0  0  0  0  0  0  0  0  0  0
   59.0370   64.7330   24.5420 C   0  0  0  0  0  0  0  0  0  0  0  0
   56.2582   65.8397   22.2837 C   0  0  0  0  0  0  0  0  0  0  0  0
   55.6171   67.0545   23.4985 S   0  0  0  0  0  0  0  0  0  0  0  0
   55.7928   68.5835   22.5466 C   0  0  0  0  0  0  0  0  0  0  0  0
 18 19  1  0
  1 19  1  0
  1  2  1  0
  2 20  1  0
 20 21  1  0
  2  3  1  0
  3 22  1  0
 22 23  1  0
 23 24  1  0
  3  4  1  0
  4  5  1  0
  5  6  1  0
  6  7  1  0
  7  8  2  0
  8  9  1  0
  9 10  2  0
 10 11  1  0
 10 12  1  0
 12 13  2  0
 13 14  1  0
 14 15  2  0
  5  1  1  0
 15  6  1  0
 15  9  1  0
 11 16  1  0
 11 17  1  0
M  END
> <minimizedAffinity>
-4.31440

> <CNNscore>
0.2880183458

> <CNNaffinity>
4.2367305756

> <CNN_VS>
1.2202560902

> <CNNaffinity_variance>
0.9985391498

$$$$



 24 26  0  0  0  0  0  0  0  0999 V2000
   60.4637   63.6483   22.9850 C   0  0  0  0  0  0  0  0  0  0  0  0
   59.8847   64.9236   23.5979 C   0  0  0  0  0  0  0  0  0  0  0  0
   58.5342   64.4179   24.1054 C   0  0  0  0  0  0  0  0  0  0  0  0
   58.0539   63.5448   23.0624 O   0  0  0  0  0  0  0  0  0  0  0  0
   59.2058   63.0465   22.3348 C   0  0  0  0  0  0  0  0  0  0  0  0
   59.0743   63.4062   20.9244 N   0  0  0  0  0  0  0  0  0  0  0  0
   58.1721   64.2802   20.3655 C   0  0  0  0  0  0  0  0  0  0  0  0
   58.3995   64.3158   19.0054 C   0  0  0  0  0  0  0  0  0  0  0  0
   59.4814   63.4369   18.7246 C   0  0  0  0  0  0  0  0  0  0  0  0
   60.1870   63.0253   17.5856 C   0  0  0  0  0  0  0  0  0  0  0  0
   59.9207   63.4879   16.3065 N   0  0  0  0  0  0  0  0  0  0  0  0
   61.1949   62.1429   17.7287 N   0  0  0  0  0  0  0  0  0  0  0  0
   61.4721   61.6843   18.9642 C   0  0  0  0  0  0  0  0  0  0  0  0
   60.8752   62.0069   20.1258 N   0  0  0  0  0  0  0  0  0  0  0  0
   59.8770   62.8869   19.9358 C   0  0  0  0  0  0  0  0  0  0  0  0
   59.1925   64.1337   16.1582 H   0  0  0  0  0  0  0  0  0  0  0  0
   60.4597   63.1707   15.5462 H   0  0  0  0  0  0  0  0  0  0  0  0
   60.8226   61.4146   23.7353 C   0  0  0  0  0  0  0  0  0  0  0  0
   60.9779   62.7981   24.0276 O   0  0  0  0  0  0  0  0  0  0  0  0
   60.6419   65.5246   24.6425 O   0  0  0  0  0  0  0  0  0  0  0  0
   60.1945   65.1626   25.9411 C   0  0  0  0  0  0  0  0  0  0  0  0
   57.5557   65.5676   24.3586 C   0  0  0  0  0  0  0  0  0  0  0  0
   55.9922   65.4548   23.4072 S   0  0  0  0  0  0  0  0  0  0  0  0
   56.1303   66.9419   22.3853 C   0  0  0  0  0  0  0  0  0  0  0  0
 18 19  1  0
  1 19  1  0
  1  2  1  0
  2 20  1  0
 20 21  1  0
  2  3  1  0
  3 22  1  0
 22 23  1  0
 23 24  1  0
  3  4  1  0
  4  5  1  0
  5  6  1  0
  6  7  1  0
  7  8  2  0
  8  9  1  0
  9 10  2  0
 10 11  1  0
 10 12  1  0
 12 13  2  0
 13 14  1  0
 14 15  2  0
  5  1  1  0
 15  6  1  0
 15  9  1  0
 11 16  1  0
 11 17  1  0
M  END
> <minimizedAffinity>
-4.17654

> <CNNscore>
0.2130647153

> <CNNaffinity>
3.9769804478

> <CNN_VS>
0.8473542333

> <CNNaffinity_variance>
1.1051834822

$$$$



 24 26  0  0  0  0  0  0  0  0999 V2000
   59.8881   63.1170   23.7983 C   0  0  0  0  0  0  0  0  0  0  0  0
   59.9091   64.6436   23.7193 C   0  0  0  0  0  0  0  0  0  0  0  0
   58.8185   65.0042   24.7282 C   0  0  0  0  0  0  0  0  0  0  0  0
   57.7705   64.0407   24.4957 O   0  0  0  0  0  0  0  0  0  0  0  0
   58.3761   62.8571   23.9152 C   0  0  0  0  0  0  0  0  0  0  0  0
   57.7506   62.5831   22.6231 N   0  0  0  0  0  0  0  0  0  0  0  0
   58.3406   62.6305   21.3822 C   0  0  0  0  0  0  0  0  0  0  0  0
   57.3843   62.3056   20.4427 C   0  0  0  0  0  0  0  0  0  0  0  0
   56.1693   62.0457   21.1342 C   0  0  0  0  0  0  0  0  0  0  0  0
   54.8619   61.6778   20.7884 C   0  0  0  0  0  0  0  0  0  0  0  0
   54.4455   61.4499   19.4861 N   0  0  0  0  0  0  0  0  0  0  0  0
   53.9511   61.5166   21.7679 N   0  0  0  0  0  0  0  0  0  0  0  0
   54.3368   61.7296   23.0405 C   0  0  0  0  0  0  0  0  0  0  0  0
   55.5545   62.0767   23.4947 N   0  0  0  0  0  0  0  0  0  0  0  0
   56.4292   62.2277   22.4853 C   0  0  0  0  0  0  0  0  0  0  0  0
   55.0798   61.5565   18.7408 H   0  0  0  0  0  0  0  0  0  0  0  0
   53.5156   61.1813   19.3066 H   0  0  0  0  0  0  0  0  0  0  0  0
   61.6602   61.7899   24.6813 C   0  0  0  0  0  0  0  0  0  0  0  0
   60.5919   62.6816   24.9770 O   0  0  0  0  0  0  0  0  0  0  0  0
   61.1432   65.2773   24.0375 O   0  0  0  0  0  0  0  0  0  0  0  0
   61.2760   65.5889   25.4169 C   0  0  0  0  0  0  0  0  0  0  0  0
   58.3097   66.4341   24.5279 C   0  0  0  0  0  0  0  0  0  0  0  0
   57.1763   66.6418   23.1015 S   0  0  0  0  0  0  0  0  0  0  0  0
   55.6727   67.1677   23.9602 C   0  0  0  0  0  0  0  0  0  0  0  0
 18 19  1  0
  1 19  1  0
  1  2  1  0
  2 20  1  0
 20 21  1  0
  2  3  1  0
  3 22  1  0
 22 23  1  0
 23 24  1  0
  3  4  1  0
  4  5  1  0
  5  6  1  0
  6  7  1  0
  7  8  2  0
  8  9  1  0
  9 10  2  0
 10 11  1  0
 10 12  1  0
 12 13  2  0
 13 14  1  0
 14 15  2  0
  5  1  1  0
 15  6  1  0
 15  9  1  0
 11 16  1  0
 11 17  1  0
M  END
> <minimizedAffinity>
-4.48902

> <CNNscore>
0.1807614863

> <CNNaffinity>
4.1337757111

> <CNN_VS>
0.7472274303

> <CNNaffinity_variance>
0.8134186864

$$$$



 24 26  0  0  0  0  0  0  0  0999 V2000
   59.0310   64.0034   24.5398 C   0  0  0  0  0  0  0  0  0  0  0  0
   59.0467   65.5124   24.7843 C   0  0  0  0  0  0  0  0  0  0  0  0
   57.5582   65.8428   24.6729 C   0  0  0  0  0  0  0  0  0  0  0  0
   57.0886   65.0503   23.5629 O   0  0  0  0  0  0  0  0  0  0  0  0
   57.9677   63.9038   23.4322 C   0  0  0  0  0  0  0  0  0  0  0  0
   58.5502   63.8965   22.0918 N   0  0  0  0  0  0  0  0  0  0  0  0
   59.6317   64.6195   21.6468 C   0  0  0  0  0  0  0  0  0  0  0  0
   59.8326   64.3112   20.3173 C   0  0  0  0  0  0  0  0  0  0  0  0
   58.8427   63.3633   19.9387 C   0  0  0  0  0  0  0  0  0  0  0  0
   58.4973   62.6650   18.7736 C   0  0  0  0  0  0  0  0  0  0  0  0
   59.1823   62.7825   17.5744 N   0  0  0  0  0  0  0  0  0  0  0  0
   57.4526   61.8151   18.8104 N   0  0  0  0  0  0  0  0  0  0  0  0
   56.7762   61.6837   19.9675 C   0  0  0  0  0  0  0  0  0  0  0  0
   57.0139   62.2898   21.1446 N   0  0  0  0  0  0  0  0  0  0  0  0
   58.0617   63.1277   21.0615 C   0  0  0  0  0  0  0  0  0  0  0  0
   59.9518   63.3926   17.5047 H   0  0  0  0  0  0  0  0  0  0  0  0
   58.8993   62.2558   16.7922 H   0  0  0  0  0  0  0  0  0  0  0  0
   58.6671   61.9054   25.6110 C   0  0  0  0  0  0  0  0  0  0  0  0
   58.6123   63.3213   25.7372 O   0  0  0  0  0  0  0  0  0  0  0  0
   59.5851   65.9468   26.0281 O   0  0  0  0  0  0  0  0  0  0  0  0
   60.9837   66.1901   25.9813 C   0  0  0  0  0  0  0  0  0  0  0  0
   57.3245   67.3352   24.4252 C   0  0  0  0  0  0  0  0  0  0  0  0
   55.8056   67.7158   23.4711 S   0  0  0  0  0  0  0  0  0  0  0  0
   55.6510   69.4872   23.8069 C   0  0  0  0  0  0  0  0  0  0  0  0
 18 19  1  0
  1 19  1  0
  1  2  1  0
  2 20  1  0
 20 21  1  0
  2  3  1  0
  3 22  1  0
 22 23  1  0
 23 24  1  0
  3  4  1  0
  4  5  1  0
  5  6  1  0
  6  7  1  0
  7  8  2  0
  8  9  1  0
  9 10  2  0
 10 11  1  0
 10 12  1  0
 12 13  2  0
 13 14  1  0
 14 15  2  0
  5  1  1  0
 15  6  1  0
 15  9  1  0
 11 16  1  0
 11 17  1  0
M  END
> <minimizedAffinity>
-4.68451

> <CNNscore>
0.1672724634

> <CNNaffinity>
4.0184845924

> <CNN_VS>
0.6721818447

> <CNNaffinity_variance>
0.8768520355

$$$$



 24 26  0  0  0  0  0  0  0  0999 V2000
   58.1549   66.2201   24.1411 C   0  0  0  0  0  0  0  0  0  0  0  0
   58.2207   65.2628   22.9510 C   0  0  0  0  0  0  0  0  0  0  0  0
   57.8060   63.9471   23.6101 C   0  0  0  0  0  0  0  0  0  0  0  0
   58.4791   63.9477   24.8859 O   0  0  0  0  0  0  0  0  0  0  0  0
   58.7245   65.3282   25.2580 C   0  0  0  0  0  0  0  0  0  0  0  0
   60.1592   65.5232   25.4573 N   0  0  0  0  0  0  0  0  0  0  0  0
   61.1828   65.0734   24.6572 C   0  0  0  0  0  0  0  0  0  0  0  0
   62.3745   65.4786   25.2215 C   0  0  0  0  0  0  0  0  0  0  0  0
   62.0679   66.2055   26.4045 C   0  0  0  0  0  0  0  0  0  0  0  0
   62.7907   66.8650   27.4080 C   0  0  0  0  0  0  0  0  0  0  0  0
   64.1737   66.9541   27.4282 N   0  0  0  0  0  0  0  0  0  0  0  0
   62.1159   67.4653   28.4077 N   0  0  0  0  0  0  0  0  0  0  0  0
   60.7711   67.3936   28.4042 C   0  0  0  0  0  0  0  0  0  0  0  0
   59.9711   66.8001   27.5002 N   0  0  0  0  0  0  0  0  0  0  0  0
   60.6852   66.2141   26.5237 C   0  0  0  0  0  0  0  0  0  0  0  0
   64.7048   66.5293   26.7163 H   0  0  0  0  0  0  0  0  0  0  0  0
   64.6250   67.4421   28.1544 H   0  0  0  0  0  0  0  0  0  0  0  0
   56.5209   67.9553   24.1466 C   0  0  0  0  0  0  0  0  0  0  0  0
   56.7848   66.5806   24.3997 O   0  0  0  0  0  0  0  0  0  0  0  0
   57.3870   65.5746   21.8405 O   0  0  0  0  0  0  0  0  0  0  0  0
   56.1554   64.8670   21.8458 C   0  0  0  0  0  0  0  0  0  0  0  0
   58.2166   62.7360   22.7686 C   0  0  0  0  0  0  0  0  0  0  0  0
   59.8220   62.9246   21.9029 S   0  0  0  0  0  0  0  0  0  0  0  0
   59.2645   62.8890   20.1816 C   0  0  0  0  0  0  0  0  0  0  0  0
 18 19  1  0
  1 19  1  0
  1  2  1  0
  2 20  1  0
 20 21  1  0
  2  3  1  0
  3 22  1  0
 22 23  1  0
 23 24  1  0
  3  4  1  0
  4  5  1  0
  5  6  1  0
  6  7  1  0
  7  8  2  0
  8  9  1  0
  9 10  2  0
 10 11  1  0
 10 12  1  0
 12 13  2  0
 13 14  1  0
 14 15  2  0
  5  1  1  0
 15  6  1  0
 15  9  1  0
 11 16  1  0
 11 17  1  0
M  END
> <minimizedAffinity>
-5.19528

> <CNNscore>
0.1631094366

> <CNNaffinity>
3.7334969044

> <CNN_VS>
0.6089685559

> <CNNaffinity_variance>
1.7531534433

$$$$
