


 27 28  0  0  0  0  0  0  0  0999 V2000
   -4.0422   10.9498   31.0122 C   0  0  0  0  0  0  0  0  0  0  0  0
   -4.0745   10.4473   29.5598 C   0  0  0  0  0  0  0  0  0  0  0  0
   -2.6457    9.9740   29.3629 C   0  0  0  0  0  0  0  0  0  0  0  0
   -1.8272   11.1372   29.2010 O   0  0  0  0  0  0  0  0  0  0  0  0
   -0.4231   10.8783   29.3238 C   0  0  0  0  0  0  0  0  0  0  0  0
   -0.0715   10.2994   30.6967 C   0  0  0  0  0  0  0  0  0  0  0  0
   -0.2579   11.2613   31.7415 O   0  0  0  0  0  0  0  0  0  0  0  0
   -0.9186    9.0541   30.9707 C   0  0  0  0  0  0  0  0  0  0  0  0
   -0.7310    8.6058   32.3141 O   0  0  0  0  0  0  0  0  0  0  0  0
   -2.4027    9.2809   30.6927 C   0  0  0  0  0  0  0  0  0  0  0  0
   -3.0320   10.1299   31.6776 O   0  0  0  0  0  0  0  0  0  0  0  0
   -1.1912   11.5234   31.7770 H   0  0  0  0  0  0  0  0  0  0  0  0
   -1.0350    9.2914   32.9292 H   0  0  0  0  0  0  0  0  0  0  0  0
   -3.5695   12.4124   31.0970 C   0  0  0  0  0  0  0  0  0  0  0  0
   -2.7858   12.8648   31.9193 O   0  0  0  0  0  0  0  0  0  0  0  0
   -4.0604   13.2126   30.1274 O   0  0  0  0  0  0  0  0  0  0  0  0
   -4.6612   12.8690   29.4958 H   0  0  0  0  0  0  0  0  0  0  0  0
   -5.3427   10.6968   31.7985 C   0  0  0  0  0  0  0  0  0  0  0  0
   -6.6772   10.8919   31.0481 C   0  0  0  0  0  0  0  0  0  0  0  0
   -7.7118   10.1539   31.7594 N   0  0  0  0  0  0  0  0  0  0  0  0
   -7.4525    9.1687   31.8104 H   0  0  0  0  0  0  0  0  0  0  0  0
   -8.5980   10.2470   31.2631 H   0  0  0  0  0  0  0  0  0  0  0  0
   -6.4738   10.4593   29.5594 C   0  0  0  0  0  0  0  0  0  0  0  0
   -8.6493   11.6210   29.2717 C   0  0  0  0  0  0  0  0  0  0  0  0
   -7.6959   10.6075   28.6176 N   0  0  0  0  0  0  0  0  0  0  0  0
   -7.3084   11.1705   27.2553 C   0  0  0  0  0  0  0  0  0  0  0  0
   -8.4491    9.2968   28.4446 C   0  0  0  0  0  0  0  0  0  0  0  0
 24 25  1  0
 25 26  1  0
 25 27  1  0
 25 23  1  0
 23 19  1  0
 19 20  1  0
 19 18  1  0
  1 18  1  0
  1 14  1  0
 14 15  2  0
 14 16  1  0
  1  2  1  0
  3  2  1  0
  3  4  1  0
  4  5  1  0
  5  6  1  0
  6  7  1  0
  6  8  1  0
  8  9  1  0
  8 10  1  0
 10 11  1  0
 11  1  1  0
 10  3  1  0
 20 21  1  0
 20 22  1  0
 16 17  1  0
  7 12  1  0
  9 13  1  0
M  CHG 1  25   1
M  END
> <minimizedAffinity>
-2.19740

> <CNNscore>
0.5563200712

> <CNNaffinity>
4.0039892197

> <CNN_VS>
2.2274994850

> <CNNaffinity_variance>
0.1214476451

$$$$



 27 28  0  0  0  0  0  0  0  0999 V2000
   -3.3012   12.9020   31.0582 C   0  0  0  0  0  0  0  0  0  0  0  0
   -3.7565   12.0944   32.2843 C   0  0  0  0  0  0  0  0  0  0  0  0
   -2.7375   10.9697   32.3115 C   0  0  0  0  0  0  0  0  0  0  0  0
   -3.0855   10.0507   31.2705 O   0  0  0  0  0  0  0  0  0  0  0  0
   -2.0501    9.1101   30.9591 C   0  0  0  0  0  0  0  0  0  0  0  0
   -0.7691    9.8097   30.4973 C   0  0  0  0  0  0  0  0  0  0  0  0
   -0.9415   10.4472   29.2263 O   0  0  0  0  0  0  0  0  0  0  0  0
   -0.3275   10.8350   31.5447 C   0  0  0  0  0  0  0  0  0  0  0  0
    0.7613   11.6179   31.0521 O   0  0  0  0  0  0  0  0  0  0  0  0
   -1.4692   11.7435   31.9946 C   0  0  0  0  0  0  0  0  0  0  0  0
   -1.8564   12.6974   30.9812 O   0  0  0  0  0  0  0  0  0  0  0  0
   -1.6257   11.1311   29.2978 H   0  0  0  0  0  0  0  0  0  0  0  0
    0.4726   12.1199   30.2740 H   0  0  0  0  0  0  0  0  0  0  0  0
   -3.9093   12.3496   29.7563 C   0  0  0  0  0  0  0  0  0  0  0  0
   -4.4907   11.2809   29.6351 O   0  0  0  0  0  0  0  0  0  0  0  0
   -3.8013   13.1783   28.6966 O   0  0  0  0  0  0  0  0  0  0  0  0
   -3.3563   13.9980   28.7863 H   0  0  0  0  0  0  0  0  0  0  0  0
   -3.4815   14.4254   31.2012 C   0  0  0  0  0  0  0  0  0  0  0  0
   -2.2297   15.3101   31.0207 C   0  0  0  0  0  0  0  0  0  0  0  0
   -1.5121   15.3476   32.2874 N   0  0  0  0  0  0  0  0  0  0  0  0
   -2.1260   15.7131   33.0153 H   0  0  0  0  0  0  0  0  0  0  0  0
   -0.6947   15.9511   32.1973 H   0  0  0  0  0  0  0  0  0  0  0  0
   -2.6861   16.7075   30.4878 C   0  0  0  0  0  0  0  0  0  0  0  0
   -2.7058   19.1695   30.8092 C   0  0  0  0  0  0  0  0  0  0  0  0
   -1.8082   17.9231   30.8799 N   0  0  0  0  0  0  0  0  0  0  0  0
   -1.2913   17.8231   32.3103 C   0  0  0  0  0  0  0  0  0  0  0  0
   -0.6459   18.1252   29.9189 C   0  0  0  0  0  0  0  0  0  0  0  0
 24 25  1  0
 25 26  1  0
 25 27  1  0
 25 23  1  0
 23 19  1  0
 19 20  1  0
 19 18  1  0
  1 18  1  0
  1 14  1  0
 14 15  2  0
 14 16  1  0
  1  2  1  0
  3  2  1  0
  3  4  1  0
  4  5  1  0
  5  6  1  0
  6  7  1  0
  6  8  1  0
  8  9  1  0
  8 10  1  0
 10 11  1  0
 11  1  1  0
 10  3  1  0
 20 21  1  0
 20 22  1  0
 16 17  1  0
  7 12  1  0
  9 13  1  0
M  CHG 1  25   1
M  END
> <minimizedAffinity>
-1.81765

> <CNNscore>
0.4451402426

> <CNNaffinity>
3.6921513081

> <CNN_VS>
1.6435251236

> <CNNaffinity_variance>
0.6178373694

$$$$



 27 28  0  0  0  0  0  0  0  0999 V2000
  -17.1224    7.5697   28.3189 C   0  0  0  0  0  0  0  0  0  0  0  0
  -18.3850    8.3920   28.6237 C   0  0  0  0  0  0  0  0  0  0  0  0
  -19.1636    7.4454   29.5192 C   0  0  0  0  0  0  0  0  0  0  0  0
  -19.7287    6.4309   28.6821 O   0  0  0  0  0  0  0  0  0  0  0  0
  -20.2209    5.2942   29.4026 C   0  0  0  0  0  0  0  0  0  0  0  0
  -19.1132    4.6110   30.2087 C   0  0  0  0  0  0  0  0  0  0  0  0
  -18.1445    3.9882   29.3572 O   0  0  0  0  0  0  0  0  0  0  0  0
  -18.4307    5.6295   31.1254 C   0  0  0  0  0  0  0  0  0  0  0  0
  -17.2843    5.0512   31.7517 O   0  0  0  0  0  0  0  0  0  0  0  0
  -18.0409    6.9107   30.3919 C   0  0  0  0  0  0  0  0  0  0  0  0
  -16.9257    6.7225   29.4931 O   0  0  0  0  0  0  0  0  0  0  0  0
  -17.7169    4.6627   28.8065 H   0  0  0  0  0  0  0  0  0  0  0  0
  -16.6350    4.8058   31.0742 H   0  0  0  0  0  0  0  0  0  0  0  0
  -17.3302    6.6356   27.1131 C   0  0  0  0  0  0  0  0  0  0  0  0
  -16.8527    5.5174   26.9833 O   0  0  0  0  0  0  0  0  0  0  0  0
  -18.1561    7.1262   26.1652 O   0  0  0  0  0  0  0  0  0  0  0  0
  -18.5236    7.9828   26.2617 H   0  0  0  0  0  0  0  0  0  0  0  0
  -15.8333    8.4063   28.2100 C   0  0  0  0  0  0  0  0  0  0  0  0
  -15.1086    8.4226   26.8474 C   0  0  0  0  0  0  0  0  0  0  0  0
  -15.6345    7.3315   26.0388 N   0  0  0  0  0  0  0  0  0  0  0  0
  -15.4922    6.4473   26.5271 H   0  0  0  0  0  0  0  0  0  0  0  0
  -15.1480    7.3072   25.1427 H   0  0  0  0  0  0  0  0  0  0  0  0
  -13.5681    8.3583   27.1072 C   0  0  0  0  0  0  0  0  0  0  0  0
  -12.9185    8.8359   24.7588 C   0  0  0  0  0  0  0  0  0  0  0  0
  -12.6733    9.2577   26.2169 N   0  0  0  0  0  0  0  0  0  0  0  0
  -13.0474   10.7312   26.3267 C   0  0  0  0  0  0  0  0  0  0  0  0
  -11.1934    9.0721   26.5179 C   0  0  0  0  0  0  0  0  0  0  0  0
 24 25  1  0
 25 26  1  0
 25 27  1  0
 25 23  1  0
 23 19  1  0
 19 20  1  0
 19 18  1  0
  1 18  1  0
  1 14  1  0
 14 15  2  0
 14 16  1  0
  1  2  1  0
  3  2  1  0
  3  4  1  0
  4  5  1  0
  5  6  1  0
  6  7  1  0
  6  8  1  0
  8  9  1  0
  8 10  1  0
 10 11  1  0
 11  1  1  0
 10  3  1  0
 20 21  1  0
 20 22  1  0
 16 17  1  0
  7 12  1  0
  9 13  1  0
M  CHG 1  25   1
M  END
> <minimizedAffinity>
-3.38380

> <CNNscore>
0.3410344422

> <CNNaffinity>
4.5578098297

> <CNN_VS>
1.5543701649

> <CNNaffinity_variance>
0.1501636952

$$$$



 27 28  0  0  0  0  0  0  0  0999 V2000
  -17.3127    7.7348   27.6261 C   0  0  0  0  0  0  0  0  0  0  0  0
  -17.7867    9.1924   27.7426 C   0  0  0  0  0  0  0  0  0  0  0  0
  -18.2747    9.2467   29.1790 C   0  0  0  0  0  0  0  0  0  0  0  0
  -19.5376    8.5742   29.2283 O   0  0  0  0  0  0  0  0  0  0  0  0
  -19.9750    8.2616   30.5567 C   0  0  0  0  0  0  0  0  0  0  0  0
  -18.9804    7.3509   31.2813 C   0  0  0  0  0  0  0  0  0  0  0  0
  -18.9378    6.0428   30.6995 O   0  0  0  0  0  0  0  0  0  0  0  0
  -17.5854    7.9812   31.2617 C   0  0  0  0  0  0  0  0  0  0  0  0
  -16.6151    7.0674   31.7760 O   0  0  0  0  0  0  0  0  0  0  0  0
  -17.1760    8.4573   29.8699 C   0  0  0  0  0  0  0  0  0  0  0  0
  -16.8779    7.3659   28.9716 O   0  0  0  0  0  0  0  0  0  0  0  0
  -18.6405    6.1080   29.7785 H   0  0  0  0  0  0  0  0  0  0  0  0
  -16.5756    6.2833   31.2064 H   0  0  0  0  0  0  0  0  0  0  0  0
  -18.4675    6.7905   27.2459 C   0  0  0  0  0  0  0  0  0  0  0  0
  -18.5965    5.6323   27.6163 O   0  0  0  0  0  0  0  0  0  0  0  0
  -19.4157    7.3559   26.4696 O   0  0  0  0  0  0  0  0  0  0  0  0
  -19.3197    8.2432   26.1842 H   0  0  0  0  0  0  0  0  0  0  0  0
  -16.0684    7.5429   26.7380 C   0  0  0  0  0  0  0  0  0  0  0  0
  -14.8009    8.3426   27.1069 C   0  0  0  0  0  0  0  0  0  0  0  0
  -14.9586    8.8453   28.4645 N   0  0  0  0  0  0  0  0  0  0  0  0
  -15.7952    9.4264   28.5169 H   0  0  0  0  0  0  0  0  0  0  0  0
  -14.1419    9.4014   28.7182 H   0  0  0  0  0  0  0  0  0  0  0  0
  -14.5824    9.4482   26.0230 C   0  0  0  0  0  0  0  0  0  0  0  0
  -12.1663    8.8969   25.8694 C   0  0  0  0  0  0  0  0  0  0  0  0
  -13.4116    9.2298   25.0312 N   0  0  0  0  0  0  0  0  0  0  0  0
  -13.6566    8.0465   24.1023 C   0  0  0  0  0  0  0  0  0  0  0  0
  -13.1099   10.4785   24.2158 C   0  0  0  0  0  0  0  0  0  0  0  0
 24 25  1  0
 25 26  1  0
 25 27  1  0
 25 23  1  0
 23 19  1  0
 19 20  1  0
 19 18  1  0
  1 18  1  0
  1 14  1  0
 14 15  2  0
 14 16  1  0
  1  2  1  0
  3  2  1  0
  3  4  1  0
  4  5  1  0
  5  6  1  0
  6  7  1  0
  6  8  1  0
  8  9  1  0
  8 10  1  0
 10 11  1  0
 11  1  1  0
 10  3  1  0
 20 21  1  0
 20 22  1  0
 16 17  1  0
  7 12  1  0
  9 13  1  0
M  CHG 1  25   1
M  END
> <minimizedAffinity>
-4.08425

> <CNNscore>
0.3358060718

> <CNNaffinity>
4.3691124916

> <CNN_VS>
1.4671745300

> <CNNaffinity_variance>
0.3344523907

$$$$



 27 28  0  0  0  0  0  0  0  0999 V2000
    0.6931   25.0552   28.4005 C   0  0  0  0  0  0  0  0  0  0  0  0
    0.7957   23.6695   27.7429 C   0  0  0  0  0  0  0  0  0  0  0  0
    2.0896   23.7926   26.9588 C   0  0  0  0  0  0  0  0  0  0  0  0
    1.8161   24.5920   25.8031 O   0  0  0  0  0  0  0  0  0  0  0  0
    2.9925   25.0639   25.1345 C   0  0  0  0  0  0  0  0  0  0  0  0
    3.8584   25.9290   26.0539 C   0  0  0  0  0  0  0  0  0  0  0  0
    3.2175   27.1693   26.3737 O   0  0  0  0  0  0  0  0  0  0  0  0
    4.1873   25.1606   27.3365 C   0  0  0  0  0  0  0  0  0  0  0  0
    4.8430   26.0126   28.2772 O   0  0  0  0  0  0  0  0  0  0  0  0
    2.9535   24.5239   27.9720 C   0  0  0  0  0  0  0  0  0  0  0  0
    2.0748   25.4954   28.5810 O   0  0  0  0  0  0  0  0  0  0  0  0
    2.3908   26.9929   26.8495 H   0  0  0  0  0  0  0  0  0  0  0  0
    4.2469   26.7351   28.5294 H   0  0  0  0  0  0  0  0  0  0  0  0
    0.0079   26.0749   27.4728 C   0  0  0  0  0  0  0  0  0  0  0  0
   -1.1155   25.9716   27.0014 O   0  0  0  0  0  0  0  0  0  0  0  0
    0.7393   27.1821   27.2266 O   0  0  0  0  0  0  0  0  0  0  0  0
    1.6005   27.2643   27.5864 H   0  0  0  0  0  0  0  0  0  0  0  0
    0.0906   25.0399   29.8183 C   0  0  0  0  0  0  0  0  0  0  0  0
   -1.2344   24.2746   30.0201 C   0  0  0  0  0  0  0  0  0  0  0  0
   -2.1188   25.1009   30.8300 N   0  0  0  0  0  0  0  0  0  0  0  0
   -1.6682   25.3091   31.7210 H   0  0  0  0  0  0  0  0  0  0  0  0
   -2.9915   24.6006   30.9989 H   0  0  0  0  0  0  0  0  0  0  0  0
   -0.9066   22.8743   30.6339 C   0  0  0  0  0  0  0  0  0  0  0  0
    0.6708   24.0009   32.1856 C   0  0  0  0  0  0  0  0  0  0  0  0
    0.4619   22.7292   31.3469 N   0  0  0  0  0  0  0  0  0  0  0  0
    0.4876   21.5477   32.3094 C   0  0  0  0  0  0  0  0  0  0  0  0
    1.6147   22.6221   30.3596 C   0  0  0  0  0  0  0  0  0  0  0  0
 24 25  1  0
 25 26  1  0
 25 27  1  0
 25 23  1  0
 23 19  1  0
 19 20  1  0
 19 18  1  0
  1 18  1  0
  1 14  1  0
 14 15  2  0
 14 16  1  0
  1  2  1  0
  3  2  1  0
  3  4  1  0
  4  5  1  0
  5  6  1  0
  6  7  1  0
  6  8  1  0
  8  9  1  0
  8 10  1  0
 10 11  1  0
 11  1  1  0
 10  3  1  0
 20 21  1  0
 20 22  1  0
 16 17  1  0
  7 12  1  0
  9 13  1  0
M  CHG 1  25   1
M  END
> <minimizedAffinity>
-1.74821

> <CNNscore>
0.3219732344

> <CNNaffinity>
3.9869544506

> <CNN_VS>
1.2836925983

> <CNNaffinity_variance>
0.1886871606

$$$$



 27 28  0  0  0  0  0  0  0  0999 V2000
    1.7948   23.6529   30.0986 C   0  0  0  0  0  0  0  0  0  0  0  0
    2.9362   22.6660   29.8043 C   0  0  0  0  0  0  0  0  0  0  0  0
    4.1288   23.5973   29.6839 C   0  0  0  0  0  0  0  0  0  0  0  0
    4.0364   24.2501   28.4131 O   0  0  0  0  0  0  0  0  0  0  0  0
    4.9015   25.3849   28.2814 C   0  0  0  0  0  0  0  0  0  0  0  0
    4.5958   26.4556   29.3319 C   0  0  0  0  0  0  0  0  0  0  0  0
    3.3192   27.0662   29.1111 O   0  0  0  0  0  0  0  0  0  0  0  0
    4.6505   25.8424   30.7335 C   0  0  0  0  0  0  0  0  0  0  0  0
    4.1966   26.7815   31.7097 O   0  0  0  0  0  0  0  0  0  0  0  0
    3.8519   24.5452   30.8383 C   0  0  0  0  0  0  0  0  0  0  0  0
    2.4243   24.7643   30.8083 O   0  0  0  0  0  0  0  0  0  0  0  0
    2.6229   26.3947   29.1826 H   0  0  0  0  0  0  0  0  0  0  0  0
    3.2681   27.0034   31.5378 H   0  0  0  0  0  0  0  0  0  0  0  0
    1.1897   24.2240   28.8034 C   0  0  0  0  0  0  0  0  0  0  0  0
    0.7709   23.5692   27.8596 O   0  0  0  0  0  0  0  0  0  0  0  0
    1.0967   25.5702   28.7794 O   0  0  0  0  0  0  0  0  0  0  0  0
    1.4166   26.0749   29.5012 H   0  0  0  0  0  0  0  0  0  0  0  0
    0.7264   23.1137   31.0688 C   0  0  0  0  0  0  0  0  0  0  0  0
   -0.6896   23.7210   30.9769 C   0  0  0  0  0  0  0  0  0  0  0  0
   -1.0789   24.1718   32.3058 N   0  0  0  0  0  0  0  0  0  0  0  0
   -1.0515   23.3844   32.9536 H   0  0  0  0  0  0  0  0  0  0  0  0
   -2.0249   24.5518   32.2724 H   0  0  0  0  0  0  0  0  0  0  0  0
   -1.6430   22.6554   30.3441 C   0  0  0  0  0  0  0  0  0  0  0  0
   -3.1823   22.7694   32.2892 C   0  0  0  0  0  0  0  0  0  0  0  0
   -2.4791   21.7973   31.3275 N   0  0  0  0  0  0  0  0  0  0  0  0
   -3.5684   21.0031   30.6164 C   0  0  0  0  0  0  0  0  0  0  0  0
   -1.6095   20.8629   32.1557 C   0  0  0  0  0  0  0  0  0  0  0  0
 24 25  1  0
 25 26  1  0
 25 27  1  0
 25 23  1  0
 23 19  1  0
 19 20  1  0
 19 18  1  0
  1 18  1  0
  1 14  1  0
 14 15  2  0
 14 16  1  0
  1  2  1  0
  3  2  1  0
  3  4  1  0
  4  5  1  0
  5  6  1  0
  6  7  1  0
  6  8  1  0
  8  9  1  0
  8 10  1  0
 10 11  1  0
 11  1  1  0
 10  3  1  0
 20 21  1  0
 20 22  1  0
 16 17  1  0
  7 12  1  0
  9 13  1  0
M  CHG 1  25   1
M  END
> <minimizedAffinity>
-1.99904

> <CNNscore>
0.3193515837

> <CNNaffinity>
3.2771923542

> <CNN_VS>
1.0465766191

> <CNNaffinity_variance>
0.5846824050

$$$$



 27 28  0  0  0  0  0  0  0  0999 V2000
  -12.0210    9.2452   22.1055 C   0  0  0  0  0  0  0  0  0  0  0  0
  -10.5792    8.7968   22.3940 C   0  0  0  0  0  0  0  0  0  0  0  0
   -9.7838    9.6843   21.4539 C   0  0  0  0  0  0  0  0  0  0  0  0
   -9.9430    9.1595   20.1315 O   0  0  0  0  0  0  0  0  0  0  0  0
   -9.5217   10.0581   19.0978 C   0  0  0  0  0  0  0  0  0  0  0  0
  -10.3096   11.3702   19.1316 C   0  0  0  0  0  0  0  0  0  0  0  0
  -11.6821   11.1742   18.7718 O   0  0  0  0  0  0  0  0  0  0  0  0
  -10.2153   12.0001   20.5237 C   0  0  0  0  0  0  0  0  0  0  0  0
  -11.0856   13.1286   20.6233 O   0  0  0  0  0  0  0  0  0  0  0  0
  -10.5146   11.0030   21.6406 C   0  0  0  0  0  0  0  0  0  0  0  0
  -11.9132   10.6486   21.7129 O   0  0  0  0  0  0  0  0  0  0  0  0
  -12.1018   10.5772   19.4108 H   0  0  0  0  0  0  0  0  0  0  0  0
  -12.0044   12.8395   20.5091 H   0  0  0  0  0  0  0  0  0  0  0  0
  -12.6247    8.4835   20.9117 C   0  0  0  0  0  0  0  0  0  0  0  0
  -12.0786    8.2926   19.8344 O   0  0  0  0  0  0  0  0  0  0  0  0
  -13.8484    7.9641   21.1446 O   0  0  0  0  0  0  0  0  0  0  0  0
  -14.2695    8.1086   21.9691 H   0  0  0  0  0  0  0  0  0  0  0  0
  -12.9426    9.2458   23.3401 C   0  0  0  0  0  0  0  0  0  0  0  0
  -12.5400    8.3475   24.5289 C   0  0  0  0  0  0  0  0  0  0  0  0
  -13.3419    7.1331   24.4741 N   0  0  0  0  0  0  0  0  0  0  0  0
  -14.3317    7.3773   24.5088 H   0  0  0  0  0  0  0  0  0  0  0  0
  -13.1108    6.5368   25.2687 H   0  0  0  0  0  0  0  0  0  0  0  0
  -12.6971    9.1740   25.8469 C   0  0  0  0  0  0  0  0  0  0  0  0
  -14.8648   10.3492   25.5551 C   0  0  0  0  0  0  0  0  0  0  0  0
  -14.1318    9.3088   26.4178 N   0  0  0  0  0  0  0  0  0  0  0  0
  -14.9175    8.0068   26.3149 C   0  0  0  0  0  0  0  0  0  0  0  0
  -14.1326    9.8055   27.8560 C   0  0  0  0  0  0  0  0  0  0  0  0
 24 25  1  0
 25 26  1  0
 25 27  1  0
 25 23  1  0
 23 19  1  0
 19 20  1  0
 19 18  1  0
  1 18  1  0
  1 14  1  0
 14 15  2  0
 14 16  1  0
  1  2  1  0
  3  2  1  0
  3  4  1  0
  4  5  1  0
  5  6  1  0
  6  7  1  0
  6  8  1  0
  8  9  1  0
  8 10  1  0
 10 11  1  0
 11  1  1  0
 10  3  1  0
 20 21  1  0
 20 22  1  0
 16 17  1  0
  7 12  1  0
  9 13  1  0
M  CHG 1  25   1
M  END
> <minimizedAffinity>
28.87647

> <CNNscore>
0.2678687572

> <CNNaffinity>
4.5215740204

> <CNN_VS>
1.2111884356

> <CNNaffinity_variance>
0.0787806883

$$$$



 27 28  0  0  0  0  0  0  0  0999 V2000
   -3.6221   22.1751   10.5474 C   0  0  0  0  0  0  0  0  0  0  0  0
   -3.3016   23.1002   11.7326 C   0  0  0  0  0  0  0  0  0  0  0  0
   -3.2434   24.4593   11.0590 C   0  0  0  0  0  0  0  0  0  0  0  0
   -2.0026   24.5330   10.3488 O   0  0  0  0  0  0  0  0  0  0  0  0
   -1.9371   25.6129    9.4090 C   0  0  0  0  0  0  0  0  0  0  0  0
   -3.0305   25.5038    8.3432 C   0  0  0  0  0  0  0  0  0  0  0  0
   -2.8172   24.3831    7.4772 O   0  0  0  0  0  0  0  0  0  0  0  0
   -4.4032   25.3978    9.0125 C   0  0  0  0  0  0  0  0  0  0  0  0
   -5.4140   25.1189    8.0421 O   0  0  0  0  0  0  0  0  0  0  0  0
   -4.4354   24.3509   10.1234 C   0  0  0  0  0  0  0  0  0  0  0  0
   -4.3922   22.9984    9.6177 O   0  0  0  0  0  0  0  0  0  0  0  0
   -2.8465   23.5637    7.9955 H   0  0  0  0  0  0  0  0  0  0  0  0
   -5.2373   24.2591    7.6292 H   0  0  0  0  0  0  0  0  0  0  0  0
   -2.3449   21.7310    9.8118 C   0  0  0  0  0  0  0  0  0  0  0  0
   -1.2034   21.8232   10.2403 O   0  0  0  0  0  0  0  0  0  0  0  0
   -2.5661   21.1557    8.6112 O   0  0  0  0  0  0  0  0  0  0  0  0
   -3.4396   21.0835    8.2800 H   0  0  0  0  0  0  0  0  0  0  0  0
   -4.5492   20.9956   10.8980 C   0  0  0  0  0  0  0  0  0  0  0  0
   -6.0643   21.1918   10.6788 C   0  0  0  0  0  0  0  0  0  0  0  0
   -6.7716   20.1906   11.4651 N   0  0  0  0  0  0  0  0  0  0  0  0
   -6.4705   19.2589   11.1794 H   0  0  0  0  0  0  0  0  0  0  0  0
   -7.7756   20.2853   11.3121 H   0  0  0  0  0  0  0  0  0  0  0  0
   -6.3515   21.1374    9.1428 C   0  0  0  0  0  0  0  0  0  0  0  0
   -5.3301   18.8923    9.4282 C   0  0  0  0  0  0  0  0  0  0  0  0
   -6.0888   19.7851    8.4325 N   0  0  0  0  0  0  0  0  0  0  0  0
   -7.3817   19.0611    8.0756 C   0  0  0  0  0  0  0  0  0  0  0  0
   -5.2230   19.9475    7.1918 C   0  0  0  0  0  0  0  0  0  0  0  0
 24 25  1  0
 25 26  1  0
 25 27  1  0
 25 23  1  0
 23 19  1  0
 19 20  1  0
 19 18  1  0
  1 18  1  0
  1 14  1  0
 14 15  2  0
 14 16  1  0
  1  2  1  0
  3  2  1  0
  3  4  1  0
  4  5  1  0
  5  6  1  0
  6  7  1  0
  6  8  1  0
  8  9  1  0
  8 10  1  0
 10 11  1  0
 11  1  1  0
 10  3  1  0
 20 21  1  0
 20 22  1  0
 16 17  1  0
  7 12  1  0
  9 13  1  0
M  CHG 1  25   1
M  END
> <minimizedAffinity>
-5.54660

> <CNNscore>
0.2593404949

> <CNNaffinity>
3.7896640301

> <CNN_VS>
0.9828133583

> <CNNaffinity_variance>
0.2346866578

$$$$



 27 28  0  0  0  0  0  0  0  0999 V2000
  -16.2622    5.8274   30.3581 C   0  0  0  0  0  0  0  0  0  0  0  0
  -16.8540    5.7128   31.7723 C   0  0  0  0  0  0  0  0  0  0  0  0
  -16.2784    4.3897   32.2437 C   0  0  0  0  0  0  0  0  0  0  0  0
  -17.0080    3.3470   31.5882 O   0  0  0  0  0  0  0  0  0  0  0  0
  -16.3846    2.0598   31.6786 C   0  0  0  0  0  0  0  0  0  0  0  0
  -14.9886    2.0608   31.0504 C   0  0  0  0  0  0  0  0  0  0  0  0
  -15.0465    2.2301   29.6293 O   0  0  0  0  0  0  0  0  0  0  0  0
  -14.1346    3.1657   31.6775 C   0  0  0  0  0  0  0  0  0  0  0  0
  -12.8931    3.2953   30.9828 O   0  0  0  0  0  0  0  0  0  0  0  0
  -14.8562    4.5106   31.7235 C   0  0  0  0  0  0  0  0  0  0  0  0
  -14.9852    5.1199   30.4200 O   0  0  0  0  0  0  0  0  0  0  0  0
  -15.4492    3.0879   29.4220 H   0  0  0  0  0  0  0  0  0  0  0  0
  -13.0622    3.5598   30.0650 H   0  0  0  0  0  0  0  0  0  0  0  0
  -17.1343    5.1026   29.3170 C   0  0  0  0  0  0  0  0  0  0  0  0
  -16.7283    4.5413   28.3094 O   0  0  0  0  0  0  0  0  0  0  0  0
  -18.4504    5.0768   29.6148 O   0  0  0  0  0  0  0  0  0  0  0  0
  -18.7646    5.5059   30.3862 H   0  0  0  0  0  0  0  0  0  0  0  0
  -15.9021    7.2651   29.9373 C   0  0  0  0  0  0  0  0  0  0  0  0
  -16.2158    7.6809   28.4845 C   0  0  0  0  0  0  0  0  0  0  0  0
  -14.9679    8.0703   27.8427 N   0  0  0  0  0  0  0  0  0  0  0  0
  -14.5404    8.8344   28.3659 H   0  0  0  0  0  0  0  0  0  0  0  0
  -15.1574    8.3760   26.8882 H   0  0  0  0  0  0  0  0  0  0  0  0
  -17.3092    8.7982   28.5165 C   0  0  0  0  0  0  0  0  0  0  0  0
  -18.4152    7.3441   26.8349 C   0  0  0  0  0  0  0  0  0  0  0  0
  -18.6731    8.4571   27.8640 N   0  0  0  0  0  0  0  0  0  0  0  0
  -19.6745    7.9103   28.8746 C   0  0  0  0  0  0  0  0  0  0  0  0
  -19.2714    9.6476   27.1294 C   0  0  0  0  0  0  0  0  0  0  0  0
 24 25  1  0
 25 26  1  0
 25 27  1  0
 25 23  1  0
 23 19  1  0
 19 20  1  0
 19 18  1  0
  1 18  1  0
  1 14  1  0
 14 15  2  0
 14 16  1  0
  1  2  1  0
  3  2  1  0
  3  4  1  0
  4  5  1  0
  5  6  1  0
  6  7  1  0
  6  8  1  0
  8  9  1  0
  8 10  1  0
 10 11  1  0
 11  1  1  0
 10  3  1  0
 20 21  1  0
 20 22  1  0
 16 17  1  0
  7 12  1  0
  9 13  1  0
M  CHG 1  25   1
M  END
> <minimizedAffinity>
-3.96079

> <CNNscore>
0.2246634960

> <CNNaffinity>
3.0709152222

> <CNN_VS>
0.6899225712

> <CNNaffinity_variance>
1.2985602617

$$$$
