


 32 35  0  0  0  0  0  0  0  0999 V2000
    4.8641    7.5860   25.2589 C   0  0  0  0  0  0  0  0  0  0  0  0
    6.1123    7.7398   25.8592 C   0  0  0  0  0  0  0  0  0  0  0  0
    6.8349    8.9185   25.6602 C   0  0  0  0  0  0  0  0  0  0  0  0
    8.3977    9.0467   26.3829 Cl  0  0  0  0  0  0  0  0  0  0  0  0
    6.2968    9.9537   24.8843 C   0  0  0  0  0  0  0  0  0  0  0  0
    5.0490    9.7789   24.2735 C   0  0  0  0  0  0  0  0  0  0  0  0
    4.3591   11.0004   23.2682 Cl  0  0  0  0  0  0  0  0  0  0  0  0
    4.3247    8.6028   24.4738 C   0  0  0  0  0  0  0  0  0  0  0  0
    4.1115    6.3957   25.4383 N   0  0  0  0  0  0  0  0  0  0  0  0
    3.1315    6.4052   25.3454 H   0  0  0  0  0  0  0  0  0  0  0  0
    4.2253    3.8305   25.2497 O   0  0  0  0  0  0  0  0  0  0  0  0
    4.9251    4.9598   25.8142 S   0  0  0  0  0  0  0  0  0  0  0  0
    6.3036    5.2119   25.4427 O   0  0  0  0  0  0  0  0  0  0  0  0
    4.8624    4.9188   27.5885 C   0  0  0  0  0  0  0  0  0  0  0  0
    6.0902    4.9391   28.2757 C   0  0  0  0  0  0  0  0  0  0  0  0
    6.1223    4.8799   29.6698 C   0  0  0  0  0  0  0  0  0  0  0  0
    4.9307    4.7935   30.3810 C   0  0  0  0  0  0  0  0  0  0  0  0
    4.9643    4.7233   32.0985 Cl  0  0  0  0  0  0  0  0  0  0  0  0
    3.7101    4.7649   29.7096 C   0  0  0  0  0  0  0  0  0  0  0  0
    3.6676    4.8229   28.3091 C   0  0  0  0  0  0  0  0  0  0  0  0
    2.0909    4.8073   27.6084 Cl  0  0  0  0  0  0  0  0  0  0  0  0
    7.0136   11.1031   24.6471 O   0  0  0  0  0  0  0  0  0  0  0  0
    6.8201   12.1665   25.4968 C   0  0  0  0  0  0  0  0  0  0  0  0
    6.9386   13.5097   25.1743 C   0  0  0  0  0  0  0  0  0  0  0  0
    6.7462   14.5243   26.0528 N   0  0  0  0  0  0  0  0  0  0  0  0
    6.4286   14.2070   27.3205 C   0  0  0  0  0  0  0  0  0  0  0  0
    6.2230   15.2189   28.2487 C   0  0  0  0  0  0  0  0  0  0  0  0
    5.8935   14.9412   29.5787 C   0  0  0  0  0  0  0  0  0  0  0  0
    5.7647   13.6226   29.9995 C   0  0  0  0  0  0  0  0  0  0  0  0
    5.9655   12.5867   29.0894 C   0  0  0  0  0  0  0  0  0  0  0  0
    6.2962   12.8697   27.7525 C   0  0  0  0  0  0  0  0  0  0  0  0
    6.5028   11.8494   26.8134 C   0  0  0  0  0  0  0  0  0  0  0  0
 11 12  2  0
 12 13  2  0
 12  9  1  0
  9  1  1  0
  1  2  2  0
  2  3  1  0
  3  4  1  0
  3  5  2  0
  5 22  1  0
 22 23  1  0
 23 24  2  0
 24 25  1  0
 25 26  2  0
 26 27  1  0
 27 28  2  0
 28 29  1  0
 29 30  2  0
 30 31  1  0
 31 32  2  0
  5  6  1  0
  6  7  1  0
  6  8  2  0
 12 14  1  0
 14 15  2  0
 15 16  1  0
 16 17  2  0
 17 18  1  0
 17 19  1  0
 19 20  2  0
 20 21  1  0
  8  1  1  0
 20 14  1  0
 32 23  1  0
 31 26  1  0
  9 10  1  0
M  END
> <minimizedAffinity>
-11.41824

> <CNNscore>
0.9552775621

> <CNNaffinity>
8.3611803055

> <CNN_VS>
7.9872479439

> <CNNaffinity_variance>
0.0667551160

$$$$



 32 35  0  0  0  0  0  0  0  0999 V2000
    4.7926    7.6172   25.2210 C   0  0  0  0  0  0  0  0  0  0  0  0
    4.2754    8.6502   24.4416 C   0  0  0  0  0  0  0  0  0  0  0  0
    5.0355    9.8024   24.2277 C   0  0  0  0  0  0  0  0  0  0  0  0
    4.3364   11.0771   23.2964 Cl  0  0  0  0  0  0  0  0  0  0  0  0
    6.3232    9.9091   24.7698 C   0  0  0  0  0  0  0  0  0  0  0  0
    6.8235    8.8706   25.5648 C   0  0  0  0  0  0  0  0  0  0  0  0
    8.3831    8.9685   26.2976 Cl  0  0  0  0  0  0  0  0  0  0  0  0
    6.0662    7.7177   25.7769 C   0  0  0  0  0  0  0  0  0  0  0  0
    4.0389    6.4383   25.4606 N   0  0  0  0  0  0  0  0  0  0  0  0
    3.0550    6.4595   25.4315 H   0  0  0  0  0  0  0  0  0  0  0  0
    4.1332    3.8742   25.2483 O   0  0  0  0  0  0  0  0  0  0  0  0
    4.8576    4.9957   25.7971 S   0  0  0  0  0  0  0  0  0  0  0  0
    6.2238    5.2442   25.3804 O   0  0  0  0  0  0  0  0  0  0  0  0
    4.8558    4.9408   27.5722 C   0  0  0  0  0  0  0  0  0  0  0  0
    6.1045    4.9987   28.2184 C   0  0  0  0  0  0  0  0  0  0  0  0
    6.1852    4.9315   29.6102 C   0  0  0  0  0  0  0  0  0  0  0  0
    5.0216    4.7994   30.3598 C   0  0  0  0  0  0  0  0  0  0  0  0
    5.1150    4.7191   32.0747 Cl  0  0  0  0  0  0  0  0  0  0  0  0
    3.7809    4.7333   29.7291 C   0  0  0  0  0  0  0  0  0  0  0  0
    3.6896    4.7991   28.3312 C   0  0  0  0  0  0  0  0  0  0  0  0
    2.0919    4.7339   27.6832 Cl  0  0  0  0  0  0  0  0  0  0  0  0
    7.0669   11.0535   24.6009 O   0  0  0  0  0  0  0  0  0  0  0  0
    6.8727   12.0820   25.4925 C   0  0  0  0  0  0  0  0  0  0  0  0
    7.0051   13.4365   25.2279 C   0  0  0  0  0  0  0  0  0  0  0  0
    6.8115   14.4149   26.1462 N   0  0  0  0  0  0  0  0  0  0  0  0
    6.4779   14.0474   27.3962 C   0  0  0  0  0  0  0  0  0  0  0  0
    6.2705   15.0212   28.3638 C   0  0  0  0  0  0  0  0  0  0  0  0
    5.9247   14.6908   29.6776 C   0  0  0  0  0  0  0  0  0  0  0  0
    5.7810   13.3568   30.0412 C   0  0  0  0  0  0  0  0  0  0  0  0
    5.9833   12.3583   29.0906 C   0  0  0  0  0  0  0  0  0  0  0  0
    6.3304   12.6943   27.7702 C   0  0  0  0  0  0  0  0  0  0  0  0
    6.5390   11.7127   26.7913 C   0  0  0  0  0  0  0  0  0  0  0  0
 11 12  2  0
 12 13  2  0
 12  9  1  0
  9  1  1  0
  1  2  2  0
  2  3  1  0
  3  4  1  0
  3  5  2  0
  5 22  1  0
 22 23  1  0
 23 24  2  0
 24 25  1  0
 25 26  2  0
 26 27  1  0
 27 28  2  0
 28 29  1  0
 29 30  2  0
 30 31  1  0
 31 32  2  0
  5  6  1  0
  6  7  1  0
  6  8  2  0
 12 14  1  0
 14 15  2  0
 15 16  1  0
 16 17  2  0
 17 18  1  0
 17 19  1  0
 19 20  2  0
 20 21  1  0
  8  1  1  0
 20 14  1  0
 32 23  1  0
 31 26  1  0
  9 10  1  0
M  END
> <minimizedAffinity>
-11.12424

> <CNNscore>
0.9500743747

> <CNNaffinity>
8.3742036819

> <CNN_VS>
7.9561161995

> <CNNaffinity_variance>
0.0570263863

$$$$



 32 35  0  0  0  0  0  0  0  0999 V2000
    5.6218    7.3497   25.4420 C   0  0  0  0  0  0  0  0  0  0  0  0
    4.5197    8.0932   25.0244 C   0  0  0  0  0  0  0  0  0  0  0  0
    4.6421    9.4740   24.8518 C   0  0  0  0  0  0  0  0  0  0  0  0
    3.2388   10.3626   24.3804 Cl  0  0  0  0  0  0  0  0  0  0  0  0
    5.8734   10.1060   25.0697 C   0  0  0  0  0  0  0  0  0  0  0  0
    6.9681    9.3491   25.5052 C   0  0  0  0  0  0  0  0  0  0  0  0
    8.4954   10.0817   25.8355 Cl  0  0  0  0  0  0  0  0  0  0  0  0
    6.8479    7.9691   25.6752 C   0  0  0  0  0  0  0  0  0  0  0  0
    5.5236    5.9464   25.6324 N   0  0  0  0  0  0  0  0  0  0  0  0
    6.3038    5.3655   25.4802 H   0  0  0  0  0  0  0  0  0  0  0  0
    2.9744    6.2205   25.8663 O   0  0  0  0  0  0  0  0  0  0  0  0
    4.0446    5.2871   26.1251 S   0  0  0  0  0  0  0  0  0  0  0  0
    4.0122    3.9690   25.5221 O   0  0  0  0  0  0  0  0  0  0  0  0
    4.2728    5.0562   27.8711 C   0  0  0  0  0  0  0  0  0  0  0  0
    3.1276    5.1358   28.6850 C   0  0  0  0  0  0  0  0  0  0  0  0
    3.2319    4.9940   30.0696 C   0  0  0  0  0  0  0  0  0  0  0  0
    4.4790    4.7795   30.6458 C   0  0  0  0  0  0  0  0  0  0  0  0
    4.6129    4.6011   32.3506 Cl  0  0  0  0  0  0  0  0  0  0  0  0
    5.6200    4.7068   29.8494 C   0  0  0  0  0  0  0  0  0  0  0  0
    5.5255    4.8490   28.4574 C   0  0  0  0  0  0  0  0  0  0  0  0
    7.0105    4.7099   27.5899 Cl  0  0  0  0  0  0  0  0  0  0  0  0
    5.9985   11.4696   24.9424 O   0  0  0  0  0  0  0  0  0  0  0  0
    6.1770   12.2070   26.0889 C   0  0  0  0  0  0  0  0  0  0  0  0
    6.5274   13.5466   26.1596 C   0  0  0  0  0  0  0  0  0  0  0  0
    6.7012   14.2288   27.3183 N   0  0  0  0  0  0  0  0  0  0  0  0
    6.5313   13.5608   28.4732 C   0  0  0  0  0  0  0  0  0  0  0  0
    6.6999   14.2261   29.6801 C   0  0  0  0  0  0  0  0  0  0  0  0
    6.5371   13.5761   30.9072 C   0  0  0  0  0  0  0  0  0  0  0  0
    6.1979   12.2283   30.9374 C   0  0  0  0  0  0  0  0  0  0  0  0
    6.0225   11.5355   29.7412 C   0  0  0  0  0  0  0  0  0  0  0  0
    6.1865   12.1925   28.5090 C   0  0  0  0  0  0  0  0  0  0  0  0
    6.0155   11.5230   27.2892 C   0  0  0  0  0  0  0  0  0  0  0  0
 11 12  2  0
 12 13  2  0
 12  9  1  0
  9  1  1  0
  1  2  2  0
  2  3  1  0
  3  4  1  0
  3  5  2  0
  5 22  1  0
 22 23  1  0
 23 24  2  0
 24 25  1  0
 25 26  2  0
 26 27  1  0
 27 28  2  0
 28 29  1  0
 29 30  2  0
 30 31  1  0
 31 32  2  0
  5  6  1  0
  6  7  1  0
  6  8  2  0
 12 14  1  0
 14 15  2  0
 15 16  1  0
 16 17  2  0
 17 18  1  0
 17 19  1  0
 19 20  2  0
 20 21  1  0
  8  1  1  0
 20 14  1  0
 32 23  1  0
 31 26  1  0
  9 10  1  0
M  END
> <minimizedAffinity>
-10.29762

> <CNNscore>
0.8823845983

> <CNNaffinity>
8.4444532394

> <CNN_VS>
7.4512553215

> <CNNaffinity_variance>
0.0504419804

$$$$



 32 35  0  0  0  0  0  0  0  0999 V2000
    5.8223    7.6123   25.4424 C   0  0  0  0  0  0  0  0  0  0  0  0
    4.6444    7.6755   24.7004 C   0  0  0  0  0  0  0  0  0  0  0  0
    4.1474    8.9168   24.2960 C   0  0  0  0  0  0  0  0  0  0  0  0
    2.6597    8.9516   23.4205 Cl  0  0  0  0  0  0  0  0  0  0  0  0
    4.8433   10.0918   24.6097 C   0  0  0  0  0  0  0  0  0  0  0  0
    6.0166   10.0146   25.3701 C   0  0  0  0  0  0  0  0  0  0  0  0
    6.8888   11.4322   25.8268 Cl  0  0  0  0  0  0  0  0  0  0  0  0
    6.5157    8.7749   25.7722 C   0  0  0  0  0  0  0  0  0  0  0  0
    6.3459    6.3649   25.8725 N   0  0  0  0  0  0  0  0  0  0  0  0
    7.3114    6.2561   26.0312 H   0  0  0  0  0  0  0  0  0  0  0  0
    4.0147    5.3447   25.4807 O   0  0  0  0  0  0  0  0  0  0  0  0
    5.2848    5.0675   26.1083 S   0  0  0  0  0  0  0  0  0  0  0  0
    6.0435    3.8973   25.7125 O   0  0  0  0  0  0  0  0  0  0  0  0
    5.1160    5.0064   27.8751 C   0  0  0  0  0  0  0  0  0  0  0  0
    6.2946    5.1064   28.6373 C   0  0  0  0  0  0  0  0  0  0  0  0
    6.2449    5.0372   30.0304 C   0  0  0  0  0  0  0  0  0  0  0  0
    5.0207    4.8613   30.6658 C   0  0  0  0  0  0  0  0  0  0  0  0
    4.9533    4.7784   32.3818 Cl  0  0  0  0  0  0  0  0  0  0  0  0
    3.8488    4.7534   29.9199 C   0  0  0  0  0  0  0  0  0  0  0  0
    3.8887    4.8208   28.5197 C   0  0  0  0  0  0  0  0  0  0  0  0
    2.3632    4.7012   27.7224 Cl  0  0  0  0  0  0  0  0  0  0  0  0
    4.3453   11.3230   24.2528 O   0  0  0  0  0  0  0  0  0  0  0  0
    4.7935   11.8802   23.0786 C   0  0  0  0  0  0  0  0  0  0  0  0
    5.8516   12.7652   22.9389 C   0  0  0  0  0  0  0  0  0  0  0  0
    6.2502   13.2960   21.7567 N   0  0  0  0  0  0  0  0  0  0  0  0
    5.5701   12.9483   20.6498 C   0  0  0  0  0  0  0  0  0  0  0  0
    5.9495   13.4708   19.4207 C   0  0  0  0  0  0  0  0  0  0  0  0
    5.2736   13.1426   18.2417 C   0  0  0  0  0  0  0  0  0  0  0  0
    4.1908   12.2717   18.2836 C   0  0  0  0  0  0  0  0  0  0  0  0
    3.7879   11.7323   19.5036 C   0  0  0  0  0  0  0  0  0  0  0  0
    4.4703   12.0643   20.6873 C   0  0  0  0  0  0  0  0  0  0  0  0
    4.0897   11.5367   21.9291 C   0  0  0  0  0  0  0  0  0  0  0  0
 11 12  2  0
 12 13  2  0
 12  9  1  0
  9  1  1  0
  1  2  2  0
  2  3  1  0
  3  4  1  0
  3  5  2  0
  5 22  1  0
 22 23  1  0
 23 24  2  0
 24 25  1  0
 25 26  2  0
 26 27  1  0
 27 28  2  0
 28 29  1  0
 29 30  2  0
 30 31  1  0
 31 32  2  0
  5  6  1  0
  6  7  1  0
  6  8  2  0
 12 14  1  0
 14 15  2  0
 15 16  1  0
 16 17  2  0
 17 18  1  0
 17 19  1  0
 19 20  2  0
 20 21  1  0
  8  1  1  0
 20 14  1  0
 32 23  1  0
 31 26  1  0
  9 10  1  0
M  END
> <minimizedAffinity>
-10.25580

> <CNNscore>
0.8273337483

> <CNNaffinity>
7.8831138611

> <CNN_VS>
6.5219659805

> <CNNaffinity_variance>
0.2216082364

$$$$



 32 35  0  0  0  0  0  0  0  0999 V2000
    6.1553   14.9597   30.8409 C   0  0  0  0  0  0  0  0  0  0  0  0
    7.1741   14.3207   31.5449 C   0  0  0  0  0  0  0  0  0  0  0  0
    7.7581   14.9546   32.6442 C   0  0  0  0  0  0  0  0  0  0  0  0
    9.0499   14.1476   33.4572 Cl  0  0  0  0  0  0  0  0  0  0  0  0
    7.3037   16.2144   33.0559 C   0  0  0  0  0  0  0  0  0  0  0  0
    6.2907   16.8520   32.3291 C   0  0  0  0  0  0  0  0  0  0  0  0
    5.7252   18.4243   32.7613 Cl  0  0  0  0  0  0  0  0  0  0  0  0
    5.7045   16.2186   31.2323 C   0  0  0  0  0  0  0  0  0  0  0  0
    5.5493   14.3417   29.7157 N   0  0  0  0  0  0  0  0  0  0  0  0
    4.9828   13.5444   29.8280 H   0  0  0  0  0  0  0  0  0  0  0  0
    4.5853   15.5344   27.6476 O   0  0  0  0  0  0  0  0  0  0  0  0
    5.8156   14.9968   28.1779 S   0  0  0  0  0  0  0  0  0  0  0  0
    6.9675   15.8616   28.3427 O   0  0  0  0  0  0  0  0  0  0  0  0
    6.3496   13.5914   27.2327 C   0  0  0  0  0  0  0  0  0  0  0  0
    6.3190   12.3379   27.8715 C   0  0  0  0  0  0  0  0  0  0  0  0
    6.7509   11.1916   27.2026 C   0  0  0  0  0  0  0  0  0  0  0  0
    7.2206   11.2940   25.8979 C   0  0  0  0  0  0  0  0  0  0  0  0
    7.7512    9.8847   25.0681 Cl  0  0  0  0  0  0  0  0  0  0  0  0
    7.2623   12.5317   25.2592 C   0  0  0  0  0  0  0  0  0  0  0  0
    6.8314   13.6892   25.9234 C   0  0  0  0  0  0  0  0  0  0  0  0
    6.9105   15.1492   25.0073 Cl  0  0  0  0  0  0  0  0  0  0  0  0
    7.8959   16.8675   34.1113 O   0  0  0  0  0  0  0  0  0  0  0  0
    8.8443   17.8207   33.8250 C   0  0  0  0  0  0  0  0  0  0  0  0
    8.7473   19.1803   34.0787 C   0  0  0  0  0  0  0  0  0  0  0  0
    9.7089   20.0841   33.7679 N   0  0  0  0  0  0  0  0  0  0  0  0
   10.8248   19.6339   33.1672 C   0  0  0  0  0  0  0  0  0  0  0  0
   11.8322   20.5296   32.8345 C   0  0  0  0  0  0  0  0  0  0  0  0
   13.0098   20.1121   32.2070 C   0  0  0  0  0  0  0  0  0  0  0  0
   13.1927   18.7685   31.9010 C   0  0  0  0  0  0  0  0  0  0  0  0
   12.1980   17.8473   32.2232 C   0  0  0  0  0  0  0  0  0  0  0  0
   11.0152   18.2707   32.8547 C   0  0  0  0  0  0  0  0  0  0  0  0
    9.9974   17.3678   33.1927 C   0  0  0  0  0  0  0  0  0  0  0  0
 11 12  2  0
 12 13  2  0
 12  9  1  0
  9  1  1  0
  1  2  2  0
  2  3  1  0
  3  4  1  0
  3  5  2  0
  5 22  1  0
 22 23  1  0
 23 24  2  0
 24 25  1  0
 25 26  2  0
 26 27  1  0
 27 28  2  0
 28 29  1  0
 29 30  2  0
 30 31  1  0
 31 32  2  0
  5  6  1  0
  6  7  1  0
  6  8  2  0
 12 14  1  0
 14 15  2  0
 15 16  1  0
 16 17  2  0
 17 18  1  0
 17 19  1  0
 19 20  2  0
 20 21  1  0
  8  1  1  0
 20 14  1  0
 32 23  1  0
 31 26  1  0
  9 10  1  0
M  END
> <minimizedAffinity>
-8.01006

> <CNNscore>
0.5046979189

> <CNNaffinity>
7.0414638519

> <CNN_VS>
3.5538122654

> <CNNaffinity_variance>
0.0530242026

$$$$



 32 35  0  0  0  0  0  0  0  0999 V2000
    5.7236   12.5089   27.6700 C   0  0  0  0  0  0  0  0  0  0  0  0
    5.9618   11.6239   28.7198 C   0  0  0  0  0  0  0  0  0  0  0  0
    6.5059   12.0993   29.9153 C   0  0  0  0  0  0  0  0  0  0  0  0
    6.8298   10.9602   31.1716 Cl  0  0  0  0  0  0  0  0  0  0  0  0
    6.7851   13.4636   30.0702 C   0  0  0  0  0  0  0  0  0  0  0  0
    6.5564   14.3387   29.0013 C   0  0  0  0  0  0  0  0  0  0  0  0
    6.9265   16.0204   29.1189 Cl  0  0  0  0  0  0  0  0  0  0  0  0
    6.0101   13.8655   27.8074 C   0  0  0  0  0  0  0  0  0  0  0  0
    5.1783   12.0517   26.4417 N   0  0  0  0  0  0  0  0  0  0  0  0
    4.2052   12.0608   26.2927 H   0  0  0  0  0  0  0  0  0  0  0  0
    5.8488   12.0376   23.9560 O   0  0  0  0  0  0  0  0  0  0  0  0
    6.2268   11.4906   25.2373 S   0  0  0  0  0  0  0  0  0  0  0  0
    7.5548   11.7392   25.7630 O   0  0  0  0  0  0  0  0  0  0  0  0
    5.9720    9.7335   25.2736 C   0  0  0  0  0  0  0  0  0  0  0  0
    4.7752    9.2458   24.7167 C   0  0  0  0  0  0  0  0  0  0  0  0
    4.4912    7.8794   24.7345 C   0  0  0  0  0  0  0  0  0  0  0  0
    5.3967    6.9975   25.3139 C   0  0  0  0  0  0  0  0  0  0  0  0
    5.0532    5.3130   25.3360 Cl  0  0  0  0  0  0  0  0  0  0  0  0
    6.5809    7.4711   25.8750 C   0  0  0  0  0  0  0  0  0  0  0  0
    6.8747    8.8423   25.8627 C   0  0  0  0  0  0  0  0  0  0  0  0
    8.3859    9.2887   26.5655 Cl  0  0  0  0  0  0  0  0  0  0  0  0
    7.3578   13.9394   31.2265 O   0  0  0  0  0  0  0  0  0  0  0  0
    6.5422   14.1220   32.3181 C   0  0  0  0  0  0  0  0  0  0  0  0
    5.2728   14.6794   32.3128 C   0  0  0  0  0  0  0  0  0  0  0  0
    4.5094   14.8472   33.4207 N   0  0  0  0  0  0  0  0  0  0  0  0
    5.0200   14.4556   34.6016 C   0  0  0  0  0  0  0  0  0  0  0  0
    4.2675   14.6105   35.7580 C   0  0  0  0  0  0  0  0  0  0  0  0
    4.7540   14.2217   37.0098 C   0  0  0  0  0  0  0  0  0  0  0  0
    6.0227   13.6638   37.1169 C   0  0  0  0  0  0  0  0  0  0  0  0
    6.8002   13.4965   35.9727 C   0  0  0  0  0  0  0  0  0  0  0  0
    6.3075   13.8882   34.7154 C   0  0  0  0  0  0  0  0  0  0  0  0
    7.0652   13.7314   33.5464 C   0  0  0  0  0  0  0  0  0  0  0  0
 11 12  2  0
 12 13  2  0
 12  9  1  0
  9  1  1  0
  1  2  2  0
  2  3  1  0
  3  4  1  0
  3  5  2  0
  5 22  1  0
 22 23  1  0
 23 24  2  0
 24 25  1  0
 25 26  2  0
 26 27  1  0
 27 28  2  0
 28 29  1  0
 29 30  2  0
 30 31  1  0
 31 32  2  0
  5  6  1  0
  6  7  1  0
  6  8  2  0
 12 14  1  0
 14 15  2  0
 15 16  1  0
 16 17  2  0
 17 18  1  0
 17 19  1  0
 19 20  2  0
 20 21  1  0
  8  1  1  0
 20 14  1  0
 32 23  1  0
 31 26  1  0
  9 10  1  0
M  END
> <minimizedAffinity>
-8.06005

> <CNNscore>
0.2039514631

> <CNNaffinity>
6.8706765175

> <CNN_VS>
1.4012845755

> <CNNaffinity_variance>
0.3401251733

$$$$



 32 35  0  0  0  0  0  0  0  0999 V2000
    5.6992   13.6718   28.1511 C   0  0  0  0  0  0  0  0  0  0  0  0
    6.0365   13.5833   26.8019 C   0  0  0  0  0  0  0  0  0  0  0  0
    6.7607   12.4815   26.3408 C   0  0  0  0  0  0  0  0  0  0  0  0
    7.1989   12.4366   24.6714 Cl  0  0  0  0  0  0  0  0  0  0  0  0
    7.1227   11.4553   27.2236 C   0  0  0  0  0  0  0  0  0  0  0  0
    6.7916   11.5654   28.5797 C   0  0  0  0  0  0  0  0  0  0  0  0
    7.2535   10.3557   29.7207 Cl  0  0  0  0  0  0  0  0  0  0  0  0
    6.0656   12.6645   29.0411 C   0  0  0  0  0  0  0  0  0  0  0  0
    4.9701   14.7839   28.6480 N   0  0  0  0  0  0  0  0  0  0  0  0
    3.9857   14.7824   28.6349 H   0  0  0  0  0  0  0  0  0  0  0  0
    7.2218   15.9974   28.9417 O   0  0  0  0  0  0  0  0  0  0  0  0
    5.8193   16.1125   29.2633 S   0  0  0  0  0  0  0  0  0  0  0  0
    5.0691   17.2679   28.8112 O   0  0  0  0  0  0  0  0  0  0  0  0
    5.5598   15.9752   31.0148 C   0  0  0  0  0  0  0  0  0  0  0  0
    6.7023   15.8404   31.8252 C   0  0  0  0  0  0  0  0  0  0  0  0
    6.5767   15.6981   33.2080 C   0  0  0  0  0  0  0  0  0  0  0  0
    5.3115   15.6830   33.7845 C   0  0  0  0  0  0  0  0  0  0  0  0
    5.1511   15.5109   35.4876 Cl  0  0  0  0  0  0  0  0  0  0  0  0
    4.1737   15.8078   32.9900 C   0  0  0  0  0  0  0  0  0  0  0  0
    4.2896   15.9504   31.5997 C   0  0  0  0  0  0  0  0  0  0  0  0
    2.8036   16.1233   30.7401 Cl  0  0  0  0  0  0  0  0  0  0  0  0
    7.8698   10.3845   26.7919 O   0  0  0  0  0  0  0  0  0  0  0  0
    7.1985    9.2509   26.3991 C   0  0  0  0  0  0  0  0  0  0  0  0
    6.3428    9.1355   25.3143 C   0  0  0  0  0  0  0  0  0  0  0  0
    5.6950    7.9946   24.9725 N   0  0  0  0  0  0  0  0  0  0  0  0
    5.8884    6.9073   25.7401 C   0  0  0  0  0  0  0  0  0  0  0  0
    5.2428    5.7203   25.4210 C   0  0  0  0  0  0  0  0  0  0  0  0
    5.4087    4.5634   26.1884 C   0  0  0  0  0  0  0  0  0  0  0  0
    6.2382    4.5853   27.3036 C   0  0  0  0  0  0  0  0  0  0  0  0
    6.8988    5.7630   27.6476 C   0  0  0  0  0  0  0  0  0  0  0  0
    6.7299    6.9244   26.8732 C   0  0  0  0  0  0  0  0  0  0  0  0
    7.3819    8.1236   27.1929 C   0  0  0  0  0  0  0  0  0  0  0  0
 11 12  2  0
 12 13  2  0
 12  9  1  0
  9  1  1  0
  1  2  2  0
  2  3  1  0
  3  4  1  0
  3  5  2  0
  5 22  1  0
 22 23  1  0
 23 24  2  0
 24 25  1  0
 25 26  2  0
 26 27  1  0
 27 28  2  0
 28 29  1  0
 29 30  2  0
 30 31  1  0
 31 32  2  0
  5  6  1  0
  6  7  1  0
  6  8  2  0
 12 14  1  0
 14 15  2  0
 15 16  1  0
 16 17  2  0
 17 18  1  0
 17 19  1  0
 19 20  2  0
 20 21  1  0
  8  1  1  0
 20 14  1  0
 32 23  1  0
 31 26  1  0
  9 10  1  0
M  END
> <minimizedAffinity>
-7.33466

> <CNNscore>
0.1836052537

> <CNNaffinity>
7.0837116241

> <CNN_VS>
1.3006067276

> <CNNaffinity_variance>
0.0300941374

$$$$



 32 35  0  0  0  0  0  0  0  0999 V2000
    5.7521   13.3877   27.8404 C   0  0  0  0  0  0  0  0  0  0  0  0
    6.2016   12.4974   28.8137 C   0  0  0  0  0  0  0  0  0  0  0  0
    7.0425   11.4427   28.4509 C   0  0  0  0  0  0  0  0  0  0  0  0
    7.5360   10.3356   29.6804 Cl  0  0  0  0  0  0  0  0  0  0  0  0
    7.4559   11.2954   27.1202 C   0  0  0  0  0  0  0  0  0  0  0  0
    6.9830   12.1874   26.1499 C   0  0  0  0  0  0  0  0  0  0  0  0
    7.4203   12.0254   24.4881 Cl  0  0  0  0  0  0  0  0  0  0  0  0
    6.1451   13.2433   26.5116 C   0  0  0  0  0  0  0  0  0  0  0  0
    4.8910   14.4640   28.1801 N   0  0  0  0  0  0  0  0  0  0  0  0
    3.9523   14.2953   28.4240 H   0  0  0  0  0  0  0  0  0  0  0  0
    6.8737   16.0486   28.6125 O   0  0  0  0  0  0  0  0  0  0  0  0
    5.5031   16.0419   28.1593 S   0  0  0  0  0  0  0  0  0  0  0  0
    5.1790   16.5431   26.8381 O   0  0  0  0  0  0  0  0  0  0  0  0
    4.4530   16.8922   29.3116 C   0  0  0  0  0  0  0  0  0  0  0  0
    3.5032   16.1204   30.0063 C   0  0  0  0  0  0  0  0  0  0  0  0
    2.6233   16.7228   30.9068 C   0  0  0  0  0  0  0  0  0  0  0  0
    2.6841   18.0968   31.1112 C   0  0  0  0  0  0  0  0  0  0  0  0
    1.6046   18.8436   32.2216 Cl  0  0  0  0  0  0  0  0  0  0  0  0
    3.6157   18.8710   30.4226 C   0  0  0  0  0  0  0  0  0  0  0  0
    4.5034   18.2751   29.5151 C   0  0  0  0  0  0  0  0  0  0  0  0
    5.6222   19.3447   28.7528 Cl  0  0  0  0  0  0  0  0  0  0  0  0
    8.2509   10.2391   26.7415 O   0  0  0  0  0  0  0  0  0  0  0  0
    7.7572    8.9685   26.9204 C   0  0  0  0  0  0  0  0  0  0  0  0
    8.1004    8.0875   27.9345 C   0  0  0  0  0  0  0  0  0  0  0  0
    7.5913    6.8375   28.0629 N   0  0  0  0  0  0  0  0  0  0  0  0
    6.7027    6.4226   27.1425 C   0  0  0  0  0  0  0  0  0  0  0  0
    6.1588    5.1490   27.2414 C   0  0  0  0  0  0  0  0  0  0  0  0
    5.2335    4.6700   26.3091 C   0  0  0  0  0  0  0  0  0  0  0  0
    4.8373    5.4772   25.2490 C   0  0  0  0  0  0  0  0  0  0  0  0
    5.3671    6.7600   25.1249 C   0  0  0  0  0  0  0  0  0  0  0  0
    6.2970    7.2387   26.0646 C   0  0  0  0  0  0  0  0  0  0  0  0
    6.8464    8.5247   25.9674 C   0  0  0  0  0  0  0  0  0  0  0  0
 11 12  2  0
 12 13  2  0
 12  9  1  0
  9  1  1  0
  1  2  2  0
  2  3  1  0
  3  4  1  0
  3  5  2  0
  5 22  1  0
 22 23  1  0
 23 24  2  0
 24 25  1  0
 25 26  2  0
 26 27  1  0
 27 28  2  0
 28 29  1  0
 29 30  2  0
 30 31  1  0
 31 32  2  0
  5  6  1  0
  6  7  1  0
  6  8  2  0
 12 14  1  0
 14 15  2  0
 15 16  1  0
 16 17  2  0
 17 18  1  0
 17 19  1  0
 19 20  2  0
 20 21  1  0
  8  1  1  0
 20 14  1  0
 32 23  1  0
 31 26  1  0
  9 10  1  0
M  END
> <minimizedAffinity>
-7.25881

> <CNNscore>
0.1750901639

> <CNNaffinity>
6.8229122162

> <CNN_VS>
1.1946247816

> <CNNaffinity_variance>
0.2593431473

$$$$



 32 35  0  0  0  0  0  0  0  0999 V2000
    4.2747   15.9011   29.1861 C   0  0  0  0  0  0  0  0  0  0  0  0
    4.7893   15.0864   30.1929 C   0  0  0  0  0  0  0  0  0  0  0  0
    4.5565   15.4106   31.5315 C   0  0  0  0  0  0  0  0  0  0  0  0
    5.2536   14.4009   32.7462 Cl  0  0  0  0  0  0  0  0  0  0  0  0
    3.7859   16.5331   31.8621 C   0  0  0  0  0  0  0  0  0  0  0  0
    3.2892   17.3521   30.8406 C   0  0  0  0  0  0  0  0  0  0  0  0
    2.3750   18.7736   31.1901 Cl  0  0  0  0  0  0  0  0  0  0  0  0
    3.5187   17.0277   29.5027 C   0  0  0  0  0  0  0  0  0  0  0  0
    4.5022   15.5993   27.8177 N   0  0  0  0  0  0  0  0  0  0  0  0
    3.7830   15.2183   27.2637 H   0  0  0  0  0  0  0  0  0  0  0  0
    5.9254   16.8911   26.1047 O   0  0  0  0  0  0  0  0  0  0  0  0
    6.0287   15.9044   27.1533 S   0  0  0  0  0  0  0  0  0  0  0  0
    6.8824   16.1563   28.2977 O   0  0  0  0  0  0  0  0  0  0  0  0
    6.4980   14.3252   26.4902 C   0  0  0  0  0  0  0  0  0  0  0  0
    6.2602   13.1944   27.2934 C   0  0  0  0  0  0  0  0  0  0  0  0
    6.6286   11.9225   26.8522 C   0  0  0  0  0  0  0  0  0  0  0  0
    7.2411   11.7766   25.6125 C   0  0  0  0  0  0  0  0  0  0  0  0
    7.6944   10.2118   25.0629 Cl  0  0  0  0  0  0  0  0  0  0  0  0
    7.4880   12.8907   24.8131 C   0  0  0  0  0  0  0  0  0  0  0  0
    7.1223   14.1728   25.2480 C   0  0  0  0  0  0  0  0  0  0  0  0
    7.4602   15.4591   24.1488 Cl  0  0  0  0  0  0  0  0  0  0  0  0
    3.5821   16.8868   33.1753 O   0  0  0  0  0  0  0  0  0  0  0  0
    2.5742   16.2517   33.8615 C   0  0  0  0  0  0  0  0  0  0  0  0
    2.6298   15.7952   35.1695 C   0  0  0  0  0  0  0  0  0  0  0  0
    1.6090   15.1645   35.8006 N   0  0  0  0  0  0  0  0  0  0  0  0
    0.4727   14.9610   35.1107 C   0  0  0  0  0  0  0  0  0  0  0  0
   -0.5950   14.3192   35.7238 C   0  0  0  0  0  0  0  0  0  0  0  0
   -1.7962   14.0817   35.0490 C   0  0  0  0  0  0  0  0  0  0  0  0
   -1.9419   14.4923   33.7289 C   0  0  0  0  0  0  0  0  0  0  0  0
   -0.8867   15.1387   33.0884 C   0  0  0  0  0  0  0  0  0  0  0  0
    0.3198   15.3764   33.7703 C   0  0  0  0  0  0  0  0  0  0  0  0
    1.3985   16.0254   33.1535 C   0  0  0  0  0  0  0  0  0  0  0  0
 11 12  2  0
 12 13  2  0
 12  9  1  0
  9  1  1  0
  1  2  2  0
  2  3  1  0
  3  4  1  0
  3  5  2  0
  5 22  1  0
 22 23  1  0
 23 24  2  0
 24 25  1  0
 25 26  2  0
 26 27  1  0
 27 28  2  0
 28 29  1  0
 29 30  2  0
 30 31  1  0
 31 32  2  0
  5  6  1  0
  6  7  1  0
  6  8  2  0
 12 14  1  0
 14 15  2  0
 15 16  1  0
 16 17  2  0
 17 18  1  0
 17 19  1  0
 19 20  2  0
 20 21  1  0
  8  1  1  0
 20 14  1  0
 32 23  1  0
 31 26  1  0
  9 10  1  0
M  END
> <minimizedAffinity>
-7.85423

> <CNNscore>
0.1721912473

> <CNNaffinity>
6.0553126335

> <CNN_VS>
1.0426717997

> <CNNaffinity_variance>
0.2557347119

$$$$
