


 37 39  0  0  0  0  0  0  0  0999 V2000
   20.5551  -30.8829    9.1245 C   0  0  0  0  0  0  0  0  0  0  0  0
   20.4248  -29.7190    9.7843 C   0  0  0  0  0  0  0  0  0  0  0  0
   20.2834  -29.5240   11.2671 C   0  0  0  0  0  0  0  0  0  0  0  0
   18.8724  -29.5197   11.5654 O   0  0  0  0  0  0  0  0  0  0  0  0
   18.6694  -30.1425   12.8461 C   0  0  0  0  0  0  0  0  0  0  0  0
   20.0568  -30.4165   13.4405 C   0  0  0  0  0  0  0  0  0  0  0  0
   20.5502  -29.2782   14.1804 O   0  0  0  0  0  0  0  0  0  0  0  0
   20.9100  -30.5738   12.1937 C   0  0  0  0  0  0  0  0  0  0  0  0
   22.2879  -30.3419   12.4751 O   0  0  0  0  0  0  0  0  0  0  0  0
   20.5645  -28.4988   13.6032 H   0  0  0  0  0  0  0  0  0  0  0  0
   22.3934  -29.4632   12.8721 H   0  0  0  0  0  0  0  0  0  0  0  0
   17.7108  -31.6952   12.6837 S   0  0  0  0  0  0  0  0  0  0  0  0
   16.0459  -31.0644   12.7976 C   0  0  0  0  0  0  0  0  0  0  0  0
   15.8193  -29.8836   13.5017 C   0  0  0  0  0  0  0  0  0  0  0  0
   14.5212  -29.4136   13.5954 C   0  0  0  0  0  0  0  0  0  0  0  0
   13.4588  -30.0366   13.0482 N   0  0  0  0  0  0  0  0  0  0  0  0
   13.6999  -31.1903   12.3882 C   0  0  0  0  0  0  0  0  0  0  0  0
   12.2142  -32.0921   11.6288 Br  0  0  0  0  0  0  0  0  0  0  0  0
   14.9624  -31.7414   12.2422 C   0  0  0  0  0  0  0  0  0  0  0  0
   20.7004  -30.9852    7.6380 C   0  0  0  0  0  0  0  0  0  0  0  0
   23.1667  -31.6879    6.4264 O   0  0  0  0  0  0  0  0  0  0  0  0
   22.8968  -30.5061    6.6151 C   0  0  0  0  0  0  0  0  0  0  0  0
   21.7504  -30.0852    7.2421 N   0  0  0  0  0  0  0  0  0  0  0  0
   21.6420  -29.1247    7.4292 H   0  0  0  0  0  0  0  0  0  0  0  0
   23.8472  -29.4476    6.1513 C   0  0  0  0  0  0  0  0  0  0  0  0
   24.8803  -29.8461    5.2832 C   0  0  0  0  0  0  0  0  0  0  0  0
   25.8070  -28.9051    4.8069 C   0  0  0  0  0  0  0  0  0  0  0  0
   25.7246  -27.5578    5.1826 C   0  0  0  0  0  0  0  0  0  0  0  0
   24.7024  -27.1725    6.0387 C   0  0  0  0  0  0  0  0  0  0  0  0
   24.5599  -25.8731    6.4474 O   0  0  0  0  0  0  0  0  0  0  0  0
   23.7704  -28.0992    6.5213 C   0  0  0  0  0  0  0  0  0  0  0  0
   22.7931  -27.6243    7.3609 O   0  0  0  0  0  0  0  0  0  0  0  0
   25.1613  -25.2194    6.1490 H   0  0  0  0  0  0  0  0  0  0  0  0
   22.7714  -26.7155    7.5879 H   0  0  0  0  0  0  0  0  0  0  0  0
   26.8812  -29.3342    3.9015 N   0  0  0  0  0  0  0  0  0  0  0  0
   27.3653  -30.4610    4.0681 O   0  0  0  0  0  0  0  0  0  0  0  0
   27.2368  -28.5372    3.0211 O   0  0  0  0  0  0  0  0  0  0  0  0
 21 22  2  0
 22 23  1  0
 23 20  1  0
 20  1  1  0
  1  2  2  0
  3  2  1  0
  3  4  1  0
  4  5  1  0
  5 12  1  0
 12 13  1  0
 13 14  2  0
 14 15  1  0
 15 16  2  0
 16 17  1  0
 17 18  1  0
 17 19  2  0
  5  6  1  0
  6  7  1  0
  6  8  1  0
  8  9  1  0
 22 25  1  0
 25 26  2  0
 26 27  1  0
 27 35  1  0
 35 36  2  0
 35 37  1  0
 27 28  2  0
 28 29  1  0
 29 30  1  0
 29 31  2  0
 31 32  1  0
  8  3  1  0
 31 25  1  0
 19 13  1  0
 23 24  1  0
  7 10  1  0
  9 11  1  0
 30 33  1  0
 32 34  1  0
M  CHG 1  35   1
M  CHG 1  37  -1
M  END
> <minimizedAffinity>
-10.30570

> <CNNscore>
0.9611011744

> <CNNaffinity>
7.2429294586

> <CNN_VS>
6.9611878395

> <CNNaffinity_variance>
0.0633560121

$$$$



 37 39  0  0  0  0  0  0  0  0999 V2000
   21.6931  -27.8907   11.5313 C   0  0  0  0  0  0  0  0  0  0  0  0
   20.5760  -28.0468   12.2624 C   0  0  0  0  0  0  0  0  0  0  0  0
   20.1897  -29.2384   13.0916 C   0  0  0  0  0  0  0  0  0  0  0  0
   18.7510  -29.2421   13.1912 O   0  0  0  0  0  0  0  0  0  0  0  0
   18.2923  -30.6055   13.1966 C   0  0  0  0  0  0  0  0  0  0  0  0
   19.5366  -31.5010   13.2511 C   0  0  0  0  0  0  0  0  0  0  0  0
   19.9584  -31.7392   14.6121 O   0  0  0  0  0  0  0  0  0  0  0  0
   20.5835  -30.6296   12.5790 C   0  0  0  0  0  0  0  0  0  0  0  0
   21.9023  -31.0252   12.9475 O   0  0  0  0  0  0  0  0  0  0  0  0
   20.1181  -30.8907   15.0543 H   0  0  0  0  0  0  0  0  0  0  0  0
   21.9876  -31.0059   13.9136 H   0  0  0  0  0  0  0  0  0  0  0  0
   17.2885  -30.9731   11.7089 S   0  0  0  0  0  0  0  0  0  0  0  0
   15.6432  -30.8669   12.3906 C   0  0  0  0  0  0  0  0  0  0  0  0
   15.4098  -29.9996   13.4558 C   0  0  0  0  0  0  0  0  0  0  0  0
   14.1329  -29.9383   13.9852 C   0  0  0  0  0  0  0  0  0  0  0  0
   13.0994  -30.6753   13.5326 N   0  0  0  0  0  0  0  0  0  0  0  0
   13.3541  -31.5242   12.5131 C   0  0  0  0  0  0  0  0  0  0  0  0
   11.9166  -32.5849   11.8762 Br  0  0  0  0  0  0  0  0  0  0  0  0
   14.5982  -31.6581   11.9187 C   0  0  0  0  0  0  0  0  0  0  0  0
   22.0035  -26.6596   10.7380 C   0  0  0  0  0  0  0  0  0  0  0  0
   21.1267  -28.2529    8.5616 O   0  0  0  0  0  0  0  0  0  0  0  0
   22.2660  -27.7977    8.5618 C   0  0  0  0  0  0  0  0  0  0  0  0
   22.7843  -27.0631    9.5993 N   0  0  0  0  0  0  0  0  0  0  0  0
   23.7325  -26.8007    9.5622 H   0  0  0  0  0  0  0  0  0  0  0  0
   23.1596  -28.0412    7.3866 C   0  0  0  0  0  0  0  0  0  0  0  0
   23.1800  -29.3427    6.8526 C   0  0  0  0  0  0  0  0  0  0  0  0
   23.9939  -29.6421    5.7485 C   0  0  0  0  0  0  0  0  0  0  0  0
   24.7984  -28.6587    5.1578 C   0  0  0  0  0  0  0  0  0  0  0  0
   24.7723  -27.3771    5.6901 C   0  0  0  0  0  0  0  0  0  0  0  0
   25.5316  -26.3658    5.1641 O   0  0  0  0  0  0  0  0  0  0  0  0
   23.9652  -27.0633    6.7903 C   0  0  0  0  0  0  0  0  0  0  0  0
   24.0035  -25.7682    7.2451 O   0  0  0  0  0  0  0  0  0  0  0  0
   26.0864  -26.5311    4.4273 H   0  0  0  0  0  0  0  0  0  0  0  0
   24.5543  -25.1392    6.8221 H   0  0  0  0  0  0  0  0  0  0  0  0
   24.0064  -31.0050    5.2008 N   0  0  0  0  0  0  0  0  0  0  0  0
   22.9439  -31.6396    5.1988 O   0  0  0  0  0  0  0  0  0  0  0  0
   25.0861  -31.4365    4.7709 O   0  0  0  0  0  0  0  0  0  0  0  0
 21 22  2  0
 22 23  1  0
 23 20  1  0
 20  1  1  0
  1  2  2  0
  3  2  1  0
  3  4  1  0
  4  5  1  0
  5 12  1  0
 12 13  1  0
 13 14  2  0
 14 15  1  0
 15 16  2  0
 16 17  1  0
 17 18  1  0
 17 19  2  0
  5  6  1  0
  6  7  1  0
  6  8  1  0
  8  9  1  0
 22 25  1  0
 25 26  2  0
 26 27  1  0
 27 35  1  0
 35 36  2  0
 35 37  1  0
 27 28  2  0
 28 29  1  0
 29 30  1  0
 29 31  2  0
 31 32  1  0
  8  3  1  0
 31 25  1  0
 19 13  1  0
 23 24  1  0
  7 10  1  0
  9 11  1  0
 30 33  1  0
 32 34  1  0
M  CHG 1  35   1
M  CHG 1  37  -1
M  END
> <minimizedAffinity>
-10.30349

> <CNNscore>
0.9581149220

> <CNNaffinity>
7.2663536072

> <CNN_VS>
6.9620018005

> <CNNaffinity_variance>
0.0360821672

$$$$



 37 39  0  0  0  0  0  0  0  0999 V2000
   19.5184  -32.7954   13.0974 C   0  0  0  0  0  0  0  0  0  0  0  0
   20.5454  -33.4400   13.6776 C   0  0  0  0  0  0  0  0  0  0  0  0
   20.8326  -34.9141   13.6408 C   0  0  0  0  0  0  0  0  0  0  0  0
   20.3005  -35.4840   14.8540 O   0  0  0  0  0  0  0  0  0  0  0  0
   19.7975  -36.8001   14.5638 C   0  0  0  0  0  0  0  0  0  0  0  0
   20.1760  -37.1186   13.1117 C   0  0  0  0  0  0  0  0  0  0  0  0
   21.4922  -37.7076   13.0244 O   0  0  0  0  0  0  0  0  0  0  0  0
   20.2370  -35.7344   12.4895 C   0  0  0  0  0  0  0  0  0  0  0  0
   21.0356  -35.7308   11.3089 O   0  0  0  0  0  0  0  0  0  0  0  0
   22.1404  -37.1126   13.4326 H   0  0  0  0  0  0  0  0  0  0  0  0
   21.9208  -36.0691   11.5163 H   0  0  0  0  0  0  0  0  0  0  0  0
   17.9826  -36.8828   14.7983 S   0  0  0  0  0  0  0  0  0  0  0  0
   17.8971  -37.5024   16.4692 C   0  0  0  0  0  0  0  0  0  0  0  0
   16.7606  -37.2351   17.2297 C   0  0  0  0  0  0  0  0  0  0  0  0
   16.7138  -37.7082   18.5292 C   0  0  0  0  0  0  0  0  0  0  0  0
   17.7092  -38.4101   19.1060 N   0  0  0  0  0  0  0  0  0  0  0  0
   18.8095  -38.6393   18.3565 C   0  0  0  0  0  0  0  0  0  0  0  0
   20.2294  -39.6079   19.1582 Br  0  0  0  0  0  0  0  0  0  0  0  0
   18.9510  -38.2054   17.0486 C   0  0  0  0  0  0  0  0  0  0  0  0
   19.3128  -31.3147   13.1780 C   0  0  0  0  0  0  0  0  0  0  0  0
   17.3330  -31.0165   11.1690 O   0  0  0  0  0  0  0  0  0  0  0  0
   17.0069  -30.9982   12.3516 C   0  0  0  0  0  0  0  0  0  0  0  0
   17.9081  -31.0827   13.3837 N   0  0  0  0  0  0  0  0  0  0  0  0
   17.5784  -30.9799   14.3057 H   0  0  0  0  0  0  0  0  0  0  0  0
   15.5613  -30.8764   12.7180 C   0  0  0  0  0  0  0  0  0  0  0  0
   14.6407  -31.6263   11.9630 C   0  0  0  0  0  0  0  0  0  0  0  0
   13.2686  -31.5619   12.2530 C   0  0  0  0  0  0  0  0  0  0  0  0
   12.7884  -30.7552   13.2931 C   0  0  0  0  0  0  0  0  0  0  0  0
   13.7028  -30.0190   14.0336 C   0  0  0  0  0  0  0  0  0  0  0  0
   13.3057  -29.2098   15.0649 O   0  0  0  0  0  0  0  0  0  0  0  0
   15.0741  -30.0735   13.7568 C   0  0  0  0  0  0  0  0  0  0  0  0
   15.9022  -29.3126   14.5448 O   0  0  0  0  0  0  0  0  0  0  0  0
   12.3973  -29.1431   15.2850 H   0  0  0  0  0  0  0  0  0  0  0  0
   15.5422  -28.7865   15.2315 H   0  0  0  0  0  0  0  0  0  0  0  0
   12.3179  -32.3493   11.4569 N   0  0  0  0  0  0  0  0  0  0  0  0
   12.1371  -33.5324   11.7720 O   0  0  0  0  0  0  0  0  0  0  0  0
   11.7515  -31.7762   10.5149 O   0  0  0  0  0  0  0  0  0  0  0  0
 21 22  2  0
 22 23  1  0
 23 20  1  0
 20  1  1  0
  1  2  2  0
  3  2  1  0
  3  4  1  0
  4  5  1  0
  5 12  1  0
 12 13  1  0
 13 14  2  0
 14 15  1  0
 15 16  2  0
 16 17  1  0
 17 18  1  0
 17 19  2  0
  5  6  1  0
  6  7  1  0
  6  8  1  0
  8  9  1  0
 22 25  1  0
 25 26  2  0
 26 27  1  0
 27 35  1  0
 35 36  2  0
 35 37  1  0
 27 28  2  0
 28 29  1  0
 29 30  1  0
 29 31  2  0
 31 32  1  0
  8  3  1  0
 31 25  1  0
 19 13  1  0
 23 24  1  0
  7 10  1  0
  9 11  1  0
 30 33  1  0
 32 34  1  0
M  CHG 1  35   1
M  CHG 1  37  -1
M  END
> <minimizedAffinity>
-8.53023

> <CNNscore>
0.7943239808

> <CNNaffinity>
6.5198421478

> <CNN_VS>
5.1788668633

> <CNNaffinity_variance>
0.0916526318

$$$$



 37 39  0  0  0  0  0  0  0  0999 V2000
   20.7323  -30.9939   10.3079 C   0  0  0  0  0  0  0  0  0  0  0  0
   20.2646  -31.2488   11.5421 C   0  0  0  0  0  0  0  0  0  0  0  0
   20.5417  -32.4584   12.3888 C   0  0  0  0  0  0  0  0  0  0  0  0
   21.6955  -33.1175   11.8285 O   0  0  0  0  0  0  0  0  0  0  0  0
   22.4701  -33.6829   12.9009 C   0  0  0  0  0  0  0  0  0  0  0  0
   21.6660  -33.4854   14.1922 C   0  0  0  0  0  0  0  0  0  0  0  0
   20.7433  -34.5747   14.4135 O   0  0  0  0  0  0  0  0  0  0  0  0
   20.8569  -32.2399   13.8741 C   0  0  0  0  0  0  0  0  0  0  0  0
   19.6984  -32.1487   14.6994 O   0  0  0  0  0  0  0  0  0  0  0  0
   20.1568  -34.6626   13.6459 H   0  0  0  0  0  0  0  0  0  0  0  0
   19.1676  -32.9546   14.6018 H   0  0  0  0  0  0  0  0  0  0  0  0
   24.1128  -32.8818   13.0260 S   0  0  0  0  0  0  0  0  0  0  0  0
   24.8751  -33.8944   14.2816 C   0  0  0  0  0  0  0  0  0  0  0  0
   24.5239  -33.6931   15.6148 C   0  0  0  0  0  0  0  0  0  0  0  0
   25.1341  -34.4746   16.5799 C   0  0  0  0  0  0  0  0  0  0  0  0
   26.0555  -35.4188   16.3051 N   0  0  0  0  0  0  0  0  0  0  0  0
   26.3954  -35.5821   15.0080 C   0  0  0  0  0  0  0  0  0  0  0  0
   27.7058  -36.8923   14.6038 Br  0  0  0  0  0  0  0  0  0  0  0  0
   25.8426  -34.8476   13.9716 C   0  0  0  0  0  0  0  0  0  0  0  0
   20.4110  -29.7521    9.5360 C   0  0  0  0  0  0  0  0  0  0  0  0
   21.0874  -30.6634    6.9368 O   0  0  0  0  0  0  0  0  0  0  0  0
   21.8090  -29.8480    7.5022 C   0  0  0  0  0  0  0  0  0  0  0  0
   21.5814  -29.3973    8.7788 N   0  0  0  0  0  0  0  0  0  0  0  0
   22.2489  -28.8050    9.1945 H   0  0  0  0  0  0  0  0  0  0  0  0
   23.0059  -29.3012    6.7901 C   0  0  0  0  0  0  0  0  0  0  0  0
   23.8286  -30.2211    6.1144 C   0  0  0  0  0  0  0  0  0  0  0  0
   24.9674  -29.7778    5.4234 C   0  0  0  0  0  0  0  0  0  0  0  0
   25.3080  -28.4190    5.3913 C   0  0  0  0  0  0  0  0  0  0  0  0
   24.4912  -27.5178    6.0598 C   0  0  0  0  0  0  0  0  0  0  0  0
   24.7620  -26.1752    6.0708 O   0  0  0  0  0  0  0  0  0  0  0  0
   23.3519  -27.9448    6.7526 C   0  0  0  0  0  0  0  0  0  0  0  0
   22.6037  -26.9801    7.3812 O   0  0  0  0  0  0  0  0  0  0  0  0
   25.5143  -25.8453    5.6201 H   0  0  0  0  0  0  0  0  0  0  0  0
   22.8645  -26.0812    7.3356 H   0  0  0  0  0  0  0  0  0  0  0  0
   25.8182  -30.7486    4.7224 N   0  0  0  0  0  0  0  0  0  0  0  0
   25.4404  -31.9263    4.6784 O   0  0  0  0  0  0  0  0  0  0  0  0
   26.8667  -30.3251    4.2143 O   0  0  0  0  0  0  0  0  0  0  0  0
 21 22  2  0
 22 23  1  0
 23 20  1  0
 20  1  1  0
  1  2  2  0
  3  2  1  0
  3  4  1  0
  4  5  1  0
  5 12  1  0
 12 13  1  0
 13 14  2  0
 14 15  1  0
 15 16  2  0
 16 17  1  0
 17 18  1  0
 17 19  2  0
  5  6  1  0
  6  7  1  0
  6  8  1  0
  8  9  1  0
 22 25  1  0
 25 26  2  0
 26 27  1  0
 27 35  1  0
 35 36  2  0
 35 37  1  0
 27 28  2  0
 28 29  1  0
 29 30  1  0
 29 31  2  0
 31 32  1  0
  8  3  1  0
 31 25  1  0
 19 13  1  0
 23 24  1  0
  7 10  1  0
  9 11  1  0
 30 33  1  0
 32 34  1  0
M  CHG 1  35   1
M  CHG 1  37  -1
M  END
> <minimizedAffinity>
-7.79688

> <CNNscore>
0.7693237066

> <CNNaffinity>
6.6644883156

> <CNN_VS>
5.1271486282

> <CNNaffinity_variance>
0.0842139944

$$$$



 37 39  0  0  0  0  0  0  0  0999 V2000
   22.0884  -27.2568   10.3492 C   0  0  0  0  0  0  0  0  0  0  0  0
   21.4602  -28.4176   10.6039 C   0  0  0  0  0  0  0  0  0  0  0  0
   20.9883  -28.9238   11.9372 C   0  0  0  0  0  0  0  0  0  0  0  0
   19.5547  -28.7699   11.9701 O   0  0  0  0  0  0  0  0  0  0  0  0
   18.9895  -29.8679   12.7080 C   0  0  0  0  0  0  0  0  0  0  0  0
   20.1595  -30.6706   13.2911 C   0  0  0  0  0  0  0  0  0  0  0  0
   20.5733  -30.1484   14.5729 O   0  0  0  0  0  0  0  0  0  0  0  0
   21.2661  -30.3909   12.2889 C   0  0  0  0  0  0  0  0  0  0  0  0
   22.5527  -30.6102   12.8618 O   0  0  0  0  0  0  0  0  0  0  0  0
   20.8036  -29.2107   14.4809 H   0  0  0  0  0  0  0  0  0  0  0  0
   22.6478  -30.0678   13.6603 H   0  0  0  0  0  0  0  0  0  0  0  0
   17.9466  -30.9223   11.6325 S   0  0  0  0  0  0  0  0  0  0  0  0
   16.3600  -30.7286   12.4250 C   0  0  0  0  0  0  0  0  0  0  0  0
   16.2511  -29.8649   13.5129 C   0  0  0  0  0  0  0  0  0  0  0  0
   15.0184  -29.7356   14.1280 C   0  0  0  0  0  0  0  0  0  0  0  0
   13.9143  -30.4030   13.7383 N   0  0  0  0  0  0  0  0  0  0  0  0
   14.0486  -31.2502   12.6947 C   0  0  0  0  0  0  0  0  0  0  0  0
   12.5104  -32.2138   12.1450 Br  0  0  0  0  0  0  0  0  0  0  0  0
   15.2399  -31.4490   12.0162 C   0  0  0  0  0  0  0  0  0  0  0  0
   22.5176  -26.8253    8.9814 C   0  0  0  0  0  0  0  0  0  0  0  0
   23.9037  -26.9992    6.5130 O   0  0  0  0  0  0  0  0  0  0  0  0
   23.4629  -28.0177    7.0360 C   0  0  0  0  0  0  0  0  0  0  0  0
   22.7363  -28.0135    8.2007 N   0  0  0  0  0  0  0  0  0  0  0  0
   22.3475  -28.8614    8.5156 H   0  0  0  0  0  0  0  0  0  0  0  0
   23.7122  -29.3458    6.3936 C   0  0  0  0  0  0  0  0  0  0  0  0
   24.9279  -29.5093    5.7044 C   0  0  0  0  0  0  0  0  0  0  0  0
   25.2288  -30.7299    5.0796 C   0  0  0  0  0  0  0  0  0  0  0  0
   24.3317  -31.8051    5.1276 C   0  0  0  0  0  0  0  0  0  0  0  0
   23.1349  -31.6362    5.8098 C   0  0  0  0  0  0  0  0  0  0  0  0
   22.2110  -32.6435    5.8986 O   0  0  0  0  0  0  0  0  0  0  0  0
   22.8212  -30.4252    6.4385 C   0  0  0  0  0  0  0  0  0  0  0  0
   21.6153  -30.3532    7.0914 O   0  0  0  0  0  0  0  0  0  0  0  0
   22.3796  -33.4710    5.4927 H   0  0  0  0  0  0  0  0  0  0  0  0
   21.0430  -31.0951    7.1015 H   0  0  0  0  0  0  0  0  0  0  0  0
   26.5013  -30.8874    4.3628 N   0  0  0  0  0  0  0  0  0  0  0  0
   27.0231  -32.0095    4.3461 O   0  0  0  0  0  0  0  0  0  0  0  0
   26.9751  -29.8814    3.8149 O   0  0  0  0  0  0  0  0  0  0  0  0
 21 22  2  0
 22 23  1  0
 23 20  1  0
 20  1  1  0
  1  2  2  0
  3  2  1  0
  3  4  1  0
  4  5  1  0
  5 12  1  0
 12 13  1  0
 13 14  2  0
 14 15  1  0
 15 16  2  0
 16 17  1  0
 17 18  1  0
 17 19  2  0
  5  6  1  0
  6  7  1  0
  6  8  1  0
  8  9  1  0
 22 25  1  0
 25 26  2  0
 26 27  1  0
 27 35  1  0
 35 36  2  0
 35 37  1  0
 27 28  2  0
 28 29  1  0
 29 30  1  0
 29 31  2  0
 31 32  1  0
  8  3  1  0
 31 25  1  0
 19 13  1  0
 23 24  1  0
  7 10  1  0
  9 11  1  0
 30 33  1  0
 32 34  1  0
M  CHG 1  35   1
M  CHG 1  37  -1
M  END
> <minimizedAffinity>
-8.45514

> <CNNscore>
0.7674267888

> <CNNaffinity>
6.9105629921

> <CNN_VS>
5.3033514023

> <CNNaffinity_variance>
0.1754473895

$$$$



 37 39  0  0  0  0  0  0  0  0999 V2000
   22.1498  -27.3155   10.3716 C   0  0  0  0  0  0  0  0  0  0  0  0
   21.4391  -28.4318   10.6079 C   0  0  0  0  0  0  0  0  0  0  0  0
   20.9655  -28.9449   11.9380 C   0  0  0  0  0  0  0  0  0  0  0  0
   19.5326  -28.7853   11.9724 O   0  0  0  0  0  0  0  0  0  0  0  0
   18.9631  -29.8859   12.7031 C   0  0  0  0  0  0  0  0  0  0  0  0
   20.1299  -30.6972   13.2806 C   0  0  0  0  0  0  0  0  0  0  0  0
   20.5462  -30.1852   14.5657 O   0  0  0  0  0  0  0  0  0  0  0  0
   21.2373  -30.4154   12.2799 C   0  0  0  0  0  0  0  0  0  0  0  0
   22.5232  -30.6438   12.8509 O   0  0  0  0  0  0  0  0  0  0  0  0
   20.7803  -29.2478   14.4799 H   0  0  0  0  0  0  0  0  0  0  0  0
   22.6208  -30.1071   13.6530 H   0  0  0  0  0  0  0  0  0  0  0  0
   17.9155  -30.9288   11.6210 S   0  0  0  0  0  0  0  0  0  0  0  0
   16.3302  -30.7349   12.4161 C   0  0  0  0  0  0  0  0  0  0  0  0
   16.2210  -29.8639   13.4981 C   0  0  0  0  0  0  0  0  0  0  0  0
   14.9894  -29.7346   14.1155 C   0  0  0  0  0  0  0  0  0  0  0  0
   13.8868  -30.4085   13.7333 N   0  0  0  0  0  0  0  0  0  0  0  0
   14.0214  -31.2627   12.6954 C   0  0  0  0  0  0  0  0  0  0  0  0
   12.4852  -32.2356   12.1564 Br  0  0  0  0  0  0  0  0  0  0  0  0
   15.2117  -31.4622   12.0153 C   0  0  0  0  0  0  0  0  0  0  0  0
   22.5740  -26.8723    9.0060 C   0  0  0  0  0  0  0  0  0  0  0  0
   24.0156  -27.1864    6.5837 O   0  0  0  0  0  0  0  0  0  0  0  0
   23.3524  -28.1209    7.0222 C   0  0  0  0  0  0  0  0  0  0  0  0
   22.5854  -28.0338    8.1574 N   0  0  0  0  0  0  0  0  0  0  0  0
   22.0179  -28.8004    8.4016 H   0  0  0  0  0  0  0  0  0  0  0  0
   23.3587  -29.4332    6.3034 C   0  0  0  0  0  0  0  0  0  0  0  0
   22.1196  -30.0758    6.1265 C   0  0  0  0  0  0  0  0  0  0  0  0
   22.0507  -31.3090    5.4591 C   0  0  0  0  0  0  0  0  0  0  0  0
   23.2061  -31.9233    4.9580 C   0  0  0  0  0  0  0  0  0  0  0  0
   24.4244  -31.2829    5.1361 C   0  0  0  0  0  0  0  0  0  0  0  0
   25.5942  -31.8238    4.6725 O   0  0  0  0  0  0  0  0  0  0  0  0
   24.5088  -30.0525    5.7988 C   0  0  0  0  0  0  0  0  0  0  0  0
   25.7569  -29.4938    5.9245 O   0  0  0  0  0  0  0  0  0  0  0  0
   25.5845  -32.6459    4.2230 H   0  0  0  0  0  0  0  0  0  0  0  0
   26.5054  -29.9359    5.5747 H   0  0  0  0  0  0  0  0  0  0  0  0
   20.7509  -31.9698    5.2814 N   0  0  0  0  0  0  0  0  0  0  0  0
   20.6618  -32.8528    4.4188 O   0  0  0  0  0  0  0  0  0  0  0  0
   19.8196  -31.6010    6.0116 O   0  0  0  0  0  0  0  0  0  0  0  0
 21 22  2  0
 22 23  1  0
 23 20  1  0
 20  1  1  0
  1  2  2  0
  3  2  1  0
  3  4  1  0
  4  5  1  0
  5 12  1  0
 12 13  1  0
 13 14  2  0
 14 15  1  0
 15 16  2  0
 16 17  1  0
 17 18  1  0
 17 19  2  0
  5  6  1  0
  6  7  1  0
  6  8  1  0
  8  9  1  0
 22 25  1  0
 25 26  2  0
 26 27  1  0
 27 35  1  0
 35 36  2  0
 35 37  1  0
 27 28  2  0
 28 29  1  0
 29 30  1  0
 29 31  2  0
 31 32  1  0
  8  3  1  0
 31 25  1  0
 19 13  1  0
 23 24  1  0
  7 10  1  0
  9 11  1  0
 30 33  1  0
 32 34  1  0
M  CHG 1  35   1
M  CHG 1  37  -1
M  END
> <minimizedAffinity>
-8.45594

> <CNNscore>
0.6551477909

> <CNNaffinity>
6.8810744286

> <CNN_VS>
4.5081205368

> <CNNaffinity_variance>
0.0637684092

$$$$



 37 39  0  0  0  0  0  0  0  0999 V2000
   20.6498  -32.9783    6.2080 C   0  0  0  0  0  0  0  0  0  0  0  0
   20.6032  -32.7793    4.8794 C   0  0  0  0  0  0  0  0  0  0  0  0
   20.4455  -33.8204    3.8080 C   0  0  0  0  0  0  0  0  0  0  0  0
   19.1684  -33.5950    3.1772 O   0  0  0  0  0  0  0  0  0  0  0  0
   19.2834  -33.9072    1.7776 C   0  0  0  0  0  0  0  0  0  0  0  0
   20.6806  -34.5021    1.5605 C   0  0  0  0  0  0  0  0  0  0  0  0
   20.6883  -35.9298    1.7806 O   0  0  0  0  0  0  0  0  0  0  0  0
   21.4795  -33.8492    2.6752 C   0  0  0  0  0  0  0  0  0  0  0  0
   22.6495  -34.6020    2.9848 O   0  0  0  0  0  0  0  0  0  0  0  0
   20.3614  -36.1211    2.6736 H   0  0  0  0  0  0  0  0  0  0  0  0
   22.3985  -35.5115    3.2100 H   0  0  0  0  0  0  0  0  0  0  0  0
   19.0418  -32.4145    0.7434 S   0  0  0  0  0  0  0  0  0  0  0  0
   17.4243  -32.7443    0.0669 C   0  0  0  0  0  0  0  0  0  0  0  0
   16.6637  -31.6791   -0.4110 C   0  0  0  0  0  0  0  0  0  0  0  0
   15.4047  -31.9469   -0.9189 C   0  0  0  0  0  0  0  0  0  0  0  0
   14.8672  -33.1814   -0.9735 N   0  0  0  0  0  0  0  0  0  0  0  0
   15.6144  -34.1956   -0.4855 C   0  0  0  0  0  0  0  0  0  0  0  0
   14.8662  -35.9376   -0.5349 Br  0  0  0  0  0  0  0  0  0  0  0  0
   16.8833  -34.0279    0.0444 C   0  0  0  0  0  0  0  0  0  0  0  0
   20.8008  -31.8761    7.2099 C   0  0  0  0  0  0  0  0  0  0  0  0
   21.3267  -29.2545    8.1559 O   0  0  0  0  0  0  0  0  0  0  0  0
   22.0119  -29.7240    7.2530 C   0  0  0  0  0  0  0  0  0  0  0  0
   21.7892  -30.9621    6.7032 N   0  0  0  0  0  0  0  0  0  0  0  0
   22.3301  -31.2366    5.9277 H   0  0  0  0  0  0  0  0  0  0  0  0
   23.1533  -28.9292    6.7014 C   0  0  0  0  0  0  0  0  0  0  0  0
   24.1023  -29.6194    5.9251 C   0  0  0  0  0  0  0  0  0  0  0  0
   25.1981  -28.9362    5.3743 C   0  0  0  0  0  0  0  0  0  0  0  0
   25.3702  -27.5615    5.5838 C   0  0  0  0  0  0  0  0  0  0  0  0
   24.4296  -26.8877    6.3502 C   0  0  0  0  0  0  0  0  0  0  0  0
   24.5332  -25.5443    6.5960 O   0  0  0  0  0  0  0  0  0  0  0  0
   23.3312  -27.5553    6.9054 C   0  0  0  0  0  0  0  0  0  0  0  0
   22.4520  -26.8046    7.6464 O   0  0  0  0  0  0  0  0  0  0  0  0
   25.2524  -25.0576    6.2439 H   0  0  0  0  0  0  0  0  0  0  0  0
   22.6018  -25.8870    7.7627 H   0  0  0  0  0  0  0  0  0  0  0  0
   26.1821  -29.6686    4.5661 N   0  0  0  0  0  0  0  0  0  0  0  0
   26.9519  -29.0121    3.8534 O   0  0  0  0  0  0  0  0  0  0  0  0
   26.1812  -30.9054    4.6501 O   0  0  0  0  0  0  0  0  0  0  0  0
 21 22  2  0
 22 23  1  0
 23 20  1  0
 20  1  1  0
  1  2  2  0
  3  2  1  0
  3  4  1  0
  4  5  1  0
  5 12  1  0
 12 13  1  0
 13 14  2  0
 14 15  1  0
 15 16  2  0
 16 17  1  0
 17 18  1  0
 17 19  2  0
  5  6  1  0
  6  7  1  0
  6  8  1  0
  8  9  1  0
 22 25  1  0
 25 26  2  0
 26 27  1  0
 27 35  1  0
 35 36  2  0
 35 37  1  0
 27 28  2  0
 28 29  1  0
 29 30  1  0
 29 31  2  0
 31 32  1  0
  8  3  1  0
 31 25  1  0
 19 13  1  0
 23 24  1  0
  7 10  1  0
  9 11  1  0
 30 33  1  0
 32 34  1  0
M  CHG 1  35   1
M  CHG 1  37  -1
M  END
> <minimizedAffinity>
-7.23608

> <CNNscore>
0.6087104678

> <CNNaffinity>
5.7061443329

> <CNN_VS>
3.4733898640

> <CNNaffinity_variance>
0.0051077697

$$$$



 37 39  0  0  0  0  0  0  0  0999 V2000
   20.4954  -28.2213   12.1930 C   0  0  0  0  0  0  0  0  0  0  0  0
   20.9899  -29.2555   12.8950 C   0  0  0  0  0  0  0  0  0  0  0  0
   20.2218  -30.3982   13.4957 C   0  0  0  0  0  0  0  0  0  0  0  0
   18.8338  -30.0086   13.5319 O   0  0  0  0  0  0  0  0  0  0  0  0
   18.0217  -31.1710   13.2893 C   0  0  0  0  0  0  0  0  0  0  0  0
   18.9646  -32.3802   13.2460 C   0  0  0  0  0  0  0  0  0  0  0  0
   19.1842  -32.9280   14.5646 O   0  0  0  0  0  0  0  0  0  0  0  0
   20.2644  -31.7515   12.7745 C   0  0  0  0  0  0  0  0  0  0  0  0
   21.3875  -32.5550   13.1274 O   0  0  0  0  0  0  0  0  0  0  0  0
   19.5300  -32.2353   15.1490 H   0  0  0  0  0  0  0  0  0  0  0  0
   21.3896  -32.7047   14.0857 H   0  0  0  0  0  0  0  0  0  0  0  0
   17.0903  -31.0132   11.7197 S   0  0  0  0  0  0  0  0  0  0  0  0
   15.4218  -30.8969   12.3404 C   0  0  0  0  0  0  0  0  0  0  0  0
   15.1469  -30.0000   13.3706 C   0  0  0  0  0  0  0  0  0  0  0  0
   13.8520  -29.9309   13.8533 C   0  0  0  0  0  0  0  0  0  0  0  0
   12.8386  -30.6871   13.3870 N   0  0  0  0  0  0  0  0  0  0  0  0
   13.1330  -31.5640   12.4026 C   0  0  0  0  0  0  0  0  0  0  0  0
   11.7240  -32.6516   11.7478 Br  0  0  0  0  0  0  0  0  0  0  0  0
   14.3978  -31.7079   11.8560 C   0  0  0  0  0  0  0  0  0  0  0  0
   21.3387  -27.1251   11.6200 C   0  0  0  0  0  0  0  0  0  0  0  0
   20.2027  -28.9729    9.7925 O   0  0  0  0  0  0  0  0  0  0  0  0
   21.3059  -28.4885    9.5608 C   0  0  0  0  0  0  0  0  0  0  0  0
   21.9475  -27.6296   10.4183 N   0  0  0  0  0  0  0  0  0  0  0  0
   22.8650  -27.3463   10.2010 H   0  0  0  0  0  0  0  0  0  0  0  0
   22.0129  -28.8350    8.2885 C   0  0  0  0  0  0  0  0  0  0  0  0
   22.8978  -27.8759    7.7623 C   0  0  0  0  0  0  0  0  0  0  0  0
   23.5966  -28.1350    6.5725 C   0  0  0  0  0  0  0  0  0  0  0  0
   23.4297  -29.3456    5.8871 C   0  0  0  0  0  0  0  0  0  0  0  0
   22.5555  -30.2867    6.4128 C   0  0  0  0  0  0  0  0  0  0  0  0
   22.3432  -31.4918    5.7974 O   0  0  0  0  0  0  0  0  0  0  0  0
   21.8522  -30.0431    7.5987 C   0  0  0  0  0  0  0  0  0  0  0  0
   21.0123  -31.0344    8.0429 O   0  0  0  0  0  0  0  0  0  0  0  0
   22.7930  -31.6971    5.0015 H   0  0  0  0  0  0  0  0  0  0  0  0
   20.9288  -31.8307    7.5563 H   0  0  0  0  0  0  0  0  0  0  0  0
   24.5171  -27.1251    6.0335 N   0  0  0  0  0  0  0  0  0  0  0  0
   24.5906  -26.0363    6.6173 O   0  0  0  0  0  0  0  0  0  0  0  0
   25.1676  -27.4286    5.0229 O   0  0  0  0  0  0  0  0  0  0  0  0
 21 22  2  0
 22 23  1  0
 23 20  1  0
 20  1  1  0
  1  2  2  0
  3  2  1  0
  3  4  1  0
  4  5  1  0
  5 12  1  0
 12 13  1  0
 13 14  2  0
 14 15  1  0
 15 16  2  0
 16 17  1  0
 17 18  1  0
 17 19  2  0
  5  6  1  0
  6  7  1  0
  6  8  1  0
  8  9  1  0
 22 25  1  0
 25 26  2  0
 26 27  1  0
 27 35  1  0
 35 36  2  0
 35 37  1  0
 27 28  2  0
 28 29  1  0
 29 30  1  0
 29 31  2  0
 31 32  1  0
  8  3  1  0
 31 25  1  0
 19 13  1  0
 23 24  1  0
  7 10  1  0
  9 11  1  0
 30 33  1  0
 32 34  1  0
M  CHG 1  35   1
M  CHG 1  37  -1
M  END
> <minimizedAffinity>
-9.16667

> <CNNscore>
0.6014643908

> <CNNaffinity>
6.9248309135

> <CNN_VS>
4.1650390625

> <CNNaffinity_variance>
0.0111968070

$$$$



 37 39  0  0  0  0  0  0  0  0999 V2000
   20.1126  -31.8370    5.8587 C   0  0  0  0  0  0  0  0  0  0  0  0
   19.8957  -33.1471    5.6499 C   0  0  0  0  0  0  0  0  0  0  0  0
   19.4268  -33.8014    4.3816 C   0  0  0  0  0  0  0  0  0  0  0  0
   19.8089  -32.9405    3.2895 O   0  0  0  0  0  0  0  0  0  0  0  0
   20.1575  -33.7575    2.1579 C   0  0  0  0  0  0  0  0  0  0  0  0
   19.8292  -35.2090    2.5301 C   0  0  0  0  0  0  0  0  0  0  0  0
   18.4566  -35.5373    2.2219 O   0  0  0  0  0  0  0  0  0  0  0  0
   19.9814  -35.1906    4.0412 C   0  0  0  0  0  0  0  0  0  0  0  0
   19.2616  -36.2606    4.6484 O   0  0  0  0  0  0  0  0  0  0  0  0
   17.8658  -34.9171    2.6770 H   0  0  0  0  0  0  0  0  0  0  0  0
   18.3300  -36.2157    4.3822 H   0  0  0  0  0  0  0  0  0  0  0  0
   21.9301  -33.5780    1.7316 S   0  0  0  0  0  0  0  0  0  0  0  0
   21.8346  -33.5322   -0.0493 C   0  0  0  0  0  0  0  0  0  0  0  0
   22.9007  -34.0318   -0.7944 C   0  0  0  0  0  0  0  0  0  0  0  0
   22.8206  -33.9760   -2.1746 C   0  0  0  0  0  0  0  0  0  0  0  0
   21.7701  -33.4599   -2.8426 N   0  0  0  0  0  0  0  0  0  0  0  0
   20.7575  -32.9627   -2.0993 C   0  0  0  0  0  0  0  0  0  0  0  0
   19.2795  -32.2133   -3.0218 Br  0  0  0  0  0  0  0  0  0  0  0  0
   20.7465  -32.9711   -0.7141 C   0  0  0  0  0  0  0  0  0  0  0  0
   20.5910  -31.2693    7.1588 C   0  0  0  0  0  0  0  0  0  0  0  0
   23.3057  -31.8255    6.5545 O   0  0  0  0  0  0  0  0  0  0  0  0
   22.9022  -30.6672    6.5295 C   0  0  0  0  0  0  0  0  0  0  0  0
   21.6190  -30.3084    6.8601 N   0  0  0  0  0  0  0  0  0  0  0  0
   21.3922  -29.3510    6.8942 H   0  0  0  0  0  0  0  0  0  0  0  0
   23.8336  -29.5685    6.1245 C   0  0  0  0  0  0  0  0  0  0  0  0
   24.8983  -29.9096    5.2704 C   0  0  0  0  0  0  0  0  0  0  0  0
   25.8096  -28.9286    4.8484 C   0  0  0  0  0  0  0  0  0  0  0  0
   25.6804  -27.5972    5.2655 C   0  0  0  0  0  0  0  0  0  0  0  0
   24.6272  -27.2685    6.1076 C   0  0  0  0  0  0  0  0  0  0  0  0
   24.4384  -25.9876    6.5546 O   0  0  0  0  0  0  0  0  0  0  0  0
   23.7101  -28.2357    6.5361 C   0  0  0  0  0  0  0  0  0  0  0  0
   22.6997  -27.8157    7.3658 O   0  0  0  0  0  0  0  0  0  0  0  0
   25.0283  -25.3083    6.2928 H   0  0  0  0  0  0  0  0  0  0  0  0
   22.6470  -26.9158    7.6215 H   0  0  0  0  0  0  0  0  0  0  0  0
   26.9172  -29.2980    3.9571 N   0  0  0  0  0  0  0  0  0  0  0  0
   27.4417  -28.4034    3.2815 O   0  0  0  0  0  0  0  0  0  0  0  0
   27.2605  -30.4890    3.9381 O   0  0  0  0  0  0  0  0  0  0  0  0
 21 22  2  0
 22 23  1  0
 23 20  1  0
 20  1  1  0
  1  2  2  0
  3  2  1  0
  3  4  1  0
  4  5  1  0
  5 12  1  0
 12 13  1  0
 13 14  2  0
 14 15  1  0
 15 16  2  0
 16 17  1  0
 17 18  1  0
 17 19  2  0
  5  6  1  0
  6  7  1  0
  6  8  1  0
  8  9  1  0
 22 25  1  0
 25 26  2  0
 26 27  1  0
 27 35  1  0
 35 36  2  0
 35 37  1  0
 27 28  2  0
 28 29  1  0
 29 30  1  0
 29 31  2  0
 31 32  1  0
  8  3  1  0
 31 25  1  0
 19 13  1  0
 23 24  1  0
  7 10  1  0
  9 11  1  0
 30 33  1  0
 32 34  1  0
M  CHG 1  35   1
M  CHG 1  37  -1
M  END
> <minimizedAffinity>
-6.88593

> <CNNscore>
0.5949295759

> <CNNaffinity>
5.7476840019

> <CNN_VS>
3.4194672108

> <CNNaffinity_variance>
0.2104450017

$$$$
