


 26 27  0  0  0  0  0  0  0  0999 V2000
   90.8515   95.5701  -44.9977 C   0  0  0  0  0  0  0  0  0  0  0  0
   90.8607   94.6053  -46.0222 C   0  0  0  0  0  0  0  0  0  0  0  0
   91.3340   93.3108  -45.7900 C   0  0  0  0  0  0  0  0  0  0  0  0
   91.8009   92.9537  -44.5255 C   0  0  0  0  0  0  0  0  0  0  0  0
   91.7856   93.8945  -43.4949 C   0  0  0  0  0  0  0  0  0  0  0  0
   92.4864   93.3164  -41.6108 I   0  0  0  0  0  0  0  0  0  0  0  0
   91.3089   95.1921  -43.7271 C   0  0  0  0  0  0  0  0  0  0  0  0
   91.2692   96.1205  -42.7204 O   0  0  0  0  0  0  0  0  0  0  0  0
   91.5688   95.8939  -41.8620 H   0  0  0  0  0  0  0  0  0  0  0  0
   91.3385   92.3529  -46.8519 C   0  0  0  0  0  0  0  0  0  0  0  0
   91.3450   91.5425  -47.7388 C   0  0  0  0  0  0  0  0  0  0  0  0
   91.3551   90.5508  -48.8184 C   0  0  0  0  0  0  0  0  0  0  0  0
   91.0293   91.1506  -50.0731 O   0  0  0  0  0  0  0  0  0  0  0  0
   89.8609   90.5923  -50.6601 C   0  0  0  0  0  0  0  0  0  0  0  0
   90.3455   96.9690  -45.2919 C   0  0  0  0  0  0  0  0  0  0  0  0
   90.4932  100.6017  -42.8441 C   0  0  0  0  0  0  0  0  0  0  0  0
   89.3946   99.5305  -42.6521 C   0  0  0  0  0  0  0  0  0  0  0  0
   89.2168   98.6543  -43.8941 C   0  0  0  0  0  0  0  0  0  0  0  0
   90.4711   97.9744  -44.2225 N   0  0  0  0  0  0  0  0  0  0  0  0
   91.5508   98.9355  -44.4700 C   0  0  0  0  0  0  0  0  0  0  0  0
   91.7717   99.8300  -43.2463 C   0  0  0  0  0  0  0  0  0  0  0  0
   90.1489  101.6742  -43.8155 N   0  0  0  0  0  0  0  0  0  0  0  0
   88.5592  102.8698  -42.2296 C   0  0  0  0  0  0  0  0  0  0  0  0
   88.8313  102.3021  -43.6216 C   0  0  0  0  0  0  0  0  0  0  0  0
   91.2025  102.6954  -43.9577 C   0  0  0  0  0  0  0  0  0  0  0  0
   91.7588  103.0654  -42.5886 C   0  0  0  0  0  0  0  0  0  0  0  0
 23 24  1  0
 24 22  1  0
 22 25  1  0
 25 26  1  0
 22 16  1  0
 16 17  1  0
 17 18  1  0
 18 19  1  0
 19 15  1  0
 15  1  1  0
  1  2  2  0
  2  3  1  0
  3 10  1  0
 10 11  3  0
 11 12  1  0
 12 13  1  0
 13 14  1  0
  3  4  2  0
  4  5  1  0
  5  6  1  0
  5  7  2  0
  7  8  1  0
 19 20  1  0
 20 21  1  0
 21 16  1  0
  7  1  1  0
  8  9  1  0
M  END
> <minimizedAffinity>
-6.24874

> <CNNscore>
0.8966724277

> <CNNaffinity>
5.0306630135

> <CNN_VS>
4.5108566284

> <CNNaffinity_variance>
0.7006109357

$$$$



 26 27  0  0  0  0  0  0  0  0999 V2000
   90.9015   95.6733  -44.9213 C   0  0  0  0  0  0  0  0  0  0  0  0
   90.8750   94.7037  -45.9411 C   0  0  0  0  0  0  0  0  0  0  0  0
   91.3106   93.3967  -45.7056 C   0  0  0  0  0  0  0  0  0  0  0  0
   91.7747   93.0317  -44.4423 C   0  0  0  0  0  0  0  0  0  0  0  0
   91.7946   93.9774  -43.4163 C   0  0  0  0  0  0  0  0  0  0  0  0
   92.4900   93.3875  -41.5339 I   0  0  0  0  0  0  0  0  0  0  0  0
   91.3557   95.2877  -43.6518 C   0  0  0  0  0  0  0  0  0  0  0  0
   91.3506   96.2216  -42.6495 O   0  0  0  0  0  0  0  0  0  0  0  0
   91.6489   95.9902  -41.7920 H   0  0  0  0  0  0  0  0  0  0  0  0
   91.2792   92.4340  -46.7627 C   0  0  0  0  0  0  0  0  0  0  0  0
   91.2446   91.6253  -47.6504 C   0  0  0  0  0  0  0  0  0  0  0  0
   91.1982   90.6379  -48.7330 C   0  0  0  0  0  0  0  0  0  0  0  0
   89.9751   89.9007  -48.7069 O   0  0  0  0  0  0  0  0  0  0  0  0
   90.0945   88.6201  -49.3129 C   0  0  0  0  0  0  0  0  0  0  0  0
   90.4360   97.0853  -45.2192 C   0  0  0  0  0  0  0  0  0  0  0  0
   89.9084  100.5248  -42.5543 C   0  0  0  0  0  0  0  0  0  0  0  0
   88.8985   99.3544  -42.5882 C   0  0  0  0  0  0  0  0  0  0  0  0
   88.9747   98.5615  -43.8949 C   0  0  0  0  0  0  0  0  0  0  0  0
   90.3200   98.0151  -44.0824 N   0  0  0  0  0  0  0  0  0  0  0  0
   91.3291   99.0787  -44.1128 C   0  0  0  0  0  0  0  0  0  0  0  0
   91.2962   99.8947  -42.8169 C   0  0  0  0  0  0  0  0  0  0  0  0
   89.6020  101.6343  -43.4962 N   0  0  0  0  0  0  0  0  0  0  0  0
   89.9276  103.4054  -41.6994 C   0  0  0  0  0  0  0  0  0  0  0  0
   90.1703  102.9438  -43.1353 C   0  0  0  0  0  0  0  0  0  0  0  0
   89.8923  101.3046  -44.9035 C   0  0  0  0  0  0  0  0  0  0  0  0
   90.5560  102.4909  -45.5910 C   0  0  0  0  0  0  0  0  0  0  0  0
 23 24  1  0
 24 22  1  0
 22 25  1  0
 25 26  1  0
 22 16  1  0
 16 17  1  0
 17 18  1  0
 18 19  1  0
 19 15  1  0
 15  1  1  0
  1  2  2  0
  2  3  1  0
  3 10  1  0
 10 11  3  0
 11 12  1  0
 12 13  1  0
 13 14  1  0
  3  4  2  0
  4  5  1  0
  5  6  1  0
  5  7  2  0
  7  8  1  0
 19 20  1  0
 20 21  1  0
 21 16  1  0
  7  1  1  0
  8  9  1  0
M  END
> <minimizedAffinity>
-6.19313

> <CNNscore>
0.8735998273

> <CNNaffinity>
5.0309185982

> <CNN_VS>
4.3950095177

> <CNNaffinity_variance>
0.6923942566

$$$$



 26 27  0  0  0  0  0  0  0  0999 V2000
   90.7975   95.7329  -45.0695 C   0  0  0  0  0  0  0  0  0  0  0  0
   90.7976   94.7137  -46.0400 C   0  0  0  0  0  0  0  0  0  0  0  0
   91.2749   93.4342  -45.7425 C   0  0  0  0  0  0  0  0  0  0  0  0
   91.7549   93.1468  -44.4652 C   0  0  0  0  0  0  0  0  0  0  0  0
   91.7489   94.1423  -43.4873 C   0  0  0  0  0  0  0  0  0  0  0  0
   92.4693   93.6682  -41.5817 I   0  0  0  0  0  0  0  0  0  0  0  0
   91.2682   95.4250  -43.7849 C   0  0  0  0  0  0  0  0  0  0  0  0
   91.2375   96.4069  -42.8300 O   0  0  0  0  0  0  0  0  0  0  0  0
   91.5460   96.2276  -41.9636 H   0  0  0  0  0  0  0  0  0  0  0  0
   91.2698   92.4198  -46.7506 C   0  0  0  0  0  0  0  0  0  0  0  0
   91.2726   91.5648  -47.5946 C   0  0  0  0  0  0  0  0  0  0  0  0
   91.2801   90.5204  -48.6233 C   0  0  0  0  0  0  0  0  0  0  0  0
   89.9614   90.0305  -48.8709 O   0  0  0  0  0  0  0  0  0  0  0  0
   89.6871   89.8727  -50.2570 C   0  0  0  0  0  0  0  0  0  0  0  0
   90.2868   97.1133  -45.4343 C   0  0  0  0  0  0  0  0  0  0  0  0
   86.8862   99.3938  -43.8705 C   0  0  0  0  0  0  0  0  0  0  0  0
   86.6978   98.0505  -44.6130 C   0  0  0  0  0  0  0  0  0  0  0  0
   87.8966   97.7057  -45.4995 C   0  0  0  0  0  0  0  0  0  0  0  0
   89.1175   97.6208  -44.6958 N   0  0  0  0  0  0  0  0  0  0  0  0
   89.3884   98.8834  -44.0007 C   0  0  0  0  0  0  0  0  0  0  0  0
   88.2160   99.2643  -43.0915 C   0  0  0  0  0  0  0  0  0  0  0  0
   86.8571  100.5950  -44.7471 N   0  0  0  0  0  0  0  0  0  0  0  0
   87.9913  102.8429  -44.3840 C   0  0  0  0  0  0  0  0  0  0  0  0
   88.1053  101.3748  -44.7908 C   0  0  0  0  0  0  0  0  0  0  0  0
   86.3637  100.3150  -46.1077 C   0  0  0  0  0  0  0  0  0  0  0  0
   85.0979  101.1180  -46.3792 C   0  0  0  0  0  0  0  0  0  0  0  0
 23 24  1  0
 24 22  1  0
 22 25  1  0
 25 26  1  0
 22 16  1  0
 16 17  1  0
 17 18  1  0
 18 19  1  0
 19 15  1  0
 15  1  1  0
  1  2  2  0
  2  3  1  0
  3 10  1  0
 10 11  3  0
 11 12  1  0
 12 13  1  0
 13 14  1  0
  3  4  2  0
  4  5  1  0
  5  6  1  0
  5  7  2  0
  7  8  1  0
 19 20  1  0
 20 21  1  0
 21 16  1  0
  7  1  1  0
  8  9  1  0
M  END
> <minimizedAffinity>
-5.84211

> <CNNscore>
0.8070354462

> <CNNaffinity>
4.8178887367

> <CNN_VS>
3.8882069588

> <CNNaffinity_variance>
0.9659131169

$$$$



 26 27  0  0  0  0  0  0  0  0999 V2000
   90.7737   95.7153  -45.0756 C   0  0  0  0  0  0  0  0  0  0  0  0
   90.7961   94.7062  -46.0562 C   0  0  0  0  0  0  0  0  0  0  0  0
   91.2875   93.4300  -45.7673 C   0  0  0  0  0  0  0  0  0  0  0  0
   91.7597   93.1359  -44.4887 C   0  0  0  0  0  0  0  0  0  0  0  0
   91.7317   94.1212  -43.5009 C   0  0  0  0  0  0  0  0  0  0  0  0
   92.4412   93.6371  -41.5937 I   0  0  0  0  0  0  0  0  0  0  0  0
   91.2369   95.4005  -43.7899 C   0  0  0  0  0  0  0  0  0  0  0  0
   91.1846   96.3720  -42.8253 O   0  0  0  0  0  0  0  0  0  0  0  0
   91.4876   96.1879  -41.9580 H   0  0  0  0  0  0  0  0  0  0  0  0
   91.3049   92.4260  -46.7857 C   0  0  0  0  0  0  0  0  0  0  0  0
   91.3231   91.5879  -47.6463 C   0  0  0  0  0  0  0  0  0  0  0  0
   91.3466   90.5683  -48.6993 C   0  0  0  0  0  0  0  0  0  0  0  0
   91.1266   91.1495  -49.9854 O   0  0  0  0  0  0  0  0  0  0  0  0
   89.9510   90.6568  -50.6152 C   0  0  0  0  0  0  0  0  0  0  0  0
   90.2482   97.0925  -45.4310 C   0  0  0  0  0  0  0  0  0  0  0  0
   86.6360   99.1833  -44.0927 C   0  0  0  0  0  0  0  0  0  0  0  0
   86.5711   97.8091  -44.7988 C   0  0  0  0  0  0  0  0  0  0  0  0
   87.8296   97.5201  -45.6201 C   0  0  0  0  0  0  0  0  0  0  0  0
   89.0152   97.5414  -44.7614 N   0  0  0  0  0  0  0  0  0  0  0  0
   89.1698   98.8393  -44.0964 C   0  0  0  0  0  0  0  0  0  0  0  0
   87.9343   99.1668  -43.2523 C   0  0  0  0  0  0  0  0  0  0  0  0
   86.5678  100.3535  -45.0081 N   0  0  0  0  0  0  0  0  0  0  0  0
   84.0311  100.1852  -44.9178 C   0  0  0  0  0  0  0  0  0  0  0  0
   85.2882  100.5278  -45.7154 C   0  0  0  0  0  0  0  0  0  0  0  0
   86.9969  101.6154  -44.3782 C   0  0  0  0  0  0  0  0  0  0  0  0
   86.7485  102.7823  -45.3255 C   0  0  0  0  0  0  0  0  0  0  0  0
 23 24  1  0
 24 22  1  0
 22 25  1  0
 25 26  1  0
 22 16  1  0
 16 17  1  0
 17 18  1  0
 18 19  1  0
 19 15  1  0
 15  1  1  0
  1  2  2  0
  2  3  1  0
  3 10  1  0
 10 11  3  0
 11 12  1  0
 12 13  1  0
 13 14  1  0
  3  4  2  0
  4  5  1  0
  5  6  1  0
  5  7  2  0
  7  8  1  0
 19 20  1  0
 20 21  1  0
 21 16  1  0
  7  1  1  0
  8  9  1  0
M  END
> <minimizedAffinity>
-5.98635

> <CNNscore>
0.7850037813

> <CNNaffinity>
4.8332390785

> <CNN_VS>
3.7941110134

> <CNNaffinity_variance>
1.0883376598

$$$$



 26 27  0  0  0  0  0  0  0  0999 V2000
   90.7795   95.8284  -44.9613 C   0  0  0  0  0  0  0  0  0  0  0  0
   90.7860   94.8561  -45.9788 C   0  0  0  0  0  0  0  0  0  0  0  0
   91.2387   93.5569  -45.7324 C   0  0  0  0  0  0  0  0  0  0  0  0
   91.6872   93.2025  -44.4605 C   0  0  0  0  0  0  0  0  0  0  0  0
   91.6743   94.1508  -43.4369 C   0  0  0  0  0  0  0  0  0  0  0  0
   92.3471   93.5768  -41.5414 I   0  0  0  0  0  0  0  0  0  0  0  0
   91.2182   95.4533  -43.6833 C   0  0  0  0  0  0  0  0  0  0  0  0
   91.1809   96.3894  -42.6837 O   0  0  0  0  0  0  0  0  0  0  0  0
   91.4683   96.1649  -41.8206 H   0  0  0  0  0  0  0  0  0  0  0  0
   91.2409   92.5913  -46.7873 C   0  0  0  0  0  0  0  0  0  0  0  0
   91.2368   91.7759  -47.6697 C   0  0  0  0  0  0  0  0  0  0  0  0
   91.2294   90.7784  -48.7439 C   0  0  0  0  0  0  0  0  0  0  0  0
   89.9170   90.6092  -49.2818 O   0  0  0  0  0  0  0  0  0  0  0  0
   89.5361   89.2427  -49.3766 C   0  0  0  0  0  0  0  0  0  0  0  0
   90.2962   97.2320  -45.2708 C   0  0  0  0  0  0  0  0  0  0  0  0
   86.9027   98.3431  -47.8124 C   0  0  0  0  0  0  0  0  0  0  0  0
   88.3575   98.7138  -48.1828 C   0  0  0  0  0  0  0  0  0  0  0  0
   89.2849   98.7062  -46.9655 C   0  0  0  0  0  0  0  0  0  0  0  0
   89.2919   97.3835  -46.3378 N   0  0  0  0  0  0  0  0  0  0  0  0
   87.9457   96.9873  -45.9118 C   0  0  0  0  0  0  0  0  0  0  0  0
   86.9827   96.9712  -47.1028 C   0  0  0  0  0  0  0  0  0  0  0  0
   86.1927   99.3634  -46.9957 N   0  0  0  0  0  0  0  0  0  0  0  0
   86.7709  101.7388  -46.2924 C   0  0  0  0  0  0  0  0  0  0  0  0
   86.4051  100.7610  -47.4078 C   0  0  0  0  0  0  0  0  0  0  0  0
   84.7567   99.0786  -46.8221 C   0  0  0  0  0  0  0  0  0  0  0  0
   84.4370   98.8911  -45.3445 C   0  0  0  0  0  0  0  0  0  0  0  0
 23 24  1  0
 24 22  1  0
 22 25  1  0
 25 26  1  0
 22 16  1  0
 16 17  1  0
 17 18  1  0
 18 19  1  0
 19 15  1  0
 15  1  1  0
  1  2  2  0
  2  3  1  0
  3 10  1  0
 10 11  3  0
 11 12  1  0
 12 13  1  0
 13 14  1  0
  3  4  2  0
  4  5  1  0
  5  6  1  0
  5  7  2  0
  7  8  1  0
 19 20  1  0
 20 21  1  0
 21 16  1  0
  7  1  1  0
  8  9  1  0
M  END
> <minimizedAffinity>
-5.34095

> <CNNscore>
0.7432774901

> <CNNaffinity>
4.8306689262

> <CNN_VS>
3.5905275345

> <CNNaffinity_variance>
0.6595138907

$$$$



 26 27  0  0  0  0  0  0  0  0999 V2000
   90.9708   96.1441  -44.9859 C   0  0  0  0  0  0  0  0  0  0  0  0
   90.8953   95.1587  -45.9878 C   0  0  0  0  0  0  0  0  0  0  0  0
   91.1817   93.8200  -45.7061 C   0  0  0  0  0  0  0  0  0  0  0  0
   91.5424   93.4393  -44.4141 C   0  0  0  0  0  0  0  0  0  0  0  0
   91.6085   94.4019  -43.4059 C   0  0  0  0  0  0  0  0  0  0  0  0
   92.1450   93.7885  -41.4794 I   0  0  0  0  0  0  0  0  0  0  0  0
   91.3192   95.7442  -43.6877 C   0  0  0  0  0  0  0  0  0  0  0  0
   91.3604   96.6971  -42.7042 O   0  0  0  0  0  0  0  0  0  0  0  0
   91.5902   96.4566  -41.8282 H   0  0  0  0  0  0  0  0  0  0  0  0
   91.1040   92.8410  -46.7457 C   0  0  0  0  0  0  0  0  0  0  0  0
   91.0406   92.0126  -47.6136 C   0  0  0  0  0  0  0  0  0  0  0  0
   90.9649   90.9990  -48.6700 C   0  0  0  0  0  0  0  0  0  0  0  0
   92.0918   90.1224  -48.6256 O   0  0  0  0  0  0  0  0  0  0  0  0
   92.9032   90.3313  -47.4769 C   0  0  0  0  0  0  0  0  0  0  0  0
   90.6686   97.5889  -45.3332 C   0  0  0  0  0  0  0  0  0  0  0  0
   86.4505   98.7008  -45.7598 C   0  0  0  0  0  0  0  0  0  0  0  0
   87.5896   99.5846  -46.3188 C   0  0  0  0  0  0  0  0  0  0  0  0
   88.9285   99.3068  -45.6317 C   0  0  0  0  0  0  0  0  0  0  0  0
   89.3080   97.9031  -45.8026 N   0  0  0  0  0  0  0  0  0  0  0  0
   88.2926   97.0036  -45.2456 C   0  0  0  0  0  0  0  0  0  0  0  0
   86.9342   97.2397  -45.9126 C   0  0  0  0  0  0  0  0  0  0  0  0
   86.0460   99.0213  -44.3649 N   0  0  0  0  0  0  0  0  0  0  0  0
   83.8427   97.9076  -43.7516 C   0  0  0  0  0  0  0  0  0  0  0  0
   85.3660   97.9353  -43.6396 C   0  0  0  0  0  0  0  0  0  0  0  0
   87.1379   99.5918  -43.5551 C   0  0  0  0  0  0  0  0  0  0  0  0
   86.6888  100.9033  -42.9237 C   0  0  0  0  0  0  0  0  0  0  0  0
 23 24  1  0
 24 22  1  0
 22 25  1  0
 25 26  1  0
 22 16  1  0
 16 17  1  0
 17 18  1  0
 18 19  1  0
 19 15  1  0
 15  1  1  0
  1  2  2  0
  2  3  1  0
  3 10  1  0
 10 11  3  0
 11 12  1  0
 12 13  1  0
 13 14  1  0
  3  4  2  0
  4  5  1  0
  5  6  1  0
  5  7  2  0
  7  8  1  0
 19 20  1  0
 20 21  1  0
 21 16  1  0
  7  1  1  0
  8  9  1  0
M  END
> <minimizedAffinity>
-5.63375

> <CNNscore>
0.6771092415

> <CNNaffinity>
5.0050930977

> <CNN_VS>
3.3889946938

> <CNNaffinity_variance>
0.8098116517

$$$$



 26 27  0  0  0  0  0  0  0  0999 V2000
   90.7099   96.6454  -45.0412 C   0  0  0  0  0  0  0  0  0  0  0  0
   90.7785   95.5268  -45.8924 C   0  0  0  0  0  0  0  0  0  0  0  0
   91.1376   94.2680  -45.4024 C   0  0  0  0  0  0  0  0  0  0  0  0
   91.4282   94.1019  -44.0487 C   0  0  0  0  0  0  0  0  0  0  0  0
   91.3514   95.1981  -43.1884 C   0  0  0  0  0  0  0  0  0  0  0  0
   91.7865   94.9050  -41.1636 I   0  0  0  0  0  0  0  0  0  0  0  0
   90.9891   96.4601  -43.6794 C   0  0  0  0  0  0  0  0  0  0  0  0
   90.8900   97.5412  -42.8437 O   0  0  0  0  0  0  0  0  0  0  0  0
   91.0711   97.4448  -41.9295 H   0  0  0  0  0  0  0  0  0  0  0  0
   91.2064   93.1504  -46.2919 C   0  0  0  0  0  0  0  0  0  0  0  0
   91.2609   92.2161  -47.0452 C   0  0  0  0  0  0  0  0  0  0  0  0
   91.3252   91.0782  -47.9674 C   0  0  0  0  0  0  0  0  0  0  0  0
   90.3172   91.1731  -48.9750 O   0  0  0  0  0  0  0  0  0  0  0  0
   90.8598   91.3436  -50.2780 C   0  0  0  0  0  0  0  0  0  0  0  0
   90.3324   97.9983  -45.6125 C   0  0  0  0  0  0  0  0  0  0  0  0
   86.2993   97.7122  -47.3044 C   0  0  0  0  0  0  0  0  0  0  0  0
   86.5591   97.5894  -45.7850 C   0  0  0  0  0  0  0  0  0  0  0  0
   88.0061   97.1998  -45.4746 C   0  0  0  0  0  0  0  0  0  0  0  0
   88.9308   98.1945  -46.0214 N   0  0  0  0  0  0  0  0  0  0  0  0
   88.7756   98.3266  -47.4737 C   0  0  0  0  0  0  0  0  0  0  0  0
   87.3411   98.7265  -47.8317 C   0  0  0  0  0  0  0  0  0  0  0  0
   86.3376   96.4230  -48.0451 N   0  0  0  0  0  0  0  0  0  0  0  0
   84.3995   94.9422  -47.3224 C   0  0  0  0  0  0  0  0  0  0  0  0
   85.0240   95.8491  -48.3814 C   0  0  0  0  0  0  0  0  0  0  0  0
   87.2169   96.4534  -49.2280 C   0  0  0  0  0  0  0  0  0  0  0  0
   88.1616   95.2585  -49.2067 C   0  0  0  0  0  0  0  0  0  0  0  0
 23 24  1  0
 24 22  1  0
 22 25  1  0
 25 26  1  0
 22 16  1  0
 16 17  1  0
 17 18  1  0
 18 19  1  0
 19 15  1  0
 15  1  1  0
  1  2  2  0
  2  3  1  0
  3 10  1  0
 10 11  3  0
 11 12  1  0
 12 13  1  0
 13 14  1  0
  3  4  2  0
  4  5  1  0
  5  6  1  0
  5  7  2  0
  7  8  1  0
 19 20  1  0
 20 21  1  0
 21 16  1  0
  7  1  1  0
  8  9  1  0
M  END
> <minimizedAffinity>
-5.20271

> <CNNscore>
0.6167387962

> <CNNaffinity>
4.6439709663

> <CNN_VS>
2.8641171455

> <CNNaffinity_variance>
0.7699034810

$$$$



 26 27  0  0  0  0  0  0  0  0999 V2000
   90.5305   98.2286  -42.8857 C   0  0  0  0  0  0  0  0  0  0  0  0
   90.0308   97.9256  -44.1660 C   0  0  0  0  0  0  0  0  0  0  0  0
   90.1928   96.6532  -44.7212 C   0  0  0  0  0  0  0  0  0  0  0  0
   90.8519   95.6560  -44.0031 C   0  0  0  0  0  0  0  0  0  0  0  0
   91.3413   95.9360  -42.7266 C   0  0  0  0  0  0  0  0  0  0  0  0
   92.3163   94.4105  -41.6791 I   0  0  0  0  0  0  0  0  0  0  0  0
   91.1770   97.2115  -42.1687 C   0  0  0  0  0  0  0  0  0  0  0  0
   91.6343   97.4955  -40.9089 O   0  0  0  0  0  0  0  0  0  0  0  0
   92.0697   96.8339  -40.4083 H   0  0  0  0  0  0  0  0  0  0  0  0
   89.6810   96.3756  -46.0275 C   0  0  0  0  0  0  0  0  0  0  0  0
   89.2472   96.1496  -47.1248 C   0  0  0  0  0  0  0  0  0  0  0  0
   88.7152   95.8773  -48.4634 C   0  0  0  0  0  0  0  0  0  0  0  0
   87.5956   96.7154  -48.7541 O   0  0  0  0  0  0  0  0  0  0  0  0
   86.4409   96.3673  -48.0012 C   0  0  0  0  0  0  0  0  0  0  0  0
   90.3496   99.6251  -42.3232 C   0  0  0  0  0  0  0  0  0  0  0  0
   93.2690  102.8769  -41.9864 C   0  0  0  0  0  0  0  0  0  0  0  0
   92.9760  101.9162  -40.8107 C   0  0  0  0  0  0  0  0  0  0  0  0
   91.6147  101.2307  -40.9485 C   0  0  0  0  0  0  0  0  0  0  0  0
   91.5526  100.4657  -42.1953 N   0  0  0  0  0  0  0  0  0  0  0  0
   91.7709  101.3270  -43.3619 C   0  0  0  0  0  0  0  0  0  0  0  0
   93.1298  102.0281  -43.2718 C   0  0  0  0  0  0  0  0  0  0  0  0
   92.4174  104.0959  -42.0167 N   0  0  0  0  0  0  0  0  0  0  0  0
   91.0196  104.9266  -40.0604 C   0  0  0  0  0  0  0  0  0  0  0  0
   92.3747  104.8673  -40.7633 C   0  0  0  0  0  0  0  0  0  0  0  0
   92.6951  104.9756  -43.1666 C   0  0  0  0  0  0  0  0  0  0  0  0
   94.0261  105.6895  -42.9680 C   0  0  0  0  0  0  0  0  0  0  0  0
 23 24  1  0
 24 22  1  0
 22 25  1  0
 25 26  1  0
 22 16  1  0
 16 17  1  0
 17 18  1  0
 18 19  1  0
 19 15  1  0
 15  1  1  0
  1  2  2  0
  2  3  1  0
  3 10  1  0
 10 11  3  0
 11 12  1  0
 12 13  1  0
 13 14  1  0
  3  4  2  0
  4  5  1  0
  5  6  1  0
  5  7  2  0
  7  8  1  0
 19 20  1  0
 20 21  1  0
 21 16  1  0
  7  1  1  0
  8  9  1  0
M  END
> <minimizedAffinity>
-4.21336

> <CNNscore>
0.3081562221

> <CNNaffinity>
4.8093366623

> <CNN_VS>
1.4820270538

> <CNNaffinity_variance>
0.3169991970

$$$$



 26 27  0  0  0  0  0  0  0  0999 V2000
   91.0190   99.5685  -43.9727 C   0  0  0  0  0  0  0  0  0  0  0  0
   91.3767   98.2198  -44.1556 C   0  0  0  0  0  0  0  0  0  0  0  0
   90.4603   97.2920  -44.6586 C   0  0  0  0  0  0  0  0  0  0  0  0
   89.1693   97.6971  -44.9957 C   0  0  0  0  0  0  0  0  0  0  0  0
   88.8027   99.0338  -44.8335 C   0  0  0  0  0  0  0  0  0  0  0  0
   86.8596   99.6025  -45.3589 I   0  0  0  0  0  0  0  0  0  0  0  0
   89.7224   99.9648  -44.3311 C   0  0  0  0  0  0  0  0  0  0  0  0
   89.3834  101.2842  -44.1850 O   0  0  0  0  0  0  0  0  0  0  0  0
   88.5236  101.5754  -44.4170 H   0  0  0  0  0  0  0  0  0  0  0  0
   90.8492   95.9262  -44.8272 C   0  0  0  0  0  0  0  0  0  0  0  0
   91.1697   94.7777  -44.9741 C   0  0  0  0  0  0  0  0  0  0  0  0
   91.5572   93.3755  -45.1556 C   0  0  0  0  0  0  0  0  0  0  0  0
   91.0084   92.8404  -46.3609 O   0  0  0  0  0  0  0  0  0  0  0  0
   91.5858   91.5912  -46.7182 C   0  0  0  0  0  0  0  0  0  0  0  0
   92.0355  100.5425  -43.4093 C   0  0  0  0  0  0  0  0  0  0  0  0
   91.5967  103.4980  -40.2027 C   0  0  0  0  0  0  0  0  0  0  0  0
   91.3278  103.8523  -41.6836 C   0  0  0  0  0  0  0  0  0  0  0  0
   92.0203  102.8844  -42.6456 C   0  0  0  0  0  0  0  0  0  0  0  0
   91.5615  101.5144  -42.4089 N   0  0  0  0  0  0  0  0  0  0  0  0
   91.8330  101.0906  -41.0315 C   0  0  0  0  0  0  0  0  0  0  0  0
   91.1493  102.0275  -40.0310 C   0  0  0  0  0  0  0  0  0  0  0  0
   92.9984  103.7199  -39.7577 N   0  0  0  0  0  0  0  0  0  0  0  0
   93.3725  106.0106  -40.7991 C   0  0  0  0  0  0  0  0  0  0  0  0
   93.3802  105.1272  -39.5527 C   0  0  0  0  0  0  0  0  0  0  0  0
   93.3814  102.8964  -38.5965 C   0  0  0  0  0  0  0  0  0  0  0  0
   93.0846  103.6465  -37.3043 C   0  0  0  0  0  0  0  0  0  0  0  0
 23 24  1  0
 24 22  1  0
 22 25  1  0
 25 26  1  0
 22 16  1  0
 16 17  1  0
 17 18  1  0
 18 19  1  0
 19 15  1  0
 15  1  1  0
  1  2  2  0
  2  3  1  0
  3 10  1  0
 10 11  3  0
 11 12  1  0
 12 13  1  0
 13 14  1  0
  3  4  2  0
  4  5  1  0
  5  6  1  0
  5  7  2  0
  7  8  1  0
 19 20  1  0
 20 21  1  0
 21 16  1  0
  7  1  1  0
  8  9  1  0
M  END
> <minimizedAffinity>
-4.72697

> <CNNscore>
0.2622260153

> <CNNaffinity>
4.3316903114

> <CNN_VS>
1.1358819008

> <CNNaffinity_variance>
0.6405953765

$$$$
