


 31 34  0  0  0  0  0  0  0  0999 V2000
   40.0611   37.5349   30.3659 C   0  0  0  0  0  0  0  0  0  0  0  0
   39.9699   38.3712   31.4972 C   0  0  0  0  0  0  0  0  0  0  0  0
   40.8333   39.4288   31.6134 O   0  0  0  0  0  0  0  0  0  0  0  0
   39.0217   38.1601   32.4991 C   0  0  0  0  0  0  0  0  0  0  0  0
   38.1242   37.1088   32.3771 C   0  0  0  0  0  0  0  0  0  0  0  0
   37.2183   36.9554   33.3924 O   0  0  0  0  0  0  0  0  0  0  0  0
   38.1675   36.2767   31.2562 C   0  0  0  0  0  0  0  0  0  0  0  0
   37.2067   35.1749   31.0999 C   0  0  0  0  0  0  0  0  0  0  0  0
   36.3750   34.9288   31.9677 O   0  0  0  0  0  0  0  0  0  0  0  0
   37.2821   34.3838   29.8677 C   0  0  0  0  0  0  0  0  0  0  0  0
   38.2280   34.6951   28.9736 C   0  0  0  0  0  0  0  0  0  0  0  0
   39.1686   35.6913   29.1357 O   0  0  0  0  0  0  0  0  0  0  0  0
   39.1249   36.4861   30.2561 C   0  0  0  0  0  0  0  0  0  0  0  0
   41.4758   39.5842   30.9493 H   0  0  0  0  0  0  0  0  0  0  0  0
   37.2307   37.5409   34.1238 H   0  0  0  0  0  0  0  0  0  0  0  0
   40.7288   39.0308   28.3770 C   0  0  0  0  0  0  0  0  0  0  0  0
   41.5254   38.9726   27.0455 C   0  0  0  0  0  0  0  0  0  0  0  0
   42.8830   38.4176   27.1194 N   0  0  0  0  0  0  0  0  0  0  0  0
   43.8154   39.3307   27.7751 C   0  0  0  0  0  0  0  0  0  0  0  0
   42.9052   37.0710   27.7143 C   0  0  0  0  0  0  0  0  0  0  0  0
   41.6200   36.6625   28.4538 C   0  0  0  0  0  0  0  0  0  0  0  0
   41.1115   37.8403   29.2996 C   0  0  0  0  0  0  0  0  0  0  0  0
   38.8099   40.2101   27.5775 C   0  0  0  0  0  0  0  0  0  0  0  0
   39.3209   38.9832   28.0789 O   0  0  0  0  0  0  0  0  0  0  0  0
   38.3713   33.9423   27.7182 C   0  0  0  0  0  0  0  0  0  0  0  0
   38.1705   32.5518   27.7579 C   0  0  0  0  0  0  0  0  0  0  0  0
   38.2914   31.7785   26.6012 C   0  0  0  0  0  0  0  0  0  0  0  0
   38.6186   32.3828   25.3901 C   0  0  0  0  0  0  0  0  0  0  0  0
   38.8297   33.7605   25.3352 C   0  0  0  0  0  0  0  0  0  0  0  0
   38.7104   34.5387   26.4918 C   0  0  0  0  0  0  0  0  0  0  0  0
   39.0163   36.2356   26.3469 Cl  0  0  0  0  0  0  0  0  0  0  0  0
 23 24  1  0
 16 24  1  0
 16 17  1  0
 17 18  1  0
 18 19  1  0
 18 20  1  0
 20 21  1  0
 21 22  1  0
 22  1  1  0
  1  2  2  0
  2  3  1  0
  2  4  1  0
  4  5  2  0
  5  6  1  0
  5  7  1  0
  7  8  1  0
  8  9  2  0
  8 10  1  0
 10 11  2  0
 11 25  1  0
 25 26  2  0
 26 27  1  0
 27 28  2  0
 28 29  1  0
 29 30  2  0
 30 31  1  0
 11 12  1  0
 12 13  1  0
 22 16  1  0
 13  1  1  0
 13  7  2  0
 30 25  1  0
  3 14  1  0
  6 15  1  0
M  END
> <minimizedAffinity>
-9.94389

> <CNNscore>
0.5010517836

> <CNNaffinity>
5.3616843224

> <CNN_VS>
2.6864814758

> <CNNaffinity_variance>
0.1606568098

$$$$



 31 34  0  0  0  0  0  0  0  0999 V2000
   39.0399   35.7166   29.1749 C   0  0  0  0  0  0  0  0  0  0  0  0
   38.5807   34.6224   28.4136 C   0  0  0  0  0  0  0  0  0  0  0  0
   39.1791   34.3514   27.2111 O   0  0  0  0  0  0  0  0  0  0  0  0
   37.5405   33.8013   28.8507 C   0  0  0  0  0  0  0  0  0  0  0  0
   36.9468   34.0501   30.0801 C   0  0  0  0  0  0  0  0  0  0  0  0
   35.9329   33.2085   30.4526 O   0  0  0  0  0  0  0  0  0  0  0  0
   37.3947   35.1087   30.8734 C   0  0  0  0  0  0  0  0  0  0  0  0
   36.7935   35.3690   32.1896 C   0  0  0  0  0  0  0  0  0  0  0  0
   35.8555   34.6956   32.6043 O   0  0  0  0  0  0  0  0  0  0  0  0
   37.3590   36.4632   32.9850 C   0  0  0  0  0  0  0  0  0  0  0  0
   38.3678   37.1696   32.4613 C   0  0  0  0  0  0  0  0  0  0  0  0
   38.9022   36.9684   31.2053 O   0  0  0  0  0  0  0  0  0  0  0  0
   38.4335   35.9357   30.4289 C   0  0  0  0  0  0  0  0  0  0  0  0
   39.8789   34.8932   26.9034 H   0  0  0  0  0  0  0  0  0  0  0  0
   35.6691   32.5122   29.8837 H   0  0  0  0  0  0  0  0  0  0  0  0
   39.7759   37.5513   27.5222 C   0  0  0  0  0  0  0  0  0  0  0  0
   41.0063   37.9852   26.6802 C   0  0  0  0  0  0  0  0  0  0  0  0
   42.2875   38.0742   27.3923 N   0  0  0  0  0  0  0  0  0  0  0  0
   42.3416   39.2292   28.2845 C   0  0  0  0  0  0  0  0  0  0  0  0
   42.6343   36.8187   28.0788 C   0  0  0  0  0  0  0  0  0  0  0  0
   41.4780   35.8159   28.2295 C   0  0  0  0  0  0  0  0  0  0  0  0
   40.1973   36.5587   28.6411 C   0  0  0  0  0  0  0  0  0  0  0  0
   39.2851   36.7560   25.3224 C   0  0  0  0  0  0  0  0  0  0  0  0
   38.8146   36.9251   26.6520 O   0  0  0  0  0  0  0  0  0  0  0  0
   38.9813   38.2869   33.1952 C   0  0  0  0  0  0  0  0  0  0  0  0
   39.5461   39.3344   32.4475 C   0  0  0  0  0  0  0  0  0  0  0  0
   40.1442   40.4249   33.0828 C   0  0  0  0  0  0  0  0  0  0  0  0
   40.1901   40.4820   34.4734 C   0  0  0  0  0  0  0  0  0  0  0  0
   39.6419   39.4464   35.2301 C   0  0  0  0  0  0  0  0  0  0  0  0
   39.0426   38.3516   34.5976 C   0  0  0  0  0  0  0  0  0  0  0  0
   38.4119   37.0947   35.6056 Cl  0  0  0  0  0  0  0  0  0  0  0  0
 23 24  1  0
 16 24  1  0
 16 17  1  0
 17 18  1  0
 18 19  1  0
 18 20  1  0
 20 21  1  0
 21 22  1  0
 22  1  1  0
  1  2  2  0
  2  3  1  0
  2  4  1  0
  4  5  2  0
  5  6  1  0
  5  7  1  0
  7  8  1  0
  8  9  2  0
  8 10  1  0
 10 11  2  0
 11 25  1  0
 25 26  2  0
 26 27  1  0
 27 28  2  0
 28 29  1  0
 29 30  2  0
 30 31  1  0
 11 12  1  0
 12 13  1  0
 22 16  1  0
 13  1  1  0
 13  7  2  0
 30 25  1  0
  3 14  1  0
  6 15  1  0
M  END
> <minimizedAffinity>
-8.44729

> <CNNscore>
0.4544651210

> <CNNaffinity>
5.0407118797

> <CNN_VS>
2.2908277512

> <CNNaffinity_variance>
0.1516372114

$$$$



 31 34  0  0  0  0  0  0  0  0999 V2000
   39.5584   37.4823   30.4922 C   0  0  0  0  0  0  0  0  0  0  0  0
   39.3686   38.2235   31.6764 C   0  0  0  0  0  0  0  0  0  0  0  0
   40.1012   39.3650   31.8708 O   0  0  0  0  0  0  0  0  0  0  0  0
   38.4513   37.8349   32.6537 C   0  0  0  0  0  0  0  0  0  0  0  0
   37.6841   36.6960   32.4536 C   0  0  0  0  0  0  0  0  0  0  0  0
   36.8020   36.3686   33.4484 O   0  0  0  0  0  0  0  0  0  0  0  0
   37.8259   35.9527   31.2796 C   0  0  0  0  0  0  0  0  0  0  0  0
   37.0018   34.7586   31.0414 C   0  0  0  0  0  0  0  0  0  0  0  0
   36.2045   34.3582   31.8836 O   0  0  0  0  0  0  0  0  0  0  0  0
   37.1708   34.0672   29.7595 C   0  0  0  0  0  0  0  0  0  0  0  0
   38.0739   34.5474   28.8965 C   0  0  0  0  0  0  0  0  0  0  0  0
   38.8903   35.6341   29.1333 O   0  0  0  0  0  0  0  0  0  0  0  0
   38.7526   36.3405   30.3042 C   0  0  0  0  0  0  0  0  0  0  0  0
   40.7212   39.6395   31.2241 H   0  0  0  0  0  0  0  0  0  0  0  0
   36.7449   36.9006   34.2176 H   0  0  0  0  0  0  0  0  0  0  0  0
   42.0259   37.5364   29.7520 C   0  0  0  0  0  0  0  0  0  0  0  0
   43.0390   38.4557   29.0175 C   0  0  0  0  0  0  0  0  0  0  0  0
   42.6098   38.9979   27.7220 N   0  0  0  0  0  0  0  0  0  0  0  0
   42.5959   37.9783   26.6765 C   0  0  0  0  0  0  0  0  0  0  0  0
   41.3318   39.7233   27.8148 C   0  0  0  0  0  0  0  0  0  0  0  0
   40.5329   39.4761   29.1056 C   0  0  0  0  0  0  0  0  0  0  0  0
   40.5661   37.9807   29.4580 C   0  0  0  0  0  0  0  0  0  0  0  0
   43.5742   37.1438   31.5300 C   0  0  0  0  0  0  0  0  0  0  0  0
   42.2796   37.6029   31.1679 O   0  0  0  0  0  0  0  0  0  0  0  0
   38.3058   33.9035   27.5946 C   0  0  0  0  0  0  0  0  0  0  0  0
   38.0349   32.5290   27.4826 C   0  0  0  0  0  0  0  0  0  0  0  0
   38.2336   31.8571   26.2745 C   0  0  0  0  0  0  0  0  0  0  0  0
   38.7094   32.5479   25.1630 C   0  0  0  0  0  0  0  0  0  0  0  0
   38.9915   33.9106   25.2597 C   0  0  0  0  0  0  0  0  0  0  0  0
   38.7946   34.5873   26.4685 C   0  0  0  0  0  0  0  0  0  0  0  0
   39.1953   36.2699   26.5154 Cl  0  0  0  0  0  0  0  0  0  0  0  0
 23 24  1  0
 16 24  1  0
 16 17  1  0
 17 18  1  0
 18 19  1  0
 18 20  1  0
 20 21  1  0
 21 22  1  0
 22  1  1  0
  1  2  2  0
  2  3  1  0
  2  4  1  0
  4  5  2  0
  5  6  1  0
  5  7  1  0
  7  8  1  0
  8  9  2  0
  8 10  1  0
 10 11  2  0
 11 25  1  0
 25 26  2  0
 26 27  1  0
 27 28  2  0
 28 29  1  0
 29 30  2  0
 30 31  1  0
 11 12  1  0
 12 13  1  0
 22 16  1  0
 13  1  1  0
 13  7  2  0
 30 25  1  0
  3 14  1  0
  6 15  1  0
M  END
> <minimizedAffinity>
-10.09772

> <CNNscore>
0.4286330044

> <CNNaffinity>
5.3066487312

> <CNN_VS>
2.2746047974

> <CNNaffinity_variance>
0.1986613721

$$$$



 31 34  0  0  0  0  0  0  0  0999 V2000
   44.7797   34.7947   34.8836 C   0  0  0  0  0  0  0  0  0  0  0  0
   44.9128   34.3004   36.1973 C   0  0  0  0  0  0  0  0  0  0  0  0
   45.4921   33.0738   36.3905 O   0  0  0  0  0  0  0  0  0  0  0  0
   44.4799   35.0256   37.3083 C   0  0  0  0  0  0  0  0  0  0  0  0
   43.9177   36.2811   37.1255 C   0  0  0  0  0  0  0  0  0  0  0  0
   43.5141   36.9422   38.2547 O   0  0  0  0  0  0  0  0  0  0  0  0
   43.7954   36.8140   35.8402 C   0  0  0  0  0  0  0  0  0  0  0  0
   43.2260   38.1534   35.6325 C   0  0  0  0  0  0  0  0  0  0  0  0
   42.8020   38.8169   36.5735 O   0  0  0  0  0  0  0  0  0  0  0  0
   43.1855   38.6635   34.2584 C   0  0  0  0  0  0  0  0  0  0  0  0
   43.6462   37.8772   33.2785 C   0  0  0  0  0  0  0  0  0  0  0  0
   44.1315   36.5980   33.4566 O   0  0  0  0  0  0  0  0  0  0  0  0
   44.2235   36.0809   34.7267 C   0  0  0  0  0  0  0  0  0  0  0  0
   45.7880   32.5744   35.6551 H   0  0  0  0  0  0  0  0  0  0  0  0
   43.6180   36.5408   39.0949 H   0  0  0  0  0  0  0  0  0  0  0  0
   46.8046   33.5990   33.8304 C   0  0  0  0  0  0  0  0  0  0  0  0
   47.3851   33.2187   32.4414 C   0  0  0  0  0  0  0  0  0  0  0  0
   46.4691   32.5453   31.5119 N   0  0  0  0  0  0  0  0  0  0  0  0
   46.1990   31.1660   31.9087 C   0  0  0  0  0  0  0  0  0  0  0  0
   45.2349   33.3158   31.2863 C   0  0  0  0  0  0  0  0  0  0  0  0
   44.9758   34.4450   32.2978 C   0  0  0  0  0  0  0  0  0  0  0  0
   45.2956   33.9529   33.7180 C   0  0  0  0  0  0  0  0  0  0  0  0
   48.6955   35.0409   33.5904 C   0  0  0  0  0  0  0  0  0  0  0  0
   47.5332   34.7293   34.3452 O   0  0  0  0  0  0  0  0  0  0  0  0
   43.6309   38.3159   31.8747 C   0  0  0  0  0  0  0  0  0  0  0  0
   44.8644   38.5738   31.2522 C   0  0  0  0  0  0  0  0  0  0  0  0
   44.9199   38.9932   29.9212 C   0  0  0  0  0  0  0  0  0  0  0  0
   43.7442   39.1648   29.1951 C   0  0  0  0  0  0  0  0  0  0  0  0
   42.5113   38.9215   29.8006 C   0  0  0  0  0  0  0  0  0  0  0  0
   42.4513   38.5020   31.1341 C   0  0  0  0  0  0  0  0  0  0  0  0
   40.8835   38.2494   31.8212 Cl  0  0  0  0  0  0  0  0  0  0  0  0
 23 24  1  0
 16 24  1  0
 16 17  1  0
 17 18  1  0
 18 19  1  0
 18 20  1  0
 20 21  1  0
 21 22  1  0
 22  1  1  0
  1  2  2  0
  2  3  1  0
  2  4  1  0
  4  5  2  0
  5  6  1  0
  5  7  1  0
  7  8  1  0
  8  9  2  0
  8 10  1  0
 10 11  2  0
 11 25  1  0
 25 26  2  0
 26 27  1  0
 27 28  2  0
 28 29  1  0
 29 30  2  0
 30 31  1  0
 11 12  1  0
 12 13  1  0
 22 16  1  0
 13  1  1  0
 13  7  2  0
 30 25  1  0
  3 14  1  0
  6 15  1  0
M  END
> <minimizedAffinity>
-5.51293

> <CNNscore>
0.2658652961

> <CNNaffinity>
4.7864875793

> <CNN_VS>
1.2725609541

> <CNNaffinity_variance>
0.2535459101

$$$$



 31 34  0  0  0  0  0  0  0  0999 V2000
   47.1236   34.0335   33.3165 C   0  0  0  0  0  0  0  0  0  0  0  0
   47.8606   33.2006   34.1831 C   0  0  0  0  0  0  0  0  0  0  0  0
   48.9197   32.4906   33.6814 O   0  0  0  0  0  0  0  0  0  0  0  0
   47.5497   33.0829   35.5384 C   0  0  0  0  0  0  0  0  0  0  0  0
   46.4967   33.8194   36.0623 C   0  0  0  0  0  0  0  0  0  0  0  0
   46.2430   33.6608   37.3986 O   0  0  0  0  0  0  0  0  0  0  0  0
   45.7623   34.6757   35.2390 C   0  0  0  0  0  0  0  0  0  0  0  0
   44.6607   35.4822   35.7847 C   0  0  0  0  0  0  0  0  0  0  0  0
   44.3283   35.3903   36.9621 O   0  0  0  0  0  0  0  0  0  0  0  0
   43.9770   36.3989   34.8670 C   0  0  0  0  0  0  0  0  0  0  0  0
   44.3786   36.4320   33.5909 C   0  0  0  0  0  0  0  0  0  0  0  0
   45.3741   35.6399   33.0570 O   0  0  0  0  0  0  0  0  0  0  0  0
   46.0714   34.7860   33.8777 C   0  0  0  0  0  0  0  0  0  0  0  0
   49.1414   32.5586   32.7736 H   0  0  0  0  0  0  0  0  0  0  0  0
   46.7653   33.0730   37.9081 H   0  0  0  0  0  0  0  0  0  0  0  0
   47.0222   32.9421   30.9846 C   0  0  0  0  0  0  0  0  0  0  0  0
   47.8630   32.8032   29.6866 C   0  0  0  0  0  0  0  0  0  0  0  0
   48.3884   34.0480   29.1115 N   0  0  0  0  0  0  0  0  0  0  0  0
   47.3401   34.8511   28.4878 C   0  0  0  0  0  0  0  0  0  0  0  0
   49.1842   34.8198   30.0806 C   0  0  0  0  0  0  0  0  0  0  0  0
   49.0193   34.3921   31.5487 C   0  0  0  0  0  0  0  0  0  0  0  0
   47.5356   34.1274   31.8486 C   0  0  0  0  0  0  0  0  0  0  0  0
   45.9078   30.9713   31.7506 C   0  0  0  0  0  0  0  0  0  0  0  0
   47.1174   31.7161   31.7337 O   0  0  0  0  0  0  0  0  0  0  0  0
   43.7361   37.3195   32.6095 C   0  0  0  0  0  0  0  0  0  0  0  0
   43.2056   38.5364   33.0709 C   0  0  0  0  0  0  0  0  0  0  0  0
   42.5827   39.4244   32.1910 C   0  0  0  0  0  0  0  0  0  0  0  0
   42.4776   39.1070   30.8392 C   0  0  0  0  0  0  0  0  0  0  0  0
   42.9912   37.8993   30.3666 C   0  0  0  0  0  0  0  0  0  0  0  0
   43.6152   37.0066   31.2449 C   0  0  0  0  0  0  0  0  0  0  0  0
   44.2001   35.5172   30.5866 Cl  0  0  0  0  0  0  0  0  0  0  0  0
 23 24  1  0
 16 24  1  0
 16 17  1  0
 17 18  1  0
 18 19  1  0
 18 20  1  0
 20 21  1  0
 21 22  1  0
 22  1  1  0
  1  2  2  0
  2  3  1  0
  2  4  1  0
  4  5  2  0
  5  6  1  0
  5  7  1  0
  7  8  1  0
  8  9  2  0
  8 10  1  0
 10 11  2  0
 11 25  1  0
 25 26  2  0
 26 27  1  0
 27 28  2  0
 28 29  1  0
 29 30  2  0
 30 31  1  0
 11 12  1  0
 12 13  1  0
 22 16  1  0
 13  1  1  0
 13  7  2  0
 30 25  1  0
  3 14  1  0
  6 15  1  0
M  END
> <minimizedAffinity>
-5.95281

> <CNNscore>
0.2380340397

> <CNNaffinity>
4.3257713318

> <CNN_VS>
1.0296808481

> <CNNaffinity_variance>
0.3974957466

$$$$



 31 34  0  0  0  0  0  0  0  0999 V2000
   39.5179   37.4081   30.9270 C   0  0  0  0  0  0  0  0  0  0  0  0
   38.8540   36.5039   30.0730 C   0  0  0  0  0  0  0  0  0  0  0  0
   39.2833   36.3752   28.7782 O   0  0  0  0  0  0  0  0  0  0  0  0
   37.7776   35.7295   30.5079 C   0  0  0  0  0  0  0  0  0  0  0  0
   37.3531   35.8316   31.8251 C   0  0  0  0  0  0  0  0  0  0  0  0
   36.2933   35.0451   32.1903 O   0  0  0  0  0  0  0  0  0  0  0  0
   38.0052   36.6967   32.7067 C   0  0  0  0  0  0  0  0  0  0  0  0
   37.5840   36.7966   34.1117 C   0  0  0  0  0  0  0  0  0  0  0  0
   36.6235   36.1608   34.5342 O   0  0  0  0  0  0  0  0  0  0  0  0
   38.3566   37.6847   34.9860 C   0  0  0  0  0  0  0  0  0  0  0  0
   39.3791   38.3638   34.4528 C   0  0  0  0  0  0  0  0  0  0  0  0
   39.7477   38.3187   33.1240 O   0  0  0  0  0  0  0  0  0  0  0  0
   39.0800   37.4783   32.2656 C   0  0  0  0  0  0  0  0  0  0  0  0
   40.0047   36.8880   28.4706 H   0  0  0  0  0  0  0  0  0  0  0  0
   35.8899   34.4807   31.5604 H   0  0  0  0  0  0  0  0  0  0  0  0
   40.2888   39.5428   29.7072 C   0  0  0  0  0  0  0  0  0  0  0  0
   41.4056   40.0420   28.7508 C   0  0  0  0  0  0  0  0  0  0  0  0
   42.7871   39.7330   29.1411 N   0  0  0  0  0  0  0  0  0  0  0  0
   43.2321   40.5402   30.2739 C   0  0  0  0  0  0  0  0  0  0  0  0
   42.9971   38.2925   29.3622 C   0  0  0  0  0  0  0  0  0  0  0  0
   41.7119   37.4591   29.5019 C   0  0  0  0  0  0  0  0  0  0  0  0
   40.7019   38.2073   30.3859 C   0  0  0  0  0  0  0  0  0  0  0  0
   39.2049   39.7241   27.5848 C   0  0  0  0  0  0  0  0  0  0  0  0
   39.0795   39.3506   28.9496 O   0  0  0  0  0  0  0  0  0  0  0  0
   40.1951   39.2797   35.2642 C   0  0  0  0  0  0  0  0  0  0  0  0
   39.8770   40.6483   35.2323 C   0  0  0  0  0  0  0  0  0  0  0  0
   40.6123   41.5711   35.9796 C   0  0  0  0  0  0  0  0  0  0  0  0
   41.6778   41.1400   36.7656 C   0  0  0  0  0  0  0  0  0  0  0  0
   42.0122   39.7863   36.8016 C   0  0  0  0  0  0  0  0  0  0  0  0
   41.2786   38.8587   36.0538 C   0  0  0  0  0  0  0  0  0  0  0  0
   41.7740   37.2026   36.1291 Cl  0  0  0  0  0  0  0  0  0  0  0  0
 23 24  1  0
 16 24  1  0
 16 17  1  0
 17 18  1  0
 18 19  1  0
 18 20  1  0
 20 21  1  0
 21 22  1  0
 22  1  1  0
  1  2  2  0
  2  3  1  0
  2  4  1  0
  4  5  2  0
  5  6  1  0
  5  7  1  0
  7  8  1  0
  8  9  2  0
  8 10  1  0
 10 11  2  0
 11 25  1  0
 25 26  2  0
 26 27  1  0
 27 28  2  0
 28 29  1  0
 29 30  2  0
 30 31  1  0
 11 12  1  0
 12 13  1  0
 22 16  1  0
 13  1  1  0
 13  7  2  0
 30 25  1  0
  3 14  1  0
  6 15  1  0
M  END
> <minimizedAffinity>
-6.88491

> <CNNscore>
0.2350836098

> <CNNaffinity>
4.8232760429

> <CNN_VS>
1.1338731050

> <CNNaffinity_variance>
0.2727643847

$$$$



 31 34  0  0  0  0  0  0  0  0999 V2000
   39.3849   36.8590   26.9958 C   0  0  0  0  0  0  0  0  0  0  0  0
   39.7171   36.4523   25.6875 C   0  0  0  0  0  0  0  0  0  0  0  0
   40.3496   37.3391   24.8561 O   0  0  0  0  0  0  0  0  0  0  0  0
   39.4290   35.1712   25.2150 C   0  0  0  0  0  0  0  0  0  0  0  0
   38.8142   34.2564   26.0582 C   0  0  0  0  0  0  0  0  0  0  0  0
   38.5593   33.0166   25.5359 O   0  0  0  0  0  0  0  0  0  0  0  0
   38.4957   34.6160   27.3697 C   0  0  0  0  0  0  0  0  0  0  0  0
   37.8681   33.6499   28.2830 C   0  0  0  0  0  0  0  0  0  0  0  0
   37.5660   32.5221   27.9058 O   0  0  0  0  0  0  0  0  0  0  0  0
   37.6183   34.0874   29.6601 C   0  0  0  0  0  0  0  0  0  0  0  0
   37.9542   35.3383   29.9966 C   0  0  0  0  0  0  0  0  0  0  0  0
   38.4929   36.2694   29.1326 O   0  0  0  0  0  0  0  0  0  0  0  0
   38.7789   35.9046   27.8387 C   0  0  0  0  0  0  0  0  0  0  0  0
   40.5501   38.2031   25.1582 H   0  0  0  0  0  0  0  0  0  0  0  0
   38.7927   32.8249   24.6489 H   0  0  0  0  0  0  0  0  0  0  0  0
   41.2625   38.5970   27.3010 C   0  0  0  0  0  0  0  0  0  0  0  0
   41.6619   39.7841   28.2188 C   0  0  0  0  0  0  0  0  0  0  0  0
   40.6368   40.8116   28.4421 N   0  0  0  0  0  0  0  0  0  0  0  0
   40.4243   41.6425   27.2600 C   0  0  0  0  0  0  0  0  0  0  0  0
   39.3812   40.2454   28.9625 C   0  0  0  0  0  0  0  0  0  0  0  0
   39.2499   38.7186   28.8320 C   0  0  0  0  0  0  0  0  0  0  0  0
   39.7503   38.2711   27.4497 C   0  0  0  0  0  0  0  0  0  0  0  0
   43.2455   37.3213   26.9104 C   0  0  0  0  0  0  0  0  0  0  0  0
   42.0470   37.4451   27.6629 O   0  0  0  0  0  0  0  0  0  0  0  0
   37.7271   35.8520   31.3559 C   0  0  0  0  0  0  0  0  0  0  0  0
   38.5158   36.9303   31.7924 C   0  0  0  0  0  0  0  0  0  0  0  0
   38.3506   37.4653   33.0719 C   0  0  0  0  0  0  0  0  0  0  0  0
   37.3982   36.9281   33.9342 C   0  0  0  0  0  0  0  0  0  0  0  0
   36.6132   35.8522   33.5196 C   0  0  0  0  0  0  0  0  0  0  0  0
   36.7762   35.3126   32.2389 C   0  0  0  0  0  0  0  0  0  0  0  0
   35.7848   33.9608   31.8105 Cl  0  0  0  0  0  0  0  0  0  0  0  0
 23 24  1  0
 16 24  1  0
 16 17  1  0
 17 18  1  0
 18 19  1  0
 18 20  1  0
 20 21  1  0
 21 22  1  0
 22  1  1  0
  1  2  2  0
  2  3  1  0
  2  4  1  0
  4  5  2  0
  5  6  1  0
  5  7  1  0
  7  8  1  0
  8  9  2  0
  8 10  1  0
 10 11  2  0
 11 25  1  0
 25 26  2  0
 26 27  1  0
 27 28  2  0
 28 29  1  0
 29 30  2  0
 30 31  1  0
 11 12  1  0
 12 13  1  0
 22 16  1  0
 13  1  1  0
 13  7  2  0
 30 25  1  0
  3 14  1  0
  6 15  1  0
M  END
> <minimizedAffinity>
-10.23835

> <CNNscore>
0.2305942923

> <CNNaffinity>
5.2352013588

> <CNN_VS>
1.2072075605

> <CNNaffinity_variance>
0.8132109642

$$$$



 31 34  0  0  0  0  0  0  0  0999 V2000
   46.5894   33.3972   29.5170 C   0  0  0  0  0  0  0  0  0  0  0  0
   47.3565   32.4858   28.7629 C   0  0  0  0  0  0  0  0  0  0  0  0
   47.9517   31.4299   29.4018 O   0  0  0  0  0  0  0  0  0  0  0  0
   47.5219   32.6213   27.3839 C   0  0  0  0  0  0  0  0  0  0  0  0
   46.9000   33.6712   26.7230 C   0  0  0  0  0  0  0  0  0  0  0  0
   47.1003   33.7485   25.3706 O   0  0  0  0  0  0  0  0  0  0  0  0
   46.1099   34.5772   27.4340 C   0  0  0  0  0  0  0  0  0  0  0  0
   45.4234   35.6792   26.7441 C   0  0  0  0  0  0  0  0  0  0  0  0
   45.5630   35.8595   25.5385 O   0  0  0  0  0  0  0  0  0  0  0  0
   44.5670   36.5521   27.5531 C   0  0  0  0  0  0  0  0  0  0  0  0
   44.4778   36.3094   28.8661 C   0  0  0  0  0  0  0  0  0  0  0  0
   45.1606   35.3122   29.5316 O   0  0  0  0  0  0  0  0  0  0  0  0
   45.9519   34.4434   28.8188 C   0  0  0  0  0  0  0  0  0  0  0  0
   47.8502   31.3248   30.3274 H   0  0  0  0  0  0  0  0  0  0  0  0
   47.6401   33.1151   24.9400 H   0  0  0  0  0  0  0  0  0  0  0  0
   47.6504   33.6776   31.8483 C   0  0  0  0  0  0  0  0  0  0  0  0
   47.6922   32.9881   33.2390 C   0  0  0  0  0  0  0  0  0  0  0  0
   46.3960   32.6480   33.8395 N   0  0  0  0  0  0  0  0  0  0  0  0
   45.6831   33.8305   34.3153 C   0  0  0  0  0  0  0  0  0  0  0  0
   45.5692   31.8147   32.9508 C   0  0  0  0  0  0  0  0  0  0  0  0
   46.0321   31.7649   31.4849 C   0  0  0  0  0  0  0  0  0  0  0  0
   46.4361   33.1728   31.0203 C   0  0  0  0  0  0  0  0  0  0  0  0
   49.9167   34.3081   31.4259 C   0  0  0  0  0  0  0  0  0  0  0  0
   48.8736   33.3849   31.1473 O   0  0  0  0  0  0  0  0  0  0  0  0
   43.6455   37.1462   29.7439 C   0  0  0  0  0  0  0  0  0  0  0  0
   44.2943   38.0696   30.5816 C   0  0  0  0  0  0  0  0  0  0  0  0
   43.5626   38.8942   31.4391 C   0  0  0  0  0  0  0  0  0  0  0  0
   42.1734   38.8049   31.4745 C   0  0  0  0  0  0  0  0  0  0  0  0
   41.5146   37.8876   30.6558 C   0  0  0  0  0  0  0  0  0  0  0  0
   42.2440   37.0591   29.7959 C   0  0  0  0  0  0  0  0  0  0  0  0
   41.3556   35.9279   28.8340 Cl  0  0  0  0  0  0  0  0  0  0  0  0
 23 24  1  0
 16 24  1  0
 16 17  1  0
 17 18  1  0
 18 19  1  0
 18 20  1  0
 20 21  1  0
 21 22  1  0
 22  1  1  0
  1  2  2  0
  2  3  1  0
  2  4  1  0
  4  5  2  0
  5  6  1  0
  5  7  1  0
  7  8  1  0
  8  9  2  0
  8 10  1  0
 10 11  2  0
 11 25  1  0
 25 26  2  0
 26 27  1  0
 27 28  2  0
 28 29  1  0
 29 30  2  0
 30 31  1  0
 11 12  1  0
 12 13  1  0
 22 16  1  0
 13  1  1  0
 13  7  2  0
 30 25  1  0
  3 14  1  0
  6 15  1  0
M  END
> <minimizedAffinity>
-5.72256

> <CNNscore>
0.2099225223

> <CNNaffinity>
4.3096504211

> <CNN_VS>
0.9046927094

> <CNNaffinity_variance>
0.4107238054

$$$$



 31 34  0  0  0  0  0  0  0  0999 V2000
   39.2427   36.7316   29.3955 C   0  0  0  0  0  0  0  0  0  0  0  0
   38.6075   35.5774   28.8933 C   0  0  0  0  0  0  0  0  0  0  0  0
   38.8982   35.1591   27.6213 O   0  0  0  0  0  0  0  0  0  0  0  0
   37.6976   34.8428   29.6547 C   0  0  0  0  0  0  0  0  0  0  0  0
   37.4177   35.2419   30.9540 C   0  0  0  0  0  0  0  0  0  0  0  0
   36.5177   34.4791   31.6491 O   0  0  0  0  0  0  0  0  0  0  0  0
   38.0495   36.3645   31.4938 C   0  0  0  0  0  0  0  0  0  0  0  0
   37.7833   36.7846   32.8774 C   0  0  0  0  0  0  0  0  0  0  0  0
   36.9681   36.1910   33.5763 O   0  0  0  0  0  0  0  0  0  0  0  0
   38.5298   37.9390   33.3873 C   0  0  0  0  0  0  0  0  0  0  0  0
   39.3877   38.5513   32.5627 C   0  0  0  0  0  0  0  0  0  0  0  0
   39.6039   38.1986   31.2465 O   0  0  0  0  0  0  0  0  0  0  0  0
   38.9563   37.1043   30.7250 C   0  0  0  0  0  0  0  0  0  0  0  0
   39.5070   35.6412   27.0971 H   0  0  0  0  0  0  0  0  0  0  0  0
   36.1209   33.7347   31.2412 H   0  0  0  0  0  0  0  0  0  0  0  0
   41.6944   36.9293   28.6278 C   0  0  0  0  0  0  0  0  0  0  0  0
   42.7199   37.9915   28.1472 C   0  0  0  0  0  0  0  0  0  0  0  0
   42.2805   38.8821   27.0654 N   0  0  0  0  0  0  0  0  0  0  0  0
   42.2125   38.1932   25.7794 C   0  0  0  0  0  0  0  0  0  0  0  0
   41.0281   39.5838   27.3924 C   0  0  0  0  0  0  0  0  0  0  0  0
   40.2494   39.0076   28.5870 C   0  0  0  0  0  0  0  0  0  0  0  0
   40.2433   37.4729   28.5107 C   0  0  0  0  0  0  0  0  0  0  0  0
   42.9708   37.4254   30.5867 C   0  0  0  0  0  0  0  0  0  0  0  0
   41.9800   36.5943   29.9988 O   0  0  0  0  0  0  0  0  0  0  0  0
   40.1663   39.7203   32.9993 C   0  0  0  0  0  0  0  0  0  0  0  0
   41.2211   39.5082   33.9035 C   0  0  0  0  0  0  0  0  0  0  0  0
   41.9994   40.5754   34.3575 C   0  0  0  0  0  0  0  0  0  0  0  0
   41.7320   41.8693   33.9178 C   0  0  0  0  0  0  0  0  0  0  0  0
   40.6832   42.0981   33.0271 C   0  0  0  0  0  0  0  0  0  0  0  0
   39.9006   41.0319   32.5706 C   0  0  0  0  0  0  0  0  0  0  0  0
   38.6005   41.4016   31.4903 Cl  0  0  0  0  0  0  0  0  0  0  0  0
 23 24  1  0
 16 24  1  0
 16 17  1  0
 17 18  1  0
 18 19  1  0
 18 20  1  0
 20 21  1  0
 21 22  1  0
 22  1  1  0
  1  2  2  0
  2  3  1  0
  2  4  1  0
  4  5  2  0
  5  6  1  0
  5  7  1  0
  7  8  1  0
  8  9  2  0
  8 10  1  0
 10 11  2  0
 11 25  1  0
 25 26  2  0
 26 27  1  0
 27 28  2  0
 28 29  1  0
 29 30  2  0
 30 31  1  0
 11 12  1  0
 12 13  1  0
 22 16  1  0
 13  1  1  0
 13  7  2  0
 30 25  1  0
  3 14  1  0
  6 15  1  0
M  END
> <minimizedAffinity>
-7.30185

> <CNNscore>
0.2091225684

> <CNNaffinity>
4.2152609825

> <CNN_VS>
0.8815062046

> <CNNaffinity_variance>
0.6456745863

$$$$
