


 46 46  0  0  0  0  0  0  0  0999 V2000
   36.8688   41.8609   -3.6166 C   0  0  0  0  0  0  0  0  0  0  0  0
   37.7186   39.5197   -3.4387 N   0  0  0  0  0  0  0  0  0  0  0  0
   38.0552   40.8605   -3.5252 C   0  0  0  0  0  0  0  0  0  0  0  0
   39.2275   41.2181   -3.3761 O   0  0  0  0  0  0  0  0  0  0  0  0
   36.7664   39.2721   -3.4023 H   0  0  0  0  0  0  0  0  0  0  0  0
   38.7247   38.4561   -3.3993 C   0  0  0  0  0  0  0  0  0  0  0  0
   39.4846   38.2904   -2.0333 C   0  0  0  0  0  0  0  0  0  0  0  0
   40.2112   36.9287   -1.7726 N   0  0  0  0  0  0  0  0  0  0  0  0
   39.4735   35.7551   -2.4333 C   0  0  0  0  0  0  0  0  0  0  0  0
   40.1144   36.6345   -0.2226 C   0  0  0  0  0  0  0  0  0  0  0  0
   41.7190   36.9561   -2.0430 C   0  0  0  0  0  0  0  0  0  0  0  0
   42.6929   35.9035   -1.5218 N   0  0  0  0  0  0  0  0  0  0  0  0
   42.3880   35.5075   -0.0590 C   0  0  0  0  0  0  0  0  0  0  0  0
   42.6725   34.6230   -2.3438 C   0  0  0  0  0  0  0  0  0  0  0  0
   44.1382   36.4733   -1.4379 C   0  0  0  0  0  0  0  0  0  0  0  0
   44.7205   37.4405   -2.4371 N   0  0  0  0  0  0  0  0  0  0  0  0
   46.2604   37.5163   -2.0694 C   0  0  0  0  0  0  0  0  0  0  0  0
   44.2376   38.8767   -2.3863 C   0  0  0  0  0  0  0  0  0  0  0  0
   44.7069   36.9590   -3.9007 C   0  0  0  0  0  0  0  0  0  0  0  0
   39.7745   38.6070   -4.5287 C   0  0  0  0  0  0  0  0  0  0  0  0
   40.8414   36.8504   -5.9556 C   0  0  0  0  0  0  0  0  0  0  0  0
   39.5773   37.6860   -5.7515 C   0  0  0  0  0  0  0  0  0  0  0  0
   38.3678   36.7620   -5.6078 C   0  0  0  0  0  0  0  0  0  0  0  0
   35.9567   41.4332   -4.6868 N   0  0  0  0  0  0  0  0  0  0  0  0
   35.0644   41.2010   -4.2506 H   0  0  0  0  0  0  0  0  0  0  0  0
   35.6439   42.4992   -5.9083 P   0  0  0  0  0  0  0  0  0  0  0  0
   34.9549   43.7532   -5.4335 O   0  0  0  0  0  0  0  0  0  0  0  0
   37.1183   42.8449   -6.4208 O   0  0  0  0  0  0  0  0  0  0  0  0
   37.6060   43.3022   -5.7180 H   0  0  0  0  0  0  0  0  0  0  0  0
   34.7756   41.6487   -7.2518 C   0  0  0  0  0  0  0  0  0  0  0  0
   34.8074   42.3260   -8.5394 N   0  0  0  0  0  0  0  0  0  0  0  0
   33.6394   42.8438   -9.0276 C   0  0  0  0  0  0  0  0  0  0  0  0
   32.7119   43.2047   -8.3118 O   0  0  0  0  0  0  0  0  0  0  0  0
   35.6475   42.4094   -9.0457 H   0  0  0  0  0  0  0  0  0  0  0  0
   33.6711   42.8139  -10.3736 O   0  0  0  0  0  0  0  0  0  0  0  0
   33.6949   44.0857  -11.0430 C   0  0  0  0  0  0  0  0  0  0  0  0
   33.3192   43.8691  -12.4917 C   0  0  0  0  0  0  0  0  0  0  0  0
   33.4411   44.9099  -13.4250 C   0  0  0  0  0  0  0  0  0  0  0  0
   33.1205   44.6914  -14.7667 C   0  0  0  0  0  0  0  0  0  0  0  0
   32.6866   43.4334  -15.1917 C   0  0  0  0  0  0  0  0  0  0  0  0
   32.5719   42.3900  -14.2755 C   0  0  0  0  0  0  0  0  0  0  0  0
   32.8920   42.6055  -12.9303 C   0  0  0  0  0  0  0  0  0  0  0  0
   36.1369   42.1537   -2.2936 C   0  0  0  0  0  0  0  0  0  0  0  0
   36.9525   42.8613   -1.1931 C   0  0  0  0  0  0  0  0  0  0  0  0
   36.6976   44.3752   -1.2606 C   0  0  0  0  0  0  0  0  0  0  0  0
   36.6163   42.3423    0.2160 C   0  0  0  0  0  0  0  0  0  0  0  0
 21 22  1  0
 22 23  1  0
 22 20  1  0
  6 20  1  0
  6  7  1  0
  7  8  1  0
  8  9  1  0
  8 10  1  0
  8 11  1  0
 11 12  1  0
 12 13  1  0
 12 14  1  0
 12 15  1  0
 15 16  1  0
 16 17  1  0
 16 18  1  0
 16 19  1  0
  6  2  1  0
  2  3  1  0
  3  4  2  0
  3  1  1  0
  1 43  1  0
 43 44  1  0
 44 45  1  0
 44 46  1  0
  1 24  1  0
 24 26  1  0
 26 27  2  0
 26 28  1  0
 26 30  1  0
 30 31  1  0
 31 32  1  0
 32 33  2  0
 32 35  1  0
 35 36  1  0
 36 37  1  0
 37 38  2  0
 38 39  1  0
 39 40  2  0
 40 41  1  0
 41 42  2  0
 42 37  1  0
  2  5  1  0
 24 25  1  0
 28 29  1  0
 31 34  1  0
M  CHG 1   8   1
M  CHG 1  12   1
M  CHG 1  16   1
M  END
> <minimizedAffinity>
-7.92096

> <CNNscore>
0.7606288195

> <CNNaffinity>
7.9356293678

> <CNN_VS>
6.0360684395

> <CNNaffinity_variance>
0.1214058176

$$$$



 46 46  0  0  0  0  0  0  0  0999 V2000
   36.4965   42.1723   -3.2651 C   0  0  0  0  0  0  0  0  0  0  0  0
   37.6036   39.9610   -3.6113 N   0  0  0  0  0  0  0  0  0  0  0  0
   37.7708   41.3354   -3.5694 C   0  0  0  0  0  0  0  0  0  0  0  0
   38.9029   41.8257   -3.6168 O   0  0  0  0  0  0  0  0  0  0  0  0
   36.7149   39.5860   -3.4142 H   0  0  0  0  0  0  0  0  0  0  0  0
   38.6982   39.0442   -3.9376 C   0  0  0  0  0  0  0  0  0  0  0  0
   38.3041   37.8014   -4.8156 C   0  0  0  0  0  0  0  0  0  0  0  0
   39.4582   37.0462   -5.5560 N   0  0  0  0  0  0  0  0  0  0  0  0
   39.0815   36.7154   -7.0075 C   0  0  0  0  0  0  0  0  0  0  0  0
   39.6200   35.6372   -4.8583 C   0  0  0  0  0  0  0  0  0  0  0  0
   40.8387   37.6909   -5.3957 C   0  0  0  0  0  0  0  0  0  0  0  0
   42.1349   36.8968   -5.2643 N   0  0  0  0  0  0  0  0  0  0  0  0
   42.0406   35.8138   -4.1653 C   0  0  0  0  0  0  0  0  0  0  0  0
   42.5269   36.1903   -6.5539 C   0  0  0  0  0  0  0  0  0  0  0  0
   43.2968   37.8035   -4.7658 C   0  0  0  0  0  0  0  0  0  0  0  0
   44.7479   37.3949   -4.7789 N   0  0  0  0  0  0  0  0  0  0  0  0
   45.0409   36.9130   -3.2977 C   0  0  0  0  0  0  0  0  0  0  0  0
   45.7779   38.4746   -5.0474 C   0  0  0  0  0  0  0  0  0  0  0  0
   45.0749   36.1641   -5.6461 C   0  0  0  0  0  0  0  0  0  0  0  0
   39.4285   38.5362   -2.6692 C   0  0  0  0  0  0  0  0  0  0  0  0
   39.5400   36.8521   -0.8223 C   0  0  0  0  0  0  0  0  0  0  0  0
   38.5947   37.6349   -1.7339 C   0  0  0  0  0  0  0  0  0  0  0  0
   37.5979   38.4242   -0.8850 C   0  0  0  0  0  0  0  0  0  0  0  0
   35.4776   41.8908   -4.2864 N   0  0  0  0  0  0  0  0  0  0  0  0
   34.6724   42.4830   -4.0831 H   0  0  0  0  0  0  0  0  0  0  0  0
   35.8806   42.1353   -5.8687 P   0  0  0  0  0  0  0  0  0  0  0  0
   37.0308   43.0945   -6.0420 O   0  0  0  0  0  0  0  0  0  0  0  0
   36.3197   40.6661   -6.3209 O   0  0  0  0  0  0  0  0  0  0  0  0
   37.1124   40.3999   -5.8294 H   0  0  0  0  0  0  0  0  0  0  0  0
   34.4008   42.5862   -6.8117 C   0  0  0  0  0  0  0  0  0  0  0  0
   34.6174   42.8283   -8.2302 N   0  0  0  0  0  0  0  0  0  0  0  0
   33.5230   42.9311   -9.0440 C   0  0  0  0  0  0  0  0  0  0  0  0
   32.4239   43.3045   -8.6499 O   0  0  0  0  0  0  0  0  0  0  0  0
   35.5279   42.9157   -8.5945 H   0  0  0  0  0  0  0  0  0  0  0  0
   33.8465   42.4967  -10.2769 O   0  0  0  0  0  0  0  0  0  0  0  0
   32.7583   42.3094  -11.1972 C   0  0  0  0  0  0  0  0  0  0  0  0
   32.9423   43.2655  -12.3543 C   0  0  0  0  0  0  0  0  0  0  0  0
   33.4669   44.5499  -12.1436 C   0  0  0  0  0  0  0  0  0  0  0  0
   33.6617   45.4148  -13.2228 C   0  0  0  0  0  0  0  0  0  0  0  0
   33.3460   45.0047  -14.5204 C   0  0  0  0  0  0  0  0  0  0  0  0
   32.8344   43.7279  -14.7422 C   0  0  0  0  0  0  0  0  0  0  0  0
   32.6377   42.8587  -13.6632 C   0  0  0  0  0  0  0  0  0  0  0  0
   35.9477   42.0580   -1.8307 C   0  0  0  0  0  0  0  0  0  0  0  0
   36.4028   43.1366   -0.8274 C   0  0  0  0  0  0  0  0  0  0  0  0
   37.1338   42.4673    0.3470 C   0  0  0  0  0  0  0  0  0  0  0  0
   37.3174   44.1930   -1.4717 C   0  0  0  0  0  0  0  0  0  0  0  0
 21 22  1  0
 22 23  1  0
 22 20  1  0
  6 20  1  0
  6  7  1  0
  7  8  1  0
  8  9  1  0
  8 10  1  0
  8 11  1  0
 11 12  1  0
 12 13  1  0
 12 14  1  0
 12 15  1  0
 15 16  1  0
 16 17  1  0
 16 18  1  0
 16 19  1  0
  6  2  1  0
  2  3  1  0
  3  4  2  0
  3  1  1  0
  1 43  1  0
 43 44  1  0
 44 45  1  0
 44 46  1  0
  1 24  1  0
 24 26  1  0
 26 27  2  0
 26 28  1  0
 26 30  1  0
 30 31  1  0
 31 32  1  0
 32 33  2  0
 32 35  1  0
 35 36  1  0
 36 37  1  0
 37 38  2  0
 38 39  1  0
 39 40  2  0
 40 41  1  0
 41 42  2  0
 42 37  1  0
  2  5  1  0
 24 25  1  0
 28 29  1  0
 31 34  1  0
M  CHG 1   8   1
M  CHG 1  12   1
M  CHG 1  16   1
M  END
> <minimizedAffinity>
-8.80583

> <CNNscore>
0.6733152866

> <CNNaffinity>
7.7903914452

> <CNN_VS>
5.2453894615

> <CNNaffinity_variance>
0.4827855527

$$$$



 46 46  0  0  0  0  0  0  0  0999 V2000
   36.6147   42.0061   -2.6257 C   0  0  0  0  0  0  0  0  0  0  0  0
   37.5333   39.7110   -2.2737 N   0  0  0  0  0  0  0  0  0  0  0  0
   37.8064   41.0090   -2.6729 C   0  0  0  0  0  0  0  0  0  0  0  0
   38.9692   41.3595   -2.8947 O   0  0  0  0  0  0  0  0  0  0  0  0
   36.6284   39.4955   -1.9511 H   0  0  0  0  0  0  0  0  0  0  0  0
   38.5389   38.6470   -2.3130 C   0  0  0  0  0  0  0  0  0  0  0  0
   38.3571   37.5827   -3.4555 C   0  0  0  0  0  0  0  0  0  0  0  0
   39.5072   37.4521   -4.5092 N   0  0  0  0  0  0  0  0  0  0  0  0
   40.4743   38.6433   -4.4459 C   0  0  0  0  0  0  0  0  0  0  0  0
   38.8456   37.5554   -5.9410 C   0  0  0  0  0  0  0  0  0  0  0  0
   40.1955   36.0834   -4.5257 C   0  0  0  0  0  0  0  0  0  0  0  0
   41.4819   35.7907   -5.2922 N   0  0  0  0  0  0  0  0  0  0  0  0
   41.5087   34.3483   -5.8474 C   0  0  0  0  0  0  0  0  0  0  0  0
   41.6904   36.7271   -6.4736 C   0  0  0  0  0  0  0  0  0  0  0  0
   42.7160   35.8261   -4.3454 C   0  0  0  0  0  0  0  0  0  0  0  0
   44.1450   35.8302   -4.8257 N   0  0  0  0  0  0  0  0  0  0  0  0
   44.0413   35.6033   -6.3908 C   0  0  0  0  0  0  0  0  0  0  0  0
   45.0539   34.7218   -4.3316 C   0  0  0  0  0  0  0  0  0  0  0  0
   44.8790   37.1780   -4.6891 C   0  0  0  0  0  0  0  0  0  0  0  0
   38.6477   37.8998   -0.9601 C   0  0  0  0  0  0  0  0  0  0  0  0
   40.5992   36.5818   -0.1148 C   0  0  0  0  0  0  0  0  0  0  0  0
   39.3594   36.5310   -1.0082 C   0  0  0  0  0  0  0  0  0  0  0  0
   38.4561   35.3783   -0.5693 C   0  0  0  0  0  0  0  0  0  0  0  0
   35.7223   41.7478   -3.7646 N   0  0  0  0  0  0  0  0  0  0  0  0
   34.8586   42.2638   -3.5968 H   0  0  0  0  0  0  0  0  0  0  0  0
   36.2547   42.1580   -5.2727 P   0  0  0  0  0  0  0  0  0  0  0  0
   37.4854   43.0283   -5.2462 O   0  0  0  0  0  0  0  0  0  0  0  0
   36.6092   40.7267   -5.8905 O   0  0  0  0  0  0  0  0  0  0  0  0
   37.3418   40.3319   -5.3922 H   0  0  0  0  0  0  0  0  0  0  0  0
   34.8854   42.8527   -6.2342 C   0  0  0  0  0  0  0  0  0  0  0  0
   35.0317   42.7623   -7.6793 N   0  0  0  0  0  0  0  0  0  0  0  0
   33.8984   42.7393   -8.4446 C   0  0  0  0  0  0  0  0  0  0  0  0
   32.8393   43.2480   -8.0946 O   0  0  0  0  0  0  0  0  0  0  0  0
   35.9230   42.7188   -8.0950 H   0  0  0  0  0  0  0  0  0  0  0  0
   34.1341   42.0258   -9.5621 O   0  0  0  0  0  0  0  0  0  0  0  0
   33.6118   40.6868   -9.5905 C   0  0  0  0  0  0  0  0  0  0  0  0
   32.3525   40.6839  -10.4277 C   0  0  0  0  0  0  0  0  0  0  0  0
   31.2293   39.9445  -10.0265 C   0  0  0  0  0  0  0  0  0  0  0  0
   30.0605   39.9724  -10.7906 C   0  0  0  0  0  0  0  0  0  0  0  0
   29.9969   40.7441  -11.9532 C   0  0  0  0  0  0  0  0  0  0  0  0
   31.1026   41.4904  -12.3552 C   0  0  0  0  0  0  0  0  0  0  0  0
   32.2755   41.4647  -11.5921 C   0  0  0  0  0  0  0  0  0  0  0  0
   35.8603   42.0843   -1.2853 C   0  0  0  0  0  0  0  0  0  0  0  0
   36.4786   42.9810   -0.1942 C   0  0  0  0  0  0  0  0  0  0  0  0
   37.0636   42.1004    0.9211 C   0  0  0  0  0  0  0  0  0  0  0  0
   37.5725   43.9120   -0.7459 C   0  0  0  0  0  0  0  0  0  0  0  0
 21 22  1  0
 22 23  1  0
 22 20  1  0
  6 20  1  0
  6  7  1  0
  7  8  1  0
  8  9  1  0
  8 10  1  0
  8 11  1  0
 11 12  1  0
 12 13  1  0
 12 14  1  0
 12 15  1  0
 15 16  1  0
 16 17  1  0
 16 18  1  0
 16 19  1  0
  6  2  1  0
  2  3  1  0
  3  4  2  0
  3  1  1  0
  1 43  1  0
 43 44  1  0
 44 45  1  0
 44 46  1  0
  1 24  1  0
 24 26  1  0
 26 27  2  0
 26 28  1  0
 26 30  1  0
 30 31  1  0
 31 32  1  0
 32 33  2  0
 32 35  1  0
 35 36  1  0
 36 37  1  0
 37 38  2  0
 38 39  1  0
 39 40  2  0
 40 41  1  0
 41 42  2  0
 42 37  1  0
  2  5  1  0
 24 25  1  0
 28 29  1  0
 31 34  1  0
M  CHG 1   8   1
M  CHG 1  12   1
M  CHG 1  16   1
M  END
> <minimizedAffinity>
-7.75217

> <CNNscore>
0.6728169322

> <CNNaffinity>
7.4389538765

> <CNN_VS>
5.0050539970

> <CNNaffinity_variance>
0.6612854600

$$$$



 46 46  0  0  0  0  0  0  0  0999 V2000
   37.6808   41.3079   -3.5653 C   0  0  0  0  0  0  0  0  0  0  0  0
   38.1099   38.8726   -3.2181 N   0  0  0  0  0  0  0  0  0  0  0  0
   38.6649   40.1406   -3.2728 C   0  0  0  0  0  0  0  0  0  0  0  0
   39.8426   40.3182   -2.9477 O   0  0  0  0  0  0  0  0  0  0  0  0
   37.1362   38.7771   -3.3273 H   0  0  0  0  0  0  0  0  0  0  0  0
   38.9161   37.6687   -3.0042 C   0  0  0  0  0  0  0  0  0  0  0  0
   39.8705   37.2712   -4.1882 C   0  0  0  0  0  0  0  0  0  0  0  0
   41.3841   37.0548   -3.8530 N   0  0  0  0  0  0  0  0  0  0  0  0
   41.8811   35.6821   -4.3293 C   0  0  0  0  0  0  0  0  0  0  0  0
   41.5124   36.9975   -2.2786 C   0  0  0  0  0  0  0  0  0  0  0  0
   42.2914   38.2242   -4.2484 C   0  0  0  0  0  0  0  0  0  0  0  0
   43.8035   38.2306   -4.0441 N   0  0  0  0  0  0  0  0  0  0  0  0
   44.3667   39.6662   -3.9385 C   0  0  0  0  0  0  0  0  0  0  0  0
   44.2315   37.4900   -2.7854 C   0  0  0  0  0  0  0  0  0  0  0  0
   44.5374   37.6556   -5.2898 C   0  0  0  0  0  0  0  0  0  0  0  0
   45.4657   36.4686   -5.2458 N   0  0  0  0  0  0  0  0  0  0  0  0
   45.0675   35.6026   -6.5120 C   0  0  0  0  0  0  0  0  0  0  0  0
   45.3362   35.5204   -4.0699 C   0  0  0  0  0  0  0  0  0  0  0  0
   46.9558   36.7929   -5.4658 C   0  0  0  0  0  0  0  0  0  0  0  0
   38.0424   36.4404   -2.6455 C   0  0  0  0  0  0  0  0  0  0  0  0
   38.1224   35.9936   -5.1060 C   0  0  0  0  0  0  0  0  0  0  0  0
   37.9488   35.3473   -3.7312 C   0  0  0  0  0  0  0  0  0  0  0  0
   38.9875   34.2407   -3.5483 C   0  0  0  0  0  0  0  0  0  0  0  0
   36.9707   41.0382   -4.8235 N   0  0  0  0  0  0  0  0  0  0  0  0
   36.3451   40.2502   -4.6563 H   0  0  0  0  0  0  0  0  0  0  0  0
   36.0651   42.2546   -5.4765 P   0  0  0  0  0  0  0  0  0  0  0  0
   35.5599   43.2314   -4.4452 O   0  0  0  0  0  0  0  0  0  0  0  0
   37.1270   42.9696   -6.4342 O   0  0  0  0  0  0  0  0  0  0  0  0
   37.8373   43.3557   -5.8981 H   0  0  0  0  0  0  0  0  0  0  0  0
   34.7626   41.5513   -6.5210 C   0  0  0  0  0  0  0  0  0  0  0  0
   34.3747   42.3650   -7.6634 N   0  0  0  0  0  0  0  0  0  0  0  0
   33.9319   41.7293   -8.7906 C   0  0  0  0  0  0  0  0  0  0  0  0
   33.3958   40.6270   -8.7751 O   0  0  0  0  0  0  0  0  0  0  0  0
   34.4295   43.3473   -7.6259 H   0  0  0  0  0  0  0  0  0  0  0  0
   34.2471   42.4714   -9.8692 O   0  0  0  0  0  0  0  0  0  0  0  0
   33.4301   43.6288  -10.1125 C   0  0  0  0  0  0  0  0  0  0  0  0
   33.2972   43.8129  -11.6076 C   0  0  0  0  0  0  0  0  0  0  0  0
   33.5791   45.0520  -12.2029 C   0  0  0  0  0  0  0  0  0  0  0  0
   33.4829   45.2039  -13.5880 C   0  0  0  0  0  0  0  0  0  0  0  0
   33.1160   44.1219  -14.3917 C   0  0  0  0  0  0  0  0  0  0  0  0
   32.8441   42.8844  -13.8122 C   0  0  0  0  0  0  0  0  0  0  0  0
   32.9392   42.7286  -12.4247 C   0  0  0  0  0  0  0  0  0  0  0  0
   36.7290   41.6850   -2.4147 C   0  0  0  0  0  0  0  0  0  0  0  0
   37.3434   42.4656   -1.2357 C   0  0  0  0  0  0  0  0  0  0  0  0
   36.9991   43.9568   -1.3743 C   0  0  0  0  0  0  0  0  0  0  0  0
   36.8599   41.9478    0.1303 C   0  0  0  0  0  0  0  0  0  0  0  0
 21 22  1  0
 22 23  1  0
 22 20  1  0
  6 20  1  0
  6  7  1  0
  7  8  1  0
  8  9  1  0
  8 10  1  0
  8 11  1  0
 11 12  1  0
 12 13  1  0
 12 14  1  0
 12 15  1  0
 15 16  1  0
 16 17  1  0
 16 18  1  0
 16 19  1  0
  6  2  1  0
  2  3  1  0
  3  4  2  0
  3  1  1  0
  1 43  1  0
 43 44  1  0
 44 45  1  0
 44 46  1  0
  1 24  1  0
 24 26  1  0
 26 27  2  0
 26 28  1  0
 26 30  1  0
 30 31  1  0
 31 32  1  0
 32 33  2  0
 32 35  1  0
 35 36  1  0
 36 37  1  0
 37 38  2  0
 38 39  1  0
 39 40  2  0
 40 41  1  0
 41 42  2  0
 42 37  1  0
  2  5  1  0
 24 25  1  0
 28 29  1  0
 31 34  1  0
M  CHG 1   8   1
M  CHG 1  12   1
M  CHG 1  16   1
M  END
> <minimizedAffinity>
-7.63682

> <CNNscore>
0.6712113619

> <CNNaffinity>
7.5861020088

> <CNN_VS>
5.0918779373

> <CNNaffinity_variance>
0.1155520082

$$$$



 46 46  0  0  0  0  0  0  0  0999 V2000
   36.6202   42.2074   -3.0807 C   0  0  0  0  0  0  0  0  0  0  0  0
   37.5816   39.9823   -3.6805 N   0  0  0  0  0  0  0  0  0  0  0  0
   37.8526   41.3035   -3.3649 C   0  0  0  0  0  0  0  0  0  0  0  0
   39.0156   41.6709   -3.1732 O   0  0  0  0  0  0  0  0  0  0  0  0
   36.6458   39.6763   -3.6734 H   0  0  0  0  0  0  0  0  0  0  0  0
   38.6335   39.0230   -4.0243 C   0  0  0  0  0  0  0  0  0  0  0  0
   38.2429   37.9421   -5.0966 C   0  0  0  0  0  0  0  0  0  0  0  0
   39.3927   37.0508   -5.6743 N   0  0  0  0  0  0  0  0  0  0  0  0
   39.1393   36.6769   -7.1420 C   0  0  0  0  0  0  0  0  0  0  0  0
   39.3507   35.6722   -4.9021 C   0  0  0  0  0  0  0  0  0  0  0  0
   40.8029   37.5803   -5.3945 C   0  0  0  0  0  0  0  0  0  0  0  0
   42.0477   36.6987   -5.3589 N   0  0  0  0  0  0  0  0  0  0  0  0
   43.3465   37.5346   -5.2958 C   0  0  0  0  0  0  0  0  0  0  0  0
   42.0672   35.7539   -4.1661 C   0  0  0  0  0  0  0  0  0  0  0  0
   42.2059   35.9026   -6.6863 C   0  0  0  0  0  0  0  0  0  0  0  0
   43.2732   34.8645   -6.9226 N   0  0  0  0  0  0  0  0  0  0  0  0
   42.6488   33.8882   -8.0038 C   0  0  0  0  0  0  0  0  0  0  0  0
   43.6486   33.9674   -5.7594 C   0  0  0  0  0  0  0  0  0  0  0  0
   44.5610   35.3874   -7.5876 C   0  0  0  0  0  0  0  0  0  0  0  0
   39.1875   38.2949   -2.7739 C   0  0  0  0  0  0  0  0  0  0  0  0
   38.8015   36.4395   -1.1404 C   0  0  0  0  0  0  0  0  0  0  0  0
   38.1353   37.5955   -1.8873 C   0  0  0  0  0  0  0  0  0  0  0  0
   37.4799   38.5456   -0.8848 C   0  0  0  0  0  0  0  0  0  0  0  0
   35.5734   41.9240   -4.0727 N   0  0  0  0  0  0  0  0  0  0  0  0
   34.7205   42.3838   -3.7539 H   0  0  0  0  0  0  0  0  0  0  0  0
   35.8356   42.4009   -5.6315 P   0  0  0  0  0  0  0  0  0  0  0  0
   34.9843   43.5765   -6.0389 O   0  0  0  0  0  0  0  0  0  0  0  0
   37.3750   42.8299   -5.5834 O   0  0  0  0  0  0  0  0  0  0  0  0
   37.4793   43.5947   -4.9960 H   0  0  0  0  0  0  0  0  0  0  0  0
   35.6927   40.9732   -6.7377 C   0  0  0  0  0  0  0  0  0  0  0  0
   34.3953   40.8089   -7.3761 N   0  0  0  0  0  0  0  0  0  0  0  0
   34.3638   40.4636   -8.6991 C   0  0  0  0  0  0  0  0  0  0  0  0
   35.2603   39.8370   -9.2528 O   0  0  0  0  0  0  0  0  0  0  0  0
   33.5622   40.9428   -6.8689 H   0  0  0  0  0  0  0  0  0  0  0  0
   33.2556   40.9792   -9.2643 O   0  0  0  0  0  0  0  0  0  0  0  0
   33.1836   42.4126   -9.3438 C   0  0  0  0  0  0  0  0  0  0  0  0
   33.1477   42.8080  -10.8029 C   0  0  0  0  0  0  0  0  0  0  0  0
   33.5413   44.0936  -11.2049 C   0  0  0  0  0  0  0  0  0  0  0  0
   33.5336   44.4395  -12.5581 C   0  0  0  0  0  0  0  0  0  0  0  0
   33.1446   43.5061  -13.5218 C   0  0  0  0  0  0  0  0  0  0  0  0
   32.7620   42.2235  -13.1348 C   0  0  0  0  0  0  0  0  0  0  0  0
   32.7682   41.8735  -11.7798 C   0  0  0  0  0  0  0  0  0  0  0  0
   36.0912   42.1823   -1.6346 C   0  0  0  0  0  0  0  0  0  0  0  0
   36.5685   43.3142   -0.7030 C   0  0  0  0  0  0  0  0  0  0  0  0
   37.3466   42.7117    0.4773 C   0  0  0  0  0  0  0  0  0  0  0  0
   37.4489   44.3452   -1.4309 C   0  0  0  0  0  0  0  0  0  0  0  0
 21 22  1  0
 22 23  1  0
 22 20  1  0
  6 20  1  0
  6  7  1  0
  7  8  1  0
  8  9  1  0
  8 10  1  0
  8 11  1  0
 11 12  1  0
 12 13  1  0
 12 14  1  0
 12 15  1  0
 15 16  1  0
 16 17  1  0
 16 18  1  0
 16 19  1  0
  6  2  1  0
  2  3  1  0
  3  4  2  0
  3  1  1  0
  1 43  1  0
 43 44  1  0
 44 45  1  0
 44 46  1  0
  1 24  1  0
 24 26  1  0
 26 27  2  0
 26 28  1  0
 26 30  1  0
 30 31  1  0
 31 32  1  0
 32 33  2  0
 32 35  1  0
 35 36  1  0
 36 37  1  0
 37 38  2  0
 38 39  1  0
 39 40  2  0
 40 41  1  0
 41 42  2  0
 42 37  1  0
  2  5  1  0
 24 25  1  0
 28 29  1  0
 31 34  1  0
M  CHG 1   8   1
M  CHG 1  12   1
M  CHG 1  16   1
M  END
> <minimizedAffinity>
-8.31108

> <CNNscore>
0.6471908092

> <CNNaffinity>
7.7904105186

> <CNN_VS>
5.0418820381

> <CNNaffinity_variance>
0.3571782112

$$$$



 46 46  0  0  0  0  0  0  0  0999 V2000
   36.5079   42.1199   -3.0439 C   0  0  0  0  0  0  0  0  0  0  0  0
   37.6605   39.9105   -3.2013 N   0  0  0  0  0  0  0  0  0  0  0  0
   37.8004   41.2867   -3.2717 C   0  0  0  0  0  0  0  0  0  0  0  0
   38.9229   41.7942   -3.3533 O   0  0  0  0  0  0  0  0  0  0  0  0
   36.7780   39.5351   -2.9787 H   0  0  0  0  0  0  0  0  0  0  0  0
   38.7751   38.9922   -3.4453 C   0  0  0  0  0  0  0  0  0  0  0  0
   38.3884   37.6099   -4.0860 C   0  0  0  0  0  0  0  0  0  0  0  0
   39.3777   36.9984   -5.1336 N   0  0  0  0  0  0  0  0  0  0  0  0
   39.8257   35.5847   -4.7347 C   0  0  0  0  0  0  0  0  0  0  0  0
   40.7017   37.8606   -5.0875 C   0  0  0  0  0  0  0  0  0  0  0  0
   38.9135   37.1241   -6.5882 C   0  0  0  0  0  0  0  0  0  0  0  0
   38.4712   35.9396   -7.4423 N   0  0  0  0  0  0  0  0  0  0  0  0
   39.6537   35.0102   -7.7987 C   0  0  0  0  0  0  0  0  0  0  0  0
   37.4188   35.0796   -6.7576 C   0  0  0  0  0  0  0  0  0  0  0  0
   37.9645   36.4140   -8.8347 C   0  0  0  0  0  0  0  0  0  0  0  0
   36.5605   36.8947   -9.1001 N   0  0  0  0  0  0  0  0  0  0  0  0
   36.6974   37.8568  -10.3522 C   0  0  0  0  0  0  0  0  0  0  0  0
   35.8949   37.7395   -8.0316 C   0  0  0  0  0  0  0  0  0  0  0  0
   35.5726   35.8085   -9.5673 C   0  0  0  0  0  0  0  0  0  0  0  0
   39.5988   38.7236   -2.1608 C   0  0  0  0  0  0  0  0  0  0  0  0
   37.3927   38.5782   -0.9896 C   0  0  0  0  0  0  0  0  0  0  0  0
   38.8295   38.0557   -1.0014 C   0  0  0  0  0  0  0  0  0  0  0  0
   38.8211   36.5299   -1.0978 C   0  0  0  0  0  0  0  0  0  0  0  0
   35.5331   41.7978   -4.0957 N   0  0  0  0  0  0  0  0  0  0  0  0
   34.6851   42.3285   -3.8966 H   0  0  0  0  0  0  0  0  0  0  0  0
   35.9529   42.1115   -5.6614 P   0  0  0  0  0  0  0  0  0  0  0  0
   37.0689   43.1178   -5.7816 O   0  0  0  0  0  0  0  0  0  0  0  0
   36.4542   40.6759   -6.1552 O   0  0  0  0  0  0  0  0  0  0  0  0
   37.2481   40.4224   -5.6588 H   0  0  0  0  0  0  0  0  0  0  0  0
   34.4730   42.5396   -6.6149 C   0  0  0  0  0  0  0  0  0  0  0  0
   34.6870   42.7331   -8.0413 N   0  0  0  0  0  0  0  0  0  0  0  0
   33.5916   42.8936   -8.8444 C   0  0  0  0  0  0  0  0  0  0  0  0
   32.5266   43.3522   -8.4465 O   0  0  0  0  0  0  0  0  0  0  0  0
   35.5964   42.7480   -8.4182 H   0  0  0  0  0  0  0  0  0  0  0  0
   33.8675   42.4093  -10.0703 O   0  0  0  0  0  0  0  0  0  0  0  0
   32.7584   42.2878  -10.9766 C   0  0  0  0  0  0  0  0  0  0  0  0
   32.9811   43.2369  -12.1326 C   0  0  0  0  0  0  0  0  0  0  0  0
   33.4571   44.5378  -11.9078 C   0  0  0  0  0  0  0  0  0  0  0  0
   33.6886   45.3969  -12.9844 C   0  0  0  0  0  0  0  0  0  0  0  0
   33.4584   44.9649  -14.2927 C   0  0  0  0  0  0  0  0  0  0  0  0
   32.9958   43.6719  -14.5281 C   0  0  0  0  0  0  0  0  0  0  0  0
   32.7625   42.8085  -13.4517 C   0  0  0  0  0  0  0  0  0  0  0  0
   35.9032   42.0438   -1.6296 C   0  0  0  0  0  0  0  0  0  0  0  0
   36.3718   43.1088   -0.6181 C   0  0  0  0  0  0  0  0  0  0  0  0
   37.2223   42.4393    0.4728 C   0  0  0  0  0  0  0  0  0  0  0  0
   37.1780   44.2386   -1.2823 C   0  0  0  0  0  0  0  0  0  0  0  0
 21 22  1  0
 22 23  1  0
 22 20  1  0
  6 20  1  0
  6  7  1  0
  7  8  1  0
  8  9  1  0
  8 10  1  0
  8 11  1  0
 11 12  1  0
 12 13  1  0
 12 14  1  0
 12 15  1  0
 15 16  1  0
 16 17  1  0
 16 18  1  0
 16 19  1  0
  6  2  1  0
  2  3  1  0
  3  4  2  0
  3  1  1  0
  1 43  1  0
 43 44  1  0
 44 45  1  0
 44 46  1  0
  1 24  1  0
 24 26  1  0
 26 27  2  0
 26 28  1  0
 26 30  1  0
 30 31  1  0
 31 32  1  0
 32 33  2  0
 32 35  1  0
 35 36  1  0
 36 37  1  0
 37 38  2  0
 38 39  1  0
 39 40  2  0
 40 41  1  0
 41 42  2  0
 42 37  1  0
  2  5  1  0
 24 25  1  0
 28 29  1  0
 31 34  1  0
M  CHG 1   8   1
M  CHG 1  12   1
M  CHG 1  16   1
M  END
> <minimizedAffinity>
-8.70760

> <CNNscore>
0.5953524709

> <CNNaffinity>
7.6359653473

> <CNN_VS>
4.5460906029

> <CNNaffinity_variance>
0.5961678624

$$$$



 46 46  0  0  0  0  0  0  0  0999 V2000
   37.6948   41.3558   -3.1204 C   0  0  0  0  0  0  0  0  0  0  0  0
   39.5463   39.6804   -3.1232 N   0  0  0  0  0  0  0  0  0  0  0  0
   38.3439   40.0627   -2.5517 C   0  0  0  0  0  0  0  0  0  0  0  0
   37.7699   39.3164   -1.7531 O   0  0  0  0  0  0  0  0  0  0  0  0
   39.9057   40.2118   -3.8700 H   0  0  0  0  0  0  0  0  0  0  0  0
   40.3036   38.5158   -2.6592 C   0  0  0  0  0  0  0  0  0  0  0  0
   40.5548   37.3968   -3.7342 C   0  0  0  0  0  0  0  0  0  0  0  0
   42.0233   37.1973   -4.2382 N   0  0  0  0  0  0  0  0  0  0  0  0
   42.0804   37.0032   -5.7604 C   0  0  0  0  0  0  0  0  0  0  0  0
   42.5407   35.8266   -3.6449 C   0  0  0  0  0  0  0  0  0  0  0  0
   43.0213   38.2262   -3.6973 C   0  0  0  0  0  0  0  0  0  0  0  0
   44.4895   38.2806   -4.1090 N   0  0  0  0  0  0  0  0  0  0  0  0
   44.6714   38.0759   -5.6303 C   0  0  0  0  0  0  0  0  0  0  0  0
   45.1525   39.6037   -3.7547 C   0  0  0  0  0  0  0  0  0  0  0  0
   45.2852   37.0921   -3.4965 C   0  0  0  0  0  0  0  0  0  0  0  0
   45.9641   37.1385   -2.1513 N   0  0  0  0  0  0  0  0  0  0  0  0
   46.9898   38.3416   -2.2624 C   0  0  0  0  0  0  0  0  0  0  0  0
   46.8076   35.9443   -1.7500 C   0  0  0  0  0  0  0  0  0  0  0  0
   45.0541   37.5283   -0.9705 C   0  0  0  0  0  0  0  0  0  0  0  0
   39.6573   37.8613   -1.4125 C   0  0  0  0  0  0  0  0  0  0  0  0
   40.6147   36.0770    0.0571 C   0  0  0  0  0  0  0  0  0  0  0  0
   39.8864   36.3425   -1.2608 C   0  0  0  0  0  0  0  0  0  0  0  0
   38.5853   35.5406   -1.2998 C   0  0  0  0  0  0  0  0  0  0  0  0
   37.0672   41.0532   -4.4145 N   0  0  0  0  0  0  0  0  0  0  0  0
   36.3937   40.3034   -4.2574 H   0  0  0  0  0  0  0  0  0  0  0  0
   36.2718   42.2732   -5.1923 P   0  0  0  0  0  0  0  0  0  0  0  0
   35.6032   43.2376   -4.2460 O   0  0  0  0  0  0  0  0  0  0  0  0
   37.4697   43.0014   -5.9608 O   0  0  0  0  0  0  0  0  0  0  0  0
   38.0831   43.3844   -5.3143 H   0  0  0  0  0  0  0  0  0  0  0  0
   35.1567   41.5762   -6.4386 C   0  0  0  0  0  0  0  0  0  0  0  0
   35.2949   42.1316   -7.7766 N   0  0  0  0  0  0  0  0  0  0  0  0
   34.1690   42.5790   -8.4114 C   0  0  0  0  0  0  0  0  0  0  0  0
   33.1778   42.9866   -7.8163 O   0  0  0  0  0  0  0  0  0  0  0  0
   36.1756   42.1839   -8.2133 H   0  0  0  0  0  0  0  0  0  0  0  0
   34.3203   42.4250   -9.7406 O   0  0  0  0  0  0  0  0  0  0  0  0
   33.1164   42.2588  -10.5083 C   0  0  0  0  0  0  0  0  0  0  0  0
   33.2218   43.1133  -11.7514 C   0  0  0  0  0  0  0  0  0  0  0  0
   32.8693   42.5951  -13.0069 C   0  0  0  0  0  0  0  0  0  0  0  0
   32.9410   43.4016  -14.1450 C   0  0  0  0  0  0  0  0  0  0  0  0
   33.3537   44.7321  -14.0409 C   0  0  0  0  0  0  0  0  0  0  0  0
   33.6960   45.2600  -12.7978 C   0  0  0  0  0  0  0  0  0  0  0  0
   33.6255   44.4547  -11.6554 C   0  0  0  0  0  0  0  0  0  0  0  0
   36.7509   42.1074   -2.1634 C   0  0  0  0  0  0  0  0  0  0  0  0
   37.4103   42.8623   -0.9919 C   0  0  0  0  0  0  0  0  0  0  0  0
   37.1783   44.3720   -1.1606 C   0  0  0  0  0  0  0  0  0  0  0  0
   36.8773   42.4068    0.3778 C   0  0  0  0  0  0  0  0  0  0  0  0
 21 22  1  0
 22 23  1  0
 22 20  1  0
  6 20  1  0
  6  7  1  0
  7  8  1  0
  8  9  1  0
  8 10  1  0
  8 11  1  0
 11 12  1  0
 12 13  1  0
 12 14  1  0
 12 15  1  0
 15 16  1  0
 16 17  1  0
 16 18  1  0
 16 19  1  0
  6  2  1  0
  2  3  1  0
  3  4  2  0
  3  1  1  0
  1 43  1  0
 43 44  1  0
 44 45  1  0
 44 46  1  0
  1 24  1  0
 24 26  1  0
 26 27  2  0
 26 28  1  0
 26 30  1  0
 30 31  1  0
 31 32  1  0
 32 33  2  0
 32 35  1  0
 35 36  1  0
 36 37  1  0
 37 38  2  0
 38 39  1  0
 39 40  2  0
 40 41  1  0
 41 42  2  0
 42 37  1  0
  2  5  1  0
 24 25  1  0
 28 29  1  0
 31 34  1  0
M  CHG 1   8   1
M  CHG 1  12   1
M  CHG 1  16   1
M  END
> <minimizedAffinity>
-8.24729

> <CNNscore>
0.5824958086

> <CNNaffinity>
7.4405369759

> <CNN_VS>
4.3340816498

> <CNNaffinity_variance>
0.2882178128

$$$$



 46 46  0  0  0  0  0  0  0  0999 V2000
   36.6718   42.0597   -3.1558 C   0  0  0  0  0  0  0  0  0  0  0  0
   37.6115   39.8288   -3.7680 N   0  0  0  0  0  0  0  0  0  0  0  0
   37.8937   41.1520   -3.4712 C   0  0  0  0  0  0  0  0  0  0  0  0
   39.0625   41.5192   -3.3185 O   0  0  0  0  0  0  0  0  0  0  0  0
   36.6761   39.5241   -3.7296 H   0  0  0  0  0  0  0  0  0  0  0  0
   38.6511   38.8654   -4.1370 C   0  0  0  0  0  0  0  0  0  0  0  0
   38.2666   37.8549   -5.2780 C   0  0  0  0  0  0  0  0  0  0  0  0
   39.3657   36.8435   -5.7463 N   0  0  0  0  0  0  0  0  0  0  0  0
   39.4302   35.6109   -4.8327 C   0  0  0  0  0  0  0  0  0  0  0  0
   40.7662   37.5510   -5.5555 C   0  0  0  0  0  0  0  0  0  0  0  0
   39.3256   36.5161   -7.2424 C   0  0  0  0  0  0  0  0  0  0  0  0
   38.2741   35.6168   -7.8855 N   0  0  0  0  0  0  0  0  0  0  0  0
   36.8585   35.8935   -7.3296 C   0  0  0  0  0  0  0  0  0  0  0  0
   38.2001   35.7833   -9.3963 C   0  0  0  0  0  0  0  0  0  0  0  0
   38.5127   34.1250   -7.5135 C   0  0  0  0  0  0  0  0  0  0  0  0
   39.7973   33.3849   -7.7869 N   0  0  0  0  0  0  0  0  0  0  0  0
   39.4360   32.3745   -8.9534 C   0  0  0  0  0  0  0  0  0  0  0  0
   40.3548   32.5146   -6.6776 C   0  0  0  0  0  0  0  0  0  0  0  0
   40.9364   34.2420   -8.3715 C   0  0  0  0  0  0  0  0  0  0  0  0
   39.1540   38.0565   -2.9150 C   0  0  0  0  0  0  0  0  0  0  0  0
   38.4997   36.3033   -1.2542 C   0  0  0  0  0  0  0  0  0  0  0  0
   38.0661   37.6126   -1.9141 C   0  0  0  0  0  0  0  0  0  0  0  0
   37.7871   38.6628   -0.8386 C   0  0  0  0  0  0  0  0  0  0  0  0
   35.6084   41.7973   -4.1359 N   0  0  0  0  0  0  0  0  0  0  0  0
   34.7411   42.1709   -3.7503 H   0  0  0  0  0  0  0  0  0  0  0  0
   35.7826   42.4255   -5.6528 P   0  0  0  0  0  0  0  0  0  0  0  0
   34.9568   43.6672   -5.8744 O   0  0  0  0  0  0  0  0  0  0  0  0
   37.3387   42.7914   -5.6741 O   0  0  0  0  0  0  0  0  0  0  0  0
   37.5164   43.4862   -5.0209 H   0  0  0  0  0  0  0  0  0  0  0  0
   35.5017   41.1279   -6.8856 C   0  0  0  0  0  0  0  0  0  0  0  0
   34.2520   41.2319   -7.6239 N   0  0  0  0  0  0  0  0  0  0  0  0
   34.2327   40.8148   -8.9263 C   0  0  0  0  0  0  0  0  0  0  0  0
   34.9890   39.9580   -9.3699 O   0  0  0  0  0  0  0  0  0  0  0  0
   33.4416   41.5931   -7.1971 H   0  0  0  0  0  0  0  0  0  0  0  0
   33.3248   41.5381   -9.6088 O   0  0  0  0  0  0  0  0  0  0  0  0
   33.0768   41.1393  -10.9674 C   0  0  0  0  0  0  0  0  0  0  0  0
   33.1336   42.3704  -11.8437 C   0  0  0  0  0  0  0  0  0  0  0  0
   33.5808   43.5959  -11.3264 C   0  0  0  0  0  0  0  0  0  0  0  0
   33.6586   44.7201  -12.1515 C   0  0  0  0  0  0  0  0  0  0  0  0
   33.3023   44.6311  -13.4992 C   0  0  0  0  0  0  0  0  0  0  0  0
   32.8670   43.4168  -14.0258 C   0  0  0  0  0  0  0  0  0  0  0  0
   32.7876   42.2884  -13.2020 C   0  0  0  0  0  0  0  0  0  0  0  0
   36.1642   42.0175   -1.7024 C   0  0  0  0  0  0  0  0  0  0  0  0
   36.5631   43.1985   -0.7952 C   0  0  0  0  0  0  0  0  0  0  0  0
   37.2643   42.6632    0.4631 C   0  0  0  0  0  0  0  0  0  0  0  0
   37.4801   44.2070   -1.5091 C   0  0  0  0  0  0  0  0  0  0  0  0
 21 22  1  0
 22 23  1  0
 22 20  1  0
  6 20  1  0
  6  7  1  0
  7  8  1  0
  8  9  1  0
  8 10  1  0
  8 11  1  0
 11 12  1  0
 12 13  1  0
 12 14  1  0
 12 15  1  0
 15 16  1  0
 16 17  1  0
 16 18  1  0
 16 19  1  0
  6  2  1  0
  2  3  1  0
  3  4  2  0
  3  1  1  0
  1 43  1  0
 43 44  1  0
 44 45  1  0
 44 46  1  0
  1 24  1  0
 24 26  1  0
 26 27  2  0
 26 28  1  0
 26 30  1  0
 30 31  1  0
 31 32  1  0
 32 33  2  0
 32 35  1  0
 35 36  1  0
 36 37  1  0
 37 38  2  0
 38 39  1  0
 39 40  2  0
 40 41  1  0
 41 42  2  0
 42 37  1  0
  2  5  1  0
 24 25  1  0
 28 29  1  0
 31 34  1  0
M  CHG 1   8   1
M  CHG 1  12   1
M  CHG 1  16   1
M  END
> <minimizedAffinity>
-7.96630

> <CNNscore>
0.5673996806

> <CNNaffinity>
7.4934902191

> <CNN_VS>
4.2518038750

> <CNNaffinity_variance>
0.3037860096

$$$$



 46 46  0  0  0  0  0  0  0  0999 V2000
   36.6828   41.9261   -2.8307 C   0  0  0  0  0  0  0  0  0  0  0  0
   37.7951   39.7016   -3.0532 N   0  0  0  0  0  0  0  0  0  0  0  0
   37.9441   41.0753   -3.1503 C   0  0  0  0  0  0  0  0  0  0  0  0
   39.0621   41.5685   -3.3264 O   0  0  0  0  0  0  0  0  0  0  0  0
   36.9290   39.3391   -2.7572 H   0  0  0  0  0  0  0  0  0  0  0  0
   38.8768   38.7676   -3.3741 C   0  0  0  0  0  0  0  0  0  0  0  0
   40.2909   39.1430   -2.7995 C   0  0  0  0  0  0  0  0  0  0  0  0
   41.4945   38.2194   -3.1851 N   0  0  0  0  0  0  0  0  0  0  0  0
   41.5924   38.0178   -4.7043 C   0  0  0  0  0  0  0  0  0  0  0  0
   41.1820   36.7789   -2.6143 C   0  0  0  0  0  0  0  0  0  0  0  0
   42.8191   38.5960   -2.5138 C   0  0  0  0  0  0  0  0  0  0  0  0
   44.1891   38.3034   -3.1185 N   0  0  0  0  0  0  0  0  0  0  0  0
   44.6728   39.4496   -4.0360 C   0  0  0  0  0  0  0  0  0  0  0  0
   45.2659   38.0916   -2.0643 C   0  0  0  0  0  0  0  0  0  0  0  0
   44.1246   37.0843   -4.0830 C   0  0  0  0  0  0  0  0  0  0  0  0
   45.3089   36.2145   -4.4200 N   0  0  0  0  0  0  0  0  0  0  0  0
   45.1477   35.9009   -5.9652 C   0  0  0  0  0  0  0  0  0  0  0  0
   45.3926   34.8551   -3.7541 C   0  0  0  0  0  0  0  0  0  0  0  0
   46.6814   36.9073   -4.3184 C   0  0  0  0  0  0  0  0  0  0  0  0
   39.0131   38.5384   -4.9003 C   0  0  0  0  0  0  0  0  0  0  0  0
   38.8290   36.9465   -6.8218 C   0  0  0  0  0  0  0  0  0  0  0  0
   38.2345   37.3320   -5.4669 C   0  0  0  0  0  0  0  0  0  0  0  0
   38.2561   36.1220   -4.5328 C   0  0  0  0  0  0  0  0  0  0  0  0
   35.6813   41.7221   -3.8869 N   0  0  0  0  0  0  0  0  0  0  0  0
   34.8795   42.3115   -3.6629 H   0  0  0  0  0  0  0  0  0  0  0  0
   36.1190   42.0584   -5.4430 P   0  0  0  0  0  0  0  0  0  0  0  0
   37.2713   43.0263   -5.5345 O   0  0  0  0  0  0  0  0  0  0  0  0
   36.5703   40.6181   -5.9700 O   0  0  0  0  0  0  0  0  0  0  0  0
   37.3523   40.3239   -5.4772 H   0  0  0  0  0  0  0  0  0  0  0  0
   34.6599   42.5630   -6.3909 C   0  0  0  0  0  0  0  0  0  0  0  0
   34.8977   42.8343   -7.8007 N   0  0  0  0  0  0  0  0  0  0  0  0
   33.8181   42.9069   -8.6373 C   0  0  0  0  0  0  0  0  0  0  0  0
   32.6969   43.2316   -8.2626 O   0  0  0  0  0  0  0  0  0  0  0  0
   35.8118   42.9623   -8.1433 H   0  0  0  0  0  0  0  0  0  0  0  0
   34.1851   42.5037   -9.8686 O   0  0  0  0  0  0  0  0  0  0  0  0
   33.1236   42.1455  -10.7693 C   0  0  0  0  0  0  0  0  0  0  0  0
   33.2033   43.0454  -11.9820 C   0  0  0  0  0  0  0  0  0  0  0  0
   32.8351   42.5701  -13.2500 C   0  0  0  0  0  0  0  0  0  0  0  0
   32.8831   43.4179  -14.3590 C   0  0  0  0  0  0  0  0  0  0  0  0
   33.2874   44.7470  -14.2129 C   0  0  0  0  0  0  0  0  0  0  0  0
   33.6450   45.2323  -12.9568 C   0  0  0  0  0  0  0  0  0  0  0  0
   33.5984   44.3856  -11.8435 C   0  0  0  0  0  0  0  0  0  0  0  0
   36.0989   41.7518   -1.4163 C   0  0  0  0  0  0  0  0  0  0  0  0
   36.4406   42.8471   -0.3865 C   0  0  0  0  0  0  0  0  0  0  0  0
   37.1285   42.2087    0.8304 C   0  0  0  0  0  0  0  0  0  0  0  0
   37.3428   43.9471   -0.9729 C   0  0  0  0  0  0  0  0  0  0  0  0
 21 22  1  0
 22 23  1  0
 22 20  1  0
  6 20  1  0
  6  7  1  0
  7  8  1  0
  8  9  1  0
  8 10  1  0
  8 11  1  0
 11 12  1  0
 12 13  1  0
 12 14  1  0
 12 15  1  0
 15 16  1  0
 16 17  1  0
 16 18  1  0
 16 19  1  0
  6  2  1  0
  2  3  1  0
  3  4  2  0
  3  1  1  0
  1 43  1  0
 43 44  1  0
 44 45  1  0
 44 46  1  0
  1 24  1  0
 24 26  1  0
 26 27  2  0
 26 28  1  0
 26 30  1  0
 30 31  1  0
 31 32  1  0
 32 33  2  0
 32 35  1  0
 35 36  1  0
 36 37  1  0
 37 38  2  0
 38 39  1  0
 39 40  2  0
 40 41  1  0
 41 42  2  0
 42 37  1  0
  2  5  1  0
 24 25  1  0
 28 29  1  0
 31 34  1  0
M  CHG 1   8   1
M  CHG 1  12   1
M  CHG 1  16   1
M  END
> <minimizedAffinity>
-8.54636

> <CNNscore>
0.5597002506

> <CNNaffinity>
7.4829649925

> <CNN_VS>
4.1882171631

> <CNNaffinity_variance>
0.7008107305

$$$$
