


 40 44  0  0  0  0  0  0  0  0999 V2000
    3.1681   23.9333   18.1312 C   0  0  0  0  0  0  0  0  0  0  0  0
    2.5778   23.5614   19.3330 C   0  0  0  0  0  0  0  0  0  0  0  0
    3.1197   24.0503   20.5054 C   0  0  0  0  0  0  0  0  0  0  0  0
    4.1902   24.8797   20.4933 N   0  0  0  0  0  0  0  0  0  0  0  0
    4.7520   25.2473   19.3233 C   0  0  0  0  0  0  0  0  0  0  0  0
    4.2559   24.7956   18.1126 C   0  0  0  0  0  0  0  0  0  0  0  0
    2.5589   24.3988   15.6420 O   0  0  0  0  0  0  0  0  0  0  0  0
    2.4951   23.3227   16.6135 S   0  0  0  0  0  0  0  0  0  0  0  0
    3.1366   22.0495   16.3340 O   0  0  0  0  0  0  0  0  0  0  0  0
    0.7779   22.9844   16.9335 C   0  0  0  0  0  0  0  0  0  0  0  0
   -0.0963   24.0402   17.2087 C   0  0  0  0  0  0  0  0  0  0  0  0
   -1.4397   23.7674   17.4671 C   0  0  0  0  0  0  0  0  0  0  0  0
   -1.9004   22.4494   17.4565 C   0  0  0  0  0  0  0  0  0  0  0  0
   -1.0197   21.3980   17.1949 C   0  0  0  0  0  0  0  0  0  0  0  0
    0.3258   21.6612   16.9382 C   0  0  0  0  0  0  0  0  0  0  0  0
    2.6364   23.7454   21.7771 N   0  0  0  0  0  0  0  0  0  0  0  0
    3.3266   23.7711   22.4786 H   0  0  0  0  0  0  0  0  0  0  0  0
    1.4115   23.4226   22.2358 C   0  0  0  0  0  0  0  0  0  0  0  0
    0.3069   23.2956   21.3576 C   0  0  0  0  0  0  0  0  0  0  0  0
   -0.7776   22.9489   22.1406 C   0  0  0  0  0  0  0  0  0  0  0  0
   -0.2690   22.9059   23.4122 N   0  0  0  0  0  0  0  0  0  0  0  0
    1.0381   23.1918   23.4957 N   0  0  0  0  0  0  0  0  0  0  0  0
   -0.8177   22.6836   24.1988 H   0  0  0  0  0  0  0  0  0  0  0  0
   -2.1761   22.6932   21.8077 C   0  0  0  0  0  0  0  0  0  0  0  0
   -2.8698   23.5683   20.9574 C   0  0  0  0  0  0  0  0  0  0  0  0
   -4.2103   23.3380   20.6325 C   0  0  0  0  0  0  0  0  0  0  0  0
   -4.8667   22.2267   21.1534 C   0  0  0  0  0  0  0  0  0  0  0  0
   -6.5151   21.9415   20.7543 Cl  0  0  0  0  0  0  0  0  0  0  0  0
   -4.1936   21.3433   21.9937 C   0  0  0  0  0  0  0  0  0  0  0  0
   -2.8527   21.5760   22.3190 C   0  0  0  0  0  0  0  0  0  0  0  0
    5.8379   26.1404   19.2953 N   0  0  0  0  0  0  0  0  0  0  0  0
    6.1193   26.5883   18.4650 H   0  0  0  0  0  0  0  0  0  0  0  0
    6.5310   26.3698   20.5723 C   0  0  0  0  0  0  0  0  0  0  0  0
    8.0119   25.9720   20.3850 C   0  0  0  0  0  0  0  0  0  0  0  0
    8.9199   26.7208   21.3487 C   0  0  0  0  0  0  0  0  0  0  0  0
    8.8774   28.2312   21.1020 C   0  0  0  0  0  0  0  0  0  0  0  0
    9.1389   28.8773   22.3463 O   0  0  0  0  0  0  0  0  0  0  0  0
    7.5384   28.7131   20.5346 C   0  0  0  0  0  0  0  0  0  0  0  0
    6.3805   27.8410   21.0172 C   0  0  0  0  0  0  0  0  0  0  0  0
    8.4528   28.6338   22.9874 H   0  0  0  0  0  0  0  0  0  0  0  0
  7  8  2  0
  8  9  2  0
  8 10  1  0
 10 11  2  0
 11 12  1  0
 12 13  2  0
 13 14  1  0
 14 15  2  0
  8  1  1  0
  1  2  2  0
  2  3  1  0
  3 16  1  0
 16 18  1  0
 18 19  1  0
 19 20  2  0
 20 24  1  0
 24 25  2  0
 25 26  1  0
 26 27  2  0
 27 28  1  0
 27 29  1  0
 29 30  2  0
 20 21  1  0
 21 22  1  0
  3  4  2  0
  4  5  1  0
  5 31  1  0
 33 31  1  0
 33 34  1  0
 34 35  1  0
 35 36  1  0
 36 37  1  0
 36 38  1  0
 38 39  1  0
  5  6  2  0
 15 10  1  0
  6  1  1  0
 22 18  2  0
 39 33  1  0
 30 24  1  0
 16 17  1  0
 21 23  1  0
 31 32  1  0
 37 40  1  0
M  END
> <minimizedAffinity>
-9.58087

> <CNNscore>
0.9842496514

> <CNNaffinity>
8.1253738403

> <CNN_VS>
7.9973964691

> <CNNaffinity_variance>
0.1358839422

$$$$



 40 44  0  0  0  0  0  0  0  0999 V2000
    5.0285   24.9438   18.9584 C   0  0  0  0  0  0  0  0  0  0  0  0
    4.6865   24.3723   20.1782 C   0  0  0  0  0  0  0  0  0  0  0  0
    3.3562   24.0876   20.4157 C   0  0  0  0  0  0  0  0  0  0  0  0
    2.4052   24.3440   19.4864 N   0  0  0  0  0  0  0  0  0  0  0  0
    2.7440   24.8876   18.2992 C   0  0  0  0  0  0  0  0  0  0  0  0
    4.0594   25.1942   17.9964 C   0  0  0  0  0  0  0  0  0  0  0  0
    7.5330   24.3018   19.2729 O   0  0  0  0  0  0  0  0  0  0  0  0
    6.7249   25.3190   18.6262 S   0  0  0  0  0  0  0  0  0  0  0  0
    6.8481   25.5482   17.1969 O   0  0  0  0  0  0  0  0  0  0  0  0
    7.0573   26.8685   19.4353 C   0  0  0  0  0  0  0  0  0  0  0  0
    8.0597   27.7075   18.9394 C   0  0  0  0  0  0  0  0  0  0  0  0
    8.3210   28.9170   19.5834 C   0  0  0  0  0  0  0  0  0  0  0  0
    7.5897   29.2783   20.7167 C   0  0  0  0  0  0  0  0  0  0  0  0
    6.5995   28.4298   21.2154 C   0  0  0  0  0  0  0  0  0  0  0  0
    6.3333   27.2172   20.5796 C   0  0  0  0  0  0  0  0  0  0  0  0
    2.8753   23.5292   21.5992 N   0  0  0  0  0  0  0  0  0  0  0  0
    3.5841   23.1912   22.1929 H   0  0  0  0  0  0  0  0  0  0  0  0
    1.6325   23.3607   22.0910 C   0  0  0  0  0  0  0  0  0  0  0  0
    0.5313   23.1065   21.2365 C   0  0  0  0  0  0  0  0  0  0  0  0
   -0.5755   22.9744   22.0532 C   0  0  0  0  0  0  0  0  0  0  0  0
   -0.0812   23.1685   23.3163 N   0  0  0  0  0  0  0  0  0  0  0  0
    1.2371   23.4076   23.3644 N   0  0  0  0  0  0  0  0  0  0  0  0
   -0.6470   23.1351   24.1214 H   0  0  0  0  0  0  0  0  0  0  0  0
   -1.9813   22.7182   21.7531 C   0  0  0  0  0  0  0  0  0  0  0  0
   -2.6332   23.4523   20.7501 C   0  0  0  0  0  0  0  0  0  0  0  0
   -3.9801   23.2202   20.4541 C   0  0  0  0  0  0  0  0  0  0  0  0
   -4.6849   22.2479   21.1577 C   0  0  0  0  0  0  0  0  0  0  0  0
   -6.3412   21.9606   20.7945 Cl  0  0  0  0  0  0  0  0  0  0  0  0
   -4.0538   21.5046   22.1522 C   0  0  0  0  0  0  0  0  0  0  0  0
   -2.7064   21.7391   22.4481 C   0  0  0  0  0  0  0  0  0  0  0  0
    1.7717   25.1205   17.3103 N   0  0  0  0  0  0  0  0  0  0  0  0
    1.5106   26.0318   17.0445 H   0  0  0  0  0  0  0  0  0  0  0  0
    1.1654   23.9304   16.6941 C   0  0  0  0  0  0  0  0  0  0  0  0
    0.0690   23.4093   17.6496 C   0  0  0  0  0  0  0  0  0  0  0  0
   -1.0074   22.6383   16.9008 C   0  0  0  0  0  0  0  0  0  0  0  0
   -1.7428   23.5307   15.8974 C   0  0  0  0  0  0  0  0  0  0  0  0
   -2.1864   22.6990   14.8272 O   0  0  0  0  0  0  0  0  0  0  0  0
   -0.8736   24.6673   15.3497 C   0  0  0  0  0  0  0  0  0  0  0  0
    0.6003   24.2682   15.2970 C   0  0  0  0  0  0  0  0  0  0  0  0
   -1.4196   22.2899   14.3964 H   0  0  0  0  0  0  0  0  0  0  0  0
  7  8  2  0
  8  9  2  0
  8 10  1  0
 10 11  2  0
 11 12  1  0
 12 13  2  0
 13 14  1  0
 14 15  2  0
  8  1  1  0
  1  2  2  0
  2  3  1  0
  3 16  1  0
 16 18  1  0
 18 19  1  0
 19 20  2  0
 20 24  1  0
 24 25  2  0
 25 26  1  0
 26 27  2  0
 27 28  1  0
 27 29  1  0
 29 30  2  0
 20 21  1  0
 21 22  1  0
  3  4  2  0
  4  5  1  0
  5 31  1  0
 33 31  1  0
 33 34  1  0
 34 35  1  0
 35 36  1  0
 36 37  1  0
 36 38  1  0
 38 39  1  0
  5  6  2  0
 15 10  1  0
  6  1  1  0
 22 18  2  0
 39 33  1  0
 30 24  1  0
 16 17  1  0
 21 23  1  0
 31 32  1  0
 37 40  1  0
M  END
> <minimizedAffinity>
-9.43027

> <CNNscore>
0.9754395485

> <CNNaffinity>
8.3077516556

> <CNN_VS>
8.1037092209

> <CNNaffinity_variance>
0.1077649519

$$$$



 40 44  0  0  0  0  0  0  0  0999 V2000
    3.7631   24.1601   17.9271 C   0  0  0  0  0  0  0  0  0  0  0  0
    3.1940   23.6724   19.0974 C   0  0  0  0  0  0  0  0  0  0  0  0
    3.6180   24.2029   20.2999 C   0  0  0  0  0  0  0  0  0  0  0  0
    4.5540   25.1803   20.3465 N   0  0  0  0  0  0  0  0  0  0  0  0
    5.0946   25.6587   19.2070 C   0  0  0  0  0  0  0  0  0  0  0  0
    4.7117   25.1729   17.9687 C   0  0  0  0  0  0  0  0  0  0  0  0
    3.6031   24.4578   15.3446 O   0  0  0  0  0  0  0  0  0  0  0  0
    3.2392   23.4997   16.3720 S   0  0  0  0  0  0  0  0  0  0  0  0
    3.7208   22.1311   16.2959 O   0  0  0  0  0  0  0  0  0  0  0  0
    1.4627   23.4264   16.4379 C   0  0  0  0  0  0  0  0  0  0  0  0
    0.7235   24.6099   16.5247 C   0  0  0  0  0  0  0  0  0  0  0  0
   -0.6686   24.5451   16.5846 C   0  0  0  0  0  0  0  0  0  0  0  0
   -1.3126   23.3063   16.5648 C   0  0  0  0  0  0  0  0  0  0  0  0
   -0.5684   22.1272   16.4922 C   0  0  0  0  0  0  0  0  0  0  0  0
    0.8241   22.1824   16.4348 C   0  0  0  0  0  0  0  0  0  0  0  0
    3.1423   23.7953   21.5454 N   0  0  0  0  0  0  0  0  0  0  0  0
    3.8544   23.6215   22.2026 H   0  0  0  0  0  0  0  0  0  0  0  0
    1.9008   23.5921   22.0275 C   0  0  0  0  0  0  0  0  0  0  0  0
    0.8068   23.3443   21.1619 C   0  0  0  0  0  0  0  0  0  0  0  0
   -0.3002   23.1704   21.9704 C   0  0  0  0  0  0  0  0  0  0  0  0
    0.1865   23.3363   23.2404 N   0  0  0  0  0  0  0  0  0  0  0  0
    1.5005   23.5958   23.3003 N   0  0  0  0  0  0  0  0  0  0  0  0
   -0.3812   23.2705   24.0420 H   0  0  0  0  0  0  0  0  0  0  0  0
   -1.7006   22.8997   21.6577 C   0  0  0  0  0  0  0  0  0  0  0  0
   -2.4665   22.0822   22.5032 C   0  0  0  0  0  0  0  0  0  0  0  0
   -3.8077   21.8115   22.2147 C   0  0  0  0  0  0  0  0  0  0  0  0
   -4.3949   22.3607   21.0785 C   0  0  0  0  0  0  0  0  0  0  0  0
   -6.0445   22.0294   20.7225 Cl  0  0  0  0  0  0  0  0  0  0  0  0
   -3.6531   23.1797   20.2307 C   0  0  0  0  0  0  0  0  0  0  0  0
   -2.3107   23.4483   20.5201 C   0  0  0  0  0  0  0  0  0  0  0  0
    6.0370   26.7019   19.2396 N   0  0  0  0  0  0  0  0  0  0  0  0
    5.7675   27.6463   19.1722 H   0  0  0  0  0  0  0  0  0  0  0  0
    7.4471   26.3070   19.3799 C   0  0  0  0  0  0  0  0  0  0  0  0
    7.4838   24.8092   19.7563 C   0  0  0  0  0  0  0  0  0  0  0  0
    8.7845   24.1528   19.3189 C   0  0  0  0  0  0  0  0  0  0  0  0
    8.9468   24.1866   17.7968 C   0  0  0  0  0  0  0  0  0  0  0  0
   10.3444   24.2186   17.5145 O   0  0  0  0  0  0  0  0  0  0  0  0
    8.2541   25.3860   17.1421 C   0  0  0  0  0  0  0  0  0  0  0  0
    8.2254   26.5939   18.0772 C   0  0  0  0  0  0  0  0  0  0  0  0
   10.7339   25.0189   17.9001 H   0  0  0  0  0  0  0  0  0  0  0  0
  7  8  2  0
  8  9  2  0
  8 10  1  0
 10 11  2  0
 11 12  1  0
 12 13  2  0
 13 14  1  0
 14 15  2  0
  8  1  1  0
  1  2  2  0
  2  3  1  0
  3 16  1  0
 16 18  1  0
 18 19  1  0
 19 20  2  0
 20 24  1  0
 24 25  2  0
 25 26  1  0
 26 27  2  0
 27 28  1  0
 27 29  1  0
 29 30  2  0
 20 21  1  0
 21 22  1  0
  3  4  2  0
  4  5  1  0
  5 31  1  0
 33 31  1  0
 33 34  1  0
 34 35  1  0
 35 36  1  0
 36 37  1  0
 36 38  1  0
 38 39  1  0
  5  6  2  0
 15 10  1  0
  6  1  1  0
 22 18  2  0
 39 33  1  0
 30 24  1  0
 16 17  1  0
 21 23  1  0
 31 32  1  0
 37 40  1  0
M  END
> <minimizedAffinity>
-9.00157

> <CNNscore>
0.9571697116

> <CNNaffinity>
7.9697737694

> <CNN_VS>
7.6284260750

> <CNNaffinity_variance>
0.1490701586

$$$$



 40 44  0  0  0  0  0  0  0  0999 V2000
    3.7631   24.0264   17.9979 C   0  0  0  0  0  0  0  0  0  0  0  0
    3.1692   23.4836   19.1309 C   0  0  0  0  0  0  0  0  0  0  0  0
    3.5163   24.0032   20.3626 C   0  0  0  0  0  0  0  0  0  0  0  0
    4.4016   25.0220   20.4720 N   0  0  0  0  0  0  0  0  0  0  0  0
    4.9661   25.5535   19.3682 C   0  0  0  0  0  0  0  0  0  0  0  0
    4.6594   25.0813   18.1036 C   0  0  0  0  0  0  0  0  0  0  0  0
    2.9614   21.9909   16.5845 O   0  0  0  0  0  0  0  0  0  0  0  0
    3.3374   23.3812   16.4068 S   0  0  0  0  0  0  0  0  0  0  0  0
    2.4088   24.3147   15.7929 O   0  0  0  0  0  0  0  0  0  0  0  0
    4.8314   23.4180   15.4413 C   0  0  0  0  0  0  0  0  0  0  0  0
    5.8600   22.5137   15.7224 C   0  0  0  0  0  0  0  0  0  0  0  0
    7.0321   22.5534   14.9672 C   0  0  0  0  0  0  0  0  0  0  0  0
    7.1744   23.4943   13.9454 C   0  0  0  0  0  0  0  0  0  0  0  0
    6.1493   24.4040   13.6786 C   0  0  0  0  0  0  0  0  0  0  0  0
    4.9749   24.3735   14.4305 C   0  0  0  0  0  0  0  0  0  0  0  0
    3.0086   23.5427   21.5767 N   0  0  0  0  0  0  0  0  0  0  0  0
    3.7036   23.2520   22.2104 H   0  0  0  0  0  0  0  0  0  0  0  0
    1.7552   23.4169   22.0541 C   0  0  0  0  0  0  0  0  0  0  0  0
    0.6641   23.1419   21.1930 C   0  0  0  0  0  0  0  0  0  0  0  0
   -0.4581   23.0650   21.9957 C   0  0  0  0  0  0  0  0  0  0  0  0
    0.0185   23.3084   23.2571 N   0  0  0  0  0  0  0  0  0  0  0  0
    1.3397   23.5281   23.3170 N   0  0  0  0  0  0  0  0  0  0  0  0
   -0.5610   23.3210   24.0529 H   0  0  0  0  0  0  0  0  0  0  0  0
   -1.8629   22.8182   21.6833 C   0  0  0  0  0  0  0  0  0  0  0  0
   -2.6083   21.9132   22.4547 C   0  0  0  0  0  0  0  0  0  0  0  0
   -3.9535   21.6644   22.1651 C   0  0  0  0  0  0  0  0  0  0  0  0
   -4.5652   22.3230   21.1025 C   0  0  0  0  0  0  0  0  0  0  0  0
   -6.2198   22.0187   20.7453 Cl  0  0  0  0  0  0  0  0  0  0  0  0
   -3.8440   23.2296   20.3293 C   0  0  0  0  0  0  0  0  0  0  0  0
   -2.4975   23.4763   20.6195 C   0  0  0  0  0  0  0  0  0  0  0  0
    5.8552   26.6386   19.4655 N   0  0  0  0  0  0  0  0  0  0  0  0
    5.5353   27.5686   19.5095 H   0  0  0  0  0  0  0  0  0  0  0  0
    7.2888   26.3103   19.4979 C   0  0  0  0  0  0  0  0  0  0  0  0
    7.4208   24.7901   19.7389 C   0  0  0  0  0  0  0  0  0  0  0  0
    8.7259   24.2448   19.1794 C   0  0  0  0  0  0  0  0  0  0  0  0
    8.8011   24.4166   17.6599 C   0  0  0  0  0  0  0  0  0  0  0  0
   10.1773   24.5483   17.3100 O   0  0  0  0  0  0  0  0  0  0  0  0
    8.0143   25.6280   17.1494 C   0  0  0  0  0  0  0  0  0  0  0  0
    7.9779   26.7487   18.1872 C   0  0  0  0  0  0  0  0  0  0  0  0
   10.5476   25.3328   17.7439 H   0  0  0  0  0  0  0  0  0  0  0  0
  7  8  2  0
  8  9  2  0
  8 10  1  0
 10 11  2  0
 11 12  1  0
 12 13  2  0
 13 14  1  0
 14 15  2  0
  8  1  1  0
  1  2  2  0
  2  3  1  0
  3 16  1  0
 16 18  1  0
 18 19  1  0
 19 20  2  0
 20 24  1  0
 24 25  2  0
 25 26  1  0
 26 27  2  0
 27 28  1  0
 27 29  1  0
 29 30  2  0
 20 21  1  0
 21 22  1  0
  3  4  2  0
  4  5  1  0
  5 31  1  0
 33 31  1  0
 33 34  1  0
 34 35  1  0
 35 36  1  0
 36 37  1  0
 36 38  1  0
 38 39  1  0
  5  6  2  0
 15 10  1  0
  6  1  1  0
 22 18  2  0
 39 33  1  0
 30 24  1  0
 16 17  1  0
 21 23  1  0
 31 32  1  0
 37 40  1  0
M  END
> <minimizedAffinity>
-8.51395

> <CNNscore>
0.9103211164

> <CNNaffinity>
7.6398377419

> <CNN_VS>
6.9547057152

> <CNNaffinity_variance>
0.1305742115

$$$$



 40 44  0  0  0  0  0  0  0  0999 V2000
    5.2065   24.2189   17.5626 C   0  0  0  0  0  0  0  0  0  0  0  0
    4.9671   24.1492   18.9297 C   0  0  0  0  0  0  0  0  0  0  0  0
    3.6688   24.3049   19.3740 C   0  0  0  0  0  0  0  0  0  0  0  0
    2.6484   24.5087   18.5073 N   0  0  0  0  0  0  0  0  0  0  0  0
    2.8844   24.5634   17.1804 C   0  0  0  0  0  0  0  0  0  0  0  0
    4.1617   24.4121   16.6690 C   0  0  0  0  0  0  0  0  0  0  0  0
    7.1601   22.6029   16.9661 O   0  0  0  0  0  0  0  0  0  0  0  0
    6.8596   24.0227   16.9645 S   0  0  0  0  0  0  0  0  0  0  0  0
    6.9719   24.7901   15.7360 O   0  0  0  0  0  0  0  0  0  0  0  0
    7.9168   24.8004   18.1658 C   0  0  0  0  0  0  0  0  0  0  0  0
    8.6962   24.0109   19.0167 C   0  0  0  0  0  0  0  0  0  0  0  0
    9.5165   24.6267   19.9620 C   0  0  0  0  0  0  0  0  0  0  0  0
    9.5499   26.0193   20.0580 C   0  0  0  0  0  0  0  0  0  0  0  0
    8.7586   26.8021   19.2150 C   0  0  0  0  0  0  0  0  0  0  0  0
    7.9333   26.1948   18.2687 C   0  0  0  0  0  0  0  0  0  0  0  0
    3.2924   24.2724   20.7160 N   0  0  0  0  0  0  0  0  0  0  0  0
    3.9914   24.5943   21.3301 H   0  0  0  0  0  0  0  0  0  0  0  0
    2.1614   23.8877   21.3387 C   0  0  0  0  0  0  0  0  0  0  0  0
    0.9467   23.7297   20.6266 C   0  0  0  0  0  0  0  0  0  0  0  0
    0.0026   23.3209   21.5492 C   0  0  0  0  0  0  0  0  0  0  0  0
    0.6923   23.2754   22.7323 N   0  0  0  0  0  0  0  0  0  0  0  0
    1.9851   23.6164   22.6331 N   0  0  0  0  0  0  0  0  0  0  0  0
    0.2734   23.0142   23.5841 H   0  0  0  0  0  0  0  0  0  0  0  0
   -1.4180   23.0111   21.4156 C   0  0  0  0  0  0  0  0  0  0  0  0
   -2.0899   22.3273   22.4407 C   0  0  0  0  0  0  0  0  0  0  0  0
   -3.4494   22.0208   22.3252 C   0  0  0  0  0  0  0  0  0  0  0  0
   -4.1489   22.4002   21.1833 C   0  0  0  0  0  0  0  0  0  0  0  0
   -5.8211   22.0248   21.0399 Cl  0  0  0  0  0  0  0  0  0  0  0  0
   -3.5013   23.0852   20.1581 C   0  0  0  0  0  0  0  0  0  0  0  0
   -2.1405   23.3898   20.2746 C   0  0  0  0  0  0  0  0  0  0  0  0
    1.8282   24.7333   16.2676 N   0  0  0  0  0  0  0  0  0  0  0  0
    1.5192   25.6267   15.9929 H   0  0  0  0  0  0  0  0  0  0  0  0
    1.2096   23.5052   15.7451 C   0  0  0  0  0  0  0  0  0  0  0  0
    1.4288   22.3851   16.7862 C   0  0  0  0  0  0  0  0  0  0  0  0
    0.3544   21.3125   16.6905 C   0  0  0  0  0  0  0  0  0  0  0  0
   -1.0341   21.8790   16.9992 C   0  0  0  0  0  0  0  0  0  0  0  0
   -1.9852   21.1065   16.2695 O   0  0  0  0  0  0  0  0  0  0  0  0
   -1.1763   23.3607   16.6365 C   0  0  0  0  0  0  0  0  0  0  0  0
   -0.2891   23.7333   15.4498 C   0  0  0  0  0  0  0  0  0  0  0  0
   -1.8061   21.1864   15.3195 H   0  0  0  0  0  0  0  0  0  0  0  0
  7  8  2  0
  8  9  2  0
  8 10  1  0
 10 11  2  0
 11 12  1  0
 12 13  2  0
 13 14  1  0
 14 15  2  0
  8  1  1  0
  1  2  2  0
  2  3  1  0
  3 16  1  0
 16 18  1  0
 18 19  1  0
 19 20  2  0
 20 24  1  0
 24 25  2  0
 25 26  1  0
 26 27  2  0
 27 28  1  0
 27 29  1  0
 29 30  2  0
 20 21  1  0
 21 22  1  0
  3  4  2  0
  4  5  1  0
  5 31  1  0
 33 31  1  0
 33 34  1  0
 34 35  1  0
 35 36  1  0
 36 37  1  0
 36 38  1  0
 38 39  1  0
  5  6  2  0
 15 10  1  0
  6  1  1  0
 22 18  2  0
 39 33  1  0
 30 24  1  0
 16 17  1  0
 21 23  1  0
 31 32  1  0
 37 40  1  0
M  END
> <minimizedAffinity>
-8.42746

> <CNNscore>
0.8547821641

> <CNNaffinity>
7.9166045189

> <CNN_VS>
6.7669725418

> <CNNaffinity_variance>
0.0076013175

$$$$



 40 44  0  0  0  0  0  0  0  0999 V2000
    5.3055   24.9968   17.5370 C   0  0  0  0  0  0  0  0  0  0  0  0
    5.0932   24.8708   18.9046 C   0  0  0  0  0  0  0  0  0  0  0  0
    3.8516   24.4473   19.3363 C   0  0  0  0  0  0  0  0  0  0  0  0
    2.8653   24.1494   18.4576 N   0  0  0  0  0  0  0  0  0  0  0  0
    3.0803   24.2617   17.1307 C   0  0  0  0  0  0  0  0  0  0  0  0
    4.3026   24.6777   16.6316 C   0  0  0  0  0  0  0  0  0  0  0  0
    6.6562   26.5006   15.8945 O   0  0  0  0  0  0  0  0  0  0  0  0
    6.8861   25.5368   16.9548 S   0  0  0  0  0  0  0  0  0  0  0  0
    7.6750   25.9065   18.1173 O   0  0  0  0  0  0  0  0  0  0  0  0
    7.6611   24.1091   16.2290 C   0  0  0  0  0  0  0  0  0  0  0  0
    7.7504   24.0019   14.8378 C   0  0  0  0  0  0  0  0  0  0  0  0
    8.3516   22.8760   14.2750 C   0  0  0  0  0  0  0  0  0  0  0  0
    8.8518   21.8650   15.0980 C   0  0  0  0  0  0  0  0  0  0  0  0
    8.7470   21.9712   16.4862 C   0  0  0  0  0  0  0  0  0  0  0  0
    8.1449   23.0921   17.0577 C   0  0  0  0  0  0  0  0  0  0  0  0
    3.5007   24.2929   20.6768 N   0  0  0  0  0  0  0  0  0  0  0  0
    4.2224   24.5283   21.3036 H   0  0  0  0  0  0  0  0  0  0  0  0
    2.3692   23.8854   21.2839 C   0  0  0  0  0  0  0  0  0  0  0  0
    1.1516   23.7685   20.5688 C   0  0  0  0  0  0  0  0  0  0  0  0
    0.2077   23.3216   21.4737 C   0  0  0  0  0  0  0  0  0  0  0  0
    0.9004   23.2158   22.6512 N   0  0  0  0  0  0  0  0  0  0  0  0
    2.1949   23.5537   22.5644 N   0  0  0  0  0  0  0  0  0  0  0  0
    0.4824   22.9166   23.4909 H   0  0  0  0  0  0  0  0  0  0  0  0
   -1.2151   23.0266   21.3300 C   0  0  0  0  0  0  0  0  0  0  0  0
   -1.9645   22.6102   22.4411 C   0  0  0  0  0  0  0  0  0  0  0  0
   -3.3271   22.3210   22.3177 C   0  0  0  0  0  0  0  0  0  0  0  0
   -3.9519   22.4501   21.0807 C   0  0  0  0  0  0  0  0  0  0  0  0
   -5.6278   22.0956   20.9273 Cl  0  0  0  0  0  0  0  0  0  0  0  0
   -3.2266   22.8682   19.9677 C   0  0  0  0  0  0  0  0  0  0  0  0
   -1.8629   23.1559   20.0926 C   0  0  0  0  0  0  0  0  0  0  0  0
    2.0778   23.9161   16.2071 N   0  0  0  0  0  0  0  0  0  0  0  0
    1.5407   24.5997   15.7451 H   0  0  0  0  0  0  0  0  0  0  0  0
    1.8744   22.4790   15.9678 C   0  0  0  0  0  0  0  0  0  0  0  0
    0.6908   22.0160   16.8459 C   0  0  0  0  0  0  0  0  0  0  0  0
   -0.0041   20.7991   16.2543 C   0  0  0  0  0  0  0  0  0  0  0  0
   -0.6190   21.1123   14.8876 C   0  0  0  0  0  0  0  0  0  0  0  0
   -0.6212   19.9038   14.1304 O   0  0  0  0  0  0  0  0  0  0  0  0
    0.1335   22.2062   14.1232 C   0  0  0  0  0  0  0  0  0  0  0  0
    1.6218   22.2068   14.4687 C   0  0  0  0  0  0  0  0  0  0  0  0
    0.2906   19.5943   14.0127 H   0  0  0  0  0  0  0  0  0  0  0  0
  7  8  2  0
  8  9  2  0
  8 10  1  0
 10 11  2  0
 11 12  1  0
 12 13  2  0
 13 14  1  0
 14 15  2  0
  8  1  1  0
  1  2  2  0
  2  3  1  0
  3 16  1  0
 16 18  1  0
 18 19  1  0
 19 20  2  0
 20 24  1  0
 24 25  2  0
 25 26  1  0
 26 27  2  0
 27 28  1  0
 27 29  1  0
 29 30  2  0
 20 21  1  0
 21 22  1  0
  3  4  2  0
  4  5  1  0
  5 31  1  0
 33 31  1  0
 33 34  1  0
 34 35  1  0
 35 36  1  0
 36 37  1  0
 36 38  1  0
 38 39  1  0
  5  6  2  0
 15 10  1  0
  6  1  1  0
 22 18  2  0
 39 33  1  0
 30 24  1  0
 16 17  1  0
 21 23  1  0
 31 32  1  0
 37 40  1  0
M  END
> <minimizedAffinity>
-8.64397

> <CNNscore>
0.6299185753

> <CNNaffinity>
7.3309440613

> <CNN_VS>
4.6178979874

> <CNNaffinity_variance>
0.0746978000

$$$$



 40 44  0  0  0  0  0  0  0  0999 V2000
    1.2647   24.0412   18.5547 C   0  0  0  0  0  0  0  0  0  0  0  0
    2.5619   24.1615   19.0385 C   0  0  0  0  0  0  0  0  0  0  0  0
    2.7765   23.9626   20.3882 C   0  0  0  0  0  0  0  0  0  0  0  0
    1.7583   23.6469   21.2233 N   0  0  0  0  0  0  0  0  0  0  0  0
    0.5029   23.5194   20.7466 C   0  0  0  0  0  0  0  0  0  0  0  0
    0.2200   23.7025   19.4040 C   0  0  0  0  0  0  0  0  0  0  0  0
    0.4780   25.6487   16.6624 O   0  0  0  0  0  0  0  0  0  0  0  0
    0.9599   24.2901   16.8302 S   0  0  0  0  0  0  0  0  0  0  0  0
    2.1392   23.8409   16.1105 O   0  0  0  0  0  0  0  0  0  0  0  0
   -0.3685   23.1882   16.3977 C   0  0  0  0  0  0  0  0  0  0  0  0
   -1.6475   23.7030   16.1654 C   0  0  0  0  0  0  0  0  0  0  0  0
   -2.6864   22.8328   15.8350 C   0  0  0  0  0  0  0  0  0  0  0  0
   -2.4471   21.4601   15.7452 C   0  0  0  0  0  0  0  0  0  0  0  0
   -1.1709   20.9504   15.9921 C   0  0  0  0  0  0  0  0  0  0  0  0
   -0.1267   21.8128   16.3259 C   0  0  0  0  0  0  0  0  0  0  0  0
    4.0221   24.0672   21.0056 N   0  0  0  0  0  0  0  0  0  0  0  0
    4.0833   23.5766   21.8570 H   0  0  0  0  0  0  0  0  0  0  0  0
    5.1586   24.7069   20.6677 C   0  0  0  0  0  0  0  0  0  0  0  0
    5.1454   26.0632   20.2580 C   0  0  0  0  0  0  0  0  0  0  0  0
    6.4589   26.4070   20.0007 C   0  0  0  0  0  0  0  0  0  0  0  0
    7.1588   25.2562   20.2522 N   0  0  0  0  0  0  0  0  0  0  0  0
    6.4016   24.2227   20.6470 N   0  0  0  0  0  0  0  0  0  0  0  0
    8.1361   25.1936   20.1514 H   0  0  0  0  0  0  0  0  0  0  0  0
    7.0667   27.6528   19.5417 C   0  0  0  0  0  0  0  0  0  0  0  0
    7.7002   28.5073   20.4572 C   0  0  0  0  0  0  0  0  0  0  0  0
    8.2837   29.7051   20.0325 C   0  0  0  0  0  0  0  0  0  0  0  0
    8.2410   30.0557   18.6863 C   0  0  0  0  0  0  0  0  0  0  0  0
    8.9587   31.5282   18.1622 Cl  0  0  0  0  0  0  0  0  0  0  0  0
    7.6225   29.2178   17.7616 C   0  0  0  0  0  0  0  0  0  0  0  0
    7.0379   28.0202   18.1883 C   0  0  0  0  0  0  0  0  0  0  0  0
   -0.5558   23.1517   21.5959 N   0  0  0  0  0  0  0  0  0  0  0  0
   -0.3998   22.8657   22.5249 H   0  0  0  0  0  0  0  0  0  0  0  0
   -1.9089   23.2169   21.0225 C   0  0  0  0  0  0  0  0  0  0  0  0
   -2.0519   22.0557   20.0137 C   0  0  0  0  0  0  0  0  0  0  0  0
   -3.5035   21.6326   19.8477 C   0  0  0  0  0  0  0  0  0  0  0  0
   -4.0862   21.0973   21.1584 C   0  0  0  0  0  0  0  0  0  0  0  0
   -5.4865   21.3674   21.1479 O   0  0  0  0  0  0  0  0  0  0  0  0
   -3.4439   21.7183   22.4030 C   0  0  0  0  0  0  0  0  0  0  0  0
   -2.9765   23.1483   22.1364 C   0  0  0  0  0  0  0  0  0  0  0  0
   -5.6307   22.3252   21.0960 H   0  0  0  0  0  0  0  0  0  0  0  0
  7  8  2  0
  8  9  2  0
  8 10  1  0
 10 11  2  0
 11 12  1  0
 12 13  2  0
 13 14  1  0
 14 15  2  0
  8  1  1  0
  1  2  2  0
  2  3  1  0
  3 16  1  0
 16 18  1  0
 18 19  1  0
 19 20  2  0
 20 24  1  0
 24 25  2  0
 25 26  1  0
 26 27  2  0
 27 28  1  0
 27 29  1  0
 29 30  2  0
 20 21  1  0
 21 22  1  0
  3  4  2  0
  4  5  1  0
  5 31  1  0
 33 31  1  0
 33 34  1  0
 34 35  1  0
 35 36  1  0
 36 37  1  0
 36 38  1  0
 38 39  1  0
  5  6  2  0
 15 10  1  0
  6  1  1  0
 22 18  2  0
 39 33  1  0
 30 24  1  0
 16 17  1  0
 21 23  1  0
 31 32  1  0
 37 40  1  0
M  END
> <minimizedAffinity>
-9.45744

> <CNNscore>
0.6177492738

> <CNNaffinity>
7.4894070625

> <CNN_VS>
4.6265759468

> <CNNaffinity_variance>
0.0391603969

$$$$



 40 44  0  0  0  0  0  0  0  0999 V2000
    3.6011   23.8917   16.3801 C   0  0  0  0  0  0  0  0  0  0  0  0
    3.0399   24.0341   17.6434 C   0  0  0  0  0  0  0  0  0  0  0  0
    3.8840   24.2772   18.7091 C   0  0  0  0  0  0  0  0  0  0  0  0
    5.2225   24.3870   18.5355 N   0  0  0  0  0  0  0  0  0  0  0  0
    5.7610   24.2601   17.3053 C   0  0  0  0  0  0  0  0  0  0  0  0
    4.9710   24.0190   16.1945 C   0  0  0  0  0  0  0  0  0  0  0  0
    2.2341   24.8596   14.3855 O   0  0  0  0  0  0  0  0  0  0  0  0
    2.5443   23.5802   14.9961 S   0  0  0  0  0  0  0  0  0  0  0  0
    3.1591   22.5262   14.2077 O   0  0  0  0  0  0  0  0  0  0  0  0
    1.0335   22.9200   15.6650 C   0  0  0  0  0  0  0  0  0  0  0  0
   -0.0908   23.7431   15.7801 C   0  0  0  0  0  0  0  0  0  0  0  0
   -1.2696   23.2216   16.3131 C   0  0  0  0  0  0  0  0  0  0  0  0
   -1.3188   21.8908   16.7329 C   0  0  0  0  0  0  0  0  0  0  0  0
   -0.1886   21.0777   16.6285 C   0  0  0  0  0  0  0  0  0  0  0  0
    0.9953   21.5914   16.0993 C   0  0  0  0  0  0  0  0  0  0  0  0
    3.4559   24.4251   20.0277 N   0  0  0  0  0  0  0  0  0  0  0  0
    4.0403   25.0026   20.5702 H   0  0  0  0  0  0  0  0  0  0  0  0
    2.4007   23.9343   20.7063 C   0  0  0  0  0  0  0  0  0  0  0  0
    1.1018   23.9252   20.1405 C   0  0  0  0  0  0  0  0  0  0  0  0
    0.2689   23.3514   21.0820 C   0  0  0  0  0  0  0  0  0  0  0  0
    1.1000   23.0729   22.1351 N   0  0  0  0  0  0  0  0  0  0  0  0
    2.3802   23.4183   21.9365 N   0  0  0  0  0  0  0  0  0  0  0  0
    0.7836   22.6541   22.9680 H   0  0  0  0  0  0  0  0  0  0  0  0
   -1.1663   23.0825   21.0767 C   0  0  0  0  0  0  0  0  0  0  0  0
   -1.7959   22.5915   22.2309 C   0  0  0  0  0  0  0  0  0  0  0  0
   -3.1689   22.3262   22.2395 C   0  0  0  0  0  0  0  0  0  0  0  0
   -3.9241   22.5542   21.0928 C   0  0  0  0  0  0  0  0  0  0  0  0
   -5.6130   22.2292   21.1018 Cl  0  0  0  0  0  0  0  0  0  0  0  0
   -3.3187   23.0472   19.9395 C   0  0  0  0  0  0  0  0  0  0  0  0
   -1.9445   23.3108   19.9322 C   0  0  0  0  0  0  0  0  0  0  0  0
    7.1445   24.4129   17.1056 N   0  0  0  0  0  0  0  0  0  0  0  0
    7.7370   23.6388   16.9678 H   0  0  0  0  0  0  0  0  0  0  0  0
    7.6597   25.7907   17.1137 C   0  0  0  0  0  0  0  0  0  0  0  0
    6.4553   26.7470   16.9667 C   0  0  0  0  0  0  0  0  0  0  0  0
    6.7439   28.1102   17.5770 C   0  0  0  0  0  0  0  0  0  0  0  0
    6.9929   28.0097   19.0843 C   0  0  0  0  0  0  0  0  0  0  0  0
    7.8759   29.0698   19.4454 O   0  0  0  0  0  0  0  0  0  0  0  0
    7.5904   26.6646   19.5094 C   0  0  0  0  0  0  0  0  0  0  0  0
    8.4603   26.0655   18.4055 C   0  0  0  0  0  0  0  0  0  0  0  0
    8.7154   28.9673   18.9704 H   0  0  0  0  0  0  0  0  0  0  0  0
  7  8  2  0
  8  9  2  0
  8 10  1  0
 10 11  2  0
 11 12  1  0
 12 13  2  0
 13 14  1  0
 14 15  2  0
  8  1  1  0
  1  2  2  0
  2  3  1  0
  3 16  1  0
 16 18  1  0
 18 19  1  0
 19 20  2  0
 20 24  1  0
 24 25  2  0
 25 26  1  0
 26 27  2  0
 27 28  1  0
 27 29  1  0
 29 30  2  0
 20 21  1  0
 21 22  1  0
  3  4  2  0
  4  5  1  0
  5 31  1  0
 33 31  1  0
 33 34  1  0
 34 35  1  0
 35 36  1  0
 36 37  1  0
 36 38  1  0
 38 39  1  0
  5  6  2  0
 15 10  1  0
  6  1  1  0
 22 18  2  0
 39 33  1  0
 30 24  1  0
 16 17  1  0
 21 23  1  0
 31 32  1  0
 37 40  1  0
M  END
> <minimizedAffinity>
-7.98715

> <CNNscore>
0.5310744047

> <CNNaffinity>
7.3373985291

> <CNN_VS>
3.8967046738

> <CNNaffinity_variance>
0.0447995625

$$$$



 40 44  0  0  0  0  0  0  0  0999 V2000
    7.0510   23.1790   17.1408 C   0  0  0  0  0  0  0  0  0  0  0  0
    5.7340   23.5853   17.3185 C   0  0  0  0  0  0  0  0  0  0  0  0
    5.4256   24.3275   18.4416 C   0  0  0  0  0  0  0  0  0  0  0  0
    6.3766   24.6650   19.3447 N   0  0  0  0  0  0  0  0  0  0  0  0
    7.6559   24.2784   19.1612 C   0  0  0  0  0  0  0  0  0  0  0  0
    8.0325   23.5356   18.0556 C   0  0  0  0  0  0  0  0  0  0  0  0
    6.7167   20.9917   15.7668 O   0  0  0  0  0  0  0  0  0  0  0  0
    7.4755   22.2276   15.7112 S   0  0  0  0  0  0  0  0  0  0  0  0
    7.3609   23.1019   14.5567 O   0  0  0  0  0  0  0  0  0  0  0  0
    9.1970   21.8132   15.8851 C   0  0  0  0  0  0  0  0  0  0  0  0
   10.1723   22.7774   15.6132 C   0  0  0  0  0  0  0  0  0  0  0  0
   11.5204   22.4435   15.7432 C   0  0  0  0  0  0  0  0  0  0  0  0
   11.8872   21.1545   16.1350 C   0  0  0  0  0  0  0  0  0  0  0  0
   10.9090   20.1918   16.3916 C   0  0  0  0  0  0  0  0  0  0  0  0
    9.5586   20.5159   16.2614 C   0  0  0  0  0  0  0  0  0  0  0  0
    4.1451   24.7852   18.7491 N   0  0  0  0  0  0  0  0  0  0  0  0
    3.8380   25.5188   18.1687 H   0  0  0  0  0  0  0  0  0  0  0  0
    3.2449   24.4222   19.6832 C   0  0  0  0  0  0  0  0  0  0  0  0
    1.9129   24.0906   19.3318 C   0  0  0  0  0  0  0  0  0  0  0  0
    1.2692   23.7575   20.5083 C   0  0  0  0  0  0  0  0  0  0  0  0
    2.2305   23.9214   21.4708 N   0  0  0  0  0  0  0  0  0  0  0  0
    3.4201   24.3248   21.0023 N   0  0  0  0  0  0  0  0  0  0  0  0
    2.0617   23.7568   22.4267 H   0  0  0  0  0  0  0  0  0  0  0  0
   -0.1042   23.3444   20.7828 C   0  0  0  0  0  0  0  0  0  0  0  0
   -1.0243   23.2123   19.7313 C   0  0  0  0  0  0  0  0  0  0  0  0
   -2.3436   22.8208   19.9796 C   0  0  0  0  0  0  0  0  0  0  0  0
   -2.7518   22.5542   21.2832 C   0  0  0  0  0  0  0  0  0  0  0  0
   -4.3739   22.0718   21.5903 Cl  0  0  0  0  0  0  0  0  0  0  0  0
   -1.8518   22.6734   22.3393 C   0  0  0  0  0  0  0  0  0  0  0  0
   -0.5324   23.0667   22.0893 C   0  0  0  0  0  0  0  0  0  0  0  0
    8.6599   24.6572   20.0701 N   0  0  0  0  0  0  0  0  0  0  0  0
    8.4458   24.9651   20.9803 H   0  0  0  0  0  0  0  0  0  0  0  0
   10.0470   24.5690   19.5885 C   0  0  0  0  0  0  0  0  0  0  0  0
   10.6487   25.9916   19.6158 C   0  0  0  0  0  0  0  0  0  0  0  0
   12.1623   25.9576   19.7629 C   0  0  0  0  0  0  0  0  0  0  0  0
   12.5838   25.3198   21.0895 C   0  0  0  0  0  0  0  0  0  0  0  0
   13.8583   24.7123   20.8883 O   0  0  0  0  0  0  0  0  0  0  0  0
   11.5843   24.2787   21.6035 C   0  0  0  0  0  0  0  0  0  0  0  0
   10.8617   23.5812   20.4521 C   0  0  0  0  0  0  0  0  0  0  0  0
   13.7853   24.0258   20.2070 H   0  0  0  0  0  0  0  0  0  0  0  0
  7  8  2  0
  8  9  2  0
  8 10  1  0
 10 11  2  0
 11 12  1  0
 12 13  2  0
 13 14  1  0
 14 15  2  0
  8  1  1  0
  1  2  2  0
  2  3  1  0
  3 16  1  0
 16 18  1  0
 18 19  1  0
 19 20  2  0
 20 24  1  0
 24 25  2  0
 25 26  1  0
 26 27  2  0
 27 28  1  0
 27 29  1  0
 29 30  2  0
 20 21  1  0
 21 22  1  0
  3  4  2  0
  4  5  1  0
  5 31  1  0
 33 31  1  0
 33 34  1  0
 34 35  1  0
 35 36  1  0
 36 37  1  0
 36 38  1  0
 38 39  1  0
  5  6  2  0
 15 10  1  0
  6  1  1  0
 22 18  2  0
 39 33  1  0
 30 24  1  0
 16 17  1  0
 21 23  1  0
 31 32  1  0
 37 40  1  0
M  END
> <minimizedAffinity>
-8.36295

> <CNNscore>
0.2517353892

> <CNNaffinity>
6.7228775024

> <CNN_VS>
1.6923861504

> <CNNaffinity_variance>
0.0642020106

$$$$
