


 40 45  0  0  0  0  0  0  0  0999 V2000
   39.4495   32.8515   30.8822 C   0  0  0  0  0  0  0  0  0  0  0  0
   39.6617   31.9873   32.0990 C   0  0  0  0  0  0  0  0  0  0  0  0
   38.5411   31.3891   32.7028 C   0  0  0  0  0  0  0  0  0  0  0  0
   38.6777   30.6028   33.8478 C   0  0  0  0  0  0  0  0  0  0  0  0
   39.9420   30.4055   34.4073 C   0  0  0  0  0  0  0  0  0  0  0  0
   41.0688   30.9625   33.7897 C   0  0  0  0  0  0  0  0  0  0  0  0
   40.9512   31.7583   32.6340 C   0  0  0  0  0  0  0  0  0  0  0  0
   42.1711   32.3316   32.0380 C   0  0  0  0  0  0  0  0  0  0  0  0
   42.8957   31.6213   31.0622 C   0  0  0  0  0  0  0  0  0  0  0  0
   44.0565   32.1446   30.4667 C   0  0  0  0  0  0  0  0  0  0  0  0
   44.5062   33.4102   30.8783 C   0  0  0  0  0  0  0  0  0  0  0  0
   45.5729   34.3007   30.5723 C   0  0  0  0  0  0  0  0  0  0  0  0
   45.4971   35.4208   31.3081 N   0  0  0  0  0  0  0  0  0  0  0  0
   44.3767   35.2760   32.1058 O   0  0  0  0  0  0  0  0  0  0  0  0
   43.7841   34.0821   31.8473 C   0  0  0  0  0  0  0  0  0  0  0  0
   42.6265   33.5967   32.4506 C   0  0  0  0  0  0  0  0  0  0  0  0
   46.6885   34.1510   29.5806 C   0  0  0  0  0  0  0  0  0  0  0  0
   47.3332   32.7514   29.6339 C   0  0  0  0  0  0  0  0  0  0  0  0
   48.8429   32.7919   29.3986 C   0  0  0  0  0  0  0  0  0  0  0  0
   49.1906   33.7090   28.3192 N   0  0  0  0  0  0  0  0  0  0  0  0
   48.8187   35.0957   28.6180 C   0  0  0  0  0  0  0  0  0  0  0  0
   47.7465   35.2544   29.7005 C   0  0  0  0  0  0  0  0  0  0  0  0
   48.7048   33.4156   27.4716 H   0  0  0  0  0  0  0  0  0  0  0  0
   40.1354   29.6005   35.6466 C   0  0  0  0  0  0  0  0  0  0  0  0
   40.9556   29.9896   36.4690 O   0  0  0  0  0  0  0  0  0  0  0  0
   39.3069   28.4973   35.7546 N   0  0  0  0  0  0  0  0  0  0  0  0
   38.6751   28.3531   35.0135 H   0  0  0  0  0  0  0  0  0  0  0  0
   39.2629   27.5540   36.8056 C   0  0  0  0  0  0  0  0  0  0  0  0
   39.1097   26.2142   36.4500 C   0  0  0  0  0  0  0  0  0  0  0  0
   39.0590   25.2404   37.4412 C   0  0  0  0  0  0  0  0  0  0  0  0
   38.8600   23.5876   36.9970 Cl  0  0  0  0  0  0  0  0  0  0  0  0
   39.1618   25.5861   38.7887 C   0  0  0  0  0  0  0  0  0  0  0  0
   39.3208   26.9199   39.1889 C   0  0  0  0  0  0  0  0  0  0  0  0
   39.3728   27.8860   38.1625 C   0  0  0  0  0  0  0  0  0  0  0  0
   39.4162   27.2724   40.5249 N   0  0  0  0  0  0  0  0  0  0  0  0
   39.5492   28.6693   40.9682 C   0  0  0  0  0  0  0  0  0  0  0  0
   38.9450   28.8370   42.3738 C   0  0  0  0  0  0  0  0  0  0  0  0
   39.5534   28.0100   43.3752 O   0  0  0  0  0  0  0  0  0  0  0  0
   40.0945   26.7890   42.8512 C   0  0  0  0  0  0  0  0  0  0  0  0
   39.3660   26.2650   41.6018 C   0  0  0  0  0  0  0  0  0  0  0  0
  1  2  1  0
  2  3  2  0
  3  4  1  0
  4  5  2  0
  5 24  1  0
 24 25  2  0
 24 26  1  0
 26 28  1  0
 28 29  2  0
 29 30  1  0
 30 31  1  0
 30 32  2  0
 32 33  1  0
 33 35  1  0
 35 36  1  0
 36 37  1  0
 37 38  1  0
 38 39  1  0
 39 40  1  0
 33 34  2  0
  5  6  1  0
  6  7  2  0
  7  8  1  0
  8  9  2  0
  9 10  1  0
 10 11  2  0
 11 12  1  0
 12 17  1  0
 17 18  1  0
 18 19  1  0
 19 20  1  0
 20 21  1  0
 21 22  1  0
 12 13  2  0
 13 14  1  0
 14 15  1  0
 15 16  2  0
  7  2  1  0
 16  8  1  0
 34 28  1  0
 15 11  1  0
 40 35  1  0
 22 17  1  0
 26 27  1  0
 20 23  1  0
M  END
> <minimizedAffinity>
-14.23595

> <CNNscore>
0.9797819257

> <CNNaffinity>
8.4476251602

> <CNN_VS>
8.2768306732

> <CNNaffinity_variance>
0.3637330532

$$$$



 40 45  0  0  0  0  0  0  0  0999 V2000
   39.6049   32.9717   30.7189 C   0  0  0  0  0  0  0  0  0  0  0  0
   39.7881   32.0858   31.9247 C   0  0  0  0  0  0  0  0  0  0  0  0
   38.6508   31.4960   32.5052 C   0  0  0  0  0  0  0  0  0  0  0  0
   38.7606   30.6903   33.6394 C   0  0  0  0  0  0  0  0  0  0  0  0
   40.0145   30.4646   34.2116 C   0  0  0  0  0  0  0  0  0  0  0  0
   41.1576   31.0133   33.6167 C   0  0  0  0  0  0  0  0  0  0  0  0
   41.0670   31.8284   32.4721 C   0  0  0  0  0  0  0  0  0  0  0  0
   42.3031   32.3916   31.9004 C   0  0  0  0  0  0  0  0  0  0  0  0
   43.0392   31.6766   30.9366 C   0  0  0  0  0  0  0  0  0  0  0  0
   44.2157   32.1904   30.3641 C   0  0  0  0  0  0  0  0  0  0  0  0
   44.6694   33.4508   30.7871 C   0  0  0  0  0  0  0  0  0  0  0  0
   45.7499   34.3320   30.5031 C   0  0  0  0  0  0  0  0  0  0  0  0
   45.6708   35.4512   31.2400 N   0  0  0  0  0  0  0  0  0  0  0  0
   44.5344   35.3151   32.0163 O   0  0  0  0  0  0  0  0  0  0  0  0
   43.9357   34.1273   31.7440 C   0  0  0  0  0  0  0  0  0  0  0  0
   42.7625   33.6514   32.3244 C   0  0  0  0  0  0  0  0  0  0  0  0
   46.8824   34.1740   29.5321 C   0  0  0  0  0  0  0  0  0  0  0  0
   47.5806   32.8059   29.6668 C   0  0  0  0  0  0  0  0  0  0  0  0
   49.0903   32.8937   29.4448 C   0  0  0  0  0  0  0  0  0  0  0  0
   49.4149   33.7650   28.3212 N   0  0  0  0  0  0  0  0  0  0  0  0
   48.9856   35.1498   28.5414 C   0  0  0  0  0  0  0  0  0  0  0  0
   47.8950   35.3233   29.6031 C   0  0  0  0  0  0  0  0  0  0  0  0
   48.9512   33.4078   27.4858 H   0  0  0  0  0  0  0  0  0  0  0  0
   40.1797   29.6379   35.4406 C   0  0  0  0  0  0  0  0  0  0  0  0
   41.0303   29.9735   36.2556 O   0  0  0  0  0  0  0  0  0  0  0  0
   39.2938   28.5802   35.5493 N   0  0  0  0  0  0  0  0  0  0  0  0
   38.6456   28.4781   34.8153 H   0  0  0  0  0  0  0  0  0  0  0  0
   39.2120   27.6302   36.5918 C   0  0  0  0  0  0  0  0  0  0  0  0
   39.3554   28.1043   37.8955 C   0  0  0  0  0  0  0  0  0  0  0  0
   39.2849   27.2160   38.9628 C   0  0  0  0  0  0  0  0  0  0  0  0
   39.4722   27.8056   40.5709 Cl  0  0  0  0  0  0  0  0  0  0  0  0
   39.0699   25.8548   38.7467 C   0  0  0  0  0  0  0  0  0  0  0  0
   38.9165   25.3375   37.4531 C   0  0  0  0  0  0  0  0  0  0  0  0
   38.9887   26.2616   36.3899 C   0  0  0  0  0  0  0  0  0  0  0  0
   38.7101   23.9863   37.2294 N   0  0  0  0  0  0  0  0  0  0  0  0
   37.3661   23.3998   37.1064 C   0  0  0  0  0  0  0  0  0  0  0  0
   37.4155   22.1497   36.2098 C   0  0  0  0  0  0  0  0  0  0  0  0
   38.2904   21.1194   36.6893 O   0  0  0  0  0  0  0  0  0  0  0  0
   39.3886   21.6219   37.4637 C   0  0  0  0  0  0  0  0  0  0  0  0
   39.8332   23.0420   37.0742 C   0  0  0  0  0  0  0  0  0  0  0  0
  1  2  1  0
  2  3  2  0
  3  4  1  0
  4  5  2  0
  5 24  1  0
 24 25  2  0
 24 26  1  0
 26 28  1  0
 28 29  2  0
 29 30  1  0
 30 31  1  0
 30 32  2  0
 32 33  1  0
 33 35  1  0
 35 36  1  0
 36 37  1  0
 37 38  1  0
 38 39  1  0
 39 40  1  0
 33 34  2  0
  5  6  1  0
  6  7  2  0
  7  8  1  0
  8  9  2  0
  9 10  1  0
 10 11  2  0
 11 12  1  0
 12 17  1  0
 17 18  1  0
 18 19  1  0
 19 20  1  0
 20 21  1  0
 21 22  1  0
 12 13  2  0
 13 14  1  0
 14 15  1  0
 15 16  2  0
  7  2  1  0
 16  8  1  0
 34 28  1  0
 15 11  1  0
 40 35  1  0
 22 17  1  0
 26 27  1  0
 20 23  1  0
M  END
> <minimizedAffinity>
-14.18168

> <CNNscore>
0.9780706763

> <CNNaffinity>
8.3992109299

> <CNN_VS>
8.2150220871

> <CNNaffinity_variance>
0.1474554390

$$$$



 40 45  0  0  0  0  0  0  0  0999 V2000
   39.8828   32.9538   30.6148 C   0  0  0  0  0  0  0  0  0  0  0  0
   40.0122   32.0889   31.8427 C   0  0  0  0  0  0  0  0  0  0  0  0
   38.8483   31.5202   32.3906 C   0  0  0  0  0  0  0  0  0  0  0  0
   38.9078   30.7348   33.5427 C   0  0  0  0  0  0  0  0  0  0  0  0
   40.1371   30.5087   34.1657 C   0  0  0  0  0  0  0  0  0  0  0  0
   41.3069   31.0360   33.6045 C   0  0  0  0  0  0  0  0  0  0  0  0
   41.2671   31.8304   32.4425 C   0  0  0  0  0  0  0  0  0  0  0  0
   42.5292   32.3718   31.9075 C   0  0  0  0  0  0  0  0  0  0  0  0
   43.0217   33.6146   32.3490 C   0  0  0  0  0  0  0  0  0  0  0  0
   44.2271   34.1534   31.8668 C   0  0  0  0  0  0  0  0  0  0  0  0
   44.9453   33.4268   30.9026 C   0  0  0  0  0  0  0  0  0  0  0  0
   46.1540   33.5633   30.1643 C   0  0  0  0  0  0  0  0  0  0  0  0
   46.3486   32.5125   29.3520 N   0  0  0  0  0  0  0  0  0  0  0  0
   45.2670   31.6740   29.5503 O   0  0  0  0  0  0  0  0  0  0  0  0
   44.4340   32.2151   30.4760 C   0  0  0  0  0  0  0  0  0  0  0  0
   43.2488   31.6491   30.9391 C   0  0  0  0  0  0  0  0  0  0  0  0
   47.1744   34.6625   30.1958 C   0  0  0  0  0  0  0  0  0  0  0  0
   47.1615   35.5084   28.9068 C   0  0  0  0  0  0  0  0  0  0  0  0
   48.5602   35.9610   28.4883 C   0  0  0  0  0  0  0  0  0  0  0  0
   49.3444   36.4018   29.6362 N   0  0  0  0  0  0  0  0  0  0  0  0
   49.5713   35.3273   30.6080 C   0  0  0  0  0  0  0  0  0  0  0  0
   48.5869   34.1574   30.5140 C   0  0  0  0  0  0  0  0  0  0  0  0
   48.8467   37.1621   30.0996 H   0  0  0  0  0  0  0  0  0  0  0  0
   40.2481   29.7036   35.4150 C   0  0  0  0  0  0  0  0  0  0  0  0
   41.0053   30.0974   36.2937 O   0  0  0  0  0  0  0  0  0  0  0  0
   39.4219   28.5944   35.4633 N   0  0  0  0  0  0  0  0  0  0  0  0
   38.8451   28.4467   34.6792 H   0  0  0  0  0  0  0  0  0  0  0  0
   39.3104   27.6495   36.5078 C   0  0  0  0  0  0  0  0  0  0  0  0
   39.4591   28.1234   37.8110 C   0  0  0  0  0  0  0  0  0  0  0  0
   39.3602   27.2400   38.8802 C   0  0  0  0  0  0  0  0  0  0  0  0
   39.5542   27.8289   40.4877 Cl  0  0  0  0  0  0  0  0  0  0  0  0
   39.1117   25.8841   38.6664 C   0  0  0  0  0  0  0  0  0  0  0  0
   38.9520   25.3674   37.3733 C   0  0  0  0  0  0  0  0  0  0  0  0
   39.0533   26.2865   36.3082 C   0  0  0  0  0  0  0  0  0  0  0  0
   38.7124   24.0214   37.1520 N   0  0  0  0  0  0  0  0  0  0  0  0
   37.3540   23.4658   37.0433 C   0  0  0  0  0  0  0  0  0  0  0  0
   37.3653   22.2151   36.1463 C   0  0  0  0  0  0  0  0  0  0  0  0
   38.2214   21.1649   36.6166 O   0  0  0  0  0  0  0  0  0  0  0  0
   39.3389   21.6420   37.3792 C   0  0  0  0  0  0  0  0  0  0  0  0
   39.8118   23.0517   36.9849 C   0  0  0  0  0  0  0  0  0  0  0  0
  1  2  1  0
  2  3  2  0
  3  4  1  0
  4  5  2  0
  5 24  1  0
 24 25  2  0
 24 26  1  0
 26 28  1  0
 28 29  2  0
 29 30  1  0
 30 31  1  0
 30 32  2  0
 32 33  1  0
 33 35  1  0
 35 36  1  0
 36 37  1  0
 37 38  1  0
 38 39  1  0
 39 40  1  0
 33 34  2  0
  5  6  1  0
  6  7  2  0
  7  8  1  0
  8  9  2  0
  9 10  1  0
 10 11  2  0
 11 12  1  0
 12 17  1  0
 17 18  1  0
 18 19  1  0
 19 20  1  0
 20 21  1  0
 21 22  1  0
 12 13  2  0
 13 14  1  0
 14 15  1  0
 15 16  2  0
  7  2  1  0
 16  8  1  0
 34 28  1  0
 15 11  1  0
 40 35  1  0
 22 17  1  0
 26 27  1  0
 20 23  1  0
M  END
> <minimizedAffinity>
-13.55844

> <CNNscore>
0.9345483184

> <CNNaffinity>
8.0885248184

> <CNN_VS>
7.5591173172

> <CNNaffinity_variance>
0.2047130316

$$$$



 40 45  0  0  0  0  0  0  0  0999 V2000
   40.4350   32.2791   30.1135 C   0  0  0  0  0  0  0  0  0  0  0  0
   40.3151   31.6094   31.4587 C   0  0  0  0  0  0  0  0  0  0  0  0
   39.0895   31.6910   32.1438 C   0  0  0  0  0  0  0  0  0  0  0  0
   38.9328   31.1134   33.4046 C   0  0  0  0  0  0  0  0  0  0  0  0
   40.0052   30.4453   33.9999 C   0  0  0  0  0  0  0  0  0  0  0  0
   41.2167   30.3227   33.3080 C   0  0  0  0  0  0  0  0  0  0  0  0
   41.3937   30.8984   32.0352 C   0  0  0  0  0  0  0  0  0  0  0  0
   42.6968   30.7505   31.3628 C   0  0  0  0  0  0  0  0  0  0  0  0
   43.2539   29.4755   31.1488 C   0  0  0  0  0  0  0  0  0  0  0  0
   44.4890   29.3000   30.5011 C   0  0  0  0  0  0  0  0  0  0  0  0
   45.1871   30.4414   30.0730 C   0  0  0  0  0  0  0  0  0  0  0  0
   46.4068   30.7421   29.4046 C   0  0  0  0  0  0  0  0  0  0  0  0
   46.5645   32.0665   29.2540 N   0  0  0  0  0  0  0  0  0  0  0  0
   45.4469   32.6492   29.8230 O   0  0  0  0  0  0  0  0  0  0  0  0
   44.6248   31.6828   30.3064 C   0  0  0  0  0  0  0  0  0  0  0  0
   43.4004   31.8912   30.9364 C   0  0  0  0  0  0  0  0  0  0  0  0
   47.4587   29.8147   28.8720 C   0  0  0  0  0  0  0  0  0  0  0  0
   46.9085   28.3993   28.6049 C   0  0  0  0  0  0  0  0  0  0  0  0
   47.9245   27.3044   28.9291 C   0  0  0  0  0  0  0  0  0  0  0  0
   49.2604   27.6616   28.4657 N   0  0  0  0  0  0  0  0  0  0  0  0
   49.7806   28.8646   29.1234 C   0  0  0  0  0  0  0  0  0  0  0  0
   48.7131   29.7655   29.7524 C   0  0  0  0  0  0  0  0  0  0  0  0
   49.2239   27.8285   27.4601 H   0  0  0  0  0  0  0  0  0  0  0  0
   39.8970   29.8395   35.3574 C   0  0  0  0  0  0  0  0  0  0  0  0
   40.0368   30.5693   36.3312 O   0  0  0  0  0  0  0  0  0  0  0  0
   39.5935   28.4893   35.3654 N   0  0  0  0  0  0  0  0  0  0  0  0
   39.4767   28.0641   34.4851 H   0  0  0  0  0  0  0  0  0  0  0  0
   39.4319   27.6505   36.4907 C   0  0  0  0  0  0  0  0  0  0  0  0
   39.0177   26.3405   36.2518 C   0  0  0  0  0  0  0  0  0  0  0  0
   38.8408   25.4687   37.3204 C   0  0  0  0  0  0  0  0  0  0  0  0
   38.3197   23.8540   37.0204 Cl  0  0  0  0  0  0  0  0  0  0  0  0
   39.0747   25.8870   38.6304 C   0  0  0  0  0  0  0  0  0  0  0  0
   39.4957   27.1934   38.9141 C   0  0  0  0  0  0  0  0  0  0  0  0
   39.6707   28.0549   37.8110 C   0  0  0  0  0  0  0  0  0  0  0  0
   39.7230   27.6190   40.2123 N   0  0  0  0  0  0  0  0  0  0  0  0
   39.1482   26.9359   41.3822 C   0  0  0  0  0  0  0  0  0  0  0  0
   40.0602   27.1285   42.6070 C   0  0  0  0  0  0  0  0  0  0  0  0
   40.2694   28.4997   42.9716 O   0  0  0  0  0  0  0  0  0  0  0  0
   40.1808   29.4025   41.8602 C   0  0  0  0  0  0  0  0  0  0  0  0
   40.5830   28.7798   40.5122 C   0  0  0  0  0  0  0  0  0  0  0  0
  1  2  1  0
  2  3  2  0
  3  4  1  0
  4  5  2  0
  5 24  1  0
 24 25  2  0
 24 26  1  0
 26 28  1  0
 28 29  2  0
 29 30  1  0
 30 31  1  0
 30 32  2  0
 32 33  1  0
 33 35  1  0
 35 36  1  0
 36 37  1  0
 37 38  1  0
 38 39  1  0
 39 40  1  0
 33 34  2  0
  5  6  1  0
  6  7  2  0
  7  8  1  0
  8  9  2  0
  9 10  1  0
 10 11  2  0
 11 12  1  0
 12 17  1  0
 17 18  1  0
 18 19  1  0
 19 20  1  0
 20 21  1  0
 21 22  1  0
 12 13  2  0
 13 14  1  0
 14 15  1  0
 15 16  2  0
  7  2  1  0
 16  8  1  0
 34 28  1  0
 15 11  1  0
 40 35  1  0
 22 17  1  0
 26 27  1  0
 20 23  1  0
M  END
> <minimizedAffinity>
-12.18511

> <CNNscore>
0.8265463114

> <CNNaffinity>
8.0225915909

> <CNN_VS>
6.6310434341

> <CNNaffinity_variance>
0.2600367367

$$$$



 40 45  0  0  0  0  0  0  0  0999 V2000
   40.6244   32.2251   29.7838 C   0  0  0  0  0  0  0  0  0  0  0  0
   40.4140   31.6305   31.1529 C   0  0  0  0  0  0  0  0  0  0  0  0
   39.1605   31.7905   31.7704 C   0  0  0  0  0  0  0  0  0  0  0  0
   38.9211   31.2846   33.0489 C   0  0  0  0  0  0  0  0  0  0  0  0
   39.9373   30.6110   33.7302 C   0  0  0  0  0  0  0  0  0  0  0  0
   41.1755   30.4102   33.1073 C   0  0  0  0  0  0  0  0  0  0  0  0
   41.4358   30.9127   31.8179 C   0  0  0  0  0  0  0  0  0  0  0  0
   42.7635   30.6846   31.2203 C   0  0  0  0  0  0  0  0  0  0  0  0
   43.2730   29.3798   31.0794 C   0  0  0  0  0  0  0  0  0  0  0  0
   44.5304   29.1278   30.5039 C   0  0  0  0  0  0  0  0  0  0  0  0
   45.3000   30.2218   30.0744 C   0  0  0  0  0  0  0  0  0  0  0  0
   46.5644   30.4451   29.4612 C   0  0  0  0  0  0  0  0  0  0  0  0
   46.7890   31.7552   29.2740 N   0  0  0  0  0  0  0  0  0  0  0  0
   45.6710   32.4058   29.7633 O   0  0  0  0  0  0  0  0  0  0  0  0
   44.7829   31.4939   30.2355 C   0  0  0  0  0  0  0  0  0  0  0  0
   43.5385   31.7776   30.7929 C   0  0  0  0  0  0  0  0  0  0  0  0
   47.5994   29.4546   29.0164 C   0  0  0  0  0  0  0  0  0  0  0  0
   46.9820   28.0910   28.6468 C   0  0  0  0  0  0  0  0  0  0  0  0
   47.8749   26.9159   29.0443 C   0  0  0  0  0  0  0  0  0  0  0  0
   49.2759   27.1831   28.7396 N   0  0  0  0  0  0  0  0  0  0  0  0
   49.8054   28.3281   29.4874 C   0  0  0  0  0  0  0  0  0  0  0  0
   48.7424   29.2911   30.0254 C   0  0  0  0  0  0  0  0  0  0  0  0
   49.3626   27.3759   27.7418 H   0  0  0  0  0  0  0  0  0  0  0  0
   39.7406   30.0803   35.1090 C   0  0  0  0  0  0  0  0  0  0  0  0
   39.6460   30.8813   36.0309 O   0  0  0  0  0  0  0  0  0  0  0  0
   39.6350   28.7028   35.1886 N   0  0  0  0  0  0  0  0  0  0  0  0
   39.6962   28.2115   34.3377 H   0  0  0  0  0  0  0  0  0  0  0  0
   39.4494   27.9199   36.3501 C   0  0  0  0  0  0  0  0  0  0  0  0
   39.7458   28.5195   37.5738 C   0  0  0  0  0  0  0  0  0  0  0  0
   39.5834   27.7980   38.7512 C   0  0  0  0  0  0  0  0  0  0  0  0
   39.9601   28.5403   40.2598 Cl  0  0  0  0  0  0  0  0  0  0  0  0
   39.1249   26.4808   38.7248 C   0  0  0  0  0  0  0  0  0  0  0  0
   38.8118   25.8421   37.5171 C   0  0  0  0  0  0  0  0  0  0  0  0
   38.9823   26.5988   36.3390 C   0  0  0  0  0  0  0  0  0  0  0  0
   38.3632   24.5323   37.4815 N   0  0  0  0  0  0  0  0  0  0  0  0
   36.9380   24.1799   37.5836 C   0  0  0  0  0  0  0  0  0  0  0  0
   36.6665   22.8582   36.8431 C   0  0  0  0  0  0  0  0  0  0  0  0
   37.4201   21.7434   37.3394 O   0  0  0  0  0  0  0  0  0  0  0  0
   38.6777   22.1206   37.9178 C   0  0  0  0  0  0  0  0  0  0  0  0
   39.2892   23.3960   37.3131 C   0  0  0  0  0  0  0  0  0  0  0  0
  1  2  1  0
  2  3  2  0
  3  4  1  0
  4  5  2  0
  5 24  1  0
 24 25  2  0
 24 26  1  0
 26 28  1  0
 28 29  2  0
 29 30  1  0
 30 31  1  0
 30 32  2  0
 32 33  1  0
 33 35  1  0
 35 36  1  0
 36 37  1  0
 37 38  1  0
 38 39  1  0
 39 40  1  0
 33 34  2  0
  5  6  1  0
  6  7  2  0
  7  8  1  0
  8  9  2  0
  9 10  1  0
 10 11  2  0
 11 12  1  0
 12 17  1  0
 17 18  1  0
 18 19  1  0
 19 20  1  0
 20 21  1  0
 21 22  1  0
 12 13  2  0
 13 14  1  0
 14 15  1  0
 15 16  2  0
  7  2  1  0
 16  8  1  0
 34 28  1  0
 15 11  1  0
 40 35  1  0
 22 17  1  0
 26 27  1  0
 20 23  1  0
M  END
> <minimizedAffinity>
-11.88161

> <CNNscore>
0.6944510937

> <CNNaffinity>
7.8700294495

> <CNN_VS>
5.4653506279

> <CNNaffinity_variance>
0.1828325540

$$$$



 40 45  0  0  0  0  0  0  0  0999 V2000
   37.9580   31.4530   32.2799 C   0  0  0  0  0  0  0  0  0  0  0  0
   39.3980   31.8726   32.1281 C   0  0  0  0  0  0  0  0  0  0  0  0
   39.7334   32.7635   31.0927 C   0  0  0  0  0  0  0  0  0  0  0  0
   41.0554   33.1622   30.8899 C   0  0  0  0  0  0  0  0  0  0  0  0
   42.0637   32.6713   31.7223 C   0  0  0  0  0  0  0  0  0  0  0  0
   41.7342   31.8166   32.7818 C   0  0  0  0  0  0  0  0  0  0  0  0
   40.4063   31.4036   33.0025 C   0  0  0  0  0  0  0  0  0  0  0  0
   40.1228   30.4896   34.1235 C   0  0  0  0  0  0  0  0  0  0  0  0
   39.3738   29.3151   33.9204 C   0  0  0  0  0  0  0  0  0  0  0  0
   39.0954   28.4176   34.9658 C   0  0  0  0  0  0  0  0  0  0  0  0
   39.5714   28.7216   36.2520 C   0  0  0  0  0  0  0  0  0  0  0  0
   39.5422   28.1419   37.5512 C   0  0  0  0  0  0  0  0  0  0  0  0
   40.1946   28.9077   38.4398 N   0  0  0  0  0  0  0  0  0  0  0  0
   40.6600   29.9999   37.7304 O   0  0  0  0  0  0  0  0  0  0  0  0
   40.2936   29.8875   36.4280 C   0  0  0  0  0  0  0  0  0  0  0  0
   40.5943   30.7929   35.4133 C   0  0  0  0  0  0  0  0  0  0  0  0
   38.9220   26.8554   38.0101 C   0  0  0  0  0  0  0  0  0  0  0  0
   39.4066   26.4418   39.4142 C   0  0  0  0  0  0  0  0  0  0  0  0
   39.5688   24.9286   39.5564 C   0  0  0  0  0  0  0  0  0  0  0  0
   38.4627   24.2122   38.9316 N   0  0  0  0  0  0  0  0  0  0  0  0
   38.3848   24.4483   37.4864 C   0  0  0  0  0  0  0  0  0  0  0  0
   39.1006   25.7134   37.0026 C   0  0  0  0  0  0  0  0  0  0  0  0
   37.5900   24.5197   39.3607 H   0  0  0  0  0  0  0  0  0  0  0  0
   43.4938   33.0426   31.5266 C   0  0  0  0  0  0  0  0  0  0  0  0
   44.0164   33.7897   32.3446 O   0  0  0  0  0  0  0  0  0  0  0  0
   44.1024   32.4448   30.4369 N   0  0  0  0  0  0  0  0  0  0  0  0
   43.5406   31.8370   29.9037 H   0  0  0  0  0  0  0  0  0  0  0  0
   45.4367   32.6058   30.0012 C   0  0  0  0  0  0  0  0  0  0  0  0
   45.8634   33.9055   29.7299 C   0  0  0  0  0  0  0  0  0  0  0  0
   47.1662   34.1262   29.2970 C   0  0  0  0  0  0  0  0  0  0  0  0
   47.6854   35.7328   28.9542 Cl  0  0  0  0  0  0  0  0  0  0  0  0
   48.0542   33.0631   29.1323 C   0  0  0  0  0  0  0  0  0  0  0  0
   47.6673   31.7424   29.3976 C   0  0  0  0  0  0  0  0  0  0  0  0
   46.3417   31.5483   29.8388 C   0  0  0  0  0  0  0  0  0  0  0  0
   48.5405   30.6805   29.2295 N   0  0  0  0  0  0  0  0  0  0  0  0
   49.9983   30.8601   29.1395 C   0  0  0  0  0  0  0  0  0  0  0  0
   50.7183   29.6008   29.6540 C   0  0  0  0  0  0  0  0  0  0  0  0
   50.3890   28.4036   28.9364 O   0  0  0  0  0  0  0  0  0  0  0  0
   49.0713   28.4257   28.3695 C   0  0  0  0  0  0  0  0  0  0  0  0
   48.0653   29.2858   29.1534 C   0  0  0  0  0  0  0  0  0  0  0  0
  1  2  1  0
  2  3  2  0
  3  4  1  0
  4  5  2  0
  5 24  1  0
 24 25  2  0
 24 26  1  0
 26 28  1  0
 28 29  2  0
 29 30  1  0
 30 31  1  0
 30 32  2  0
 32 33  1  0
 33 35  1  0
 35 36  1  0
 36 37  1  0
 37 38  1  0
 38 39  1  0
 39 40  1  0
 33 34  2  0
  5  6  1  0
  6  7  2  0
  7  8  1  0
  8  9  2  0
  9 10  1  0
 10 11  2  0
 11 12  1  0
 12 17  1  0
 17 18  1  0
 18 19  1  0
 19 20  1  0
 20 21  1  0
 21 22  1  0
 12 13  2  0
 13 14  1  0
 14 15  1  0
 15 16  2  0
  7  2  1  0
 16  8  1  0
 34 28  1  0
 15 11  1  0
 40 35  1  0
 22 17  1  0
 26 27  1  0
 20 23  1  0
M  END
> <minimizedAffinity>
-10.18107

> <CNNscore>
0.6690075994

> <CNNaffinity>
8.0676994324

> <CNN_VS>
5.3973522186

> <CNNaffinity_variance>
0.0673308298

$$$$



 40 45  0  0  0  0  0  0  0  0999 V2000
   37.7608   31.2699   32.8372 C   0  0  0  0  0  0  0  0  0  0  0  0
   39.2039   31.5406   32.4956 C   0  0  0  0  0  0  0  0  0  0  0  0
   39.4906   32.3774   31.4021 C   0  0  0  0  0  0  0  0  0  0  0  0
   40.8088   32.6383   31.0251 C   0  0  0  0  0  0  0  0  0  0  0  0
   41.8618   32.0615   31.7386 C   0  0  0  0  0  0  0  0  0  0  0  0
   41.5875   31.2605   32.8542 C   0  0  0  0  0  0  0  0  0  0  0  0
   40.2644   30.9861   33.2501 C   0  0  0  0  0  0  0  0  0  0  0  0
   40.0374   30.1224   34.4226 C   0  0  0  0  0  0  0  0  0  0  0  0
   39.3810   28.8846   34.2863 C   0  0  0  0  0  0  0  0  0  0  0  0
   39.1588   28.0331   35.3824 C   0  0  0  0  0  0  0  0  0  0  0  0
   39.5961   28.4491   36.6510 C   0  0  0  0  0  0  0  0  0  0  0  0
   39.5955   27.9480   37.9827 C   0  0  0  0  0  0  0  0  0  0  0  0
   40.1786   28.8130   38.8275 N   0  0  0  0  0  0  0  0  0  0  0  0
   40.5688   29.8925   38.0563 O   0  0  0  0  0  0  0  0  0  0  0  0
   40.2266   29.6746   36.7606 C   0  0  0  0  0  0  0  0  0  0  0  0
   40.4702   30.5375   35.6948 C   0  0  0  0  0  0  0  0  0  0  0  0
   39.0685   26.6482   38.5149 C   0  0  0  0  0  0  0  0  0  0  0  0
   39.6406   26.3120   39.9066 C   0  0  0  0  0  0  0  0  0  0  0  0
   39.8911   24.8156   40.0918 C   0  0  0  0  0  0  0  0  0  0  0  0
   38.7972   24.0198   39.5467 N   0  0  0  0  0  0  0  0  0  0  0  0
   38.6384   24.1988   38.0999 C   0  0  0  0  0  0  0  0  0  0  0  0
   39.2609   25.4812   37.5390 C   0  0  0  0  0  0  0  0  0  0  0  0
   37.9303   24.2965   40.0075 H   0  0  0  0  0  0  0  0  0  0  0  0
   43.2849   32.2844   31.3558 C   0  0  0  0  0  0  0  0  0  0  0  0
   43.8639   33.2600   31.8177 O   0  0  0  0  0  0  0  0  0  0  0  0
   43.8227   31.3081   30.5356 N   0  0  0  0  0  0  0  0  0  0  0  0
   43.2225   30.5677   30.2888 H   0  0  0  0  0  0  0  0  0  0  0  0
   45.1335   31.2510   30.0114 C   0  0  0  0  0  0  0  0  0  0  0  0
   45.6393   29.9886   29.7028 C   0  0  0  0  0  0  0  0  0  0  0  0
   46.9240   29.8696   29.1844 C   0  0  0  0  0  0  0  0  0  0  0  0
   47.5477   28.3069   28.8137 Cl  0  0  0  0  0  0  0  0  0  0  0  0
   47.7141   30.9983   28.9664 C   0  0  0  0  0  0  0  0  0  0  0  0
   47.2428   32.2855   29.2591 C   0  0  0  0  0  0  0  0  0  0  0  0
   45.9352   32.3768   29.7800 C   0  0  0  0  0  0  0  0  0  0  0  0
   48.0235   33.4107   29.0526 N   0  0  0  0  0  0  0  0  0  0  0  0
   47.4568   34.7673   28.9882 C   0  0  0  0  0  0  0  0  0  0  0  0
   48.5010   35.7983   29.4527 C   0  0  0  0  0  0  0  0  0  0  0  0
   49.7071   35.8006   28.6767 O   0  0  0  0  0  0  0  0  0  0  0  0
   50.0110   34.5245   28.0959 C   0  0  0  0  0  0  0  0  0  0  0  0
   49.4893   33.3258   28.9066 C   0  0  0  0  0  0  0  0  0  0  0  0
  1  2  1  0
  2  3  2  0
  3  4  1  0
  4  5  2  0
  5 24  1  0
 24 25  2  0
 24 26  1  0
 26 28  1  0
 28 29  2  0
 29 30  1  0
 30 31  1  0
 30 32  2  0
 32 33  1  0
 33 35  1  0
 35 36  1  0
 36 37  1  0
 37 38  1  0
 38 39  1  0
 39 40  1  0
 33 34  2  0
  5  6  1  0
  6  7  2  0
  7  8  1  0
  8  9  2  0
  9 10  1  0
 10 11  2  0
 11 12  1  0
 12 17  1  0
 17 18  1  0
 18 19  1  0
 19 20  1  0
 20 21  1  0
 21 22  1  0
 12 13  2  0
 13 14  1  0
 14 15  1  0
 15 16  2  0
  7  2  1  0
 16  8  1  0
 34 28  1  0
 15 11  1  0
 40 35  1  0
 22 17  1  0
 26 27  1  0
 20 23  1  0
M  END
> <minimizedAffinity>
-10.00402

> <CNNscore>
0.6616472006

> <CNNaffinity>
8.1531486511

> <CNN_VS>
5.3945078850

> <CNNaffinity_variance>
0.0223646108

$$$$



 40 45  0  0  0  0  0  0  0  0999 V2000
   37.8667   31.1421   32.6973 C   0  0  0  0  0  0  0  0  0  0  0  0
   39.2950   31.5229   32.4017 C   0  0  0  0  0  0  0  0  0  0  0  0
   39.5622   32.2940   31.2562 C   0  0  0  0  0  0  0  0  0  0  0  0
   40.8691   32.6502   30.9203 C   0  0  0  0  0  0  0  0  0  0  0  0
   41.9306   32.2364   31.7281 C   0  0  0  0  0  0  0  0  0  0  0  0
   41.6713   31.5037   32.8933 C   0  0  0  0  0  0  0  0  0  0  0  0
   40.3596   31.1351   33.2489 C   0  0  0  0  0  0  0  0  0  0  0  0
   40.1501   30.3495   34.4781 C   0  0  0  0  0  0  0  0  0  0  0  0
   40.3457   30.9319   35.7447 C   0  0  0  0  0  0  0  0  0  0  0  0
   40.1439   30.2133   36.9357 C   0  0  0  0  0  0  0  0  0  0  0  0
   39.7501   28.8678   36.8456 C   0  0  0  0  0  0  0  0  0  0  0  0
   39.4391   27.7989   37.7319 C   0  0  0  0  0  0  0  0  0  0  0  0
   39.1092   26.6873   37.0556 N   0  0  0  0  0  0  0  0  0  0  0  0
   39.2002   27.0170   35.7156 O   0  0  0  0  0  0  0  0  0  0  0  0
   39.5770   28.3153   35.5900 C   0  0  0  0  0  0  0  0  0  0  0  0
   39.7598   29.0010   34.3917 C   0  0  0  0  0  0  0  0  0  0  0  0
   39.4238   27.7744   39.2317 C   0  0  0  0  0  0  0  0  0  0  0  0
   40.1945   28.9616   39.8431 C   0  0  0  0  0  0  0  0  0  0  0  0
   40.9444   28.5794   41.1189 C   0  0  0  0  0  0  0  0  0  0  0  0
   40.1349   27.7221   41.9773 N   0  0  0  0  0  0  0  0  0  0  0  0
   39.7998   26.4444   41.3404 C   0  0  0  0  0  0  0  0  0  0  0  0
   39.9079   26.4403   39.8123 C   0  0  0  0  0  0  0  0  0  0  0  0
   39.2691   28.2111   42.2048 H   0  0  0  0  0  0  0  0  0  0  0  0
   43.3457   32.5645   31.3947 C   0  0  0  0  0  0  0  0  0  0  0  0
   43.8770   33.5011   31.9786 O   0  0  0  0  0  0  0  0  0  0  0  0
   43.9331   31.7183   30.4706 N   0  0  0  0  0  0  0  0  0  0  0  0
   43.3684   30.9881   30.1283 H   0  0  0  0  0  0  0  0  0  0  0  0
   45.2496   31.7812   29.9615 C   0  0  0  0  0  0  0  0  0  0  0  0
   45.7819   33.0498   29.7330 C   0  0  0  0  0  0  0  0  0  0  0  0
   47.0728   33.1746   29.2319 C   0  0  0  0  0  0  0  0  0  0  0  0
   47.7223   34.7439   28.9423 Cl  0  0  0  0  0  0  0  0  0  0  0  0
   47.8448   32.0458   28.9564 C   0  0  0  0  0  0  0  0  0  0  0  0
   47.3497   30.7530   29.1753 C   0  0  0  0  0  0  0  0  0  0  0  0
   46.0390   30.6563   29.6876 C   0  0  0  0  0  0  0  0  0  0  0  0
   48.1067   29.6270   28.8975 N   0  0  0  0  0  0  0  0  0  0  0  0
   49.5510   29.6913   28.6228 C   0  0  0  0  0  0  0  0  0  0  0  0
   50.2273   28.3736   29.0415 C   0  0  0  0  0  0  0  0  0  0  0  0
   49.7150   27.2137   28.3714 O   0  0  0  0  0  0  0  0  0  0  0  0
   48.3421   27.3461   27.9768 C   0  0  0  0  0  0  0  0  0  0  0  0
   47.5156   28.2752   28.8823 C   0  0  0  0  0  0  0  0  0  0  0  0
  1  2  1  0
  2  3  2  0
  3  4  1  0
  4  5  2  0
  5 24  1  0
 24 25  2  0
 24 26  1  0
 26 28  1  0
 28 29  2  0
 29 30  1  0
 30 31  1  0
 30 32  2  0
 32 33  1  0
 33 35  1  0
 35 36  1  0
 36 37  1  0
 37 38  1  0
 38 39  1  0
 39 40  1  0
 33 34  2  0
  5  6  1  0
  6  7  2  0
  7  8  1  0
  8  9  2  0
  9 10  1  0
 10 11  2  0
 11 12  1  0
 12 17  1  0
 17 18  1  0
 18 19  1  0
 19 20  1  0
 20 21  1  0
 21 22  1  0
 12 13  2  0
 13 14  1  0
 14 15  1  0
 15 16  2  0
  7  2  1  0
 16  8  1  0
 34 28  1  0
 15 11  1  0
 40 35  1  0
 22 17  1  0
 26 27  1  0
 20 23  1  0
M  END
> <minimizedAffinity>
-11.43640

> <CNNscore>
0.4587700665

> <CNNaffinity>
7.7756500244

> <CNN_VS>
3.5672354698

> <CNNaffinity_variance>
0.2206933051

$$$$



 40 45  0  0  0  0  0  0  0  0999 V2000
   37.8272   31.2286   32.7681 C   0  0  0  0  0  0  0  0  0  0  0  0
   39.2607   31.5240   32.4071 C   0  0  0  0  0  0  0  0  0  0  0  0
   39.5213   32.2681   31.2423 C   0  0  0  0  0  0  0  0  0  0  0  0
   40.8305   32.5456   30.8466 C   0  0  0  0  0  0  0  0  0  0  0  0
   41.9008   32.0788   31.6129 C   0  0  0  0  0  0  0  0  0  0  0  0
   41.6511   31.3729   32.7965 C   0  0  0  0  0  0  0  0  0  0  0  0
   40.3373   31.0835   33.2123 C   0  0  0  0  0  0  0  0  0  0  0  0
   40.1369   30.3225   34.4584 C   0  0  0  0  0  0  0  0  0  0  0  0
   40.3154   30.9375   35.7120 C   0  0  0  0  0  0  0  0  0  0  0  0
   40.1216   30.2427   36.9184 C   0  0  0  0  0  0  0  0  0  0  0  0
   39.7541   28.8882   36.8577 C   0  0  0  0  0  0  0  0  0  0  0  0
   39.4594   27.8341   37.7670 C   0  0  0  0  0  0  0  0  0  0  0  0
   39.1541   26.7012   37.1152 N   0  0  0  0  0  0  0  0  0  0  0  0
   39.2451   27.0017   35.7684 O   0  0  0  0  0  0  0  0  0  0  0  0
   39.5976   28.3038   35.6145 C   0  0  0  0  0  0  0  0  0  0  0  0
   39.7730   28.9651   34.4014 C   0  0  0  0  0  0  0  0  0  0  0  0
   39.4374   27.8438   39.2670 C   0  0  0  0  0  0  0  0  0  0  0  0
   40.2139   29.0392   39.8547 C   0  0  0  0  0  0  0  0  0  0  0  0
   40.9555   28.6807   41.1423 C   0  0  0  0  0  0  0  0  0  0  0  0
   40.1362   27.8489   42.0163 N   0  0  0  0  0  0  0  0  0  0  0  0
   39.7948   26.5594   41.4070 C   0  0  0  0  0  0  0  0  0  0  0  0
   39.9095   26.5199   39.8799 C   0  0  0  0  0  0  0  0  0  0  0  0
   39.2730   28.3490   42.2287 H   0  0  0  0  0  0  0  0  0  0  0  0
   43.3165   32.3222   31.2153 C   0  0  0  0  0  0  0  0  0  0  0  0
   43.8614   33.3465   31.6080 O   0  0  0  0  0  0  0  0  0  0  0  0
   43.8885   31.3097   30.4651 N   0  0  0  0  0  0  0  0  0  0  0  0
   43.3140   30.5341   30.2707 H   0  0  0  0  0  0  0  0  0  0  0  0
   45.2016   31.2603   29.9460 C   0  0  0  0  0  0  0  0  0  0  0  0
   45.7054   30.0034   29.6121 C   0  0  0  0  0  0  0  0  0  0  0  0
   46.9921   29.8921   29.0973 C   0  0  0  0  0  0  0  0  0  0  0  0
   47.6132   28.3361   28.6953 Cl  0  0  0  0  0  0  0  0  0  0  0  0
   47.7865   31.0230   28.9079 C   0  0  0  0  0  0  0  0  0  0  0  0
   47.3175   32.3048   29.2265 C   0  0  0  0  0  0  0  0  0  0  0  0
   46.0077   32.3885   29.7432 C   0  0  0  0  0  0  0  0  0  0  0  0
   48.1023   33.4320   29.0485 N   0  0  0  0  0  0  0  0  0  0  0  0
   49.5525   33.3581   28.8098 C   0  0  0  0  0  0  0  0  0  0  0  0
   50.0147   34.5735   27.9863 C   0  0  0  0  0  0  0  0  0  0  0  0
   49.7467   35.8380   28.6077 O   0  0  0  0  0  0  0  0  0  0  0  0
   48.6010   35.8150   29.4707 C   0  0  0  0  0  0  0  0  0  0  0  0
   47.5281   34.7911   29.0623 C   0  0  0  0  0  0  0  0  0  0  0  0
  1  2  1  0
  2  3  2  0
  3  4  1  0
  4  5  2  0
  5 24  1  0
 24 25  2  0
 24 26  1  0
 26 28  1  0
 28 29  2  0
 29 30  1  0
 30 31  1  0
 30 32  2  0
 32 33  1  0
 33 35  1  0
 35 36  1  0
 36 37  1  0
 37 38  1  0
 38 39  1  0
 39 40  1  0
 33 34  2  0
  5  6  1  0
  6  7  2  0
  7  8  1  0
  8  9  2  0
  9 10  1  0
 10 11  2  0
 11 12  1  0
 12 17  1  0
 17 18  1  0
 18 19  1  0
 19 20  1  0
 20 21  1  0
 21 22  1  0
 12 13  2  0
 13 14  1  0
 14 15  1  0
 15 16  2  0
  7  2  1  0
 16  8  1  0
 34 28  1  0
 15 11  1  0
 40 35  1  0
 22 17  1  0
 26 27  1  0
 20 23  1  0
M  END
> <minimizedAffinity>
-11.41126

> <CNNscore>
0.3915241361

> <CNNaffinity>
7.8861503601

> <CNN_VS>
3.0876181126

> <CNNaffinity_variance>
0.1406975389

$$$$
