


 22 25  0  0  0  0  0  0  0  0999 V2000
    6.4898   69.5020   65.7809 C   0  0  0  0  0  0  0  0  0  0  0  0
    5.4833   69.1279   64.7331 C   0  0  0  0  0  0  0  0  0  0  0  0
    5.7928   69.0699   63.4236 C   0  0  0  0  0  0  0  0  0  0  0  0
    4.7793   68.7228   62.3473 C   0  0  0  0  0  0  0  0  0  0  0  0
    4.9349   67.2489   61.9409 C   0  0  0  0  0  0  0  0  0  0  0  0
    4.3533   66.2898   62.9547 C   0  0  0  0  0  0  0  0  0  0  0  0
    4.6850   64.9660   62.7711 N   0  0  0  0  0  0  0  0  0  0  0  0
    4.2854   63.9411   63.5814 C   0  0  0  0  0  0  0  0  0  0  0  0
    4.5812   62.7718   63.3693 O   0  0  0  0  0  0  0  0  0  0  0  0
    3.4835   64.3285   64.7527 C   0  0  0  0  0  0  0  0  0  0  0  0
    3.1629   65.6165   64.9443 C   0  0  0  0  0  0  0  0  0  0  0  0
    2.2911   65.9868   66.3979 Cl  0  0  0  0  0  0  0  0  0  0  0  0
    3.5677   66.6647   63.9952 C   0  0  0  0  0  0  0  0  0  0  0  0
    3.1477   68.1525   64.1586 C   0  0  0  0  0  0  0  0  0  0  0  0
    4.0819   68.8139   65.2352 C   0  0  0  0  0  0  0  0  0  0  0  0
    1.7428   68.3554   64.5456 N   0  0  0  0  0  0  0  0  0  0  0  0
    0.7405   67.9017   63.5860 C   0  0  0  0  0  0  0  0  0  0  0  0
    1.2308   67.7404   62.1493 C   0  0  0  0  0  0  0  0  0  0  0  0
    2.2647   68.7908   61.7748 C   0  0  0  0  0  0  0  0  0  0  0  0
    3.3499   68.9901   62.8550 C   0  0  0  0  0  0  0  0  0  0  0  0
    5.2524   64.7413   61.9985 H   0  0  0  0  0  0  0  0  0  0  0  0
    1.6018   69.3546   64.6946 H   0  0  0  0  0  0  0  0  0  0  0  0
  1  2  1  0
  2  3  2  0
  3  4  1  0
  4  5  1  0
  5  6  1  0
  6  7  1  0
  7  8  1  0
  8  9  2  0
  8 10  1  0
 10 11  2  0
 11 12  1  0
 11 13  1  0
 13 14  1  0
 14 15  1  0
 14 16  1  0
 16 17  1  0
 17 18  1  0
 18 19  1  0
 20 19  1  0
 15  2  1  0
 20  4  1  0
 13  6  2  0
 20 14  1  0
  7 21  1  0
 16 22  1  0
M  END
> <minimizedAffinity>
-9.40070

> <CNNscore>
0.9319086075

> <CNNaffinity>
7.4261894226

> <CNN_VS>
6.9205298424

> <CNNaffinity_variance>
0.2819679081

$$$$



 22 25  0  0  0  0  0  0  0  0999 V2000
    3.3576   63.2561   64.4359 C   0  0  0  0  0  0  0  0  0  0  0  0
    3.9624   64.6173   64.2568 C   0  0  0  0  0  0  0  0  0  0  0  0
    4.8727   64.8822   63.3002 C   0  0  0  0  0  0  0  0  0  0  0  0
    5.5170   66.2459   63.1244 C   0  0  0  0  0  0  0  0  0  0  0  0
    4.8259   67.0052   61.9808 C   0  0  0  0  0  0  0  0  0  0  0  0
    3.4786   67.5686   62.3725 C   0  0  0  0  0  0  0  0  0  0  0  0
    2.7087   68.0331   61.3295 N   0  0  0  0  0  0  0  0  0  0  0  0
    1.4550   68.5605   61.4587 C   0  0  0  0  0  0  0  0  0  0  0  0
    0.8118   68.9869   60.5078 O   0  0  0  0  0  0  0  0  0  0  0  0
    0.9036   68.5698   62.8229 C   0  0  0  0  0  0  0  0  0  0  0  0
    1.6428   68.1114   63.8436 C   0  0  0  0  0  0  0  0  0  0  0  0
    0.8758   68.0808   65.3995 Cl  0  0  0  0  0  0  0  0  0  0  0  0
    3.0148   67.6191   63.6463 C   0  0  0  0  0  0  0  0  0  0  0  0
    3.9155   67.1498   64.8232 C   0  0  0  0  0  0  0  0  0  0  0  0
    3.4860   65.6920   65.2227 C   0  0  0  0  0  0  0  0  0  0  0  0
    3.8690   68.0123   66.0142 N   0  0  0  0  0  0  0  0  0  0  0  0
    4.3549   69.3777   65.8378 C   0  0  0  0  0  0  0  0  0  0  0  0
    5.2773   69.5981   64.6414 C   0  0  0  0  0  0  0  0  0  0  0  0
    6.1767   68.3996   64.3822 C   0  0  0  0  0  0  0  0  0  0  0  0
    5.4257   67.0515   64.4340 C   0  0  0  0  0  0  0  0  0  0  0  0
    3.0901   67.9814   60.4233 H   0  0  0  0  0  0  0  0  0  0  0  0
    4.4341   67.5718   66.7402 H   0  0  0  0  0  0  0  0  0  0  0  0
  1  2  1  0
  2  3  2  0
  3  4  1  0
  4  5  1  0
  5  6  1  0
  6  7  1  0
  7  8  1  0
  8  9  2  0
  8 10  1  0
 10 11  2  0
 11 12  1  0
 11 13  1  0
 13 14  1  0
 14 15  1  0
 14 16  1  0
 16 17  1  0
 17 18  1  0
 18 19  1  0
 20 19  1  0
 15  2  1  0
 20  4  1  0
 13  6  2  0
 20 14  1  0
  7 21  1  0
 16 22  1  0
M  END
> <minimizedAffinity>
-10.26950

> <CNNscore>
0.8849136829

> <CNNaffinity>
7.3474326134

> <CNN_VS>
6.5018434525

> <CNNaffinity_variance>
0.3380151093

$$$$



 22 25  0  0  0  0  0  0  0  0999 V2000
    4.2730   70.1927   67.3863 C   0  0  0  0  0  0  0  0  0  0  0  0
    4.5677   69.5595   66.0585 C   0  0  0  0  0  0  0  0  0  0  0  0
    5.7992   69.1312   65.7209 C   0  0  0  0  0  0  0  0  0  0  0  0
    6.1212   68.5161   64.3704 C   0  0  0  0  0  0  0  0  0  0  0  0
    6.1627   66.9846   64.4921 C   0  0  0  0  0  0  0  0  0  0  0  0
    4.7888   66.3590   64.5743 C   0  0  0  0  0  0  0  0  0  0  0  0
    4.7671   65.0306   64.9367 N   0  0  0  0  0  0  0  0  0  0  0  0
    3.6351   64.2815   65.0905 C   0  0  0  0  0  0  0  0  0  0  0  0
    3.6591   63.0941   65.3896 O   0  0  0  0  0  0  0  0  0  0  0  0
    2.3643   64.9965   64.8931 C   0  0  0  0  0  0  0  0  0  0  0  0
    2.3755   66.2925   64.5485 C   0  0  0  0  0  0  0  0  0  0  0  0
    0.8302   67.0716   64.4246 Cl  0  0  0  0  0  0  0  0  0  0  0  0
    3.6323   67.0252   64.3312 C   0  0  0  0  0  0  0  0  0  0  0  0
    3.6697   68.5069   63.8626 C   0  0  0  0  0  0  0  0  0  0  0  0
    3.3887   69.4253   65.1063 C   0  0  0  0  0  0  0  0  0  0  0  0
    2.7167   68.8367   62.7913 N   0  0  0  0  0  0  0  0  0  0  0  0
    2.9192   68.1516   61.5182 C   0  0  0  0  0  0  0  0  0  0  0  0
    4.3187   67.5853   61.2914 C   0  0  0  0  0  0  0  0  0  0  0  0
    5.3997   68.4689   61.8940 C   0  0  0  0  0  0  0  0  0  0  0  0
    5.0716   68.9420   63.3267 C   0  0  0  0  0  0  0  0  0  0  0  0
    5.6318   64.5879   65.0969 H   0  0  0  0  0  0  0  0  0  0  0  0
    2.7772   69.8402   62.6184 H   0  0  0  0  0  0  0  0  0  0  0  0
  1  2  1  0
  2  3  2  0
  3  4  1  0
  4  5  1  0
  5  6  1  0
  6  7  1  0
  7  8  1  0
  8  9  2  0
  8 10  1  0
 10 11  2  0
 11 12  1  0
 11 13  1  0
 13 14  1  0
 14 15  1  0
 14 16  1  0
 16 17  1  0
 17 18  1  0
 18 19  1  0
 20 19  1  0
 15  2  1  0
 20  4  1  0
 13  6  2  0
 20 14  1  0
  7 21  1  0
 16 22  1  0
M  END
> <minimizedAffinity>
-6.89386

> <CNNscore>
0.5879855156

> <CNNaffinity>
6.6797394753

> <CNN_VS>
3.9275901318

> <CNNaffinity_variance>
0.2236540765

$$$$



 22 25  0  0  0  0  0  0  0  0999 V2000
    3.7470   70.2259   67.0201 C   0  0  0  0  0  0  0  0  0  0  0  0
    3.5063   68.8991   66.3625 C   0  0  0  0  0  0  0  0  0  0  0  0
    2.3647   68.2053   66.5341 C   0  0  0  0  0  0  0  0  0  0  0  0
    2.1171   66.8477   65.9006 C   0  0  0  0  0  0  0  0  0  0  0  0
    1.2464   67.0098   64.6445 C   0  0  0  0  0  0  0  0  0  0  0  0
    2.0127   67.5481   63.4576 C   0  0  0  0  0  0  0  0  0  0  0  0
    1.2401   67.9504   62.3910 N   0  0  0  0  0  0  0  0  0  0  0  0
    1.7270   68.4846   61.2316 C   0  0  0  0  0  0  0  0  0  0  0  0
    1.0074   68.8068   60.2945 O   0  0  0  0  0  0  0  0  0  0  0  0
    3.1854   68.6725   61.1779 C   0  0  0  0  0  0  0  0  0  0  0  0
    3.9449   68.2916   62.2154 C   0  0  0  0  0  0  0  0  0  0  0  0
    5.6417   68.6338   62.0965 Cl  0  0  0  0  0  0  0  0  0  0  0  0
    3.3640   67.6584   63.4092 C   0  0  0  0  0  0  0  0  0  0  0  0
    4.2311   67.1444   64.5926 C   0  0  0  0  0  0  0  0  0  0  0  0
    4.6318   68.3760   65.4825 C   0  0  0  0  0  0  0  0  0  0  0  0
    5.4471   66.4187   64.1936 N   0  0  0  0  0  0  0  0  0  0  0  0
    5.2403   65.1749   63.4576 C   0  0  0  0  0  0  0  0  0  0  0  0
    3.8617   64.5383   63.6161 C   0  0  0  0  0  0  0  0  0  0  0  0
    3.2980   64.7318   65.0152 C   0  0  0  0  0  0  0  0  0  0  0  0
    3.4552   66.1749   65.5414 C   0  0  0  0  0  0  0  0  0  0  0  0
    0.2645   67.8452   62.4698 H   0  0  0  0  0  0  0  0  0  0  0  0
    5.9695   66.1963   65.0409 H   0  0  0  0  0  0  0  0  0  0  0  0
  1  2  1  0
  2  3  2  0
  3  4  1  0
  4  5  1  0
  5  6  1  0
  6  7  1  0
  7  8  1  0
  8  9  2  0
  8 10  1  0
 10 11  2  0
 11 12  1  0
 11 13  1  0
 13 14  1  0
 14 15  1  0
 14 16  1  0
 16 17  1  0
 17 18  1  0
 18 19  1  0
 20 19  1  0
 15  2  1  0
 20  4  1  0
 13  6  2  0
 20 14  1  0
  7 21  1  0
 16 22  1  0
M  END
> <minimizedAffinity>
-8.23439

> <CNNscore>
0.5671199560

> <CNNaffinity>
6.9100594521

> <CNN_VS>
3.9188325405

> <CNNaffinity_variance>
0.2797463834

$$$$



 22 25  0  0  0  0  0  0  0  0999 V2000
    6.1017   70.3409   65.6614 C   0  0  0  0  0  0  0  0  0  0  0  0
    5.1303   69.2016   65.5671 C   0  0  0  0  0  0  0  0  0  0  0  0
    3.9241   69.2304   66.1656 C   0  0  0  0  0  0  0  0  0  0  0  0
    2.9415   68.0742   66.1056 C   0  0  0  0  0  0  0  0  0  0  0  0
    1.8685   68.3569   65.0423 C   0  0  0  0  0  0  0  0  0  0  0  0
    2.3662   68.1531   63.6292 C   0  0  0  0  0  0  0  0  0  0  0  0
    1.5379   68.6310   62.6383 N   0  0  0  0  0  0  0  0  0  0  0  0
    1.8052   68.5695   61.2999 C   0  0  0  0  0  0  0  0  0  0  0  0
    1.0297   68.9836   60.4473 O   0  0  0  0  0  0  0  0  0  0  0  0
    3.1059   67.9867   60.9346 C   0  0  0  0  0  0  0  0  0  0  0  0
    3.9229   67.5266   61.8933 C   0  0  0  0  0  0  0  0  0  0  0  0
    5.4700   66.9389   61.3726 Cl  0  0  0  0  0  0  0  0  0  0  0  0
    3.5450   67.5601   63.3145 C   0  0  0  0  0  0  0  0  0  0  0  0
    4.4441   66.9684   64.4361 C   0  0  0  0  0  0  0  0  0  0  0  0
    5.5858   68.0015   64.7503 C   0  0  0  0  0  0  0  0  0  0  0  0
    5.0451   65.6638   64.1177 N   0  0  0  0  0  0  0  0  0  0  0  0
    4.1123   64.5590   63.9163 C   0  0  0  0  0  0  0  0  0  0  0  0
    2.7246   64.7509   64.5231 C   0  0  0  0  0  0  0  0  0  0  0  0
    2.7740   65.5138   65.8377 C   0  0  0  0  0  0  0  0  0  0  0  0
    3.6813   66.7621   65.7842 C   0  0  0  0  0  0  0  0  0  0  0  0
    0.6900   69.0479   62.9150 H   0  0  0  0  0  0  0  0  0  0  0  0
    5.6664   65.4110   64.8862 H   0  0  0  0  0  0  0  0  0  0  0  0
  1  2  1  0
  2  3  2  0
  3  4  1  0
  4  5  1  0
  5  6  1  0
  6  7  1  0
  7  8  1  0
  8  9  2  0
  8 10  1  0
 10 11  2  0
 11 12  1  0
 11 13  1  0
 13 14  1  0
 14 15  1  0
 14 16  1  0
 16 17  1  0
 17 18  1  0
 18 19  1  0
 20 19  1  0
 15  2  1  0
 20  4  1  0
 13  6  2  0
 20 14  1  0
  7 21  1  0
 16 22  1  0
M  END
> <minimizedAffinity>
-9.10447

> <CNNscore>
0.5502879024

> <CNNaffinity>
6.6105785370

> <CNN_VS>
3.6377213001

> <CNNaffinity_variance>
0.1032955870

$$$$



 22 25  0  0  0  0  0  0  0  0999 V2000
    0.0087   68.5106   62.0741 C   0  0  0  0  0  0  0  0  0  0  0  0
    1.0801   68.4835   63.1239 C   0  0  0  0  0  0  0  0  0  0  0  0
    0.8033   68.3351   64.4336 C   0  0  0  0  0  0  0  0  0  0  0  0
    1.8727   68.3359   65.5117 C   0  0  0  0  0  0  0  0  0  0  0  0
    2.1970   66.8917   65.9251 C   0  0  0  0  0  0  0  0  0  0  0  0
    3.0571   66.1652   64.9160 C   0  0  0  0  0  0  0  0  0  0  0  0
    3.1669   64.8057   65.1057 N   0  0  0  0  0  0  0  0  0  0  0  0
    3.8753   63.9595   64.3004 C   0  0  0  0  0  0  0  0  0  0  0  0
    3.9696   62.7580   64.5179 O   0  0  0  0  0  0  0  0  0  0  0  0
    4.5128   64.5783   63.1274 C   0  0  0  0  0  0  0  0  0  0  0  0
    4.4040   65.9002   62.9299 C   0  0  0  0  0  0  0  0  0  0  0  0
    5.1137   66.5241   61.4747 Cl  0  0  0  0  0  0  0  0  0  0  0  0
    3.6829   66.7676   63.8739 C   0  0  0  0  0  0  0  0  0  0  0  0
    3.6042   68.3108   63.7036 C   0  0  0  0  0  0  0  0  0  0  0  0
    2.5092   68.6330   62.6236 C   0  0  0  0  0  0  0  0  0  0  0  0
    4.8705   68.9516   63.3161 N   0  0  0  0  0  0  0  0  0  0  0  0
    5.9638   68.8473   64.2780 C   0  0  0  0  0  0  0  0  0  0  0  0
    5.5484   68.5436   65.7154 C   0  0  0  0  0  0  0  0  0  0  0  0
    4.2318   69.2089   66.0846 C   0  0  0  0  0  0  0  0  0  0  0  0
    3.1419   69.0451   65.0032 C   0  0  0  0  0  0  0  0  0  0  0  0
    2.7001   64.4145   65.8792 H   0  0  0  0  0  0  0  0  0  0  0  0
    4.6841   69.9426   63.1624 H   0  0  0  0  0  0  0  0  0  0  0  0
  1  2  1  0
  2  3  2  0
  3  4  1  0
  4  5  1  0
  5  6  1  0
  6  7  1  0
  7  8  1  0
  8  9  2  0
  8 10  1  0
 10 11  2  0
 11 12  1  0
 11 13  1  0
 13 14  1  0
 14 15  1  0
 14 16  1  0
 16 17  1  0
 17 18  1  0
 18 19  1  0
 20 19  1  0
 15  2  1  0
 20  4  1  0
 13  6  2  0
 20 14  1  0
  7 21  1  0
 16 22  1  0
M  END
> <minimizedAffinity>
-9.88615

> <CNNscore>
0.5369866490

> <CNNaffinity>
6.7243361473

> <CNN_VS>
3.6108787060

> <CNNaffinity_variance>
0.2415249348

$$$$



 22 25  0  0  0  0  0  0  0  0999 V2000
    6.0229   70.5943   66.2497 C   0  0  0  0  0  0  0  0  0  0  0  0
    5.7760   69.3732   65.4138 C   0  0  0  0  0  0  0  0  0  0  0  0
    6.2144   68.1517   65.7737 C   0  0  0  0  0  0  0  0  0  0  0  0
    5.9997   66.9109   64.9250 C   0  0  0  0  0  0  0  0  0  0  0  0
    4.8141   66.1023   65.4748 C   0  0  0  0  0  0  0  0  0  0  0  0
    3.4725   66.7073   65.1285 C   0  0  0  0  0  0  0  0  0  0  0  0
    2.3951   66.1751   65.8011 N   0  0  0  0  0  0  0  0  0  0  0  0
    1.1013   66.5888   65.6549 C   0  0  0  0  0  0  0  0  0  0  0  0
    0.1662   66.0717   66.2533 O   0  0  0  0  0  0  0  0  0  0  0  0
    0.8925   67.7211   64.7386 C   0  0  0  0  0  0  0  0  0  0  0  0
    1.9370   68.2514   64.0859 C   0  0  0  0  0  0  0  0  0  0  0  0
    1.6059   69.6378   63.0967 Cl  0  0  0  0  0  0  0  0  0  0  0  0
    3.2979   67.7139   64.2360 C   0  0  0  0  0  0  0  0  0  0  0  0
    4.5112   68.2658   63.4362 C   0  0  0  0  0  0  0  0  0  0  0  0
    4.9954   69.5920   64.1263 C   0  0  0  0  0  0  0  0  0  0  0  0
    4.2409   68.5302   62.0143 N   0  0  0  0  0  0  0  0  0  0  0  0
    3.8937   67.3693   61.2000 C   0  0  0  0  0  0  0  0  0  0  0  0
    4.3209   66.0173   61.7660 C   0  0  0  0  0  0  0  0  0  0  0  0
    5.6493   66.0975   62.5020 C   0  0  0  0  0  0  0  0  0  0  0  0
    5.7441   67.3060   63.4584 C   0  0  0  0  0  0  0  0  0  0  0  0
    2.5702   65.4419   66.4344 H   0  0  0  0  0  0  0  0  0  0  0  0
    5.0767   68.9545   61.6118 H   0  0  0  0  0  0  0  0  0  0  0  0
  1  2  1  0
  2  3  2  0
  3  4  1  0
  4  5  1  0
  5  6  1  0
  6  7  1  0
  7  8  1  0
  8  9  2  0
  8 10  1  0
 10 11  2  0
 11 12  1  0
 11 13  1  0
 13 14  1  0
 14 15  1  0
 14 16  1  0
 16 17  1  0
 17 18  1  0
 18 19  1  0
 20 19  1  0
 15  2  1  0
 20  4  1  0
 13  6  2  0
 20 14  1  0
  7 21  1  0
 16 22  1  0
M  END
> <minimizedAffinity>
-6.12120

> <CNNscore>
0.5257839561

> <CNNaffinity>
6.5714879036

> <CNN_VS>
3.4551827908

> <CNNaffinity_variance>
0.2161277086

$$$$



 22 25  0  0  0  0  0  0  0  0999 V2000
    3.9390   63.7574   65.2836 C   0  0  0  0  0  0  0  0  0  0  0  0
    3.2459   65.0140   64.8460 C   0  0  0  0  0  0  0  0  0  0  0  0
    2.2706   65.5910   65.5738 C   0  0  0  0  0  0  0  0  0  0  0  0
    1.5381   66.8453   65.1311 C   0  0  0  0  0  0  0  0  0  0  0  0
    2.1196   68.0707   65.8538 C   0  0  0  0  0  0  0  0  0  0  0  0
    3.4505   68.5147   65.2906 C   0  0  0  0  0  0  0  0  0  0  0  0
    4.1335   69.4377   66.0509 N   0  0  0  0  0  0  0  0  0  0  0  0
    5.3590   69.9540   65.7378 C   0  0  0  0  0  0  0  0  0  0  0  0
    5.9229   70.7936   66.4283 O   0  0  0  0  0  0  0  0  0  0  0  0
    5.9826   69.4225   64.5155 C   0  0  0  0  0  0  0  0  0  0  0  0
    5.3287   68.5170   63.7734 C   0  0  0  0  0  0  0  0  0  0  0  0
    6.1801   67.8843   62.4004 Cl  0  0  0  0  0  0  0  0  0  0  0  0
    3.9795   68.0522   64.1301 C   0  0  0  0  0  0  0  0  0  0  0  0
    3.1738   67.0578   63.2477 C   0  0  0  0  0  0  0  0  0  0  0  0
    3.7099   65.6067   63.5238 C   0  0  0  0  0  0  0  0  0  0  0  0
    3.2342   67.3301   61.8032 N   0  0  0  0  0  0  0  0  0  0  0  0
    2.6595   68.5984   61.3642 C   0  0  0  0  0  0  0  0  0  0  0  0
    1.6617   69.2367   62.3273 C   0  0  0  0  0  0  0  0  0  0  0  0
    0.8219   68.1983   63.0546 C   0  0  0  0  0  0  0  0  0  0  0  0
    1.6530   67.0192   63.6051 C   0  0  0  0  0  0  0  0  0  0  0  0
    3.7069   69.7485   66.8820 H   0  0  0  0  0  0  0  0  0  0  0  0
    2.7366   66.5799   61.3235 H   0  0  0  0  0  0  0  0  0  0  0  0
  1  2  1  0
  2  3  2  0
  3  4  1  0
  4  5  1  0
  5  6  1  0
  6  7  1  0
  7  8  1  0
  8  9  2  0
  8 10  1  0
 10 11  2  0
 11 12  1  0
 11 13  1  0
 13 14  1  0
 14 15  1  0
 14 16  1  0
 16 17  1  0
 17 18  1  0
 18 19  1  0
 20 19  1  0
 15  2  1  0
 20  4  1  0
 13  6  2  0
 20 14  1  0
  7 21  1  0
 16 22  1  0
M  END
> <minimizedAffinity>
-8.16359

> <CNNscore>
0.5050991774

> <CNNaffinity>
6.7350668907

> <CNN_VS>
3.4018766880

> <CNNaffinity_variance>
0.1463110596

$$$$



 22 25  0  0  0  0  0  0  0  0999 V2000
    0.8864   69.4631   61.4422 C   0  0  0  0  0  0  0  0  0  0  0  0
    1.9818   68.5505   61.9091 C   0  0  0  0  0  0  0  0  0  0  0  0
    3.1257   68.3837   61.2178 C   0  0  0  0  0  0  0  0  0  0  0  0
    4.2313   67.4414   61.6602 C   0  0  0  0  0  0  0  0  0  0  0  0
    5.3483   68.2377   62.3531 C   0  0  0  0  0  0  0  0  0  0  0  0
    4.9909   68.6582   63.7607 C   0  0  0  0  0  0  0  0  0  0  0  0
    5.8383   69.5806   64.3329 N   0  0  0  0  0  0  0  0  0  0  0  0
    5.6875   70.1091   65.5838 C   0  0  0  0  0  0  0  0  0  0  0  0
    6.4785   70.9093   66.0672 O   0  0  0  0  0  0  0  0  0  0  0  0
    4.4923   69.6715   66.3221 C   0  0  0  0  0  0  0  0  0  0  0  0
    3.6568   68.7800   65.7693 C   0  0  0  0  0  0  0  0  0  0  0  0
    2.2305   68.3922   66.6779 Cl  0  0  0  0  0  0  0  0  0  0  0  0
    3.9136   68.1965   64.4437 C   0  0  0  0  0  0  0  0  0  0  0  0
    2.9982   67.1095   63.8136 C   0  0  0  0  0  0  0  0  0  0  0  0
    1.7282   67.8180   63.2183 C   0  0  0  0  0  0  0  0  0  0  0  0
    2.5719   66.0512   64.7426 N   0  0  0  0  0  0  0  0  0  0  0  0
    3.6339   65.2150   65.2944 C   0  0  0  0  0  0  0  0  0  0  0  0
    4.9389   65.2013   64.5022 C   0  0  0  0  0  0  0  0  0  0  0  0
    4.7007   65.2891   63.0029 C   0  0  0  0  0  0  0  0  0  0  0  0
    3.6686   66.3690   62.6119 C   0  0  0  0  0  0  0  0  0  0  0  0
    6.6102   69.8816   63.8012 H   0  0  0  0  0  0  0  0  0  0  0  0
    1.9227   65.4422   64.2445 H   0  0  0  0  0  0  0  0  0  0  0  0
  1  2  1  0
  2  3  2  0
  3  4  1  0
  4  5  1  0
  5  6  1  0
  6  7  1  0
  7  8  1  0
  8  9  2  0
  8 10  1  0
 10 11  2  0
 11 12  1  0
 11 13  1  0
 13 14  1  0
 14 15  1  0
 14 16  1  0
 16 17  1  0
 17 18  1  0
 18 19  1  0
 20 19  1  0
 15  2  1  0
 20  4  1  0
 13  6  2  0
 20 14  1  0
  7 21  1  0
 16 22  1  0
M  END
> <minimizedAffinity>
-9.93668

> <CNNscore>
0.4811632335

> <CNNaffinity>
6.7818198204

> <CNN_VS>
3.2631623745

> <CNNaffinity_variance>
0.0293504950

$$$$
