


 10  9  0  0  0  0  0  0  0  0999 V2000
   26.0012   31.5914   19.2177 C   0  0  0  0  0  0  0  0  0  0  0  0
   24.7466   32.3333   18.9996 N   0  0  0  0  0  0  0  0  0  0  0  0
   23.9555   31.7527   19.2779 H   0  0  0  0  0  0  0  0  0  0  0  0
   24.6611   32.5736   18.0120 H   0  0  0  0  0  0  0  0  0  0  0  0
   25.9701   30.3273   18.3684 C   0  0  0  0  0  0  0  0  0  0  0  0
   26.9561   29.6169   18.1850 O   0  0  0  0  0  0  0  0  0  0  0  0
   26.1683   31.2525   20.7035 C   0  0  0  0  0  0  0  0  0  0  0  0
   26.3155   32.5085   21.5663 C   0  0  0  0  0  0  0  0  0  0  0  0
   29.0711   32.4576   21.2296 C   0  0  0  0  0  0  0  0  0  0  0  0
   27.6698   33.5717   20.9615 S   0  0  0  0  0  0  0  0  0  0  0  0
  9 10  1  0
 10  8  1  0
  8  7  1  0
  7  1  1  0
  1  2  1  0
  1  5  1  0
  5  6  2  0
  2  3  1  0
  2  4  1  0
M  END
> <minimizedAffinity>
-5.47643

> <CNNscore>
0.9431482553

> <CNNaffinity>
4.6669578552

> <CNN_VS>
4.4016332626

> <CNNaffinity_variance>
0.8726648688

$$$$



 10  9  0  0  0  0  0  0  0  0999 V2000
   16.9126   47.1289    5.7289 C   0  0  0  0  0  0  0  0  0  0  0  0
   15.9986   46.1841    5.0626 N   0  0  0  0  0  0  0  0  0  0  0  0
   16.0256   46.3384    4.0547 H   0  0  0  0  0  0  0  0  0  0  0  0
   15.0488   46.3319    5.4038 H   0  0  0  0  0  0  0  0  0  0  0  0
   16.4549   48.5476    5.4158 C   0  0  0  0  0  0  0  0  0  0  0  0
   16.3647   49.4279    6.2687 O   0  0  0  0  0  0  0  0  0  0  0  0
   18.3532   46.8986    5.2579 C   0  0  0  0  0  0  0  0  0  0  0  0
   19.2100   46.2291    6.3356 C   0  0  0  0  0  0  0  0  0  0  0  0
   21.3237   47.8879    5.6358 C   0  0  0  0  0  0  0  0  0  0  0  0
   20.9578   46.1249    5.8212 S   0  0  0  0  0  0  0  0  0  0  0  0
  9 10  1  0
 10  8  1  0
  8  7  1  0
  7  1  1  0
  1  2  1  0
  1  5  1  0
  5  6  2  0
  2  3  1  0
  2  4  1  0
M  END
> <minimizedAffinity>
-2.03343

> <CNNscore>
0.8714784384

> <CNNaffinity>
3.8438003063

> <CNN_VS>
3.3497891426

> <CNNaffinity_variance>
0.3935122490

$$$$



 10  9  0  0  0  0  0  0  0  0999 V2000
   27.3754   33.3081   21.3351 C   0  0  0  0  0  0  0  0  0  0  0  0
   27.3169   34.3525   20.2970 N   0  0  0  0  0  0  0  0  0  0  0  0
   27.3907   33.9208   19.3758 H   0  0  0  0  0  0  0  0  0  0  0  0
   28.0885   35.0065   20.4288 H   0  0  0  0  0  0  0  0  0  0  0  0
   28.7086   32.5811   21.2159 C   0  0  0  0  0  0  0  0  0  0  0  0
   29.1973   31.9200   22.1295 O   0  0  0  0  0  0  0  0  0  0  0  0
   26.2015   32.3346   21.1782 C   0  0  0  0  0  0  0  0  0  0  0  0
   26.5910   31.0892   20.3776 C   0  0  0  0  0  0  0  0  0  0  0  0
   25.0821   30.1599   18.2400 C   0  0  0  0  0  0  0  0  0  0  0  0
   26.3882   31.3649   18.5850 S   0  0  0  0  0  0  0  0  0  0  0  0
  9 10  1  0
 10  8  1  0
  8  7  1  0
  7  1  1  0
  1  2  1  0
  1  5  1  0
  5  6  2  0
  2  3  1  0
  2  4  1  0
M  END
> <minimizedAffinity>
-4.31656

> <CNNscore>
0.7637899518

> <CNNaffinity>
4.1941752434

> <CNN_VS>
3.2034687996

> <CNNaffinity_variance>
0.4500261843

$$$$



 10  9  0  0  0  0  0  0  0  0999 V2000
   24.2926   36.9678    7.4852 C   0  0  0  0  0  0  0  0  0  0  0  0
   23.3007   36.2038    8.2627 N   0  0  0  0  0  0  0  0  0  0  0  0
   23.0346   35.3663    7.7448 H   0  0  0  0  0  0  0  0  0  0  0  0
   22.4754   36.7816    8.4222 H   0  0  0  0  0  0  0  0  0  0  0  0
   23.6634   37.3661    6.1564 C   0  0  0  0  0  0  0  0  0  0  0  0
   24.2714   37.9808    5.2828 O   0  0  0  0  0  0  0  0  0  0  0  0
   25.5577   36.1302    7.2662 C   0  0  0  0  0  0  0  0  0  0  0  0
   25.2938   34.9124    6.3766 C   0  0  0  0  0  0  0  0  0  0  0  0
   24.0031   32.5034    5.8870 C   0  0  0  0  0  0  0  0  0  0  0  0
   24.2911   33.6613    7.2482 S   0  0  0  0  0  0  0  0  0  0  0  0
  9 10  1  0
 10  8  1  0
  8  7  1  0
  7  1  1  0
  1  2  1  0
  1  5  1  0
  5  6  2  0
  2  3  1  0
  2  4  1  0
M  END
> <minimizedAffinity>
-0.59258

> <CNNscore>
0.7351672053

> <CNNaffinity>
3.4713962078

> <CNN_VS>
2.5520565510

> <CNNaffinity_variance>
0.4576027393

$$$$



 10  9  0  0  0  0  0  0  0  0999 V2000
   27.4067   33.9344   20.8995 C   0  0  0  0  0  0  0  0  0  0  0  0
   27.9036   35.1076   20.1589 N   0  0  0  0  0  0  0  0  0  0  0  0
   28.6705   35.5368   20.6766 H   0  0  0  0  0  0  0  0  0  0  0  0
   27.1483   35.7839   20.0470 H   0  0  0  0  0  0  0  0  0  0  0  0
   26.9081   34.3977   22.2623 C   0  0  0  0  0  0  0  0  0  0  0  0
   26.3083   35.4567   22.4336 O   0  0  0  0  0  0  0  0  0  0  0  0
   28.5170   32.8875   21.0464 C   0  0  0  0  0  0  0  0  0  0  0  0
   28.0373   31.6426   21.7973 C   0  0  0  0  0  0  0  0  0  0  0  0
   26.6462   30.7992   19.5473 C   0  0  0  0  0  0  0  0  0  0  0  0
   26.3469   31.1757   21.2924 S   0  0  0  0  0  0  0  0  0  0  0  0
  9 10  1  0
 10  8  1  0
  8  7  1  0
  7  1  1  0
  1  2  1  0
  1  5  1  0
  5  6  2  0
  2  3  1  0
  2  4  1  0
M  END
> <minimizedAffinity>
-4.07474

> <CNNscore>
0.7166727781

> <CNNaffinity>
4.2378630638

> <CNN_VS>
3.0371611118

> <CNNaffinity_variance>
0.9166159034

$$$$



 10  9  0  0  0  0  0  0  0  0999 V2000
   16.4848   45.4548    5.9851 C   0  0  0  0  0  0  0  0  0  0  0  0
   15.4634   44.6055    6.6236 N   0  0  0  0  0  0  0  0  0  0  0  0
   15.3354   43.7561    6.0737 H   0  0  0  0  0  0  0  0  0  0  0  0
   14.5809   45.1145    6.6735 H   0  0  0  0  0  0  0  0  0  0  0  0
   16.0062   45.8183    4.5855 C   0  0  0  0  0  0  0  0  0  0  0  0
   15.1842   46.7053    4.3659 O   0  0  0  0  0  0  0  0  0  0  0  0
   17.8305   44.7223    5.9338 C   0  0  0  0  0  0  0  0  0  0  0  0
   18.9097   45.4456    6.7437 C   0  0  0  0  0  0  0  0  0  0  0  0
   21.0726   47.0925    6.1788 C   0  0  0  0  0  0  0  0  0  0  0  0
   20.5232   45.3916    5.8927 S   0  0  0  0  0  0  0  0  0  0  0  0
  9 10  1  0
 10  8  1  0
  8  7  1  0
  7  1  1  0
  1  2  1  0
  1  5  1  0
  5  6  2  0
  2  3  1  0
  2  4  1  0
M  END
> <minimizedAffinity>
-1.91478

> <CNNscore>
0.6707038879

> <CNNaffinity>
3.2026431561

> <CNN_VS>
2.1480252743

> <CNNaffinity_variance>
0.0436546952

$$$$



 10  9  0  0  0  0  0  0  0  0999 V2000
   23.4024   35.6174    4.3769 C   0  0  0  0  0  0  0  0  0  0  0  0
   23.4089   36.8158    3.5192 N   0  0  0  0  0  0  0  0  0  0  0  0
   22.7399   37.4959    3.8803 H   0  0  0  0  0  0  0  0  0  0  0  0
   23.1486   36.5548    2.5682 H   0  0  0  0  0  0  0  0  0  0  0  0
   22.0024   35.0172    4.3595 C   0  0  0  0  0  0  0  0  0  0  0  0
   21.7067   33.9849    4.9574 O   0  0  0  0  0  0  0  0  0  0  0  0
   23.8278   35.9812    5.8041 C   0  0  0  0  0  0  0  0  0  0  0  0
   25.0294   35.1568    6.2732 C   0  0  0  0  0  0  0  0  0  0  0  0
   24.7235   32.3988    6.1791 C   0  0  0  0  0  0  0  0  0  0  0  0
   24.5056   33.7712    7.3391 S   0  0  0  0  0  0  0  0  0  0  0  0
  9 10  1  0
 10  8  1  0
  8  7  1  0
  7  1  1  0
  1  2  1  0
  1  5  1  0
  5  6  2  0
  2  3  1  0
  2  4  1  0
M  END
> <minimizedAffinity>
-2.43431

> <CNNscore>
0.6346417665

> <CNNaffinity>
4.2561354637

> <CNN_VS>
2.7011213303

> <CNNaffinity_variance>
0.9840638041

$$$$



 10  9  0  0  0  0  0  0  0  0999 V2000
   24.2969   36.5636    4.4625 C   0  0  0  0  0  0  0  0  0  0  0  0
   25.7530   36.6386    4.2476 N   0  0  0  0  0  0  0  0  0  0  0  0
   26.2311   36.6160    5.1483 H   0  0  0  0  0  0  0  0  0  0  0  0
   25.9809   37.5068    3.7633 H   0  0  0  0  0  0  0  0  0  0  0  0
   23.8686   37.7620    5.2995 C   0  0  0  0  0  0  0  0  0  0  0  0
   23.9758   37.7993    6.5233 O   0  0  0  0  0  0  0  0  0  0  0  0
   23.9278   35.2473    5.1563 C   0  0  0  0  0  0  0  0  0  0  0  0
   25.0996   34.6705    5.9550 C   0  0  0  0  0  0  0  0  0  0  0  0
   23.1812   34.7208    7.9616 C   0  0  0  0  0  0  0  0  0  0  0  0
   24.5116   33.6550    7.3526 S   0  0  0  0  0  0  0  0  0  0  0  0
  9 10  1  0
 10  8  1  0
  8  7  1  0
  7  1  1  0
  1  2  1  0
  1  5  1  0
  5  6  2  0
  2  3  1  0
  2  4  1  0
M  END
> <minimizedAffinity>
-2.76801

> <CNNscore>
0.6270378828

> <CNNaffinity>
4.2291207314

> <CNN_VS>
2.6518189907

> <CNNaffinity_variance>
0.9349026084

$$$$



 10  9  0  0  0  0  0  0  0  0999 V2000
   25.1112   36.5904    5.6414 C   0  0  0  0  0  0  0  0  0  0  0  0
   24.5351   37.3949    6.7336 N   0  0  0  0  0  0  0  0  0  0  0  0
   23.6406   37.7833    6.4344 H   0  0  0  0  0  0  0  0  0  0  0  0
   25.1737   38.1544    6.9697 H   0  0  0  0  0  0  0  0  0  0  0  0
   25.3239   37.4946    4.4341 C   0  0  0  0  0  0  0  0  0  0  0  0
   26.2647   38.2799    4.3405 O   0  0  0  0  0  0  0  0  0  0  0  0
   24.1838   35.4196    5.2957 C   0  0  0  0  0  0  0  0  0  0  0  0
   23.3431   34.9786    6.4968 C   0  0  0  0  0  0  0  0  0  0  0  0
   24.7586   32.6044    6.2339 C   0  0  0  0  0  0  0  0  0  0  0  0
   24.2405   33.7651    7.5227 S   0  0  0  0  0  0  0  0  0  0  0  0
  9 10  1  0
 10  8  1  0
  8  7  1  0
  7  1  1  0
  1  2  1  0
  1  5  1  0
  5  6  2  0
  2  3  1  0
  2  4  1  0
M  END
> <minimizedAffinity>
-2.99005

> <CNNscore>
0.6070986390

> <CNNaffinity>
4.3600425720

> <CNN_VS>
2.6469759941

> <CNNaffinity_variance>
0.9943719506

$$$$
