


 27 30  0  0  0  0  0  0  0  0999 V2000
   13.8387   -2.2190   11.0688 C   0  0  0  0  0  0  0  0  0  0  0  0
   12.9113   -1.2672   10.7973 N   0  0  0  0  0  0  0  0  0  0  0  0
   13.2488   -0.2183   10.0252 C   0  0  0  0  0  0  0  0  0  0  0  0
   14.4276    0.0307    9.4505 N   0  0  0  0  0  0  0  0  0  0  0  0
   15.3141   -0.9337    9.7266 C   0  0  0  0  0  0  0  0  0  0  0  0
   16.5899   -0.8998    9.2620 O   0  0  0  0  0  0  0  0  0  0  0  0
   17.2331   -2.0210    9.7083 C   0  0  0  0  0  0  0  0  0  0  0  0
   16.3552   -2.7810   10.4704 C   0  0  0  0  0  0  0  0  0  0  0  0
   15.1134   -2.0696   10.4950 C   0  0  0  0  0  0  0  0  0  0  0  0
   18.6258   -2.1343    9.2738 C   0  0  0  0  0  0  0  0  0  0  0  0
   19.4507   -3.1422    9.7987 C   0  0  0  0  0  0  0  0  0  0  0  0
   20.7813   -3.2694    9.3903 C   0  0  0  0  0  0  0  0  0  0  0  0
   21.3085   -2.3869    8.4518 C   0  0  0  0  0  0  0  0  0  0  0  0
   20.5076   -1.3765    7.9258 C   0  0  0  0  0  0  0  0  0  0  0  0
   19.1766   -1.2500    8.3359 C   0  0  0  0  0  0  0  0  0  0  0  0
   16.7002   -4.0361   11.1059 C   0  0  0  0  0  0  0  0  0  0  0  0
   16.7082   -5.2194   10.3568 C   0  0  0  0  0  0  0  0  0  0  0  0
   17.0316   -6.4322   10.9669 C   0  0  0  0  0  0  0  0  0  0  0  0
   17.3489   -6.4673   12.3241 C   0  0  0  0  0  0  0  0  0  0  0  0
   17.3416   -5.2914   13.0742 C   0  0  0  0  0  0  0  0  0  0  0  0
   17.0164   -4.0766   12.4680 C   0  0  0  0  0  0  0  0  0  0  0  0
   13.5080   -3.2771   11.9180 N   0  0  0  0  0  0  0  0  0  0  0  0
   14.1822   -3.9222   12.2318 H   0  0  0  0  0  0  0  0  0  0  0  0
   12.1050   -3.3726   12.3146 C   0  0  0  0  0  0  0  0  0  0  0  0
   10.5054   -2.2914   13.8109 O   0  0  0  0  0  0  0  0  0  0  0  0
   11.8701   -2.7020   13.6746 C   0  0  0  0  0  0  0  0  0  0  0  0
   10.3791   -1.8708   14.6758 H   0  0  0  0  0  0  0  0  0  0  0  0
 25 26  1  0
 26 24  1  0
 24 22  1  0
 22  1  1  0
  1  2  2  0
  2  3  1  0
  3  4  2  0
  4  5  1  0
  5  6  1  0
  6  7  1  0
  7 10  1  0
 10 11  2  0
 11 12  1  0
 12 13  2  0
 13 14  1  0
 14 15  2  0
  7  8  2  0
  8 16  1  0
 16 17  2  0
 17 18  1  0
 18 19  2  0
 19 20  1  0
 20 21  2  0
  8  9  1  0
  9  1  1  0
  9  5  2  0
 15 10  1  0
 21 16  1  0
 25 27  1  0
 22 23  1  0
M  END
> <minimizedAffinity>
-8.22262

> <CNNscore>
0.9244565964

> <CNNaffinity>
6.8016262054

> <CNN_VS>
6.2878084183

> <CNNaffinity_variance>
0.0635281205

$$$$



 27 30  0  0  0  0  0  0  0  0999 V2000
   14.8303   -1.8594   10.6204 C   0  0  0  0  0  0  0  0  0  0  0  0
   13.9754   -0.8403   10.3557 N   0  0  0  0  0  0  0  0  0  0  0  0
   14.3833    0.1776    9.5761 C   0  0  0  0  0  0  0  0  0  0  0  0
   15.5711    0.3341    8.9874 N   0  0  0  0  0  0  0  0  0  0  0  0
   16.3844   -0.6945    9.2572 C   0  0  0  0  0  0  0  0  0  0  0  0
   17.6537   -0.7596    8.7784 O   0  0  0  0  0  0  0  0  0  0  0  0
   18.2143   -1.9254    9.2216 C   0  0  0  0  0  0  0  0  0  0  0  0
   17.2896   -2.6139    9.9962 C   0  0  0  0  0  0  0  0  0  0  0  0
   16.1062   -1.8096   10.0320 C   0  0  0  0  0  0  0  0  0  0  0  0
   19.5892   -2.1461    8.7721 C   0  0  0  0  0  0  0  0  0  0  0  0
   20.2376   -1.1843    7.9808 C   0  0  0  0  0  0  0  0  0  0  0  0
   21.5528   -1.3753    7.5479 C   0  0  0  0  0  0  0  0  0  0  0  0
   22.2390   -2.5348    7.8978 C   0  0  0  0  0  0  0  0  0  0  0  0
   21.6097   -3.5031    8.6758 C   0  0  0  0  0  0  0  0  0  0  0  0
   20.2935   -3.3108    9.1076 C   0  0  0  0  0  0  0  0  0  0  0  0
   17.5448   -3.8900   10.6324 C   0  0  0  0  0  0  0  0  0  0  0  0
   18.4703   -3.9755   11.6800 C   0  0  0  0  0  0  0  0  0  0  0  0
   18.7256   -5.2044   12.2901 C   0  0  0  0  0  0  0  0  0  0  0  0
   18.0578   -6.3496   11.8581 C   0  0  0  0  0  0  0  0  0  0  0  0
   17.1357   -6.2692   10.8148 C   0  0  0  0  0  0  0  0  0  0  0  0
   16.8793   -5.0422   10.2004 C   0  0  0  0  0  0  0  0  0  0  0  0
   14.4294   -2.8867   11.4771 N   0  0  0  0  0  0  0  0  0  0  0  0
   14.2274   -3.7914   11.1455 H   0  0  0  0  0  0  0  0  0  0  0  0
   14.3264   -2.5431   12.8935 C   0  0  0  0  0  0  0  0  0  0  0  0
   15.4922   -2.6138   15.0389 O   0  0  0  0  0  0  0  0  0  0  0  0
   15.5676   -3.0104   13.6653 C   0  0  0  0  0  0  0  0  0  0  0  0
   16.2850   -2.9186   15.5074 H   0  0  0  0  0  0  0  0  0  0  0  0
 25 26  1  0
 26 24  1  0
 24 22  1  0
 22  1  1  0
  1  2  2  0
  2  3  1  0
  3  4  2  0
  4  5  1  0
  5  6  1  0
  6  7  1  0
  7 10  1  0
 10 11  2  0
 11 12  1  0
 12 13  2  0
 13 14  1  0
 14 15  2  0
  7  8  2  0
  8 16  1  0
 16 17  2  0
 17 18  1  0
 18 19  2  0
 19 20  1  0
 20 21  2  0
  8  9  1  0
  9  1  1  0
  9  5  2  0
 15 10  1  0
 21 16  1  0
 25 27  1  0
 22 23  1  0
M  END
> <minimizedAffinity>
-7.98507

> <CNNscore>
0.9164330363

> <CNNaffinity>
6.6830868721

> <CNN_VS>
6.1246013641

> <CNNaffinity_variance>
0.0713467672

$$$$



 27 30  0  0  0  0  0  0  0  0999 V2000
   15.1866   -1.7691   10.2105 C   0  0  0  0  0  0  0  0  0  0  0  0
   14.6804   -0.6371    9.6610 N   0  0  0  0  0  0  0  0  0  0  0  0
   15.4937    0.1814    8.9690 C   0  0  0  0  0  0  0  0  0  0  0  0
   16.7972    0.0279    8.7259 N   0  0  0  0  0  0  0  0  0  0  0  0
   17.2609   -1.1044    9.2692 C   0  0  0  0  0  0  0  0  0  0  0  0
   18.5629   -1.4771    9.1668 O   0  0  0  0  0  0  0  0  0  0  0  0
   18.7136   -2.6722    9.8140 C   0  0  0  0  0  0  0  0  0  0  0  0
   17.4899   -3.0674   10.3387 C   0  0  0  0  0  0  0  0  0  0  0  0
   16.5490   -2.0440    9.9982 C   0  0  0  0  0  0  0  0  0  0  0  0
   20.0724   -3.2141    9.7778 C   0  0  0  0  0  0  0  0  0  0  0  0
   20.7994   -3.2207    8.5765 C   0  0  0  0  0  0  0  0  0  0  0  0
   22.1006   -3.7282    8.5248 C   0  0  0  0  0  0  0  0  0  0  0  0
   22.6939   -4.2406    9.6751 C   0  0  0  0  0  0  0  0  0  0  0  0
   21.9855   -4.2491   10.8739 C   0  0  0  0  0  0  0  0  0  0  0  0
   20.6833   -3.7416   10.9239 C   0  0  0  0  0  0  0  0  0  0  0  0
   17.2788   -4.2864   11.0923 C   0  0  0  0  0  0  0  0  0  0  0  0
   16.9946   -5.4822   10.4212 C   0  0  0  0  0  0  0  0  0  0  0  0
   16.7821   -6.6572   11.1436 C   0  0  0  0  0  0  0  0  0  0  0  0
   16.8540   -6.6424   12.5359 C   0  0  0  0  0  0  0  0  0  0  0  0
   17.1362   -5.4536   13.2086 C   0  0  0  0  0  0  0  0  0  0  0  0
   17.3471   -4.2757   12.4896 C   0  0  0  0  0  0  0  0  0  0  0  0
   14.3578   -2.5892   10.9789 N   0  0  0  0  0  0  0  0  0  0  0  0
   14.6973   -3.3966   11.4284 H   0  0  0  0  0  0  0  0  0  0  0  0
   12.9583   -2.1813   11.0782 C   0  0  0  0  0  0  0  0  0  0  0  0
   11.3180   -3.2175   12.5622 O   0  0  0  0  0  0  0  0  0  0  0  0
   12.0500   -3.3892   11.3439 C   0  0  0  0  0  0  0  0  0  0  0  0
   10.7514   -3.9907   12.7107 H   0  0  0  0  0  0  0  0  0  0  0  0
 25 26  1  0
 26 24  1  0
 24 22  1  0
 22  1  1  0
  1  2  2  0
  2  3  1  0
  3  4  2  0
  4  5  1  0
  5  6  1  0
  6  7  1  0
  7 10  1  0
 10 11  2  0
 11 12  1  0
 12 13  2  0
 13 14  1  0
 14 15  2  0
  7  8  2  0
  8 16  1  0
 16 17  2  0
 17 18  1  0
 18 19  2  0
 19 20  1  0
 20 21  2  0
  8  9  1  0
  9  1  1  0
  9  5  2  0
 15 10  1  0
 21 16  1  0
 25 27  1  0
 22 23  1  0
M  END
> <minimizedAffinity>
-7.83926

> <CNNscore>
0.8669393659

> <CNNaffinity>
6.5965137482

> <CNN_VS>
5.7187776566

> <CNNaffinity_variance>
0.1138487831

$$$$



 27 30  0  0  0  0  0  0  0  0999 V2000
   13.6806   -2.3793   11.3441 C   0  0  0  0  0  0  0  0  0  0  0  0
   12.7231   -1.4518   11.0937 N   0  0  0  0  0  0  0  0  0  0  0  0
   13.0098   -0.4057   10.2977 C   0  0  0  0  0  0  0  0  0  0  0  0
   14.1619   -0.1381    9.6790 N   0  0  0  0  0  0  0  0  0  0  0  0
   15.0791   -1.0789    9.9355 C   0  0  0  0  0  0  0  0  0  0  0  0
   16.3369   -1.0228    9.4262 O   0  0  0  0  0  0  0  0  0  0  0  0
   17.0204   -2.1236    9.8632 C   0  0  0  0  0  0  0  0  0  0  0  0
   16.1869   -2.8930   10.6647 C   0  0  0  0  0  0  0  0  0  0  0  0
   14.9310   -2.2091   10.7242 C   0  0  0  0  0  0  0  0  0  0  0  0
   18.3993   -2.2116    9.3816 C   0  0  0  0  0  0  0  0  0  0  0  0
   18.8957   -1.2567    8.4796 C   0  0  0  0  0  0  0  0  0  0  0  0
   20.2120   -1.3213    8.0142 C   0  0  0  0  0  0  0  0  0  0  0  0
   21.0518   -2.3457    8.4420 C   0  0  0  0  0  0  0  0  0  0  0  0
   20.5748   -3.3059    9.3305 C   0  0  0  0  0  0  0  0  0  0  0  0
   19.2572   -3.2402    9.7949 C   0  0  0  0  0  0  0  0  0  0  0  0
   16.5821   -4.1319   11.3029 C   0  0  0  0  0  0  0  0  0  0  0  0
   16.8705   -4.1507   12.6733 C   0  0  0  0  0  0  0  0  0  0  0  0
   17.2598   -5.3402   13.2906 C   0  0  0  0  0  0  0  0  0  0  0  0
   17.3609   -6.5130   12.5434 C   0  0  0  0  0  0  0  0  0  0  0  0
   17.0753   -6.4988   11.1782 C   0  0  0  0  0  0  0  0  0  0  0  0
   16.6877   -5.3104   10.5567 C   0  0  0  0  0  0  0  0  0  0  0  0
   13.4037   -3.4333   12.2172 N   0  0  0  0  0  0  0  0  0  0  0  0
   13.3585   -4.3668   11.9076 H   0  0  0  0  0  0  0  0  0  0  0  0
   13.1847   -3.0726   13.6160 C   0  0  0  0  0  0  0  0  0  0  0  0
   12.4255   -5.2042   14.5361 O   0  0  0  0  0  0  0  0  0  0  0  0
   13.4962   -4.2538   14.5447 C   0  0  0  0  0  0  0  0  0  0  0  0
   12.6426   -5.9411   15.1284 H   0  0  0  0  0  0  0  0  0  0  0  0
 25 26  1  0
 26 24  1  0
 24 22  1  0
 22  1  1  0
  1  2  2  0
  2  3  1  0
  3  4  2  0
  4  5  1  0
  5  6  1  0
  6  7  1  0
  7 10  1  0
 10 11  2  0
 11 12  1  0
 12 13  2  0
 13 14  1  0
 14 15  2  0
  7  8  2  0
  8 16  1  0
 16 17  2  0
 17 18  1  0
 18 19  2  0
 19 20  1  0
 20 21  2  0
  8  9  1  0
  9  1  1  0
  9  5  2  0
 15 10  1  0
 21 16  1  0
 25 27  1  0
 22 23  1  0
M  END
> <minimizedAffinity>
-8.11724

> <CNNscore>
0.8554874659

> <CNNaffinity>
6.6598815918

> <CNN_VS>
5.6974453926

> <CNNaffinity_variance>
0.0760322735

$$$$



 27 30  0  0  0  0  0  0  0  0999 V2000
   17.1936   -1.4465    9.1911 C   0  0  0  0  0  0  0  0  0  0  0  0
   16.7898   -0.3439    8.5122 N   0  0  0  0  0  0  0  0  0  0  0  0
   15.5880    0.1958    8.7854 C   0  0  0  0  0  0  0  0  0  0  0  0
   14.6894   -0.2159    9.6827 N   0  0  0  0  0  0  0  0  0  0  0  0
   15.1249   -1.2956   10.3436 C   0  0  0  0  0  0  0  0  0  0  0  0
   14.3821   -1.9067   11.3025 O   0  0  0  0  0  0  0  0  0  0  0  0
   15.1024   -2.9634   11.7869 C   0  0  0  0  0  0  0  0  0  0  0  0
   16.3224   -3.0286   11.1263 C   0  0  0  0  0  0  0  0  0  0  0  0
   16.3328   -1.9553   10.1793 C   0  0  0  0  0  0  0  0  0  0  0  0
   14.4329   -3.7184   12.8466 C   0  0  0  0  0  0  0  0  0  0  0  0
   13.5502   -4.7613   12.5225 C   0  0  0  0  0  0  0  0  0  0  0  0
   12.9071   -5.4973   13.5216 C   0  0  0  0  0  0  0  0  0  0  0  0
   13.1349   -5.1984   14.8619 C   0  0  0  0  0  0  0  0  0  0  0  0
   14.0013   -4.1627   15.2022 C   0  0  0  0  0  0  0  0  0  0  0  0
   14.6436   -3.4267   14.2014 C   0  0  0  0  0  0  0  0  0  0  0  0
   17.3385   -4.0286   11.3828 C   0  0  0  0  0  0  0  0  0  0  0  0
   17.0513   -5.3843   11.1799 C   0  0  0  0  0  0  0  0  0  0  0  0
   18.0244   -6.3518   11.4339 C   0  0  0  0  0  0  0  0  0  0  0  0
   19.2857   -5.9696   11.8891 C   0  0  0  0  0  0  0  0  0  0  0  0
   19.5759   -4.6207   12.0932 C   0  0  0  0  0  0  0  0  0  0  0  0
   18.6044   -3.6501   11.8424 C   0  0  0  0  0  0  0  0  0  0  0  0
   18.4142   -2.0429    8.8677 N   0  0  0  0  0  0  0  0  0  0  0  0
   18.4630   -2.9258    8.4349 H   0  0  0  0  0  0  0  0  0  0  0  0
   19.6146   -1.2826    9.2078 C   0  0  0  0  0  0  0  0  0  0  0  0
   21.5513   -0.2258    8.1595 O   0  0  0  0  0  0  0  0  0  0  0  0
   20.6338   -1.3204    8.0613 C   0  0  0  0  0  0  0  0  0  0  0  0
   22.1855   -0.2687    7.4268 H   0  0  0  0  0  0  0  0  0  0  0  0
 25 26  1  0
 26 24  1  0
 24 22  1  0
 22  1  1  0
  1  2  2  0
  2  3  1  0
  3  4  2  0
  4  5  1  0
  5  6  1  0
  6  7  1  0
  7 10  1  0
 10 11  2  0
 11 12  1  0
 12 13  2  0
 13 14  1  0
 14 15  2  0
  7  8  2  0
  8 16  1  0
 16 17  2  0
 17 18  1  0
 18 19  2  0
 19 20  1  0
 20 21  2  0
  8  9  1  0
  9  1  1  0
  9  5  2  0
 15 10  1  0
 21 16  1  0
 25 27  1  0
 22 23  1  0
M  END
> <minimizedAffinity>
-7.26428

> <CNNscore>
0.8064606190

> <CNNaffinity>
6.4946055412

> <CNN_VS>
5.2376437187

> <CNNaffinity_variance>
0.0306963269

$$$$



 27 30  0  0  0  0  0  0  0  0999 V2000
   18.4995   -2.6307    9.6296 C   0  0  0  0  0  0  0  0  0  0  0  0
   19.0252   -1.7302    8.7623 N   0  0  0  0  0  0  0  0  0  0  0  0
   18.2751   -0.6898    8.3559 C   0  0  0  0  0  0  0  0  0  0  0  0
   17.0215   -0.3961    8.7082 N   0  0  0  0  0  0  0  0  0  0  0  0
   16.5387   -1.2955    9.5744 C   0  0  0  0  0  0  0  0  0  0  0  0
   15.2775   -1.2176   10.0723 O   0  0  0  0  0  0  0  0  0  0  0  0
   15.0941   -2.2688   10.9274 C   0  0  0  0  0  0  0  0  0  0  0  0
   16.2549   -3.0299   10.9748 C   0  0  0  0  0  0  0  0  0  0  0  0
   17.1887   -2.4075   10.0863 C   0  0  0  0  0  0  0  0  0  0  0  0
   13.7751   -2.3130   11.5595 C   0  0  0  0  0  0  0  0  0  0  0  0
   13.2707   -1.1830   12.2233 C   0  0  0  0  0  0  0  0  0  0  0  0
   12.0103   -1.2051   12.8268 C   0  0  0  0  0  0  0  0  0  0  0  0
   11.2357   -2.3607   12.7784 C   0  0  0  0  0  0  0  0  0  0  0  0
   11.7225   -3.4933   12.1309 C   0  0  0  0  0  0  0  0  0  0  0  0
   12.9841   -3.4699   11.5280 C   0  0  0  0  0  0  0  0  0  0  0  0
   16.4170   -4.2245   11.7778 C   0  0  0  0  0  0  0  0  0  0  0  0
   16.4246   -5.4832   11.1637 C   0  0  0  0  0  0  0  0  0  0  0  0
   16.5719   -6.6373   11.9344 C   0  0  0  0  0  0  0  0  0  0  0  0
   16.7133   -6.5387   13.3180 C   0  0  0  0  0  0  0  0  0  0  0  0
   16.7056   -5.2873   13.9338 C   0  0  0  0  0  0  0  0  0  0  0  0
   16.5563   -4.1306   13.1666 C   0  0  0  0  0  0  0  0  0  0  0  0
   19.2552   -3.7430   10.0062 N   0  0  0  0  0  0  0  0  0  0  0  0
   18.8357   -4.6047   10.2312 H   0  0  0  0  0  0  0  0  0  0  0  0
   20.7037   -3.5556   10.0474 C   0  0  0  0  0  0  0  0  0  0  0  0
   20.9922   -4.7492   12.1589 O   0  0  0  0  0  0  0  0  0  0  0  0
   21.2110   -3.5001   11.4944 C   0  0  0  0  0  0  0  0  0  0  0  0
   21.3195   -4.6923   13.0703 H   0  0  0  0  0  0  0  0  0  0  0  0
 25 26  1  0
 26 24  1  0
 24 22  1  0
 22  1  1  0
  1  2  2  0
  2  3  1  0
  3  4  2  0
  4  5  1  0
  5  6  1  0
  6  7  1  0
  7 10  1  0
 10 11  2  0
 11 12  1  0
 12 13  2  0
 13 14  1  0
 14 15  2  0
  7  8  2  0
  8 16  1  0
 16 17  2  0
 17 18  1  0
 18 19  2  0
 19 20  1  0
 20 21  2  0
  8  9  1  0
  9  1  1  0
  9  5  2  0
 15 10  1  0
 21 16  1  0
 25 27  1  0
 22 23  1  0
M  END
> <minimizedAffinity>
-7.73576

> <CNNscore>
0.7132932544

> <CNNaffinity>
6.3137512207

> <CNN_VS>
4.5035562515

> <CNNaffinity_variance>
0.0959098861

$$$$



 27 30  0  0  0  0  0  0  0  0999 V2000
   18.5160   -1.6100    9.0684 C   0  0  0  0  0  0  0  0  0  0  0  0
   17.8291   -0.7083    8.3236 N   0  0  0  0  0  0  0  0  0  0  0  0
   16.5313   -0.4801    8.5953 C   0  0  0  0  0  0  0  0  0  0  0  0
   15.7830   -1.0388    9.5491 N   0  0  0  0  0  0  0  0  0  0  0  0
   16.4942   -1.9116   10.2733 C   0  0  0  0  0  0  0  0  0  0  0  0
   15.9493   -2.6167   11.2983 O   0  0  0  0  0  0  0  0  0  0  0  0
   16.9271   -3.4073   11.8355 C   0  0  0  0  0  0  0  0  0  0  0  0
   18.1135   -3.2050   11.1422 C   0  0  0  0  0  0  0  0  0  0  0  0
   17.8307   -2.2450   10.1189 C   0  0  0  0  0  0  0  0  0  0  0  0
   16.4918   -4.2237   12.9692 C   0  0  0  0  0  0  0  0  0  0  0  0
   16.7301   -3.7924   14.2842 C   0  0  0  0  0  0  0  0  0  0  0  0
   16.3155   -4.5560   15.3789 C   0  0  0  0  0  0  0  0  0  0  0  0
   15.6584   -5.7660   15.1745 C   0  0  0  0  0  0  0  0  0  0  0  0
   15.4199   -6.2133   13.8776 C   0  0  0  0  0  0  0  0  0  0  0  0
   15.8359   -5.4485   12.7832 C   0  0  0  0  0  0  0  0  0  0  0  0
   19.3592   -3.8823   11.4385 C   0  0  0  0  0  0  0  0  0  0  0  0
   19.3643   -5.2621   11.6779 C   0  0  0  0  0  0  0  0  0  0  0  0
   20.5609   -5.9173   11.9722 C   0  0  0  0  0  0  0  0  0  0  0  0
   21.7543   -5.1985   12.0268 C   0  0  0  0  0  0  0  0  0  0  0  0
   21.7538   -3.8240   11.7897 C   0  0  0  0  0  0  0  0  0  0  0  0
   20.5586   -3.1647   11.4973 C   0  0  0  0  0  0  0  0  0  0  0  0
   19.8462   -1.8918    8.7502 N   0  0  0  0  0  0  0  0  0  0  0  0
   20.3221   -2.6610    9.1389 H   0  0  0  0  0  0  0  0  0  0  0  0
   20.4918   -0.9807    7.8079 C   0  0  0  0  0  0  0  0  0  0  0  0
   22.3007   -1.2793    6.1938 O   0  0  0  0  0  0  0  0  0  0  0  0
   21.9582   -1.3714    7.5808 C   0  0  0  0  0  0  0  0  0  0  0  0
   23.2299   -1.5300    6.0728 H   0  0  0  0  0  0  0  0  0  0  0  0
 25 26  1  0
 26 24  1  0
 24 22  1  0
 22  1  1  0
  1  2  2  0
  2  3  1  0
  3  4  2  0
  4  5  1  0
  5  6  1  0
  6  7  1  0
  7 10  1  0
 10 11  2  0
 11 12  1  0
 12 13  2  0
 13 14  1  0
 14 15  2  0
  7  8  2  0
  8 16  1  0
 16 17  2  0
 17 18  1  0
 18 19  2  0
 19 20  1  0
 20 21  2  0
  8  9  1  0
  9  1  1  0
  9  5  2  0
 15 10  1  0
 21 16  1  0
 25 27  1  0
 22 23  1  0
M  END
> <minimizedAffinity>
-6.89556

> <CNNscore>
0.5539356470

> <CNNaffinity>
6.0952563286

> <CNN_VS>
3.3763797283

> <CNNaffinity_variance>
0.0317689441

$$$$



 27 30  0  0  0  0  0  0  0  0999 V2000
   17.5531   -2.3257   10.7200 C   0  0  0  0  0  0  0  0  0  0  0  0
   16.3865   -1.7168   10.3914 N   0  0  0  0  0  0  0  0  0  0  0  0
   16.3255   -0.9653    9.2770 C   0  0  0  0  0  0  0  0  0  0  0  0
   17.2992   -0.7252    8.3960 N   0  0  0  0  0  0  0  0  0  0  0  0
   18.4306   -1.3514    8.7423 C   0  0  0  0  0  0  0  0  0  0  0  0
   19.5681   -1.2522    8.0068 O   0  0  0  0  0  0  0  0  0  0  0  0
   20.5329   -2.0065    8.6151 C   0  0  0  0  0  0  0  0  0  0  0  0
   20.0039   -2.5946    9.7567 C   0  0  0  0  0  0  0  0  0  0  0  0
   18.6435   -2.1591    9.8484 C   0  0  0  0  0  0  0  0  0  0  0  0
   21.8236   -2.0104    7.9256 C   0  0  0  0  0  0  0  0  0  0  0  0
   21.9706   -2.6865    6.7037 C   0  0  0  0  0  0  0  0  0  0  0  0
   23.1940   -2.6953    6.0280 C   0  0  0  0  0  0  0  0  0  0  0  0
   24.2914   -2.0298    6.5669 C   0  0  0  0  0  0  0  0  0  0  0  0
   24.1665   -1.3601    7.7814 C   0  0  0  0  0  0  0  0  0  0  0  0
   22.9418   -1.3528    8.4566 C   0  0  0  0  0  0  0  0  0  0  0  0
   20.7471   -3.4594   10.6502 C   0  0  0  0  0  0  0  0  0  0  0  0
   21.9249   -2.9971   11.2504 C   0  0  0  0  0  0  0  0  0  0  0  0
   22.6487   -3.8296   12.1051 C   0  0  0  0  0  0  0  0  0  0  0  0
   22.1989   -5.1237   12.3640 C   0  0  0  0  0  0  0  0  0  0  0  0
   21.0267   -5.5886   11.7679 C   0  0  0  0  0  0  0  0  0  0  0  0
   20.3012   -4.7595   10.9106 C   0  0  0  0  0  0  0  0  0  0  0  0
   17.6350   -3.0570   11.9068 N   0  0  0  0  0  0  0  0  0  0  0  0
   18.3315   -2.8798   12.5798 H   0  0  0  0  0  0  0  0  0  0  0  0
   16.6289   -4.0999   12.0935 C   0  0  0  0  0  0  0  0  0  0  0  0
   15.8939   -3.1141   14.2041 O   0  0  0  0  0  0  0  0  0  0  0  0
   16.3388   -4.3251   13.5834 C   0  0  0  0  0  0  0  0  0  0  0  0
   15.7166   -3.2785   15.1435 H   0  0  0  0  0  0  0  0  0  0  0  0
 25 26  1  0
 26 24  1  0
 24 22  1  0
 22  1  1  0
  1  2  2  0
  2  3  1  0
  3  4  2  0
  4  5  1  0
  5  6  1  0
  6  7  1  0
  7 10  1  0
 10 11  2  0
 11 12  1  0
 12 13  2  0
 13 14  1  0
 14 15  2  0
  7  8  2  0
  8 16  1  0
 16 17  2  0
 17 18  1  0
 18 19  2  0
 19 20  1  0
 20 21  2  0
  8  9  1  0
  9  1  1  0
  9  5  2  0
 15 10  1  0
 21 16  1  0
 25 27  1  0
 22 23  1  0
M  END
> <minimizedAffinity>
-5.93637

> <CNNscore>
0.5502846241

> <CNNaffinity>
5.9723243713

> <CNN_VS>
3.2864782810

> <CNNaffinity_variance>
0.0683765039

$$$$



 27 30  0  0  0  0  0  0  0  0999 V2000
   15.3024   -1.8449   10.4650 C   0  0  0  0  0  0  0  0  0  0  0  0
   15.0468   -0.8950    9.5313 N   0  0  0  0  0  0  0  0  0  0  0  0
   16.0610   -0.4004    8.7984 C   0  0  0  0  0  0  0  0  0  0  0  0
   17.3524   -0.7333    8.8560 N   0  0  0  0  0  0  0  0  0  0  0  0
   17.5672   -1.6817    9.7761 C   0  0  0  0  0  0  0  0  0  0  0  0
   18.8054   -2.1796   10.0282 O   0  0  0  0  0  0  0  0  0  0  0  0
   18.6893   -3.1287   11.0057 C   0  0  0  0  0  0  0  0  0  0  0  0
   17.3575   -3.2372   11.3843 C   0  0  0  0  0  0  0  0  0  0  0  0
   16.6298   -2.2887   10.5972 C   0  0  0  0  0  0  0  0  0  0  0  0
   19.9497   -3.7717   11.3790 C   0  0  0  0  0  0  0  0  0  0  0  0
   21.1477   -3.0392   11.3683 C   0  0  0  0  0  0  0  0  0  0  0  0
   22.3596   -3.6352   11.7281 C   0  0  0  0  0  0  0  0  0  0  0  0
   22.3920   -4.9758   12.1013 C   0  0  0  0  0  0  0  0  0  0  0  0
   21.2151   -5.7200   12.1108 C   0  0  0  0  0  0  0  0  0  0  0  0
   20.0033   -5.1224   11.7499 C   0  0  0  0  0  0  0  0  0  0  0  0
   16.8680   -4.1451   12.4014 C   0  0  0  0  0  0  0  0  0  0  0  0
   16.9487   -3.7886   13.7533 C   0  0  0  0  0  0  0  0  0  0  0  0
   16.4863   -4.6638   14.7370 C   0  0  0  0  0  0  0  0  0  0  0  0
   15.9414   -5.8951   14.3748 C   0  0  0  0  0  0  0  0  0  0  0  0
   15.8596   -6.2545   13.0296 C   0  0  0  0  0  0  0  0  0  0  0  0
   16.3232   -5.3827   12.0428 C   0  0  0  0  0  0  0  0  0  0  0  0
   14.2612   -2.3164   11.2673 N   0  0  0  0  0  0  0  0  0  0  0  0
   14.4278   -2.7348   12.1428 H   0  0  0  0  0  0  0  0  0  0  0  0
   12.9106   -2.1535   10.7343 C   0  0  0  0  0  0  0  0  0  0  0  0
   11.6235   -3.3504   12.4306 O   0  0  0  0  0  0  0  0  0  0  0  0
   12.0388   -3.3734   11.0607 C   0  0  0  0  0  0  0  0  0  0  0  0
   11.0747   -4.1286   12.6152 H   0  0  0  0  0  0  0  0  0  0  0  0
 25 26  1  0
 26 24  1  0
 24 22  1  0
 22  1  1  0
  1  2  2  0
  2  3  1  0
  3  4  2  0
  4  5  1  0
  5  6  1  0
  6  7  1  0
  7 10  1  0
 10 11  2  0
 11 12  1  0
 12 13  2  0
 13 14  1  0
 14 15  2  0
  7  8  2  0
  8 16  1  0
 16 17  2  0
 17 18  1  0
 18 19  2  0
 19 20  1  0
 20 21  2  0
  8  9  1  0
  9  1  1  0
  9  5  2  0
 15 10  1  0
 21 16  1  0
 25 27  1  0
 22 23  1  0
M  END
> <minimizedAffinity>
-7.24264

> <CNNscore>
0.4564362764

> <CNNaffinity>
6.3341693878

> <CNN_VS>
2.8911447525

> <CNNaffinity_variance>
0.0796295181

$$$$
