


 29 30  0  0  0  0  0  0  0  0999 V2000
   33.9451   23.4492   28.0032 C   0  0  0  0  0  0  0  0  0  0  0  0
   33.2810   24.5846   27.4326 O   0  0  0  0  0  0  0  0  0  0  0  0
   32.3938   24.3064   26.3394 C   0  0  0  0  0  0  0  0  0  0  0  0
   32.4914   22.8753   25.7644 C   0  0  0  0  0  0  0  0  0  0  0  0
   32.3723   21.8048   26.8721 C   0  0  0  0  0  0  0  0  0  0  0  0
   32.9580   22.2778   28.2245 C   0  0  0  0  0  0  0  0  0  0  0  0
   36.5447   24.2884   30.5413 C   0  0  0  0  0  0  0  0  0  0  0  0
   35.9282   23.8400   29.4411 C   0  0  0  0  0  0  0  0  0  0  0  0
   34.5541   23.8897   29.2714 N   0  0  0  0  0  0  0  0  0  0  0  0
   33.7230   24.4463   30.2342 C   0  0  0  0  0  0  0  0  0  0  0  0
   32.5007   24.5327   30.1472 O   0  0  0  0  0  0  0  0  0  0  0  0
   34.3543   24.9073   31.3611 N   0  0  0  0  0  0  0  0  0  0  0  0
   35.6975   24.8709   31.6157 C   0  0  0  0  0  0  0  0  0  0  0  0
   36.1615   25.2978   32.6691 O   0  0  0  0  0  0  0  0  0  0  0  0
   33.7827   25.3048   32.0572 H   0  0  0  0  0  0  0  0  0  0  0  0
   39.1525   24.1510   30.7937 C   0  0  0  0  0  0  0  0  0  0  0  0
   37.9588   24.2129   30.6741 C   0  0  0  0  0  0  0  0  0  0  0  0
   40.6112   24.0848   30.9590 C   0  0  0  0  0  0  0  0  0  0  0  0
   42.5157   23.4115   32.5077 C   0  0  0  0  0  0  0  0  0  0  0  0
   41.0148   23.6236   32.3594 C   0  0  0  0  0  0  0  0  0  0  0  0
   30.9659   24.6734   26.7727 C   0  0  0  0  0  0  0  0  0  0  0  0
   30.1654   25.0147   25.6485 O   0  0  0  0  0  0  0  0  0  0  0  0
   30.5513   25.7821   25.1979 H   0  0  0  0  0  0  0  0  0  0  0  0
   33.7754   22.6765   25.1352 O   0  0  0  0  0  0  0  0  0  0  0  0
   34.4778   23.8876   24.8837 C   0  0  0  0  0  0  0  0  0  0  0  0
   30.9888   21.4574   27.1077 O   0  0  0  0  0  0  0  0  0  0  0  0
   30.2041   21.4613   25.9200 C   0  0  0  0  0  0  0  0  0  0  0  0
   33.6157   21.1949   28.9144 O   0  0  0  0  0  0  0  0  0  0  0  0
   33.1064   19.9126   28.5745 C   0  0  0  0  0  0  0  0  0  0  0  0
 19 20  1  0
 20 18  1  0
 18 16  1  0
 16 17  3  0
 17  7  1  0
  7  8  2  0
  8  9  1  0
  1  9  1  0
  1  2  1  0
  2  3  1  0
  3 21  1  0
 21 22  1  0
  3  4  1  0
  4 24  1  0
 24 25  1  0
  4  5  1  0
  5 26  1  0
 26 27  1  0
  5  6  1  0
  6 28  1  0
 28 29  1  0
  9 10  1  0
 10 11  2  0
 10 12  1  0
 12 13  1  0
 13 14  2  0
 13  7  1  0
  6  1  1  0
 22 23  1  0
 12 15  1  0
M  END
> <minimizedAffinity>
-7.60419

> <CNNscore>
0.5382268429

> <CNNaffinity>
4.5433864594

> <CNN_VS>
2.4453725815

> <CNNaffinity_variance>
1.0795966387

$$$$



 29 30  0  0  0  0  0  0  0  0999 V2000
   33.9456   13.8957   31.2344 C   0  0  0  0  0  0  0  0  0  0  0  0
   35.0150   13.4951   32.1013 O   0  0  0  0  0  0  0  0  0  0  0  0
   35.9764   12.5935   31.5335 C   0  0  0  0  0  0  0  0  0  0  0  0
   35.5739   11.9771   30.1748 C   0  0  0  0  0  0  0  0  0  0  0  0
   35.1502   13.0610   29.1585 C   0  0  0  0  0  0  0  0  0  0  0  0
   34.4773   14.2809   29.8328 C   0  0  0  0  0  0  0  0  0  0  0  0
   32.1859   15.9098   33.8326 C   0  0  0  0  0  0  0  0  0  0  0  0
   32.7585   14.8993   33.1674 C   0  0  0  0  0  0  0  0  0  0  0  0
   33.2579   15.0278   31.8815 N   0  0  0  0  0  0  0  0  0  0  0  0
   33.2231   16.2405   31.2066 C   0  0  0  0  0  0  0  0  0  0  0  0
   33.6545   16.4298   30.0721 O   0  0  0  0  0  0  0  0  0  0  0  0
   32.6379   17.2767   31.8884 N   0  0  0  0  0  0  0  0  0  0  0  0
   32.0995   17.2252   33.1444 C   0  0  0  0  0  0  0  0  0  0  0  0
   31.5818   18.2117   33.6604 O   0  0  0  0  0  0  0  0  0  0  0  0
   32.6017   18.1456   31.4268 H   0  0  0  0  0  0  0  0  0  0  0  0
   31.2506   15.5791   36.2614 C   0  0  0  0  0  0  0  0  0  0  0  0
   31.6827   15.7307   35.1509 C   0  0  0  0  0  0  0  0  0  0  0  0
   30.7023   15.3969   37.6126 C   0  0  0  0  0  0  0  0  0  0  0  0
   30.1419   13.0327   36.8541 C   0  0  0  0  0  0  0  0  0  0  0  0
   30.6005   13.9222   38.0021 C   0  0  0  0  0  0  0  0  0  0  0  0
   37.3347   13.3101   31.4785 C   0  0  0  0  0  0  0  0  0  0  0  0
   37.2368   14.6265   32.0063 O   0  0  0  0  0  0  0  0  0  0  0  0
   36.6030   15.1392   31.4807 H   0  0  0  0  0  0  0  0  0  0  0  0
   34.4385   11.1011   30.3408 O   0  0  0  0  0  0  0  0  0  0  0  0
   34.4210   10.4255   31.5923 C   0  0  0  0  0  0  0  0  0  0  0  0
   36.2940   13.5583   28.4272 O   0  0  0  0  0  0  0  0  0  0  0  0
   36.0663   13.6361   27.0242 C   0  0  0  0  0  0  0  0  0  0  0  0
   33.4060   14.8009   29.0186 O   0  0  0  0  0  0  0  0  0  0  0  0
   33.1497   14.0263   27.8551 C   0  0  0  0  0  0  0  0  0  0  0  0
 19 20  1  0
 20 18  1  0
 18 16  1  0
 16 17  3  0
 17  7  1  0
  7  8  2  0
  8  9  1  0
  1  9  1  0
  1  2  1  0
  2  3  1  0
  3 21  1  0
 21 22  1  0
  3  4  1  0
  4 24  1  0
 24 25  1  0
  4  5  1  0
  5 26  1  0
 26 27  1  0
  5  6  1  0
  6 28  1  0
 28 29  1  0
  9 10  1  0
 10 11  2  0
 10 12  1  0
 12 13  1  0
 13 14  2  0
 13  7  1  0
  6  1  1  0
 22 23  1  0
 12 15  1  0
M  END
> <minimizedAffinity>
73.93457

> <CNNscore>
0.5356892347

> <CNNaffinity>
5.8120174408

> <CNN_VS>
3.1134352684

> <CNNaffinity_variance>
1.5129424334

$$$$



 29 30  0  0  0  0  0  0  0  0999 V2000
   33.0837   23.4664   27.9388 C   0  0  0  0  0  0  0  0  0  0  0  0
   32.2738   22.3442   28.3138 O   0  0  0  0  0  0  0  0  0  0  0  0
   31.7055   21.5931   27.2310 C   0  0  0  0  0  0  0  0  0  0  0  0
   31.8227   22.2572   25.8405 C   0  0  0  0  0  0  0  0  0  0  0  0
   33.2758   22.6806   25.5299 C   0  0  0  0  0  0  0  0  0  0  0  0
   34.0611   23.0934   26.7982 C   0  0  0  0  0  0  0  0  0  0  0  0
   35.8980   24.1971   30.2733 C   0  0  0  0  0  0  0  0  0  0  0  0
   35.1792   23.7547   29.2345 C   0  0  0  0  0  0  0  0  0  0  0  0
   33.8052   23.9086   29.1460 N   0  0  0  0  0  0  0  0  0  0  0  0
   33.0835   24.5704   30.1302 C   0  0  0  0  0  0  0  0  0  0  0  0
   31.8687   24.7520   30.1133 O   0  0  0  0  0  0  0  0  0  0  0  0
   33.8198   25.0253   31.1941 N   0  0  0  0  0  0  0  0  0  0  0  0
   35.1695   24.8907   31.3685 C   0  0  0  0  0  0  0  0  0  0  0  0
   35.7320   25.3221   32.3709 O   0  0  0  0  0  0  0  0  0  0  0  0
   33.3268   25.4965   31.9042 H   0  0  0  0  0  0  0  0  0  0  0  0
   38.4968   23.8506   30.3704 C   0  0  0  0  0  0  0  0  0  0  0  0
   37.3075   24.0128   30.3238 C   0  0  0  0  0  0  0  0  0  0  0  0
   39.9490   23.6370   30.4421 C   0  0  0  0  0  0  0  0  0  0  0  0
   41.9915   23.5725   31.9595 C   0  0  0  0  0  0  0  0  0  0  0  0
   40.4893   23.8036   31.8623 C   0  0  0  0  0  0  0  0  0  0  0  0
   32.3017   20.1771   27.2621 C   0  0  0  0  0  0  0  0  0  0  0  0
   31.3951   19.2568   27.8554 O   0  0  0  0  0  0  0  0  0  0  0  0
   31.2109   19.5274   28.7685 H   0  0  0  0  0  0  0  0  0  0  0  0
   31.0239   23.4587   25.7921 O   0  0  0  0  0  0  0  0  0  0  0  0
   29.6376   23.2278   26.0113 C   0  0  0  0  0  0  0  0  0  0  0  0
   34.0080   21.5980   24.9116 O   0  0  0  0  0  0  0  0  0  0  0  0
   33.6806   20.3235   25.4544 C   0  0  0  0  0  0  0  0  0  0  0  0
   34.9513   24.1949   26.5241 O   0  0  0  0  0  0  0  0  0  0  0  0
   35.2190   24.3779   25.1405 C   0  0  0  0  0  0  0  0  0  0  0  0
 19 20  1  0
 20 18  1  0
 18 16  1  0
 16 17  3  0
 17  7  1  0
  7  8  2  0
  8  9  1  0
  1  9  1  0
  1  2  1  0
  2  3  1  0
  3 21  1  0
 21 22  1  0
  3  4  1  0
  4 24  1  0
 24 25  1  0
  4  5  1  0
  5 26  1  0
 26 27  1  0
  5  6  1  0
  6 28  1  0
 28 29  1  0
  9 10  1  0
 10 11  2  0
 10 12  1  0
 12 13  1  0
 13 14  2  0
 13  7  1  0
  6  1  1  0
 22 23  1  0
 12 15  1  0
M  END
> <minimizedAffinity>
-9.05205

> <CNNscore>
0.4892812371

> <CNNaffinity>
4.7987098694

> <CNN_VS>
2.3479187489

> <CNNaffinity_variance>
0.6874832511

$$$$



 29 30  0  0  0  0  0  0  0  0999 V2000
   36.9535   25.0205   31.7433 C   0  0  0  0  0  0  0  0  0  0  0  0
   37.4876   23.7010   31.5718 O   0  0  0  0  0  0  0  0  0  0  0  0
   38.9130   23.5829   31.6895 C   0  0  0  0  0  0  0  0  0  0  0  0
   39.6820   24.9232   31.7110 C   0  0  0  0  0  0  0  0  0  0  0  0
   39.1088   25.8941   32.7674 C   0  0  0  0  0  0  0  0  0  0  0  0
   37.5838   25.7231   32.9699 C   0  0  0  0  0  0  0  0  0  0  0  0
   33.3523   24.6957   30.8322 C   0  0  0  0  0  0  0  0  0  0  0  0
   34.6763   24.8822   30.7696 C   0  0  0  0  0  0  0  0  0  0  0  0
   35.4926   24.8861   31.8889 N   0  0  0  0  0  0  0  0  0  0  0  0
   34.9829   24.6610   33.1605 C   0  0  0  0  0  0  0  0  0  0  0  0
   35.6468   24.6406   34.1938 O   0  0  0  0  0  0  0  0  0  0  0  0
   33.6266   24.4682   33.2251 N   0  0  0  0  0  0  0  0  0  0  0  0
   32.7512   24.4759   32.1744 C   0  0  0  0  0  0  0  0  0  0  0  0
   31.5467   24.3085   32.3431 O   0  0  0  0  0  0  0  0  0  0  0  0
   33.2445   24.3081   34.1181 H   0  0  0  0  0  0  0  0  0  0  0  0
   31.8734   24.7177   28.6653 C   0  0  0  0  0  0  0  0  0  0  0  0
   32.5522   24.7041   29.6562 C   0  0  0  0  0  0  0  0  0  0  0  0
   31.0312   24.7502   27.4614 C   0  0  0  0  0  0  0  0  0  0  0  0
   32.2320   22.5270   27.1536 C   0  0  0  0  0  0  0  0  0  0  0  0
   31.2828   23.5517   26.5465 C   0  0  0  0  0  0  0  0  0  0  0  0
   39.2241   22.7030   32.9103 C   0  0  0  0  0  0  0  0  0  0  0  0
   40.5884   22.8255   33.2908 O   0  0  0  0  0  0  0  0  0  0  0  0
   41.1555   22.5377   32.5583 H   0  0  0  0  0  0  0  0  0  0  0  0
   39.5645   25.5868   30.4344 O   0  0  0  0  0  0  0  0  0  0  0  0
   38.6861   24.9273   29.5306 C   0  0  0  0  0  0  0  0  0  0  0  0
   39.7334   25.6842   34.0543 O   0  0  0  0  0  0  0  0  0  0  0  0
   40.6002   26.7482   34.4322 C   0  0  0  0  0  0  0  0  0  0  0  0
   36.9431   26.9950   33.1999 O   0  0  0  0  0  0  0  0  0  0  0  0
   37.2969   27.5930   34.4395 C   0  0  0  0  0  0  0  0  0  0  0  0
 19 20  1  0
 20 18  1  0
 18 16  1  0
 16 17  3  0
 17  7  1  0
  7  8  2  0
  8  9  1  0
  1  9  1  0
  1  2  1  0
  2  3  1  0
  3 21  1  0
 21 22  1  0
  3  4  1  0
  4 24  1  0
 24 25  1  0
  4  5  1  0
  5 26  1  0
 26 27  1  0
  5  6  1  0
  6 28  1  0
 28 29  1  0
  9 10  1  0
 10 11  2  0
 10 12  1  0
 12 13  1  0
 13 14  2  0
 13  7  1  0
  6  1  1  0
 22 23  1  0
 12 15  1  0
M  END
> <minimizedAffinity>
-4.48302

> <CNNscore>
0.4669528306

> <CNNaffinity>
4.4970068932

> <CNN_VS>
2.0998899937

> <CNNaffinity_variance>
0.6526118517

$$$$



 29 30  0  0  0  0  0  0  0  0999 V2000
   32.9693   22.9521   28.5205 C   0  0  0  0  0  0  0  0  0  0  0  0
   33.8397   22.2276   27.6411 O   0  0  0  0  0  0  0  0  0  0  0  0
   33.2431   21.7442   26.4286 C   0  0  0  0  0  0  0  0  0  0  0  0
   31.7014   21.8363   26.3751 C   0  0  0  0  0  0  0  0  0  0  0  0
   31.2013   23.2568   26.7209 C   0  0  0  0  0  0  0  0  0  0  0  0
   32.1155   23.9798   27.7393 C   0  0  0  0  0  0  0  0  0  0  0  0
   36.0198   24.1612   30.2915 C   0  0  0  0  0  0  0  0  0  0  0  0
   35.1974   23.5296   29.4452 C   0  0  0  0  0  0  0  0  0  0  0  0
   33.8170   23.6104   29.5311 N   0  0  0  0  0  0  0  0  0  0  0  0
   33.1937   24.3902   30.4959 C   0  0  0  0  0  0  0  0  0  0  0  0
   31.9787   24.5164   30.6249 O   0  0  0  0  0  0  0  0  0  0  0  0
   34.0360   25.0389   31.3624 N   0  0  0  0  0  0  0  0  0  0  0  0
   35.4026   24.9898   31.3610 C   0  0  0  0  0  0  0  0  0  0  0  0
   36.0663   25.5983   32.1957 O   0  0  0  0  0  0  0  0  0  0  0  0
   33.6140   25.5964   32.0555 H   0  0  0  0  0  0  0  0  0  0  0  0
   38.6245   23.9412   30.0667 C   0  0  0  0  0  0  0  0  0  0  0  0
   37.4321   24.0458   30.1680 C   0  0  0  0  0  0  0  0  0  0  0  0
   40.0826   23.7959   29.9549 C   0  0  0  0  0  0  0  0  0  0  0  0
   42.2454   23.4260   31.2450 C   0  0  0  0  0  0  0  0  0  0  0  0
   40.7712   23.8012   31.3197 C   0  0  0  0  0  0  0  0  0  0  0  0
   33.9192   22.4517   25.2438 C   0  0  0  0  0  0  0  0  0  0  0  0
   33.0670   22.4648   24.1060 O   0  0  0  0  0  0  0  0  0  0  0  0
   32.8682   21.5533   23.8404 H   0  0  0  0  0  0  0  0  0  0  0  0
   31.1139   20.9445   27.3465 O   0  0  0  0  0  0  0  0  0  0  0  0
   31.8006   19.7047   27.4671 C   0  0  0  0  0  0  0  0  0  0  0  0
   31.1449   24.0864   25.5382 O   0  0  0  0  0  0  0  0  0  0  0  0
   29.8176   24.2963   25.0686 C   0  0  0  0  0  0  0  0  0  0  0  0
   31.3424   24.7839   28.6540 O   0  0  0  0  0  0  0  0  0  0  0  0
   30.8621   25.9924   28.0812 C   0  0  0  0  0  0  0  0  0  0  0  0
 19 20  1  0
 20 18  1  0
 18 16  1  0
 16 17  3  0
 17  7  1  0
  7  8  2  0
  8  9  1  0
  1  9  1  0
  1  2  1  0
  2  3  1  0
  3 21  1  0
 21 22  1  0
  3  4  1  0
  4 24  1  0
 24 25  1  0
  4  5  1  0
  5 26  1  0
 26 27  1  0
  5  6  1  0
  6 28  1  0
 28 29  1  0
  9 10  1  0
 10 11  2  0
 10 12  1  0
 12 13  1  0
 13 14  2  0
 13  7  1  0
  6  1  1  0
 22 23  1  0
 12 15  1  0
M  END
> <minimizedAffinity>
-8.66306

> <CNNscore>
0.4252529740

> <CNNaffinity>
4.8315773010

> <CNN_VS>
2.0546426773

> <CNNaffinity_variance>
0.4068535268

$$$$



 29 30  0  0  0  0  0  0  0  0999 V2000
   33.4965   24.1260   28.5861 C   0  0  0  0  0  0  0  0  0  0  0  0
   32.7077   25.2954   28.3287 O   0  0  0  0  0  0  0  0  0  0  0  0
   31.8642   25.2383   27.1690 C   0  0  0  0  0  0  0  0  0  0  0  0
   32.1303   24.0453   26.2234 C   0  0  0  0  0  0  0  0  0  0  0  0
   32.1310   22.7011   26.9853 C   0  0  0  0  0  0  0  0  0  0  0  0
   32.6512   22.8382   28.4367 C   0  0  0  0  0  0  0  0  0  0  0  0
   35.9710   24.4627   31.3551 C   0  0  0  0  0  0  0  0  0  0  0  0
   35.4142   24.2772   30.1522 C   0  0  0  0  0  0  0  0  0  0  0  0
   34.0440   24.2583   29.9485 N   0  0  0  0  0  0  0  0  0  0  0  0
   33.1516   24.4662   30.9915 C   0  0  0  0  0  0  0  0  0  0  0  0
   31.9281   24.4727   30.8832 O   0  0  0  0  0  0  0  0  0  0  0  0
   33.7217   24.6579   32.2242 N   0  0  0  0  0  0  0  0  0  0  0  0
   35.0586   24.6643   32.5119 C   0  0  0  0  0  0  0  0  0  0  0  0
   35.4663   24.8293   33.6582 O   0  0  0  0  0  0  0  0  0  0  0  0
   33.1062   24.8059   32.9781 H   0  0  0  0  0  0  0  0  0  0  0  0
   38.5766   24.4721   31.6618 C   0  0  0  0  0  0  0  0  0  0  0  0
   37.3840   24.4701   31.5180 C   0  0  0  0  0  0  0  0  0  0  0  0
   40.0331   24.4666   31.8574 C   0  0  0  0  0  0  0  0  0  0  0  0
   42.2154   23.4290   31.0574 C   0  0  0  0  0  0  0  0  0  0  0  0
   40.7674   23.7583   30.7191 C   0  0  0  0  0  0  0  0  0  0  0  0
   30.4013   25.3096   27.6336 C   0  0  0  0  0  0  0  0  0  0  0  0
   30.2866   26.0531   28.8399 O   0  0  0  0  0  0  0  0  0  0  0  0
   30.8044   25.6204   29.5368 H   0  0  0  0  0  0  0  0  0  0  0  0
   33.4318   24.1733   25.6121 O   0  0  0  0  0  0  0  0  0  0  0  0
   33.9452   22.9464   25.1077 C   0  0  0  0  0  0  0  0  0  0  0  0
   30.7961   22.1514   27.0636 O   0  0  0  0  0  0  0  0  0  0  0  0
   30.5161   21.2202   26.0240 C   0  0  0  0  0  0  0  0  0  0  0  0
   33.4269   21.6849   28.8230 O   0  0  0  0  0  0  0  0  0  0  0  0
   33.3370   20.6059   27.9027 C   0  0  0  0  0  0  0  0  0  0  0  0
 19 20  1  0
 20 18  1  0
 18 16  1  0
 16 17  3  0
 17  7  1  0
  7  8  2  0
  8  9  1  0
  1  9  1  0
  1  2  1  0
  2  3  1  0
  3 21  1  0
 21 22  1  0
  3  4  1  0
  4 24  1  0
 24 25  1  0
  4  5  1  0
  5 26  1  0
 26 27  1  0
  5  6  1  0
  6 28  1  0
 28 29  1  0
  9 10  1  0
 10 11  2  0
 10 12  1  0
 12 13  1  0
 13 14  2  0
 13  7  1  0
  6  1  1  0
 22 23  1  0
 12 15  1  0
M  END
> <minimizedAffinity>
-7.61897

> <CNNscore>
0.4125800133

> <CNNaffinity>
4.6407752037

> <CNN_VS>
1.9146910906

> <CNNaffinity_variance>
0.7004895210

$$$$



 29 30  0  0  0  0  0  0  0  0999 V2000
   33.9361   14.6443   30.6553 C   0  0  0  0  0  0  0  0  0  0  0  0
   34.7992   14.7220   31.7976 O   0  0  0  0  0  0  0  0  0  0  0  0
   35.6182   13.5693   32.0424 C   0  0  0  0  0  0  0  0  0  0  0  0
   35.2558   12.3191   31.2093 C   0  0  0  0  0  0  0  0  0  0  0  0
   35.1748   12.6416   29.7004 C   0  0  0  0  0  0  0  0  0  0  0  0
   34.6884   14.0847   29.4239 C   0  0  0  0  0  0  0  0  0  0  0  0
   33.0513   17.7796   28.8412 C   0  0  0  0  0  0  0  0  0  0  0  0
   33.5574   16.5799   29.1509 C   0  0  0  0  0  0  0  0  0  0  0  0
   33.4207   16.0023   30.4027 N   0  0  0  0  0  0  0  0  0  0  0  0
   32.7112   16.6289   31.4183 C   0  0  0  0  0  0  0  0  0  0  0  0
   32.5415   16.1730   32.5462 O   0  0  0  0  0  0  0  0  0  0  0  0
   32.1910   17.8577   31.1010 N   0  0  0  0  0  0  0  0  0  0  0  0
   32.3038   18.5057   29.9021 C   0  0  0  0  0  0  0  0  0  0  0  0
   31.8121   19.6168   29.7258 O   0  0  0  0  0  0  0  0  0  0  0  0
   31.6852   18.3199   31.8079 H   0  0  0  0  0  0  0  0  0  0  0  0
   33.3590   18.8123   26.4491 C   0  0  0  0  0  0  0  0  0  0  0  0
   33.2201   18.3361   27.5431 C   0  0  0  0  0  0  0  0  0  0  0  0
   33.5151   19.4102   25.1158 C   0  0  0  0  0  0  0  0  0  0  0  0
   32.0100   21.3177   25.8739 C   0  0  0  0  0  0  0  0  0  0  0  0
   33.2762   20.9200   25.1268 C   0  0  0  0  0  0  0  0  0  0  0  0
   37.0898   13.9811   31.8811 C   0  0  0  0  0  0  0  0  0  0  0  0
   37.2206   15.3962   31.8435 O   0  0  0  0  0  0  0  0  0  0  0  0
   36.7239   15.7468   31.0877 H   0  0  0  0  0  0  0  0  0  0  0  0
   33.9566   11.8216   31.5949 O   0  0  0  0  0  0  0  0  0  0  0  0
   33.9441   10.4281   31.8797 C   0  0  0  0  0  0  0  0  0  0  0  0
   36.4699   12.5031   29.0727 O   0  0  0  0  0  0  0  0  0  0  0  0
   37.2259   11.4141   29.5912 C   0  0  0  0  0  0  0  0  0  0  0  0
   33.8415   14.1343   28.2571 O   0  0  0  0  0  0  0  0  0  0  0  0
   34.3370   13.3745   27.1632 C   0  0  0  0  0  0  0  0  0  0  0  0
 19 20  1  0
 20 18  1  0
 18 16  1  0
 16 17  3  0
 17  7  1  0
  7  8  2  0
  8  9  1  0
  1  9  1  0
  1  2  1  0
  2  3  1  0
  3 21  1  0
 21 22  1  0
  3  4  1  0
  4 24  1  0
 24 25  1  0
  4  5  1  0
  5 26  1  0
 26 27  1  0
  5  6  1  0
  6 28  1  0
 28 29  1  0
  9 10  1  0
 10 11  2  0
 10 12  1  0
 12 13  1  0
 13 14  2  0
 13  7  1  0
  6  1  1  0
 22 23  1  0
 12 15  1  0
M  END
> <minimizedAffinity>
44.67095

> <CNNscore>
0.3584857881

> <CNNaffinity>
5.5416336060

> <CNN_VS>
1.9865969419

> <CNNaffinity_variance>
0.1649401337

$$$$



 29 30  0  0  0  0  0  0  0  0999 V2000
   33.7721   23.1213   28.5032 C   0  0  0  0  0  0  0  0  0  0  0  0
   34.3555   22.3161   27.4702 O   0  0  0  0  0  0  0  0  0  0  0  0
   33.4438   21.7984   26.4903 C   0  0  0  0  0  0  0  0  0  0  0  0
   31.9469   21.9544   26.8412 C   0  0  0  0  0  0  0  0  0  0  0  0
   31.5975   23.4108   27.2207 C   0  0  0  0  0  0  0  0  0  0  0  0
   32.7703   24.1442   27.9153 C   0  0  0  0  0  0  0  0  0  0  0  0
   35.7222   24.7104   31.2556 C   0  0  0  0  0  0  0  0  0  0  0  0
   34.7338   24.1606   30.5398 C   0  0  0  0  0  0  0  0  0  0  0  0
   34.8768   23.7926   29.2119 N   0  0  0  0  0  0  0  0  0  0  0  0
   36.0833   23.9445   28.5418 C   0  0  0  0  0  0  0  0  0  0  0  0
   36.2849   23.6322   27.3711 O   0  0  0  0  0  0  0  0  0  0  0  0
   37.0969   24.5064   29.2753 N   0  0  0  0  0  0  0  0  0  0  0  0
   37.0289   24.9195   30.5772 C   0  0  0  0  0  0  0  0  0  0  0  0
   37.9949   25.4279   31.1391 O   0  0  0  0  0  0  0  0  0  0  0  0
   37.9608   24.6243   28.8182 H   0  0  0  0  0  0  0  0  0  0  0  0
   35.3722   25.3895   33.7654 C   0  0  0  0  0  0  0  0  0  0  0  0
   35.5286   25.0770   32.6162 C   0  0  0  0  0  0  0  0  0  0  0  0
   35.2018   25.7755   35.1731 C   0  0  0  0  0  0  0  0  0  0  0  0
   37.5363   26.7318   34.8349 C   0  0  0  0  0  0  0  0  0  0  0  0
   36.5238   26.1762   35.8277 C   0  0  0  0  0  0  0  0  0  0  0  0
   33.7992   22.4150   25.1284 C   0  0  0  0  0  0  0  0  0  0  0  0
   32.7465   22.2222   24.1927 O   0  0  0  0  0  0  0  0  0  0  0  0
   32.5975   21.2723   24.0649 H   0  0  0  0  0  0  0  0  0  0  0  0
   31.6147   21.1392   27.9854 O   0  0  0  0  0  0  0  0  0  0  0  0
   31.9828   19.7735   27.8354 C   0  0  0  0  0  0  0  0  0  0  0  0
   31.2513   24.1812   26.0473 O   0  0  0  0  0  0  0  0  0  0  0  0
   29.9510   23.8839   25.5502 C   0  0  0  0  0  0  0  0  0  0  0  0
   32.2922   25.0263   28.9518 O   0  0  0  0  0  0  0  0  0  0  0  0
   31.1237   25.7487   28.5883 C   0  0  0  0  0  0  0  0  0  0  0  0
 19 20  1  0
 20 18  1  0
 18 16  1  0
 16 17  3  0
 17  7  1  0
  7  8  2  0
  8  9  1  0
  1  9  1  0
  1  2  1  0
  2  3  1  0
  3 21  1  0
 21 22  1  0
  3  4  1  0
  4 24  1  0
 24 25  1  0
  4  5  1  0
  5 26  1  0
 26 27  1  0
  5  6  1  0
  6 28  1  0
 28 29  1  0
  9 10  1  0
 10 11  2  0
 10 12  1  0
 12 13  1  0
 13 14  2  0
 13  7  1  0
  6  1  1  0
 22 23  1  0
 12 15  1  0
M  END
> <minimizedAffinity>
-6.61224

> <CNNscore>
0.3179744482

> <CNNaffinity>
4.3118605614

> <CNN_VS>
1.3710614443

> <CNNaffinity_variance>
0.4498184621

$$$$



 29 30  0  0  0  0  0  0  0  0999 V2000
   34.1663   13.6735   30.6833 C   0  0  0  0  0  0  0  0  0  0  0  0
   34.7449   13.4964   31.9832 O   0  0  0  0  0  0  0  0  0  0  0  0
   35.5607   12.3277   32.1509 C   0  0  0  0  0  0  0  0  0  0  0  0
   35.4753   11.2985   31.0014 C   0  0  0  0  0  0  0  0  0  0  0  0
   35.7136   11.9581   29.6247 C   0  0  0  0  0  0  0  0  0  0  0  0
   35.2097   13.4205   29.5684 C   0  0  0  0  0  0  0  0  0  0  0  0
   32.7907   16.9539   31.8016 C   0  0  0  0  0  0  0  0  0  0  0  0
   33.2183   15.6857   31.7811 C   0  0  0  0  0  0  0  0  0  0  0  0
   33.6343   15.0471   30.6242 N   0  0  0  0  0  0  0  0  0  0  0  0
   33.6638   15.7048   29.4018 C   0  0  0  0  0  0  0  0  0  0  0  0
   34.0287   15.2060   28.3403 O   0  0  0  0  0  0  0  0  0  0  0  0
   33.2272   17.0048   29.4226 N   0  0  0  0  0  0  0  0  0  0  0  0
   32.7775   17.6964   30.5133 C   0  0  0  0  0  0  0  0  0  0  0  0
   32.3915   18.8582   30.4205 O   0  0  0  0  0  0  0  0  0  0  0  0
   33.2387   17.4892   28.5655 H   0  0  0  0  0  0  0  0  0  0  0  0
   32.0049   18.0839   34.0351 C   0  0  0  0  0  0  0  0  0  0  0  0
   32.3685   17.5679   33.0132 C   0  0  0  0  0  0  0  0  0  0  0  0
   31.5397   18.7120   35.2796 C   0  0  0  0  0  0  0  0  0  0  0  0
   31.7796   16.3817   36.2751 C   0  0  0  0  0  0  0  0  0  0  0  0
   31.8918   17.8817   36.5138 C   0  0  0  0  0  0  0  0  0  0  0  0
   37.0015   12.7824   32.4316 C   0  0  0  0  0  0  0  0  0  0  0  0
   37.1081   14.1988   32.3731 O   0  0  0  0  0  0  0  0  0  0  0  0
   36.8616   14.5053   31.4864 H   0  0  0  0  0  0  0  0  0  0  0  0
   34.1575   10.7108   30.9543 O   0  0  0  0  0  0  0  0  0  0  0  0
   33.6172   10.4252   32.2387 C   0  0  0  0  0  0  0  0  0  0  0  0
   37.1225   11.9826   29.3009 O   0  0  0  0  0  0  0  0  0  0  0  0
   37.7861   10.7622   29.6120 C   0  0  0  0  0  0  0  0  0  0  0  0
   34.6442   13.7273   28.2772 O   0  0  0  0  0  0  0  0  0  0  0  0
   35.2036   12.9646   27.2167 C   0  0  0  0  0  0  0  0  0  0  0  0
 19 20  1  0
 20 18  1  0
 18 16  1  0
 16 17  3  0
 17  7  1  0
  7  8  2  0
  8  9  1  0
  1  9  1  0
  1  2  1  0
  2  3  1  0
  3 21  1  0
 21 22  1  0
  3  4  1  0
  4 24  1  0
 24 25  1  0
  4  5  1  0
  5 26  1  0
 26 27  1  0
  5  6  1  0
  6 28  1  0
 28 29  1  0
  9 10  1  0
 10 11  2  0
 10 12  1  0
 12 13  1  0
 13 14  2  0
 13  7  1  0
  6  1  1  0
 22 23  1  0
 12 15  1  0
M  END
> <minimizedAffinity>
67.04528

> <CNNscore>
0.2935492098

> <CNNaffinity>
5.4484806061

> <CNN_VS>
1.5993971825

> <CNNaffinity_variance>
1.0784299374

$$$$
