


 26 29  0  0  0  0  0  0  0  0999 V2000
    4.8598   11.8651   40.9569 C   0  0  0  0  0  0  0  0  0  0  0  0
    4.9096   11.6032   42.3236 C   0  0  0  0  0  0  0  0  0  0  0  0
    4.5384   12.5713   43.2923 C   0  0  0  0  0  0  0  0  0  0  0  0
    4.5939   12.3138   44.7074 C   0  0  0  0  0  0  0  0  0  0  0  0
    4.1809   13.3675   45.5585 C   0  0  0  0  0  0  0  0  0  0  0  0
    4.0258   13.6310   46.9571 C   0  0  0  0  0  0  0  0  0  0  0  0
    4.2769   12.7389   48.1173 C   0  0  0  0  0  0  0  0  0  0  0  0
    3.5779   14.8742   47.1923 N   0  0  0  0  0  0  0  0  0  0  0  0
    3.4410   15.3996   45.9635 N   0  0  0  0  0  0  0  0  0  0  0  0
    3.7802   14.5461   44.9591 C   0  0  0  0  0  0  0  0  0  0  0  0
    3.7209   14.8317   43.6545 N   0  0  0  0  0  0  0  0  0  0  0  0
    4.0953   13.8447   42.8342 C   0  0  0  0  0  0  0  0  0  0  0  0
    4.0381   14.1002   41.4620 C   0  0  0  0  0  0  0  0  0  0  0  0
    3.5707   15.4390   40.9550 C   0  0  0  0  0  0  0  0  0  0  0  0
    4.4167   13.1156   40.5443 C   0  0  0  0  0  0  0  0  0  0  0  0
    4.3549   13.3864   39.2297 F   0  0  0  0  0  0  0  0  0  0  0  0
    3.1243   16.3180   45.8041 H   0  0  0  0  0  0  0  0  0  0  0  0
    6.5646   10.5854   39.8921 C   0  0  0  0  0  0  0  0  0  0  0  0
    5.2041   10.9925   39.9621 O   0  0  0  0  0  0  0  0  0  0  0  0
    5.0662   10.9771   45.2524 C   0  0  0  0  0  0  0  0  0  0  0  0
    6.4543   10.9862   45.7413 N   0  0  0  0  0  0  0  0  0  0  0  0
    6.6108   10.2319   47.0061 C   0  0  0  0  0  0  0  0  0  0  0  0
    8.0574    9.7605   47.2155 C   0  0  0  0  0  0  0  0  0  0  0  0
    8.4848    8.8330   46.2078 O   0  0  0  0  0  0  0  0  0  0  0  0
    7.8397    9.0353   44.9443 C   0  0  0  0  0  0  0  0  0  0  0  0
    7.3998   10.4897   44.7177 C   0  0  0  0  0  0  0  0  0  0  0  0
 18 19  1  0
 19  1  1  0
  1  2  2  0
  2  3  1  0
  3  4  2  0
  4 20  1  0
 20 21  1  0
 21 22  1  0
 22 23  1  0
 23 24  1  0
 24 25  1  0
 25 26  1  0
  4  5  1  0
  5  6  1  0
  6  7  1  0
  6  8  2  0
  8  9  1  0
  9 10  1  0
 10 11  1  0
 11 12  2  0
 12 13  1  0
 13 14  1  0
 13 15  2  0
 15 16  1  0
 15  1  1  0
 12  3  1  0
 26 21  1  0
 10  5  2  0
  9 17  1  0
M  END
> <minimizedAffinity>
-8.07552

> <CNNscore>
0.9349409342

> <CNNaffinity>
7.7324023247

> <CNN_VS>
7.2293395996

> <CNNaffinity_variance>
0.0984785780

$$$$



 26 29  0  0  0  0  0  0  0  0999 V2000
    6.9728    9.8832   45.0806 C   0  0  0  0  0  0  0  0  0  0  0  0
    6.5773   10.3647   43.8353 C   0  0  0  0  0  0  0  0  0  0  0  0
    5.7450   11.5056   43.6961 C   0  0  0  0  0  0  0  0  0  0  0  0
    5.3237   12.0068   42.4142 C   0  0  0  0  0  0  0  0  0  0  0  0
    4.5045   13.1618   42.4251 C   0  0  0  0  0  0  0  0  0  0  0  0
    3.8569   14.0375   41.4961 C   0  0  0  0  0  0  0  0  0  0  0  0
    3.8580   14.0036   40.0116 C   0  0  0  0  0  0  0  0  0  0  0  0
    3.1741   15.0151   42.1122 N   0  0  0  0  0  0  0  0  0  0  0  0
    3.3849   14.7752   43.4171 N   0  0  0  0  0  0  0  0  0  0  0  0
    4.1715   13.6908   43.6572 C   0  0  0  0  0  0  0  0  0  0  0  0
    4.5316   13.2552   44.8686 N   0  0  0  0  0  0  0  0  0  0  0  0
    5.3156   12.1724   44.8787 C   0  0  0  0  0  0  0  0  0  0  0  0
    5.7222   11.6915   46.1256 C   0  0  0  0  0  0  0  0  0  0  0  0
    5.2818   12.3821   47.3893 C   0  0  0  0  0  0  0  0  0  0  0  0
    6.5410   10.5615   46.2136 C   0  0  0  0  0  0  0  0  0  0  0  0
    6.9167   10.1171   47.4246 F   0  0  0  0  0  0  0  0  0  0  0  0
    3.0051   15.3328   44.1341 H   0  0  0  0  0  0  0  0  0  0  0  0
    7.3148    7.5429   44.7914 C   0  0  0  0  0  0  0  0  0  0  0  0
    7.7657    8.7913   45.3010 O   0  0  0  0  0  0  0  0  0  0  0  0
    5.7445   11.3306   41.1210 C   0  0  0  0  0  0  0  0  0  0  0  0
    4.9773   10.1156   40.8029 N   0  0  0  0  0  0  0  0  0  0  0  0
    3.8489   10.3868   39.8830 C   0  0  0  0  0  0  0  0  0  0  0  0
    3.4171    9.1255   39.1204 C   0  0  0  0  0  0  0  0  0  0  0  0
    4.4489    8.6236   38.2591 O   0  0  0  0  0  0  0  0  0  0  0  0
    5.7700    8.9085   38.7353 C   0  0  0  0  0  0  0  0  0  0  0  0
    5.8439    9.0449   40.2638 C   0  0  0  0  0  0  0  0  0  0  0  0
 18 19  1  0
 19  1  1  0
  1  2  2  0
  2  3  1  0
  3  4  2  0
  4 20  1  0
 20 21  1  0
 21 22  1  0
 22 23  1  0
 23 24  1  0
 24 25  1  0
 25 26  1  0
  4  5  1  0
  5  6  1  0
  6  7  1  0
  6  8  2  0
  8  9  1  0
  9 10  1  0
 10 11  1  0
 11 12  2  0
 12 13  1  0
 13 14  1  0
 13 15  2  0
 15 16  1  0
 15  1  1  0
 12  3  1  0
 26 21  1  0
 10  5  2  0
  9 17  1  0
M  END
> <minimizedAffinity>
-7.33240

> <CNNscore>
0.8223451376

> <CNNaffinity>
7.6377110481

> <CNN_VS>
6.2808346748

> <CNNaffinity_variance>
0.5074116588

$$$$



 26 29  0  0  0  0  0  0  0  0999 V2000
    4.1221   13.8617   43.9792 C   0  0  0  0  0  0  0  0  0  0  0  0
    5.0151   12.8164   43.7590 C   0  0  0  0  0  0  0  0  0  0  0  0
    5.5869   12.0741   44.8247 C   0  0  0  0  0  0  0  0  0  0  0  0
    6.5171   10.9971   44.6087 C   0  0  0  0  0  0  0  0  0  0  0  0
    6.9976   10.3352   45.7646 C   0  0  0  0  0  0  0  0  0  0  0  0
    7.8698    9.2531   46.1077 C   0  0  0  0  0  0  0  0  0  0  0  0
    8.6439    8.3492   45.2196 C   0  0  0  0  0  0  0  0  0  0  0  0
    7.9533    9.0702   47.4347 N   0  0  0  0  0  0  0  0  0  0  0  0
    7.1422   10.0162   47.9367 N   0  0  0  0  0  0  0  0  0  0  0  0
    6.5467   10.7901   46.9887 C   0  0  0  0  0  0  0  0  0  0  0  0
    5.6928   11.7884   47.2363 N   0  0  0  0  0  0  0  0  0  0  0  0
    5.2184   12.4179   46.1565 C   0  0  0  0  0  0  0  0  0  0  0  0
    4.3150   13.4614   46.3726 C   0  0  0  0  0  0  0  0  0  0  0  0
    3.9096   13.8407   47.7724 C   0  0  0  0  0  0  0  0  0  0  0  0
    3.7792   14.1666   45.2907 C   0  0  0  0  0  0  0  0  0  0  0  0
    2.9141   15.1675   45.5245 F   0  0  0  0  0  0  0  0  0  0  0  0
    6.9923   10.1384   48.9020 H   0  0  0  0  0  0  0  0  0  0  0  0
    3.8408   14.3210   41.6581 C   0  0  0  0  0  0  0  0  0  0  0  0
    3.5328   14.6276   43.0118 O   0  0  0  0  0  0  0  0  0  0  0  0
    6.9518   10.5931   43.2106 C   0  0  0  0  0  0  0  0  0  0  0  0
    7.8659    9.4402   43.1771 N   0  0  0  0  0  0  0  0  0  0  0  0
    7.3224    8.3133   42.3848 C   0  0  0  0  0  0  0  0  0  0  0  0
    8.4337    7.3823   41.8778 C   0  0  0  0  0  0  0  0  0  0  0  0
    9.3297    8.0392   40.9701 O   0  0  0  0  0  0  0  0  0  0  0  0
    9.4576    9.4442   41.2209 C   0  0  0  0  0  0  0  0  0  0  0  0
    9.2101    9.8197   42.6899 C   0  0  0  0  0  0  0  0  0  0  0  0
 18 19  1  0
 19  1  1  0
  1  2  2  0
  2  3  1  0
  3  4  2  0
  4 20  1  0
 20 21  1  0
 21 22  1  0
 22 23  1  0
 23 24  1  0
 24 25  1  0
 25 26  1  0
  4  5  1  0
  5  6  1  0
  6  7  1  0
  6  8  2  0
  8  9  1  0
  9 10  1  0
 10 11  1  0
 11 12  2  0
 12 13  1  0
 13 14  1  0
 13 15  2  0
 15 16  1  0
 15  1  1  0
 12  3  1  0
 26 21  1  0
 10  5  2  0
  9 17  1  0
M  END
> <minimizedAffinity>
-9.06125

> <CNNscore>
0.6411416531

> <CNNaffinity>
7.2927799225

> <CNN_VS>
4.6757049561

> <CNNaffinity_variance>
0.0049250284

$$$$



 26 29  0  0  0  0  0  0  0  0999 V2000
    4.2769   13.8104   43.4443 C   0  0  0  0  0  0  0  0  0  0  0  0
    5.2102   12.7829   43.3349 C   0  0  0  0  0  0  0  0  0  0  0  0
    5.6934   12.0775   44.4674 C   0  0  0  0  0  0  0  0  0  0  0  0
    6.6640   11.0194   44.3664 C   0  0  0  0  0  0  0  0  0  0  0  0
    7.0460   10.3940   45.5781 C   0  0  0  0  0  0  0  0  0  0  0  0
    7.9052    9.3411   46.0281 C   0  0  0  0  0  0  0  0  0  0  0  0
    8.7811    8.4379   45.2394 C   0  0  0  0  0  0  0  0  0  0  0  0
    7.8648    9.1883   47.3610 N   0  0  0  0  0  0  0  0  0  0  0  0
    6.9882   10.1244   47.7609 N   0  0  0  0  0  0  0  0  0  0  0  0
    6.4693   10.8634   46.7426 C   0  0  0  0  0  0  0  0  0  0  0  0
    5.5735   11.8454   46.8841 N   0  0  0  0  0  0  0  0  0  0  0  0
    5.1910   12.4401   45.7495 C   0  0  0  0  0  0  0  0  0  0  0  0
    4.2479   13.4654   45.8538 C   0  0  0  0  0  0  0  0  0  0  0  0
    3.7015   13.8641   47.1993 C   0  0  0  0  0  0  0  0  0  0  0  0
    3.8029   14.1343   44.7095 C   0  0  0  0  0  0  0  0  0  0  0  0
    2.8970   15.1184   44.8362 F   0  0  0  0  0  0  0  0  0  0  0  0
    6.7436   10.2632   48.7044 H   0  0  0  0  0  0  0  0  0  0  0  0
    4.0593   14.0971   41.0888 C   0  0  0  0  0  0  0  0  0  0  0  0
    3.7663   14.5410   42.4074 O   0  0  0  0  0  0  0  0  0  0  0  0
    7.2400   10.5968   43.0261 C   0  0  0  0  0  0  0  0  0  0  0  0
    6.3922    9.6526   42.2806 N   0  0  0  0  0  0  0  0  0  0  0  0
    6.0067   10.1726   40.9487 C   0  0  0  0  0  0  0  0  0  0  0  0
    5.6352    9.0413   39.9787 C   0  0  0  0  0  0  0  0  0  0  0  0
    6.7410    8.1707   39.7002 O   0  0  0  0  0  0  0  0  0  0  0  0
    7.6736    8.0780   40.7842 C   0  0  0  0  0  0  0  0  0  0  0  0
    7.0289    8.3232   42.1570 C   0  0  0  0  0  0  0  0  0  0  0  0
 18 19  1  0
 19  1  1  0
  1  2  2  0
  2  3  1  0
  3  4  2  0
  4 20  1  0
 20 21  1  0
 21 22  1  0
 22 23  1  0
 23 24  1  0
 24 25  1  0
 25 26  1  0
  4  5  1  0
  5  6  1  0
  6  7  1  0
  6  8  2  0
  8  9  1  0
  9 10  1  0
 10 11  1  0
 11 12  2  0
 12 13  1  0
 13 14  1  0
 13 15  2  0
 15 16  1  0
 15  1  1  0
 12  3  1  0
 26 21  1  0
 10  5  2  0
  9 17  1  0
M  END
> <minimizedAffinity>
-8.45464

> <CNNscore>
0.6082111001

> <CNNaffinity>
7.3319315910

> <CNN_VS>
4.4593620300

> <CNNaffinity_variance>
0.0134655386

$$$$



 26 29  0  0  0  0  0  0  0  0999 V2000
    3.8782   14.0477   42.7867 C   0  0  0  0  0  0  0  0  0  0  0  0
    4.5312   12.9605   42.2119 C   0  0  0  0  0  0  0  0  0  0  0  0
    5.1094   11.9270   42.9937 C   0  0  0  0  0  0  0  0  0  0  0  0
    5.7936   10.8030   42.4102 C   0  0  0  0  0  0  0  0  0  0  0  0
    6.3102    9.8402   43.3109 C   0  0  0  0  0  0  0  0  0  0  0  0
    7.0172    8.5958   43.2759 C   0  0  0  0  0  0  0  0  0  0  0  0
    7.4834    7.8097   42.1056 C   0  0  0  0  0  0  0  0  0  0  0  0
    7.2565    8.1139   44.5056 N   0  0  0  0  0  0  0  0  0  0  0  0
    6.7063    9.0313   45.3182 N   0  0  0  0  0  0  0  0  0  0  0  0
    6.1273   10.0726   44.6604 C   0  0  0  0  0  0  0  0  0  0  0  0
    5.5082   11.1029   45.2455 N   0  0  0  0  0  0  0  0  0  0  0  0
    5.0027   12.0167   44.4108 C   0  0  0  0  0  0  0  0  0  0  0  0
    4.3388   13.1046   44.9831 C   0  0  0  0  0  0  0  0  0  0  0  0
    4.2122   13.2188   46.4793 C   0  0  0  0  0  0  0  0  0  0  0  0
    3.7866   14.1007   44.1720 C   0  0  0  0  0  0  0  0  0  0  0  0
    3.1550   15.1381   44.7464 F   0  0  0  0  0  0  0  0  0  0  0  0
    6.7205    8.9571   46.2998 H   0  0  0  0  0  0  0  0  0  0  0  0
    3.3565   15.0467   40.6872 C   0  0  0  0  0  0  0  0  0  0  0  0
    3.3011   15.0847   42.1074 O   0  0  0  0  0  0  0  0  0  0  0  0
    5.9446   10.6604   40.9056 C   0  0  0  0  0  0  0  0  0  0  0  0
    4.9569    9.7617   40.2869 N   0  0  0  0  0  0  0  0  0  0  0  0
    3.7942   10.4959   39.7371 C   0  0  0  0  0  0  0  0  0  0  0  0
    3.0785    9.6942   38.6399 C   0  0  0  0  0  0  0  0  0  0  0  0
    3.9119    9.4642   37.4948 O   0  0  0  0  0  0  0  0  0  0  0  0
    5.3063    9.3917   37.8168 C   0  0  0  0  0  0  0  0  0  0  0  0
    5.5699    8.9038   39.2495 C   0  0  0  0  0  0  0  0  0  0  0  0
 18 19  1  0
 19  1  1  0
  1  2  2  0
  2  3  1  0
  3  4  2  0
  4 20  1  0
 20 21  1  0
 21 22  1  0
 22 23  1  0
 23 24  1  0
 24 25  1  0
 25 26  1  0
  4  5  1  0
  5  6  1  0
  6  7  1  0
  6  8  2  0
  8  9  1  0
  9 10  1  0
 10 11  1  0
 11 12  2  0
 12 13  1  0
 13 14  1  0
 13 15  2  0
 15 16  1  0
 15  1  1  0
 12  3  1  0
 26 21  1  0
 10  5  2  0
  9 17  1  0
M  END
> <minimizedAffinity>
-7.80925

> <CNNscore>
0.5650426745

> <CNNaffinity>
7.0257058144

> <CNN_VS>
3.9698235989

> <CNNaffinity_variance>
0.1488754749

$$$$



 26 29  0  0  0  0  0  0  0  0999 V2000
    5.4814   11.5445   43.6570 C   0  0  0  0  0  0  0  0  0  0  0  0
    5.0889   11.5506   42.3211 C   0  0  0  0  0  0  0  0  0  0  0  0
    4.4535   12.6709   41.7255 C   0  0  0  0  0  0  0  0  0  0  0  0
    4.0364   12.6848   40.3479 C   0  0  0  0  0  0  0  0  0  0  0  0
    3.4265   13.8755   39.8839 C   0  0  0  0  0  0  0  0  0  0  0  0
    2.8740   14.4082   38.6754 C   0  0  0  0  0  0  0  0  0  0  0  0
    2.7683   13.7834   37.3325 C   0  0  0  0  0  0  0  0  0  0  0  0
    2.4095   15.6569   38.8374 N   0  0  0  0  0  0  0  0  0  0  0  0
    2.6651   15.9252   40.1287 N   0  0  0  0  0  0  0  0  0  0  0  0
    3.2721   14.9043   40.7931 C   0  0  0  0  0  0  0  0  0  0  0  0
    3.6352   14.9323   42.0794 N   0  0  0  0  0  0  0  0  0  0  0  0
    4.2242   13.8212   42.5329 C   0  0  0  0  0  0  0  0  0  0  0  0
    4.6278   13.8142   43.8704 C   0  0  0  0  0  0  0  0  0  0  0  0
    4.3973   15.0203   44.7422 C   0  0  0  0  0  0  0  0  0  0  0  0
    5.2484   12.6857   44.4146 C   0  0  0  0  0  0  0  0  0  0  0  0
    5.6254   12.7027   45.7040 F   0  0  0  0  0  0  0  0  0  0  0  0
    2.4345   16.7820   40.5553 H   0  0  0  0  0  0  0  0  0  0  0  0
    7.1428    9.8368   43.6234 C   0  0  0  0  0  0  0  0  0  0  0  0
    6.0920   10.5077   44.3067 O   0  0  0  0  0  0  0  0  0  0  0  0
    4.2481   11.4835   39.4431 C   0  0  0  0  0  0  0  0  0  0  0  0
    3.2563   10.4120   39.6279 N   0  0  0  0  0  0  0  0  0  0  0  0
    2.0177   10.6513   38.8522 C   0  0  0  0  0  0  0  0  0  0  0  0
    1.2517    9.3479   38.5816 C   0  0  0  0  0  0  0  0  0  0  0  0
    1.9960    8.4321   37.7656 O   0  0  0  0  0  0  0  0  0  0  0  0
    3.4144    8.5572   37.9263 C   0  0  0  0  0  0  0  0  0  0  0  0
    3.8205    9.0816   39.3121 C   0  0  0  0  0  0  0  0  0  0  0  0
 18 19  1  0
 19  1  1  0
  1  2  2  0
  2  3  1  0
  3  4  2  0
  4 20  1  0
 20 21  1  0
 21 22  1  0
 22 23  1  0
 23 24  1  0
 24 25  1  0
 25 26  1  0
  4  5  1  0
  5  6  1  0
  6  7  1  0
  6  8  2  0
  8  9  1  0
  9 10  1  0
 10 11  1  0
 11 12  2  0
 12 13  1  0
 13 14  1  0
 13 15  2  0
 15 16  1  0
 15  1  1  0
 12  3  1  0
 26 21  1  0
 10  5  2  0
  9 17  1  0
M  END
> <minimizedAffinity>
-7.04357

> <CNNscore>
0.5049483776

> <CNNaffinity>
6.6447443962

> <CNN_VS>
3.3552529812

> <CNNaffinity_variance>
0.0168153103

$$$$



 26 29  0  0  0  0  0  0  0  0999 V2000
    5.7025   11.7379   43.9587 C   0  0  0  0  0  0  0  0  0  0  0  0
    5.2494   11.5416   42.6567 C   0  0  0  0  0  0  0  0  0  0  0  0
    4.5422   12.5442   41.9438 C   0  0  0  0  0  0  0  0  0  0  0  0
    4.0624   12.3489   40.6008 C   0  0  0  0  0  0  0  0  0  0  0  0
    3.3838   13.4406   40.0068 C   0  0  0  0  0  0  0  0  0  0  0  0
    2.7555   13.7778   38.7654 C   0  0  0  0  0  0  0  0  0  0  0  0
    2.6141   12.9662   37.5301 C   0  0  0  0  0  0  0  0  0  0  0  0
    2.2482   15.0204   38.7750 N   0  0  0  0  0  0  0  0  0  0  0  0
    2.5514   15.4772   40.0014 N   0  0  0  0  0  0  0  0  0  0  0  0
    3.2293   14.5817   40.7701 C   0  0  0  0  0  0  0  0  0  0  0  0
    3.6493   14.8037   42.0197 N   0  0  0  0  0  0  0  0  0  0  0  0
    4.3033   13.7886   42.5933 C   0  0  0  0  0  0  0  0  0  0  0  0
    4.7675   13.9846   43.8963 C   0  0  0  0  0  0  0  0  0  0  0  0
    4.5280   15.2933   44.6018 C   0  0  0  0  0  0  0  0  0  0  0  0
    5.4579   12.9661   44.5603 C   0  0  0  0  0  0  0  0  0  0  0  0
    5.8923   13.1782   45.8139 F   0  0  0  0  0  0  0  0  0  0  0  0
    2.3057   16.3773   40.3154 H   0  0  0  0  0  0  0  0  0  0  0  0
    6.0413    9.4547   44.5503 C   0  0  0  0  0  0  0  0  0  0  0  0
    6.3839   10.8248   44.7147 O   0  0  0  0  0  0  0  0  0  0  0  0
    4.2814   11.0395   39.8629 C   0  0  0  0  0  0  0  0  0  0  0  0
    5.5139   10.3335   40.2483 N   0  0  0  0  0  0  0  0  0  0  0  0
    5.3722    8.8623   40.1565 C   0  0  0  0  0  0  0  0  0  0  0  0
    6.7318    8.1657   39.9977 C   0  0  0  0  0  0  0  0  0  0  0  0
    7.3936    8.5236   38.7761 O   0  0  0  0  0  0  0  0  0  0  0  0
    7.0649    9.8421   38.3213 C   0  0  0  0  0  0  0  0  0  0  0  0
    6.6792   10.7952   39.4628 C   0  0  0  0  0  0  0  0  0  0  0  0
 18 19  1  0
 19  1  1  0
  1  2  2  0
  2  3  1  0
  3  4  2  0
  4 20  1  0
 20 21  1  0
 21 22  1  0
 22 23  1  0
 23 24  1  0
 24 25  1  0
 25 26  1  0
  4  5  1  0
  5  6  1  0
  6  7  1  0
  6  8  2  0
  8  9  1  0
  9 10  1  0
 10 11  1  0
 11 12  2  0
 12 13  1  0
 13 14  1  0
 13 15  2  0
 15 16  1  0
 15  1  1  0
 12  3  1  0
 26 21  1  0
 10  5  2  0
  9 17  1  0
M  END
> <minimizedAffinity>
-6.74346

> <CNNscore>
0.3572277129

> <CNNaffinity>
6.4469599724

> <CNN_VS>
2.3030328751

> <CNNaffinity_variance>
0.0015969882

$$$$



 26 29  0  0  0  0  0  0  0  0999 V2000
    4.2730   13.0590   42.5358 C   0  0  0  0  0  0  0  0  0  0  0  0
    5.0972   11.9538   42.7309 C   0  0  0  0  0  0  0  0  0  0  0  0
    5.5339   11.5555   44.0210 C   0  0  0  0  0  0  0  0  0  0  0  0
    6.3925   10.4198   44.2331 C   0  0  0  0  0  0  0  0  0  0  0  0
    6.7382   10.1305   45.5755 C   0  0  0  0  0  0  0  0  0  0  0  0
    7.4990    9.1681   46.3134 C   0  0  0  0  0  0  0  0  0  0  0  0
    8.2629    7.9937   45.8216 C   0  0  0  0  0  0  0  0  0  0  0  0
    7.4741    9.4068   47.6340 N   0  0  0  0  0  0  0  0  0  0  0  0
    6.7039   10.5019   47.7438 N   0  0  0  0  0  0  0  0  0  0  0  0
    6.2376   10.9684   46.5533 C   0  0  0  0  0  0  0  0  0  0  0  0
    5.4469   12.0356   46.4023 N   0  0  0  0  0  0  0  0  0  0  0  0
    5.0993   12.3176   45.1425 C   0  0  0  0  0  0  0  0  0  0  0  0
    4.2650   13.4202   44.9432 C   0  0  0  0  0  0  0  0  0  0  0  0
    3.7916   14.2393   46.1148 C   0  0  0  0  0  0  0  0  0  0  0  0
    3.8624   13.7765   43.6525 C   0  0  0  0  0  0  0  0  0  0  0  0
    3.0615   14.8425   43.4866 F   0  0  0  0  0  0  0  0  0  0  0  0
    6.4958   10.9281   48.6066 H   0  0  0  0  0  0  0  0  0  0  0  0
    4.4949   14.6124   40.7427 C   0  0  0  0  0  0  0  0  0  0  0  0
    3.8136   13.5113   41.3300 O   0  0  0  0  0  0  0  0  0  0  0  0
    6.8929    9.5763   43.0734 C   0  0  0  0  0  0  0  0  0  0  0  0
    7.9825   10.1999   42.3054 N   0  0  0  0  0  0  0  0  0  0  0  0
    9.3194    9.7583   42.7644 C   0  0  0  0  0  0  0  0  0  0  0  0
   10.3844    9.9283   41.6709 C   0  0  0  0  0  0  0  0  0  0  0  0
   10.1281    9.1086   40.5217 O   0  0  0  0  0  0  0  0  0  0  0  0
    8.7338    8.8571   40.3072 C   0  0  0  0  0  0  0  0  0  0  0  0
    7.8290    9.9729   40.8518 C   0  0  0  0  0  0  0  0  0  0  0  0
 18 19  1  0
 19  1  1  0
  1  2  2  0
  2  3  1  0
  3  4  2  0
  4 20  1  0
 20 21  1  0
 21 22  1  0
 22 23  1  0
 23 24  1  0
 24 25  1  0
 25 26  1  0
  4  5  1  0
  5  6  1  0
  6  7  1  0
  6  8  2  0
  8  9  1  0
  9 10  1  0
 10 11  1  0
 11 12  2  0
 12 13  1  0
 13 14  1  0
 13 15  2  0
 15 16  1  0
 15  1  1  0
 12  3  1  0
 26 21  1  0
 10  5  2  0
  9 17  1  0
M  END
> <minimizedAffinity>
-8.44819

> <CNNscore>
0.3340886533

> <CNNaffinity>
6.5914893150

> <CNN_VS>
2.2021417618

> <CNNaffinity_variance>
0.0680454448

$$$$



 26 29  0  0  0  0  0  0  0  0999 V2000
    4.1084   13.2097   45.4360 C   0  0  0  0  0  0  0  0  0  0  0  0
    4.7203   11.9971   45.1293 C   0  0  0  0  0  0  0  0  0  0  0  0
    5.0420   11.6289   43.7972 C   0  0  0  0  0  0  0  0  0  0  0  0
    5.6671   10.3747   43.4683 C   0  0  0  0  0  0  0  0  0  0  0  0
    5.9425   10.1456   42.0983 C   0  0  0  0  0  0  0  0  0  0  0  0
    6.5327    9.1407   41.2668 C   0  0  0  0  0  0  0  0  0  0  0  0
    7.1399    7.8403   41.6475 C   0  0  0  0  0  0  0  0  0  0  0  0
    6.5149    9.4819   39.9689 N   0  0  0  0  0  0  0  0  0  0  0  0
    5.9281   10.6904   39.9667 N   0  0  0  0  0  0  0  0  0  0  0  0
    5.5740   11.1324   41.2043 C   0  0  0  0  0  0  0  0  0  0  0  0
    4.9858   12.3046   41.4629 N   0  0  0  0  0  0  0  0  0  0  0  0
    4.7287   12.5446   42.7527 C   0  0  0  0  0  0  0  0  0  0  0  0
    4.1231   13.7640   43.0657 C   0  0  0  0  0  0  0  0  0  0  0  0
    3.7847   14.7483   41.9774 C   0  0  0  0  0  0  0  0  0  0  0  0
    3.8223   14.0825   44.3935 C   0  0  0  0  0  0  0  0  0  0  0  0
    3.2378   15.2605   44.6687 F   0  0  0  0  0  0  0  0  0  0  0  0
    5.7688   11.2088   39.1451 H   0  0  0  0  0  0  0  0  0  0  0  0
    3.8187   12.6843   47.7421 C   0  0  0  0  0  0  0  0  0  0  0  0
    3.7613   13.6365   46.6878 O   0  0  0  0  0  0  0  0  0  0  0  0
    6.0158    9.3572   44.5406 C   0  0  0  0  0  0  0  0  0  0  0  0
    7.2081    9.7039   45.3306 N   0  0  0  0  0  0  0  0  0  0  0  0
    6.9768    9.5706   46.7872 C   0  0  0  0  0  0  0  0  0  0  0  0
    8.2898    9.3721   47.5589 C   0  0  0  0  0  0  0  0  0  0  0  0
    8.9568    8.1523   47.2043 O   0  0  0  0  0  0  0  0  0  0  0  0
    8.7027    7.7414   45.8552 C   0  0  0  0  0  0  0  0  0  0  0  0
    8.3893    8.9160   44.9159 C   0  0  0  0  0  0  0  0  0  0  0  0
 18 19  1  0
 19  1  1  0
  1  2  2  0
  2  3  1  0
  3  4  2  0
  4 20  1  0
 20 21  1  0
 21 22  1  0
 22 23  1  0
 23 24  1  0
 24 25  1  0
 25 26  1  0
  4  5  1  0
  5  6  1  0
  6  7  1  0
  6  8  2  0
  8  9  1  0
  9 10  1  0
 10 11  1  0
 11 12  2  0
 12 13  1  0
 13 14  1  0
 13 15  2  0
 15 16  1  0
 15  1  1  0
 12  3  1  0
 26 21  1  0
 10  5  2  0
  9 17  1  0
M  END
> <minimizedAffinity>
-8.34186

> <CNNscore>
0.2572566867

> <CNNaffinity>
6.2025299072

> <CNN_VS>
1.5956423283

> <CNNaffinity_variance>
0.1099118814

$$$$
