


 36 39  0  0  0  0  0  0  0  0999 V2000
  -41.0115   -2.4779    0.2671 N   0  0  0  0  0  0  0  0  0  0  0  0
  -41.7774   -2.4520   -0.8833 C   0  0  0  0  0  0  0  0  0  0  0  0
  -41.3991   -2.6411   -2.0319 O   0  0  0  0  0  0  0  0  0  0  0  0
  -41.4968   -2.3197    1.1089 H   0  0  0  0  0  0  0  0  0  0  0  0
  -43.2262   -2.1728   -0.6090 C   0  0  0  0  0  0  0  0  0  0  0  0
  -44.1440   -2.1292   -1.6530 C   0  0  0  0  0  0  0  0  0  0  0  0
  -45.4767   -1.8692   -1.3456 C   0  0  0  0  0  0  0  0  0  0  0  0
  -45.8352   -1.6581   -0.0198 C   0  0  0  0  0  0  0  0  0  0  0  0
  -47.1138   -1.3908    0.2811 F   0  0  0  0  0  0  0  0  0  0  0  0
  -44.8578   -1.7116    0.9737 C   0  0  0  0  0  0  0  0  0  0  0  0
  -43.5522   -1.9779    0.7016 N   0  0  0  0  0  0  0  0  0  0  0  0
  -45.1650   -1.4704    2.3760 C   0  0  0  0  0  0  0  0  0  0  0  0
  -45.9799   -0.4060    2.7726 C   0  0  0  0  0  0  0  0  0  0  0  0
  -46.4919    0.4253    1.8521 F   0  0  0  0  0  0  0  0  0  0  0  0
  -46.2977   -0.1847    4.1117 C   0  0  0  0  0  0  0  0  0  0  0  0
  -45.7910   -1.0439    5.0825 C   0  0  0  0  0  0  0  0  0  0  0  0
  -46.2338   -0.7732    6.8988 Br  0  0  0  0  0  0  0  0  0  0  0  0
  -44.9670   -2.1055    4.7228 C   0  0  0  0  0  0  0  0  0  0  0  0
  -44.6635   -2.3077    3.3778 C   0  0  0  0  0  0  0  0  0  0  0  0
  -43.8572   -3.3304    3.0550 F   0  0  0  0  0  0  0  0  0  0  0  0
  -39.0537   -3.0102    1.6434 C   0  0  0  0  0  0  0  0  0  0  0  0
  -37.6563   -3.1981    1.6975 C   0  0  0  0  0  0  0  0  0  0  0  0
  -36.8955   -3.0874    0.5460 C   0  0  0  0  0  0  0  0  0  0  0  0
  -37.4152   -2.8036   -0.6574 N   0  0  0  0  0  0  0  0  0  0  0  0
  -38.7591   -2.6190   -0.7062 C   0  0  0  0  0  0  0  0  0  0  0  0
  -39.6254   -2.7017    0.3905 C   0  0  0  0  0  0  0  0  0  0  0  0
  -41.3015   -0.7645    5.6134 C   0  0  0  0  0  0  0  0  0  0  0  0
  -41.0232   -2.0883    4.9020 C   0  0  0  0  0  0  0  0  0  0  0  0
  -40.3433   -3.0792    5.8568 C   0  0  0  0  0  0  0  0  0  0  0  0
  -40.0219   -4.4075    5.1634 C   0  0  0  0  0  0  0  0  0  0  0  0
  -39.3448   -5.2991    6.1036 N   0  0  0  0  0  0  0  0  0  0  0  0
  -39.1464   -4.1890    3.9217 C   0  0  0  0  0  0  0  0  0  0  0  0
  -39.8086   -3.1879    2.9582 C   0  0  0  0  0  0  0  0  0  0  0  0
  -40.1662   -1.8575    3.6474 C   0  0  0  0  0  0  0  0  0  0  0  0
  -38.4694   -4.8723    6.4066 H   0  0  0  0  0  0  0  0  0  0  0  0
  -39.1486   -6.1896    5.6464 H   0  0  0  0  0  0  0  0  0  0  0  0
 28 27  1  0
 28 29  1  0
 29 30  1  0
 30 31  1  0
 30 32  1  0
 32 33  1  0
 33 21  1  0
 21 22  2  0
 22 23  1  0
 23 24  2  0
 24 25  1  0
 25 26  2  0
 26  1  1  0
  1  2  1  0
  2  3  2  0
  2  5  1  0
  5  6  2  0
  6  7  1  0
  7  8  2  0
  8  9  1  0
  8 10  1  0
 10 12  1  0
 12 13  2  0
 13 14  1  0
 13 15  1  0
 15 16  2  0
 16 17  1  0
 16 18  1  0
 18 19  2  0
 19 20  1  0
 10 11  2  0
 33 34  1  0
 34 28  1  0
 26 21  1  0
 11  5  1  0
 19 12  1  0
 31 35  1  0
 31 36  1  0
  1  4  1  0
M  END
> <minimizedAffinity>
-11.16429

> <CNNscore>
0.9609985948

> <CNNaffinity>
9.2821359634

> <CNN_VS>
8.9201192856

> <CNNaffinity_variance>
0.0704716220

$$$$



 36 39  0  0  0  0  0  0  0  0999 V2000
  -41.0077   -2.4823    0.3084 N   0  0  0  0  0  0  0  0  0  0  0  0
  -41.8048   -2.5920   -0.8156 C   0  0  0  0  0  0  0  0  0  0  0  0
  -41.4626   -2.9415   -1.9376 O   0  0  0  0  0  0  0  0  0  0  0  0
  -41.4660   -2.2018    1.1333 H   0  0  0  0  0  0  0  0  0  0  0  0
  -43.2395   -2.2448   -0.5449 C   0  0  0  0  0  0  0  0  0  0  0  0
  -44.1491   -2.1467   -1.5924 C   0  0  0  0  0  0  0  0  0  0  0  0
  -45.4689   -1.8246   -1.2884 C   0  0  0  0  0  0  0  0  0  0  0  0
  -45.8229   -1.6083    0.0378 C   0  0  0  0  0  0  0  0  0  0  0  0
  -47.0884   -1.2814    0.3356 F   0  0  0  0  0  0  0  0  0  0  0  0
  -44.8541   -1.7186    1.0349 C   0  0  0  0  0  0  0  0  0  0  0  0
  -43.5618   -2.0460    0.7660 N   0  0  0  0  0  0  0  0  0  0  0  0
  -45.1558   -1.4754    2.4381 C   0  0  0  0  0  0  0  0  0  0  0  0
  -44.6259   -2.2819    3.4495 C   0  0  0  0  0  0  0  0  0  0  0  0
  -43.8253   -3.3119    3.1352 F   0  0  0  0  0  0  0  0  0  0  0  0
  -44.8912   -2.0389    4.7963 C   0  0  0  0  0  0  0  0  0  0  0  0
  -45.7060   -0.9662    5.1467 C   0  0  0  0  0  0  0  0  0  0  0  0
  -46.0536   -0.6078    6.9685 Br  0  0  0  0  0  0  0  0  0  0  0  0
  -46.2593   -0.1515    4.1642 C   0  0  0  0  0  0  0  0  0  0  0  0
  -45.9795   -0.4131    2.8243 C   0  0  0  0  0  0  0  0  0  0  0  0
  -46.5336    0.3781    1.8931 F   0  0  0  0  0  0  0  0  0  0  0  0
  -39.0498   -3.0362    1.6762 C   0  0  0  0  0  0  0  0  0  0  0  0
  -37.6542   -3.2382    1.7243 C   0  0  0  0  0  0  0  0  0  0  0  0
  -36.8969   -3.1335    0.5699 C   0  0  0  0  0  0  0  0  0  0  0  0
  -37.4186   -2.8427   -0.6309 N   0  0  0  0  0  0  0  0  0  0  0  0
  -38.7607   -2.6446   -0.6742 C   0  0  0  0  0  0  0  0  0  0  0  0
  -39.6235   -2.7202    0.4260 C   0  0  0  0  0  0  0  0  0  0  0  0
  -41.2731   -0.7734    5.6503 C   0  0  0  0  0  0  0  0  0  0  0  0
  -41.0038   -2.0996    4.9399 C   0  0  0  0  0  0  0  0  0  0  0  0
  -40.3257   -3.0925    5.8939 C   0  0  0  0  0  0  0  0  0  0  0  0
  -40.0132   -4.4234    5.2014 C   0  0  0  0  0  0  0  0  0  0  0  0
  -39.3376   -5.3171    6.1406 N   0  0  0  0  0  0  0  0  0  0  0  0
  -39.1409   -4.2112    3.9564 C   0  0  0  0  0  0  0  0  0  0  0  0
  -39.8012   -3.2081    2.9936 C   0  0  0  0  0  0  0  0  0  0  0  0
  -40.1499   -1.8750    3.6820 C   0  0  0  0  0  0  0  0  0  0  0  0
  -38.4590   -4.8942    6.4401 H   0  0  0  0  0  0  0  0  0  0  0  0
  -39.1473   -6.2092    5.6841 H   0  0  0  0  0  0  0  0  0  0  0  0
 28 27  1  0
 28 29  1  0
 29 30  1  0
 30 31  1  0
 30 32  1  0
 32 33  1  0
 33 21  1  0
 21 22  2  0
 22 23  1  0
 23 24  2  0
 24 25  1  0
 25 26  2  0
 26  1  1  0
  1  2  1  0
  2  3  2  0
  2  5  1  0
  5  6  2  0
  6  7  1  0
  7  8  2  0
  8  9  1  0
  8 10  1  0
 10 12  1  0
 12 13  2  0
 13 14  1  0
 13 15  1  0
 15 16  2  0
 16 17  1  0
 16 18  1  0
 18 19  2  0
 19 20  1  0
 10 11  2  0
 33 34  1  0
 34 28  1  0
 26 21  1  0
 11  5  1  0
 19 12  1  0
 31 35  1  0
 31 36  1  0
  1  4  1  0
M  END
> <minimizedAffinity>
-11.26933

> <CNNscore>
0.9603908062

> <CNNaffinity>
9.2829370499

> <CNN_VS>
8.9152469635

> <CNNaffinity_variance>
0.0768021345

$$$$



 36 39  0  0  0  0  0  0  0  0999 V2000
  -45.3860   -1.1024    3.1334 N   0  0  0  0  0  0  0  0  0  0  0  0
  -45.8667   -0.5924    1.9420 C   0  0  0  0  0  0  0  0  0  0  0  0
  -46.7480    0.2440    1.7939 O   0  0  0  0  0  0  0  0  0  0  0  0
  -44.6564   -1.7589    3.0554 H   0  0  0  0  0  0  0  0  0  0  0  0
  -45.1676   -1.1631    0.7430 C   0  0  0  0  0  0  0  0  0  0  0  0
  -45.8649   -1.3805   -0.4405 C   0  0  0  0  0  0  0  0  0  0  0  0
  -45.1701   -1.9092   -1.5247 C   0  0  0  0  0  0  0  0  0  0  0  0
  -43.8195   -2.2037   -1.3827 C   0  0  0  0  0  0  0  0  0  0  0  0
  -43.1485   -2.7285   -2.4177 F   0  0  0  0  0  0  0  0  0  0  0  0
  -43.1881   -1.9639   -0.1625 C   0  0  0  0  0  0  0  0  0  0  0  0
  -43.8405   -1.4349    0.9070 N   0  0  0  0  0  0  0  0  0  0  0  0
  -41.7839   -2.2783    0.0578 C   0  0  0  0  0  0  0  0  0  0  0  0
  -41.0270   -2.9534   -0.9043 C   0  0  0  0  0  0  0  0  0  0  0  0
  -41.5954   -3.3334   -2.0589 F   0  0  0  0  0  0  0  0  0  0  0  0
  -39.6757   -3.2353   -0.7094 C   0  0  0  0  0  0  0  0  0  0  0  0
  -39.0610   -2.8363    0.4739 C   0  0  0  0  0  0  0  0  0  0  0  0
  -37.2243   -3.1874    0.7419 Br  0  0  0  0  0  0  0  0  0  0  0  0
  -39.7886   -2.1734    1.4569 C   0  0  0  0  0  0  0  0  0  0  0  0
  -41.1381   -1.9017    1.2398 C   0  0  0  0  0  0  0  0  0  0  0  0
  -41.8232   -1.2722    2.2065 F   0  0  0  0  0  0  0  0  0  0  0  0
  -44.9070   -0.9025    5.5295 C   0  0  0  0  0  0  0  0  0  0  0  0
  -45.4015   -0.6120    6.8187 C   0  0  0  0  0  0  0  0  0  0  0  0
  -46.7236   -0.2368    6.9873 C   0  0  0  0  0  0  0  0  0  0  0  0
  -47.5948   -0.1279    5.9734 N   0  0  0  0  0  0  0  0  0  0  0  0
  -47.1180   -0.4119    4.7347 C   0  0  0  0  0  0  0  0  0  0  0  0
  -45.8054   -0.8040    4.4455 C   0  0  0  0  0  0  0  0  0  0  0  0
  -41.4556   -4.4716    4.4315 C   0  0  0  0  0  0  0  0  0  0  0  0
  -41.6832   -3.0074    4.8062 C   0  0  0  0  0  0  0  0  0  0  0  0
  -40.8981   -2.6490    6.0754 C   0  0  0  0  0  0  0  0  0  0  0  0
  -41.1306   -1.1938    6.4959 C   0  0  0  0  0  0  0  0  0  0  0  0
  -40.3913   -0.9157    7.7261 N   0  0  0  0  0  0  0  0  0  0  0  0
  -42.6242   -0.9067    6.7031 C   0  0  0  0  0  0  0  0  0  0  0  0
  -43.4286   -1.2721    5.4427 C   0  0  0  0  0  0  0  0  0  0  0  0
  -43.1825   -2.7232    4.9885 C   0  0  0  0  0  0  0  0  0  0  0  0
  -40.7288   -1.5254    8.4708 H   0  0  0  0  0  0  0  0  0  0  0  0
  -40.5317    0.0584    7.9943 H   0  0  0  0  0  0  0  0  0  0  0  0
 28 27  1  0
 28 29  1  0
 29 30  1  0
 30 31  1  0
 30 32  1  0
 32 33  1  0
 33 21  1  0
 21 22  2  0
 22 23  1  0
 23 24  2  0
 24 25  1  0
 25 26  2  0
 26  1  1  0
  1  2  1  0
  2  3  2  0
  2  5  1  0
  5  6  2  0
  6  7  1  0
  7  8  2  0
  8  9  1  0
  8 10  1  0
 10 12  1  0
 12 13  2  0
 13 14  1  0
 13 15  1  0
 15 16  2  0
 16 17  1  0
 16 18  1  0
 18 19  2  0
 19 20  1  0
 10 11  2  0
 33 34  1  0
 34 28  1  0
 26 21  1  0
 11  5  1  0
 19 12  1  0
 31 35  1  0
 31 36  1  0
  1  4  1  0
M  END
> <minimizedAffinity>
-10.83469

> <CNNscore>
0.6122291088

> <CNNaffinity>
8.1096191406

> <CNN_VS>
4.9649448395

> <CNNaffinity_variance>
0.0855630711

$$$$



 36 39  0  0  0  0  0  0  0  0999 V2000
  -44.5486   -1.2020    5.3435 N   0  0  0  0  0  0  0  0  0  0  0  0
  -44.8626   -2.2359    4.4814 C   0  0  0  0  0  0  0  0  0  0  0  0
  -45.1191   -3.3961    4.7753 O   0  0  0  0  0  0  0  0  0  0  0  0
  -44.3898   -0.3263    4.9228 H   0  0  0  0  0  0  0  0  0  0  0  0
  -44.8899   -1.8044    3.0443 C   0  0  0  0  0  0  0  0  0  0  0  0
  -45.9923   -1.1271    2.5341 C   0  0  0  0  0  0  0  0  0  0  0  0
  -45.9674   -0.7461    1.1954 C   0  0  0  0  0  0  0  0  0  0  0  0
  -44.8548   -1.0602    0.4245 C   0  0  0  0  0  0  0  0  0  0  0  0
  -44.8315   -0.7109   -0.8695 F   0  0  0  0  0  0  0  0  0  0  0  0
  -43.7883   -1.7470    1.0041 C   0  0  0  0  0  0  0  0  0  0  0  0
  -43.7817   -2.1177    2.3125 N   0  0  0  0  0  0  0  0  0  0  0  0
  -42.6085   -2.1303    0.2423 C   0  0  0  0  0  0  0  0  0  0  0  0
  -42.7144   -2.7935   -0.9838 C   0  0  0  0  0  0  0  0  0  0  0  0
  -43.9239   -3.0970   -1.4794 F   0  0  0  0  0  0  0  0  0  0  0  0
  -41.5891   -3.1410   -1.7296 C   0  0  0  0  0  0  0  0  0  0  0  0
  -40.3248   -2.8216   -1.2428 C   0  0  0  0  0  0  0  0  0  0  0  0
  -38.7912   -3.2621   -2.2539 Br  0  0  0  0  0  0  0  0  0  0  0  0
  -40.1838   -2.1729   -0.0203 C   0  0  0  0  0  0  0  0  0  0  0  0
  -41.3231   -1.8347    0.7075 C   0  0  0  0  0  0  0  0  0  0  0  0
  -41.1630   -1.2204    1.8895 F   0  0  0  0  0  0  0  0  0  0  0  0
  -43.2025   -1.5922    7.3551 C   0  0  0  0  0  0  0  0  0  0  0  0
  -43.1590   -1.6328    8.7648 C   0  0  0  0  0  0  0  0  0  0  0  0
  -44.2886   -1.3245    9.5039 C   0  0  0  0  0  0  0  0  0  0  0  0
  -45.4605   -0.9789    8.9509 N   0  0  0  0  0  0  0  0  0  0  0  0
  -45.5012   -0.9446    7.5945 C   0  0  0  0  0  0  0  0  0  0  0  0
  -44.4264   -1.2398    6.7471 C   0  0  0  0  0  0  0  0  0  0  0  0
  -39.5908    0.0065    4.1526 C   0  0  0  0  0  0  0  0  0  0  0  0
  -40.0297   -1.1008    5.1103 C   0  0  0  0  0  0  0  0  0  0  0  0
  -40.0599   -2.4551    4.3888 C   0  0  0  0  0  0  0  0  0  0  0  0
  -40.5273   -3.5828    5.3152 C   0  0  0  0  0  0  0  0  0  0  0  0
  -40.5727   -4.8404    4.5713 N   0  0  0  0  0  0  0  0  0  0  0  0
  -41.9070   -3.2751    5.9135 C   0  0  0  0  0  0  0  0  0  0  0  0
  -41.8976   -1.9135    6.6314 C   0  0  0  0  0  0  0  0  0  0  0  0
  -41.4008   -0.7734    5.7226 C   0  0  0  0  0  0  0  0  0  0  0  0
  -41.2378   -4.7569    3.8025 H   0  0  0  0  0  0  0  0  0  0  0  0
  -40.8656   -5.5934    5.1939 H   0  0  0  0  0  0  0  0  0  0  0  0
 28 27  1  0
 28 29  1  0
 29 30  1  0
 30 31  1  0
 30 32  1  0
 32 33  1  0
 33 21  1  0
 21 22  2  0
 22 23  1  0
 23 24  2  0
 24 25  1  0
 25 26  2  0
 26  1  1  0
  1  2  1  0
  2  3  2  0
  2  5  1  0
  5  6  2  0
  6  7  1  0
  7  8  2  0
  8  9  1  0
  8 10  1  0
 10 12  1  0
 12 13  2  0
 13 14  1  0
 13 15  1  0
 15 16  2  0
 16 17  1  0
 16 18  1  0
 18 19  2  0
 19 20  1  0
 10 11  2  0
 33 34  1  0
 34 28  1  0
 26 21  1  0
 11  5  1  0
 19 12  1  0
 31 35  1  0
 31 36  1  0
  1  4  1  0
M  END
> <minimizedAffinity>
-9.45010

> <CNNscore>
0.6017268896

> <CNNaffinity>
7.9097332954

> <CNN_VS>
4.7594990730

> <CNNaffinity_variance>
0.1560567617

$$$$



 36 39  0  0  0  0  0  0  0  0999 V2000
  -40.9768   -2.3322    1.6896 N   0  0  0  0  0  0  0  0  0  0  0  0
  -41.4492   -1.2828    2.4554 C   0  0  0  0  0  0  0  0  0  0  0  0
  -40.7906   -0.4885    3.1138 O   0  0  0  0  0  0  0  0  0  0  0  0
  -41.6601   -2.8560    1.2121 H   0  0  0  0  0  0  0  0  0  0  0  0
  -42.9440   -1.1579    2.4086 C   0  0  0  0  0  0  0  0  0  0  0  0
  -43.5833   -0.8004    1.2264 C   0  0  0  0  0  0  0  0  0  0  0  0
  -44.9718   -0.7007    1.2346 C   0  0  0  0  0  0  0  0  0  0  0  0
  -45.6600   -0.9532    2.4151 C   0  0  0  0  0  0  0  0  0  0  0  0
  -46.9958   -0.8427    2.4340 F   0  0  0  0  0  0  0  0  0  0  0  0
  -44.9501   -1.3014    3.5639 C   0  0  0  0  0  0  0  0  0  0  0  0
  -43.5954   -1.4196    3.5787 N   0  0  0  0  0  0  0  0  0  0  0  0
  -45.6108   -1.5492    4.8372 C   0  0  0  0  0  0  0  0  0  0  0  0
  -45.4556   -0.6809    5.9217 C   0  0  0  0  0  0  0  0  0  0  0  0
  -44.6774    0.4060    5.8043 F   0  0  0  0  0  0  0  0  0  0  0  0
  -46.1054   -0.8997    7.1355 C   0  0  0  0  0  0  0  0  0  0  0  0
  -46.9305   -2.0119    7.2750 C   0  0  0  0  0  0  0  0  0  0  0  0
  -47.8388   -2.3081    8.9046 Br  0  0  0  0  0  0  0  0  0  0  0  0
  -47.0968   -2.9025    6.2192 C   0  0  0  0  0  0  0  0  0  0  0  0
  -46.4378   -2.6630    5.0149 C   0  0  0  0  0  0  0  0  0  0  0  0
  -46.6031   -3.5415    4.0144 F   0  0  0  0  0  0  0  0  0  0  0  0
  -38.8943   -3.2701    2.5808 C   0  0  0  0  0  0  0  0  0  0  0  0
  -37.5578   -3.6451    2.3283 C   0  0  0  0  0  0  0  0  0  0  0  0
  -37.0253   -3.5058    1.0577 C   0  0  0  0  0  0  0  0  0  0  0  0
  -37.7180   -3.0214    0.0165 N   0  0  0  0  0  0  0  0  0  0  0  0
  -39.0023   -2.6573    0.2626 C   0  0  0  0  0  0  0  0  0  0  0  0
  -39.6433   -2.7490    1.5040 C   0  0  0  0  0  0  0  0  0  0  0  0
  -40.3800   -1.1677    6.9659 C   0  0  0  0  0  0  0  0  0  0  0  0
  -40.2393   -2.4657    6.1712 C   0  0  0  0  0  0  0  0  0  0  0  0
  -39.4012   -3.4866    6.9530 C   0  0  0  0  0  0  0  0  0  0  0  0
  -39.2148   -4.7895    6.1681 C   0  0  0  0  0  0  0  0  0  0  0  0
  -38.3820   -5.7107    6.9394 N   0  0  0  0  0  0  0  0  0  0  0  0
  -38.5776   -4.5262    4.7967 C   0  0  0  0  0  0  0  0  0  0  0  0
  -39.3997   -3.4947    4.0034 C   0  0  0  0  0  0  0  0  0  0  0  0
  -39.6224   -2.1897    4.7909 C   0  0  0  0  0  0  0  0  0  0  0  0
  -37.4647   -5.2919    7.0935 H   0  0  0  0  0  0  0  0  0  0  0  0
  -38.2745   -6.5845    6.4242 H   0  0  0  0  0  0  0  0  0  0  0  0
 28 27  1  0
 28 29  1  0
 29 30  1  0
 30 31  1  0
 30 32  1  0
 32 33  1  0
 33 21  1  0
 21 22  2  0
 22 23  1  0
 23 24  2  0
 24 25  1  0
 25 26  2  0
 26  1  1  0
  1  2  1  0
  2  3  2  0
  2  5  1  0
  5  6  2  0
  6  7  1  0
  7  8  2  0
  8  9  1  0
  8 10  1  0
 10 12  1  0
 12 13  2  0
 13 14  1  0
 13 15  1  0
 15 16  2  0
 16 17  1  0
 16 18  1  0
 18 19  2  0
 19 20  1  0
 10 11  2  0
 33 34  1  0
 34 28  1  0
 26 21  1  0
 11  5  1  0
 19 12  1  0
 31 35  1  0
 31 36  1  0
  1  4  1  0
M  END
> <minimizedAffinity>
-9.07534

> <CNNscore>
0.2394046187

> <CNNaffinity>
7.9218268394

> <CNN_VS>
1.8965219259

> <CNNaffinity_variance>
0.0052564065

$$$$



 36 39  0  0  0  0  0  0  0  0999 V2000
  -44.6371   -1.1607    5.1438 N   0  0  0  0  0  0  0  0  0  0  0  0
  -44.7251   -2.2803    4.3378 C   0  0  0  0  0  0  0  0  0  0  0  0
  -44.7675   -3.4505    4.6942 O   0  0  0  0  0  0  0  0  0  0  0  0
  -44.6332   -0.2947    4.6757 H   0  0  0  0  0  0  0  0  0  0  0  0
  -44.7901   -1.9398    2.8777 C   0  0  0  0  0  0  0  0  0  0  0  0
  -45.9560   -1.4170    2.3286 C   0  0  0  0  0  0  0  0  0  0  0  0
  -45.9642   -1.1152    0.9696 C   0  0  0  0  0  0  0  0  0  0  0  0
  -44.8195   -1.3521    0.2183 C   0  0  0  0  0  0  0  0  0  0  0  0
  -44.8262   -1.0793   -1.0941 F   0  0  0  0  0  0  0  0  0  0  0  0
  -43.6887   -1.8842    0.8373 C   0  0  0  0  0  0  0  0  0  0  0  0
  -43.6501   -2.1740    2.1654 N   0  0  0  0  0  0  0  0  0  0  0  0
  -42.4698   -2.1819    0.0992 C   0  0  0  0  0  0  0  0  0  0  0  0
  -41.2107   -1.8356    0.5984 C   0  0  0  0  0  0  0  0  0  0  0  0
  -41.1075   -1.2074    1.7796 F   0  0  0  0  0  0  0  0  0  0  0  0
  -40.0386   -2.1402   -0.0921 C   0  0  0  0  0  0  0  0  0  0  0  0
  -40.1206   -2.8058   -1.3118 C   0  0  0  0  0  0  0  0  0  0  0  0
  -38.5404   -3.2492   -2.2469 Br  0  0  0  0  0  0  0  0  0  0  0  0
  -41.3586   -3.1538   -1.8425 C   0  0  0  0  0  0  0  0  0  0  0  0
  -42.5168   -2.8398   -1.1341 C   0  0  0  0  0  0  0  0  0  0  0  0
  -43.7002   -3.1741   -1.6706 F   0  0  0  0  0  0  0  0  0  0  0  0
  -45.7038   -0.8693    7.3320 C   0  0  0  0  0  0  0  0  0  0  0  0
  -45.5410   -0.7957    8.7315 C   0  0  0  0  0  0  0  0  0  0  0  0
  -44.2860   -0.9558    9.2942 C   0  0  0  0  0  0  0  0  0  0  0  0
  -43.1779   -1.1831    8.5738 N   0  0  0  0  0  0  0  0  0  0  0  0
  -43.3362   -1.2492    7.2273 C   0  0  0  0  0  0  0  0  0  0  0  0
  -44.5520   -1.0990    6.5494 C   0  0  0  0  0  0  0  0  0  0  0  0
  -48.8519    1.5547    4.1585 C   0  0  0  0  0  0  0  0  0  0  0  0
  -48.7044    0.4135    5.1644 C   0  0  0  0  0  0  0  0  0  0  0  0
  -49.7434    0.5479    6.2861 C   0  0  0  0  0  0  0  0  0  0  0  0
  -49.6010   -0.5654    7.3295 C   0  0  0  0  0  0  0  0  0  0  0  0
  -50.5871   -0.3705    8.3910 N   0  0  0  0  0  0  0  0  0  0  0  0
  -48.1861   -0.5928    7.9240 C   0  0  0  0  0  0  0  0  0  0  0  0
  -47.1302   -0.7154    6.8108 C   0  0  0  0  0  0  0  0  0  0  0  0
  -47.2786    0.3788    5.7368 C   0  0  0  0  0  0  0  0  0  0  0  0
  -50.4208    0.5254    8.8492 H   0  0  0  0  0  0  0  0  0  0  0  0
  -50.5038   -1.1228    9.0747 H   0  0  0  0  0  0  0  0  0  0  0  0
 28 27  1  0
 28 29  1  0
 29 30  1  0
 30 31  1  0
 30 32  1  0
 32 33  1  0
 33 21  1  0
 21 22  2  0
 22 23  1  0
 23 24  2  0
 24 25  1  0
 25 26  2  0
 26  1  1  0
  1  2  1  0
  2  3  2  0
  2  5  1  0
  5  6  2  0
  6  7  1  0
  7  8  2  0
  8  9  1  0
  8 10  1  0
 10 12  1  0
 12 13  2  0
 13 14  1  0
 13 15  1  0
 15 16  2  0
 16 17  1  0
 16 18  1  0
 18 19  2  0
 19 20  1  0
 10 11  2  0
 33 34  1  0
 34 28  1  0
 26 21  1  0
 11  5  1  0
 19 12  1  0
 31 35  1  0
 31 36  1  0
  1  4  1  0
M  END
> <minimizedAffinity>
-9.01178

> <CNNscore>
0.2011794597

> <CNNaffinity>
7.0475864410

> <CNN_VS>
1.4178296328

> <CNNaffinity_variance>
0.3549541235

$$$$



 36 39  0  0  0  0  0  0  0  0999 V2000
  -42.3922   -2.2131    0.6185 N   0  0  0  0  0  0  0  0  0  0  0  0
  -41.3437   -1.8316   -0.1976 C   0  0  0  0  0  0  0  0  0  0  0  0
  -41.4030   -1.1525   -1.2143 O   0  0  0  0  0  0  0  0  0  0  0  0
  -42.1480   -2.7474    1.4085 H   0  0  0  0  0  0  0  0  0  0  0  0
  -40.0158   -2.3285    0.2941 C   0  0  0  0  0  0  0  0  0  0  0  0
  -38.9409   -2.4456   -0.5805 C   0  0  0  0  0  0  0  0  0  0  0  0
  -37.7296   -2.9088   -0.0744 C   0  0  0  0  0  0  0  0  0  0  0  0
  -37.6430   -3.2403    1.2723 C   0  0  0  0  0  0  0  0  0  0  0  0
  -36.4841   -3.7028    1.7624 F   0  0  0  0  0  0  0  0  0  0  0  0
  -38.7657   -3.1022    2.0880 C   0  0  0  0  0  0  0  0  0  0  0  0
  -39.9560   -2.6385    1.6216 N   0  0  0  0  0  0  0  0  0  0  0  0
  -38.7466   -3.4603    3.4989 C   0  0  0  0  0  0  0  0  0  0  0  0
  -38.3773   -4.7403    3.9226 C   0  0  0  0  0  0  0  0  0  0  0  0
  -38.0372   -5.6731    3.0199 F   0  0  0  0  0  0  0  0  0  0  0  0
  -38.3332   -5.0817    5.2735 C   0  0  0  0  0  0  0  0  0  0  0  0
  -38.6662   -4.1253    6.2284 C   0  0  0  0  0  0  0  0  0  0  0  0
  -38.5859   -4.5643    8.0639 Br  0  0  0  0  0  0  0  0  0  0  0  0
  -39.0500   -2.8458    5.8399 C   0  0  0  0  0  0  0  0  0  0  0  0
  -39.0860   -2.5270    4.4838 C   0  0  0  0  0  0  0  0  0  0  0  0
  -39.4706   -1.2909    4.1315 F   0  0  0  0  0  0  0  0  0  0  0  0
  -44.6491   -2.0434    1.5610 C   0  0  0  0  0  0  0  0  0  0  0  0
  -46.0148   -1.7744    1.3300 C   0  0  0  0  0  0  0  0  0  0  0  0
  -46.4470   -1.4107    0.0658 C   0  0  0  0  0  0  0  0  0  0  0  0
  -45.6271   -1.2935   -0.9890 N   0  0  0  0  0  0  0  0  0  0  0  0
  -44.3144   -1.5569   -0.7654 C   0  0  0  0  0  0  0  0  0  0  0  0
  -43.7656   -1.9360    0.4656 C   0  0  0  0  0  0  0  0  0  0  0  0
  -43.3380   -0.3619    6.1773 C   0  0  0  0  0  0  0  0  0  0  0  0
  -43.7049   -1.5835    5.3351 C   0  0  0  0  0  0  0  0  0  0  0  0
  -42.5980   -2.6437    5.4149 C   0  0  0  0  0  0  0  0  0  0  0  0
  -42.9219   -3.8698    4.5545 C   0  0  0  0  0  0  0  0  0  0  0  0
  -41.8227   -4.8300    4.6371 N   0  0  0  0  0  0  0  0  0  0  0  0
  -43.1662   -3.4739    3.0918 C   0  0  0  0  0  0  0  0  0  0  0  0
  -44.2662   -2.4016    2.9945 C   0  0  0  0  0  0  0  0  0  0  0  0
  -43.9707   -1.1747    3.8777 C   0  0  0  0  0  0  0  0  0  0  0  0
  -40.9689   -4.4009    4.2803 H   0  0  0  0  0  0  0  0  0  0  0  0
  -42.0480   -5.6536    4.0793 H   0  0  0  0  0  0  0  0  0  0  0  0
 28 27  1  0
 28 29  1  0
 29 30  1  0
 30 31  1  0
 30 32  1  0
 32 33  1  0
 33 21  1  0
 21 22  2  0
 22 23  1  0
 23 24  2  0
 24 25  1  0
 25 26  2  0
 26  1  1  0
  1  2  1  0
  2  3  2  0
  2  5  1  0
  5  6  2  0
  6  7  1  0
  7  8  2  0
  8  9  1  0
  8 10  1  0
 10 12  1  0
 12 13  2  0
 13 14  1  0
 13 15  1  0
 15 16  2  0
 16 17  1  0
 16 18  1  0
 18 19  2  0
 19 20  1  0
 10 11  2  0
 33 34  1  0
 34 28  1  0
 26 21  1  0
 11  5  1  0
 19 12  1  0
 31 35  1  0
 31 36  1  0
  1  4  1  0
M  END
> <minimizedAffinity>
-10.67645

> <CNNscore>
0.1810120344

> <CNNaffinity>
7.1955389977

> <CNN_VS>
1.3024791479

> <CNNaffinity_variance>
1.0761299133

$$$$



 36 39  0  0  0  0  0  0  0  0999 V2000
  -43.4223   -1.5389    1.7133 N   0  0  0  0  0  0  0  0  0  0  0  0
  -44.6221   -1.7029    2.3799 C   0  0  0  0  0  0  0  0  0  0  0  0
  -45.6549   -2.1918    1.9409 O   0  0  0  0  0  0  0  0  0  0  0  0
  -42.6911   -1.1403    2.2384 H   0  0  0  0  0  0  0  0  0  0  0  0
  -44.5670   -1.2208    3.8000 C   0  0  0  0  0  0  0  0  0  0  0  0
  -45.6355   -0.5180    4.3462 C   0  0  0  0  0  0  0  0  0  0  0  0
  -45.5362   -0.0949    5.6687 C   0  0  0  0  0  0  0  0  0  0  0  0
  -44.3805   -0.3822    6.3847 C   0  0  0  0  0  0  0  0  0  0  0  0
  -44.2716    0.0368    7.6533 F   0  0  0  0  0  0  0  0  0  0  0  0
  -43.3469   -1.0869    5.7680 C   0  0  0  0  0  0  0  0  0  0  0  0
  -43.4249   -1.5238    4.4825 N   0  0  0  0  0  0  0  0  0  0  0  0
  -42.1005   -1.3927    6.4551 C   0  0  0  0  0  0  0  0  0  0  0  0
  -42.0701   -2.2290    7.5750 C   0  0  0  0  0  0  0  0  0  0  0  0
  -43.2082   -2.7635    8.0436 F   0  0  0  0  0  0  0  0  0  0  0  0
  -40.8766   -2.5453    8.2221 C   0  0  0  0  0  0  0  0  0  0  0  0
  -39.6818   -2.0153    7.7438 C   0  0  0  0  0  0  0  0  0  0  0  0
  -38.0531   -2.4554    8.5936 Br  0  0  0  0  0  0  0  0  0  0  0  0
  -39.6785   -1.1699    6.6390 C   0  0  0  0  0  0  0  0  0  0  0  0
  -40.8837   -0.8683    6.0077 C   0  0  0  0  0  0  0  0  0  0  0  0
  -40.8583   -0.0412    4.9515 F   0  0  0  0  0  0  0  0  0  0  0  0
  -41.7864   -2.1812    0.0039 C   0  0  0  0  0  0  0  0  0  0  0  0
  -41.5427   -2.4783   -1.3537 C   0  0  0  0  0  0  0  0  0  0  0  0
  -42.5847   -2.4658   -2.2654 C   0  0  0  0  0  0  0  0  0  0  0  0
  -43.8523   -2.1803   -1.9334 N   0  0  0  0  0  0  0  0  0  0  0  0
  -44.0837   -1.8907   -0.6276 C   0  0  0  0  0  0  0  0  0  0  0  0
  -43.1106   -1.8686    0.3789 C   0  0  0  0  0  0  0  0  0  0  0  0
  -36.8215   -3.1646    0.4937 C   0  0  0  0  0  0  0  0  0  0  0  0
  -38.0810   -2.6467    1.1875 C   0  0  0  0  0  0  0  0  0  0  0  0
  -38.3586   -3.4485    2.4665 C   0  0  0  0  0  0  0  0  0  0  0  0
  -39.6347   -2.9736    3.1697 C   0  0  0  0  0  0  0  0  0  0  0  0
  -39.8719   -3.7912    4.3581 N   0  0  0  0  0  0  0  0  0  0  0  0
  -40.8468   -3.0455    2.2307 C   0  0  0  0  0  0  0  0  0  0  0  0
  -40.5805   -2.2557    0.9367 C   0  0  0  0  0  0  0  0  0  0  0  0
  -39.2844   -2.7002    0.2330 C   0  0  0  0  0  0  0  0  0  0  0  0
  -39.9984   -4.7648    4.0813 H   0  0  0  0  0  0  0  0  0  0  0  0
  -40.7109   -3.4617    4.8356 H   0  0  0  0  0  0  0  0  0  0  0  0
 28 27  1  0
 28 29  1  0
 29 30  1  0
 30 31  1  0
 30 32  1  0
 32 33  1  0
 33 21  1  0
 21 22  2  0
 22 23  1  0
 23 24  2  0
 24 25  1  0
 25 26  2  0
 26  1  1  0
  1  2  1  0
  2  3  2  0
  2  5  1  0
  5  6  2  0
  6  7  1  0
  7  8  2  0
  8  9  1  0
  8 10  1  0
 10 12  1  0
 12 13  2  0
 13 14  1  0
 13 15  1  0
 15 16  2  0
 16 17  1  0
 16 18  1  0
 18 19  2  0
 19 20  1  0
 10 11  2  0
 33 34  1  0
 34 28  1  0
 26 21  1  0
 11  5  1  0
 19 12  1  0
 31 35  1  0
 31 36  1  0
  1  4  1  0
M  END
> <minimizedAffinity>
-10.20261

> <CNNscore>
0.1605697423

> <CNNaffinity>
7.4317359924

> <CNN_VS>
1.1933119297

> <CNNaffinity_variance>
0.8917153478

$$$$



 36 39  0  0  0  0  0  0  0  0999 V2000
  -40.8528   -2.5759    0.5944 N   0  0  0  0  0  0  0  0  0  0  0  0
  -41.7664   -1.8424   -0.1392 C   0  0  0  0  0  0  0  0  0  0  0  0
  -41.5867   -1.3030   -1.2232 O   0  0  0  0  0  0  0  0  0  0  0  0
  -41.1859   -2.9516    1.4412 H   0  0  0  0  0  0  0  0  0  0  0  0
  -43.1098   -1.7592    0.5245 C   0  0  0  0  0  0  0  0  0  0  0  0
  -44.2668   -1.6543   -0.2400 C   0  0  0  0  0  0  0  0  0  0  0  0
  -45.4884   -1.5829    0.4235 C   0  0  0  0  0  0  0  0  0  0  0  0
  -45.5051   -1.6119    1.8127 C   0  0  0  0  0  0  0  0  0  0  0  0
  -46.6768   -1.5267    2.4582 F   0  0  0  0  0  0  0  0  0  0  0  0
  -44.3031   -1.7128    2.5128 C   0  0  0  0  0  0  0  0  0  0  0  0
  -43.0980   -1.7985    1.8884 N   0  0  0  0  0  0  0  0  0  0  0  0
  -44.2524   -1.7184    3.9677 C   0  0  0  0  0  0  0  0  0  0  0  0
  -43.6300   -2.7527    4.6728 C   0  0  0  0  0  0  0  0  0  0  0  0
  -43.0685   -3.7741    4.0079 F   0  0  0  0  0  0  0  0  0  0  0  0
  -43.5566   -2.7511    6.0649 C   0  0  0  0  0  0  0  0  0  0  0  0
  -44.1180   -1.6936    6.7748 C   0  0  0  0  0  0  0  0  0  0  0  0
  -44.0037   -1.6635    8.6601 Br  0  0  0  0  0  0  0  0  0  0  0  0
  -44.7555   -0.6548    6.1043 C   0  0  0  0  0  0  0  0  0  0  0  0
  -44.8160   -0.6773    4.7122 C   0  0  0  0  0  0  0  0  0  0  0  0
  -45.4462    0.3288    4.0872 F   0  0  0  0  0  0  0  0  0  0  0  0
  -38.5176   -2.8371    1.2938 C   0  0  0  0  0  0  0  0  0  0  0  0
  -37.1861   -3.1026    0.9099 C   0  0  0  0  0  0  0  0  0  0  0  0
  -36.8865   -3.3776   -0.4137 C   0  0  0  0  0  0  0  0  0  0  0  0
  -37.8079   -3.4090   -1.3876 N   0  0  0  0  0  0  0  0  0  0  0  0
  -39.0875   -3.1492   -1.0167 C   0  0  0  0  0  0  0  0  0  0  0  0
  -39.5061   -2.8553    0.2866 C   0  0  0  0  0  0  0  0  0  0  0  0
  -39.5481   -4.8247    5.8594 C   0  0  0  0  0  0  0  0  0  0  0  0
  -39.1688   -3.5606    5.0885 C   0  0  0  0  0  0  0  0  0  0  0  0
  -40.1877   -2.4435    5.3529 C   0  0  0  0  0  0  0  0  0  0  0  0
  -39.8524   -1.1707    4.5682 C   0  0  0  0  0  0  0  0  0  0  0  0
  -40.8705   -0.1539    4.8266 N   0  0  0  0  0  0  0  0  0  0  0  0
  -39.7613   -1.4535    3.0623 C   0  0  0  0  0  0  0  0  0  0  0  0
  -38.7516   -2.5805    2.7802 C   0  0  0  0  0  0  0  0  0  0  0  0
  -39.0567   -3.8580    3.5849 C   0  0  0  0  0  0  0  0  0  0  0  0
  -41.7795   -0.4959    4.5150 H   0  0  0  0  0  0  0  0  0  0  0  0
  -40.6358    0.6990    4.3188 H   0  0  0  0  0  0  0  0  0  0  0  0
 28 27  1  0
 28 29  1  0
 29 30  1  0
 30 31  1  0
 30 32  1  0
 32 33  1  0
 33 21  1  0
 21 22  2  0
 22 23  1  0
 23 24  2  0
 24 25  1  0
 25 26  2  0
 26  1  1  0
  1  2  1  0
  2  3  2  0
  2  5  1  0
  5  6  2  0
  6  7  1  0
  7  8  2  0
  8  9  1  0
  8 10  1  0
 10 12  1  0
 12 13  2  0
 13 14  1  0
 13 15  1  0
 15 16  2  0
 16 17  1  0
 16 18  1  0
 18 19  2  0
 19 20  1  0
 10 11  2  0
 33 34  1  0
 34 28  1  0
 26 21  1  0
 11  5  1  0
 19 12  1  0
 31 35  1  0
 31 36  1  0
  1  4  1  0
M  END
> <minimizedAffinity>
-9.85547

> <CNNscore>
0.1397900879

> <CNNaffinity>
7.7925033569

> <CNN_VS>
1.0893146992

> <CNNaffinity_variance>
0.1496864259

$$$$
