


 18 19  0  0  0  0  0  0  0  0999 V2000
    8.5713    0.7948   25.2787 C   0  0  0  0  0  0  0  0  0  0  0  0
    8.2258    1.8825   26.0515 C   0  0  0  0  0  0  0  0  0  0  0  0
    8.4940    3.1507   25.4124 C   0  0  0  0  0  0  0  0  0  0  0  0
    8.2913    4.4936   25.8381 C   0  0  0  0  0  0  0  0  0  0  0  0
    7.4532    4.9276   27.7082 I   0  0  0  0  0  0  0  0  0  0  0  0
    8.6443    5.5685   25.0168 C   0  0  0  0  0  0  0  0  0  0  0  0
    9.1986    5.3224   23.7748 C   0  0  0  0  0  0  0  0  0  0  0  0
    9.5350    6.3548   22.9918 F   0  0  0  0  0  0  0  0  0  0  0  0
    9.4177    4.0283   23.3157 C   0  0  0  0  0  0  0  0  0  0  0  0
    9.0604    2.9512   24.1475 C   0  0  0  0  0  0  0  0  0  0  0  0
    9.2464    1.2781   23.7906 S   0  0  0  0  0  0  0  0  0  0  0  0
    8.6068   -1.5461   24.7756 N   0  0  0  0  0  0  0  0  0  0  0  0
    8.4097   -0.5970   25.6631 C   0  0  0  0  0  0  0  0  0  0  0  0
    8.0696   -0.8684   26.9029 N   0  0  0  0  0  0  0  0  0  0  0  0
    8.4983   -2.4903   25.0323 H   0  0  0  0  0  0  0  0  0  0  0  0
    8.8630   -1.3128   23.8540 H   0  0  0  0  0  0  0  0  0  0  0  0
    7.9539   -1.8036   27.1880 H   0  0  0  0  0  0  0  0  0  0  0  0
    7.9305   -0.1367   27.5466 H   0  0  0  0  0  0  0  0  0  0  0  0
 12 13  1  0
 13 14  2  0
 13  1  1  0
  1  2  2  0
  2  3  1  0
  3  4  2  0
  4  5  1  0
  4  6  1  0
  6  7  2  0
  7  8  1  0
  7  9  1  0
  9 10  2  0
 10 11  1  0
 11  1  1  0
 10  3  1  0
 12 15  1  0
 12 16  1  0
 14 17  1  0
 14 18  1  0
M  CHG 1  14   1
M  END
> <minimizedAffinity>
-6.97434

> <CNNscore>
0.9638091326

> <CNNaffinity>
5.3018984795

> <CNN_VS>
5.1100182533

> <CNNaffinity_variance>
0.2814612389

$$$$



 18 19  0  0  0  0  0  0  0  0999 V2000
   12.4911   11.5341   20.1276 C   0  0  0  0  0  0  0  0  0  0  0  0
   11.3583   11.2484   20.8590 C   0  0  0  0  0  0  0  0  0  0  0  0
   11.4252    9.9820   21.5522 C   0  0  0  0  0  0  0  0  0  0  0  0
   10.5029    9.3132   22.4053 C   0  0  0  0  0  0  0  0  0  0  0  0
    8.6444   10.1584   22.8741 I   0  0  0  0  0  0  0  0  0  0  0  0
   10.8115    8.0680   22.9609 C   0  0  0  0  0  0  0  0  0  0  0  0
   12.0289    7.4788   22.6762 C   0  0  0  0  0  0  0  0  0  0  0  0
   12.3200    6.2863   23.2106 F   0  0  0  0  0  0  0  0  0  0  0  0
   12.9616    8.0920   21.8472 C   0  0  0  0  0  0  0  0  0  0  0  0
   12.6445    9.3450   21.2911 C   0  0  0  0  0  0  0  0  0  0  0  0
   13.6369   10.2777   20.2392 S   0  0  0  0  0  0  0  0  0  0  0  0
   13.9187   13.2142   19.1933 N   0  0  0  0  0  0  0  0  0  0  0  0
   12.7035   12.7351   19.3382 C   0  0  0  0  0  0  0  0  0  0  0  0
   11.6613   13.3119   18.7836 N   0  0  0  0  0  0  0  0  0  0  0  0
   14.0666   14.0279   18.6591 H   0  0  0  0  0  0  0  0  0  0  0  0
   14.6811   12.7595   19.6190 H   0  0  0  0  0  0  0  0  0  0  0  0
   11.7790   14.1268   18.2438 H   0  0  0  0  0  0  0  0  0  0  0  0
   10.7628   12.9292   18.9077 H   0  0  0  0  0  0  0  0  0  0  0  0
 12 13  1  0
 13 14  2  0
 13  1  1  0
  1  2  2  0
  2  3  1  0
  3  4  2  0
  4  5  1  0
  4  6  1  0
  6  7  2  0
  7  8  1  0
  7  9  1  0
  9 10  2  0
 10 11  1  0
 11  1  1  0
 10  3  1  0
 12 15  1  0
 12 16  1  0
 14 17  1  0
 14 18  1  0
M  CHG 1  14   1
M  END
> <minimizedAffinity>
-4.67453

> <CNNscore>
0.3095735610

> <CNNaffinity>
4.0544009209

> <CNN_VS>
1.2551352978

> <CNNaffinity_variance>
0.4981263578

$$$$



 18 19  0  0  0  0  0  0  0  0999 V2000
   12.8158   12.2854   19.9275 C   0  0  0  0  0  0  0  0  0  0  0  0
   12.6606   11.0827   20.5826 C   0  0  0  0  0  0  0  0  0  0  0  0
   13.8227   10.6897   21.3467 C   0  0  0  0  0  0  0  0  0  0  0  0
   14.0877    9.5523   22.1602 C   0  0  0  0  0  0  0  0  0  0  0  0
   12.6510    8.0528   22.4357 I   0  0  0  0  0  0  0  0  0  0  0  0
   15.3189    9.4017   22.8052 C   0  0  0  0  0  0  0  0  0  0  0  0
   16.2918   10.3709   22.6490 C   0  0  0  0  0  0  0  0  0  0  0  0
   17.4692   10.2224   23.2685 F   0  0  0  0  0  0  0  0  0  0  0  0
   16.0807   11.4984   21.8632 C   0  0  0  0  0  0  0  0  0  0  0  0
   14.8394   11.6436   21.2168 C   0  0  0  0  0  0  0  0  0  0  0  0
   14.3638   12.9451   20.1965 S   0  0  0  0  0  0  0  0  0  0  0  0
   10.5588   12.9509   19.4833 N   0  0  0  0  0  0  0  0  0  0  0  0
   11.8135   12.9256   19.0929 C   0  0  0  0  0  0  0  0  0  0  0  0
   12.1970   13.4691   17.9599 N   0  0  0  0  0  0  0  0  0  0  0  0
    9.8768   13.3838   18.9205 H   0  0  0  0  0  0  0  0  0  0  0  0
   10.3009   12.5370   20.3385 H   0  0  0  0  0  0  0  0  0  0  0  0
   11.5370   13.9090   17.3766 H   0  0  0  0  0  0  0  0  0  0  0  0
   13.1444   13.4366   17.6941 H   0  0  0  0  0  0  0  0  0  0  0  0
 12 13  1  0
 13 14  2  0
 13  1  1  0
  1  2  2  0
  2  3  1  0
  3  4  2  0
  4  5  1  0
  4  6  1  0
  6  7  2  0
  7  8  1  0
  7  9  1  0
  9 10  2  0
 10 11  1  0
 11  1  1  0
 10  3  1  0
 12 15  1  0
 12 16  1  0
 14 17  1  0
 14 18  1  0
M  CHG 1  14   1
M  END
> <minimizedAffinity>
-4.52429

> <CNNscore>
0.2338821292

> <CNNaffinity>
4.3384828568

> <CNN_VS>
1.0146936178

> <CNNaffinity_variance>
0.9670171142

$$$$



 18 19  0  0  0  0  0  0  0  0999 V2000
   15.2131   10.6422   22.2319 C   0  0  0  0  0  0  0  0  0  0  0  0
   14.2820   10.1252   23.1069 C   0  0  0  0  0  0  0  0  0  0  0  0
   12.9221   10.2325   22.6297 C   0  0  0  0  0  0  0  0  0  0  0  0
   11.6794    9.8316   23.1959 C   0  0  0  0  0  0  0  0  0  0  0  0
   11.5890    8.8855   25.0627 I   0  0  0  0  0  0  0  0  0  0  0  0
   10.4765   10.0553   22.5197 C   0  0  0  0  0  0  0  0  0  0  0  0
   10.4954   10.6755   21.2846 C   0  0  0  0  0  0  0  0  0  0  0  0
    9.3410   10.8877   20.6408 F   0  0  0  0  0  0  0  0  0  0  0  0
   11.6839   11.0869   20.6916 C   0  0  0  0  0  0  0  0  0  0  0  0
   12.8909   10.8589   21.3777 C   0  0  0  0  0  0  0  0  0  0  0  0
   14.4688   11.2874   20.8414 S   0  0  0  0  0  0  0  0  0  0  0  0
   17.2522    9.6078   22.9434 N   0  0  0  0  0  0  0  0  0  0  0  0
   16.6497   10.6652   22.4472 C   0  0  0  0  0  0  0  0  0  0  0  0
   17.3122   11.7555   22.1329 N   0  0  0  0  0  0  0  0  0  0  0  0
   18.2255    9.6196   23.0907 H   0  0  0  0  0  0  0  0  0  0  0  0
   16.7301    8.8038   23.1678 H   0  0  0  0  0  0  0  0  0  0  0  0
   18.2864   11.7961   22.2693 H   0  0  0  0  0  0  0  0  0  0  0  0
   16.8344   12.5318   21.7609 H   0  0  0  0  0  0  0  0  0  0  0  0
 12 13  1  0
 13 14  2  0
 13  1  1  0
  1  2  2  0
  2  3  1  0
  3  4  2  0
  4  5  1  0
  4  6  1  0
  6  7  2  0
  7  8  1  0
  7  9  1  0
  9 10  2  0
 10 11  1  0
 11  1  1  0
 10  3  1  0
 12 15  1  0
 12 16  1  0
 14 17  1  0
 14 18  1  0
M  CHG 1  14   1
M  END
> <minimizedAffinity>
-4.22585

> <CNNscore>
0.2197826058

> <CNNaffinity>
3.8146097660

> <CNN_VS>
0.8383848667

> <CNNaffinity_variance>
0.3337002099

$$$$



 18 19  0  0  0  0  0  0  0  0999 V2000
    9.7066    5.1330   23.6976 C   0  0  0  0  0  0  0  0  0  0  0  0
    9.1452    4.9887   24.9481 C   0  0  0  0  0  0  0  0  0  0  0  0
    8.8874    3.6129   25.3077 C   0  0  0  0  0  0  0  0  0  0  0  0
    8.3350    3.0219   26.4788 C   0  0  0  0  0  0  0  0  0  0  0  0
    7.7235    4.1934   28.1041 I   0  0  0  0  0  0  0  0  0  0  0  0
    8.1857    1.6357   26.5817 C   0  0  0  0  0  0  0  0  0  0  0  0
    8.5793    0.8290   25.5306 C   0  0  0  0  0  0  0  0  0  0  0  0
    8.4344   -0.4978   25.6337 F   0  0  0  0  0  0  0  0  0  0  0  0
    9.1222    1.3597   24.3657 C   0  0  0  0  0  0  0  0  0  0  0  0
    9.2695    2.7556   24.2686 C   0  0  0  0  0  0  0  0  0  0  0  0
    9.9061    3.6259   22.9276 S   0  0  0  0  0  0  0  0  0  0  0  0
   11.3435    6.6838   22.8916 N   0  0  0  0  0  0  0  0  0  0  0  0
   10.0752    6.3954   23.0803 C   0  0  0  0  0  0  0  0  0  0  0  0
    9.1172    7.2203   22.7222 N   0  0  0  0  0  0  0  0  0  0  0  0
   11.5972    7.5383   22.4736 H   0  0  0  0  0  0  0  0  0  0  0  0
   12.0399    6.0453   23.1683 H   0  0  0  0  0  0  0  0  0  0  0  0
    9.3410    8.0819   22.3019 H   0  0  0  0  0  0  0  0  0  0  0  0
    8.1755    6.9766   22.8742 H   0  0  0  0  0  0  0  0  0  0  0  0
 12 13  1  0
 13 14  2  0
 13  1  1  0
  1  2  2  0
  2  3  1  0
  3  4  2  0
  4  5  1  0
  4  6  1  0
  6  7  2  0
  7  8  1  0
  7  9  1  0
  9 10  2  0
 10 11  1  0
 11  1  1  0
 10  3  1  0
 12 15  1  0
 12 16  1  0
 14 17  1  0
 14 18  1  0
M  CHG 1  14   1
M  END
> <minimizedAffinity>
-5.14191

> <CNNscore>
0.2155812979

> <CNNaffinity>
4.4748253822

> <CNN_VS>
0.9646886587

> <CNNaffinity_variance>
0.0981146917

$$$$



 18 19  0  0  0  0  0  0  0  0999 V2000
   15.6497   11.0392   21.8846 C   0  0  0  0  0  0  0  0  0  0  0  0
   14.2752   11.0296   21.7824 C   0  0  0  0  0  0  0  0  0  0  0  0
   13.7683   11.9137   20.7577 C   0  0  0  0  0  0  0  0  0  0  0  0
   12.4459   12.2034   20.3184 C   0  0  0  0  0  0  0  0  0  0  0  0
   10.7822   11.2740   21.1881 I   0  0  0  0  0  0  0  0  0  0  0  0
   12.2160   13.1187   19.2869 C   0  0  0  0  0  0  0  0  0  0  0  0
   13.2886   13.7512   18.6870 C   0  0  0  0  0  0  0  0  0  0  0  0
   13.0636   14.6269   17.6997 F   0  0  0  0  0  0  0  0  0  0  0  0
   14.5982   13.5027   19.0826 C   0  0  0  0  0  0  0  0  0  0  0  0
   14.8224   12.5806   20.1214 C   0  0  0  0  0  0  0  0  0  0  0  0
   16.3484   12.1269   20.7744 S   0  0  0  0  0  0  0  0  0  0  0  0
   16.1181    8.9890   23.0298 N   0  0  0  0  0  0  0  0  0  0  0  0
   16.4304   10.2484   22.8205 C   0  0  0  0  0  0  0  0  0  0  0  0
   17.4395   10.8228   23.4355 N   0  0  0  0  0  0  0  0  0  0  0  0
   16.6448    8.4500   23.6633 H   0  0  0  0  0  0  0  0  0  0  0  0
   15.3576    8.5847   22.5531 H   0  0  0  0  0  0  0  0  0  0  0  0
   17.9839   10.3083   24.0744 H   0  0  0  0  0  0  0  0  0  0  0  0
   17.6513   11.7676   23.2573 H   0  0  0  0  0  0  0  0  0  0  0  0
 12 13  1  0
 13 14  2  0
 13  1  1  0
  1  2  2  0
  2  3  1  0
  3  4  2  0
  4  5  1  0
  4  6  1  0
  6  7  2  0
  7  8  1  0
  7  9  1  0
  9 10  2  0
 10 11  1  0
 11  1  1  0
 10  3  1  0
 12 15  1  0
 12 16  1  0
 14 17  1  0
 14 18  1  0
M  CHG 1  14   1
M  END
> <minimizedAffinity>
-4.24170

> <CNNscore>
0.1990522295

> <CNNaffinity>
4.1847000122

> <CNN_VS>
0.8329738379

> <CNNaffinity_variance>
0.1557739377

$$$$



 18 19  0  0  0  0  0  0  0  0999 V2000
   12.0108   11.3599   21.0400 C   0  0  0  0  0  0  0  0  0  0  0  0
   11.1760   10.3964   21.5638 C   0  0  0  0  0  0  0  0  0  0  0  0
   11.7765    9.6359   22.6361 C   0  0  0  0  0  0  0  0  0  0  0  0
   11.2814    8.5741   23.4442 C   0  0  0  0  0  0  0  0  0  0  0  0
    9.3384    7.8319   23.1951 I   0  0  0  0  0  0  0  0  0  0  0  0
   12.0788    7.9936   24.4349 C   0  0  0  0  0  0  0  0  0  0  0  0
   13.3661    8.4573   24.6306 C   0  0  0  0  0  0  0  0  0  0  0  0
   14.1260    7.8983   25.5805 F   0  0  0  0  0  0  0  0  0  0  0  0
   13.8949    9.4906   23.8652 C   0  0  0  0  0  0  0  0  0  0  0  0
   13.0870   10.0703   22.8697 C   0  0  0  0  0  0  0  0  0  0  0  0
   13.5328   11.3475   21.8062 S   0  0  0  0  0  0  0  0  0  0  0  0
   12.5691   12.5609   19.0450 N   0  0  0  0  0  0  0  0  0  0  0  0
   11.6720   12.2719   19.9610 C   0  0  0  0  0  0  0  0  0  0  0  0
   10.4627   12.7848   19.9316 N   0  0  0  0  0  0  0  0  0  0  0  0
   12.3432   13.1784   18.3123 H   0  0  0  0  0  0  0  0  0  0  0  0
   13.4670   12.1597   19.0915 H   0  0  0  0  0  0  0  0  0  0  0  0
   10.2086   13.4054   19.2108 H   0  0  0  0  0  0  0  0  0  0  0  0
    9.8107   12.5486   20.6304 H   0  0  0  0  0  0  0  0  0  0  0  0
 12 13  1  0
 13 14  2  0
 13  1  1  0
  1  2  2  0
  2  3  1  0
  3  4  2  0
  4  5  1  0
  4  6  1  0
  6  7  2  0
  7  8  1  0
  7  9  1  0
  9 10  2  0
 10 11  1  0
 11  1  1  0
 10  3  1  0
 12 15  1  0
 12 16  1  0
 14 17  1  0
 14 18  1  0
M  CHG 1  14   1
M  END
> <minimizedAffinity>
-4.12796

> <CNNscore>
0.1958109438

> <CNNaffinity>
4.0167393684

> <CNN_VS>
0.7865215540

> <CNNaffinity_variance>
0.5317456722

$$$$



 18 19  0  0  0  0  0  0  0  0999 V2000
   13.3077   11.7597   20.3702 C   0  0  0  0  0  0  0  0  0  0  0  0
   14.0314   11.7830   21.5430 C   0  0  0  0  0  0  0  0  0  0  0  0
   13.7732   10.6491   22.4011 C   0  0  0  0  0  0  0  0  0  0  0  0
   14.2946   10.2784   23.6724 C   0  0  0  0  0  0  0  0  0  0  0  0
   15.7195   11.4615   24.6513 I   0  0  0  0  0  0  0  0  0  0  0  0
   13.8721    9.1071   24.3082 C   0  0  0  0  0  0  0  0  0  0  0  0
   12.9343    8.2994   23.6931 C   0  0  0  0  0  0  0  0  0  0  0  0
   12.5327    7.1789   24.3058 F   0  0  0  0  0  0  0  0  0  0  0  0
   12.3945    8.6203   22.4526 C   0  0  0  0  0  0  0  0  0  0  0  0
   12.8239    9.8006   21.8184 C   0  0  0  0  0  0  0  0  0  0  0  0
   12.2899   10.3950   20.2943 S   0  0  0  0  0  0  0  0  0  0  0  0
   14.5158   13.3393   19.0363 N   0  0  0  0  0  0  0  0  0  0  0  0
   13.3692   12.7641   19.3223 C   0  0  0  0  0  0  0  0  0  0  0  0
   12.2631   13.0690   18.6820 N   0  0  0  0  0  0  0  0  0  0  0  0
   14.5614   14.0203   18.3268 H   0  0  0  0  0  0  0  0  0  0  0  0
   15.3290   13.0891   19.5315 H   0  0  0  0  0  0  0  0  0  0  0  0
   12.2785   13.7464   17.9678 H   0  0  0  0  0  0  0  0  0  0  0  0
   11.4188   12.6202   18.9166 H   0  0  0  0  0  0  0  0  0  0  0  0
 12 13  1  0
 13 14  2  0
 13  1  1  0
  1  2  2  0
  2  3  1  0
  3  4  2  0
  4  5  1  0
  4  6  1  0
  6  7  2  0
  7  8  1  0
  7  9  1  0
  9 10  2  0
 10 11  1  0
 11  1  1  0
 10  3  1  0
 12 15  1  0
 12 16  1  0
 14 17  1  0
 14 18  1  0
M  CHG 1  14   1
M  END
> <minimizedAffinity>
-4.09166

> <CNNscore>
0.1832401603

> <CNNaffinity>
4.0024828911

> <CNN_VS>
0.7334156036

> <CNNaffinity_variance>
0.3600110710

$$$$



 18 19  0  0  0  0  0  0  0  0999 V2000
   11.1264   12.0882   20.5738 C   0  0  0  0  0  0  0  0  0  0  0  0
   11.6133   10.9859   21.2429 C   0  0  0  0  0  0  0  0  0  0  0  0
   10.5762   10.1207   21.7574 C   0  0  0  0  0  0  0  0  0  0  0  0
   10.6292    8.9003   22.4878 C   0  0  0  0  0  0  0  0  0  0  0  0
   12.4585    8.0232   23.0099 I   0  0  0  0  0  0  0  0  0  0  0  0
    9.4574    8.2455   22.8783 C   0  0  0  0  0  0  0  0  0  0  0  0
    8.2310    8.7924   22.5509 C   0  0  0  0  0  0  0  0  0  0  0  0
    7.1116    8.1618   22.9270 F   0  0  0  0  0  0  0  0  0  0  0  0
    8.1280    9.9832   21.8405 C   0  0  0  0  0  0  0  0  0  0  0  0
    9.3113   10.6372   21.4508 C   0  0  0  0  0  0  0  0  0  0  0  0
    9.4226   12.1156   20.5773 S   0  0  0  0  0  0  0  0  0  0  0  0
   12.2891   13.0018   18.6903 N   0  0  0  0  0  0  0  0  0  0  0  0
   11.9362   13.1210   19.9507 C   0  0  0  0  0  0  0  0  0  0  0  0
   12.2939   14.1576   20.6745 N   0  0  0  0  0  0  0  0  0  0  0  0
   12.8378   13.6996   18.2646 H   0  0  0  0  0  0  0  0  0  0  0  0
   12.0046   12.2147   18.1718 H   0  0  0  0  0  0  0  0  0  0  0  0
   12.8427   14.8709   20.2754 H   0  0  0  0  0  0  0  0  0  0  0  0
   12.0131   14.2210   21.6160 H   0  0  0  0  0  0  0  0  0  0  0  0
 12 13  1  0
 13 14  2  0
 13  1  1  0
  1  2  2  0
  2  3  1  0
  3  4  2  0
  4  5  1  0
  4  6  1  0
  6  7  2  0
  7  8  1  0
  7  9  1  0
  9 10  2  0
 10 11  1  0
 11  1  1  0
 10  3  1  0
 12 15  1  0
 12 16  1  0
 14 17  1  0
 14 18  1  0
M  CHG 1  14   1
M  END
> <minimizedAffinity>
-4.01605

> <CNNscore>
0.1821983904

> <CNNaffinity>
3.9150800705

> <CNN_VS>
0.7133212686

> <CNNaffinity_variance>
0.4294808209

$$$$
