


 30 31  0  0  0  0  0  0  0  0999 V2000
   26.9567   30.0189    8.8917 C   0  0  0  0  0  0  0  0  0  0  0  0
   27.5241   29.3977    7.7481 O   0  0  0  0  0  0  0  0  0  0  0  0
   26.7308   28.9449    9.9297 C   0  0  0  0  0  0  0  0  0  0  0  0
   25.6376   28.8145   10.7043 C   0  0  0  0  0  0  0  0  0  0  0  0
   24.5409   29.8246   10.5872 C   0  0  0  0  0  0  0  0  0  0  0  0
   23.5020   29.7081   11.2382 O   0  0  0  0  0  0  0  0  0  0  0  0
   24.7564   31.0176    9.6554 C   0  0  0  0  0  0  0  0  0  0  0  0
   23.5066   31.5176    9.1858 O   0  0  0  0  0  0  0  0  0  0  0  0
   25.5977   30.6055    8.4607 C   0  0  0  0  0  0  0  0  0  0  0  0
   28.3844   29.0151    7.9814 H   0  0  0  0  0  0  0  0  0  0  0  0
   23.0488   30.8246    8.6849 H   0  0  0  0  0  0  0  0  0  0  0  0
   27.8910   31.1471    9.4200 C   0  0  0  0  0  0  0  0  0  0  0  0
   28.5089   31.1147   10.8687 C   0  0  0  0  0  0  0  0  0  0  0  0
   28.7630   29.6616   11.3137 C   0  0  0  0  0  0  0  0  0  0  0  0
   27.5845   31.8027   11.8836 C   0  0  0  0  0  0  0  0  0  0  0  0
   29.8690   31.8911   10.7603 C   0  0  0  0  0  0  0  0  0  0  0  0
   30.9891   32.4619    8.4975 C   0  0  0  0  0  0  0  0  0  0  0  0
   30.0880   32.9117    9.6339 C   0  0  0  0  0  0  0  0  0  0  0  0
   25.4795   27.7238   11.7307 C   0  0  0  0  0  0  0  0  0  0  0  0
   24.1725   26.9476   11.5686 C   0  0  0  0  0  0  0  0  0  0  0  0
   24.0099   26.4085   10.1569 C   0  0  0  0  0  0  0  0  0  0  0  0
   24.8356   25.6588    9.6495 O   0  0  0  0  0  0  0  0  0  0  0  0
   22.8568   26.8943    9.5625 N   0  0  0  0  0  0  0  0  0  0  0  0
   22.2848   27.4648   10.1252 H   0  0  0  0  0  0  0  0  0  0  0  0
   22.4065   26.6672    8.2455 C   0  0  0  0  0  0  0  0  0  0  0  0
   21.5078   25.6615    7.8879 C   0  0  0  0  0  0  0  0  0  0  0  0
   21.1273   25.4934    6.5520 C   0  0  0  0  0  0  0  0  0  0  0  0
   21.6420   26.3293    5.5636 C   0  0  0  0  0  0  0  0  0  0  0  0
   22.5321   27.3399    5.9111 C   0  0  0  0  0  0  0  0  0  0  0  0
   22.9125   27.5076    7.2454 C   0  0  0  0  0  0  0  0  0  0  0  0
 17 18  1  0
 18 16  1  0
 16 13  1  0
 13 14  1  0
 13 15  1  0
 13 12  1  0
 12  1  1  0
  1  2  1  0
  1  3  1  0
  3  4  2  0
  4 19  1  0
 19 20  1  0
 20 21  1  0
 21 22  2  0
 21 23  1  0
 23 25  1  0
 25 26  2  0
 26 27  1  0
 27 28  2  0
 28 29  1  0
 29 30  2  0
  4  5  1  0
  5  6  2  0
  5  7  1  0
  7  8  1  0
  7  9  1  0
  9  1  1  0
 30 25  1  0
  2 10  1  0
 23 24  1  0
  8 11  1  0
M  END
> <minimizedAffinity>
-5.37867

> <CNNscore>
0.4758405685

> <CNNaffinity>
5.4265646935

> <CNN_VS>
2.5821795464

> <CNNaffinity_variance>
0.1705217510

$$$$



 30 31  0  0  0  0  0  0  0  0999 V2000
   25.6765   28.5821    9.1650 C   0  0  0  0  0  0  0  0  0  0  0  0
   26.4934   28.1457    8.0890 O   0  0  0  0  0  0  0  0  0  0  0  0
   25.3362   27.3703   10.0002 C   0  0  0  0  0  0  0  0  0  0  0  0
   24.1282   27.0869   10.5227 C   0  0  0  0  0  0  0  0  0  0  0  0
   23.0038   28.0508   10.3150 C   0  0  0  0  0  0  0  0  0  0  0  0
   21.8715   27.8001   10.7296 O   0  0  0  0  0  0  0  0  0  0  0  0
   23.3054   29.3658    9.5954 C   0  0  0  0  0  0  0  0  0  0  0  0
   22.1344   29.8642    8.9529 O   0  0  0  0  0  0  0  0  0  0  0  0
   24.3851   29.1561    8.5490 C   0  0  0  0  0  0  0  0  0  0  0  0
   27.3193   27.7764    8.4391 H   0  0  0  0  0  0  0  0  0  0  0  0
   21.8308   29.2230    8.2913 H   0  0  0  0  0  0  0  0  0  0  0  0
   26.4102   29.6729    9.9997 C   0  0  0  0  0  0  0  0  0  0  0  0
   27.1957   30.8593    9.3238 C   0  0  0  0  0  0  0  0  0  0  0  0
   26.2262   31.9872    8.9213 C   0  0  0  0  0  0  0  0  0  0  0  0
   27.9639   30.3826    8.0827 C   0  0  0  0  0  0  0  0  0  0  0  0
   28.1975   31.3740   10.4174 C   0  0  0  0  0  0  0  0  0  0  0  0
   29.5717   33.5061    9.9013 C   0  0  0  0  0  0  0  0  0  0  0  0
   29.5415   31.9915   10.0043 C   0  0  0  0  0  0  0  0  0  0  0  0
   23.8576   25.8633   11.3581 C   0  0  0  0  0  0  0  0  0  0  0  0
   22.9608   24.8506   10.6458 C   0  0  0  0  0  0  0  0  0  0  0  0
   23.0484   24.9869    9.1346 C   0  0  0  0  0  0  0  0  0  0  0  0
   24.0749   24.7273    8.5181 O   0  0  0  0  0  0  0  0  0  0  0  0
   21.8565   25.4496    8.6014 N   0  0  0  0  0  0  0  0  0  0  0  0
   21.1165   25.5786    9.2378 H   0  0  0  0  0  0  0  0  0  0  0  0
   21.5793   25.7575    7.2533 C   0  0  0  0  0  0  0  0  0  0  0  0
   20.6053   25.1154    6.4879 C   0  0  0  0  0  0  0  0  0  0  0  0
   20.4080   25.4709    5.1491 C   0  0  0  0  0  0  0  0  0  0  0  0
   21.1824   26.4709    4.5655 C   0  0  0  0  0  0  0  0  0  0  0  0
   22.1503   27.1225    5.3224 C   0  0  0  0  0  0  0  0  0  0  0  0
   22.3477   26.7673    6.6595 C   0  0  0  0  0  0  0  0  0  0  0  0
 17 18  1  0
 18 16  1  0
 16 13  1  0
 13 14  1  0
 13 15  1  0
 13 12  1  0
 12  1  1  0
  1  2  1  0
  1  3  1  0
  3  4  2  0
  4 19  1  0
 19 20  1  0
 20 21  1  0
 21 22  2  0
 21 23  1  0
 23 25  1  0
 25 26  2  0
 26 27  1  0
 27 28  2  0
 28 29  1  0
 29 30  2  0
  4  5  1  0
  5  6  2  0
  5  7  1  0
  7  8  1  0
  7  9  1  0
  9  1  1  0
 30 25  1  0
  2 10  1  0
 23 24  1  0
  8 11  1  0
M  END
> <minimizedAffinity>
-5.49813

> <CNNscore>
0.4234115481

> <CNNaffinity>
4.8311514854

> <CNN_VS>
2.0455653667

> <CNNaffinity_variance>
0.7422187328

$$$$



 30 31  0  0  0  0  0  0  0  0999 V2000
   24.9226   28.9614    8.8304 C   0  0  0  0  0  0  0  0  0  0  0  0
   24.2209   30.1915    8.9306 O   0  0  0  0  0  0  0  0  0  0  0  0
   24.2805   28.1585    7.7237 C   0  0  0  0  0  0  0  0  0  0  0  0
   24.0072   26.8409    7.7620 C   0  0  0  0  0  0  0  0  0  0  0  0
   24.3929   26.0551    8.9746 C   0  0  0  0  0  0  0  0  0  0  0  0
   24.1099   24.8603    9.0699 O   0  0  0  0  0  0  0  0  0  0  0  0
   25.1690   26.7709   10.0805 C   0  0  0  0  0  0  0  0  0  0  0  0
   24.9379   26.1441   11.3399 O   0  0  0  0  0  0  0  0  0  0  0  0
   24.7355   28.2231   10.1708 C   0  0  0  0  0  0  0  0  0  0  0  0
   24.3160   30.6865    8.1018 H   0  0  0  0  0  0  0  0  0  0  0  0
   23.9937   26.1923   11.5567 H   0  0  0  0  0  0  0  0  0  0  0  0
   26.4345   29.2162    8.5584 C   0  0  0  0  0  0  0  0  0  0  0  0
   27.3439   30.0195    9.5629 C   0  0  0  0  0  0  0  0  0  0  0  0
   28.4743   30.7429    8.8060 C   0  0  0  0  0  0  0  0  0  0  0  0
   27.9547   29.0928   10.6240 C   0  0  0  0  0  0  0  0  0  0  0  0
   26.3923   31.0679   10.2412 C   0  0  0  0  0  0  0  0  0  0  0  0
   25.7533   33.3585    9.2186 C   0  0  0  0  0  0  0  0  0  0  0  0
   26.6870   32.5702   10.1200 C   0  0  0  0  0  0  0  0  0  0  0  0
   23.3736   26.0964    6.6164 C   0  0  0  0  0  0  0  0  0  0  0  0
   21.8463   26.1020    6.6832 C   0  0  0  0  0  0  0  0  0  0  0  0
   21.2280   26.5731    5.3771 C   0  0  0  0  0  0  0  0  0  0  0  0
   21.3734   25.9539    4.3299 O   0  0  0  0  0  0  0  0  0  0  0  0
   20.5350   27.7604    5.5480 N   0  0  0  0  0  0  0  0  0  0  0  0
   20.4898   28.1089    6.4676 H   0  0  0  0  0  0  0  0  0  0  0  0
   19.8865   28.5280    4.5585 C   0  0  0  0  0  0  0  0  0  0  0  0
   19.3706   28.0028    3.3733 C   0  0  0  0  0  0  0  0  0  0  0  0
   18.7576   28.8402    2.4349 C   0  0  0  0  0  0  0  0  0  0  0  0
   18.6556   30.2087    2.6740 C   0  0  0  0  0  0  0  0  0  0  0  0
   19.1596   30.7407    3.8561 C   0  0  0  0  0  0  0  0  0  0  0  0
   19.7721   29.9044    4.7934 C   0  0  0  0  0  0  0  0  0  0  0  0
 17 18  1  0
 18 16  1  0
 16 13  1  0
 13 14  1  0
 13 15  1  0
 13 12  1  0
 12  1  1  0
  1  2  1  0
  1  3  1  0
  3  4  2  0
  4 19  1  0
 19 20  1  0
 20 21  1  0
 21 22  2  0
 21 23  1  0
 23 25  1  0
 25 26  2  0
 26 27  1  0
 27 28  2  0
 28 29  1  0
 29 30  2  0
  4  5  1  0
  5  6  2  0
  5  7  1  0
  7  8  1  0
  7  9  1  0
  9  1  1  0
 30 25  1  0
  2 10  1  0
 23 24  1  0
  8 11  1  0
M  END
> <minimizedAffinity>
-5.10590

> <CNNscore>
0.4130578637

> <CNNaffinity>
4.7228636742

> <CNN_VS>
1.9508160353

> <CNNaffinity_variance>
0.1850260943

$$$$



 30 31  0  0  0  0  0  0  0  0999 V2000
   26.9539   30.1596    8.8338 C   0  0  0  0  0  0  0  0  0  0  0  0
   26.8329   30.7616    7.5537 O   0  0  0  0  0  0  0  0  0  0  0  0
   26.5291   28.7161    8.7013 C   0  0  0  0  0  0  0  0  0  0  0  0
   25.7544   28.0394    9.5698 C   0  0  0  0  0  0  0  0  0  0  0  0
   25.2822   28.7287   10.8102 C   0  0  0  0  0  0  0  0  0  0  0  0
   24.5271   28.1611   11.6003 O   0  0  0  0  0  0  0  0  0  0  0  0
   25.7830   30.1477   11.0811 C   0  0  0  0  0  0  0  0  0  0  0  0
   24.8469   30.8637   11.8834 O   0  0  0  0  0  0  0  0  0  0  0  0
   25.9776   30.8945    9.7737 C   0  0  0  0  0  0  0  0  0  0  0  0
   27.4352   30.3235    6.9322 H   0  0  0  0  0  0  0  0  0  0  0  0
   24.0011   30.9287   11.4131 H   0  0  0  0  0  0  0  0  0  0  0  0
   28.4135   30.2874    9.3611 C   0  0  0  0  0  0  0  0  0  0  0  0
   29.0636   31.6814    9.7012 C   0  0  0  0  0  0  0  0  0  0  0  0
   30.2166   31.9902    8.7268 C   0  0  0  0  0  0  0  0  0  0  0  0
   29.5938   31.7117   11.1419 C   0  0  0  0  0  0  0  0  0  0  0  0
   27.9120   32.7337    9.5246 C   0  0  0  0  0  0  0  0  0  0  0  0
   26.7314   34.3558   11.1603 C   0  0  0  0  0  0  0  0  0  0  0  0
   27.9488   34.0567   10.3035 C   0  0  0  0  0  0  0  0  0  0  0  0
   25.3755   26.5937    9.3836 C   0  0  0  0  0  0  0  0  0  0  0  0
   23.9196   26.3138    9.7565 C   0  0  0  0  0  0  0  0  0  0  0  0
   23.1899   25.5666    8.6522 C   0  0  0  0  0  0  0  0  0  0  0  0
   23.3198   24.3591    8.4903 O   0  0  0  0  0  0  0  0  0  0  0  0
   22.4188   26.4267    7.8875 N   0  0  0  0  0  0  0  0  0  0  0  0
   22.4019   27.3680    8.1755 H   0  0  0  0  0  0  0  0  0  0  0  0
   21.6551   26.1114    6.7445 C   0  0  0  0  0  0  0  0  0  0  0  0
   20.6012   25.1970    6.7349 C   0  0  0  0  0  0  0  0  0  0  0  0
   19.9067   24.9287    5.5503 C   0  0  0  0  0  0  0  0  0  0  0  0
   20.2603   25.5723    4.3666 C   0  0  0  0  0  0  0  0  0  0  0  0
   21.3042   26.4914    4.3675 C   0  0  0  0  0  0  0  0  0  0  0  0
   21.9981   26.7592    5.5506 C   0  0  0  0  0  0  0  0  0  0  0  0
 17 18  1  0
 18 16  1  0
 16 13  1  0
 13 14  1  0
 13 15  1  0
 13 12  1  0
 12  1  1  0
  1  2  1  0
  1  3  1  0
  3  4  2  0
  4 19  1  0
 19 20  1  0
 20 21  1  0
 21 22  2  0
 21 23  1  0
 23 25  1  0
 25 26  2  0
 26 27  1  0
 27 28  2  0
 28 29  1  0
 29 30  2  0
  4  5  1  0
  5  6  2  0
  5  7  1  0
  7  8  1  0
  7  9  1  0
  9  1  1  0
 30 25  1  0
  2 10  1  0
 23 24  1  0
  8 11  1  0
M  END
> <minimizedAffinity>
-5.41405

> <CNNscore>
0.3458772302

> <CNNaffinity>
4.7324810028

> <CNN_VS>
1.6368573904

> <CNNaffinity_variance>
0.2233669311

$$$$



 30 31  0  0  0  0  0  0  0  0999 V2000
   19.1152   27.8820   -0.2672 C   0  0  0  0  0  0  0  0  0  0  0  0
   18.6083   29.0447   -0.9050 O   0  0  0  0  0  0  0  0  0  0  0  0
   20.6157   27.8831   -0.4419 C   0  0  0  0  0  0  0  0  0  0  0  0
   21.3736   26.8156   -0.7557 C   0  0  0  0  0  0  0  0  0  0  0  0
   20.7169   25.4816   -0.9164 C   0  0  0  0  0  0  0  0  0  0  0  0
   21.3680   24.4935   -1.2573 O   0  0  0  0  0  0  0  0  0  0  0  0
   19.2203   25.3750   -0.6218 C   0  0  0  0  0  0  0  0  0  0  0  0
   18.6405   24.3021   -1.3602 O   0  0  0  0  0  0  0  0  0  0  0  0
   18.5171   26.6657   -1.0018 C   0  0  0  0  0  0  0  0  0  0  0  0
   18.9643   29.8343   -0.4682 H   0  0  0  0  0  0  0  0  0  0  0  0
   18.7483   24.4678   -2.3098 H   0  0  0  0  0  0  0  0  0  0  0  0
   18.7074   27.8620    1.2355 C   0  0  0  0  0  0  0  0  0  0  0  0
   19.3841   26.8914    2.2754 C   0  0  0  0  0  0  0  0  0  0  0  0
   20.9169   26.9189    2.1197 C   0  0  0  0  0  0  0  0  0  0  0  0
   18.8815   25.4510    2.1012 C   0  0  0  0  0  0  0  0  0  0  0  0
   18.9756   27.4416    3.6878 C   0  0  0  0  0  0  0  0  0  0  0  0
   19.6945   29.7370    4.6443 C   0  0  0  0  0  0  0  0  0  0  0  0
   19.9800   28.2508    4.5214 C   0  0  0  0  0  0  0  0  0  0  0  0
   22.8708   26.8826   -0.9048 C   0  0  0  0  0  0  0  0  0  0  0  0
   23.3097   27.0846   -2.3552 C   0  0  0  0  0  0  0  0  0  0  0  0
   24.7557   27.5438   -2.4465 C   0  0  0  0  0  0  0  0  0  0  0  0
   25.6814   26.8594   -2.0271 O   0  0  0  0  0  0  0  0  0  0  0  0
   24.8493   28.7994   -3.0241 N   0  0  0  0  0  0  0  0  0  0  0  0
   24.0051   29.1985   -3.3362 H   0  0  0  0  0  0  0  0  0  0  0  0
   26.0126   29.5729   -3.2173 C   0  0  0  0  0  0  0  0  0  0  0  0
   26.9625   29.8194   -2.2255 C   0  0  0  0  0  0  0  0  0  0  0  0
   28.0809   30.6150   -2.4976 C   0  0  0  0  0  0  0  0  0  0  0  0
   28.2582   31.1700   -3.7628 C   0  0  0  0  0  0  0  0  0  0  0  0
   27.3210   30.9235   -4.7605 C   0  0  0  0  0  0  0  0  0  0  0  0
   26.2039   30.1291   -4.4888 C   0  0  0  0  0  0  0  0  0  0  0  0
 17 18  1  0
 18 16  1  0
 16 13  1  0
 13 14  1  0
 13 15  1  0
 13 12  1  0
 12  1  1  0
  1  2  1  0
  1  3  1  0
  3  4  2  0
  4 19  1  0
 19 20  1  0
 20 21  1  0
 21 22  2  0
 21 23  1  0
 23 25  1  0
 25 26  2  0
 26 27  1  0
 27 28  2  0
 28 29  1  0
 29 30  2  0
  4  5  1  0
  5  6  2  0
  5  7  1  0
  7  8  1  0
  7  9  1  0
  9  1  1  0
 30 25  1  0
  2 10  1  0
 23 24  1  0
  8 11  1  0
M  END
> <minimizedAffinity>
-6.38340

> <CNNscore>
0.3264269233

> <CNNaffinity>
5.4043726921

> <CNN_VS>
1.7641327381

> <CNNaffinity_variance>
0.0931182280

$$$$



 30 31  0  0  0  0  0  0  0  0999 V2000
   25.2663   28.4009    9.1545 C   0  0  0  0  0  0  0  0  0  0  0  0
   25.3734   29.4099    8.1616 O   0  0  0  0  0  0  0  0  0  0  0  0
   24.8615   27.1206    8.4624 C   0  0  0  0  0  0  0  0  0  0  0  0
   23.9433   26.2413    8.9052 C   0  0  0  0  0  0  0  0  0  0  0  0
   23.2673   26.4960   10.2147 C   0  0  0  0  0  0  0  0  0  0  0  0
   22.3827   25.7444   10.6262 O   0  0  0  0  0  0  0  0  0  0  0  0
   23.7226   27.7010   11.0385 C   0  0  0  0  0  0  0  0  0  0  0  0
   22.6661   28.1609   11.8780 O   0  0  0  0  0  0  0  0  0  0  0  0
   24.1463   28.8342   10.1212 C   0  0  0  0  0  0  0  0  0  0  0  0
   26.0716   29.1712    7.5320 H   0  0  0  0  0  0  0  0  0  0  0  0
   21.9153   28.4384   11.3301 H   0  0  0  0  0  0  0  0  0  0  0  0
   26.6128   28.2439    9.9206 C   0  0  0  0  0  0  0  0  0  0  0  0
   27.5203   29.4793   10.2836 C   0  0  0  0  0  0  0  0  0  0  0  0
   28.4547   29.1345   11.4593 C   0  0  0  0  0  0  0  0  0  0  0  0
   26.6713   30.7046   10.6517 C   0  0  0  0  0  0  0  0  0  0  0  0
   28.3639   29.7719    8.9924 C   0  0  0  0  0  0  0  0  0  0  0  0
   29.9531   31.8133    9.0818 C   0  0  0  0  0  0  0  0  0  0  0  0
   28.6524   31.2199    8.5701 C   0  0  0  0  0  0  0  0  0  0  0  0
   23.5930   24.9744    8.1701 C   0  0  0  0  0  0  0  0  0  0  0  0
   22.1233   24.9229    7.7525 C   0  0  0  0  0  0  0  0  0  0  0  0
   21.7788   26.0298    6.7697 C   0  0  0  0  0  0  0  0  0  0  0  0
   22.4061   26.1927    5.7299 O   0  0  0  0  0  0  0  0  0  0  0  0
   20.7184   26.7957    7.2260 N   0  0  0  0  0  0  0  0  0  0  0  0
   20.3057   26.5067    8.0718 H   0  0  0  0  0  0  0  0  0  0  0  0
   20.1611   27.9410    6.6204 C   0  0  0  0  0  0  0  0  0  0  0  0
   20.6956   28.5704    5.4957 C   0  0  0  0  0  0  0  0  0  0  0  0
   20.0885   29.7158    4.9692 C   0  0  0  0  0  0  0  0  0  0  0  0
   18.9427   30.2404    5.5627 C   0  0  0  0  0  0  0  0  0  0  0  0
   18.3976   29.6155    6.6793 C   0  0  0  0  0  0  0  0  0  0  0  0
   19.0041   28.4717    7.2054 C   0  0  0  0  0  0  0  0  0  0  0  0
 17 18  1  0
 18 16  1  0
 16 13  1  0
 13 14  1  0
 13 15  1  0
 13 12  1  0
 12  1  1  0
  1  2  1  0
  1  3  1  0
  3  4  2  0
  4 19  1  0
 19 20  1  0
 20 21  1  0
 21 22  2  0
 21 23  1  0
 23 25  1  0
 25 26  2  0
 26 27  1  0
 27 28  2  0
 28 29  1  0
 29 30  2  0
  4  5  1  0
  5  6  2  0
  5  7  1  0
  7  8  1  0
  7  9  1  0
  9  1  1  0
 30 25  1  0
  2 10  1  0
 23 24  1  0
  8 11  1  0
M  END
> <minimizedAffinity>
-4.96499

> <CNNscore>
0.3084608614

> <CNNaffinity>
4.4840283394

> <CNN_VS>
1.3831472397

> <CNNaffinity_variance>
0.2304091901

$$$$



 30 31  0  0  0  0  0  0  0  0999 V2000
   22.3915   27.6782    7.4832 C   0  0  0  0  0  0  0  0  0  0  0  0
   22.1400   28.3837    6.2771 O   0  0  0  0  0  0  0  0  0  0  0  0
   23.3907   28.4816    8.2820 C   0  0  0  0  0  0  0  0  0  0  0  0
   24.4467   27.9839    8.9524 C   0  0  0  0  0  0  0  0  0  0  0  0
   24.6653   26.5045    8.9666 C   0  0  0  0  0  0  0  0  0  0  0  0
   25.6503   26.0164    9.5218 O   0  0  0  0  0  0  0  0  0  0  0  0
   23.6193   25.6150    8.2940 C   0  0  0  0  0  0  0  0  0  0  0  0
   24.2088   24.3929    7.8565 O   0  0  0  0  0  0  0  0  0  0  0  0
   23.0195   26.3253    7.0937 C   0  0  0  0  0  0  0  0  0  0  0  0
   21.7427   29.2444    6.4827 H   0  0  0  0  0  0  0  0  0  0  0  0
   24.9033   24.5834    7.2066 H   0  0  0  0  0  0  0  0  0  0  0  0
   21.0669   27.4542    8.2707 C   0  0  0  0  0  0  0  0  0  0  0  0
   19.9077   26.5409    7.7199 C   0  0  0  0  0  0  0  0  0  0  0  0
   20.0914   26.2886    6.2110 C   0  0  0  0  0  0  0  0  0  0  0  0
   18.5325   27.1786    7.9647 C   0  0  0  0  0  0  0  0  0  0  0  0
   20.0281   25.1902    8.5109 C   0  0  0  0  0  0  0  0  0  0  0  0
   20.8312   24.7629   10.9344 C   0  0  0  0  0  0  0  0  0  0  0  0
   19.6887   25.1391   10.0078 C   0  0  0  0  0  0  0  0  0  0  0  0
   25.4015   28.8413    9.7407 C   0  0  0  0  0  0  0  0  0  0  0  0
   24.8528   30.2435   10.0053 C   0  0  0  0  0  0  0  0  0  0  0  0
   25.9609   31.2831   10.0432 C   0  0  0  0  0  0  0  0  0  0  0  0
   25.7226   32.4834   10.1047 O   0  0  0  0  0  0  0  0  0  0  0  0
   27.2105   30.6891    9.9752 N   0  0  0  0  0  0  0  0  0  0  0  0
   27.2239   29.7048    9.9623 H   0  0  0  0  0  0  0  0  0  0  0  0
   28.4658   31.3298    9.9223 C   0  0  0  0  0  0  0  0  0  0  0  0
   29.0592   31.9800   11.0049 C   0  0  0  0  0  0  0  0  0  0  0  0
   30.3014   32.6074   10.8604 C   0  0  0  0  0  0  0  0  0  0  0  0
   30.9599   32.5895    9.6331 C   0  0  0  0  0  0  0  0  0  0  0  0
   30.3804   31.9370    8.5500 C   0  0  0  0  0  0  0  0  0  0  0  0
   29.1395   31.3106    8.6942 C   0  0  0  0  0  0  0  0  0  0  0  0
 17 18  1  0
 18 16  1  0
 16 13  1  0
 13 14  1  0
 13 15  1  0
 13 12  1  0
 12  1  1  0
  1  2  1  0
  1  3  1  0
  3  4  2  0
  4 19  1  0
 19 20  1  0
 20 21  1  0
 21 22  2  0
 21 23  1  0
 23 25  1  0
 25 26  2  0
 26 27  1  0
 27 28  2  0
 28 29  1  0
 29 30  2  0
  4  5  1  0
  5  6  2  0
  5  7  1  0
  7  8  1  0
  7  9  1  0
  9  1  1  0
 30 25  1  0
  2 10  1  0
 23 24  1  0
  8 11  1  0
M  END
> <minimizedAffinity>
-5.30865

> <CNNscore>
0.2776986957

> <CNNaffinity>
4.5857052803

> <CNN_VS>
1.2734444141

> <CNNaffinity_variance>
0.5398446918

$$$$



 30 31  0  0  0  0  0  0  0  0999 V2000
   18.2186   27.4142   -1.1536 C   0  0  0  0  0  0  0  0  0  0  0  0
   17.6532   28.3370   -2.0725 O   0  0  0  0  0  0  0  0  0  0  0  0
   19.6926   27.7254   -1.0429 C   0  0  0  0  0  0  0  0  0  0  0  0
   20.6893   26.8209   -1.0134 C   0  0  0  0  0  0  0  0  0  0  0  0
   20.3491   25.3651   -1.0519 C   0  0  0  0  0  0  0  0  0  0  0  0
   21.2345   24.5096   -1.0827 O   0  0  0  0  0  0  0  0  0  0  0  0
   18.8725   24.9691   -1.0271 C   0  0  0  0  0  0  0  0  0  0  0  0
   18.6834   23.7038   -1.6561 O   0  0  0  0  0  0  0  0  0  0  0  0
   18.0383   26.0068   -1.7566 C   0  0  0  0  0  0  0  0  0  0  0  0
   17.7482   29.2379   -1.7257 H   0  0  0  0  0  0  0  0  0  0  0  0
   18.9638   23.7584   -2.5831 H   0  0  0  0  0  0  0  0  0  0  0  0
   17.5019   27.5088    0.2256 C   0  0  0  0  0  0  0  0  0  0  0  0
   18.1191   28.3012    1.4391 C   0  0  0  0  0  0  0  0  0  0  0  0
   17.2128   28.1792    2.6792 C   0  0  0  0  0  0  0  0  0  0  0  0
   18.3118   29.7851    1.0945 C   0  0  0  0  0  0  0  0  0  0  0  0
   19.5078   27.6241    1.7174 C   0  0  0  0  0  0  0  0  0  0  0  0
   20.8124   26.5919    3.7007 C   0  0  0  0  0  0  0  0  0  0  0  0
   19.6247   26.5016    2.7590 C   0  0  0  0  0  0  0  0  0  0  0  0
   22.1421   27.1984   -0.8905 C   0  0  0  0  0  0  0  0  0  0  0  0
   22.8318   27.3355   -2.2479 C   0  0  0  0  0  0  0  0  0  0  0  0
   24.3429   27.2277   -2.1243 C   0  0  0  0  0  0  0  0  0  0  0  0
   24.8827   26.2742   -1.5761 O   0  0  0  0  0  0  0  0  0  0  0  0
   24.9728   28.3306   -2.6774 N   0  0  0  0  0  0  0  0  0  0  0  0
   24.3876   28.9947   -3.1086 H   0  0  0  0  0  0  0  0  0  0  0  0
   26.3543   28.6133   -2.6951 C   0  0  0  0  0  0  0  0  0  0  0  0
   27.3528   27.6387   -2.6962 C   0  0  0  0  0  0  0  0  0  0  0  0
   28.7026   28.0072   -2.6953 C   0  0  0  0  0  0  0  0  0  0  0  0
   29.0644   29.3524   -2.6934 C   0  0  0  0  0  0  0  0  0  0  0  0
   28.0765   30.3313   -2.7005 C   0  0  0  0  0  0  0  0  0  0  0  0
   26.7283   29.9634   -2.7011 C   0  0  0  0  0  0  0  0  0  0  0  0
 17 18  1  0
 18 16  1  0
 16 13  1  0
 13 14  1  0
 13 15  1  0
 13 12  1  0
 12  1  1  0
  1  2  1  0
  1  3  1  0
  3  4  2  0
  4 19  1  0
 19 20  1  0
 20 21  1  0
 21 22  2  0
 21 23  1  0
 23 25  1  0
 25 26  2  0
 26 27  1  0
 27 28  2  0
 28 29  1  0
 29 30  2  0
  4  5  1  0
  5  6  2  0
  5  7  1  0
  7  8  1  0
  7  9  1  0
  9  1  1  0
 30 25  1  0
  2 10  1  0
 23 24  1  0
  8 11  1  0
M  END
> <minimizedAffinity>
-6.38120

> <CNNscore>
0.2703596056

> <CNNaffinity>
5.3322887421

> <CNN_VS>
1.4416354895

> <CNNaffinity_variance>
0.1447150856

$$$$



 30 31  0  0  0  0  0  0  0  0999 V2000
   20.4688   26.5000    2.4726 C   0  0  0  0  0  0  0  0  0  0  0  0
   21.4527   26.5379    1.4498 O   0  0  0  0  0  0  0  0  0  0  0  0
   21.1858   26.5908    3.7991 C   0  0  0  0  0  0  0  0  0  0  0  0
   20.9070   25.8640    4.8974 C   0  0  0  0  0  0  0  0  0  0  0  0
   19.7679   24.8958    4.8566 C   0  0  0  0  0  0  0  0  0  0  0  0
   19.5172   24.1736    5.8222 O   0  0  0  0  0  0  0  0  0  0  0  0
   18.9095   24.8458    3.5923 C   0  0  0  0  0  0  0  0  0  0  0  0
   18.3133   23.5593    3.4432 O   0  0  0  0  0  0  0  0  0  0  0  0
   19.7600   25.1350    2.3684 C   0  0  0  0  0  0  0  0  0  0  0  0
   21.9220   27.3862    1.4839 H   0  0  0  0  0  0  0  0  0  0  0  0
   19.0089   22.8883    3.3603 H   0  0  0  0  0  0  0  0  0  0  0  0
   19.4445   27.6582    2.2878 C   0  0  0  0  0  0  0  0  0  0  0  0
   18.9672   28.1367    0.8649 C   0  0  0  0  0  0  0  0  0  0  0  0
   17.8150   27.2490    0.3564 C   0  0  0  0  0  0  0  0  0  0  0  0
   20.1197   28.1036   -0.1491 C   0  0  0  0  0  0  0  0  0  0  0  0
   18.4641   29.6101    1.0666 C   0  0  0  0  0  0  0  0  0  0  0  0
   19.6093   31.9307    1.0060 C   0  0  0  0  0  0  0  0  0  0  0  0
   19.0572   30.7505    0.2264 C   0  0  0  0  0  0  0  0  0  0  0  0
   21.6556   26.0115    6.1959 C   0  0  0  0  0  0  0  0  0  0  0  0
   23.1010   26.4666    5.9939 C   0  0  0  0  0  0  0  0  0  0  0  0
   23.9493   26.2095    7.2285 C   0  0  0  0  0  0  0  0  0  0  0  0
   24.0199   25.1022    7.7482 O   0  0  0  0  0  0  0  0  0  0  0  0
   24.5733   27.3684    7.6605 N   0  0  0  0  0  0  0  0  0  0  0  0
   24.4341   28.1698    7.1057 H   0  0  0  0  0  0  0  0  0  0  0  0
   25.3845   27.5345    8.8020 C   0  0  0  0  0  0  0  0  0  0  0  0
   25.3159   26.7242    9.9358 C   0  0  0  0  0  0  0  0  0  0  0  0
   26.1466   26.9709   11.0344 C   0  0  0  0  0  0  0  0  0  0  0  0
   27.0521   28.0290   11.0079 C   0  0  0  0  0  0  0  0  0  0  0  0
   27.1337   28.8376    9.8791 C   0  0  0  0  0  0  0  0  0  0  0  0
   26.3039   28.5914    8.7820 C   0  0  0  0  0  0  0  0  0  0  0  0
 17 18  1  0
 18 16  1  0
 16 13  1  0
 13 14  1  0
 13 15  1  0
 13 12  1  0
 12  1  1  0
  1  2  1  0
  1  3  1  0
  3  4  2  0
  4 19  1  0
 19 20  1  0
 20 21  1  0
 21 22  2  0
 21 23  1  0
 23 25  1  0
 25 26  2  0
 26 27  1  0
 27 28  2  0
 28 29  1  0
 29 30  2  0
  4  5  1  0
  5  6  2  0
  5  7  1  0
  7  8  1  0
  7  9  1  0
  9  1  1  0
 30 25  1  0
  2 10  1  0
 23 24  1  0
  8 11  1  0
M  END
> <minimizedAffinity>
-5.80229

> <CNNscore>
0.2497703582

> <CNNaffinity>
4.1007494926

> <CNN_VS>
1.0242456198

> <CNNaffinity_variance>
0.3575446904

$$$$
