


 39 44  0  0  0  0  0  0  0  0999 V2000
   21.8532   -0.0669    6.2882 C   0  0  0  0  0  0  0  0  0  0  0  0
   21.8331   -1.4721    6.1809 C   0  0  0  0  0  0  0  0  0  0  0  0
   23.0395   -2.0173    6.3752 N   0  0  0  0  0  0  0  0  0  0  0  0
   23.8383   -0.9525    6.6044 N   0  0  0  0  0  0  0  0  0  0  0  0
   23.1651    0.2406    6.5557 C   0  0  0  0  0  0  0  0  0  0  0  0
   19.6271    0.6717    5.5864 C   0  0  0  0  0  0  0  0  0  0  0  0
   19.2677   -0.3459    5.0001 O   0  0  0  0  0  0  0  0  0  0  0  0
   20.8554    0.8722    6.1826 N   0  0  0  0  0  0  0  0  0  0  0  0
   21.0317    1.7624    6.5642 H   0  0  0  0  0  0  0  0  0  0  0  0
   13.2398    3.1672    5.5810 C   0  0  0  0  0  0  0  0  0  0  0  0
   14.6342    2.9528    5.0619 C   0  0  0  0  0  0  0  0  0  0  0  0
   15.6835    3.8736    5.6775 C   0  0  0  0  0  0  0  0  0  0  0  0
   17.0210    3.2390    5.7863 C   0  0  0  0  0  0  0  0  0  0  0  0
   18.1394    3.8188    6.2961 N   0  0  0  0  0  0  0  0  0  0  0  0
   19.2072    2.9976    6.2984 N   0  0  0  0  0  0  0  0  0  0  0  0
   18.7491    1.8480    5.7457 C   0  0  0  0  0  0  0  0  0  0  0  0
   17.3774    1.9668    5.4005 C   0  0  0  0  0  0  0  0  0  0  0  0
   16.4375    0.9951    4.7755 C   0  0  0  0  0  0  0  0  0  0  0  0
   15.0353    1.5313    4.5975 C   0  0  0  0  0  0  0  0  0  0  0  0
   14.7790    2.6160    3.6128 C   0  0  0  0  0  0  0  0  0  0  0  0
   15.7987    3.1492    2.8592 F   0  0  0  0  0  0  0  0  0  0  0  0
   13.6707    2.5562    2.7968 F   0  0  0  0  0  0  0  0  0  0  0  0
   18.1665    4.7447    6.6297 H   0  0  0  0  0  0  0  0  0  0  0  0
   25.2722   -1.1260    6.9203 C   0  0  0  0  0  0  0  0  0  0  0  0
   25.6948   -2.6171    6.9109 C   0  0  0  0  0  0  0  0  0  0  0  0
   25.2767   -3.5254    8.0844 C   0  0  0  0  0  0  0  0  0  0  0  0
   23.8845   -4.1548    8.0181 C   0  0  0  0  0  0  0  0  0  0  0  0
   23.6752   -4.9974    6.7675 C   0  0  0  0  0  0  0  0  0  0  0  0
   23.7457   -4.1453    5.5166 C   0  0  0  0  0  0  0  0  0  0  0  0
   25.3466   -3.3921    5.3286 S   0  0  0  0  0  0  0  0  0  0  0  0
   25.2238   -2.3657    4.3094 O   0  0  0  0  0  0  0  0  0  0  0  0
   26.3067   -4.4655    5.1449 O   0  0  0  0  0  0  0  0  0  0  0  0
   26.1335   -0.1416    6.1377 C   0  0  0  0  0  0  0  0  0  0  0  0
   27.2345    0.4691    6.7673 C   0  0  0  0  0  0  0  0  0  0  0  0
   28.0650    1.3501    6.0672 C   0  0  0  0  0  0  0  0  0  0  0  0
   27.8016    1.6373    4.7300 C   0  0  0  0  0  0  0  0  0  0  0  0
   28.8385    2.6999    3.8584 Cl  0  0  0  0  0  0  0  0  0  0  0  0
   26.7051    1.0643    4.0937 C   0  0  0  0  0  0  0  0  0  0  0  0
   25.8724    0.1858    4.7952 C   0  0  0  0  0  0  0  0  0  0  0  0
 11 10  1  0
 11 12  1  0
 12 13  1  0
 13 14  1  0
 14 15  1  0
 15 16  2  0
 16  6  1  0
  6  7  2  0
  6  8  1  0
  8  1  1  0
  1  2  1  0
  2  3  2  0
  3  4  1  0
 24  4  1  0
 24 33  1  0
 33 34  2  0
 34 35  1  0
 35 36  2  0
 36 37  1  0
 36 38  1  0
 38 39  2  0
 24 25  1  0
 25 26  1  0
 26 27  1  0
 27 28  1  0
 28 29  1  0
 29 30  1  0
 30 31  2  0
 30 32  2  0
  4  5  1  0
 16 17  1  0
 17 18  1  0
 19 18  1  0
 19 20  1  0
 20 21  1  0
 20 22  1  0
 19 11  1  0
 20 11  1  0
 17 13  2  0
  5  1  2  0
 39 33  1  0
 30 25  1  0
 14 23  1  0
  8  9  1  0
M  END
> <minimizedAffinity>
-12.34256

> <CNNscore>
0.9830149412

> <CNNaffinity>
8.5773134232

> <CNN_VS>
8.4316272736

> <CNNaffinity_variance>
0.0802678913

$$$$



 39 44  0  0  0  0  0  0  0  0999 V2000
   21.7984   -0.0202    6.0187 C   0  0  0  0  0  0  0  0  0  0  0  0
   21.8532   -1.3874    5.6810 C   0  0  0  0  0  0  0  0  0  0  0  0
   23.0543   -1.9259    5.9213 N   0  0  0  0  0  0  0  0  0  0  0  0
   23.7746   -0.8943    6.4126 N   0  0  0  0  0  0  0  0  0  0  0  0
   23.0580    0.2721    6.4826 C   0  0  0  0  0  0  0  0  0  0  0  0
   19.4302    0.5962    5.9432 C   0  0  0  0  0  0  0  0  0  0  0  0
   18.9434   -0.5310    5.9175 O   0  0  0  0  0  0  0  0  0  0  0  0
   20.7770    0.8971    5.9539 N   0  0  0  0  0  0  0  0  0  0  0  0
   21.0271    1.8484    5.9115 H   0  0  0  0  0  0  0  0  0  0  0  0
   13.1679    3.3570    5.5112 C   0  0  0  0  0  0  0  0  0  0  0  0
   14.5684    3.0448    5.0630 C   0  0  0  0  0  0  0  0  0  0  0  0
   15.6364    3.9628    5.6498 C   0  0  0  0  0  0  0  0  0  0  0  0
   16.9389    3.2811    5.8558 C   0  0  0  0  0  0  0  0  0  0  0  0
   18.0641    3.8485    6.3645 N   0  0  0  0  0  0  0  0  0  0  0  0
   19.0924    2.9846    6.4675 N   0  0  0  0  0  0  0  0  0  0  0  0
   18.6020    1.8179    5.9827 C   0  0  0  0  0  0  0  0  0  0  0  0
   17.2501    1.9695    5.5773 C   0  0  0  0  0  0  0  0  0  0  0  0
   16.2892    0.9954    4.9891 C   0  0  0  0  0  0  0  0  0  0  0  0
   14.9201    1.5768    4.7189 C   0  0  0  0  0  0  0  0  0  0  0  0
   14.7484    2.5953    3.6488 C   0  0  0  0  0  0  0  0  0  0  0  0
   15.8173    3.0266    2.8982 F   0  0  0  0  0  0  0  0  0  0  0  0
   13.6679    2.5227    2.7974 F   0  0  0  0  0  0  0  0  0  0  0  0
   18.1217    4.7946    6.6307 H   0  0  0  0  0  0  0  0  0  0  0  0
   25.1715   -1.0810    6.8593 C   0  0  0  0  0  0  0  0  0  0  0  0
   25.5769   -2.5765    6.8957 C   0  0  0  0  0  0  0  0  0  0  0  0
   26.9502   -2.9981    6.3362 C   0  0  0  0  0  0  0  0  0  0  0  0
   28.1515   -2.8840    7.2757 C   0  0  0  0  0  0  0  0  0  0  0  0
   27.9789   -3.6884    8.5567 C   0  0  0  0  0  0  0  0  0  0  0  0
   26.8239   -3.1595    9.3825 C   0  0  0  0  0  0  0  0  0  0  0  0
   25.2790   -3.3021    8.5115 S   0  0  0  0  0  0  0  0  0  0  0  0
   24.3049   -2.4970    9.2257 O   0  0  0  0  0  0  0  0  0  0  0  0
   25.0256   -4.7183    8.3166 O   0  0  0  0  0  0  0  0  0  0  0  0
   26.1116   -0.1102    6.1542 C   0  0  0  0  0  0  0  0  0  0  0  0
   26.0211    0.0524    4.7588 C   0  0  0  0  0  0  0  0  0  0  0  0
   26.8452    0.9605    4.0862 C   0  0  0  0  0  0  0  0  0  0  0  0
   27.7754    1.7130    4.7992 C   0  0  0  0  0  0  0  0  0  0  0  0
   28.7719    2.8513    3.9772 Cl  0  0  0  0  0  0  0  0  0  0  0  0
   27.8995    1.5516    6.1754 C   0  0  0  0  0  0  0  0  0  0  0  0
   27.0774    0.6408    6.8476 C   0  0  0  0  0  0  0  0  0  0  0  0
 11 10  1  0
 11 12  1  0
 12 13  1  0
 13 14  1  0
 14 15  1  0
 15 16  2  0
 16  6  1  0
  6  7  2  0
  6  8  1  0
  8  1  1  0
  1  2  1  0
  2  3  2  0
  3  4  1  0
 24  4  1  0
 24 33  1  0
 33 34  2  0
 34 35  1  0
 35 36  2  0
 36 37  1  0
 36 38  1  0
 38 39  2  0
 24 25  1  0
 25 26  1  0
 26 27  1  0
 27 28  1  0
 28 29  1  0
 29 30  1  0
 30 31  2  0
 30 32  2  0
  4  5  1  0
 16 17  1  0
 17 18  1  0
 19 18  1  0
 19 20  1  0
 20 21  1  0
 20 22  1  0
 19 11  1  0
 20 11  1  0
 17 13  2  0
  5  1  2  0
 39 33  1  0
 30 25  1  0
 14 23  1  0
  8  9  1  0
M  END
> <minimizedAffinity>
-12.20398

> <CNNscore>
0.9820981622

> <CNNaffinity>
8.5837125778

> <CNN_VS>
8.4300479889

> <CNNaffinity_variance>
0.0439049006

$$$$



 39 44  0  0  0  0  0  0  0  0999 V2000
   21.8947   -0.4245    6.0280 C   0  0  0  0  0  0  0  0  0  0  0  0
   21.8009   -1.8252    6.1523 C   0  0  0  0  0  0  0  0  0  0  0  0
   23.0006   -2.4168    6.1915 N   0  0  0  0  0  0  0  0  0  0  0  0
   23.8683   -1.3870    6.0870 N   0  0  0  0  0  0  0  0  0  0  0  0
   23.2441   -0.1712    5.9811 C   0  0  0  0  0  0  0  0  0  0  0  0
   19.5920    0.3458    5.7151 C   0  0  0  0  0  0  0  0  0  0  0  0
   19.0713   -0.7294    5.4303 O   0  0  0  0  0  0  0  0  0  0  0  0
   20.9320    0.5545    5.9710 N   0  0  0  0  0  0  0  0  0  0  0  0
   21.2225    1.4824    6.1256 H   0  0  0  0  0  0  0  0  0  0  0  0
   13.4379    3.3690    5.6085 C   0  0  0  0  0  0  0  0  0  0  0  0
   14.8111    3.0245    5.1032 C   0  0  0  0  0  0  0  0  0  0  0  0
   15.9320    3.8696    5.7008 C   0  0  0  0  0  0  0  0  0  0  0  0
   17.2109    3.1277    5.8337 C   0  0  0  0  0  0  0  0  0  0  0  0
   18.3724    3.6245    6.3348 N   0  0  0  0  0  0  0  0  0  0  0  0
   19.3671    2.7167    6.3644 N   0  0  0  0  0  0  0  0  0  0  0  0
   18.8158    1.5957    5.8389 C   0  0  0  0  0  0  0  0  0  0  0  0
   17.4602    1.8203    5.4828 C   0  0  0  0  0  0  0  0  0  0  0  0
   16.4440    0.9151    4.8777 C   0  0  0  0  0  0  0  0  0  0  0  0
   15.0926    1.5627    4.6779 C   0  0  0  0  0  0  0  0  0  0  0  0
   14.9321    2.6389    3.6641 C   0  0  0  0  0  0  0  0  0  0  0  0
   15.9958    3.0645    2.9029 F   0  0  0  0  0  0  0  0  0  0  0  0
   13.8257    2.6512    2.8436 F   0  0  0  0  0  0  0  0  0  0  0  0
   18.4762    4.5532    6.6445 H   0  0  0  0  0  0  0  0  0  0  0  0
   25.3290   -1.6093    6.1400 C   0  0  0  0  0  0  0  0  0  0  0  0
   25.7337   -2.9730    5.5247 C   0  0  0  0  0  0  0  0  0  0  0  0
   25.8193   -3.1114    3.9916 C   0  0  0  0  0  0  0  0  0  0  0  0
   27.1254   -2.6795    3.3236 C   0  0  0  0  0  0  0  0  0  0  0  0
   28.3390   -3.4262    3.8598 C   0  0  0  0  0  0  0  0  0  0  0  0
   28.5653   -3.1195    5.3262 C   0  0  0  0  0  0  0  0  0  0  0  0
   27.1919   -3.6514    6.3243 S   0  0  0  0  0  0  0  0  0  0  0  0
   27.3476   -3.0422    7.6327 O   0  0  0  0  0  0  0  0  0  0  0  0
   27.1184   -5.0974    6.2172 O   0  0  0  0  0  0  0  0  0  0  0  0
   26.0931   -0.3722    5.6829 C   0  0  0  0  0  0  0  0  0  0  0  0
   26.9834    0.2603    6.5712 C   0  0  0  0  0  0  0  0  0  0  0  0
   27.7256    1.3763    6.1715 C   0  0  0  0  0  0  0  0  0  0  0  0
   27.5823    1.8788    4.8805 C   0  0  0  0  0  0  0  0  0  0  0  0
   28.5151    3.2356    4.3775 Cl  0  0  0  0  0  0  0  0  0  0  0  0
   26.6905    1.2849    3.9930 C   0  0  0  0  0  0  0  0  0  0  0  0
   25.9457    0.1706    4.3940 C   0  0  0  0  0  0  0  0  0  0  0  0
 11 10  1  0
 11 12  1  0
 12 13  1  0
 13 14  1  0
 14 15  1  0
 15 16  2  0
 16  6  1  0
  6  7  2  0
  6  8  1  0
  8  1  1  0
  1  2  1  0
  2  3  2  0
  3  4  1  0
 24  4  1  0
 24 33  1  0
 33 34  2  0
 34 35  1  0
 35 36  2  0
 36 37  1  0
 36 38  1  0
 38 39  2  0
 24 25  1  0
 25 26  1  0
 26 27  1  0
 27 28  1  0
 28 29  1  0
 29 30  1  0
 30 31  2  0
 30 32  2  0
  4  5  1  0
 16 17  1  0
 17 18  1  0
 19 18  1  0
 19 20  1  0
 20 21  1  0
 20 22  1  0
 19 11  1  0
 20 11  1  0
 17 13  2  0
  5  1  2  0
 39 33  1  0
 30 25  1  0
 14 23  1  0
  8  9  1  0
M  END
> <minimizedAffinity>
-11.95110

> <CNNscore>
0.9540046453

> <CNNaffinity>
8.2432432175

> <CNN_VS>
7.8640923500

> <CNNaffinity_variance>
0.1119606867

$$$$



 39 44  0  0  0  0  0  0  0  0999 V2000
   22.1744   -0.2251    5.8865 C   0  0  0  0  0  0  0  0  0  0  0  0
   22.1247   -1.6302    5.9847 C   0  0  0  0  0  0  0  0  0  0  0  0
   23.3421   -2.1854    5.9993 N   0  0  0  0  0  0  0  0  0  0  0  0
   24.1769   -1.1276    5.9054 N   0  0  0  0  0  0  0  0  0  0  0  0
   23.5148    0.0703    5.8299 C   0  0  0  0  0  0  0  0  0  0  0  0
   19.8260    0.4666    5.8656 C   0  0  0  0  0  0  0  0  0  0  0  0
   19.3034   -0.6440    5.8247 O   0  0  0  0  0  0  0  0  0  0  0  0
   21.1817    0.7248    5.8590 N   0  0  0  0  0  0  0  0  0  0  0  0
   21.4610    1.6685    5.8324 H   0  0  0  0  0  0  0  0  0  0  0  0
   13.6300    3.4049    5.8306 C   0  0  0  0  0  0  0  0  0  0  0  0
   14.9864    3.0464    5.2907 C   0  0  0  0  0  0  0  0  0  0  0  0
   16.1185    3.9395    5.7892 C   0  0  0  0  0  0  0  0  0  0  0  0
   17.4122    3.2223    5.9138 C   0  0  0  0  0  0  0  0  0  0  0  0
   18.5858    3.7625    6.3353 N   0  0  0  0  0  0  0  0  0  0  0  0
   19.5938    2.8700    6.3787 N   0  0  0  0  0  0  0  0  0  0  0  0
   19.0377    1.7125    5.9455 C   0  0  0  0  0  0  0  0  0  0  0  0
   17.6657    1.8989    5.6328 C   0  0  0  0  0  0  0  0  0  0  0  0
   16.6388    0.9465    5.1262 C   0  0  0  0  0  0  0  0  0  0  0  0
   15.2713    1.5647    4.9436 C   0  0  0  0  0  0  0  0  0  0  0  0
   15.0545    2.5749    3.8739 C   0  0  0  0  0  0  0  0  0  0  0  0
   16.0802    2.9656    3.0450 F   0  0  0  0  0  0  0  0  0  0  0  0
   13.9156    2.5239    3.1006 F   0  0  0  0  0  0  0  0  0  0  0  0
   18.6889    4.7095    6.5836 H   0  0  0  0  0  0  0  0  0  0  0  0
   25.6441   -1.3060    5.9382 C   0  0  0  0  0  0  0  0  0  0  0  0
   26.3934   -0.0807    5.3555 C   0  0  0  0  0  0  0  0  0  0  0  0
   27.1882    0.8372    6.3055 C   0  0  0  0  0  0  0  0  0  0  0  0
   28.6165    0.4145    6.6517 C   0  0  0  0  0  0  0  0  0  0  0  0
   29.4998    0.2525    5.4223 C   0  0  0  0  0  0  0  0  0  0  0  0
   28.9981   -0.8668    4.5328 C   0  0  0  0  0  0  0  0  0  0  0  0
   27.3656   -0.5263    3.9126 S   0  0  0  0  0  0  0  0  0  0  0  0
   26.8507   -1.7621    3.3513 O   0  0  0  0  0  0  0  0  0  0  0  0
   27.4641    0.6512    3.0691 O   0  0  0  0  0  0  0  0  0  0  0  0
   26.1057   -1.8408    7.2888 C   0  0  0  0  0  0  0  0  0  0  0  0
   25.2223   -1.8123    8.3845 C   0  0  0  0  0  0  0  0  0  0  0  0
   25.6027   -2.3268    9.6280 C   0  0  0  0  0  0  0  0  0  0  0  0
   26.8742   -2.8706    9.7944 C   0  0  0  0  0  0  0  0  0  0  0  0
   27.3351   -3.5296   11.3167 Cl  0  0  0  0  0  0  0  0  0  0  0  0
   27.7728   -2.8877    8.7324 C   0  0  0  0  0  0  0  0  0  0  0  0
   27.3932   -2.3698    7.4894 C   0  0  0  0  0  0  0  0  0  0  0  0
 11 10  1  0
 11 12  1  0
 12 13  1  0
 13 14  1  0
 14 15  1  0
 15 16  2  0
 16  6  1  0
  6  7  2  0
  6  8  1  0
  8  1  1  0
  1  2  1  0
  2  3  2  0
  3  4  1  0
 24  4  1  0
 24 33  1  0
 33 34  2  0
 34 35  1  0
 35 36  2  0
 36 37  1  0
 36 38  1  0
 38 39  2  0
 24 25  1  0
 25 26  1  0
 26 27  1  0
 27 28  1  0
 28 29  1  0
 29 30  1  0
 30 31  2  0
 30 32  2  0
  4  5  1  0
 16 17  1  0
 17 18  1  0
 19 18  1  0
 19 20  1  0
 20 21  1  0
 20 22  1  0
 19 11  1  0
 20 11  1  0
 17 13  2  0
  5  1  2  0
 39 33  1  0
 30 25  1  0
 14 23  1  0
  8  9  1  0
M  END
> <minimizedAffinity>
-11.41738

> <CNNscore>
0.9443811178

> <CNNaffinity>
8.3511648178

> <CNN_VS>
7.8866825104

> <CNNaffinity_variance>
0.0497720726

$$$$



 39 44  0  0  0  0  0  0  0  0999 V2000
   22.2430   -0.0784    6.5297 C   0  0  0  0  0  0  0  0  0  0  0  0
   23.6298    0.0915    6.7147 C   0  0  0  0  0  0  0  0  0  0  0  0
   24.2814   -1.0743    6.7982 N   0  0  0  0  0  0  0  0  0  0  0  0
   23.3033   -1.9970    6.6700 N   0  0  0  0  0  0  0  0  0  0  0  0
   22.0609   -1.4399    6.5118 C   0  0  0  0  0  0  0  0  0  0  0  0
   20.0400    0.6004    5.7053 C   0  0  0  0  0  0  0  0  0  0  0  0
   19.7500   -0.4183    5.0836 O   0  0  0  0  0  0  0  0  0  0  0  0
   21.2231    0.8301    6.3776 N   0  0  0  0  0  0  0  0  0  0  0  0
   21.3469    1.7191    6.7820 H   0  0  0  0  0  0  0  0  0  0  0  0
   13.5565    2.8336    5.6613 C   0  0  0  0  0  0  0  0  0  0  0  0
   14.9548    2.6565    5.1388 C   0  0  0  0  0  0  0  0  0  0  0  0
   15.9700    3.6415    5.7109 C   0  0  0  0  0  0  0  0  0  0  0  0
   17.3330    3.0659    5.8319 C   0  0  0  0  0  0  0  0  0  0  0  0
   18.4304    3.7092    6.3102 N   0  0  0  0  0  0  0  0  0  0  0  0
   19.5307    2.9325    6.3340 N   0  0  0  0  0  0  0  0  0  0  0  0
   19.1160    1.7455    5.8283 C   0  0  0  0  0  0  0  0  0  0  0  0
   17.7382    1.7956    5.4904 C   0  0  0  0  0  0  0  0  0  0  0  0
   16.8343    0.7640    4.9100 C   0  0  0  0  0  0  0  0  0  0  0  0
   15.4102    1.2361    4.7241 C   0  0  0  0  0  0  0  0  0  0  0  0
   15.1031    2.2719    3.7020 C   0  0  0  0  0  0  0  0  0  0  0  0
   16.0950    2.8173    2.9206 F   0  0  0  0  0  0  0  0  0  0  0  0
   13.9926    2.1368    2.8982 F   0  0  0  0  0  0  0  0  0  0  0  0
   18.4220    4.6472    6.6090 H   0  0  0  0  0  0  0  0  0  0  0  0
   23.6126   -3.4426    6.6577 C   0  0  0  0  0  0  0  0  0  0  0  0
   22.4871   -4.2850    7.3103 C   0  0  0  0  0  0  0  0  0  0  0  0
   22.0377   -5.5948    6.6325 C   0  0  0  0  0  0  0  0  0  0  0  0
   22.8481   -6.8543    6.9415 C   0  0  0  0  0  0  0  0  0  0  0  0
   22.9012   -7.1731    8.4293 C   0  0  0  0  0  0  0  0  0  0  0  0
   23.6222   -6.0833    9.1962 C   0  0  0  0  0  0  0  0  0  0  0  0
   22.7753   -4.5240    9.0669 S   0  0  0  0  0  0  0  0  0  0  0  0
   23.6835   -3.4983    9.5470 O   0  0  0  0  0  0  0  0  0  0  0  0
   21.4816   -4.6842    9.7061 O   0  0  0  0  0  0  0  0  0  0  0  0
   24.1275   -3.8860    5.2933 C   0  0  0  0  0  0  0  0  0  0  0  0
   23.8772   -5.1988    4.8510 C   0  0  0  0  0  0  0  0  0  0  0  0
   24.3057   -5.6263    3.5902 C   0  0  0  0  0  0  0  0  0  0  0  0
   24.9963   -4.7487    2.7577 C   0  0  0  0  0  0  0  0  0  0  0  0
   25.5006   -5.2641    1.1942 Cl  0  0  0  0  0  0  0  0  0  0  0  0
   25.2762   -3.4541    3.1832 C   0  0  0  0  0  0  0  0  0  0  0  0
   24.8505   -3.0277    4.4458 C   0  0  0  0  0  0  0  0  0  0  0  0
 11 10  1  0
 11 12  1  0
 12 13  1  0
 13 14  1  0
 14 15  1  0
 15 16  2  0
 16  6  1  0
  6  7  2  0
  6  8  1  0
  8  1  1  0
  1  2  1  0
  2  3  2  0
  3  4  1  0
 24  4  1  0
 24 33  1  0
 33 34  2  0
 34 35  1  0
 35 36  2  0
 36 37  1  0
 36 38  1  0
 38 39  2  0
 24 25  1  0
 25 26  1  0
 26 27  1  0
 27 28  1  0
 28 29  1  0
 29 30  1  0
 30 31  2  0
 30 32  2  0
  4  5  1  0
 16 17  1  0
 17 18  1  0
 19 18  1  0
 19 20  1  0
 20 21  1  0
 20 22  1  0
 19 11  1  0
 20 11  1  0
 17 13  2  0
  5  1  2  0
 39 33  1  0
 30 25  1  0
 14 23  1  0
  8  9  1  0
M  END
> <minimizedAffinity>
-12.23563

> <CNNscore>
0.9366284013

> <CNNaffinity>
8.1430330276

> <CNN_VS>
7.6269960403

> <CNNaffinity_variance>
0.1731754541

$$$$



 39 44  0  0  0  0  0  0  0  0999 V2000
   22.0560    0.0428    6.3445 C   0  0  0  0  0  0  0  0  0  0  0  0
   23.1439   -0.0322    7.2373 C   0  0  0  0  0  0  0  0  0  0  0  0
   23.9246   -1.0937    7.0043 N   0  0  0  0  0  0  0  0  0  0  0  0
   23.3292   -1.7047    5.9571 N   0  0  0  0  0  0  0  0  0  0  0  0
   22.1985   -1.0562    5.5327 C   0  0  0  0  0  0  0  0  0  0  0  0
   19.7853    0.6985    5.7058 C   0  0  0  0  0  0  0  0  0  0  0  0
   19.4099   -0.3678    5.2257 O   0  0  0  0  0  0  0  0  0  0  0  0
   21.0406    0.9600    6.2160 N   0  0  0  0  0  0  0  0  0  0  0  0
   21.2241    1.8806    6.5128 H   0  0  0  0  0  0  0  0  0  0  0  0
   13.3816    3.1499    5.6157 C   0  0  0  0  0  0  0  0  0  0  0  0
   14.7751    2.9208    5.1004 C   0  0  0  0  0  0  0  0  0  0  0  0
   15.8209    3.8758    5.6679 C   0  0  0  0  0  0  0  0  0  0  0  0
   17.1631    3.2554    5.7996 C   0  0  0  0  0  0  0  0  0  0  0  0
   18.2799    3.8653    6.2767 N   0  0  0  0  0  0  0  0  0  0  0  0
   19.3531    3.0520    6.3118 N   0  0  0  0  0  0  0  0  0  0  0  0
   18.9003    1.8753    5.8149 C   0  0  0  0  0  0  0  0  0  0  0  0
   17.5263    1.9691    5.4710 C   0  0  0  0  0  0  0  0  0  0  0  0
   16.5901    0.9636    4.8960 C   0  0  0  0  0  0  0  0  0  0  0  0
   15.1835    1.4820    4.7002 C   0  0  0  0  0  0  0  0  0  0  0  0
   14.9157    2.5184    3.6677 C   0  0  0  0  0  0  0  0  0  0  0  0
   15.9284    3.0229    2.8855 F   0  0  0  0  0  0  0  0  0  0  0  0
   13.8042    2.4139    2.8606 F   0  0  0  0  0  0  0  0  0  0  0  0
   18.3023    4.8057    6.5672 H   0  0  0  0  0  0  0  0  0  0  0  0
   23.9149   -2.9160    5.3444 C   0  0  0  0  0  0  0  0  0  0  0  0
   25.4139   -2.7276    4.9984 C   0  0  0  0  0  0  0  0  0  0  0  0
   25.8336   -1.5647    4.0774 C   0  0  0  0  0  0  0  0  0  0  0  0
   26.0466   -0.1987    4.7310 C   0  0  0  0  0  0  0  0  0  0  0  0
   27.0926   -0.2289    5.8368 C   0  0  0  0  0  0  0  0  0  0  0  0
   26.6486   -1.1125    6.9848 C   0  0  0  0  0  0  0  0  0  0  0  0
   26.4449   -2.8025    6.4672 S   0  0  0  0  0  0  0  0  0  0  0  0
   25.7258   -3.4934    7.5222 O   0  0  0  0  0  0  0  0  0  0  0  0
   27.7518   -3.2875    6.0617 O   0  0  0  0  0  0  0  0  0  0  0  0
   23.5186   -4.1710    6.1133 C   0  0  0  0  0  0  0  0  0  0  0  0
   23.9448   -5.4306    5.6514 C   0  0  0  0  0  0  0  0  0  0  0  0
   23.6277   -6.5983    6.3528 C   0  0  0  0  0  0  0  0  0  0  0  0
   22.8743   -6.5225    7.5218 C   0  0  0  0  0  0  0  0  0  0  0  0
   22.5060   -7.9557    8.4018 Cl  0  0  0  0  0  0  0  0  0  0  0  0
   22.4215   -5.2910    7.9843 C   0  0  0  0  0  0  0  0  0  0  0  0
   22.7360   -4.1234    7.2807 C   0  0  0  0  0  0  0  0  0  0  0  0
 11 10  1  0
 11 12  1  0
 12 13  1  0
 13 14  1  0
 14 15  1  0
 15 16  2  0
 16  6  1  0
  6  7  2  0
  6  8  1  0
  8  1  1  0
  1  2  1  0
  2  3  2  0
  3  4  1  0
 24  4  1  0
 24 33  1  0
 33 34  2  0
 34 35  1  0
 35 36  2  0
 36 37  1  0
 36 38  1  0
 38 39  2  0
 24 25  1  0
 25 26  1  0
 26 27  1  0
 27 28  1  0
 28 29  1  0
 29 30  1  0
 30 31  2  0
 30 32  2  0
  4  5  1  0
 16 17  1  0
 17 18  1  0
 19 18  1  0
 19 20  1  0
 20 21  1  0
 20 22  1  0
 19 11  1  0
 20 11  1  0
 17 13  2  0
  5  1  2  0
 39 33  1  0
 30 25  1  0
 14 23  1  0
  8  9  1  0
M  END
> <minimizedAffinity>
-11.66851

> <CNNscore>
0.9331453443

> <CNNaffinity>
8.1671609879

> <CNN_VS>
7.6211481094

> <CNNaffinity_variance>
0.1365693063

$$$$



 39 44  0  0  0  0  0  0  0  0999 V2000
   21.7294   -0.3613    6.0714 C   0  0  0  0  0  0  0  0  0  0  0  0
   23.0988   -0.3471    5.7385 C   0  0  0  0  0  0  0  0  0  0  0  0
   23.6881   -1.5304    5.9462 N   0  0  0  0  0  0  0  0  0  0  0  0
   22.6889   -2.3063    6.4196 N   0  0  0  0  0  0  0  0  0  0  0  0
   21.4948   -1.6400    6.5156 C   0  0  0  0  0  0  0  0  0  0  0  0
   19.4188    0.3874    5.7636 C   0  0  0  0  0  0  0  0  0  0  0  0
   18.9008   -0.6985    5.5169 O   0  0  0  0  0  0  0  0  0  0  0  0
   20.7605    0.6106    5.9971 N   0  0  0  0  0  0  0  0  0  0  0  0
   21.0477    1.5441    6.1208 H   0  0  0  0  0  0  0  0  0  0  0  0
   13.2545    3.3848    5.5608 C   0  0  0  0  0  0  0  0  0  0  0  0
   14.6324    3.0365    5.0712 C   0  0  0  0  0  0  0  0  0  0  0  0
   15.7461    3.8964    5.6614 C   0  0  0  0  0  0  0  0  0  0  0  0
   17.0268    3.1618    5.8162 C   0  0  0  0  0  0  0  0  0  0  0  0
   18.1829    3.6719    6.3163 N   0  0  0  0  0  0  0  0  0  0  0  0
   19.1807    2.7686    6.3689 N   0  0  0  0  0  0  0  0  0  0  0  0
   18.6372    1.6363    5.8598 C   0  0  0  0  0  0  0  0  0  0  0  0
   17.2833    1.8494    5.4904 C   0  0  0  0  0  0  0  0  0  0  0  0
   16.2746    0.9297    4.8947 C   0  0  0  0  0  0  0  0  0  0  0  0
   14.9222    1.5684    4.6741 C   0  0  0  0  0  0  0  0  0  0  0  0
   14.7649    2.6258    3.6401 C   0  0  0  0  0  0  0  0  0  0  0  0
   15.8322    3.0418    2.8787 F   0  0  0  0  0  0  0  0  0  0  0  0
   13.6641    2.6193    2.8119 F   0  0  0  0  0  0  0  0  0  0  0  0
   18.2811    4.6064    6.6101 H   0  0  0  0  0  0  0  0  0  0  0  0
   22.9124   -3.7334    6.7346 C   0  0  0  0  0  0  0  0  0  0  0  0
   23.7307   -4.4524    5.6320 C   0  0  0  0  0  0  0  0  0  0  0  0
   25.2702   -4.3794    5.6687 C   0  0  0  0  0  0  0  0  0  0  0  0
   25.9962   -5.3950    6.5519 C   0  0  0  0  0  0  0  0  0  0  0  0
   25.6741   -6.8366    6.1830 C   0  0  0  0  0  0  0  0  0  0  0  0
   24.2080   -7.1441    6.4102 C   0  0  0  0  0  0  0  0  0  0  0  0
   23.1624   -6.1376    5.3811 S   0  0  0  0  0  0  0  0  0  0  0  0
   21.8074   -6.2661    5.8860 O   0  0  0  0  0  0  0  0  0  0  0  0
   23.4447   -6.4953    4.0027 O   0  0  0  0  0  0  0  0  0  0  0  0
   23.3593   -3.9168    8.1803 C   0  0  0  0  0  0  0  0  0  0  0  0
   22.7524   -4.9093    8.9729 C   0  0  0  0  0  0  0  0  0  0  0  0
   23.1633   -5.1264   10.2920 C   0  0  0  0  0  0  0  0  0  0  0  0
   24.1819   -4.3493   10.8382 C   0  0  0  0  0  0  0  0  0  0  0  0
   24.7083   -4.6331   12.4527 Cl  0  0  0  0  0  0  0  0  0  0  0  0
   24.7798   -3.3464   10.0817 C   0  0  0  0  0  0  0  0  0  0  0  0
   24.3663   -3.1271    8.7633 C   0  0  0  0  0  0  0  0  0  0  0  0
 11 10  1  0
 11 12  1  0
 12 13  1  0
 13 14  1  0
 14 15  1  0
 15 16  2  0
 16  6  1  0
  6  7  2  0
  6  8  1  0
  8  1  1  0
  1  2  1  0
  2  3  2  0
  3  4  1  0
 24  4  1  0
 24 33  1  0
 33 34  2  0
 34 35  1  0
 35 36  2  0
 36 37  1  0
 36 38  1  0
 38 39  2  0
 24 25  1  0
 25 26  1  0
 26 27  1  0
 27 28  1  0
 28 29  1  0
 29 30  1  0
 30 31  2  0
 30 32  2  0
  4  5  1  0
 16 17  1  0
 17 18  1  0
 19 18  1  0
 19 20  1  0
 20 21  1  0
 20 22  1  0
 19 11  1  0
 20 11  1  0
 17 13  2  0
  5  1  2  0
 39 33  1  0
 30 25  1  0
 14 23  1  0
  8  9  1  0
M  END
> <minimizedAffinity>
-12.29151

> <CNNscore>
0.9184482098

> <CNNaffinity>
8.1522073746

> <CNN_VS>
7.4873805046

> <CNNaffinity_variance>
0.1021651998

$$$$



 39 44  0  0  0  0  0  0  0  0999 V2000
   21.7462   -0.2096    6.2303 C   0  0  0  0  0  0  0  0  0  0  0  0
   21.7406   -1.5834    5.9158 C   0  0  0  0  0  0  0  0  0  0  0  0
   22.9122   -2.1735    6.1802 N   0  0  0  0  0  0  0  0  0  0  0  0
   23.6743   -1.1685    6.6635 N   0  0  0  0  0  0  0  0  0  0  0  0
   23.0126    0.0312    6.7053 C   0  0  0  0  0  0  0  0  0  0  0  0
   19.5344    0.5862    5.5460 C   0  0  0  0  0  0  0  0  0  0  0  0
   19.1486   -0.4179    4.9533 O   0  0  0  0  0  0  0  0  0  0  0  0
   20.7700    0.7533    6.1375 N   0  0  0  0  0  0  0  0  0  0  0  0
   20.9688    1.6360    6.5254 H   0  0  0  0  0  0  0  0  0  0  0  0
   13.2068    3.2288    5.5954 C   0  0  0  0  0  0  0  0  0  0  0  0
   14.5930    2.9864    5.0670 C   0  0  0  0  0  0  0  0  0  0  0  0
   15.6666    3.8778    5.6840 C   0  0  0  0  0  0  0  0  0  0  0  0
   16.9897    3.2115    5.7805 C   0  0  0  0  0  0  0  0  0  0  0  0
   18.1239    3.7612    6.2886 N   0  0  0  0  0  0  0  0  0  0  0  0
   19.1723    2.9155    6.2786 N   0  0  0  0  0  0  0  0  0  0  0  0
   18.6848    1.7813    5.7194 C   0  0  0  0  0  0  0  0  0  0  0  0
   17.3144    1.9345    5.3826 C   0  0  0  0  0  0  0  0  0  0  0  0
   16.3489    0.9899    4.7553 C   0  0  0  0  0  0  0  0  0  0  0  0
   14.9585    1.5598    4.5892 C   0  0  0  0  0  0  0  0  0  0  0  0
   14.7223    2.6580    3.6145 C   0  0  0  0  0  0  0  0  0  0  0  0
   15.7500    3.1735    2.8596 F   0  0  0  0  0  0  0  0  0  0  0  0
   13.6086    2.6303    2.8042 F   0  0  0  0  0  0  0  0  0  0  0  0
   18.1742    4.6835    6.6294 H   0  0  0  0  0  0  0  0  0  0  0  0
   25.0555   -1.4128    7.1308 C   0  0  0  0  0  0  0  0  0  0  0  0
   25.0880   -2.0948    8.5222 C   0  0  0  0  0  0  0  0  0  0  0  0
   24.4315   -3.4787    8.6978 C   0  0  0  0  0  0  0  0  0  0  0  0
   25.2727   -4.7019    8.3305 C   0  0  0  0  0  0  0  0  0  0  0  0
   26.5779   -4.7779    9.1107 C   0  0  0  0  0  0  0  0  0  0  0  0
   27.4809   -3.6069    8.7802 C   0  0  0  0  0  0  0  0  0  0  0  0
   26.7351   -2.0576    9.2375 S   0  0  0  0  0  0  0  0  0  0  0  0
   27.5077   -1.0035    8.6057 O   0  0  0  0  0  0  0  0  0  0  0  0
   26.5866   -2.0627   10.6817 O   0  0  0  0  0  0  0  0  0  0  0  0
   25.9138   -2.0181    6.0261 C   0  0  0  0  0  0  0  0  0  0  0  0
   25.6289   -3.3151    5.5589 C   0  0  0  0  0  0  0  0  0  0  0  0
   26.3752   -3.8857    4.5228 C   0  0  0  0  0  0  0  0  0  0  0  0
   27.4206   -3.1695    3.9447 C   0  0  0  0  0  0  0  0  0  0  0  0
   28.3229   -3.8590    2.6506 Cl  0  0  0  0  0  0  0  0  0  0  0  0
   27.7359   -1.8956    4.4064 C   0  0  0  0  0  0  0  0  0  0  0  0
   26.9915   -1.3263    5.4451 C   0  0  0  0  0  0  0  0  0  0  0  0
 11 10  1  0
 11 12  1  0
 12 13  1  0
 13 14  1  0
 14 15  1  0
 15 16  2  0
 16  6  1  0
  6  7  2  0
  6  8  1  0
  8  1  1  0
  1  2  1  0
  2  3  2  0
  3  4  1  0
 24  4  1  0
 24 33  1  0
 33 34  2  0
 34 35  1  0
 35 36  2  0
 36 37  1  0
 36 38  1  0
 38 39  2  0
 24 25  1  0
 25 26  1  0
 26 27  1  0
 27 28  1  0
 28 29  1  0
 29 30  1  0
 30 31  2  0
 30 32  2  0
  4  5  1  0
 16 17  1  0
 17 18  1  0
 19 18  1  0
 19 20  1  0
 20 21  1  0
 20 22  1  0
 19 11  1  0
 20 11  1  0
 17 13  2  0
  5  1  2  0
 39 33  1  0
 30 25  1  0
 14 23  1  0
  8  9  1  0
M  END
> <minimizedAffinity>
-11.39422

> <CNNscore>
0.8938649893

> <CNNaffinity>
8.2011499405

> <CNN_VS>
7.3307209015

> <CNNaffinity_variance>
0.0420890264

$$$$



 39 44  0  0  0  0  0  0  0  0999 V2000
   22.0471    0.0020    6.2195 C   0  0  0  0  0  0  0  0  0  0  0  0
   23.3564    0.0016    5.6980 C   0  0  0  0  0  0  0  0  0  0  0  0
   24.0278   -1.1153    6.0019 N   0  0  0  0  0  0  0  0  0  0  0  0
   23.1425   -1.8330    6.7269 N   0  0  0  0  0  0  0  0  0  0  0  0
   21.9400   -1.1945    6.8860 C   0  0  0  0  0  0  0  0  0  0  0  0
   19.7749    0.6796    5.6096 C   0  0  0  0  0  0  0  0  0  0  0  0
   19.4033   -0.3644    5.0801 O   0  0  0  0  0  0  0  0  0  0  0  0
   21.0290    0.9210    6.1327 N   0  0  0  0  0  0  0  0  0  0  0  0
   21.2093    1.8274    6.4721 H   0  0  0  0  0  0  0  0  0  0  0  0
   13.3654    3.1175    5.6034 C   0  0  0  0  0  0  0  0  0  0  0  0
   14.7626    2.9178    5.0859 C   0  0  0  0  0  0  0  0  0  0  0  0
   15.8025    3.8455    5.7072 C   0  0  0  0  0  0  0  0  0  0  0  0
   17.1455    3.2225    5.8157 C   0  0  0  0  0  0  0  0  0  0  0  0
   18.2578    3.8102    6.3298 N   0  0  0  0  0  0  0  0  0  0  0  0
   19.3328    2.9987    6.3305 N   0  0  0  0  0  0  0  0  0  0  0  0
   18.8862    1.8474    5.7723 C   0  0  0  0  0  0  0  0  0  0  0  0
   17.5140    1.9552    5.4251 C   0  0  0  0  0  0  0  0  0  0  0  0
   16.5840    0.9777    4.7945 C   0  0  0  0  0  0  0  0  0  0  0  0
   15.1773    1.5020    4.6163 C   0  0  0  0  0  0  0  0  0  0  0  0
   14.9129    2.5884    3.6357 C   0  0  0  0  0  0  0  0  0  0  0  0
   15.9290    3.1340    2.8861 F   0  0  0  0  0  0  0  0  0  0  0  0
   13.8066    2.5220    2.8175 F   0  0  0  0  0  0  0  0  0  0  0  0
   18.2759    4.7349    6.6673 H   0  0  0  0  0  0  0  0  0  0  0  0
   23.4788   -3.1837    7.2253 C   0  0  0  0  0  0  0  0  0  0  0  0
   22.6850   -4.2917    6.4875 C   0  0  0  0  0  0  0  0  0  0  0  0
   23.4287   -5.2324    5.5187 C   0  0  0  0  0  0  0  0  0  0  0  0
   24.1243   -6.4515    6.1258 C   0  0  0  0  0  0  0  0  0  0  0  0
   23.1716   -7.3505    6.9018 C   0  0  0  0  0  0  0  0  0  0  0  0
   22.5958   -6.6285    8.1031 C   0  0  0  0  0  0  0  0  0  0  0  0
   21.6341   -5.2133    7.6153 S   0  0  0  0  0  0  0  0  0  0  0  0
   21.3991   -4.4194    8.8077 O   0  0  0  0  0  0  0  0  0  0  0  0
   20.5003   -5.7067    6.8545 O   0  0  0  0  0  0  0  0  0  0  0  0
   24.9864   -3.3636    7.3595 C   0  0  0  0  0  0  0  0  0  0  0  0
   25.5226   -3.8409    8.5705 C   0  0  0  0  0  0  0  0  0  0  0  0
   26.8979   -4.0501    8.7145 C   0  0  0  0  0  0  0  0  0  0  0  0
   27.7561   -3.7782    7.6517 C   0  0  0  0  0  0  0  0  0  0  0  0
   29.4464   -4.0609    7.8175 Cl  0  0  0  0  0  0  0  0  0  0  0  0
   27.2517   -3.2828    6.4536 C   0  0  0  0  0  0  0  0  0  0  0  0
   25.8763   -3.0705    6.3108 C   0  0  0  0  0  0  0  0  0  0  0  0
 11 10  1  0
 11 12  1  0
 12 13  1  0
 13 14  1  0
 14 15  1  0
 15 16  2  0
 16  6  1  0
  6  7  2  0
  6  8  1  0
  8  1  1  0
  1  2  1  0
  2  3  2  0
  3  4  1  0
 24  4  1  0
 24 33  1  0
 33 34  2  0
 34 35  1  0
 35 36  2  0
 36 37  1  0
 36 38  1  0
 38 39  2  0
 24 25  1  0
 25 26  1  0
 26 27  1  0
 27 28  1  0
 28 29  1  0
 29 30  1  0
 30 31  2  0
 30 32  2  0
  4  5  1  0
 16 17  1  0
 17 18  1  0
 19 18  1  0
 19 20  1  0
 20 21  1  0
 20 22  1  0
 19 11  1  0
 20 11  1  0
 17 13  2  0
  5  1  2  0
 39 33  1  0
 30 25  1  0
 14 23  1  0
  8  9  1  0
M  END
> <minimizedAffinity>
-11.53322

> <CNNscore>
0.8811269999

> <CNNaffinity>
8.0830965042

> <CNN_VS>
7.1222343445

> <CNNaffinity_variance>
0.1297196299

$$$$
