


 27 29  0  0  0  0  0  0  0  0999 V2000
    0.6565   40.1442   27.8679 C   0  0  0  0  0  0  0  0  0  0  0  0
   -0.7992   40.4252   28.2747 C   0  0  0  0  0  0  0  0  0  0  0  0
   -1.2831   41.5886   27.5345 N   0  0  0  0  0  0  0  0  0  0  0  0
   -2.3177   41.5194   26.6402 C   0  0  0  0  0  0  0  0  0  0  0  0
   -3.0782   40.5690   26.5466 O   0  0  0  0  0  0  0  0  0  0  0  0
   -2.4189   42.8212   25.8946 C   0  0  0  0  0  0  0  0  0  0  0  0
   -1.9890   42.8136   24.4168 C   0  0  0  0  0  0  0  0  0  0  0  0
   -0.6822   42.0279   24.2011 C   0  0  0  0  0  0  0  0  0  0  0  0
    0.3757   42.9241   24.8616 C   0  0  0  0  0  0  0  0  0  0  0  0
   -0.4510   44.1156   25.3794 C   0  0  0  0  0  0  0  0  0  0  0  0
   -1.4882   44.2549   24.2576 C   0  0  0  0  0  0  0  0  0  0  0  0
   -1.3561   43.7192   26.5594 C   0  0  0  0  0  0  0  0  0  0  0  0
   -0.7496   42.8435   27.6200 C   0  0  0  0  0  0  0  0  0  0  0  0
    0.0268   43.1927   28.4962 O   0  0  0  0  0  0  0  0  0  0  0  0
   -0.8755   40.5198   29.8296 C   0  0  0  0  0  0  0  0  0  0  0  0
   -1.5015   39.2979   30.6227 N   0  0  0  0  0  0  0  0  0  0  0  0
   -2.6023   38.6764   29.6905 C   0  0  0  0  0  0  0  0  0  0  0  0
   -0.4836   38.1938   30.8454 C   0  0  0  0  0  0  0  0  0  0  0  0
   -2.2838   39.7745   31.8544 C   0  0  0  0  0  0  0  0  0  0  0  0
   -1.6373   40.2403   33.1641 N   0  0  0  0  0  0  0  0  0  0  0  0
   -0.1729   39.7664   33.2840 C   0  0  0  0  0  0  0  0  0  0  0  0
   -1.4976   41.7774   33.0515 C   0  0  0  0  0  0  0  0  0  0  0  0
   -2.3287   39.8426   34.4695 C   0  0  0  0  0  0  0  0  0  0  0  0
   -2.8867   40.8456   35.4636 N   0  0  0  0  0  0  0  0  0  0  0  0
   -4.0425   41.7188   35.0085 C   0  0  0  0  0  0  0  0  0  0  0  0
   -1.8171   41.7316   36.1394 C   0  0  0  0  0  0  0  0  0  0  0  0
   -3.4608   39.9833   36.6546 C   0  0  0  0  0  0  0  0  0  0  0  0
  2  1  1  0
  2 15  1  0
 15 16  1  0
 16 17  1  0
 16 18  1  0
 16 19  1  0
 19 20  1  0
 20 21  1  0
 20 22  1  0
 20 23  1  0
 23 24  1  0
 24 25  1  0
 24 26  1  0
 24 27  1  0
  2  3  1  0
  3  4  1  0
  4  5  2  0
  6  4  1  0
  6  7  1  0
  7  8  1  0
  8  9  1  0
 10  9  1  0
 10 11  1  0
 10 12  1  0
 12 13  1  0
 13 14  2  0
 13  3  1  0
 12  6  1  0
 11  7  1  0
M  CHG 1  16   1
M  CHG 1  20   1
M  CHG 1  24   1
M  END
> <minimizedAffinity>
-4.10800

> <CNNscore>
0.4212012291

> <CNNaffinity>
4.7773094177

> <CNN_VS>
2.0122087002

> <CNNaffinity_variance>
0.3579117358

$$$$



 27 29  0  0  0  0  0  0  0  0999 V2000
   -3.5864   40.6158   27.1505 C   0  0  0  0  0  0  0  0  0  0  0  0
   -2.4851   39.8279   26.4227 C   0  0  0  0  0  0  0  0  0  0  0  0
   -1.7385   40.7413   25.5604 N   0  0  0  0  0  0  0  0  0  0  0  0
   -0.4131   41.0256   25.7543 C   0  0  0  0  0  0  0  0  0  0  0  0
    0.3226   40.3873   26.4902 O   0  0  0  0  0  0  0  0  0  0  0  0
   -0.0086   42.1549   24.8477 C   0  0  0  0  0  0  0  0  0  0  0  0
    0.2643   43.5173   25.5100 C   0  0  0  0  0  0  0  0  0  0  0  0
   -0.7990   43.8668   26.5678 C   0  0  0  0  0  0  0  0  0  0  0  0
   -2.0526   44.1405   25.7239 C   0  0  0  0  0  0  0  0  0  0  0  0
   -1.5592   43.9129   24.2830 C   0  0  0  0  0  0  0  0  0  0  0  0
   -0.1331   44.4709   24.3759 C   0  0  0  0  0  0  0  0  0  0  0  0
   -1.2685   42.4280   24.0015 C   0  0  0  0  0  0  0  0  0  0  0  0
   -2.2715   41.4288   24.5069 C   0  0  0  0  0  0  0  0  0  0  0  0
   -3.3614   41.1790   24.0150 O   0  0  0  0  0  0  0  0  0  0  0  0
   -3.1321   38.5947   25.7205 C   0  0  0  0  0  0  0  0  0  0  0  0
   -2.7004   37.1477   26.2041 N   0  0  0  0  0  0  0  0  0  0  0  0
   -1.4361   36.7527   25.3599 C   0  0  0  0  0  0  0  0  0  0  0  0
   -2.2400   37.1546   27.6507 C   0  0  0  0  0  0  0  0  0  0  0  0
   -3.7485   36.0948   25.8179 C   0  0  0  0  0  0  0  0  0  0  0  0
   -5.0179   35.7998   26.6253 N   0  0  0  0  0  0  0  0  0  0  0  0
   -5.6702   37.0908   27.1652 C   0  0  0  0  0  0  0  0  0  0  0  0
   -6.0628   35.2807   25.6087 C   0  0  0  0  0  0  0  0  0  0  0  0
   -4.8877   34.8499   27.8174 C   0  0  0  0  0  0  0  0  0  0  0  0
   -4.2669   33.4672   27.7254 N   0  0  0  0  0  0  0  0  0  0  0  0
   -3.9195   32.9425   26.3435 C   0  0  0  0  0  0  0  0  0  0  0  0
   -5.0317   32.3751   28.5051 C   0  0  0  0  0  0  0  0  0  0  0  0
   -2.8893   33.5724   28.4888 C   0  0  0  0  0  0  0  0  0  0  0  0
  2  1  1  0
  2 15  1  0
 15 16  1  0
 16 17  1  0
 16 18  1  0
 16 19  1  0
 19 20  1  0
 20 21  1  0
 20 22  1  0
 20 23  1  0
 23 24  1  0
 24 25  1  0
 24 26  1  0
 24 27  1  0
  2  3  1  0
  3  4  1  0
  4  5  2  0
  6  4  1  0
  6  7  1  0
  7  8  1  0
  8  9  1  0
 10  9  1  0
 10 11  1  0
 10 12  1  0
 12 13  1  0
 13 14  2  0
 13  3  1  0
 12  6  1  0
 11  7  1  0
M  CHG 1  16   1
M  CHG 1  20   1
M  CHG 1  24   1
M  END
> <minimizedAffinity>
-3.88369

> <CNNscore>
0.3855342269

> <CNNaffinity>
4.7599997520

> <CNN_VS>
1.8351428509

> <CNNaffinity_variance>
0.2057541162

$$$$



 27 29  0  0  0  0  0  0  0  0999 V2000
    0.3795   40.1783   28.1056 C   0  0  0  0  0  0  0  0  0  0  0  0
   -0.8663   40.8506   28.7052 C   0  0  0  0  0  0  0  0  0  0  0  0
   -1.2506   41.9787   27.8596 N   0  0  0  0  0  0  0  0  0  0  0  0
   -2.3916   41.9818   27.1025 C   0  0  0  0  0  0  0  0  0  0  0  0
   -3.3003   41.1768   27.2320 O   0  0  0  0  0  0  0  0  0  0  0  0
   -2.3801   43.1766   26.1899 C   0  0  0  0  0  0  0  0  0  0  0  0
   -2.1554   42.9072   24.6912 C   0  0  0  0  0  0  0  0  0  0  0  0
   -1.0314   41.8819   24.4525 C   0  0  0  0  0  0  0  0  0  0  0  0
    0.2341   42.6526   24.8560 C   0  0  0  0  0  0  0  0  0  0  0  0
   -0.3153   44.0271   25.2804 C   0  0  0  0  0  0  0  0  0  0  0  0
   -1.4554   44.2055   24.2694 C   0  0  0  0  0  0  0  0  0  0  0  0
   -1.1089   43.9488   26.5968 C   0  0  0  0  0  0  0  0  0  0  0  0
   -0.5163   43.1200   27.7022 C   0  0  0  0  0  0  0  0  0  0  0  0
    0.4147   43.4338   28.4283 O   0  0  0  0  0  0  0  0  0  0  0  0
   -0.5858   41.1795   30.2038 C   0  0  0  0  0  0  0  0  0  0  0  0
   -0.9649   40.0900   31.2915 N   0  0  0  0  0  0  0  0  0  0  0  0
    0.3562   39.3062   31.6189 C   0  0  0  0  0  0  0  0  0  0  0  0
   -1.3952   40.7300   32.5992 C   0  0  0  0  0  0  0  0  0  0  0  0
   -1.8968   39.0193   30.7072 C   0  0  0  0  0  0  0  0  0  0  0  0
   -2.9171   38.2193   31.5252 N   0  0  0  0  0  0  0  0  0  0  0  0
   -2.3059   37.6744   32.8341 C   0  0  0  0  0  0  0  0  0  0  0  0
   -3.9620   39.2436   32.0291 C   0  0  0  0  0  0  0  0  0  0  0  0
   -3.5941   37.0325   30.8372 C   0  0  0  0  0  0  0  0  0  0  0  0
   -3.8460   36.9608   29.3415 N   0  0  0  0  0  0  0  0  0  0  0  0
   -4.6050   35.7567   28.8128 C   0  0  0  0  0  0  0  0  0  0  0  0
   -2.5882   37.1882   28.4745 C   0  0  0  0  0  0  0  0  0  0  0  0
   -4.7569   38.2060   29.0077 C   0  0  0  0  0  0  0  0  0  0  0  0
  2  1  1  0
  2 15  1  0
 15 16  1  0
 16 17  1  0
 16 18  1  0
 16 19  1  0
 19 20  1  0
 20 21  1  0
 20 22  1  0
 20 23  1  0
 23 24  1  0
 24 25  1  0
 24 26  1  0
 24 27  1  0
  2  3  1  0
  3  4  1  0
  4  5  2  0
  6  4  1  0
  6  7  1  0
  7  8  1  0
  8  9  1  0
 10  9  1  0
 10 11  1  0
 10 12  1  0
 12 13  1  0
 13 14  2  0
 13  3  1  0
 12  6  1  0
 11  7  1  0
M  CHG 1  16   1
M  CHG 1  20   1
M  CHG 1  24   1
M  END
> <minimizedAffinity>
-4.07243

> <CNNscore>
0.3688143194

> <CNNaffinity>
4.8327293396

> <CNN_VS>
1.7823797464

> <CNNaffinity_variance>
0.3949697316

$$$$



 27 29  0  0  0  0  0  0  0  0999 V2000
   -2.3287   39.3145   26.4993 C   0  0  0  0  0  0  0  0  0  0  0  0
   -2.4662   40.3156   27.6579 C   0  0  0  0  0  0  0  0  0  0  0  0
   -1.8408   41.5785   27.2712 N   0  0  0  0  0  0  0  0  0  0  0  0
   -2.5648   42.6947   26.9474 C   0  0  0  0  0  0  0  0  0  0  0  0
   -3.7577   42.8249   27.1720 O   0  0  0  0  0  0  0  0  0  0  0  0
   -1.6421   43.7410   26.3866 C   0  0  0  0  0  0  0  0  0  0  0  0
   -1.7435   44.0234   24.8770 C   0  0  0  0  0  0  0  0  0  0  0  0
   -1.8498   42.7259   24.0542 C   0  0  0  0  0  0  0  0  0  0  0  0
   -0.4504   42.1091   24.1947 C   0  0  0  0  0  0  0  0  0  0  0  0
    0.2908   43.1252   25.0833 C   0  0  0  0  0  0  0  0  0  0  0  0
   -0.3008   44.4434   24.5675 C   0  0  0  0  0  0  0  0  0  0  0  0
   -0.2380   43.1197   26.5287 C   0  0  0  0  0  0  0  0  0  0  0  0
   -0.4941   41.7779   27.1562 C   0  0  0  0  0  0  0  0  0  0  0  0
    0.3461   41.0066   27.5938 O   0  0  0  0  0  0  0  0  0  0  0  0
   -1.9244   39.6513   28.9609 C   0  0  0  0  0  0  0  0  0  0  0  0
   -2.9205   38.7626   29.8164 N   0  0  0  0  0  0  0  0  0  0  0  0
   -4.3558   39.0057   29.2267 C   0  0  0  0  0  0  0  0  0  0  0  0
   -2.6484   37.2805   29.6320 C   0  0  0  0  0  0  0  0  0  0  0  0
   -3.0215   39.2717   31.2611 C   0  0  0  0  0  0  0  0  0  0  0  0
   -3.8484   38.5965   32.3614 N   0  0  0  0  0  0  0  0  0  0  0  0
   -4.8939   37.6208   31.7794 C   0  0  0  0  0  0  0  0  0  0  0  0
   -2.8763   37.6567   33.1140 C   0  0  0  0  0  0  0  0  0  0  0  0
   -4.6007   39.5068   33.3338 C   0  0  0  0  0  0  0  0  0  0  0  0
   -6.0857   39.8052   33.2267 N   0  0  0  0  0  0  0  0  0  0  0  0
   -7.0546   38.7013   33.6116 C   0  0  0  0  0  0  0  0  0  0  0  0
   -6.5157   40.4079   31.8712 C   0  0  0  0  0  0  0  0  0  0  0  0
   -6.3559   40.9726   34.2543 C   0  0  0  0  0  0  0  0  0  0  0  0
  2  1  1  0
  2 15  1  0
 15 16  1  0
 16 17  1  0
 16 18  1  0
 16 19  1  0
 19 20  1  0
 20 21  1  0
 20 22  1  0
 20 23  1  0
 23 24  1  0
 24 25  1  0
 24 26  1  0
 24 27  1  0
  2  3  1  0
  3  4  1  0
  4  5  2  0
  6  4  1  0
  6  7  1  0
  7  8  1  0
  8  9  1  0
 10  9  1  0
 10 11  1  0
 10 12  1  0
 12 13  1  0
 13 14  2  0
 13  3  1  0
 12  6  1  0
 11  7  1  0
M  CHG 1  16   1
M  CHG 1  20   1
M  CHG 1  24   1
M  END
> <minimizedAffinity>
-4.40773

> <CNNscore>
0.3225914538

> <CNNaffinity>
4.7153172493

> <CNN_VS>
1.5211210251

> <CNNaffinity_variance>
0.2319936901

$$$$



 27 29  0  0  0  0  0  0  0  0999 V2000
    1.6555   40.1808   28.5347 C   0  0  0  0  0  0  0  0  0  0  0  0
    1.8444   41.2903   27.4874 C   0  0  0  0  0  0  0  0  0  0  0  0
    0.5524   41.9205   27.2247 N   0  0  0  0  0  0  0  0  0  0  0  0
   -0.4962   41.2498   26.6542 C   0  0  0  0  0  0  0  0  0  0  0  0
   -0.5457   40.0363   26.5306 O   0  0  0  0  0  0  0  0  0  0  0  0
   -1.5886   42.2270   26.3187 C   0  0  0  0  0  0  0  0  0  0  0  0
   -1.8129   42.5374   24.8280 C   0  0  0  0  0  0  0  0  0  0  0  0
   -0.4847   42.7468   24.0771 C   0  0  0  0  0  0  0  0  0  0  0  0
    0.0225   44.0852   24.6337 C   0  0  0  0  0  0  0  0  0  0  0  0
   -1.0740   44.4825   25.6392 C   0  0  0  0  0  0  0  0  0  0  0  0
   -2.3274   43.9803   24.9110 C   0  0  0  0  0  0  0  0  0  0  0  0
   -1.0772   43.5698   26.8785 C   0  0  0  0  0  0  0  0  0  0  0  0
    0.2584   43.2303   27.4790 C   0  0  0  0  0  0  0  0  0  0  0  0
    0.9510   43.9591   28.1730 O   0  0  0  0  0  0  0  0  0  0  0  0
    2.5808   40.6910   26.2500 C   0  0  0  0  0  0  0  0  0  0  0  0
    3.6610   41.5898   25.5157 N   0  0  0  0  0  0  0  0  0  0  0  0
    3.3308   41.5225   23.9816 C   0  0  0  0  0  0  0  0  0  0  0  0
    3.5269   43.0526   25.8989 C   0  0  0  0  0  0  0  0  0  0  0  0
    5.0633   40.9741   25.6210 C   0  0  0  0  0  0  0  0  0  0  0  0
    6.3664   41.7816   25.6138 N   0  0  0  0  0  0  0  0  0  0  0  0
    6.4724   42.7148   26.8393 C   0  0  0  0  0  0  0  0  0  0  0  0
    7.5053   40.7616   25.8535 C   0  0  0  0  0  0  0  0  0  0  0  0
    6.6498   42.6476   24.3851 C   0  0  0  0  0  0  0  0  0  0  0  0
    7.0345   42.0816   23.0295 N   0  0  0  0  0  0  0  0  0  0  0  0
    6.7087   40.6237   22.7577 C   0  0  0  0  0  0  0  0  0  0  0  0
    8.4968   42.3600   22.6174 C   0  0  0  0  0  0  0  0  0  0  0  0
    6.1899   42.8998   21.9765 C   0  0  0  0  0  0  0  0  0  0  0  0
  2  1  1  0
  2 15  1  0
 15 16  1  0
 16 17  1  0
 16 18  1  0
 16 19  1  0
 19 20  1  0
 20 21  1  0
 20 22  1  0
 20 23  1  0
 23 24  1  0
 24 25  1  0
 24 26  1  0
 24 27  1  0
  2  3  1  0
  3  4  1  0
  4  5  2  0
  6  4  1  0
  6  7  1  0
  7  8  1  0
  8  9  1  0
 10  9  1  0
 10 11  1  0
 10 12  1  0
 12 13  1  0
 13 14  2  0
 13  3  1  0
 12  6  1  0
 11  7  1  0
M  CHG 1  16   1
M  CHG 1  20   1
M  CHG 1  24   1
M  END
> <minimizedAffinity>
-3.96002

> <CNNscore>
0.3140489161

> <CNNaffinity>
4.5524897575

> <CNN_VS>
1.4297044277

> <CNNaffinity_variance>
0.4972400367

$$$$



 27 29  0  0  0  0  0  0  0  0999 V2000
    1.4999   39.7202   25.7137 C   0  0  0  0  0  0  0  0  0  0  0  0
    2.0297   40.6859   24.6413 C   0  0  0  0  0  0  0  0  0  0  0  0
    1.0843   41.7894   24.4870 N   0  0  0  0  0  0  0  0  0  0  0  0
    1.2889   43.0232   25.0445 C   0  0  0  0  0  0  0  0  0  0  0  0
    2.3551   43.3958   25.5082 O   0  0  0  0  0  0  0  0  0  0  0  0
    0.0437   43.8517   24.8907 C   0  0  0  0  0  0  0  0  0  0  0  0
   -0.7754   44.1228   26.1653 C   0  0  0  0  0  0  0  0  0  0  0  0
   -0.9246   42.8597   27.0336 C   0  0  0  0  0  0  0  0  0  0  0  0
   -1.8657   41.9752   26.2026 C   0  0  0  0  0  0  0  0  0  0  0  0
   -2.1420   42.8356   24.9557 C   0  0  0  0  0  0  0  0  0  0  0  0
   -2.1881   44.2371   25.5780 C   0  0  0  0  0  0  0  0  0  0  0  0
   -0.8996   42.9618   24.0562 C   0  0  0  0  0  0  0  0  0  0  0  0
   -0.1024   41.7105   23.8146 C   0  0  0  0  0  0  0  0  0  0  0  0
   -0.3975   40.7929   23.0640 O   0  0  0  0  0  0  0  0  0  0  0  0
    2.3528   39.8725   23.3503 C   0  0  0  0  0  0  0  0  0  0  0  0
    3.8388   39.9059   22.7985 N   0  0  0  0  0  0  0  0  0  0  0  0
    4.6771   38.9422   23.7125 C   0  0  0  0  0  0  0  0  0  0  0  0
    3.9301   39.3242   21.3992 C   0  0  0  0  0  0  0  0  0  0  0  0
    4.4846   41.2811   23.0182 C   0  0  0  0  0  0  0  0  0  0  0  0
    5.4913   41.9281   22.0600 N   0  0  0  0  0  0  0  0  0  0  0  0
    6.3780   40.8760   21.3597 C   0  0  0  0  0  0  0  0  0  0  0  0
    4.6594   42.5140   20.8940 C   0  0  0  0  0  0  0  0  0  0  0  0
    6.4416   42.9763   22.6418 C   0  0  0  0  0  0  0  0  0  0  0  0
    6.9604   42.9396   24.0685 N   0  0  0  0  0  0  0  0  0  0  0  0
    7.5365   41.6289   24.5740 C   0  0  0  0  0  0  0  0  0  0  0  0
    5.9735   43.4979   25.1172 C   0  0  0  0  0  0  0  0  0  0  0  0
    8.1609   43.9637   24.1065 C   0  0  0  0  0  0  0  0  0  0  0  0
  2  1  1  0
  2 15  1  0
 15 16  1  0
 16 17  1  0
 16 18  1  0
 16 19  1  0
 19 20  1  0
 20 21  1  0
 20 22  1  0
 20 23  1  0
 23 24  1  0
 24 25  1  0
 24 26  1  0
 24 27  1  0
  2  3  1  0
  3  4  1  0
  4  5  2  0
  6  4  1  0
  6  7  1  0
  7  8  1  0
  8  9  1  0
 10  9  1  0
 10 11  1  0
 10 12  1  0
 12 13  1  0
 13 14  2  0
 13  3  1  0
 12  6  1  0
 11  7  1  0
M  CHG 1  16   1
M  CHG 1  20   1
M  CHG 1  24   1
M  END
> <minimizedAffinity>
-4.56554

> <CNNscore>
0.2925955355

> <CNNaffinity>
4.6351337433

> <CNN_VS>
1.3562194109

> <CNNaffinity_variance>
0.4888251722

$$$$



 27 29  0  0  0  0  0  0  0  0999 V2000
    0.3676   38.3869   24.3561 C   0  0  0  0  0  0  0  0  0  0  0  0
    0.8627   39.7967   24.7180 C   0  0  0  0  0  0  0  0  0  0  0  0
   -0.2923   40.6719   24.9064 N   0  0  0  0  0  0  0  0  0  0  0  0
   -0.9123   41.3137   23.8678 C   0  0  0  0  0  0  0  0  0  0  0  0
   -0.7289   41.0455   22.6910 O   0  0  0  0  0  0  0  0  0  0  0  0
   -1.9086   42.2981   24.4147 C   0  0  0  0  0  0  0  0  0  0  0  0
   -1.5581   43.7910   24.2833 C   0  0  0  0  0  0  0  0  0  0  0  0
   -0.0867   44.0710   24.6417 C   0  0  0  0  0  0  0  0  0  0  0  0
   -0.0488   43.8420   26.1598 C   0  0  0  0  0  0  0  0  0  0  0  0
   -1.5023   43.4557   26.4905 C   0  0  0  0  0  0  0  0  0  0  0  0
   -2.2688   44.3610   25.5176 C   0  0  0  0  0  0  0  0  0  0  0  0
   -1.8688   42.0664   25.9388 C   0  0  0  0  0  0  0  0  0  0  0  0
   -0.8529   40.9726   26.1155 C   0  0  0  0  0  0  0  0  0  0  0  0
   -0.6129   40.3615   27.1458 O   0  0  0  0  0  0  0  0  0  0  0  0
    1.9026   40.2523   23.6486 C   0  0  0  0  0  0  0  0  0  0  0  0
    3.1969   41.0218   24.1453 N   0  0  0  0  0  0  0  0  0  0  0  0
    3.6490   41.9479   22.9601 C   0  0  0  0  0  0  0  0  0  0  0  0
    2.8842   41.9577   25.2990 C   0  0  0  0  0  0  0  0  0  0  0  0
    4.3782   40.0604   24.3367 C   0  0  0  0  0  0  0  0  0  0  0  0
    5.5608   40.3180   25.2776 N   0  0  0  0  0  0  0  0  0  0  0  0
    5.1957   40.0383   26.7515 C   0  0  0  0  0  0  0  0  0  0  0  0
    6.6065   39.2212   24.9639 C   0  0  0  0  0  0  0  0  0  0  0  0
    6.1939   41.7103   25.2457 C   0  0  0  0  0  0  0  0  0  0  0  0
    7.1698   42.2132   26.2947 N   0  0  0  0  0  0  0  0  0  0  0  0
    8.2420   41.2519   26.7764 C   0  0  0  0  0  0  0  0  0  0  0  0
    6.5004   42.8801   27.5164 C   0  0  0  0  0  0  0  0  0  0  0  0
    7.9529   43.3989   25.6073 C   0  0  0  0  0  0  0  0  0  0  0  0
  2  1  1  0
  2 15  1  0
 15 16  1  0
 16 17  1  0
 16 18  1  0
 16 19  1  0
 19 20  1  0
 20 21  1  0
 20 22  1  0
 20 23  1  0
 23 24  1  0
 24 25  1  0
 24 26  1  0
 24 27  1  0
  2  3  1  0
  3  4  1  0
  4  5  2  0
  6  4  1  0
  6  7  1  0
  7  8  1  0
  8  9  1  0
 10  9  1  0
 10 11  1  0
 10 12  1  0
 12 13  1  0
 13 14  2  0
 13  3  1  0
 12  6  1  0
 11  7  1  0
M  CHG 1  16   1
M  CHG 1  20   1
M  CHG 1  24   1
M  END
> <minimizedAffinity>
-3.95238

> <CNNscore>
0.2910991907

> <CNNaffinity>
4.4571146965

> <CNN_VS>
1.2974624634

> <CNNaffinity_variance>
0.4856176674

$$$$



 27 29  0  0  0  0  0  0  0  0999 V2000
    2.2829   40.1321   25.9974 C   0  0  0  0  0  0  0  0  0  0  0  0
    2.7005   41.6069   25.8791 C   0  0  0  0  0  0  0  0  0  0  0  0
    1.5008   42.4316   25.7529 N   0  0  0  0  0  0  0  0  0  0  0  0
    1.0931   43.3001   26.7300 C   0  0  0  0  0  0  0  0  0  0  0  0
    1.7895   43.6467   27.6708 O   0  0  0  0  0  0  0  0  0  0  0  0
   -0.2765   43.8210   26.3929 C   0  0  0  0  0  0  0  0  0  0  0  0
   -1.4470   43.3134   27.2537 C   0  0  0  0  0  0  0  0  0  0  0  0
   -1.3603   41.7968   27.5070 C   0  0  0  0  0  0  0  0  0  0  0  0
   -1.6634   41.1955   26.1268 C   0  0  0  0  0  0  0  0  0  0  0  0
   -1.8853   42.4390   25.2460 C   0  0  0  0  0  0  0  0  0  0  0  0
   -2.5948   43.3705   26.2373 C   0  0  0  0  0  0  0  0  0  0  0  0
   -0.5785   43.2162   25.0069 C   0  0  0  0  0  0  0  0  0  0  0  0
    0.6473   42.4073   24.6864 C   0  0  0  0  0  0  0  0  0  0  0  0
    0.9124   41.8802   23.6167 O   0  0  0  0  0  0  0  0  0  0  0  0
    3.7496   41.7402   24.7327 C   0  0  0  0  0  0  0  0  0  0  0  0
    5.1737   42.3391   25.0889 N   0  0  0  0  0  0  0  0  0  0  0  0
    4.9137   43.6708   25.8801 C   0  0  0  0  0  0  0  0  0  0  0  0
    5.9374   41.4389   26.0435 C   0  0  0  0  0  0  0  0  0  0  0  0
    5.9179   42.7965   23.8266 C   0  0  0  0  0  0  0  0  0  0  0  0
    7.4386   42.7277   23.6451 N   0  0  0  0  0  0  0  0  0  0  0  0
    8.1359   44.0156   24.1337 C   0  0  0  0  0  0  0  0  0  0  0  0
    7.9427   41.6586   24.6440 C   0  0  0  0  0  0  0  0  0  0  0  0
    7.9666   42.4586   22.2347 C   0  0  0  0  0  0  0  0  0  0  0  0
    7.4899   41.3089   21.3649 N   0  0  0  0  0  0  0  0  0  0  0  0
    6.7409   40.1762   22.0443 C   0  0  0  0  0  0  0  0  0  0  0  0
    8.5788   40.7163   20.4437 C   0  0  0  0  0  0  0  0  0  0  0  0
    6.4560   41.9448   20.3558 C   0  0  0  0  0  0  0  0  0  0  0  0
  2  1  1  0
  2 15  1  0
 15 16  1  0
 16 17  1  0
 16 18  1  0
 16 19  1  0
 19 20  1  0
 20 21  1  0
 20 22  1  0
 20 23  1  0
 23 24  1  0
 24 25  1  0
 24 26  1  0
 24 27  1  0
  2  3  1  0
  3  4  1  0
  4  5  2  0
  6  4  1  0
  6  7  1  0
  7  8  1  0
  8  9  1  0
 10  9  1  0
 10 11  1  0
 10 12  1  0
 12 13  1  0
 13 14  2  0
 13  3  1  0
 12  6  1  0
 11  7  1  0
M  CHG 1  16   1
M  CHG 1  20   1
M  CHG 1  24   1
M  END
> <minimizedAffinity>
-4.16052

> <CNNscore>
0.2900982797

> <CNNaffinity>
5.1642994881

> <CNN_VS>
1.4981544018

> <CNNaffinity_variance>
0.1010124981

$$$$



 27 29  0  0  0  0  0  0  0  0999 V2000
    2.7691   39.9155   27.4942 C   0  0  0  0  0  0  0  0  0  0  0  0
    2.0494   41.2722   27.5640 C   0  0  0  0  0  0  0  0  0  0  0  0
    2.8362   42.1853   28.3902 N   0  0  0  0  0  0  0  0  0  0  0  0
    3.0905   41.9522   29.7153 C   0  0  0  0  0  0  0  0  0  0  0  0
    2.9025   40.8808   30.2695 O   0  0  0  0  0  0  0  0  0  0  0  0
    3.7250   43.1726   30.3225 C   0  0  0  0  0  0  0  0  0  0  0  0
    2.8623   43.9963   31.2952 C   0  0  0  0  0  0  0  0  0  0  0  0
    1.4271   44.1888   30.7707 C   0  0  0  0  0  0  0  0  0  0  0  0
    1.6156   45.1457   29.5844 C   0  0  0  0  0  0  0  0  0  0  0  0
    3.1365   45.3860   29.5686 C   0  0  0  0  0  0  0  0  0  0  0  0
    3.4411   45.3995   31.0722 C   0  0  0  0  0  0  0  0  0  0  0  0
    3.9133   44.1318   29.1299 C   0  0  0  0  0  0  0  0  0  0  0  0
    3.3672   43.3671   27.9565 C   0  0  0  0  0  0  0  0  0  0  0  0
    3.4554   43.6800   26.7789 O   0  0  0  0  0  0  0  0  0  0  0  0
    0.5753   41.0348   28.0150 C   0  0  0  0  0  0  0  0  0  0  0  0
   -0.5843   41.6860   27.1518 N   0  0  0  0  0  0  0  0  0  0  0  0
   -1.9378   41.2390   27.8114 C   0  0  0  0  0  0  0  0  0  0  0  0
   -0.5665   43.2013   27.2418 C   0  0  0  0  0  0  0  0  0  0  0  0
   -0.6393   41.0785   25.7431 C   0  0  0  0  0  0  0  0  0  0  0  0
   -0.6699   41.8974   24.4474 N   0  0  0  0  0  0  0  0  0  0  0  0
   -1.5836   43.1358   24.5702 C   0  0  0  0  0  0  0  0  0  0  0  0
    0.7397   42.5182   24.2981 C   0  0  0  0  0  0  0  0  0  0  0  0
   -1.0929   41.1731   23.1681 C   0  0  0  0  0  0  0  0  0  0  0  0
   -1.9552   39.9232   23.1567 N   0  0  0  0  0  0  0  0  0  0  0  0
   -2.7719   39.6433   21.9076 C   0  0  0  0  0  0  0  0  0  0  0  0
   -2.8583   39.7639   24.3995 C   0  0  0  0  0  0  0  0  0  0  0  0
   -0.9465   38.7146   23.2736 C   0  0  0  0  0  0  0  0  0  0  0  0
  2  1  1  0
  2 15  1  0
 15 16  1  0
 16 17  1  0
 16 18  1  0
 16 19  1  0
 19 20  1  0
 20 21  1  0
 20 22  1  0
 20 23  1  0
 23 24  1  0
 24 25  1  0
 24 26  1  0
 24 27  1  0
  2  3  1  0
  3  4  1  0
  4  5  2  0
  6  4  1  0
  6  7  1  0
  7  8  1  0
  8  9  1  0
 10  9  1  0
 10 11  1  0
 10 12  1  0
 12 13  1  0
 13 14  2  0
 13  3  1  0
 12  6  1  0
 11  7  1  0
M  CHG 1  16   1
M  CHG 1  20   1
M  CHG 1  24   1
M  END
> <minimizedAffinity>
-3.96692

> <CNNscore>
0.2541140020

> <CNNaffinity>
4.4374670982

> <CNN_VS>
1.1276224852

> <CNNaffinity_variance>
0.4932317436

$$$$
