


 37 39  0  0  0  0  0  0  0  0999 V2000
   44.7818   14.2614    1.4485 C   0  0  0  0  0  0  0  0  0  0  0  0
   44.6152   15.5119    2.0171 C   0  0  0  0  0  0  0  0  0  0  0  0
   44.0259   16.6320    0.8527 S   0  0  0  0  0  0  0  0  0  0  0  0
   44.0547   15.4775   -0.4146 C   0  0  0  0  0  0  0  0  0  0  0  0
   44.4913   14.2568    0.0537 C   0  0  0  0  0  0  0  0  0  0  0  0
   44.7338   12.7100   -1.0179 Br  0  0  0  0  0  0  0  0  0  0  0  0
   43.6321   15.8883   -1.7569 C   0  0  0  0  0  0  0  0  0  0  0  0
   44.5558   15.9471   -2.8018 C   0  0  0  0  0  0  0  0  0  0  0  0
   44.1373   16.3128   -4.0781 C   0  0  0  0  0  0  0  0  0  0  0  0
   42.7945   16.6289   -4.3180 C   0  0  0  0  0  0  0  0  0  0  0  0
   41.8475   16.6194   -3.2937 C   0  0  0  0  0  0  0  0  0  0  0  0
   42.2901   16.2191   -2.0195 C   0  0  0  0  0  0  0  0  0  0  0  0
   40.4915   16.8557   -3.4631 N   0  0  0  0  0  0  0  0  0  0  0  0
   40.2255   17.8004   -3.5410 H   0  0  0  0  0  0  0  0  0  0  0  0
   39.4056   15.8760   -3.5406 C   0  0  0  0  0  0  0  0  0  0  0  0
   38.2585   16.1874   -2.5675 C   0  0  0  0  0  0  0  0  0  0  0  0
   37.3400   14.9771   -2.2560 C   0  0  0  0  0  0  0  0  0  0  0  0
   35.8899   15.4854   -2.0943 C   0  0  0  0  0  0  0  0  0  0  0  0
   37.7396   14.3272   -0.9188 C   0  0  0  0  0  0  0  0  0  0  0  0
   37.3650   13.9502   -3.4140 C   0  0  0  0  0  0  0  0  0  0  0  0
   38.7648   13.4258   -3.8428 C   0  0  0  0  0  0  0  0  0  0  0  0
   38.7394   13.1844   -5.3707 C   0  0  0  0  0  0  0  0  0  0  0  0
   39.0668   12.0675   -3.1801 C   0  0  0  0  0  0  0  0  0  0  0  0
   39.8952   14.4285   -3.5014 C   0  0  0  0  0  0  0  0  0  0  0  0
   44.8434   16.0008    3.3578 C   0  0  0  0  0  0  0  0  0  0  0  0
   45.0047   15.3542    4.3844 O   0  0  0  0  0  0  0  0  0  0  0  0
   44.8868   17.3495    3.4270 O   0  0  0  0  0  0  0  0  0  0  0  0
   44.7656   17.8625    2.6523 H   0  0  0  0  0  0  0  0  0  0  0  0
   45.2608   13.1976    2.1426 O   0  0  0  0  0  0  0  0  0  0  0  0
   46.6784   13.0558    1.9806 C   0  0  0  0  0  0  0  0  0  0  0  0
   47.1183   11.6979    2.5412 C   0  0  0  0  0  0  0  0  0  0  0  0
   47.3295   10.5249    1.5370 C   0  0  0  0  0  0  0  0  0  0  0  0
   48.2084   11.0629    0.3785 C   0  0  0  0  0  0  0  0  0  0  0  0
   46.0169   10.0186    0.9159 C   0  0  0  0  0  0  0  0  0  0  0  0
   48.1225    9.3437    2.1741 C   0  0  0  0  0  0  0  0  0  0  0  0
   47.5361    6.9057    2.3976 C   0  0  0  0  0  0  0  0  0  0  0  0
   48.0447    7.9923    1.4602 C   0  0  0  0  0  0  0  0  0  0  0  0
 36 37  1  0
 37 35  1  0
 35 32  1  0
 32 33  1  0
 32 34  1  0
 32 31  1  0
 31 30  1  0
 30 29  1  0
 29  1  1  0
  1  2  2  0
  2 25  1  0
 25 26  2  0
 25 27  1  0
  2  3  1  0
  3  4  1  0
  4  7  1  0
  7  8  2  0
  8  9  1  0
  9 10  2  0
 10 11  1  0
 11 13  1  0
 13 15  1  0
 15 16  1  0
 16 17  1  0
 17 18  1  0
 17 19  1  0
 17 20  1  0
 20 21  1  0
 21 22  1  0
 21 23  1  0
 21 24  1  0
 11 12  2  0
  4  5  2  0
  5  6  1  0
  5  1  1  0
 12  7  1  0
 24 15  1  0
 27 28  1  0
 13 14  1  0
M  END
> <minimizedAffinity>
-7.03856

> <CNNscore>
0.4141412377

> <CNNaffinity>
6.5642600060

> <CNN_VS>
2.7185306549

> <CNNaffinity_variance>
0.1093531325

$$$$



 37 39  0  0  0  0  0  0  0  0999 V2000
   44.8591   14.1300    1.4810 C   0  0  0  0  0  0  0  0  0  0  0  0
   44.7753   15.3024    2.2112 C   0  0  0  0  0  0  0  0  0  0  0  0
   44.1532   16.5772    1.2388 S   0  0  0  0  0  0  0  0  0  0  0  0
   44.0579   15.5925   -0.1615 C   0  0  0  0  0  0  0  0  0  0  0  0
   44.4790   14.3105    0.1198 C   0  0  0  0  0  0  0  0  0  0  0  0
   44.5950   12.9060   -1.1504 Br  0  0  0  0  0  0  0  0  0  0  0  0
   43.5646   16.1820   -1.4099 C   0  0  0  0  0  0  0  0  0  0  0  0
   42.2990   15.8503   -1.8965 C   0  0  0  0  0  0  0  0  0  0  0  0
   41.8309   16.4371   -3.0689 C   0  0  0  0  0  0  0  0  0  0  0  0
   42.6263   17.3540   -3.7668 C   0  0  0  0  0  0  0  0  0  0  0  0
   43.9113   17.6834   -3.3351 C   0  0  0  0  0  0  0  0  0  0  0  0
   44.3497   17.0987   -2.1327 C   0  0  0  0  0  0  0  0  0  0  0  0
   44.7324   18.6279   -3.9325 N   0  0  0  0  0  0  0  0  0  0  0  0
   44.3862   19.5493   -3.9514 H   0  0  0  0  0  0  0  0  0  0  0  0
   46.0503   18.4263   -4.5390 C   0  0  0  0  0  0  0  0  0  0  0  0
   46.2455   16.9967   -5.0661 C   0  0  0  0  0  0  0  0  0  0  0  0
   47.7280   16.5887   -5.2691 C   0  0  0  0  0  0  0  0  0  0  0  0
   47.8239   15.6757   -6.5120 C   0  0  0  0  0  0  0  0  0  0  0  0
   48.2301   15.7665   -4.0683 C   0  0  0  0  0  0  0  0  0  0  0  0
   48.6163   17.8324   -5.5145 C   0  0  0  0  0  0  0  0  0  0  0  0
   48.5433   18.9564   -4.4422 C   0  0  0  0  0  0  0  0  0  0  0  0
   48.7110   20.3163   -5.1604 C   0  0  0  0  0  0  0  0  0  0  0  0
   49.7077   18.8330   -3.4401 C   0  0  0  0  0  0  0  0  0  0  0  0
   47.1984   18.9455   -3.6736 C   0  0  0  0  0  0  0  0  0  0  0  0
   45.1075   15.6107    3.5835 C   0  0  0  0  0  0  0  0  0  0  0  0
   44.4146   16.1660    4.4258 O   0  0  0  0  0  0  0  0  0  0  0  0
   46.3474   15.2011    3.9308 O   0  0  0  0  0  0  0  0  0  0  0  0
   46.8934   14.7740    3.3003 H   0  0  0  0  0  0  0  0  0  0  0  0
   45.3428   12.9737    2.0024 O   0  0  0  0  0  0  0  0  0  0  0  0
   46.7313   12.7943    1.6926 C   0  0  0  0  0  0  0  0  0  0  0  0
   47.2317   11.4994    2.3441 C   0  0  0  0  0  0  0  0  0  0  0  0
   47.3838   10.2374    1.4421 C   0  0  0  0  0  0  0  0  0  0  0  0
   48.4296   10.5760    0.3487 C   0  0  0  0  0  0  0  0  0  0  0  0
   46.0812    9.8497    0.7224 C   0  0  0  0  0  0  0  0  0  0  0  0
   47.9549    9.0195    2.2300 C   0  0  0  0  0  0  0  0  0  0  0  0
   49.4075    7.1108    1.4655 C   0  0  0  0  0  0  0  0  0  0  0  0
   47.9945    7.6771    1.4964 C   0  0  0  0  0  0  0  0  0  0  0  0
 36 37  1  0
 37 35  1  0
 35 32  1  0
 32 33  1  0
 32 34  1  0
 32 31  1  0
 31 30  1  0
 30 29  1  0
 29  1  1  0
  1  2  2  0
  2 25  1  0
 25 26  2  0
 25 27  1  0
  2  3  1  0
  3  4  1  0
  4  7  1  0
  7  8  2  0
  8  9  1  0
  9 10  2  0
 10 11  1  0
 11 13  1  0
 13 15  1  0
 15 16  1  0
 16 17  1  0
 17 18  1  0
 17 19  1  0
 17 20  1  0
 20 21  1  0
 21 22  1  0
 21 23  1  0
 21 24  1  0
 11 12  2  0
  4  5  2  0
  5  6  1  0
  5  1  1  0
 12  7  1  0
 24 15  1  0
 27 28  1  0
 13 14  1  0
M  END
> <minimizedAffinity>
-6.79197

> <CNNscore>
0.3146044612

> <CNNaffinity>
6.3244032860

> <CNN_VS>
1.9896855354

> <CNNaffinity_variance>
0.0462477505

$$$$



 37 39  0  0  0  0  0  0  0  0999 V2000
   44.9871   14.2465    1.2835 C   0  0  0  0  0  0  0  0  0  0  0  0
   45.6219   14.6151    2.4566 C   0  0  0  0  0  0  0  0  0  0  0  0
   46.8789   13.5052    2.8383 S   0  0  0  0  0  0  0  0  0  0  0  0
   46.5379   12.5054    1.4879 C   0  0  0  0  0  0  0  0  0  0  0  0
   45.4932   13.0246    0.7538 C   0  0  0  0  0  0  0  0  0  0  0  0
   44.7451   12.2121   -0.7889 Br  0  0  0  0  0  0  0  0  0  0  0  0
   47.3462   11.3006    1.2764 C   0  0  0  0  0  0  0  0  0  0  0  0
   48.2463   11.2313    0.2117 C   0  0  0  0  0  0  0  0  0  0  0  0
   49.0276   10.0925    0.0369 C   0  0  0  0  0  0  0  0  0  0  0  0
   48.9104    9.0125    0.9203 C   0  0  0  0  0  0  0  0  0  0  0  0
   47.9962    9.0265    1.9739 C   0  0  0  0  0  0  0  0  0  0  0  0
   47.2389   10.1998    2.1459 C   0  0  0  0  0  0  0  0  0  0  0  0
   47.8668    8.0273    2.9269 N   0  0  0  0  0  0  0  0  0  0  0  0
   47.0054    7.9949    3.4025 H   0  0  0  0  0  0  0  0  0  0  0  0
   48.8510    7.0143    3.3145 C   0  0  0  0  0  0  0  0  0  0  0  0
   50.2137    7.6234    3.6779 C   0  0  0  0  0  0  0  0  0  0  0  0
   51.3952    6.6199    3.6254 C   0  0  0  0  0  0  0  0  0  0  0  0
   52.3906    6.9686    4.7546 C   0  0  0  0  0  0  0  0  0  0  0  0
   52.1591    6.7557    2.2958 C   0  0  0  0  0  0  0  0  0  0  0  0
   50.9010    5.1701    3.8486 C   0  0  0  0  0  0  0  0  0  0  0  0
   49.7715    4.6715    2.9030 C   0  0  0  0  0  0  0  0  0  0  0  0
   48.8594    3.7154    3.7075 C   0  0  0  0  0  0  0  0  0  0  0  0
   50.3570    3.8541    1.7350 C   0  0  0  0  0  0  0  0  0  0  0  0
   48.9215    5.8381    2.3408 C   0  0  0  0  0  0  0  0  0  0  0  0
   45.4106   15.7216    3.3619 C   0  0  0  0  0  0  0  0  0  0  0  0
   44.6847   15.7690    4.3463 O   0  0  0  0  0  0  0  0  0  0  0  0
   46.1406   16.8123    3.0410 O   0  0  0  0  0  0  0  0  0  0  0  0
   46.7024   16.7961    2.2912 H   0  0  0  0  0  0  0  0  0  0  0  0
   43.9389   14.9381    0.7678 O   0  0  0  0  0  0  0  0  0  0  0  0
   44.0155   15.0259   -0.6613 C   0  0  0  0  0  0  0  0  0  0  0  0
   43.7063   16.4634   -1.0970 C   0  0  0  0  0  0  0  0  0  0  0  0
   44.0495   16.8746   -2.5607 C   0  0  0  0  0  0  0  0  0  0  0  0
   42.7215   16.8808   -3.3609 C   0  0  0  0  0  0  0  0  0  0  0  0
   44.9976   15.8853   -3.2587 C   0  0  0  0  0  0  0  0  0  0  0  0
   44.6162   18.3244   -2.6443 C   0  0  0  0  0  0  0  0  0  0  0  0
   45.0701   19.3023   -4.9193 C   0  0  0  0  0  0  0  0  0  0  0  0
   45.6755   18.5932   -3.7156 C   0  0  0  0  0  0  0  0  0  0  0  0
 36 37  1  0
 37 35  1  0
 35 32  1  0
 32 33  1  0
 32 34  1  0
 32 31  1  0
 31 30  1  0
 30 29  1  0
 29  1  1  0
  1  2  2  0
  2 25  1  0
 25 26  2  0
 25 27  1  0
  2  3  1  0
  3  4  1  0
  4  7  1  0
  7  8  2  0
  8  9  1  0
  9 10  2  0
 10 11  1  0
 11 13  1  0
 13 15  1  0
 15 16  1  0
 16 17  1  0
 17 18  1  0
 17 19  1  0
 17 20  1  0
 20 21  1  0
 21 22  1  0
 21 23  1  0
 21 24  1  0
 11 12  2  0
  4  5  2  0
  5  6  1  0
  5  1  1  0
 12  7  1  0
 24 15  1  0
 27 28  1  0
 13 14  1  0
M  END
> <minimizedAffinity>
-7.22741

> <CNNscore>
0.2572366595

> <CNNaffinity>
6.4557547569

> <CNN_VS>
1.6606568098

> <CNNaffinity_variance>
0.1555408537

$$$$



 37 39  0  0  0  0  0  0  0  0999 V2000
   50.8262    5.6676    4.4590 C   0  0  0  0  0  0  0  0  0  0  0  0
   52.0410    6.3056    4.6386 C   0  0  0  0  0  0  0  0  0  0  0  0
   53.2700    5.1673    5.0278 S   0  0  0  0  0  0  0  0  0  0  0  0
   52.1805    3.8435    5.0220 C   0  0  0  0  0  0  0  0  0  0  0  0
   50.9064    4.2676    4.7111 C   0  0  0  0  0  0  0  0  0  0  0  0
   49.3768    3.1468    4.6505 Br  0  0  0  0  0  0  0  0  0  0  0  0
   52.6935    2.5024    5.3182 C   0  0  0  0  0  0  0  0  0  0  0  0
   52.1910    1.7762    6.3992 C   0  0  0  0  0  0  0  0  0  0  0  0
   52.6671    0.4932    6.6544 C   0  0  0  0  0  0  0  0  0  0  0  0
   53.6530   -0.0707    5.8356 C   0  0  0  0  0  0  0  0  0  0  0  0
   54.2085    0.6359    4.7687 C   0  0  0  0  0  0  0  0  0  0  0  0
   53.6903    1.9192    4.5147 C   0  0  0  0  0  0  0  0  0  0  0  0
   55.1382    0.1250    3.8754 N   0  0  0  0  0  0  0  0  0  0  0  0
   55.4570   -0.7878    4.0609 H   0  0  0  0  0  0  0  0  0  0  0  0
   55.7050    0.7731    2.6906 C   0  0  0  0  0  0  0  0  0  0  0  0
   56.6259    1.9504    3.0451 C   0  0  0  0  0  0  0  0  0  0  0  0
   56.8616    2.9486    1.8816 C   0  0  0  0  0  0  0  0  0  0  0  0
   58.3143    3.4689    1.9630 C   0  0  0  0  0  0  0  0  0  0  0  0
   55.9380    4.1718    2.0252 C   0  0  0  0  0  0  0  0  0  0  0  0
   56.6736    2.2554    0.5104 C   0  0  0  0  0  0  0  0  0  0  0  0
   55.3188    1.5261    0.2845 C   0  0  0  0  0  0  0  0  0  0  0  0
   55.5852    0.2799   -0.5927 C   0  0  0  0  0  0  0  0  0  0  0  0
   54.3387    2.4224   -0.4973 C   0  0  0  0  0  0  0  0  0  0  0  0
   54.6629    1.0842    1.6165 C   0  0  0  0  0  0  0  0  0  0  0  0
   52.4220    7.6972    4.5557 C   0  0  0  0  0  0  0  0  0  0  0  0
   53.1640    8.3265    5.2982 O   0  0  0  0  0  0  0  0  0  0  0  0
   51.8699    8.3330    3.4991 O   0  0  0  0  0  0  0  0  0  0  0  0
   51.2992    7.8688    2.9188 H   0  0  0  0  0  0  0  0  0  0  0  0
   49.6816    6.3372    4.1686 O   0  0  0  0  0  0  0  0  0  0  0  0
   49.3718    6.2727    2.7701 C   0  0  0  0  0  0  0  0  0  0  0  0
   48.0311    6.9725    2.5162 C   0  0  0  0  0  0  0  0  0  0  0  0
   48.0196    8.2118    1.5710 C   0  0  0  0  0  0  0  0  0  0  0  0
   46.9532    7.9471    0.4772 C   0  0  0  0  0  0  0  0  0  0  0  0
   49.3616    8.4364    0.8543 C   0  0  0  0  0  0  0  0  0  0  0  0
   47.5729    9.5090    2.3112 C   0  0  0  0  0  0  0  0  0  0  0  0
   46.6775   11.8572    2.1631 C   0  0  0  0  0  0  0  0  0  0  0  0
   47.5403   10.7992    1.4890 C   0  0  0  0  0  0  0  0  0  0  0  0
 36 37  1  0
 37 35  1  0
 35 32  1  0
 32 33  1  0
 32 34  1  0
 32 31  1  0
 31 30  1  0
 30 29  1  0
 29  1  1  0
  1  2  2  0
  2 25  1  0
 25 26  2  0
 25 27  1  0
  2  3  1  0
  3  4  1  0
  4  7  1  0
  7  8  2  0
  8  9  1  0
  9 10  2  0
 10 11  1  0
 11 13  1  0
 13 15  1  0
 15 16  1  0
 16 17  1  0
 17 18  1  0
 17 19  1  0
 17 20  1  0
 20 21  1  0
 21 22  1  0
 21 23  1  0
 21 24  1  0
 11 12  2  0
  4  5  2  0
  5  6  1  0
  5  1  1  0
 12  7  1  0
 24 15  1  0
 27 28  1  0
 13 14  1  0
M  END
> <minimizedAffinity>
-6.44851

> <CNNscore>
0.2558322847

> <CNNaffinity>
5.5717773438

> <CNN_VS>
1.4254405499

> <CNNaffinity_variance>
0.3347546756

$$$$



 37 39  0  0  0  0  0  0  0  0999 V2000
   51.7672    7.2170    2.2543 C   0  0  0  0  0  0  0  0  0  0  0  0
   51.4921    7.6726    3.5317 C   0  0  0  0  0  0  0  0  0  0  0  0
   49.8912    8.2949    3.6198 S   0  0  0  0  0  0  0  0  0  0  0  0
   49.5894    8.0204    1.9545 C   0  0  0  0  0  0  0  0  0  0  0  0
   50.6891    7.4482    1.3520 C   0  0  0  0  0  0  0  0  0  0  0  0
   50.8165    7.0288   -0.4939 Br  0  0  0  0  0  0  0  0  0  0  0  0
   48.2834    8.3907    1.4008 C   0  0  0  0  0  0  0  0  0  0  0  0
   47.3656    7.4048    1.0347 C   0  0  0  0  0  0  0  0  0  0  0  0
   46.1183    7.7691    0.5351 C   0  0  0  0  0  0  0  0  0  0  0  0
   45.7819    9.1207    0.3914 C   0  0  0  0  0  0  0  0  0  0  0  0
   46.6842   10.1359    0.7096 C   0  0  0  0  0  0  0  0  0  0  0  0
   47.9269    9.7420    1.2391 C   0  0  0  0  0  0  0  0  0  0  0  0
   46.4040   11.4931    0.6572 N   0  0  0  0  0  0  0  0  0  0  0  0
   46.2697   11.9389    1.5246 H   0  0  0  0  0  0  0  0  0  0  0  0
   46.2829   12.3464   -0.5270 C   0  0  0  0  0  0  0  0  0  0  0  0
   44.9164   13.0425   -0.6162 C   0  0  0  0  0  0  0  0  0  0  0  0
   44.5515   13.5521   -2.0349 C   0  0  0  0  0  0  0  0  0  0  0  0
   43.7696   14.8778   -1.8984 C   0  0  0  0  0  0  0  0  0  0  0  0
   43.6197   12.5523   -2.7436 C   0  0  0  0  0  0  0  0  0  0  0  0
   45.8258   13.8273   -2.8694 C   0  0  0  0  0  0  0  0  0  0  0  0
   46.8350   12.6512   -2.9984 C   0  0  0  0  0  0  0  0  0  0  0  0
   48.2625   13.2462   -3.0388 C   0  0  0  0  0  0  0  0  0  0  0  0
   46.6276   11.8954   -4.3254 C   0  0  0  0  0  0  0  0  0  0  0  0
   46.7282   11.6561   -1.8161 C   0  0  0  0  0  0  0  0  0  0  0  0
   52.2890    7.7070    4.7368 C   0  0  0  0  0  0  0  0  0  0  0  0
   52.5275    6.7934    5.5154 O   0  0  0  0  0  0  0  0  0  0  0  0
   52.8243    8.9235    4.9803 O   0  0  0  0  0  0  0  0  0  0  0  0
   52.6536    9.6359    4.3961 H   0  0  0  0  0  0  0  0  0  0  0  0
   52.9720    6.6987    1.9038 O   0  0  0  0  0  0  0  0  0  0  0  0
   52.9382    5.2659    1.8592 C   0  0  0  0  0  0  0  0  0  0  0  0
   53.8271    4.7040    2.9754 C   0  0  0  0  0  0  0  0  0  0  0  0
   53.2354    3.5912    3.8923 C   0  0  0  0  0  0  0  0  0  0  0  0
   53.7415    3.8633    5.3323 C   0  0  0  0  0  0  0  0  0  0  0  0
   53.7025    2.1783    3.5044 C   0  0  0  0  0  0  0  0  0  0  0  0
   51.6791    3.6522    3.9579 C   0  0  0  0  0  0  0  0  0  0  0  0
   50.4225    2.1732    5.5615 C   0  0  0  0  0  0  0  0  0  0  0  0
   50.9409    2.3238    4.1379 C   0  0  0  0  0  0  0  0  0  0  0  0
 36 37  1  0
 37 35  1  0
 35 32  1  0
 32 33  1  0
 32 34  1  0
 32 31  1  0
 31 30  1  0
 30 29  1  0
 29  1  1  0
  1  2  2  0
  2 25  1  0
 25 26  2  0
 25 27  1  0
  2  3  1  0
  3  4  1  0
  4  7  1  0
  7  8  2  0
  8  9  1  0
  9 10  2  0
 10 11  1  0
 11 13  1  0
 13 15  1  0
 15 16  1  0
 16 17  1  0
 17 18  1  0
 17 19  1  0
 17 20  1  0
 20 21  1  0
 21 22  1  0
 21 23  1  0
 21 24  1  0
 11 12  2  0
  4  5  2  0
  5  6  1  0
  5  1  1  0
 12  7  1  0
 24 15  1  0
 27 28  1  0
 13 14  1  0
M  END
> <minimizedAffinity>
-6.03576

> <CNNscore>
0.2163937539

> <CNNaffinity>
5.4559741020

> <CNN_VS>
1.1806386709

> <CNNaffinity_variance>
0.4285047352

$$$$



 37 39  0  0  0  0  0  0  0  0999 V2000
   44.9362   14.0481    1.4036 C   0  0  0  0  0  0  0  0  0  0  0  0
   44.8691   15.2036    2.1621 C   0  0  0  0  0  0  0  0  0  0  0  0
   44.2465   16.5055    1.2266 S   0  0  0  0  0  0  0  0  0  0  0  0
   44.1289   15.5547   -0.1953 C   0  0  0  0  0  0  0  0  0  0  0  0
   44.5431   14.2634    0.0512 C   0  0  0  0  0  0  0  0  0  0  0  0
   44.6349   12.8883   -1.2527 Br  0  0  0  0  0  0  0  0  0  0  0  0
   43.6269   16.1771   -1.4242 C   0  0  0  0  0  0  0  0  0  0  0  0
   44.3429   17.2056   -2.0390 C   0  0  0  0  0  0  0  0  0  0  0  0
   43.8698   17.7705   -3.2201 C   0  0  0  0  0  0  0  0  0  0  0  0
   42.6748   17.3166   -3.7914 C   0  0  0  0  0  0  0  0  0  0  0  0
   41.9100   16.3177   -3.1886 C   0  0  0  0  0  0  0  0  0  0  0  0
   42.4242   15.7437   -2.0114 C   0  0  0  0  0  0  0  0  0  0  0  0
   40.7536   15.7705   -3.7238 N   0  0  0  0  0  0  0  0  0  0  0  0
   40.5693   15.9900   -4.6657 H   0  0  0  0  0  0  0  0  0  0  0  0
   39.7721   14.9069   -3.0635 C   0  0  0  0  0  0  0  0  0  0  0  0
   39.7380   13.4903   -3.6565 C   0  0  0  0  0  0  0  0  0  0  0  0
   38.4380   12.7017   -3.3504 C   0  0  0  0  0  0  0  0  0  0  0  0
   38.7983   11.2125   -3.1509 C   0  0  0  0  0  0  0  0  0  0  0  0
   37.4702   12.7732   -4.5455 C   0  0  0  0  0  0  0  0  0  0  0  0
   37.7716   13.2152   -2.0511 C   0  0  0  0  0  0  0  0  0  0  0  0
   37.4663   14.7387   -1.9862 C   0  0  0  0  0  0  0  0  0  0  0  0
   37.6525   15.2034   -0.5224 C   0  0  0  0  0  0  0  0  0  0  0  0
   35.9979   15.0188   -2.3612 C   0  0  0  0  0  0  0  0  0  0  0  0
   38.3999   15.5624   -2.9078 C   0  0  0  0  0  0  0  0  0  0  0  0
   45.2181   15.4770    3.5375 C   0  0  0  0  0  0  0  0  0  0  0  0
   44.4886   15.8532    4.4454 O   0  0  0  0  0  0  0  0  0  0  0  0
   46.5255   15.2621    3.8026 O   0  0  0  0  0  0  0  0  0  0  0  0
   47.1005   14.9739    3.1211 H   0  0  0  0  0  0  0  0  0  0  0  0
   45.4165   12.8763    1.8926 O   0  0  0  0  0  0  0  0  0  0  0  0
   46.8502   12.8501    1.8887 C   0  0  0  0  0  0  0  0  0  0  0  0
   47.3372   11.9882    0.7176 C   0  0  0  0  0  0  0  0  0  0  0  0
   47.1295   10.4461    0.8074 C   0  0  0  0  0  0  0  0  0  0  0  0
   48.0318    9.7960   -0.2728 C   0  0  0  0  0  0  0  0  0  0  0  0
   45.6831   10.0141    0.5134 C   0  0  0  0  0  0  0  0  0  0  0  0
   47.6032    9.8699    2.1763 C   0  0  0  0  0  0  0  0  0  0  0  0
   49.0792    8.2481    3.4126 C   0  0  0  0  0  0  0  0  0  0  0  0
   48.2504    8.4833    2.1573 C   0  0  0  0  0  0  0  0  0  0  0  0
 36 37  1  0
 37 35  1  0
 35 32  1  0
 32 33  1  0
 32 34  1  0
 32 31  1  0
 31 30  1  0
 30 29  1  0
 29  1  1  0
  1  2  2  0
  2 25  1  0
 25 26  2  0
 25 27  1  0
  2  3  1  0
  3  4  1  0
  4  7  1  0
  7  8  2  0
  8  9  1  0
  9 10  2  0
 10 11  1  0
 11 13  1  0
 13 15  1  0
 15 16  1  0
 16 17  1  0
 17 18  1  0
 17 19  1  0
 17 20  1  0
 20 21  1  0
 21 22  1  0
 21 23  1  0
 21 24  1  0
 11 12  2  0
  4  5  2  0
  5  6  1  0
  5  1  1  0
 12  7  1  0
 24 15  1  0
 27 28  1  0
 13 14  1  0
M  END
> <minimizedAffinity>
-7.01990

> <CNNscore>
0.2040471286

> <CNNaffinity>
6.1333899498

> <CNN_VS>
1.2515006065

> <CNNaffinity_variance>
0.2835917771

$$$$



 37 39  0  0  0  0  0  0  0  0999 V2000
   50.0536    5.5050    3.4227 C   0  0  0  0  0  0  0  0  0  0  0  0
   50.7693    6.5051    4.0571 C   0  0  0  0  0  0  0  0  0  0  0  0
   50.0939    8.0474    3.7065 S   0  0  0  0  0  0  0  0  0  0  0  0
   48.8982    7.3945    2.6656 C   0  0  0  0  0  0  0  0  0  0  0  0
   49.0078    6.0219    2.6047 C   0  0  0  0  0  0  0  0  0  0  0  0
   47.9255    4.8961    1.5273 Br  0  0  0  0  0  0  0  0  0  0  0  0
   47.9543    8.3058    2.0113 C   0  0  0  0  0  0  0  0  0  0  0  0
   47.8777    9.6439    2.4017 C   0  0  0  0  0  0  0  0  0  0  0  0
   46.9966   10.5059    1.7549 C   0  0  0  0  0  0  0  0  0  0  0  0
   46.1812   10.0358    0.7182 C   0  0  0  0  0  0  0  0  0  0  0  0
   46.1997    8.6979    0.3236 C   0  0  0  0  0  0  0  0  0  0  0  0
   47.1189    7.8538    0.9736 C   0  0  0  0  0  0  0  0  0  0  0  0
   45.4730    8.1713   -0.7337 N   0  0  0  0  0  0  0  0  0  0  0  0
   45.5460    7.1981   -0.8638 H   0  0  0  0  0  0  0  0  0  0  0  0
   44.6107    8.8813   -1.6809 C   0  0  0  0  0  0  0  0  0  0  0  0
   43.1604    8.3760   -1.6527 C   0  0  0  0  0  0  0  0  0  0  0  0
   42.3377    8.7273   -2.9198 C   0  0  0  0  0  0  0  0  0  0  0  0
   40.8800    9.0183   -2.4981 C   0  0  0  0  0  0  0  0  0  0  0  0
   42.2952    7.5283   -3.8844 C   0  0  0  0  0  0  0  0  0  0  0  0
   42.9009    9.9916   -3.6130 C   0  0  0  0  0  0  0  0  0  0  0  0
   44.4113    9.9626   -3.9823 C   0  0  0  0  0  0  0  0  0  0  0  0
   44.9719   11.3956   -3.8224 C   0  0  0  0  0  0  0  0  0  0  0  0
   44.6058    9.5683   -5.4595 C   0  0  0  0  0  0  0  0  0  0  0  0
   45.2159    8.9941   -3.0801 C   0  0  0  0  0  0  0  0  0  0  0  0
   51.9282    6.4642    4.9195 C   0  0  0  0  0  0  0  0  0  0  0  0
   52.1818    5.6672    5.8130 O   0  0  0  0  0  0  0  0  0  0  0  0
   52.8178    7.4460    4.6541 O   0  0  0  0  0  0  0  0  0  0  0  0
   52.6422    8.0661    3.9740 H   0  0  0  0  0  0  0  0  0  0  0  0
   50.3903    4.1929    3.5107 O   0  0  0  0  0  0  0  0  0  0  0  0
   49.7587    3.5592    4.6312 C   0  0  0  0  0  0  0  0  0  0  0  0
   48.9457    2.3555    4.1395 C   0  0  0  0  0  0  0  0  0  0  0  0
   48.9836    1.0498    4.9897 C   0  0  0  0  0  0  0  0  0  0  0  0
   47.6408    0.3102    4.7584 C   0  0  0  0  0  0  0  0  0  0  0  0
   49.1029    1.3163    6.4996 C   0  0  0  0  0  0  0  0  0  0  0  0
   50.1054    0.0756    4.5177 C   0  0  0  0  0  0  0  0  0  0  0  0
   52.0543    0.6914    3.0480 C   0  0  0  0  0  0  0  0  0  0  0  0
   51.5314    0.6293    4.4765 C   0  0  0  0  0  0  0  0  0  0  0  0
 36 37  1  0
 37 35  1  0
 35 32  1  0
 32 33  1  0
 32 34  1  0
 32 31  1  0
 31 30  1  0
 30 29  1  0
 29  1  1  0
  1  2  2  0
  2 25  1  0
 25 26  2  0
 25 27  1  0
  2  3  1  0
  3  4  1  0
  4  7  1  0
  7  8  2  0
  8  9  1  0
  9 10  2  0
 10 11  1  0
 11 13  1  0
 13 15  1  0
 15 16  1  0
 16 17  1  0
 17 18  1  0
 17 19  1  0
 17 20  1  0
 20 21  1  0
 21 22  1  0
 21 23  1  0
 21 24  1  0
 11 12  2  0
  4  5  2  0
  5  6  1  0
  5  1  1  0
 12  7  1  0
 24 15  1  0
 27 28  1  0
 13 14  1  0
M  END
> <minimizedAffinity>
-5.73688

> <CNNscore>
0.1951245368

> <CNNaffinity>
5.8393330574

> <CNN_VS>
1.1393971443

> <CNNaffinity_variance>
0.0781812146

$$$$



 37 39  0  0  0  0  0  0  0  0999 V2000
   45.2712   10.7019    0.3898 C   0  0  0  0  0  0  0  0  0  0  0  0
   44.9822    9.5692   -0.3506 C   0  0  0  0  0  0  0  0  0  0  0  0
   46.1034    8.3138    0.0023 S   0  0  0  0  0  0  0  0  0  0  0  0
   47.0059    9.2919    1.0833 C   0  0  0  0  0  0  0  0  0  0  0  0
   46.4459   10.5475    1.1812 C   0  0  0  0  0  0  0  0  0  0  0  0
   47.1518   11.9699    2.2195 Br  0  0  0  0  0  0  0  0  0  0  0  0
   48.1833    8.7187    1.7426 C   0  0  0  0  0  0  0  0  0  0  0  0
   48.1725    8.4676    3.1157 C   0  0  0  0  0  0  0  0  0  0  0  0
   49.2868    7.8983    3.7256 C   0  0  0  0  0  0  0  0  0  0  0  0
   50.4221    7.5821    2.9695 C   0  0  0  0  0  0  0  0  0  0  0  0
   50.4877    7.8521    1.6024 C   0  0  0  0  0  0  0  0  0  0  0  0
   49.3384    8.4012    1.0048 C   0  0  0  0  0  0  0  0  0  0  0  0
   51.5469    7.5103    0.7751 N   0  0  0  0  0  0  0  0  0  0  0  0
   51.9039    8.2343    0.2114 H   0  0  0  0  0  0  0  0  0  0  0  0
   52.2010    6.2074    0.6348 C   0  0  0  0  0  0  0  0  0  0  0  0
   51.2003    5.0669    0.3950 C   0  0  0  0  0  0  0  0  0  0  0  0
   51.7551    3.6540    0.7136 C   0  0  0  0  0  0  0  0  0  0  0  0
   51.1649    2.6502   -0.3020 C   0  0  0  0  0  0  0  0  0  0  0  0
   51.2992    3.1986    2.1117 C   0  0  0  0  0  0  0  0  0  0  0  0
   53.2972    3.6220    0.5830 C   0  0  0  0  0  0  0  0  0  0  0  0
   54.0835    4.6739    1.4158 C   0  0  0  0  0  0  0  0  0  0  0  0
   55.3311    5.0941    0.6032 C   0  0  0  0  0  0  0  0  0  0  0  0
   54.5941    4.0581    2.7332 C   0  0  0  0  0  0  0  0  0  0  0  0
   53.2304    5.9282    1.7298 C   0  0  0  0  0  0  0  0  0  0  0  0
   43.9469    9.2869   -1.3186 C   0  0  0  0  0  0  0  0  0  0  0  0
   43.6822    9.8963   -2.3465 O   0  0  0  0  0  0  0  0  0  0  0  0
   43.2165    8.1940   -1.0059 O   0  0  0  0  0  0  0  0  0  0  0  0
   43.4035    7.7137   -0.2234 H   0  0  0  0  0  0  0  0  0  0  0  0
   44.5552   11.8504    0.2837 O   0  0  0  0  0  0  0  0  0  0  0  0
   45.1049   12.7260   -0.7099 C   0  0  0  0  0  0  0  0  0  0  0  0
   44.2773   14.0160   -0.7608 C   0  0  0  0  0  0  0  0  0  0  0  0
   43.9741   14.6367   -2.1580 C   0  0  0  0  0  0  0  0  0  0  0  0
   43.1684   13.5855   -2.9640 C   0  0  0  0  0  0  0  0  0  0  0  0
   45.2439   14.9546   -2.9653 C   0  0  0  0  0  0  0  0  0  0  0  0
   43.0641   15.8981   -2.0538 C   0  0  0  0  0  0  0  0  0  0  0  0
   40.5678   16.0598   -2.3368 C   0  0  0  0  0  0  0  0  0  0  0  0
   41.9100   16.0039   -3.0533 C   0  0  0  0  0  0  0  0  0  0  0  0
 36 37  1  0
 37 35  1  0
 35 32  1  0
 32 33  1  0
 32 34  1  0
 32 31  1  0
 31 30  1  0
 30 29  1  0
 29  1  1  0
  1  2  2  0
  2 25  1  0
 25 26  2  0
 25 27  1  0
  2  3  1  0
  3  4  1  0
  4  7  1  0
  7  8  2  0
  8  9  1  0
  9 10  2  0
 10 11  1  0
 11 13  1  0
 13 15  1  0
 15 16  1  0
 16 17  1  0
 17 18  1  0
 17 19  1  0
 17 20  1  0
 20 21  1  0
 21 22  1  0
 21 23  1  0
 21 24  1  0
 11 12  2  0
  4  5  2  0
  5  6  1  0
  5  1  1  0
 12  7  1  0
 24 15  1  0
 27 28  1  0
 13 14  1  0
M  END
> <minimizedAffinity>
-5.51766

> <CNNscore>
0.1725105643

> <CNNaffinity>
4.8278527260

> <CNN_VS>
0.8328555822

> <CNNaffinity_variance>
0.7677495480

$$$$



 37 39  0  0  0  0  0  0  0  0999 V2000
   44.9011   14.1198    1.5414 C   0  0  0  0  0  0  0  0  0  0  0  0
   44.8374   15.2815    2.2907 C   0  0  0  0  0  0  0  0  0  0  0  0
   44.2557   16.5869    1.3341 S   0  0  0  0  0  0  0  0  0  0  0  0
   44.1517   15.6285   -0.0837 C   0  0  0  0  0  0  0  0  0  0  0  0
   44.5394   14.3323    0.1798 C   0  0  0  0  0  0  0  0  0  0  0  0
   44.6354   12.9470   -1.1131 Br  0  0  0  0  0  0  0  0  0  0  0  0
   43.6854   16.2506   -1.3267 C   0  0  0  0  0  0  0  0  0  0  0  0
   44.4403   17.2496   -1.9436 C   0  0  0  0  0  0  0  0  0  0  0  0
   44.0004   17.8139   -3.1377 C   0  0  0  0  0  0  0  0  0  0  0  0
   42.8002   17.3891   -3.7203 C   0  0  0  0  0  0  0  0  0  0  0  0
   41.9976   16.4209   -3.1164 C   0  0  0  0  0  0  0  0  0  0  0  0
   42.4783   15.8461   -1.9255 C   0  0  0  0  0  0  0  0  0  0  0  0
   40.8327   15.9019   -3.6612 N   0  0  0  0  0  0  0  0  0  0  0  0
   40.5835   16.2440   -4.5501 H   0  0  0  0  0  0  0  0  0  0  0  0
   39.9266   14.9088   -3.0799 C   0  0  0  0  0  0  0  0  0  0  0  0
   40.1094   13.5122   -3.6929 C   0  0  0  0  0  0  0  0  0  0  0  0
   38.9016   12.5615   -3.4854 C   0  0  0  0  0  0  0  0  0  0  0  0
   39.4324   11.1247   -3.2820 C   0  0  0  0  0  0  0  0  0  0  0  0
   38.0122   12.5379   -4.7416 C   0  0  0  0  0  0  0  0  0  0  0  0
   38.0930   12.9597   -2.2269 C   0  0  0  0  0  0  0  0  0  0  0  0
   37.5952   14.4315   -2.1622 C   0  0  0  0  0  0  0  0  0  0  0  0
   37.6261   14.8839   -0.6831 C   0  0  0  0  0  0  0  0  0  0  0  0
   36.1308   14.5349   -2.6313 C   0  0  0  0  0  0  0  0  0  0  0  0
   38.4758   15.3849   -3.0079 C   0  0  0  0  0  0  0  0  0  0  0  0
   45.1626   15.5586    3.6713 C   0  0  0  0  0  0  0  0  0  0  0  0
   46.0949   15.1228    4.3338 O   0  0  0  0  0  0  0  0  0  0  0  0
   44.3024   16.4236    4.2522 O   0  0  0  0  0  0  0  0  0  0  0  0
   43.5823   16.7686    3.7620 H   0  0  0  0  0  0  0  0  0  0  0  0
   45.3519   12.9438    2.0477 O   0  0  0  0  0  0  0  0  0  0  0  0
   46.7616   12.7844    1.8394 C   0  0  0  0  0  0  0  0  0  0  0  0
   47.1174   11.2942    1.9053 C   0  0  0  0  0  0  0  0  0  0  0  0
   47.7954   10.6476    0.6597 C   0  0  0  0  0  0  0  0  0  0  0  0
   46.6691   10.0340   -0.2113 C   0  0  0  0  0  0  0  0  0  0  0  0
   48.7626    9.5083    1.0228 C   0  0  0  0  0  0  0  0  0  0  0  0
   48.5105   11.7061   -0.2337 C   0  0  0  0  0  0  0  0  0  0  0  0
   50.3614   12.3769   -1.8028 C   0  0  0  0  0  0  0  0  0  0  0  0
   49.7007   11.2209   -1.0644 C   0  0  0  0  0  0  0  0  0  0  0  0
 36 37  1  0
 37 35  1  0
 35 32  1  0
 32 33  1  0
 32 34  1  0
 32 31  1  0
 31 30  1  0
 30 29  1  0
 29  1  1  0
  1  2  2  0
  2 25  1  0
 25 26  2  0
 25 27  1  0
  2  3  1  0
  3  4  1  0
  4  7  1  0
  7  8  2  0
  8  9  1  0
  9 10  2  0
 10 11  1  0
 11 13  1  0
 13 15  1  0
 15 16  1  0
 16 17  1  0
 17 18  1  0
 17 19  1  0
 17 20  1  0
 20 21  1  0
 21 22  1  0
 21 23  1  0
 21 24  1  0
 11 12  2  0
  4  5  2  0
  5  6  1  0
  5  1  1  0
 12  7  1  0
 24 15  1  0
 27 28  1  0
 13 14  1  0
M  END
> <minimizedAffinity>
-6.67411

> <CNNscore>
0.1683849990

> <CNNaffinity>
5.9680972099

> <CNN_VS>
1.0049380064

> <CNNaffinity_variance>
0.2262065858

$$$$
