


 24 27  0  0  0  0  0  0  0  0999 V2000
    3.3983   65.8774   63.9084 C   0  0  0  0  0  0  0  0  0  0  0  0
    4.2542   66.3429   62.9782 C   0  0  0  0  0  0  0  0  0  0  0  0
    4.2111   67.7602   62.4493 C   0  0  0  0  0  0  0  0  0  0  0  0
    5.2509   68.6398   63.1551 C   0  0  0  0  0  0  0  0  0  0  0  0
    4.8489   69.0629   64.5516 C   0  0  0  0  0  0  0  0  0  0  0  0
    5.8487   69.6023   65.2873 N   0  0  0  0  0  0  0  0  0  0  0  0
    5.6013   69.9683   66.5464 C   0  0  0  0  0  0  0  0  0  0  0  0
    6.6688   70.4537   67.2889 C   0  0  0  0  0  0  0  0  0  0  0  0
    6.5133   70.8311   68.6195 C   0  0  0  0  0  0  0  0  0  0  0  0
    7.8669   71.4247   69.5008 Cl  0  0  0  0  0  0  0  0  0  0  0  0
    5.2701   70.7178   69.2201 C   0  0  0  0  0  0  0  0  0  0  0  0
    5.0886   71.0642   70.5026 F   0  0  0  0  0  0  0  0  0  0  0  0
    4.1835   70.2409   68.4957 C   0  0  0  0  0  0  0  0  0  0  0  0
    4.3223   69.8672   67.1370 C   0  0  0  0  0  0  0  0  0  0  0  0
    3.2529   69.3951   66.3237 C   0  0  0  0  0  0  0  0  0  0  0  0
    1.9701   69.1938   66.8882 N   0  0  0  0  0  0  0  0  0  0  0  0
    3.5340   68.9324   65.0212 C   0  0  0  0  0  0  0  0  0  0  0  0
    2.4783   68.2643   64.1439 C   0  0  0  0  0  0  0  0  0  0  0  0
    2.3242   66.7674   64.5068 C   0  0  0  0  0  0  0  0  0  0  0  0
    2.8317   68.3855   62.6567 C   0  0  0  0  0  0  0  0  0  0  0  0
    1.7761   69.5177   67.7974 H   0  0  0  0  0  0  0  0  0  0  0  0
    1.2721   68.7301   66.3714 H   0  0  0  0  0  0  0  0  0  0  0  0
    4.7107   63.7253   63.9371 C   0  0  0  0  0  0  0  0  0  0  0  0
    3.4525   64.4497   64.3946 C   0  0  0  0  0  0  0  0  0  0  0  0
 23 24  1  0
 24  1  1  0
  1  2  2  0
  2  3  1  0
  3  4  1  0
  4  5  1  0
  5  6  2  0
  6  7  1  0
  7  8  2  0
  8  9  1  0
  9 10  1  0
  9 11  2  0
 11 12  1  0
 11 13  1  0
 13 14  2  0
 14 15  1  0
 15 16  1  0
 15 17  2  0
 17 18  1  0
 18 19  1  0
 18 20  1  0
 19  1  1  0
 20  3  1  0
 17  5  1  0
 14  7  1  0
 16 21  1  0
 16 22  1  0
M  END
> <minimizedAffinity>
-12.00855

> <CNNscore>
0.9772511125

> <CNNaffinity>
8.2629289627

> <CNN_VS>
8.0749568939

> <CNNaffinity_variance>
0.5430881977

$$$$



 24 27  0  0  0  0  0  0  0  0999 V2000
    6.4698   70.5083   69.5884 C   0  0  0  0  0  0  0  0  0  0  0  0
    5.2729   70.7678   70.1493 C   0  0  0  0  0  0  0  0  0  0  0  0
    4.1821   71.5481   69.4483 C   0  0  0  0  0  0  0  0  0  0  0  0
    3.1475   70.6031   68.8240 C   0  0  0  0  0  0  0  0  0  0  0  0
    3.6128   69.9462   67.5422 C   0  0  0  0  0  0  0  0  0  0  0  0
    2.8405   68.9165   67.1237 N   0  0  0  0  0  0  0  0  0  0  0  0
    3.1934   68.2474   66.0245 C   0  0  0  0  0  0  0  0  0  0  0  0
    2.4141   67.1561   65.6666 C   0  0  0  0  0  0  0  0  0  0  0  0
    2.7227   66.3797   64.5535 C   0  0  0  0  0  0  0  0  0  0  0  0
    1.7285   65.0342   64.1507 Cl  0  0  0  0  0  0  0  0  0  0  0  0
    3.8319   66.6969   63.7865 C   0  0  0  0  0  0  0  0  0  0  0  0
    4.1619   65.9641   62.7133 F   0  0  0  0  0  0  0  0  0  0  0  0
    4.6245   67.7893   64.1201 C   0  0  0  0  0  0  0  0  0  0  0  0
    4.3151   68.5977   65.2407 C   0  0  0  0  0  0  0  0  0  0  0  0
    5.0626   69.7455   65.6303 C   0  0  0  0  0  0  0  0  0  0  0  0
    6.2441   70.0913   64.9308 N   0  0  0  0  0  0  0  0  0  0  0  0
    4.7364   70.3999   66.8365 C   0  0  0  0  0  0  0  0  0  0  0  0
    5.5827   71.5351   67.4071 C   0  0  0  0  0  0  0  0  0  0  0  0
    6.8010   70.9799   68.1842 C   0  0  0  0  0  0  0  0  0  0  0  0
    4.7584   72.4299   68.3404 C   0  0  0  0  0  0  0  0  0  0  0  0
    6.4698   69.6333   64.0891 H   0  0  0  0  0  0  0  0  0  0  0  0
    6.8399   70.7899   65.2862 H   0  0  0  0  0  0  0  0  0  0  0  0
    7.5178   70.0089   71.8260 C   0  0  0  0  0  0  0  0  0  0  0  0
    7.5455   69.7494   70.3263 C   0  0  0  0  0  0  0  0  0  0  0  0
 23 24  1  0
 24  1  1  0
  1  2  2  0
  2  3  1  0
  3  4  1  0
  4  5  1  0
  5  6  2  0
  6  7  1  0
  7  8  2  0
  8  9  1  0
  9 10  1  0
  9 11  2  0
 11 12  1  0
 11 13  1  0
 13 14  2  0
 14 15  1  0
 15 16  1  0
 15 17  2  0
 17 18  1  0
 18 19  1  0
 18 20  1  0
 19  1  1  0
 20  3  1  0
 17  5  1  0
 14  7  1  0
 16 21  1  0
 16 22  1  0
M  END
> <minimizedAffinity>
-1.69370

> <CNNscore>
0.7435005903

> <CNNaffinity>
7.7118973732

> <CNN_VS>
5.7338004112

> <CNNaffinity_variance>
0.9565658569

$$$$



 24 27  0  0  0  0  0  0  0  0999 V2000
    2.7083   69.7493   68.6750 C   0  0  0  0  0  0  0  0  0  0  0  0
    1.9652   68.8215   69.3087 C   0  0  0  0  0  0  0  0  0  0  0  0
    0.7321   68.1909   68.6989 C   0  0  0  0  0  0  0  0  0  0  0  0
    1.0606   66.8206   68.0926 C   0  0  0  0  0  0  0  0  0  0  0  0
    1.7787   66.8956   66.7624 C   0  0  0  0  0  0  0  0  0  0  0  0
    2.3146   65.7252   66.3441 N   0  0  0  0  0  0  0  0  0  0  0  0
    3.0032   65.7001   65.2014 C   0  0  0  0  0  0  0  0  0  0  0  0
    3.5943   64.4970   64.8415 C   0  0  0  0  0  0  0  0  0  0  0  0
    4.3571   64.3828   63.6830 C   0  0  0  0  0  0  0  0  0  0  0  0
    5.0729   62.8709   63.2793 Cl  0  0  0  0  0  0  0  0  0  0  0  0
    4.5358   65.4915   62.8716 C   0  0  0  0  0  0  0  0  0  0  0  0
    5.2721   65.4174   61.7536 F   0  0  0  0  0  0  0  0  0  0  0  0
    3.9484   66.7061   63.2067 C   0  0  0  0  0  0  0  0  0  0  0  0
    3.1573   66.8345   64.3740 C   0  0  0  0  0  0  0  0  0  0  0  0
    2.5035   68.0362   64.7695 C   0  0  0  0  0  0  0  0  0  0  0  0
    2.6939   69.2240   64.0229 N   0  0  0  0  0  0  0  0  0  0  0  0
    1.8466   68.0814   66.0169 C   0  0  0  0  0  0  0  0  0  0  0  0
    1.2601   69.3702   66.5873 C   0  0  0  0  0  0  0  0  0  0  0  0
    2.3562   70.2196   67.2754 C   0  0  0  0  0  0  0  0  0  0  0  0
    0.1458   69.0756   67.5986 C   0  0  0  0  0  0  0  0  0  0  0  0
    3.1527   69.1901   63.1525 H   0  0  0  0  0  0  0  0  0  0  0  0
    2.3675   70.0839   64.3741 H   0  0  0  0  0  0  0  0  0  0  0  0
    5.0525   70.6120   68.3361 C   0  0  0  0  0  0  0  0  0  0  0  0
    3.9177   70.3774   69.3233 C   0  0  0  0  0  0  0  0  0  0  0  0
 23 24  1  0
 24  1  1  0
  1  2  2  0
  2  3  1  0
  3  4  1  0
  4  5  1  0
  5  6  2  0
  6  7  1  0
  7  8  2  0
  8  9  1  0
  9 10  1  0
  9 11  2  0
 11 12  1  0
 11 13  1  0
 13 14  2  0
 14 15  1  0
 15 16  1  0
 15 17  2  0
 17 18  1  0
 18 19  1  0
 18 20  1  0
 19  1  1  0
 20  3  1  0
 17  5  1  0
 14  7  1  0
 16 21  1  0
 16 22  1  0
M  END
> <minimizedAffinity>
-3.43183

> <CNNscore>
0.5353412628

> <CNNaffinity>
7.0054097176

> <CNN_VS>
3.7502849102

> <CNNaffinity_variance>
0.7328492999

$$$$



 24 27  0  0  0  0  0  0  0  0999 V2000
    6.1296   78.3663   63.4643 C   0  0  0  0  0  0  0  0  0  0  0  0
    6.8076   78.7460   64.5646 C   0  0  0  0  0  0  0  0  0  0  0  0
    6.9357   80.1893   65.0010 C   0  0  0  0  0  0  0  0  0  0  0  0
    5.9169   80.5221   66.0984 C   0  0  0  0  0  0  0  0  0  0  0  0
    4.5063   80.7180   65.5857 C   0  0  0  0  0  0  0  0  0  0  0  0
    3.5547   80.7417   66.5479 N   0  0  0  0  0  0  0  0  0  0  0  0
    2.2754   80.8688   66.1904 C   0  0  0  0  0  0  0  0  0  0  0  0
    1.3251   80.8203   67.2008 C   0  0  0  0  0  0  0  0  0  0  0  0
   -0.0351   80.9134   66.9208 C   0  0  0  0  0  0  0  0  0  0  0  0
   -1.1766   80.8454   68.2066 Cl  0  0  0  0  0  0  0  0  0  0  0  0
   -0.4533   81.0533   65.6075 C   0  0  0  0  0  0  0  0  0  0  0  0
   -1.7564   81.1366   65.3030 F   0  0  0  0  0  0  0  0  0  0  0  0
    0.4793   81.1113   64.5782 C   0  0  0  0  0  0  0  0  0  0  0  0
    1.8671   81.0332   64.8483 C   0  0  0  0  0  0  0  0  0  0  0  0
    2.8819   81.1106   63.8523 C   0  0  0  0  0  0  0  0  0  0  0  0
    2.5260   81.1897   62.4841 N   0  0  0  0  0  0  0  0  0  0  0  0
    4.2254   80.8938   64.2232 C   0  0  0  0  0  0  0  0  0  0  0  0
    5.3530   80.8006   63.1983 C   0  0  0  0  0  0  0  0  0  0  0  0
    5.4253   79.3819   62.5831 C   0  0  0  0  0  0  0  0  0  0  0  0
    6.7083   81.1433   63.8283 C   0  0  0  0  0  0  0  0  0  0  0  0
    1.5876   81.3411   62.2276 H   0  0  0  0  0  0  0  0  0  0  0  0
    3.2168   81.0932   61.7894 H   0  0  0  0  0  0  0  0  0  0  0  0
    6.3423   76.7247   61.5632 C   0  0  0  0  0  0  0  0  0  0  0  0
    6.0440   76.9197   63.0432 C   0  0  0  0  0  0  0  0  0  0  0  0
 23 24  1  0
 24  1  1  0
  1  2  2  0
  2  3  1  0
  3  4  1  0
  4  5  1  0
  5  6  2  0
  6  7  1  0
  7  8  2  0
  8  9  1  0
  9 10  1  0
  9 11  2  0
 11 12  1  0
 11 13  1  0
 13 14  2  0
 14 15  1  0
 15 16  1  0
 15 17  2  0
 17 18  1  0
 18 19  1  0
 18 20  1  0
 19  1  1  0
 20  3  1  0
 17  5  1  0
 14  7  1  0
 16 21  1  0
 16 22  1  0
M  END
> <minimizedAffinity>
3.04670

> <CNNscore>
0.4841599464

> <CNNaffinity>
5.7871804237

> <CNN_VS>
2.8019208908

> <CNNaffinity_variance>
0.3450709581

$$$$



 24 27  0  0  0  0  0  0  0  0999 V2000
    5.3474   72.5024   68.3814 C   0  0  0  0  0  0  0  0  0  0  0  0
    6.5917   72.0638   68.1094 C   0  0  0  0  0  0  0  0  0  0  0  0
    6.9817   70.6022   68.1513 C   0  0  0  0  0  0  0  0  0  0  0  0
    6.9762   69.9934   66.7434 C   0  0  0  0  0  0  0  0  0  0  0  0
    5.5915   69.6919   66.2118 C   0  0  0  0  0  0  0  0  0  0  0  0
    5.5437   69.4139   64.8880 N   0  0  0  0  0  0  0  0  0  0  0  0
    4.3607   69.1752   64.3188 C   0  0  0  0  0  0  0  0  0  0  0  0
    4.3465   68.9616   62.9474 C   0  0  0  0  0  0  0  0  0  0  0  0
    3.1565   68.7353   62.2620 C   0  0  0  0  0  0  0  0  0  0  0  0
    3.1884   68.4783   60.5608 Cl  0  0  0  0  0  0  0  0  0  0  0  0
    1.9590   68.7263   62.9585 C   0  0  0  0  0  0  0  0  0  0  0  0
    0.7943   68.5202   62.3269 F   0  0  0  0  0  0  0  0  0  0  0  0
    1.9473   68.9309   64.3335 C   0  0  0  0  0  0  0  0  0  0  0  0
    3.1509   69.1474   65.0473 C   0  0  0  0  0  0  0  0  0  0  0  0
    3.2222   69.3388   66.4566 C   0  0  0  0  0  0  0  0  0  0  0  0
    2.0334   69.4051   67.2228 N   0  0  0  0  0  0  0  0  0  0  0  0
    4.4615   69.6720   67.0420 C   0  0  0  0  0  0  0  0  0  0  0  0
    4.5962   70.0493   68.5151 C   0  0  0  0  0  0  0  0  0  0  0  0
    4.2324   71.5370   68.7404 C   0  0  0  0  0  0  0  0  0  0  0  0
    6.0199   69.7987   69.0266 C   0  0  0  0  0  0  0  0  0  0  0  0
    1.1695   69.1721   66.8121 H   0  0  0  0  0  0  0  0  0  0  0  0
    2.0706   69.6842   68.1661 H   0  0  0  0  0  0  0  0  0  0  0  0
    4.9817   74.5415   66.9452 C   0  0  0  0  0  0  0  0  0  0  0  0
    4.9989   73.9705   68.3562 C   0  0  0  0  0  0  0  0  0  0  0  0
 23 24  1  0
 24  1  1  0
  1  2  2  0
  2  3  1  0
  3  4  1  0
  4  5  1  0
  5  6  2  0
  6  7  1  0
  7  8  2  0
  8  9  1  0
  9 10  1  0
  9 11  2  0
 11 12  1  0
 11 13  1  0
 13 14  2  0
 14 15  1  0
 15 16  1  0
 15 17  2  0
 17 18  1  0
 18 19  1  0
 18 20  1  0
 19  1  1  0
 20  3  1  0
 17  5  1  0
 14  7  1  0
 16 21  1  0
 16 22  1  0
M  END
> <minimizedAffinity>
11.31784

> <CNNscore>
0.4562401175

> <CNNaffinity>
7.0285620689

> <CNN_VS>
3.2067120075

> <CNNaffinity_variance>
1.1539880037

$$$$



 24 27  0  0  0  0  0  0  0  0999 V2000
    7.5952   72.5828   68.5209 C   0  0  0  0  0  0  0  0  0  0  0  0
    8.5956   71.6841   68.4432 C   0  0  0  0  0  0  0  0  0  0  0  0
    8.4331   70.2294   68.8274 C   0  0  0  0  0  0  0  0  0  0  0  0
    8.1971   69.3584   67.5870 C   0  0  0  0  0  0  0  0  0  0  0  0
    6.7924   69.4521   67.0310 C   0  0  0  0  0  0  0  0  0  0  0  0
    6.6369   68.9155   65.7982 N   0  0  0  0  0  0  0  0  0  0  0  0
    5.4427   68.9865   65.2070 C   0  0  0  0  0  0  0  0  0  0  0  0
    5.3413   68.4857   63.9166 C   0  0  0  0  0  0  0  0  0  0  0  0
    4.1441   68.5440   63.2091 C   0  0  0  0  0  0  0  0  0  0  0  0
    4.0673   67.9124   61.6103 Cl  0  0  0  0  0  0  0  0  0  0  0  0
    3.0296   69.1165   63.8000 C   0  0  0  0  0  0  0  0  0  0  0  0
    1.8638   69.1965   63.1425 F   0  0  0  0  0  0  0  0  0  0  0  0
    3.1037   69.6191   65.0941 C   0  0  0  0  0  0  0  0  0  0  0  0
    4.3102   69.5536   65.8322 C   0  0  0  0  0  0  0  0  0  0  0  0
    4.4572   70.0228   67.1688 C   0  0  0  0  0  0  0  0  0  0  0  0
    3.3785   70.6765   67.8119 N   0  0  0  0  0  0  0  0  0  0  0  0
    5.7381   70.0213   67.7595 C   0  0  0  0  0  0  0  0  0  0  0  0
    6.0118   70.6515   69.1228 C   0  0  0  0  0  0  0  0  0  0  0  0
    6.2103   72.1814   68.9950 C   0  0  0  0  0  0  0  0  0  0  0  0
    7.2536   70.0383   69.7809 C   0  0  0  0  0  0  0  0  0  0  0  0
    2.4853   70.6762   67.3977 H   0  0  0  0  0  0  0  0  0  0  0  0
    3.5215   71.1313   68.6732 H   0  0  0  0  0  0  0  0  0  0  0  0
    9.2450   74.4783   68.3210 C   0  0  0  0  0  0  0  0  0  0  0  0
    7.7990   74.0326   68.1546 C   0  0  0  0  0  0  0  0  0  0  0  0
 23 24  1  0
 24  1  1  0
  1  2  2  0
  2  3  1  0
  3  4  1  0
  4  5  1  0
  5  6  2  0
  6  7  1  0
  7  8  2  0
  8  9  1  0
  9 10  1  0
  9 11  2  0
 11 12  1  0
 11 13  1  0
 13 14  2  0
 14 15  1  0
 15 16  1  0
 15 17  2  0
 17 18  1  0
 18 19  1  0
 18 20  1  0
 19  1  1  0
 20  3  1  0
 17  5  1  0
 14  7  1  0
 16 21  1  0
 16 22  1  0
M  END
> <minimizedAffinity>
23.30995

> <CNNscore>
0.3889145255

> <CNNaffinity>
6.7632293701

> <CNN_VS>
2.6303181648

> <CNNaffinity_variance>
0.5266243219

$$$$



 24 27  0  0  0  0  0  0  0  0999 V2000
    5.0889   69.2009   65.5604 C   0  0  0  0  0  0  0  0  0  0  0  0
    5.8192   68.8538   64.4830 C   0  0  0  0  0  0  0  0  0  0  0  0
    5.5301   67.6252   63.6480 C   0  0  0  0  0  0  0  0  0  0  0  0
    4.7310   67.9928   62.3913 C   0  0  0  0  0  0  0  0  0  0  0  0
    3.2643   68.2585   62.6538 C   0  0  0  0  0  0  0  0  0  0  0  0
    2.6040   68.8417   61.6263 N   0  0  0  0  0  0  0  0  0  0  0  0
    1.3153   69.1529   61.7781 C   0  0  0  0  0  0  0  0  0  0  0  0
    0.6921   69.8110   60.7269 C   0  0  0  0  0  0  0  0  0  0  0  0
   -0.6411   70.2026   60.8064 C   0  0  0  0  0  0  0  0  0  0  0  0
   -1.3703   71.0188   59.4784 Cl  0  0  0  0  0  0  0  0  0  0  0  0
   -1.3633   69.9356   61.9581 C   0  0  0  0  0  0  0  0  0  0  0  0
   -2.6466   70.3075   62.0702 F   0  0  0  0  0  0  0  0  0  0  0  0
   -0.7637   69.2716   63.0221 C   0  0  0  0  0  0  0  0  0  0  0  0
    0.5872   68.8534   62.9507 C   0  0  0  0  0  0  0  0  0  0  0  0
    1.2622   68.1473   63.9870 C   0  0  0  0  0  0  0  0  0  0  0  0
    0.6058   67.8966   65.2162 N   0  0  0  0  0  0  0  0  0  0  0  0
    2.6436   67.8935   63.8571 C   0  0  0  0  0  0  0  0  0  0  0  0
    3.4744   67.2872   64.9853 C   0  0  0  0  0  0  0  0  0  0  0  0
    3.8975   68.3723   66.0052 C   0  0  0  0  0  0  0  0  0  0  0  0
    4.7294   66.5933   64.4424 C   0  0  0  0  0  0  0  0  0  0  0  0
   -0.3584   68.0745   65.3045 H   0  0  0  0  0  0  0  0  0  0  0  0
    1.1136   67.5444   65.9826 H   0  0  0  0  0  0  0  0  0  0  0  0
    6.7234   70.2620   67.1595 C   0  0  0  0  0  0  0  0  0  0  0  0
    5.4213   70.4191   66.3868 C   0  0  0  0  0  0  0  0  0  0  0  0
 23 24  1  0
 24  1  1  0
  1  2  2  0
  2  3  1  0
  3  4  1  0
  4  5  1  0
  5  6  2  0
  6  7  1  0
  7  8  2  0
  8  9  1  0
  9 10  1  0
  9 11  2  0
 11 12  1  0
 11 13  1  0
 13 14  2  0
 14 15  1  0
 15 16  1  0
 15 17  2  0
 17 18  1  0
 18 19  1  0
 18 20  1  0
 19  1  1  0
 20  3  1  0
 17  5  1  0
 14  7  1  0
 16 21  1  0
 16 22  1  0
M  END
> <minimizedAffinity>
-3.09986

> <CNNscore>
0.3013898134

> <CNNaffinity>
6.9101119041

> <CNN_VS>
2.0826373100

> <CNNaffinity_variance>
0.4307968318

$$$$



 24 27  0  0  0  0  0  0  0  0999 V2000
    0.5737   68.9044   62.4475 C   0  0  0  0  0  0  0  0  0  0  0  0
    1.4497   69.2296   61.4772 C   0  0  0  0  0  0  0  0  0  0  0  0
    2.8954   69.5825   61.7517 C   0  0  0  0  0  0  0  0  0  0  0  0
    3.8094   68.3746   61.5094 C   0  0  0  0  0  0  0  0  0  0  0  0
    3.7671   67.3427   62.6159 C   0  0  0  0  0  0  0  0  0  0  0  0
    4.3449   66.1588   62.3054 N   0  0  0  0  0  0  0  0  0  0  0  0
    4.3211   65.1716   63.2028 C   0  0  0  0  0  0  0  0  0  0  0  0
    4.8636   63.9523   62.8212 C   0  0  0  0  0  0  0  0  0  0  0  0
    4.8562   62.8562   63.6789 C   0  0  0  0  0  0  0  0  0  0  0  0
    5.5380   61.3637   63.1606 Cl  0  0  0  0  0  0  0  0  0  0  0  0
    4.2932   62.9794   64.9387 C   0  0  0  0  0  0  0  0  0  0  0  0
    4.2619   61.9404   65.7856 F   0  0  0  0  0  0  0  0  0  0  0  0
    3.7495   64.1920   65.3470 C   0  0  0  0  0  0  0  0  0  0  0  0
    3.7630   65.3203   64.4917 C   0  0  0  0  0  0  0  0  0  0  0  0
    3.2497   66.6002   64.8472 C   0  0  0  0  0  0  0  0  0  0  0  0
    2.6031   66.7820   66.0937 N   0  0  0  0  0  0  0  0  0  0  0  0
    3.2018   67.6160   63.8698 C   0  0  0  0  0  0  0  0  0  0  0  0
    2.5237   68.9608   64.1189 C   0  0  0  0  0  0  0  0  0  0  0  0
    0.9940   68.8570   63.9053 C   0  0  0  0  0  0  0  0  0  0  0  0
    3.0860   70.0481   63.1953 C   0  0  0  0  0  0  0  0  0  0  0  0
    2.6379   66.0716   66.7744 H   0  0  0  0  0  0  0  0  0  0  0  0
    2.1188   67.6187   66.2796 H   0  0  0  0  0  0  0  0  0  0  0  0
   -1.8064   68.9729   63.2753 C   0  0  0  0  0  0  0  0  0  0  0  0
   -0.8688   68.5834   62.1411 C   0  0  0  0  0  0  0  0  0  0  0  0
 23 24  1  0
 24  1  1  0
  1  2  2  0
  2  3  1  0
  3  4  1  0
  4  5  1  0
  5  6  2  0
  6  7  1  0
  7  8  2  0
  8  9  1  0
  9 10  1  0
  9 11  2  0
 11 12  1  0
 11 13  1  0
 13 14  2  0
 14 15  1  0
 15 16  1  0
 15 17  2  0
 17 18  1  0
 18 19  1  0
 18 20  1  0
 19  1  1  0
 20  3  1  0
 17  5  1  0
 14  7  1  0
 16 21  1  0
 16 22  1  0
M  END
> <minimizedAffinity>
2.97651

> <CNNscore>
0.2856488228

> <CNNaffinity>
6.2390894890

> <CNN_VS>
1.7821885347

> <CNNaffinity_variance>
0.5662720203

$$$$



 24 27  0  0  0  0  0  0  0  0999 V2000
    0.6873   63.4238   71.2639 C   0  0  0  0  0  0  0  0  0  0  0  0
    1.1104   62.1763   70.9824 C   0  0  0  0  0  0  0  0  0  0  0  0
    1.6639   61.2341   72.0293 C   0  0  0  0  0  0  0  0  0  0  0  0
    0.5885   60.2474   72.5015 C   0  0  0  0  0  0  0  0  0  0  0  0
   -0.4173   60.8494   73.4589 C   0  0  0  0  0  0  0  0  0  0  0  0
   -1.5165   60.0895   73.6736 N   0  0  0  0  0  0  0  0  0  0  0  0
   -2.4797   60.5548   74.4713 C   0  0  0  0  0  0  0  0  0  0  0  0
   -3.6202   59.7763   74.6119 C   0  0  0  0  0  0  0  0  0  0  0  0
   -4.6897   60.1940   75.3985 C   0  0  0  0  0  0  0  0  0  0  0  0
   -6.0843   59.1961   75.5404 Cl  0  0  0  0  0  0  0  0  0  0  0  0
   -4.6201   61.4131   76.0531 C   0  0  0  0  0  0  0  0  0  0  0  0
   -5.6366   61.8487   76.8112 F   0  0  0  0  0  0  0  0  0  0  0  0
   -3.4858   62.2080   75.9338 C   0  0  0  0  0  0  0  0  0  0  0  0
   -2.3835   61.7900   75.1495 C   0  0  0  0  0  0  0  0  0  0  0  0
   -1.1795   62.5356   74.9996 C   0  0  0  0  0  0  0  0  0  0  0  0
   -1.0636   63.8183   75.5879 N   0  0  0  0  0  0  0  0  0  0  0  0
   -0.1995   62.0813   74.0926 C   0  0  0  0  0  0  0  0  0  0  0  0
    1.0441   62.8991   73.7533 C   0  0  0  0  0  0  0  0  0  0  0  0
    0.7269   63.9687   72.6801 C   0  0  0  0  0  0  0  0  0  0  0  0
    2.1798   62.0021   73.2463 C   0  0  0  0  0  0  0  0  0  0  0  0
   -1.7488   64.1333   76.2208 H   0  0  0  0  0  0  0  0  0  0  0  0
   -0.2978   64.3951   75.3641 H   0  0  0  0  0  0  0  0  0  0  0  0
    0.3968   65.8150   70.5206 C   0  0  0  0  0  0  0  0  0  0  0  0
    0.1651   64.3472   70.1905 C   0  0  0  0  0  0  0  0  0  0  0  0
 23 24  1  0
 24  1  1  0
  1  2  2  0
  2  3  1  0
  3  4  1  0
  4  5  1  0
  5  6  2  0
  6  7  1  0
  7  8  2  0
  8  9  1  0
  9 10  1  0
  9 11  2  0
 11 12  1  0
 11 13  1  0
 13 14  2  0
 14 15  1  0
 15 16  1  0
 15 17  2  0
 17 18  1  0
 18 19  1  0
 18 20  1  0
 19  1  1  0
 20  3  1  0
 17  5  1  0
 14  7  1  0
 16 21  1  0
 16 22  1  0
M  END
> <minimizedAffinity>
-6.55887

> <CNNscore>
0.2761604786

> <CNNaffinity>
6.0251846313

> <CNN_VS>
1.6639178991

> <CNNaffinity_variance>
0.1428125352

$$$$
