


 31 33  0  0  0  0  0  0  0  0999 V2000
   90.9411   95.3797  -44.9989 C   0  0  0  0  0  0  0  0  0  0  0  0
   91.0156   94.3915  -45.9972 C   0  0  0  0  0  0  0  0  0  0  0  0
   91.5765   93.1402  -45.7272 C   0  0  0  0  0  0  0  0  0  0  0  0
   92.0720   92.8556  -44.4545 C   0  0  0  0  0  0  0  0  0  0  0  0
   91.9965   93.8236  -43.4517 C   0  0  0  0  0  0  0  0  0  0  0  0
   92.7399   93.3509  -41.5553 I   0  0  0  0  0  0  0  0  0  0  0  0
   91.4297   95.0765  -43.7200 C   0  0  0  0  0  0  0  0  0  0  0  0
   91.3222   96.0307  -42.7434 O   0  0  0  0  0  0  0  0  0  0  0  0
   91.6403   95.8550  -41.8797 H   0  0  0  0  0  0  0  0  0  0  0  0
   91.6492   92.1516  -46.7580 C   0  0  0  0  0  0  0  0  0  0  0  0
   91.6960   91.3242  -47.6274 C   0  0  0  0  0  0  0  0  0  0  0  0
   91.7350   90.3184  -48.6955 C   0  0  0  0  0  0  0  0  0  0  0  0
   90.4184   89.9493  -49.1114 O   0  0  0  0  0  0  0  0  0  0  0  0
   89.8963   90.5424  -50.2278 C   0  0  0  0  0  0  0  0  0  0  0  0
   90.5154   91.7427  -50.5892 C   0  0  0  0  0  0  0  0  0  0  0  0
   90.0891   92.4559  -51.7108 C   0  0  0  0  0  0  0  0  0  0  0  0
   89.0390   91.9686  -52.4840 C   0  0  0  0  0  0  0  0  0  0  0  0
   88.4211   90.7689  -52.1354 C   0  0  0  0  0  0  0  0  0  0  0  0
   88.8489   90.0552  -51.0108 C   0  0  0  0  0  0  0  0  0  0  0  0
   90.3608   96.7393  -45.3299 C   0  0  0  0  0  0  0  0  0  0  0  0
   91.2627  100.6536  -43.6674 C   0  0  0  0  0  0  0  0  0  0  0  0
   92.4026   99.7092  -44.1035 C   0  0  0  0  0  0  0  0  0  0  0  0
   91.9077   98.6131  -45.0492 C   0  0  0  0  0  0  0  0  0  0  0  0
   90.8341   97.8201  -44.4436 N   0  0  0  0  0  0  0  0  0  0  0  0
   89.7100   98.6778  -44.0563 C   0  0  0  0  0  0  0  0  0  0  0  0
   90.1379   99.7766  -43.0815 C   0  0  0  0  0  0  0  0  0  0  0  0
   91.7944  101.6990  -42.7448 N   0  0  0  0  0  0  0  0  0  0  0  0
   91.2364  101.8040  -40.3500 C   0  0  0  0  0  0  0  0  0  0  0  0
   92.0988  101.1358  -41.4131 C   0  0  0  0  0  0  0  0  0  0  0  0
   92.9361  102.4531  -43.2913 C   0  0  0  0  0  0  0  0  0  0  0  0
   94.0582  102.7066  -42.2849 C   0  0  0  0  0  0  0  0  0  0  0  0
 28 29  1  0
 29 27  1  0
 27 30  1  0
 30 31  1  0
 27 21  1  0
 21 22  1  0
 22 23  1  0
 23 24  1  0
 24 20  1  0
 20  1  1  0
  1  2  2  0
  2  3  1  0
  3 10  1  0
 10 11  3  0
 11 12  1  0
 12 13  1  0
 13 14  1  0
 14 15  2  0
 15 16  1  0
 16 17  2  0
 17 18  1  0
 18 19  2  0
  3  4  2  0
  4  5  1  0
  5  6  1  0
  5  7  2  0
  7  8  1  0
 24 25  1  0
 25 26  1  0
 26 21  1  0
  7  1  1  0
 19 14  1  0
  8  9  1  0
M  END
> <minimizedAffinity>
-7.26787

> <CNNscore>
0.9252985120

> <CNNaffinity>
5.7178378105

> <CNN_VS>
5.2907066345

> <CNNaffinity_variance>
1.0937463045

$$$$



 31 33  0  0  0  0  0  0  0  0999 V2000
   90.9263   95.3254  -45.1281 C   0  0  0  0  0  0  0  0  0  0  0  0
   90.9699   94.3145  -46.1054 C   0  0  0  0  0  0  0  0  0  0  0  0
   91.5033   93.0564  -45.8125 C   0  0  0  0  0  0  0  0  0  0  0  0
   92.0016   92.7874  -44.5375 C   0  0  0  0  0  0  0  0  0  0  0  0
   91.9566   93.7782  -43.5552 C   0  0  0  0  0  0  0  0  0  0  0  0
   92.7030   93.3287  -41.6544 I   0  0  0  0  0  0  0  0  0  0  0  0
   91.4173   95.0381  -43.8465 C   0  0  0  0  0  0  0  0  0  0  0  0
   91.3397   96.0152  -42.8899 O   0  0  0  0  0  0  0  0  0  0  0  0
   91.6602   95.8506  -42.0250 H   0  0  0  0  0  0  0  0  0  0  0  0
   91.5449   92.0445  -46.8221 C   0  0  0  0  0  0  0  0  0  0  0  0
   91.5750   91.2046  -47.6802 C   0  0  0  0  0  0  0  0  0  0  0  0
   91.6069   90.1920  -48.7421 C   0  0  0  0  0  0  0  0  0  0  0  0
   90.2881   89.8398  -49.1654 O   0  0  0  0  0  0  0  0  0  0  0  0
   89.7965   88.6122  -48.8160 C   0  0  0  0  0  0  0  0  0  0  0  0
   90.6480   87.5426  -49.1084 C   0  0  0  0  0  0  0  0  0  0  0  0
   90.2779   86.2318  -48.8030 C   0  0  0  0  0  0  0  0  0  0  0  0
   89.0501   85.9819  -48.1962 C   0  0  0  0  0  0  0  0  0  0  0  0
   88.1984   87.0429  -47.8941 C   0  0  0  0  0  0  0  0  0  0  0  0
   88.5701   88.3562  -48.2012 C   0  0  0  0  0  0  0  0  0  0  0  0
   90.3756   96.6909  -45.4843 C   0  0  0  0  0  0  0  0  0  0  0  0
   90.9037  100.5399  -43.5334 C   0  0  0  0  0  0  0  0  0  0  0  0
   92.1285   99.6733  -43.8947 C   0  0  0  0  0  0  0  0  0  0  0  0
   91.7895   98.6122  -44.9436 C   0  0  0  0  0  0  0  0  0  0  0  0
   90.7001   97.7392  -44.4975 N   0  0  0  0  0  0  0  0  0  0  0  0
   89.5004   98.5227  -44.1874 C   0  0  0  0  0  0  0  0  0  0  0  0
   89.7696   99.5819  -43.1167 C   0  0  0  0  0  0  0  0  0  0  0  0
   91.2841  101.5533  -42.5063 N   0  0  0  0  0  0  0  0  0  0  0  0
   91.6206  101.6141  -40.0689 C   0  0  0  0  0  0  0  0  0  0  0  0
   92.0010  100.9289  -41.3751 C   0  0  0  0  0  0  0  0  0  0  0  0
   92.0232  102.7062  -43.0499 C   0  0  0  0  0  0  0  0  0  0  0  0
   93.5413  102.5995  -42.9087 C   0  0  0  0  0  0  0  0  0  0  0  0
 28 29  1  0
 29 27  1  0
 27 30  1  0
 30 31  1  0
 27 21  1  0
 21 22  1  0
 22 23  1  0
 23 24  1  0
 24 20  1  0
 20  1  1  0
  1  2  2  0
  2  3  1  0
  3 10  1  0
 10 11  3  0
 11 12  1  0
 12 13  1  0
 13 14  1  0
 14 15  2  0
 15 16  1  0
 16 17  2  0
 17 18  1  0
 18 19  2  0
  3  4  2  0
  4  5  1  0
  5  6  1  0
  5  7  2  0
  7  8  1  0
 24 25  1  0
 25 26  1  0
 26 21  1  0
  7  1  1  0
 19 14  1  0
  8  9  1  0
M  END
> <minimizedAffinity>
-7.29852

> <CNNscore>
0.8550258279

> <CNNaffinity>
5.5941371918

> <CNN_VS>
4.7831315994

> <CNNaffinity_variance>
0.9423499107

$$$$



 31 33  0  0  0  0  0  0  0  0999 V2000
   91.0266   95.5876  -45.0410 C   0  0  0  0  0  0  0  0  0  0  0  0
   91.0799   94.5800  -46.0213 C   0  0  0  0  0  0  0  0  0  0  0  0
   91.5234   93.2933  -45.7037 C   0  0  0  0  0  0  0  0  0  0  0  0
   91.9206   92.9919  -44.4007 C   0  0  0  0  0  0  0  0  0  0  0  0
   91.8644   93.9794  -43.4158 C   0  0  0  0  0  0  0  0  0  0  0  0
   92.4573   93.4815  -41.4734 I   0  0  0  0  0  0  0  0  0  0  0  0
   91.4150   95.2683  -43.7321 C   0  0  0  0  0  0  0  0  0  0  0  0
   91.3273   96.2441  -42.7750 O   0  0  0  0  0  0  0  0  0  0  0  0
   91.5802   96.0584  -41.8921 H   0  0  0  0  0  0  0  0  0  0  0  0
   91.5768   92.2850  -46.7164 C   0  0  0  0  0  0  0  0  0  0  0  0
   91.6332   91.4453  -47.5733 C   0  0  0  0  0  0  0  0  0  0  0  0
   91.7182   90.4279  -48.6277 C   0  0  0  0  0  0  0  0  0  0  0  0
   90.4277   90.1195  -49.1587 O   0  0  0  0  0  0  0  0  0  0  0  0
   89.9959   90.8021  -50.2625 C   0  0  0  0  0  0  0  0  0  0  0  0
   90.8321   91.8499  -50.6592 C   0  0  0  0  0  0  0  0  0  0  0  0
   90.5182   92.6308  -51.7729 C   0  0  0  0  0  0  0  0  0  0  0  0
   89.3631   92.3643  -52.5027 C   0  0  0  0  0  0  0  0  0  0  0  0
   88.5278   91.3168  -52.1188 C   0  0  0  0  0  0  0  0  0  0  0  0
   88.8430   90.5353  -51.0022 C   0  0  0  0  0  0  0  0  0  0  0  0
   90.5759   96.9828  -45.4220 C   0  0  0  0  0  0  0  0  0  0  0  0
   86.6776   98.8564  -44.9838 C   0  0  0  0  0  0  0  0  0  0  0  0
   87.7283   98.9683  -43.8591 C   0  0  0  0  0  0  0  0  0  0  0  0
   89.1392   98.6536  -44.3604 C   0  0  0  0  0  0  0  0  0  0  0  0
   89.2160   97.3167  -44.9561 N   0  0  0  0  0  0  0  0  0  0  0  0
   88.2622   97.1851  -46.0616 C   0  0  0  0  0  0  0  0  0  0  0  0
   86.8250   97.4563  -45.6128 C   0  0  0  0  0  0  0  0  0  0  0  0
   85.3214   99.1671  -44.4444 N   0  0  0  0  0  0  0  0  0  0  0  0
   83.2250   97.9344  -44.0662 C   0  0  0  0  0  0  0  0  0  0  0  0
   84.7215   97.9877  -43.7869 C   0  0  0  0  0  0  0  0  0  0  0  0
   85.2830  100.3548  -43.5733 C   0  0  0  0  0  0  0  0  0  0  0  0
   84.8818  101.6438  -44.2899 C   0  0  0  0  0  0  0  0  0  0  0  0
 28 29  1  0
 29 27  1  0
 27 30  1  0
 30 31  1  0
 27 21  1  0
 21 22  1  0
 22 23  1  0
 23 24  1  0
 24 20  1  0
 20  1  1  0
  1  2  2  0
  2  3  1  0
  3 10  1  0
 10 11  3  0
 11 12  1  0
 12 13  1  0
 13 14  1  0
 14 15  2  0
 15 16  1  0
 16 17  2  0
 17 18  1  0
 18 19  2  0
  3  4  2  0
  4  5  1  0
  5  6  1  0
  5  7  2  0
  7  8  1  0
 24 25  1  0
 25 26  1  0
 26 21  1  0
  7  1  1  0
 19 14  1  0
  8  9  1  0
M  END
> <minimizedAffinity>
-6.92347

> <CNNscore>
0.8464826941

> <CNNaffinity>
5.3402915001

> <CNN_VS>
4.5204644203

> <CNNaffinity_variance>
1.1088563204

$$$$



 31 33  0  0  0  0  0  0  0  0999 V2000
   90.4036   96.6470  -45.0626 C   0  0  0  0  0  0  0  0  0  0  0  0
   90.6404   95.4823  -45.8152 C   0  0  0  0  0  0  0  0  0  0  0  0
   91.2346   94.3600  -45.2317 C   0  0  0  0  0  0  0  0  0  0  0  0
   91.6016   94.3827  -43.8859 C   0  0  0  0  0  0  0  0  0  0  0  0
   91.3644   95.5285  -43.1248 C   0  0  0  0  0  0  0  0  0  0  0  0
   91.9189   95.5154  -41.1086 I   0  0  0  0  0  0  0  0  0  0  0  0
   90.7641   96.6524  -43.7076 C   0  0  0  0  0  0  0  0  0  0  0  0
   90.4987   97.7768  -42.9720 O   0  0  0  0  0  0  0  0  0  0  0  0
   90.7289   97.8080  -42.0642 H   0  0  0  0  0  0  0  0  0  0  0  0
   91.4732   93.1881  -46.0159 C   0  0  0  0  0  0  0  0  0  0  0  0
   91.6882   92.2067  -46.6742 C   0  0  0  0  0  0  0  0  0  0  0  0
   91.9704   91.0107  -47.4765 C   0  0  0  0  0  0  0  0  0  0  0  0
   91.9357   91.3021  -48.8752 O   0  0  0  0  0  0  0  0  0  0  0  0
   90.8438   90.9060  -49.5976 C   0  0  0  0  0  0  0  0  0  0  0  0
   90.3542   89.6407  -49.2603 C   0  0  0  0  0  0  0  0  0  0  0  0
   89.2408   89.1091  -49.9132 C   0  0  0  0  0  0  0  0  0  0  0  0
   88.6045   89.8451  -50.9089 C   0  0  0  0  0  0  0  0  0  0  0  0
   89.0812   91.1106  -51.2462 C   0  0  0  0  0  0  0  0  0  0  0  0
   90.1975   91.6421  -50.5915 C   0  0  0  0  0  0  0  0  0  0  0  0
   89.7910   97.8609  -45.7304 C   0  0  0  0  0  0  0  0  0  0  0  0
   92.3336  101.0012  -44.1262 C   0  0  0  0  0  0  0  0  0  0  0  0
   90.8695  101.3021  -44.5103 C   0  0  0  0  0  0  0  0  0  0  0  0
   90.0322  100.0262  -44.6184 C   0  0  0  0  0  0  0  0  0  0  0  0
   90.5993   99.0878  -45.5911 N   0  0  0  0  0  0  0  0  0  0  0  0
   91.9783   98.7405  -45.2348 C   0  0  0  0  0  0  0  0  0  0  0  0
   92.8746   99.9771  -45.1440 C   0  0  0  0  0  0  0  0  0  0  0  0
   93.1073  102.2741  -44.0385 N   0  0  0  0  0  0  0  0  0  0  0  0
   93.2241  104.5269  -45.0227 C   0  0  0  0  0  0  0  0  0  0  0  0
   92.3075  103.4229  -44.5117 C   0  0  0  0  0  0  0  0  0  0  0  0
   93.6916  102.5275  -42.7098 C   0  0  0  0  0  0  0  0  0  0  0  0
   92.6772  102.5110  -41.5666 C   0  0  0  0  0  0  0  0  0  0  0  0
 28 29  1  0
 29 27  1  0
 27 30  1  0
 30 31  1  0
 27 21  1  0
 21 22  1  0
 22 23  1  0
 23 24  1  0
 24 20  1  0
 20  1  1  0
  1  2  2  0
  2  3  1  0
  3 10  1  0
 10 11  3  0
 11 12  1  0
 12 13  1  0
 13 14  1  0
 14 15  2  0
 15 16  1  0
 16 17  2  0
 17 18  1  0
 18 19  2  0
  3  4  2  0
  4  5  1  0
  5  6  1  0
  5  7  2  0
  7  8  1  0
 24 25  1  0
 25 26  1  0
 26 21  1  0
  7  1  1  0
 19 14  1  0
  8  9  1  0
M  END
> <minimizedAffinity>
-6.12333

> <CNNscore>
0.7787032723

> <CNNaffinity>
5.8801703453

> <CNN_VS>
4.5789079666

> <CNNaffinity_variance>
0.2917828262

$$$$



 31 33  0  0  0  0  0  0  0  0999 V2000
   90.9352   95.6122  -45.2295 C   0  0  0  0  0  0  0  0  0  0  0  0
   90.9961   94.5835  -46.1871 C   0  0  0  0  0  0  0  0  0  0  0  0
   91.4797   93.3166  -45.8490 C   0  0  0  0  0  0  0  0  0  0  0  0
   91.9101   93.0565  -44.5477 C   0  0  0  0  0  0  0  0  0  0  0  0
   91.8471   94.0653  -43.5849 C   0  0  0  0  0  0  0  0  0  0  0  0
   92.4909   93.6289  -41.6438 I   0  0  0  0  0  0  0  0  0  0  0  0
   91.3576   95.3341  -43.9217 C   0  0  0  0  0  0  0  0  0  0  0  0
   91.2628   96.3297  -42.9858 O   0  0  0  0  0  0  0  0  0  0  0  0
   91.5378   96.1715  -42.1041 H   0  0  0  0  0  0  0  0  0  0  0  0
   91.5399   92.2865  -46.8390 C   0  0  0  0  0  0  0  0  0  0  0  0
   91.6054   91.4208  -47.6691 C   0  0  0  0  0  0  0  0  0  0  0  0
   91.7049   90.3618  -48.6803 C   0  0  0  0  0  0  0  0  0  0  0  0
   91.2023   90.8001  -49.9443 O   0  0  0  0  0  0  0  0  0  0  0  0
   89.8480   90.8308  -50.1332 C   0  0  0  0  0  0  0  0  0  0  0  0
   89.2040   89.6105  -49.9079 C   0  0  0  0  0  0  0  0  0  0  0  0
   87.8212   89.4949  -50.0590 C   0  0  0  0  0  0  0  0  0  0  0  0
   87.0698   90.6054  -50.4337 C   0  0  0  0  0  0  0  0  0  0  0  0
   87.7026   91.8276  -50.6529 C   0  0  0  0  0  0  0  0  0  0  0  0
   89.0886   91.9422  -50.5017 C   0  0  0  0  0  0  0  0  0  0  0  0
   90.4404   96.9858  -45.6334 C   0  0  0  0  0  0  0  0  0  0  0  0
   86.5008   98.7205  -45.0252 C   0  0  0  0  0  0  0  0  0  0  0  0
   87.6729   99.0999  -44.0957 C   0  0  0  0  0  0  0  0  0  0  0  0
   89.0292   98.7612  -44.7173 C   0  0  0  0  0  0  0  0  0  0  0  0
   89.1286   97.3389  -45.0569 N   0  0  0  0  0  0  0  0  0  0  0  0
   88.0564   96.9485  -45.9773 C   0  0  0  0  0  0  0  0  0  0  0  0
   86.6705   97.2332  -45.3951 C   0  0  0  0  0  0  0  0  0  0  0  0
   85.2036   99.0654  -44.3732 N   0  0  0  0  0  0  0  0  0  0  0  0
   84.6127  101.2276  -43.3568 C   0  0  0  0  0  0  0  0  0  0  0  0
   84.8136  100.4618  -44.6581 C   0  0  0  0  0  0  0  0  0  0  0  0
   84.1132   98.1223  -44.6772 C   0  0  0  0  0  0  0  0  0  0  0  0
   83.1097   98.6372  -45.7088 C   0  0  0  0  0  0  0  0  0  0  0  0
 28 29  1  0
 29 27  1  0
 27 30  1  0
 30 31  1  0
 27 21  1  0
 21 22  1  0
 22 23  1  0
 23 24  1  0
 24 20  1  0
 20  1  1  0
  1  2  2  0
  2  3  1  0
  3 10  1  0
 10 11  3  0
 11 12  1  0
 12 13  1  0
 13 14  1  0
 14 15  2  0
 15 16  1  0
 16 17  2  0
 17 18  1  0
 18 19  2  0
  3  4  2  0
  4  5  1  0
  5  6  1  0
  5  7  2  0
  7  8  1  0
 24 25  1  0
 25 26  1  0
 26 21  1  0
  7  1  1  0
 19 14  1  0
  8  9  1  0
M  END
> <minimizedAffinity>
-6.54872

> <CNNscore>
0.7306979299

> <CNNaffinity>
5.2985763550

> <CNN_VS>
3.8716588020

> <CNNaffinity_variance>
0.7964294553

$$$$



 31 33  0  0  0  0  0  0  0  0999 V2000
   90.9624   95.7381  -45.0410 C   0  0  0  0  0  0  0  0  0  0  0  0
   90.9796   94.7584  -46.0504 C   0  0  0  0  0  0  0  0  0  0  0  0
   91.4167   93.4586  -45.7807 C   0  0  0  0  0  0  0  0  0  0  0  0
   91.8435   93.1161  -44.4974 C   0  0  0  0  0  0  0  0  0  0  0  0
   91.8234   94.0757  -43.4839 C   0  0  0  0  0  0  0  0  0  0  0  0
   92.4600   93.5165  -41.5723 I   0  0  0  0  0  0  0  0  0  0  0  0
   91.3805   95.3776  -43.7520 C   0  0  0  0  0  0  0  0  0  0  0  0
   91.3280   96.3267  -42.7659 O   0  0  0  0  0  0  0  0  0  0  0  0
   91.6012   96.1133  -41.8954 H   0  0  0  0  0  0  0  0  0  0  0  0
   91.4331   92.4791  -46.8225 C   0  0  0  0  0  0  0  0  0  0  0  0
   91.4616   91.6547  -47.6956 C   0  0  0  0  0  0  0  0  0  0  0  0
   91.5155   90.6441  -48.7585 C   0  0  0  0  0  0  0  0  0  0  0  0
   90.5942   89.5797  -48.5120 O   0  0  0  0  0  0  0  0  0  0  0  0
   89.8628   89.0935  -49.5605 C   0  0  0  0  0  0  0  0  0  0  0  0
   89.3256   90.0765  -50.3970 C   0  0  0  0  0  0  0  0  0  0  0  0
   88.5597   89.7256  -51.5100 C   0  0  0  0  0  0  0  0  0  0  0  0
   88.3291   88.3831  -51.7971 C   0  0  0  0  0  0  0  0  0  0  0  0
   88.8672   87.3964  -50.9730 C   0  0  0  0  0  0  0  0  0  0  0  0
   89.6341   87.7492  -49.8574 C   0  0  0  0  0  0  0  0  0  0  0  0
   90.5177   97.1482  -45.3707 C   0  0  0  0  0  0  0  0  0  0  0  0
   86.5773   98.9814  -45.2625 C   0  0  0  0  0  0  0  0  0  0  0  0
   87.3325   98.6761  -43.9518 C   0  0  0  0  0  0  0  0  0  0  0  0
   88.8292   98.4657  -44.1892 C   0  0  0  0  0  0  0  0  0  0  0  0
   89.0783   97.3855  -45.1480 N   0  0  0  0  0  0  0  0  0  0  0  0
   88.4133   97.6611  -46.4252 C   0  0  0  0  0  0  0  0  0  0  0  0
   86.9044   97.8484  -46.2560 C   0  0  0  0  0  0  0  0  0  0  0  0
   85.1249   99.1731  -44.9788 N   0  0  0  0  0  0  0  0  0  0  0  0
   83.4660   97.5176  -44.2273 C   0  0  0  0  0  0  0  0  0  0  0  0
   84.6859   98.3425  -43.8383 C   0  0  0  0  0  0  0  0  0  0  0  0
   84.7304  100.5827  -44.8099 C   0  0  0  0  0  0  0  0  0  0  0  0
   85.8415  101.5851  -45.1208 C   0  0  0  0  0  0  0  0  0  0  0  0
 28 29  1  0
 29 27  1  0
 27 30  1  0
 30 31  1  0
 27 21  1  0
 21 22  1  0
 22 23  1  0
 23 24  1  0
 24 20  1  0
 20  1  1  0
  1  2  2  0
  2  3  1  0
  3 10  1  0
 10 11  3  0
 11 12  1  0
 12 13  1  0
 13 14  1  0
 14 15  2  0
 15 16  1  0
 16 17  2  0
 17 18  1  0
 18 19  2  0
  3  4  2  0
  4  5  1  0
  5  6  1  0
  5  7  2  0
  7  8  1  0
 24 25  1  0
 25 26  1  0
 26 21  1  0
  7  1  1  0
 19 14  1  0
  8  9  1  0
M  END
> <minimizedAffinity>
-6.70017

> <CNNscore>
0.7290409207

> <CNNaffinity>
5.2512378693

> <CNN_VS>
3.8283672333

> <CNNaffinity_variance>
1.0091623068

$$$$



 31 33  0  0  0  0  0  0  0  0999 V2000
   90.1843   97.4287  -43.8741 C   0  0  0  0  0  0  0  0  0  0  0  0
   89.6001   97.4142  -45.1537 C   0  0  0  0  0  0  0  0  0  0  0  0
   89.7955   96.3343  -46.0190 C   0  0  0  0  0  0  0  0  0  0  0  0
   90.5779   95.2505  -45.6197 C   0  0  0  0  0  0  0  0  0  0  0  0
   91.1565   95.2473  -44.3494 C   0  0  0  0  0  0  0  0  0  0  0  0
   92.3115   93.5975  -43.7868 I   0  0  0  0  0  0  0  0  0  0  0  0
   90.9568   96.3271  -43.4792 C   0  0  0  0  0  0  0  0  0  0  0  0
   91.4938   96.3319  -42.2192 O   0  0  0  0  0  0  0  0  0  0  0  0
   92.0142   95.6088  -41.9290 H   0  0  0  0  0  0  0  0  0  0  0  0
   89.1985   96.3420  -47.3185 C   0  0  0  0  0  0  0  0  0  0  0  0
   88.7052   96.3365  -48.4136 C   0  0  0  0  0  0  0  0  0  0  0  0
   88.1121   96.3131  -49.7559 C   0  0  0  0  0  0  0  0  0  0  0  0
   89.0788   95.9555  -50.7459 O   0  0  0  0  0  0  0  0  0  0  0  0
   89.1428   94.6518  -51.1547 C   0  0  0  0  0  0  0  0  0  0  0  0
   89.9584   94.4337  -52.2690 C   0  0  0  0  0  0  0  0  0  0  0  0
   90.1211   93.1506  -52.7940 C   0  0  0  0  0  0  0  0  0  0  0  0
   89.4696   92.0720  -52.2021 C   0  0  0  0  0  0  0  0  0  0  0  0
   88.6608   92.2792  -51.0863 C   0  0  0  0  0  0  0  0  0  0  0  0
   88.4980   93.5657  -50.5614 C   0  0  0  0  0  0  0  0  0  0  0  0
   89.9850   98.6286  -42.9712 C   0  0  0  0  0  0  0  0  0  0  0  0
   92.6644  102.0381  -43.2797 C   0  0  0  0  0  0  0  0  0  0  0  0
   91.1502  102.2516  -43.0722 C   0  0  0  0  0  0  0  0  0  0  0  0
   90.4608  100.9903  -42.5481 C   0  0  0  0  0  0  0  0  0  0  0  0
   90.6651   99.8495  -43.4453 N   0  0  0  0  0  0  0  0  0  0  0  0
   92.0949   99.5851  -43.6320 C   0  0  0  0  0  0  0  0  0  0  0  0
   92.8344  100.8036  -44.1878 C   0  0  0  0  0  0  0  0  0  0  0  0
   93.2880  103.2921  -43.7948 N   0  0  0  0  0  0  0  0  0  0  0  0
   92.7173  103.9967  -46.0830 C   0  0  0  0  0  0  0  0  0  0  0  0
   92.3336  104.0710  -44.6107 C   0  0  0  0  0  0  0  0  0  0  0  0
   93.9141  104.1207  -42.7497 C   0  0  0  0  0  0  0  0  0  0  0  0
   95.4423  104.1108  -42.7750 C   0  0  0  0  0  0  0  0  0  0  0  0
 28 29  1  0
 29 27  1  0
 27 30  1  0
 30 31  1  0
 27 21  1  0
 21 22  1  0
 22 23  1  0
 23 24  1  0
 24 20  1  0
 20  1  1  0
  1  2  2  0
  2  3  1  0
  3 10  1  0
 10 11  3  0
 11 12  1  0
 12 13  1  0
 13 14  1  0
 14 15  2  0
 15 16  1  0
 16 17  2  0
 17 18  1  0
 18 19  2  0
  3  4  2  0
  4  5  1  0
  5  6  1  0
  5  7  2  0
  7  8  1  0
 24 25  1  0
 25 26  1  0
 26 21  1  0
  7  1  1  0
 19 14  1  0
  8  9  1  0
M  END
> <minimizedAffinity>
-4.69911

> <CNNscore>
0.3601301312

> <CNNaffinity>
5.1088948250

> <CNN_VS>
1.8398669958

> <CNNaffinity_variance>
0.3614583910

$$$$



 31 33  0  0  0  0  0  0  0  0999 V2000
   85.0627   98.0577  -46.0640 C   0  0  0  0  0  0  0  0  0  0  0  0
   86.3854   97.7383  -45.7071 C   0  0  0  0  0  0  0  0  0  0  0  0
   87.2026   97.0015  -46.5687 C   0  0  0  0  0  0  0  0  0  0  0  0
   86.7116   96.5719  -47.8019 C   0  0  0  0  0  0  0  0  0  0  0  0
   85.4039   96.8893  -48.1730 C   0  0  0  0  0  0  0  0  0  0  0  0
   84.7124   96.2362  -50.0352 I   0  0  0  0  0  0  0  0  0  0  0  0
   84.5856   97.6323  -47.3121 C   0  0  0  0  0  0  0  0  0  0  0  0
   83.3086   97.9767  -47.6681 O   0  0  0  0  0  0  0  0  0  0  0  0
   82.9640   97.7059  -48.4963 H   0  0  0  0  0  0  0  0  0  0  0  0
   88.5422   96.6812  -46.1842 C   0  0  0  0  0  0  0  0  0  0  0  0
   89.6689   96.4259  -45.8553 C   0  0  0  0  0  0  0  0  0  0  0  0
   91.0468   96.1315  -45.4445 C   0  0  0  0  0  0  0  0  0  0  0  0
   91.1729   94.7893  -44.9700 O   0  0  0  0  0  0  0  0  0  0  0  0
   91.6924   94.5846  -43.7214 C   0  0  0  0  0  0  0  0  0  0  0  0
   92.5770   93.5056  -43.6319 C   0  0  0  0  0  0  0  0  0  0  0  0
   93.1867   93.1815  -42.4188 C   0  0  0  0  0  0  0  0  0  0  0  0
   92.9177   93.9409  -41.2834 C   0  0  0  0  0  0  0  0  0  0  0  0
   92.0431   95.0229  -41.3652 C   0  0  0  0  0  0  0  0  0  0  0  0
   91.4321   95.3464  -42.5814 C   0  0  0  0  0  0  0  0  0  0  0  0
   84.1882   98.8265  -45.0950 C   0  0  0  0  0  0  0  0  0  0  0  0
   84.9630  102.7929  -43.4930 C   0  0  0  0  0  0  0  0  0  0  0  0
   85.6476  102.3299  -44.7963 C   0  0  0  0  0  0  0  0  0  0  0  0
   84.9313  101.1333  -45.4253 C   0  0  0  0  0  0  0  0  0  0  0  0
   84.8522  100.0013  -44.4977 N   0  0  0  0  0  0  0  0  0  0  0  0
   84.1657  100.3894  -43.2619 C   0  0  0  0  0  0  0  0  0  0  0  0
   84.8575  101.5640  -42.5676 C   0  0  0  0  0  0  0  0  0  0  0  0
   85.7001  103.9558  -42.9177 N   0  0  0  0  0  0  0  0  0  0  0  0
   86.0355  106.0384  -44.1856 C   0  0  0  0  0  0  0  0  0  0  0  0
   86.5356  104.6209  -43.9388 C   0  0  0  0  0  0  0  0  0  0  0  0
   84.8383  104.9174  -42.2081 C   0  0  0  0  0  0  0  0  0  0  0  0
   85.0900  104.9909  -40.7024 C   0  0  0  0  0  0  0  0  0  0  0  0
 28 29  1  0
 29 27  1  0
 27 30  1  0
 30 31  1  0
 27 21  1  0
 21 22  1  0
 22 23  1  0
 23 24  1  0
 24 20  1  0
 20  1  1  0
  1  2  2  0
  2  3  1  0
  3 10  1  0
 10 11  3  0
 11 12  1  0
 12 13  1  0
 13 14  1  0
 14 15  2  0
 15 16  1  0
 16 17  2  0
 17 18  1  0
 18 19  2  0
  3  4  2  0
  4  5  1  0
  5  6  1  0
  5  7  2  0
  7  8  1  0
 24 25  1  0
 25 26  1  0
 26 21  1  0
  7  1  1  0
 19 14  1  0
  8  9  1  0
M  END
> <minimizedAffinity>
-4.62420

> <CNNscore>
0.3427931070

> <CNNaffinity>
4.7223968506

> <CNN_VS>
1.6188050508

> <CNNaffinity_variance>
0.5204797387

$$$$



 31 33  0  0  0  0  0  0  0  0999 V2000
   84.9854   96.6653  -47.2366 C   0  0  0  0  0  0  0  0  0  0  0  0
   86.3430   96.6160  -46.8712 C   0  0  0  0  0  0  0  0  0  0  0  0
   86.8877   97.5684  -46.0056 C   0  0  0  0  0  0  0  0  0  0  0  0
   86.0845   98.5860  -45.4902 C   0  0  0  0  0  0  0  0  0  0  0  0
   84.7336   98.6421  -45.8372 C   0  0  0  0  0  0  0  0  0  0  0  0
   83.5631  100.1766  -45.0325 I   0  0  0  0  0  0  0  0  0  0  0  0
   84.1854   97.6846  -46.7008 C   0  0  0  0  0  0  0  0  0  0  0  0
   82.8568   97.7063  -47.0329 O   0  0  0  0  0  0  0  0  0  0  0  0
   82.2989   98.3761  -46.6893 H   0  0  0  0  0  0  0  0  0  0  0  0
   88.2719   97.5047  -45.6519 C   0  0  0  0  0  0  0  0  0  0  0  0
   89.4309   97.4439  -45.3423 C   0  0  0  0  0  0  0  0  0  0  0  0
   90.8420   97.3588  -44.9483 C   0  0  0  0  0  0  0  0  0  0  0  0
   90.9780   96.9634  -43.5817 O   0  0  0  0  0  0  0  0  0  0  0  0
   91.3807   95.6850  -43.3090 C   0  0  0  0  0  0  0  0  0  0  0  0
   91.5834   95.4187  -41.9516 C   0  0  0  0  0  0  0  0  0  0  0  0
   91.9918   94.1536  -41.5258 C   0  0  0  0  0  0  0  0  0  0  0  0
   92.1966   93.1411  -42.4590 C   0  0  0  0  0  0  0  0  0  0  0  0
   91.9895   93.3956  -43.8135 C   0  0  0  0  0  0  0  0  0  0  0  0
   91.5807   94.6640  -44.2391 C   0  0  0  0  0  0  0  0  0  0  0  0
   84.4307   95.6410  -48.2050 C   0  0  0  0  0  0  0  0  0  0  0  0
   83.6269   91.4719  -47.2713 C   0  0  0  0  0  0  0  0  0  0  0  0
   83.8619   92.4941  -46.1393 C   0  0  0  0  0  0  0  0  0  0  0  0
   83.6796   93.9345  -46.6218 C   0  0  0  0  0  0  0  0  0  0  0  0
   84.5718   94.2469  -47.7419 N   0  0  0  0  0  0  0  0  0  0  0  0
   84.3467   93.3237  -48.8583 C   0  0  0  0  0  0  0  0  0  0  0  0
   84.5479   91.8648  -48.4439 C   0  0  0  0  0  0  0  0  0  0  0  0
   83.8209   90.0863  -46.7524 N   0  0  0  0  0  0  0  0  0  0  0  0
   83.8967   89.3322  -44.4108 C   0  0  0  0  0  0  0  0  0  0  0  0
   84.6286   90.0839  -45.5151 C   0  0  0  0  0  0  0  0  0  0  0  0
   82.5674   89.3299  -46.5862 C   0  0  0  0  0  0  0  0  0  0  0  0
   82.4507   88.1049  -47.4927 C   0  0  0  0  0  0  0  0  0  0  0  0
 28 29  1  0
 29 27  1  0
 27 30  1  0
 30 31  1  0
 27 21  1  0
 21 22  1  0
 22 23  1  0
 23 24  1  0
 24 20  1  0
 20  1  1  0
  1  2  2  0
  2  3  1  0
  3 10  1  0
 10 11  3  0
 11 12  1  0
 12 13  1  0
 13 14  1  0
 14 15  2  0
 15 16  1  0
 16 17  2  0
 17 18  1  0
 18 19  2  0
  3  4  2  0
  4  5  1  0
  5  6  1  0
  5  7  2  0
  7  8  1  0
 24 25  1  0
 25 26  1  0
 26 21  1  0
  7  1  1  0
 19 14  1  0
  8  9  1  0
M  END
> <minimizedAffinity>
-5.10281

> <CNNscore>
0.3039623797

> <CNNaffinity>
4.8124289513

> <CNN_VS>
1.4627974033

> <CNNaffinity_variance>
0.7480016351

$$$$
