


 39 42  0  0  0  0  0  0  0  0999 V2000
    3.7267    7.6782   23.0004 C   0  0  0  0  0  0  0  0  0  0  0  0
    3.1442    8.6743   23.7945 C   0  0  0  0  0  0  0  0  0  0  0  0
    3.9325    9.4154   24.6687 C   0  0  0  0  0  0  0  0  0  0  0  0
    3.2142   10.6495   25.6297 Cl  0  0  0  0  0  0  0  0  0  0  0  0
    5.3033    9.1918   24.7525 C   0  0  0  0  0  0  0  0  0  0  0  0
    5.8956    8.1907   23.9661 C   0  0  0  0  0  0  0  0  0  0  0  0
    5.1085    7.4134   23.0855 C   0  0  0  0  0  0  0  0  0  0  0  0
    7.3650    7.9468   24.0786 C   0  0  0  0  0  0  0  0  0  0  0  0
    7.9628    7.5112   23.1003 O   0  0  0  0  0  0  0  0  0  0  0  0
    7.9127    8.1993   25.3151 N   0  0  0  0  0  0  0  0  0  0  0  0
    7.2863    8.5054   26.0103 H   0  0  0  0  0  0  0  0  0  0  0  0
    9.2469    8.0749   25.7055 C   0  0  0  0  0  0  0  0  0  0  0  0
    9.6918    7.2509   26.7240 C   0  0  0  0  0  0  0  0  0  0  0  0
   11.0541    7.2296   27.0004 C   0  0  0  0  0  0  0  0  0  0  0  0
   11.4960    6.4362   27.9881 F   0  0  0  0  0  0  0  0  0  0  0  0
   11.9408    8.0091   26.2746 C   0  0  0  0  0  0  0  0  0  0  0  0
   13.6247    8.0039   26.5932 Cl  0  0  0  0  0  0  0  0  0  0  0  0
   11.4087    8.7977   25.2759 C   0  0  0  0  0  0  0  0  0  0  0  0
   10.0855    8.8442   24.9762 N   0  0  0  0  0  0  0  0  0  0  0  0
    5.7420    6.4301   22.2851 N   0  0  0  0  0  0  0  0  0  0  0  0
    5.4250    5.0795   22.2406 C   0  0  0  0  0  0  0  0  0  0  0  0
    4.6301    4.5635   23.0229 O   0  0  0  0  0  0  0  0  0  0  0  0
    6.4773    6.7342   21.7052 H   0  0  0  0  0  0  0  0  0  0  0  0
    6.1890    4.3003   21.2617 C   0  0  0  0  0  0  0  0  0  0  0  0
    6.0931    2.5831   21.2349 S   0  0  0  0  0  0  0  0  0  0  0  0
    7.1862    2.4630   19.9383 C   0  0  0  0  0  0  0  0  0  0  0  0
    7.6393    3.6938   19.4991 C   0  0  0  0  0  0  0  0  0  0  0  0
    7.0576    4.7564   20.2808 C   0  0  0  0  0  0  0  0  0  0  0  0
    7.4336    6.4074   19.9780 Cl  0  0  0  0  0  0  0  0  0  0  0  0
    8.6135    3.8648   18.3545 C   0  0  0  0  0  0  0  0  0  0  0  0
    8.9122    2.6707   17.5660 N   0  0  0  0  0  0  0  0  0  0  0  0
    9.9831    1.8135   18.0413 C   0  0  0  0  0  0  0  0  0  0  0  0
    8.0668    2.2807   16.5638 C   0  0  0  0  0  0  0  0  0  0  0  0
    7.0032    2.8935   16.1548 N   0  0  0  0  0  0  0  0  0  0  0  0
    6.5193    2.0755   15.0409 C   0  0  0  0  0  0  0  0  0  0  0  0
    7.2897    0.7843   15.1462 C   0  0  0  0  0  0  0  0  0  0  0  0
    8.4111    1.1160   15.9475 O   0  0  0  0  0  0  0  0  0  0  0  0
    1.7242    6.5983   22.4443 C   0  0  0  0  0  0  0  0  0  0  0  0
    2.9936    7.0818   22.0040 O   0  0  0  0  0  0  0  0  0  0  0  0
 38 39  1  0
 39  1  1  0
  1  2  2  0
  2  3  1  0
  3  4  1  0
  3  5  2  0
  5  6  1  0
  6  8  1  0
  8  9  2  0
  8 10  1  0
 10 12  1  0
 12 13  2  0
 13 14  1  0
 14 15  1  0
 14 16  2  0
 16 17  1  0
 16 18  1  0
 18 19  2  0
  6  7  2  0
  7 20  1  0
 20 21  1  0
 21 22  2  0
 21 24  1  0
 24 25  1  0
 25 26  1  0
 26 27  2  0
 27 30  1  0
 30 31  1  0
 31 32  1  0
 31 33  1  0
 33 34  2  0
 34 35  1  0
 35 36  1  0
 36 37  1  0
 27 28  1  0
 28 29  1  0
  7  1  1  0
 28 24  2  0
 19 12  1  0
 37 33  1  0
 10 11  1  0
 20 23  1  0
M  END
> <minimizedAffinity>
-9.54646

> <CNNscore>
0.9878832698

> <CNNaffinity>
8.8088684082

> <CNN_VS>
8.7021341324

> <CNNaffinity_variance>
0.0084488578

$$$$



 39 42  0  0  0  0  0  0  0  0999 V2000
    3.2879    7.4199   23.1732 C   0  0  0  0  0  0  0  0  0  0  0  0
    2.7097    8.3651   24.0302 C   0  0  0  0  0  0  0  0  0  0  0  0
    3.5182    9.1506   24.8451 C   0  0  0  0  0  0  0  0  0  0  0  0
    2.8032   10.3220   25.8838 Cl  0  0  0  0  0  0  0  0  0  0  0  0
    4.9033    9.0222   24.8071 C   0  0  0  0  0  0  0  0  0  0  0  0
    5.4922    8.0727   23.9569 C   0  0  0  0  0  0  0  0  0  0  0  0
    4.6867    7.2513   23.1350 C   0  0  0  0  0  0  0  0  0  0  0  0
    6.9790    7.9308   23.9387 C   0  0  0  0  0  0  0  0  0  0  0  0
    7.5153    7.5173   22.9160 O   0  0  0  0  0  0  0  0  0  0  0  0
    7.6167    8.2438   25.1168 N   0  0  0  0  0  0  0  0  0  0  0  0
    7.0357    8.5205   25.8618 H   0  0  0  0  0  0  0  0  0  0  0  0
    8.9860    8.2174   25.3860 C   0  0  0  0  0  0  0  0  0  0  0  0
    9.9520    8.8116   24.5936 C   0  0  0  0  0  0  0  0  0  0  0  0
   11.2803    8.7036   24.9894 C   0  0  0  0  0  0  0  0  0  0  0  0
   12.2254    9.2737   24.2266 F   0  0  0  0  0  0  0  0  0  0  0  0
   11.6261    8.0228   26.1460 C   0  0  0  0  0  0  0  0  0  0  0  0
   13.2545    7.8729   26.6583 Cl  0  0  0  0  0  0  0  0  0  0  0  0
   10.5970    7.4646   26.8753 C   0  0  0  0  0  0  0  0  0  0  0  0
    9.2893    7.5500   26.5216 N   0  0  0  0  0  0  0  0  0  0  0  0
    5.3143    6.3225   22.2675 N   0  0  0  0  0  0  0  0  0  0  0  0
    5.1036    4.9507   22.2433 C   0  0  0  0  0  0  0  0  0  0  0  0
    4.4343    4.3721   23.0961 O   0  0  0  0  0  0  0  0  0  0  0  0
    5.9614    6.6850   21.6202 H   0  0  0  0  0  0  0  0  0  0  0  0
    5.8264    4.2360   21.1870 C   0  0  0  0  0  0  0  0  0  0  0  0
    6.4636    2.6627   21.4654 S   0  0  0  0  0  0  0  0  0  0  0  0
    7.1049    2.5579   19.8943 C   0  0  0  0  0  0  0  0  0  0  0  0
    6.8551    3.6856   19.1334 C   0  0  0  0  0  0  0  0  0  0  0  0
    6.1158    4.6591   19.8979 C   0  0  0  0  0  0  0  0  0  0  0  0
    5.6587    6.1747   19.2248 Cl  0  0  0  0  0  0  0  0  0  0  0  0
    7.3117    3.8434   17.7000 C   0  0  0  0  0  0  0  0  0  0  0  0
    6.2870    3.6991   16.6676 N   0  0  0  0  0  0  0  0  0  0  0  0
    5.2780    2.6759   16.8737 C   0  0  0  0  0  0  0  0  0  0  0  0
    6.1708    4.6381   15.6797 C   0  0  0  0  0  0  0  0  0  0  0  0
    5.9910    5.9109   15.8276 N   0  0  0  0  0  0  0  0  0  0  0  0
    5.9921    6.4383   14.4616 C   0  0  0  0  0  0  0  0  0  0  0  0
    5.8655    5.2236   13.5781 C   0  0  0  0  0  0  0  0  0  0  0  0
    6.2601    4.1476   14.4123 O   0  0  0  0  0  0  0  0  0  0  0  0
    1.1512    7.2116   22.2369 C   0  0  0  0  0  0  0  0  0  0  0  0
    2.5136    6.7838   22.2342 O   0  0  0  0  0  0  0  0  0  0  0  0
 38 39  1  0
 39  1  1  0
  1  2  2  0
  2  3  1  0
  3  4  1  0
  3  5  2  0
  5  6  1  0
  6  8  1  0
  8  9  2  0
  8 10  1  0
 10 12  1  0
 12 13  2  0
 13 14  1  0
 14 15  1  0
 14 16  2  0
 16 17  1  0
 16 18  1  0
 18 19  2  0
  6  7  2  0
  7 20  1  0
 20 21  1  0
 21 22  2  0
 21 24  1  0
 24 25  1  0
 25 26  1  0
 26 27  2  0
 27 30  1  0
 30 31  1  0
 31 32  1  0
 31 33  1  0
 33 34  2  0
 34 35  1  0
 35 36  1  0
 36 37  1  0
 27 28  1  0
 28 29  1  0
  7  1  1  0
 28 24  2  0
 19 12  1  0
 37 33  1  0
 10 11  1  0
 20 23  1  0
M  END
> <minimizedAffinity>
-8.33139

> <CNNscore>
0.9138063192

> <CNNaffinity>
8.2764196396

> <CNN_VS>
7.5630445480

> <CNNaffinity_variance>
0.0597147234

$$$$



 39 42  0  0  0  0  0  0  0  0999 V2000
    2.5829    5.1582   23.3605 C   0  0  0  0  0  0  0  0  0  0  0  0
    1.6098    5.7527   24.1740 C   0  0  0  0  0  0  0  0  0  0  0  0
    1.8403    7.0069   24.7296 C   0  0  0  0  0  0  0  0  0  0  0  0
    0.6341    7.7397   25.7146 Cl  0  0  0  0  0  0  0  0  0  0  0  0
    3.0242    7.6912   24.4720 C   0  0  0  0  0  0  0  0  0  0  0  0
    4.0089    7.1007   23.6639 C   0  0  0  0  0  0  0  0  0  0  0  0
    3.8018    5.8184   23.1056 C   0  0  0  0  0  0  0  0  0  0  0  0
    5.2837    7.8368   23.4100 C   0  0  0  0  0  0  0  0  0  0  0  0
    5.3457    8.5825   22.4383 O   0  0  0  0  0  0  0  0  0  0  0  0
    6.3071    7.5661   24.2888 N   0  0  0  0  0  0  0  0  0  0  0  0
    6.1083    6.9077   24.9932 H   0  0  0  0  0  0  0  0  0  0  0  0
    7.5924    8.1099   24.3045 C   0  0  0  0  0  0  0  0  0  0  0  0
    8.3426    8.3148   25.4489 C   0  0  0  0  0  0  0  0  0  0  0  0
    9.6115    8.8655   25.3095 C   0  0  0  0  0  0  0  0  0  0  0  0
   10.3463    9.0711   26.4131 F   0  0  0  0  0  0  0  0  0  0  0  0
   10.1112    9.1968   24.0601 C   0  0  0  0  0  0  0  0  0  0  0  0
   11.6709    9.8774   23.8577 Cl  0  0  0  0  0  0  0  0  0  0  0  0
    9.2948    8.9551   22.9749 C   0  0  0  0  0  0  0  0  0  0  0  0
    8.0517    8.4182   23.0713 N   0  0  0  0  0  0  0  0  0  0  0  0
    4.8040    5.2630   22.2713 N   0  0  0  0  0  0  0  0  0  0  0  0
    4.9840    5.5241   20.9199 C   0  0  0  0  0  0  0  0  0  0  0  0
    4.1767    6.1764   20.2620 O   0  0  0  0  0  0  0  0  0  0  0  0
    5.4326    4.6318   22.6903 H   0  0  0  0  0  0  0  0  0  0  0  0
    6.1520    4.8740   20.3181 C   0  0  0  0  0  0  0  0  0  0  0  0
    7.4955    5.8023   19.7778 S   0  0  0  0  0  0  0  0  0  0  0  0
    8.3361    4.4233   19.2467 C   0  0  0  0  0  0  0  0  0  0  0  0
    7.6380    3.2491   19.4637 C   0  0  0  0  0  0  0  0  0  0  0  0
    6.3648    3.5236   20.0820 C   0  0  0  0  0  0  0  0  0  0  0  0
    5.2623    2.2623   20.4723 Cl  0  0  0  0  0  0  0  0  0  0  0  0
    8.1665    1.8822   19.0891 C   0  0  0  0  0  0  0  0  0  0  0  0
    8.7268    1.7433   17.7461 N   0  0  0  0  0  0  0  0  0  0  0  0
   10.1211    1.3512   17.6470 C   0  0  0  0  0  0  0  0  0  0  0  0
    7.9041    1.7649   16.6534 C   0  0  0  0  0  0  0  0  0  0  0  0
    6.9363    2.5911   16.4193 N   0  0  0  0  0  0  0  0  0  0  0  0
    6.4338    2.1967   15.1017 C   0  0  0  0  0  0  0  0  0  0  0  0
    7.0566    0.8498   14.8377 C   0  0  0  0  0  0  0  0  0  0  0  0
    8.1587    0.7988   15.7279 O   0  0  0  0  0  0  0  0  0  0  0  0
    2.4049    2.8240   23.4342 C   0  0  0  0  0  0  0  0  0  0  0  0
    2.2833    4.0166   22.6584 O   0  0  0  0  0  0  0  0  0  0  0  0
 38 39  1  0
 39  1  1  0
  1  2  2  0
  2  3  1  0
  3  4  1  0
  3  5  2  0
  5  6  1  0
  6  8  1  0
  8  9  2  0
  8 10  1  0
 10 12  1  0
 12 13  2  0
 13 14  1  0
 14 15  1  0
 14 16  2  0
 16 17  1  0
 16 18  1  0
 18 19  2  0
  6  7  2  0
  7 20  1  0
 20 21  1  0
 21 22  2  0
 21 24  1  0
 24 25  1  0
 25 26  1  0
 26 27  2  0
 27 30  1  0
 30 31  1  0
 31 32  1  0
 31 33  1  0
 33 34  2  0
 34 35  1  0
 35 36  1  0
 36 37  1  0
 27 28  1  0
 28 29  1  0
  7  1  1  0
 28 24  2  0
 19 12  1  0
 37 33  1  0
 10 11  1  0
 20 23  1  0
M  END
> <minimizedAffinity>
-7.89871

> <CNNscore>
0.7870179415

> <CNNaffinity>
8.1218328476

> <CNN_VS>
6.3920283318

> <CNNaffinity_variance>
0.0228285119

$$$$



 39 42  0  0  0  0  0  0  0  0999 V2000
    2.3932    8.5438   22.1240 C   0  0  0  0  0  0  0  0  0  0  0  0
    1.7301    9.2973   23.1010 C   0  0  0  0  0  0  0  0  0  0  0  0
    2.3780    9.6186   24.2892 C   0  0  0  0  0  0  0  0  0  0  0  0
    1.5641   10.5588   25.4790 Cl  0  0  0  0  0  0  0  0  0  0  0  0
    3.6905    9.2147   24.5143 C   0  0  0  0  0  0  0  0  0  0  0  0
    4.3614    8.4529   23.5443 C   0  0  0  0  0  0  0  0  0  0  0  0
    3.7136    8.0996   22.3382 C   0  0  0  0  0  0  0  0  0  0  0  0
    5.7635    8.0089   23.8052 C   0  0  0  0  0  0  0  0  0  0  0  0
    6.0239    6.8131   23.7236 O   0  0  0  0  0  0  0  0  0  0  0  0
    6.6414    9.0053   24.1648 N   0  0  0  0  0  0  0  0  0  0  0  0
    6.2631    9.9121   24.2268 H   0  0  0  0  0  0  0  0  0  0  0  0
    8.0021    8.8889   24.4525 C   0  0  0  0  0  0  0  0  0  0  0  0
    9.0138    9.4569   23.6987 C   0  0  0  0  0  0  0  0  0  0  0  0
   10.3269    9.2565   24.1091 C   0  0  0  0  0  0  0  0  0  0  0  0
   11.3159    9.8005   23.3836 F   0  0  0  0  0  0  0  0  0  0  0  0
   10.6136    8.5118   25.2421 C   0  0  0  0  0  0  0  0  0  0  0  0
   12.2220    8.2476   25.7715 Cl  0  0  0  0  0  0  0  0  0  0  0  0
    9.5421    7.9859   25.9334 C   0  0  0  0  0  0  0  0  0  0  0  0
    8.2475    8.1609   25.5645 N   0  0  0  0  0  0  0  0  0  0  0  0
    4.4288    7.3539   21.3679 N   0  0  0  0  0  0  0  0  0  0  0  0
    5.1549    7.8738   20.3052 C   0  0  0  0  0  0  0  0  0  0  0  0
    5.1300    9.0668   20.0117 O   0  0  0  0  0  0  0  0  0  0  0  0
    4.4087    6.3736   21.4561 H   0  0  0  0  0  0  0  0  0  0  0  0
    5.8655    6.8764   19.4995 C   0  0  0  0  0  0  0  0  0  0  0  0
    5.3494    6.5055   17.9011 S   0  0  0  0  0  0  0  0  0  0  0  0
    6.5795    5.3515   17.6866 C   0  0  0  0  0  0  0  0  0  0  0  0
    7.3975    5.2229   18.7944 C   0  0  0  0  0  0  0  0  0  0  0  0
    6.9689    6.1105   19.8466 C   0  0  0  0  0  0  0  0  0  0  0  0
    7.7866    6.1763   21.3586 Cl  0  0  0  0  0  0  0  0  0  0  0  0
    8.5704    4.2699   18.8599 C   0  0  0  0  0  0  0  0  0  0  0  0
    8.2542    2.8428   18.8616 N   0  0  0  0  0  0  0  0  0  0  0  0
    7.4707    2.3389   19.9751 C   0  0  0  0  0  0  0  0  0  0  0  0
    8.4990    2.0840   17.7500 C   0  0  0  0  0  0  0  0  0  0  0  0
    9.6018    1.4819   17.4413 N   0  0  0  0  0  0  0  0  0  0  0  0
    9.2957    0.7830   16.1915 C   0  0  0  0  0  0  0  0  0  0  0  0
    7.9893    1.3747   15.7276 C   0  0  0  0  0  0  0  0  0  0  0  0
    7.4455    1.9679   16.8947 O   0  0  0  0  0  0  0  0  0  0  0  0
    0.4331    8.1062   20.9191 C   0  0  0  0  0  0  0  0  0  0  0  0
    1.8318    8.3909   20.8801 O   0  0  0  0  0  0  0  0  0  0  0  0
 38 39  1  0
 39  1  1  0
  1  2  2  0
  2  3  1  0
  3  4  1  0
  3  5  2  0
  5  6  1  0
  6  8  1  0
  8  9  2  0
  8 10  1  0
 10 12  1  0
 12 13  2  0
 13 14  1  0
 14 15  1  0
 14 16  2  0
 16 17  1  0
 16 18  1  0
 18 19  2  0
  6  7  2  0
  7 20  1  0
 20 21  1  0
 21 22  2  0
 21 24  1  0
 24 25  1  0
 25 26  1  0
 26 27  2  0
 27 30  1  0
 30 31  1  0
 31 32  1  0
 31 33  1  0
 33 34  2  0
 34 35  1  0
 35 36  1  0
 36 37  1  0
 27 28  1  0
 28 29  1  0
  7  1  1  0
 28 24  2  0
 19 12  1  0
 37 33  1  0
 10 11  1  0
 20 23  1  0
M  END
> <minimizedAffinity>
-7.82993

> <CNNscore>
0.7680885792

> <CNNaffinity>
8.2070856094

> <CNN_VS>
6.3037686348

> <CNNaffinity_variance>
0.1249490082

$$$$



 39 42  0  0  0  0  0  0  0  0999 V2000
    4.4888    7.4039   23.7156 C   0  0  0  0  0  0  0  0  0  0  0  0
    3.6151    8.1953   24.4722 C   0  0  0  0  0  0  0  0  0  0  0  0
    2.3395    7.7292   24.7732 C   0  0  0  0  0  0  0  0  0  0  0  0
    1.2763    8.6988   25.7174 Cl  0  0  0  0  0  0  0  0  0  0  0  0
    1.9234    6.4721   24.3456 C   0  0  0  0  0  0  0  0  0  0  0  0
    2.7890    5.6742   23.5805 C   0  0  0  0  0  0  0  0  0  0  0  0
    4.0826    6.1380   23.2477 C   0  0  0  0  0  0  0  0  0  0  0  0
    2.3244    4.3344   23.1111 C   0  0  0  0  0  0  0  0  0  0  0  0
    1.3002    4.2721   22.4393 O   0  0  0  0  0  0  0  0  0  0  0  0
    3.0860    3.2664   23.5259 N   0  0  0  0  0  0  0  0  0  0  0  0
    3.8564    3.4826   24.0995 H   0  0  0  0  0  0  0  0  0  0  0  0
    2.9011    1.9143   23.2337 C   0  0  0  0  0  0  0  0  0  0  0  0
    2.8575    1.3878   21.9549 C   0  0  0  0  0  0  0  0  0  0  0  0
    2.6676    0.0174   21.8177 C   0  0  0  0  0  0  0  0  0  0  0  0
    2.6208   -0.5032   20.5820 F   0  0  0  0  0  0  0  0  0  0  0  0
    2.5291   -0.7977   22.9299 C   0  0  0  0  0  0  0  0  0  0  0  0
    2.2934   -2.4895   22.7915 Cl  0  0  0  0  0  0  0  0  0  0  0  0
    2.5885   -0.1869   24.1651 C   0  0  0  0  0  0  0  0  0  0  0  0
    2.7735    1.1466   24.3388 N   0  0  0  0  0  0  0  0  0  0  0  0
    4.9417    5.2960   22.4980 N   0  0  0  0  0  0  0  0  0  0  0  0
    5.0271    5.2343   21.1139 C   0  0  0  0  0  0  0  0  0  0  0  0
    4.2381    5.8233   20.3786 O   0  0  0  0  0  0  0  0  0  0  0  0
    5.5346    4.6978   23.0077 H   0  0  0  0  0  0  0  0  0  0  0  0
    6.0611    4.3305   20.6012 C   0  0  0  0  0  0  0  0  0  0  0  0
    6.1800    2.7131   21.1744 S   0  0  0  0  0  0  0  0  0  0  0  0
    7.5187    2.3757   20.1821 C   0  0  0  0  0  0  0  0  0  0  0  0
    7.8996    3.4546   19.4050 C   0  0  0  0  0  0  0  0  0  0  0  0
    7.0484    4.5896   19.6617 C   0  0  0  0  0  0  0  0  0  0  0  0
    7.2763    6.0886   18.8493 Cl  0  0  0  0  0  0  0  0  0  0  0  0
    9.0569    3.4151   18.4317 C   0  0  0  0  0  0  0  0  0  0  0  0
    9.2104    2.1911   17.6475 N   0  0  0  0  0  0  0  0  0  0  0  0
   10.1560    1.2044   18.1372 C   0  0  0  0  0  0  0  0  0  0  0  0
    8.3354    1.9109   16.6340 C   0  0  0  0  0  0  0  0  0  0  0  0
    8.4264    0.9584   15.7631 N   0  0  0  0  0  0  0  0  0  0  0  0
    7.2104    1.0865   14.9574 C   0  0  0  0  0  0  0  0  0  0  0  0
    6.6455    2.4356   15.3219 C   0  0  0  0  0  0  0  0  0  0  0  0
    7.2599    2.7434   16.5618 O   0  0  0  0  0  0  0  0  0  0  0  0
    6.2619    8.6339   24.6258 C   0  0  0  0  0  0  0  0  0  0  0  0
    5.8046    7.7735   23.5820 O   0  0  0  0  0  0  0  0  0  0  0  0
 38 39  1  0
 39  1  1  0
  1  2  2  0
  2  3  1  0
  3  4  1  0
  3  5  2  0
  5  6  1  0
  6  8  1  0
  8  9  2  0
  8 10  1  0
 10 12  1  0
 12 13  2  0
 13 14  1  0
 14 15  1  0
 14 16  2  0
 16 17  1  0
 16 18  1  0
 18 19  2  0
  6  7  2  0
  7 20  1  0
 20 21  1  0
 21 22  2  0
 21 24  1  0
 24 25  1  0
 25 26  1  0
 26 27  2  0
 27 30  1  0
 30 31  1  0
 31 32  1  0
 31 33  1  0
 33 34  2  0
 34 35  1  0
 35 36  1  0
 36 37  1  0
 27 28  1  0
 28 29  1  0
  7  1  1  0
 28 24  2  0
 19 12  1  0
 37 33  1  0
 10 11  1  0
 20 23  1  0
M  END
> <minimizedAffinity>
-7.32215

> <CNNscore>
0.3504117727

> <CNNaffinity>
7.3424124718

> <CNN_VS>
2.5728678703

> <CNNaffinity_variance>
0.0149636986

$$$$



 39 42  0  0  0  0  0  0  0  0999 V2000
    6.2711    4.1414   19.6482 C   0  0  0  0  0  0  0  0  0  0  0  0
    5.7142    3.1868   18.7876 C   0  0  0  0  0  0  0  0  0  0  0  0
    4.4757    2.6255   19.0806 C   0  0  0  0  0  0  0  0  0  0  0  0
    3.7887    1.4654   18.0108 Cl  0  0  0  0  0  0  0  0  0  0  0  0
    3.7697    3.0151   20.2147 C   0  0  0  0  0  0  0  0  0  0  0  0
    4.3225    3.9659   21.0874 C   0  0  0  0  0  0  0  0  0  0  0  0
    5.5888    4.5339   20.8174 C   0  0  0  0  0  0  0  0  0  0  0  0
    3.5638    4.3622   22.3116 C   0  0  0  0  0  0  0  0  0  0  0  0
    3.8275    3.8027   23.3707 O   0  0  0  0  0  0  0  0  0  0  0  0
    2.5859    5.3106   22.1192 N   0  0  0  0  0  0  0  0  0  0  0  0
    2.4705    5.6302   21.1952 H   0  0  0  0  0  0  0  0  0  0  0  0
    1.7373    5.8753   23.0726 C   0  0  0  0  0  0  0  0  0  0  0  0
    0.6939    5.2062   23.6874 C   0  0  0  0  0  0  0  0  0  0  0  0
   -0.0679    5.8992   24.6212 C   0  0  0  0  0  0  0  0  0  0  0  0
   -1.0840    5.2606   25.2213 F   0  0  0  0  0  0  0  0  0  0  0  0
    0.2118    7.2211   24.9293 C   0  0  0  0  0  0  0  0  0  0  0  0
   -0.7101    8.1006   26.0753 Cl  0  0  0  0  0  0  0  0  0  0  0  0
    1.2722    7.8069   24.2696 C   0  0  0  0  0  0  0  0  0  0  0  0
    2.0389    7.1626   23.3533 N   0  0  0  0  0  0  0  0  0  0  0  0
    6.1055    5.5118   21.7039 N   0  0  0  0  0  0  0  0  0  0  0  0
    6.0405    6.8880   21.5354 C   0  0  0  0  0  0  0  0  0  0  0  0
    5.6389    7.4060   20.4959 O   0  0  0  0  0  0  0  0  0  0  0  0
    6.5534    5.1834   22.5168 H   0  0  0  0  0  0  0  0  0  0  0  0
    6.5858    7.6704   22.6488 C   0  0  0  0  0  0  0  0  0  0  0  0
    5.7535    7.7622   24.1513 S   0  0  0  0  0  0  0  0  0  0  0  0
    6.9333    8.7787   24.8333 C   0  0  0  0  0  0  0  0  0  0  0  0
    7.9677    9.0655   23.9611 C   0  0  0  0  0  0  0  0  0  0  0  0
    7.7520    8.4206   22.6898 C   0  0  0  0  0  0  0  0  0  0  0  0
    8.8669    8.5933   21.3913 Cl  0  0  0  0  0  0  0  0  0  0  0  0
    9.1465    9.9415   24.3233 C   0  0  0  0  0  0  0  0  0  0  0  0
   10.4359    9.2710   24.4798 N   0  0  0  0  0  0  0  0  0  0  0  0
   11.4841    9.6221   23.5386 C   0  0  0  0  0  0  0  0  0  0  0  0
   10.6905    8.5249   25.5977 C   0  0  0  0  0  0  0  0  0  0  0  0
   11.8380    8.0792   25.9961 N   0  0  0  0  0  0  0  0  0  0  0  0
   11.5442    7.3992   27.2592 C   0  0  0  0  0  0  0  0  0  0  0  0
   10.0426    7.2705   27.2888 C   0  0  0  0  0  0  0  0  0  0  0  0
    9.5950    8.2379   26.3542 O   0  0  0  0  0  0  0  0  0  0  0  0
    8.4276    3.9996   18.7456 C   0  0  0  0  0  0  0  0  0  0  0  0
    7.3931    4.8350   19.2664 O   0  0  0  0  0  0  0  0  0  0  0  0
 38 39  1  0
 39  1  1  0
  1  2  2  0
  2  3  1  0
  3  4  1  0
  3  5  2  0
  5  6  1  0
  6  8  1  0
  8  9  2  0
  8 10  1  0
 10 12  1  0
 12 13  2  0
 13 14  1  0
 14 15  1  0
 14 16  2  0
 16 17  1  0
 16 18  1  0
 18 19  2  0
  6  7  2  0
  7 20  1  0
 20 21  1  0
 21 22  2  0
 21 24  1  0
 24 25  1  0
 25 26  1  0
 26 27  2  0
 27 30  1  0
 30 31  1  0
 31 32  1  0
 31 33  1  0
 33 34  2  0
 34 35  1  0
 35 36  1  0
 36 37  1  0
 27 28  1  0
 28 29  1  0
  7  1  1  0
 28 24  2  0
 19 12  1  0
 37 33  1  0
 10 11  1  0
 20 23  1  0
M  END
> <minimizedAffinity>
-7.46365

> <CNNscore>
0.3210706413

> <CNNaffinity>
7.7993893623

> <CNN_VS>
2.5041549206

> <CNNaffinity_variance>
0.1453178674

$$$$



 39 42  0  0  0  0  0  0  0  0999 V2000
    3.2161    4.7698   23.4024 C   0  0  0  0  0  0  0  0  0  0  0  0
    2.1941    3.8415   23.6387 C   0  0  0  0  0  0  0  0  0  0  0  0
    2.3125    2.5407   23.1603 C   0  0  0  0  0  0  0  0  0  0  0  0
    1.0611    1.3999   23.4681 Cl  0  0  0  0  0  0  0  0  0  0  0  0
    3.4477    2.1415   22.4616 C   0  0  0  0  0  0  0  0  0  0  0  0
    4.4745    3.0663   22.2133 C   0  0  0  0  0  0  0  0  0  0  0  0
    4.3644    4.3984   22.6743 C   0  0  0  0  0  0  0  0  0  0  0  0
    5.6798    2.6313   21.4457 C   0  0  0  0  0  0  0  0  0  0  0  0
    6.6499    2.2112   22.0675 O   0  0  0  0  0  0  0  0  0  0  0  0
    5.6001    2.7895   20.0813 N   0  0  0  0  0  0  0  0  0  0  0  0
    4.7643    3.1826   19.7405 H   0  0  0  0  0  0  0  0  0  0  0  0
    6.5580    2.4611   19.1209 C   0  0  0  0  0  0  0  0  0  0  0  0
    7.8722    2.1343   19.4046 C   0  0  0  0  0  0  0  0  0  0  0  0
    8.7141    1.8273   18.3418 C   0  0  0  0  0  0  0  0  0  0  0  0
    9.9913    1.5118   18.6055 F   0  0  0  0  0  0  0  0  0  0  0  0
    8.2495    1.8455   17.0363 C   0  0  0  0  0  0  0  0  0  0  0  0
    9.2641    1.4724   15.7065 Cl  0  0  0  0  0  0  0  0  0  0  0  0
    6.9246    2.1798   16.8478 C   0  0  0  0  0  0  0  0  0  0  0  0
    6.0724    2.4841   17.8597 N   0  0  0  0  0  0  0  0  0  0  0  0
    5.4315    5.2992   22.4313 N   0  0  0  0  0  0  0  0  0  0  0  0
    5.5297    6.1871   21.3689 C   0  0  0  0  0  0  0  0  0  0  0  0
    4.7401    6.1774   20.4274 O   0  0  0  0  0  0  0  0  0  0  0  0
    6.1739    5.2947   23.0779 H   0  0  0  0  0  0  0  0  0  0  0  0
    6.7054    7.0619   21.4053 C   0  0  0  0  0  0  0  0  0  0  0  0
    7.6349    7.3474   19.9863 S   0  0  0  0  0  0  0  0  0  0  0  0
    8.7244    8.3614   20.8081 C   0  0  0  0  0  0  0  0  0  0  0  0
    8.4169    8.5100   22.1484 C   0  0  0  0  0  0  0  0  0  0  0  0
    7.2434    7.7439   22.4870 C   0  0  0  0  0  0  0  0  0  0  0  0
    6.6136    7.7207   24.0875 Cl  0  0  0  0  0  0  0  0  0  0  0  0
    9.2242    9.3647   23.1003 C   0  0  0  0  0  0  0  0  0  0  0  0
    8.9325    9.2114   24.5244 N   0  0  0  0  0  0  0  0  0  0  0  0
    7.5694    9.4680   24.9531 C   0  0  0  0  0  0  0  0  0  0  0  0
    9.8541    8.6365   25.3559 C   0  0  0  0  0  0  0  0  0  0  0  0
   11.1397    8.6265   25.2108 N   0  0  0  0  0  0  0  0  0  0  0  0
   11.6334    7.9298   26.4004 C   0  0  0  0  0  0  0  0  0  0  0  0
   10.4110    7.2936   27.0109 C   0  0  0  0  0  0  0  0  0  0  0  0
    9.3286    8.0159   26.4484 O   0  0  0  0  0  0  0  0  0  0  0  0
    1.9585    6.6894   23.8702 C   0  0  0  0  0  0  0  0  0  0  0  0
    3.1922    5.9891   24.0336 O   0  0  0  0  0  0  0  0  0  0  0  0
 38 39  1  0
 39  1  1  0
  1  2  2  0
  2  3  1  0
  3  4  1  0
  3  5  2  0
  5  6  1  0
  6  8  1  0
  8  9  2  0
  8 10  1  0
 10 12  1  0
 12 13  2  0
 13 14  1  0
 14 15  1  0
 14 16  2  0
 16 17  1  0
 16 18  1  0
 18 19  2  0
  6  7  2  0
  7 20  1  0
 20 21  1  0
 21 22  2  0
 21 24  1  0
 24 25  1  0
 25 26  1  0
 26 27  2  0
 27 30  1  0
 30 31  1  0
 31 32  1  0
 31 33  1  0
 33 34  2  0
 34 35  1  0
 35 36  1  0
 36 37  1  0
 27 28  1  0
 28 29  1  0
  7  1  1  0
 28 24  2  0
 19 12  1  0
 37 33  1  0
 10 11  1  0
 20 23  1  0
M  END
> <minimizedAffinity>
-9.13328

> <CNNscore>
0.1950275302

> <CNNaffinity>
6.9836421013

> <CNN_VS>
1.3620024920

> <CNNaffinity_variance>
0.2640156448

$$$$



 39 42  0  0  0  0  0  0  0  0999 V2000
    7.1781    4.6553   18.6113 C   0  0  0  0  0  0  0  0  0  0  0  0
    7.0538    4.0018   17.3787 C   0  0  0  0  0  0  0  0  0  0  0  0
    6.3654    4.6116   16.3351 C   0  0  0  0  0  0  0  0  0  0  0  0
    6.2304    3.8110   14.8175 Cl  0  0  0  0  0  0  0  0  0  0  0  0
    5.8107    5.8778   16.4942 C   0  0  0  0  0  0  0  0  0  0  0  0
    5.9235    6.5382   17.7281 C   0  0  0  0  0  0  0  0  0  0  0  0
    6.6026    5.9270   18.8071 C   0  0  0  0  0  0  0  0  0  0  0  0
    5.3075    7.8890   17.8929 C   0  0  0  0  0  0  0  0  0  0  0  0
    4.2106    7.9701   18.4356 O   0  0  0  0  0  0  0  0  0  0  0  0
    6.0290    8.9354   17.3664 N   0  0  0  0  0  0  0  0  0  0  0  0
    6.8748    8.6965   16.9227 H   0  0  0  0  0  0  0  0  0  0  0  0
    5.7097   10.2939   17.3837 C   0  0  0  0  0  0  0  0  0  0  0  0
    5.4175   11.0447   16.2588 C   0  0  0  0  0  0  0  0  0  0  0  0
    5.1154   12.3907   16.4308 C   0  0  0  0  0  0  0  0  0  0  0  0
    4.8334   13.1286   15.3463 F   0  0  0  0  0  0  0  0  0  0  0  0
    5.1044   12.9630   17.6930 C   0  0  0  0  0  0  0  0  0  0  0  0
    4.7364   14.6190   17.9355 Cl  0  0  0  0  0  0  0  0  0  0  0  0
    5.4050   12.1383   18.7570 C   0  0  0  0  0  0  0  0  0  0  0  0
    5.7036   10.8203   18.6286 N   0  0  0  0  0  0  0  0  0  0  0  0
    6.7229    6.6327   20.0305 N   0  0  0  0  0  0  0  0  0  0  0  0
    5.9698    6.4212   21.1771 C   0  0  0  0  0  0  0  0  0  0  0  0
    4.9968    5.6708   21.1968 O   0  0  0  0  0  0  0  0  0  0  0  0
    7.4060    7.3405   20.0708 H   0  0  0  0  0  0  0  0  0  0  0  0
    6.3592    7.2406   22.3285 C   0  0  0  0  0  0  0  0  0  0  0  0
    5.3780    7.2989   23.7401 S   0  0  0  0  0  0  0  0  0  0  0  0
    6.4284    8.3833   24.5220 C   0  0  0  0  0  0  0  0  0  0  0  0
    7.5276    8.7189   23.7525 C   0  0  0  0  0  0  0  0  0  0  0  0
    7.4741    8.0533   22.4748 C   0  0  0  0  0  0  0  0  0  0  0  0
    8.7018    8.2761   21.2907 Cl  0  0  0  0  0  0  0  0  0  0  0  0
    8.6163    9.6604   24.2180 C   0  0  0  0  0  0  0  0  0  0  0  0
    9.9371    9.0744   24.4393 N   0  0  0  0  0  0  0  0  0  0  0  0
   11.0208    9.5451   23.5957 C   0  0  0  0  0  0  0  0  0  0  0  0
   10.1657    8.2923   25.5381 C   0  0  0  0  0  0  0  0  0  0  0  0
    9.3047    7.5645   26.1730 N   0  0  0  0  0  0  0  0  0  0  0  0
   10.0884    6.9067   27.2205 C   0  0  0  0  0  0  0  0  0  0  0  0
   11.4005    7.6483   27.2449 C   0  0  0  0  0  0  0  0  0  0  0  0
   11.4513    8.3012   25.9876 O   0  0  0  0  0  0  0  0  0  0  0  0
    7.4482    3.0569   20.3017 C   0  0  0  0  0  0  0  0  0  0  0  0
    8.0152    4.1469   19.5740 O   0  0  0  0  0  0  0  0  0  0  0  0
 38 39  1  0
 39  1  1  0
  1  2  2  0
  2  3  1  0
  3  4  1  0
  3  5  2  0
  5  6  1  0
  6  8  1  0
  8  9  2  0
  8 10  1  0
 10 12  1  0
 12 13  2  0
 13 14  1  0
 14 15  1  0
 14 16  2  0
 16 17  1  0
 16 18  1  0
 18 19  2  0
  6  7  2  0
  7 20  1  0
 20 21  1  0
 21 22  2  0
 21 24  1  0
 24 25  1  0
 25 26  1  0
 26 27  2  0
 27 30  1  0
 30 31  1  0
 31 32  1  0
 31 33  1  0
 33 34  2  0
 34 35  1  0
 35 36  1  0
 36 37  1  0
 27 28  1  0
 28 29  1  0
  7  1  1  0
 28 24  2  0
 19 12  1  0
 37 33  1  0
 10 11  1  0
 20 23  1  0
M  END
> <minimizedAffinity>
-7.78900

> <CNNscore>
0.1720650196

> <CNNaffinity>
6.6205615997

> <CNN_VS>
1.1391670704

> <CNNaffinity_variance>
0.6834842563

$$$$



 39 42  0  0  0  0  0  0  0  0999 V2000
    1.7191    6.0577   24.5295 C   0  0  0  0  0  0  0  0  0  0  0  0
    2.1260    7.3045   25.0214 C   0  0  0  0  0  0  0  0  0  0  0  0
    3.1904    7.9729   24.4255 C   0  0  0  0  0  0  0  0  0  0  0  0
    3.6752    9.5122   25.0236 Cl  0  0  0  0  0  0  0  0  0  0  0  0
    3.8489    7.4249   23.3290 C   0  0  0  0  0  0  0  0  0  0  0  0
    3.4533    6.1724   22.8329 C   0  0  0  0  0  0  0  0  0  0  0  0
    2.3863    5.4682   23.4368 C   0  0  0  0  0  0  0  0  0  0  0  0
    4.1800    5.5855   21.6672 C   0  0  0  0  0  0  0  0  0  0  0  0
    3.5985    5.5154   20.5896 O   0  0  0  0  0  0  0  0  0  0  0  0
    5.4499    5.1274   21.9326 N   0  0  0  0  0  0  0  0  0  0  0  0
    5.7558    5.2188   22.8639 H   0  0  0  0  0  0  0  0  0  0  0  0
    6.3577    4.5490   21.0443 C   0  0  0  0  0  0  0  0  0  0  0  0
    6.6455    3.1968   20.9875 C   0  0  0  0  0  0  0  0  0  0  0  0
    7.5733    2.7643   20.0469 C   0  0  0  0  0  0  0  0  0  0  0  0
    7.8619    1.4554   19.9853 F   0  0  0  0  0  0  0  0  0  0  0  0
    8.1898    3.6614   19.1892 C   0  0  0  0  0  0  0  0  0  0  0  0
    9.3376    3.1575   18.0206 Cl  0  0  0  0  0  0  0  0  0  0  0  0
    7.8397    4.9896   19.3152 C   0  0  0  0  0  0  0  0  0  0  0  0
    6.9380    5.4493   20.2198 N   0  0  0  0  0  0  0  0  0  0  0  0
    1.9937    4.2192   22.8938 N   0  0  0  0  0  0  0  0  0  0  0  0
    2.2334    2.9706   23.4509 C   0  0  0  0  0  0  0  0  0  0  0  0
    2.9574    2.8151   24.4316 O   0  0  0  0  0  0  0  0  0  0  0  0
    1.5043    4.2391   22.0398 H   0  0  0  0  0  0  0  0  0  0  0  0
    1.6444    1.8465   22.7173 C   0  0  0  0  0  0  0  0  0  0  0  0
    1.9519    1.6326   21.0385 S   0  0  0  0  0  0  0  0  0  0  0  0
    0.9794    0.2404   20.9566 C   0  0  0  0  0  0  0  0  0  0  0  0
    0.4122   -0.0936   22.1731 C   0  0  0  0  0  0  0  0  0  0  0  0
    0.8005    0.8519   23.1899 C   0  0  0  0  0  0  0  0  0  0  0  0
    0.2480    0.7076   24.8125 Cl  0  0  0  0  0  0  0  0  0  0  0  0
   -0.4893   -1.2918   22.3729 C   0  0  0  0  0  0  0  0  0  0  0  0
    0.1694   -2.5886   22.5184 N   0  0  0  0  0  0  0  0  0  0  0  0
    0.1623   -3.4688   21.3639 C   0  0  0  0  0  0  0  0  0  0  0  0
    0.9412   -2.8470   23.6178 C   0  0  0  0  0  0  0  0  0  0  0  0
    2.2009   -3.1420   23.6374 N   0  0  0  0  0  0  0  0  0  0  0  0
    2.5228   -3.2634   25.0606 C   0  0  0  0  0  0  0  0  0  0  0  0
    1.1865   -3.3170   25.7560 C   0  0  0  0  0  0  0  0  0  0  0  0
    0.2821   -2.7765   24.8075 O   0  0  0  0  0  0  0  0  0  0  0  0
   -0.5302    6.4110   25.0785 C   0  0  0  0  0  0  0  0  0  0  0  0
    0.5559    5.4884   24.9864 O   0  0  0  0  0  0  0  0  0  0  0  0
 38 39  1  0
 39  1  1  0
  1  2  2  0
  2  3  1  0
  3  4  1  0
  3  5  2  0
  5  6  1  0
  6  8  1  0
  8  9  2  0
  8 10  1  0
 10 12  1  0
 12 13  2  0
 13 14  1  0
 14 15  1  0
 14 16  2  0
 16 17  1  0
 16 18  1  0
 18 19  2  0
  6  7  2  0
  7 20  1  0
 20 21  1  0
 21 22  2  0
 21 24  1  0
 24 25  1  0
 25 26  1  0
 26 27  2  0
 27 30  1  0
 30 31  1  0
 31 32  1  0
 31 33  1  0
 33 34  2  0
 34 35  1  0
 35 36  1  0
 36 37  1  0
 27 28  1  0
 28 29  1  0
  7  1  1  0
 28 24  2  0
 19 12  1  0
 37 33  1  0
 10 11  1  0
 20 23  1  0
M  END
> <minimizedAffinity>
-6.12588

> <CNNscore>
0.1607144177

> <CNNaffinity>
5.6098227501

> <CNN_VS>
0.9015793800

> <CNNaffinity_variance>
0.9481716752

$$$$
