


 28 30  0  0  0  0  0  0  0  0999 V2000
   25.6740   67.8547   16.3096 C   0  0  0  0  0  0  0  0  0  0  0  0
   25.6921   66.3443   16.0221 C   0  0  0  0  0  0  0  0  0  0  0  0
   25.5797   65.4644   17.2822 C   0  0  0  0  0  0  0  0  0  0  0  0
   26.2331   64.2105   17.0275 O   0  0  0  0  0  0  0  0  0  0  0  0
   24.1429   65.1902   17.7004 C   0  0  0  0  0  0  0  0  0  0  0  0
   23.3237   64.7407   16.4998 C   0  0  0  0  0  0  0  0  0  0  0  0
   23.3248   65.8027   15.3834 C   0  0  0  0  0  0  0  0  0  0  0  0
   24.6999   66.1208   14.9300 N   0  0  0  0  0  0  0  0  0  0  0  0
   24.7260   67.3700   14.1280 C   0  0  0  0  0  0  0  0  0  0  0  0
   25.5343   68.4243   14.8972 C   0  0  0  0  0  0  0  0  0  0  0  0
   24.8946   69.6956   14.8943 O   0  0  0  0  0  0  0  0  0  0  0  0
   25.7857   63.7553   16.2971 H   0  0  0  0  0  0  0  0  0  0  0  0
   24.0144   69.6156   15.2938 H   0  0  0  0  0  0  0  0  0  0  0  0
   24.9492   68.9595   18.2845 C   0  0  0  0  0  0  0  0  0  0  0  0
   24.5550   68.2324   17.1254 O   0  0  0  0  0  0  0  0  0  0  0  0
   22.5051   65.2762   14.1837 C   0  0  0  0  0  0  0  0  0  0  0  0
   21.0141   65.3622   14.4501 C   0  0  0  0  0  0  0  0  0  0  0  0
   20.5586   66.2018   15.2274 O   0  0  0  0  0  0  0  0  0  0  0  0
   20.0723   64.4478   13.7402 C   0  0  0  0  0  0  0  0  0  0  0  0
   19.7704   63.1648   14.1957 C   0  0  0  0  0  0  0  0  0  0  0  0
   18.8710   62.3592   13.4849 C   0  0  0  0  0  0  0  0  0  0  0  0
   18.2434   62.8084   12.3065 C   0  0  0  0  0  0  0  0  0  0  0  0
   18.5501   64.1073   11.8727 C   0  0  0  0  0  0  0  0  0  0  0  0
   19.4478   64.9164   12.5806 C   0  0  0  0  0  0  0  0  0  0  0  0
   17.2605   61.8917   11.5562 C   0  0  0  0  0  0  0  0  0  0  0  0
   17.5942   60.4155   11.8615 C   0  0  0  0  0  0  0  0  0  0  0  0
   17.3782   62.1352   10.0360 C   0  0  0  0  0  0  0  0  0  0  0  0
   15.7803   62.1154   11.9404 C   0  0  0  0  0  0  0  0  0  0  0  0
 14 15  1  0
  1 15  1  0
  1  2  1  0
  2  3  1  0
  3  4  1  0
  3  5  1  0
  5  6  1  0
  6  7  1  0
  7 16  1  0
 16 17  1  0
 17 18  2  0
 17 19  1  0
 19 20  2  0
 20 21  1  0
 21 22  2  0
 22 25  1  0
 25 26  1  0
 25 27  1  0
 25 28  1  0
 22 23  1  0
 23 24  2  0
  7  8  1  0
  8  9  1  0
  9 10  1  0
 10 11  1  0
 10  1  1  0
  2  8  1  0
 24 19  1  0
  4 12  1  0
 11 13  1  0
M  END
> <minimizedAffinity>
-5.62060

> <CNNscore>
0.5116790533

> <CNNaffinity>
5.0901560783

> <CNN_VS>
2.6045262814

> <CNNaffinity_variance>
0.5742319226

$$$$



 28 30  0  0  0  0  0  0  0  0999 V2000
   29.4226   67.5320   15.0080 C   0  0  0  0  0  0  0  0  0  0  0  0
   29.7024   66.4069   16.0178 C   0  0  0  0  0  0  0  0  0  0  0  0
   30.6564   66.8107   17.1587 C   0  0  0  0  0  0  0  0  0  0  0  0
   31.3448   65.6371   17.6199 O   0  0  0  0  0  0  0  0  0  0  0  0
   29.9459   67.4556   18.3393 C   0  0  0  0  0  0  0  0  0  0  0  0
   28.7393   66.6223   18.7445 C   0  0  0  0  0  0  0  0  0  0  0  0
   27.7392   66.4706   17.5822 C   0  0  0  0  0  0  0  0  0  0  0  0
   28.3700   65.8494   16.3932 N   0  0  0  0  0  0  0  0  0  0  0  0
   27.5272   66.0256   15.1837 C   0  0  0  0  0  0  0  0  0  0  0  0
   28.2819   66.9221   14.1922 C   0  0  0  0  0  0  0  0  0  0  0  0
   27.4394   67.9181   13.6233 O   0  0  0  0  0  0  0  0  0  0  0  0
   30.7013   65.0019   17.9712 H   0  0  0  0  0  0  0  0  0  0  0  0
   27.0667   68.4684   14.3298 H   0  0  0  0  0  0  0  0  0  0  0  0
   29.8001   69.8605   15.2942 C   0  0  0  0  0  0  0  0  0  0  0  0
   28.9979   68.7408   15.6552 O   0  0  0  0  0  0  0  0  0  0  0  0
   26.5554   65.5915   18.0450 C   0  0  0  0  0  0  0  0  0  0  0  0
   25.2933   66.4128   18.2291 C   0  0  0  0  0  0  0  0  0  0  0  0
   25.2746   67.3803   18.9908 O   0  0  0  0  0  0  0  0  0  0  0  0
   24.0617   66.0771   17.4561 C   0  0  0  0  0  0  0  0  0  0  0  0
   23.4991   66.9360   16.5123 C   0  0  0  0  0  0  0  0  0  0  0  0
   22.3445   66.5562   15.8153 C   0  0  0  0  0  0  0  0  0  0  0  0
   21.7217   65.3116   16.0326 C   0  0  0  0  0  0  0  0  0  0  0  0
   22.3115   64.4564   16.9761 C   0  0  0  0  0  0  0  0  0  0  0  0
   23.4660   64.8314   17.6746 C   0  0  0  0  0  0  0  0  0  0  0  0
   20.4548   64.9328   15.2445 C   0  0  0  0  0  0  0  0  0  0  0  0
   20.5956   63.4954   14.6988 C   0  0  0  0  0  0  0  0  0  0  0  0
   20.2653   65.9085   14.0628 C   0  0  0  0  0  0  0  0  0  0  0  0
   19.1590   64.9785   16.0856 C   0  0  0  0  0  0  0  0  0  0  0  0
 14 15  1  0
  1 15  1  0
  1  2  1  0
  2  3  1  0
  3  4  1  0
  3  5  1  0
  5  6  1  0
  6  7  1  0
  7 16  1  0
 16 17  1  0
 17 18  2  0
 17 19  1  0
 19 20  2  0
 20 21  1  0
 21 22  2  0
 22 25  1  0
 25 26  1  0
 25 27  1  0
 25 28  1  0
 22 23  1  0
 23 24  2  0
  7  8  1  0
  8  9  1  0
  9 10  1  0
 10 11  1  0
 10  1  1  0
  2  8  1  0
 24 19  1  0
  4 12  1  0
 11 13  1  0
M  END
> <minimizedAffinity>
-5.59219

> <CNNscore>
0.4888128042

> <CNNaffinity>
4.9794316292

> <CNN_VS>
2.4340100288

> <CNNaffinity_variance>
0.1871600151

$$$$



 28 30  0  0  0  0  0  0  0  0999 V2000
   33.3011   72.0796   18.9512 C   0  0  0  0  0  0  0  0  0  0  0  0
   34.6064   72.6110   18.3366 C   0  0  0  0  0  0  0  0  0  0  0  0
   35.8595   71.8056   18.7318 C   0  0  0  0  0  0  0  0  0  0  0  0
   36.9998   72.6784   18.6888 O   0  0  0  0  0  0  0  0  0  0  0  0
   36.1220   70.6140   17.8232 C   0  0  0  0  0  0  0  0  0  0  0  0
   36.0360   71.0375   16.3645 C   0  0  0  0  0  0  0  0  0  0  0  0
   34.6535   71.6281   16.0265 C   0  0  0  0  0  0  0  0  0  0  0  0
   34.3316   72.7955   16.8815 N   0  0  0  0  0  0  0  0  0  0  0  0
   32.8886   73.1362   16.8050 C   0  0  0  0  0  0  0  0  0  0  0  0
   32.2584   72.8934   18.1835 C   0  0  0  0  0  0  0  0  0  0  0  0
   31.0121   72.2127   18.0896 O   0  0  0  0  0  0  0  0  0  0  0  0
   37.1215   73.0070   17.7843 H   0  0  0  0  0  0  0  0  0  0  0  0
   31.1418   71.3607   17.6445 H   0  0  0  0  0  0  0  0  0  0  0  0
   32.9330   69.9399   19.9169 C   0  0  0  0  0  0  0  0  0  0  0  0
   33.1287   70.6746   18.7130 O   0  0  0  0  0  0  0  0  0  0  0  0
   34.6394   72.0664   14.5445 C   0  0  0  0  0  0  0  0  0  0  0  0
   33.9942   71.0153   13.6613 C   0  0  0  0  0  0  0  0  0  0  0  0
   34.6818   70.2121   13.0298 O   0  0  0  0  0  0  0  0  0  0  0  0
   32.5075   70.9188   13.5755 C   0  0  0  0  0  0  0  0  0  0  0  0
   31.7007   71.9735   13.1495 C   0  0  0  0  0  0  0  0  0  0  0  0
   30.3102   71.8143   13.0852 C   0  0  0  0  0  0  0  0  0  0  0  0
   29.6846   70.6021   13.4364 C   0  0  0  0  0  0  0  0  0  0  0  0
   30.5153   69.5489   13.8492 C   0  0  0  0  0  0  0  0  0  0  0  0
   31.9058   69.7032   13.9142 C   0  0  0  0  0  0  0  0  0  0  0  0
   28.1535   70.4687   13.3504 C   0  0  0  0  0  0  0  0  0  0  0  0
   27.7781   69.5903   12.1374 C   0  0  0  0  0  0  0  0  0  0  0  0
   27.5177   71.8657   13.1822 C   0  0  0  0  0  0  0  0  0  0  0  0
   27.5116   69.8232   14.5994 C   0  0  0  0  0  0  0  0  0  0  0  0
 14 15  1  0
  1 15  1  0
  1  2  1  0
  2  3  1  0
  3  4  1  0
  3  5  1  0
  5  6  1  0
  6  7  1  0
  7 16  1  0
 16 17  1  0
 17 18  2  0
 17 19  1  0
 19 20  2  0
 20 21  1  0
 21 22  2  0
 22 25  1  0
 25 26  1  0
 25 27  1  0
 25 28  1  0
 22 23  1  0
 23 24  2  0
  7  8  1  0
  8  9  1  0
  9 10  1  0
 10 11  1  0
 10  1  1  0
  2  8  1  0
 24 19  1  0
  4 12  1  0
 11 13  1  0
M  END
> <minimizedAffinity>
-5.58276

> <CNNscore>
0.2563023865

> <CNNaffinity>
3.9826071262

> <CNN_VS>
1.0207517147

> <CNNaffinity_variance>
0.8647711277

$$$$



 28 30  0  0  0  0  0  0  0  0999 V2000
   27.4004   63.8905   11.6105 C   0  0  0  0  0  0  0  0  0  0  0  0
   28.7174   64.6813   11.6767 C   0  0  0  0  0  0  0  0  0  0  0  0
   29.0937   65.3849   10.3583 C   0  0  0  0  0  0  0  0  0  0  0  0
   30.5234   65.5113   10.2962 O   0  0  0  0  0  0  0  0  0  0  0  0
   28.4745   66.7670   10.2141 C   0  0  0  0  0  0  0  0  0  0  0  0
   28.6920   67.5746   11.4849 C   0  0  0  0  0  0  0  0  0  0  0  0
   28.0752   66.8768   12.7124 C   0  0  0  0  0  0  0  0  0  0  0  0
   28.6341   65.5180   12.9096 N   0  0  0  0  0  0  0  0  0  0  0  0
   27.8045   64.7271   13.8532 C   0  0  0  0  0  0  0  0  0  0  0  0
   27.1828   63.5519   13.0860 C   0  0  0  0  0  0  0  0  0  0  0  0
   25.8049   63.3789   13.3972 O   0  0  0  0  0  0  0  0  0  0  0  0
   30.8318   66.0609   11.0336 H   0  0  0  0  0  0  0  0  0  0  0  0
   25.3203   64.1913   13.1821 H   0  0  0  0  0  0  0  0  0  0  0  0
   25.6356   64.0568   10.0282 C   0  0  0  0  0  0  0  0  0  0  0  0
   26.3199   64.6888   11.1052 O   0  0  0  0  0  0  0  0  0  0  0  0
   28.3555   67.7275   13.9718 C   0  0  0  0  0  0  0  0  0  0  0  0
   28.5792   69.1856   13.6178 C   0  0  0  0  0  0  0  0  0  0  0  0
   27.6660   69.8708   13.1560 O   0  0  0  0  0  0  0  0  0  0  0  0
   29.9077   69.8203   13.8612 C   0  0  0  0  0  0  0  0  0  0  0  0
   30.2216   71.1119   13.4392 C   0  0  0  0  0  0  0  0  0  0  0  0
   31.4867   71.6515   13.7066 C   0  0  0  0  0  0  0  0  0  0  0  0
   32.4711   70.9253   14.4050 C   0  0  0  0  0  0  0  0  0  0  0  0
   32.1305   69.6329   14.8329 C   0  0  0  0  0  0  0  0  0  0  0  0
   30.8669   69.0898   14.5686 C   0  0  0  0  0  0  0  0  0  0  0  0
   33.8484   71.5558   14.6789 C   0  0  0  0  0  0  0  0  0  0  0  0
   33.9143   72.0379   16.1442 C   0  0  0  0  0  0  0  0  0  0  0  0
   34.0663   72.7603   13.7376 C   0  0  0  0  0  0  0  0  0  0  0  0
   35.0331   70.5874   14.4617 C   0  0  0  0  0  0  0  0  0  0  0  0
 14 15  1  0
  1 15  1  0
  1  2  1  0
  2  3  1  0
  3  4  1  0
  3  5  1  0
  5  6  1  0
  6  7  1  0
  7 16  1  0
 16 17  1  0
 17 18  2  0
 17 19  1  0
 19 20  2  0
 20 21  1  0
 21 22  2  0
 22 25  1  0
 25 26  1  0
 25 27  1  0
 25 28  1  0
 22 23  1  0
 23 24  2  0
  7  8  1  0
  8  9  1  0
  9 10  1  0
 10 11  1  0
 10  1  1  0
  2  8  1  0
 24 19  1  0
  4 12  1  0
 11 13  1  0
M  END
> <minimizedAffinity>
-6.54092

> <CNNscore>
0.2471577972

> <CNNaffinity>
5.1260180473

> <CNN_VS>
1.2669353485

> <CNNaffinity_variance>
0.1210614070

$$$$



 28 30  0  0  0  0  0  0  0  0999 V2000
   27.9882   64.7645   11.1157 C   0  0  0  0  0  0  0  0  0  0  0  0
   28.6264   65.4256   12.3485 C   0  0  0  0  0  0  0  0  0  0  0  0
   28.5846   66.9659   12.3267 C   0  0  0  0  0  0  0  0  0  0  0  0
   29.6949   67.4671   13.0882 O   0  0  0  0  0  0  0  0  0  0  0  0
   27.2990   67.5426   12.9003 C   0  0  0  0  0  0  0  0  0  0  0  0
   26.9799   66.8873   14.2356 C   0  0  0  0  0  0  0  0  0  0  0  0
   26.8231   65.3609   14.0946 C   0  0  0  0  0  0  0  0  0  0  0  0
   28.0440   64.7333   13.5353 N   0  0  0  0  0  0  0  0  0  0  0  0
   27.7737   63.3477   13.0752 C   0  0  0  0  0  0  0  0  0  0  0  0
   27.9497   63.2990   11.5511 C   0  0  0  0  0  0  0  0  0  0  0  0
   26.9000   62.5794   10.9142 O   0  0  0  0  0  0  0  0  0  0  0  0
   29.6143   67.1732   14.0091 H   0  0  0  0  0  0  0  0  0  0  0  0
   26.0493   62.9960   11.1231 H   0  0  0  0  0  0  0  0  0  0  0  0
   26.5061   65.7456    9.5387 C   0  0  0  0  0  0  0  0  0  0  0  0
   26.6635   65.2582   10.8673 O   0  0  0  0  0  0  0  0  0  0  0  0
   26.5319   64.7519   15.4848 C   0  0  0  0  0  0  0  0  0  0  0  0
   26.9272   65.7010   16.6002 C   0  0  0  0  0  0  0  0  0  0  0  0
   28.1039   65.8152   16.9452 O   0  0  0  0  0  0  0  0  0  0  0  0
   25.8919   66.5401   17.2720 C   0  0  0  0  0  0  0  0  0  0  0  0
   26.0732   67.8950   17.5475 C   0  0  0  0  0  0  0  0  0  0  0  0
   25.0570   68.6277   18.1748 C   0  0  0  0  0  0  0  0  0  0  0  0
   23.8319   68.0359   18.5397 C   0  0  0  0  0  0  0  0  0  0  0  0
   23.6642   66.6749   18.2412 C   0  0  0  0  0  0  0  0  0  0  0  0
   24.6769   65.9388   17.6135 C   0  0  0  0  0  0  0  0  0  0  0  0
   22.7410   68.8770   19.2265 C   0  0  0  0  0  0  0  0  0  0  0  0
   22.4390   68.2919   20.6229 C   0  0  0  0  0  0  0  0  0  0  0  0
   21.4523   68.8530   18.3761 C   0  0  0  0  0  0  0  0  0  0  0  0
   23.1282   70.3599   19.4254 C   0  0  0  0  0  0  0  0  0  0  0  0
 14 15  1  0
  1 15  1  0
  1  2  1  0
  2  3  1  0
  3  4  1  0
  3  5  1  0
  5  6  1  0
  6  7  1  0
  7 16  1  0
 16 17  1  0
 17 18  2  0
 17 19  1  0
 19 20  2  0
 20 21  1  0
 21 22  2  0
 22 25  1  0
 25 26  1  0
 25 27  1  0
 25 28  1  0
 22 23  1  0
 23 24  2  0
  7  8  1  0
  8  9  1  0
  9 10  1  0
 10 11  1  0
 10  1  1  0
  2  8  1  0
 24 19  1  0
  4 12  1  0
 11 13  1  0
M  END
> <minimizedAffinity>
-5.52302

> <CNNscore>
0.2407352924

> <CNNaffinity>
4.0719165802

> <CNN_VS>
0.9802540541

> <CNNaffinity_variance>
0.4345064163

$$$$



 28 30  0  0  0  0  0  0  0  0999 V2000
   33.7891   70.4340   19.3965 C   0  0  0  0  0  0  0  0  0  0  0  0
   33.9674   71.3708   18.1904 C   0  0  0  0  0  0  0  0  0  0  0  0
   35.4101   71.8764   17.9965 C   0  0  0  0  0  0  0  0  0  0  0  0
   35.3656   73.1545   17.3421 O   0  0  0  0  0  0  0  0  0  0  0  0
   36.2734   70.9346   17.1705 C   0  0  0  0  0  0  0  0  0  0  0  0
   35.5371   70.5224   15.9046 C   0  0  0  0  0  0  0  0  0  0  0  0
   34.2029   69.8226   16.2276 C   0  0  0  0  0  0  0  0  0  0  0  0
   33.3117   70.6872   17.0372 N   0  0  0  0  0  0  0  0  0  0  0  0
   32.2025   69.9038   17.6374 C   0  0  0  0  0  0  0  0  0  0  0  0
   32.3690   69.9165   19.1634 C   0  0  0  0  0  0  0  0  0  0  0  0
   32.1690   68.6281   19.7340 O   0  0  0  0  0  0  0  0  0  0  0  0
   34.9572   73.0561   16.4678 H   0  0  0  0  0  0  0  0  0  0  0  0
   32.8030   68.0024   19.3499 H   0  0  0  0  0  0  0  0  0  0  0  0
   35.4965   69.2833   20.5828 C   0  0  0  0  0  0  0  0  0  0  0  0
   34.7348   69.3542   19.3818 O   0  0  0  0  0  0  0  0  0  0  0  0
   33.4903   69.4575   14.9057 C   0  0  0  0  0  0  0  0  0  0  0  0
   33.8058   70.4586   13.8105 C   0  0  0  0  0  0  0  0  0  0  0  0
   34.6866   70.2303   12.9806 O   0  0  0  0  0  0  0  0  0  0  0  0
   33.0221   71.7241   13.7038 C   0  0  0  0  0  0  0  0  0  0  0  0
   31.7138   71.7696   13.2231 C   0  0  0  0  0  0  0  0  0  0  0  0
   31.0311   72.9912   13.1555 C   0  0  0  0  0  0  0  0  0  0  0  0
   31.6271   74.1987   13.5689 C   0  0  0  0  0  0  0  0  0  0  0  0
   32.9390   74.1293   14.0624 C   0  0  0  0  0  0  0  0  0  0  0  0
   33.6250   72.9103   14.1326 C   0  0  0  0  0  0  0  0  0  0  0  0
   30.8414   75.5193   13.4791 C   0  0  0  0  0  0  0  0  0  0  0  0
   29.4772   75.3585   14.1839 C   0  0  0  0  0  0  0  0  0  0  0  0
   30.6077   75.8866   11.9976 C   0  0  0  0  0  0  0  0  0  0  0  0
   31.5588   76.7190   14.1383 C   0  0  0  0  0  0  0  0  0  0  0  0
 14 15  1  0
  1 15  1  0
  1  2  1  0
  2  3  1  0
  3  4  1  0
  3  5  1  0
  5  6  1  0
  6  7  1  0
  7 16  1  0
 16 17  1  0
 17 18  2  0
 17 19  1  0
 19 20  2  0
 20 21  1  0
 21 22  2  0
 22 25  1  0
 25 26  1  0
 25 27  1  0
 25 28  1  0
 22 23  1  0
 23 24  2  0
  7  8  1  0
  8  9  1  0
  9 10  1  0
 10 11  1  0
 10  1  1  0
  2  8  1  0
 24 19  1  0
  4 12  1  0
 11 13  1  0
M  END
> <minimizedAffinity>
-6.30392

> <CNNscore>
0.2197491378

> <CNNaffinity>
3.8626425266

> <CNN_VS>
0.8488123417

> <CNNaffinity_variance>
1.3220773935

$$$$



 28 30  0  0  0  0  0  0  0  0999 V2000
   26.0828   64.8074   12.1773 C   0  0  0  0  0  0  0  0  0  0  0  0
   26.1781   64.3012   13.6260 C   0  0  0  0  0  0  0  0  0  0  0  0
   26.9814   65.2251   14.5620 C   0  0  0  0  0  0  0  0  0  0  0  0
   27.5546   64.4300   15.6123 O   0  0  0  0  0  0  0  0  0  0  0  0
   26.1409   66.3281   15.1877 C   0  0  0  0  0  0  0  0  0  0  0  0
   24.8591   65.7472   15.7656 C   0  0  0  0  0  0  0  0  0  0  0  0
   24.0228   65.0339   14.6858 C   0  0  0  0  0  0  0  0  0  0  0  0
   24.7864   63.9453   14.0306 N   0  0  0  0  0  0  0  0  0  0  0  0
   24.1249   63.5037   12.7769 C   0  0  0  0  0  0  0  0  0  0  0  0
   25.0422   63.8495   11.5957 C   0  0  0  0  0  0  0  0  0  0  0  0
   24.3245   64.4324   10.5138 O   0  0  0  0  0  0  0  0  0  0  0  0
   26.8452   64.0159   16.1283 H   0  0  0  0  0  0  0  0  0  0  0  0
   23.8798   65.2390   10.8181 H   0  0  0  0  0  0  0  0  0  0  0  0
   26.5071   67.0064   11.3830 C   0  0  0  0  0  0  0  0  0  0  0  0
   25.6200   66.1646   12.1124 O   0  0  0  0  0  0  0  0  0  0  0  0
   22.7539   64.4407   15.3387 C   0  0  0  0  0  0  0  0  0  0  0  0
   21.5029   65.1650   14.8787 C   0  0  0  0  0  0  0  0  0  0  0  0
   21.3407   66.3615   15.1207 O   0  0  0  0  0  0  0  0  0  0  0  0
   20.4642   64.4392   14.0905 C   0  0  0  0  0  0  0  0  0  0  0  0
   19.9576   63.1950   14.4648 C   0  0  0  0  0  0  0  0  0  0  0  0
   18.9769   62.5704   13.6829 C   0  0  0  0  0  0  0  0  0  0  0  0
   18.4692   63.1672   12.5124 C   0  0  0  0  0  0  0  0  0  0  0  0
   18.9821   64.4254   12.1608 C   0  0  0  0  0  0  0  0  0  0  0  0
   19.9617   65.0539   12.9398 C   0  0  0  0  0  0  0  0  0  0  0  0
   17.3911   62.4474   11.6824 C   0  0  0  0  0  0  0  0  0  0  0  0
   17.5536   62.8162   10.1920 C   0  0  0  0  0  0  0  0  0  0  0  0
   15.9888   62.8802   12.1628 C   0  0  0  0  0  0  0  0  0  0  0  0
   17.4515   60.9063   11.7820 C   0  0  0  0  0  0  0  0  0  0  0  0
 14 15  1  0
  1 15  1  0
  1  2  1  0
  2  3  1  0
  3  4  1  0
  3  5  1  0
  5  6  1  0
  6  7  1  0
  7 16  1  0
 16 17  1  0
 17 18  2  0
 17 19  1  0
 19 20  2  0
 20 21  1  0
 21 22  2  0
 22 25  1  0
 25 26  1  0
 25 27  1  0
 25 28  1  0
 22 23  1  0
 23 24  2  0
  7  8  1  0
  8  9  1  0
  9 10  1  0
 10 11  1  0
 10  1  1  0
  2  8  1  0
 24 19  1  0
  4 12  1  0
 11 13  1  0
M  END
> <minimizedAffinity>
-6.45585

> <CNNscore>
0.2103983015

> <CNNaffinity>
4.4798755646

> <CNN_VS>
0.9425582290

> <CNNaffinity_variance>
0.3540743887

$$$$



 28 30  0  0  0  0  0  0  0  0999 V2000
   28.4066   65.2205   14.2263 C   0  0  0  0  0  0  0  0  0  0  0  0
   27.0627   64.6180   14.6681 C   0  0  0  0  0  0  0  0  0  0  0  0
   26.3083   65.4647   15.7115 C   0  0  0  0  0  0  0  0  0  0  0  0
   25.4877   64.5926   16.5053 O   0  0  0  0  0  0  0  0  0  0  0  0
   25.4247   66.5376   15.0930 C   0  0  0  0  0  0  0  0  0  0  0  0
   24.5756   65.9410   13.9806 C   0  0  0  0  0  0  0  0  0  0  0  0
   25.4478   65.3145   12.8757 C   0  0  0  0  0  0  0  0  0  0  0  0
   26.3396   64.2592   13.4130 N   0  0  0  0  0  0  0  0  0  0  0  0
   27.4078   63.9123   12.4419 C   0  0  0  0  0  0  0  0  0  0  0  0
   28.7606   64.3203   13.0418 C   0  0  0  0  0  0  0  0  0  0  0  0
   29.5876   64.9852   12.0934 O   0  0  0  0  0  0  0  0  0  0  0  0
   24.8340   64.1571   15.9362 H   0  0  0  0  0  0  0  0  0  0  0  0
   29.1326   65.7771   11.7666 H   0  0  0  0  0  0  0  0  0  0  0  0
   29.1566   67.4584   14.5009 C   0  0  0  0  0  0  0  0  0  0  0  0
   28.2705   66.5864   13.8067 O   0  0  0  0  0  0  0  0  0  0  0  0
   24.5304   64.7003   11.7943 C   0  0  0  0  0  0  0  0  0  0  0  0
   24.4079   65.6117   10.5878 C   0  0  0  0  0  0  0  0  0  0  0  0
   23.3717   66.2423   10.3750 O   0  0  0  0  0  0  0  0  0  0  0  0
   25.5629   65.7837    9.6586 C   0  0  0  0  0  0  0  0  0  0  0  0
   25.5479   65.3386    8.3371 C   0  0  0  0  0  0  0  0  0  0  0  0
   26.6645   65.5384    7.5146 C   0  0  0  0  0  0  0  0  0  0  0  0
   27.8228   66.1905    7.9807 C   0  0  0  0  0  0  0  0  0  0  0  0
   27.8123   66.6429    9.3091 C   0  0  0  0  0  0  0  0  0  0  0  0
   26.6981   66.4462   10.1346 C   0  0  0  0  0  0  0  0  0  0  0  0
   29.0276   66.3906    7.0437 C   0  0  0  0  0  0  0  0  0  0  0  0
   30.2330   66.9123    7.8553 C   0  0  0  0  0  0  0  0  0  0  0  0
   28.6701   67.4181    5.9479 C   0  0  0  0  0  0  0  0  0  0  0  0
   29.4826   65.0993    6.3268 C   0  0  0  0  0  0  0  0  0  0  0  0
 14 15  1  0
  1 15  1  0
  1  2  1  0
  2  3  1  0
  3  4  1  0
  3  5  1  0
  5  6  1  0
  6  7  1  0
  7 16  1  0
 16 17  1  0
 17 18  2  0
 17 19  1  0
 19 20  2  0
 20 21  1  0
 21 22  2  0
 22 25  1  0
 25 26  1  0
 25 27  1  0
 25 28  1  0
 22 23  1  0
 23 24  2  0
  7  8  1  0
  8  9  1  0
  9 10  1  0
 10 11  1  0
 10  1  1  0
  2  8  1  0
 24 19  1  0
  4 12  1  0
 11 13  1  0
M  END
> <minimizedAffinity>
-7.14993

> <CNNscore>
0.2077456564

> <CNNaffinity>
4.4913945198

> <CNN_VS>
0.9330676794

> <CNNaffinity_variance>
0.7277857661

$$$$



 28 30  0  0  0  0  0  0  0  0999 V2000
   34.0850   71.3195   19.5969 C   0  0  0  0  0  0  0  0  0  0  0  0
   34.8403   70.2118   18.8442 C   0  0  0  0  0  0  0  0  0  0  0  0
   34.0751   68.8769   18.7591 C   0  0  0  0  0  0  0  0  0  0  0  0
   35.0277   67.8059   18.6623 O   0  0  0  0  0  0  0  0  0  0  0  0
   33.1295   68.7983   17.5699 C   0  0  0  0  0  0  0  0  0  0  0  0
   33.8448   69.2372   16.3010 C   0  0  0  0  0  0  0  0  0  0  0  0
   34.3781   70.6779   16.4204 C   0  0  0  0  0  0  0  0  0  0  0  0
   35.3066   70.8259   17.5665 N   0  0  0  0  0  0  0  0  0  0  0  0
   35.5361   72.2564   17.8912 C   0  0  0  0  0  0  0  0  0  0  0  0
   34.9549   72.5377   19.2838 C   0  0  0  0  0  0  0  0  0  0  0  0
   34.2097   73.7498   19.3176 O   0  0  0  0  0  0  0  0  0  0  0  0
   35.5499   67.9099   17.8515 H   0  0  0  0  0  0  0  0  0  0  0  0
   33.4853   73.7020   18.6742 H   0  0  0  0  0  0  0  0  0  0  0  0
   32.7068   72.4073   17.9957 C   0  0  0  0  0  0  0  0  0  0  0  0
   32.7534   71.4997   19.0919 O   0  0  0  0  0  0  0  0  0  0  0  0
   35.1187   71.0528   15.1169 C   0  0  0  0  0  0  0  0  0  0  0  0
   34.1735   71.0826   13.9307 C   0  0  0  0  0  0  0  0  0  0  0  0
   34.3125   70.2974   12.9922 O   0  0  0  0  0  0  0  0  0  0  0  0
   33.0344   72.0463   13.9046 C   0  0  0  0  0  0  0  0  0  0  0  0
   31.8324   71.7846   13.2478 C   0  0  0  0  0  0  0  0  0  0  0  0
   30.7989   72.7306   13.2682 C   0  0  0  0  0  0  0  0  0  0  0  0
   30.9296   73.9584   13.9460 C   0  0  0  0  0  0  0  0  0  0  0  0
   32.1417   74.1964   14.6121 C   0  0  0  0  0  0  0  0  0  0  0  0
   33.1771   73.2534   14.5952 C   0  0  0  0  0  0  0  0  0  0  0  0
   29.7692   74.9698   13.9445 C   0  0  0  0  0  0  0  0  0  0  0  0
   30.1728   76.2213   14.7535 C   0  0  0  0  0  0  0  0  0  0  0  0
   28.5199   74.3300   14.5882 C   0  0  0  0  0  0  0  0  0  0  0  0
   29.3601   75.4490   12.5333 C   0  0  0  0  0  0  0  0  0  0  0  0
 14 15  1  0
  1 15  1  0
  1  2  1  0
  2  3  1  0
  3  4  1  0
  3  5  1  0
  5  6  1  0
  6  7  1  0
  7 16  1  0
 16 17  1  0
 17 18  2  0
 17 19  1  0
 19 20  2  0
 20 21  1  0
 21 22  2  0
 22 25  1  0
 25 26  1  0
 25 27  1  0
 25 28  1  0
 22 23  1  0
 23 24  2  0
  7  8  1  0
  8  9  1  0
  9 10  1  0
 10 11  1  0
 10  1  1  0
  2  8  1  0
 24 19  1  0
  4 12  1  0
 11 13  1  0
M  END
> <minimizedAffinity>
-5.08043

> <CNNscore>
0.2059854120

> <CNNaffinity>
4.1034593582

> <CNN_VS>
0.8452527523

> <CNNaffinity_variance>
0.5470199585

$$$$
