


 34 37  0  0  0  0  0  0  0  0999 V2000
  -29.3709    2.4956   27.7901 N   0  0  0  0  0  0  0  0  0  0  0  0
  -29.6688    2.0904   26.5114 C   0  0  0  0  0  0  0  0  0  0  0  0
  -28.8819    1.4821   25.7922 O   0  0  0  0  0  0  0  0  0  0  0  0
  -30.0841    2.8682   28.3573 H   0  0  0  0  0  0  0  0  0  0  0  0
  -31.0417    2.3394   26.0170 C   0  0  0  0  0  0  0  0  0  0  0  0
  -31.2732    3.5557   25.3507 C   0  0  0  0  0  0  0  0  0  0  0  0
  -32.5429    3.8810   24.8414 C   0  0  0  0  0  0  0  0  0  0  0  0
  -33.6189    3.0040   24.9950 C   0  0  0  0  0  0  0  0  0  0  0  0
  -33.4056    1.8107   25.6677 C   0  0  0  0  0  0  0  0  0  0  0  0
  -32.1243    1.4911   26.1720 C   0  0  0  0  0  0  0  0  0  0  0  0
  -32.2598    0.1881   26.8673 C   0  0  0  0  0  0  0  0  0  0  0  0
  -31.4017   -0.4317   27.4577 O   0  0  0  0  0  0  0  0  0  0  0  0
  -33.6624   -0.2437   26.7182 C   0  0  0  0  0  0  0  0  0  0  0  0
  -34.2696   -1.3933   27.1817 C   0  0  0  0  0  0  0  0  0  0  0  0
  -35.6203   -1.5361   26.8924 C   0  0  0  0  0  0  0  0  0  0  0  0
  -36.2693   -2.6283   27.3159 F   0  0  0  0  0  0  0  0  0  0  0  0
  -36.3265   -0.5626   26.1675 C   0  0  0  0  0  0  0  0  0  0  0  0
  -35.6836    0.5951   25.7094 C   0  0  0  0  0  0  0  0  0  0  0  0
  -34.3360    0.7493   25.9913 C   0  0  0  0  0  0  0  0  0  0  0  0
  -28.0179    2.3839   28.3225 C   0  0  0  0  0  0  0  0  0  0  0  0
  -24.5229    5.0963   27.1526 C   0  0  0  0  0  0  0  0  0  0  0  0
  -24.9090    3.6164   27.1412 C   0  0  0  0  0  0  0  0  0  0  0  0
  -26.3471    3.5186   26.9469 N   0  0  0  0  0  0  0  0  0  0  0  0
  -26.9917    2.2251   27.1818 C   0  0  0  0  0  0  0  0  0  0  0  0
  -25.9934    1.0750   27.4426 C   0  0  0  0  0  0  0  0  0  0  0  0
  -25.3307    0.7058   26.2162 O   0  0  0  0  0  0  0  0  0  0  0  0
  -24.9121    1.4227   28.4802 C   0  0  0  0  0  0  0  0  0  0  0  0
  -25.3449    1.0940   29.8145 O   0  0  0  0  0  0  0  0  0  0  0  0
  -24.4723    2.9057   28.4444 C   0  0  0  0  0  0  0  0  0  0  0  0
  -24.9776    3.5942   29.6026 O   0  0  0  0  0  0  0  0  0  0  0  0
  -26.5400    3.7813   25.9804 H   0  0  0  0  0  0  0  0  0  0  0  0
  -24.8116    1.4575   25.8902 H   0  0  0  0  0  0  0  0  0  0  0  0
  -26.1130    1.6382   30.0485 H   0  0  0  0  0  0  0  0  0  0  0  0
  -25.9474    3.5753   29.5924 H   0  0  0  0  0  0  0  0  0  0  0  0
 22 21  1  0
 22 23  1  0
 23 24  1  0
 24 20  1  0
 20  1  1  0
  1  2  1  0
  2  3  2  0
  2  5  1  0
  5  6  2  0
  6  7  1  0
  7  8  2  0
  8  9  1  0
  9 10  2  0
 10 11  1  0
 11 12  2  0
 11 13  1  0
 13 14  2  0
 14 15  1  0
 15 16  1  0
 15 17  2  0
 17 18  1  0
 18 19  2  0
 24 25  1  0
 25 26  1  0
 25 27  1  0
 27 28  1  0
 27 29  1  0
 29 30  1  0
 29 22  1  0
 10  5  1  0
 19 13  1  0
 19  9  1  0
 23 31  1  0
  1  4  1  0
 26 32  1  0
 28 33  1  0
 30 34  1  0
M  END
> <minimizedAffinity>
-9.46032

> <CNNscore>
0.9468524456

> <CNNaffinity>
7.3212723732

> <CNN_VS>
6.9321646690

> <CNNaffinity_variance>
0.2003638148

$$$$



 34 37  0  0  0  0  0  0  0  0999 V2000
  -29.3637    1.8217   27.4962 N   0  0  0  0  0  0  0  0  0  0  0  0
  -29.8965    2.3631   26.3512 C   0  0  0  0  0  0  0  0  0  0  0  0
  -29.3068    3.1788   25.6489 O   0  0  0  0  0  0  0  0  0  0  0  0
  -29.8343    1.0829   27.9456 H   0  0  0  0  0  0  0  0  0  0  0  0
  -31.2208    1.8683   25.9123 C   0  0  0  0  0  0  0  0  0  0  0  0
  -31.2596    0.6139   25.2785 C   0  0  0  0  0  0  0  0  0  0  0  0
  -32.4707    0.0577   24.8301 C   0  0  0  0  0  0  0  0  0  0  0  0
  -33.6749    0.7462   24.9924 C   0  0  0  0  0  0  0  0  0  0  0  0
  -33.6448    1.9927   25.5986 C   0  0  0  0  0  0  0  0  0  0  0  0
  -32.4226    2.5410   26.0499 C   0  0  0  0  0  0  0  0  0  0  0  0
  -32.7402    3.8840   26.5931 C   0  0  0  0  0  0  0  0  0  0  0  0
  -31.9723    4.6968   27.0609 O   0  0  0  0  0  0  0  0  0  0  0  0
  -34.1971    4.0752   26.4635 C   0  0  0  0  0  0  0  0  0  0  0  0
  -34.9663    5.1580   26.8389 C   0  0  0  0  0  0  0  0  0  0  0  0
  -36.3289    5.0618   26.5895 C   0  0  0  0  0  0  0  0  0  0  0  0
  -37.1307    6.0796   26.9280 F   0  0  0  0  0  0  0  0  0  0  0  0
  -36.8904    3.9235   25.9885 C   0  0  0  0  0  0  0  0  0  0  0  0
  -36.0846    2.8388   25.6177 C   0  0  0  0  0  0  0  0  0  0  0  0
  -34.7233    2.9226   25.8614 C   0  0  0  0  0  0  0  0  0  0  0  0
  -28.1141    2.3211   28.0580 C   0  0  0  0  0  0  0  0  0  0  0  0
  -24.4961    5.0236   27.3181 C   0  0  0  0  0  0  0  0  0  0  0  0
  -24.8815    3.5445   27.2623 C   0  0  0  0  0  0  0  0  0  0  0  0
  -26.2854    3.4494   26.8943 N   0  0  0  0  0  0  0  0  0  0  0  0
  -26.9569    2.1578   27.0511 C   0  0  0  0  0  0  0  0  0  0  0  0
  -26.0006    1.0061   27.4336 C   0  0  0  0  0  0  0  0  0  0  0  0
  -25.1942    0.6330   26.2977 O   0  0  0  0  0  0  0  0  0  0  0  0
  -25.0529    1.3535   28.5946 C   0  0  0  0  0  0  0  0  0  0  0  0
  -25.6458    1.0284   29.8668 O   0  0  0  0  0  0  0  0  0  0  0  0
  -24.6085    2.8355   28.6101 C   0  0  0  0  0  0  0  0  0  0  0  0
  -25.2496    3.5274   29.6970 O   0  0  0  0  0  0  0  0  0  0  0  0
  -26.3585    3.7106   25.9110 H   0  0  0  0  0  0  0  0  0  0  0  0
  -24.6374    1.3830   26.0361 H   0  0  0  0  0  0  0  0  0  0  0  0
  -26.4355    1.5746   30.0045 H   0  0  0  0  0  0  0  0  0  0  0  0
  -26.2109    3.5105   29.5687 H   0  0  0  0  0  0  0  0  0  0  0  0
 22 21  1  0
 22 23  1  0
 23 24  1  0
 24 20  1  0
 20  1  1  0
  1  2  1  0
  2  3  2  0
  2  5  1  0
  5  6  2  0
  6  7  1  0
  7  8  2  0
  8  9  1  0
  9 10  2  0
 10 11  1  0
 11 12  2  0
 11 13  1  0
 13 14  2  0
 14 15  1  0
 15 16  1  0
 15 17  2  0
 17 18  1  0
 18 19  2  0
 24 25  1  0
 25 26  1  0
 25 27  1  0
 27 28  1  0
 27 29  1  0
 29 30  1  0
 29 22  1  0
 10  5  1  0
 19 13  1  0
 19  9  1  0
 23 31  1  0
  1  4  1  0
 26 32  1  0
 28 33  1  0
 30 34  1  0
M  END
> <minimizedAffinity>
-9.59304

> <CNNscore>
0.9409382939

> <CNNaffinity>
7.3574118614

> <CNN_VS>
6.9228706360

> <CNNaffinity_variance>
0.2448858023

$$$$



 34 37  0  0  0  0  0  0  0  0999 V2000
  -32.8080    0.8539   24.3735 N   0  0  0  0  0  0  0  0  0  0  0  0
  -33.4810    1.3703   25.4545 C   0  0  0  0  0  0  0  0  0  0  0  0
  -33.3911    2.5406   25.8131 O   0  0  0  0  0  0  0  0  0  0  0  0
  -33.0174   -0.0570   24.0642 H   0  0  0  0  0  0  0  0  0  0  0  0
  -34.4200    0.4751   26.1673 C   0  0  0  0  0  0  0  0  0  0  0  0
  -35.7941    0.7032   25.9764 C   0  0  0  0  0  0  0  0  0  0  0  0
  -36.7633   -0.0968   26.6072 C   0  0  0  0  0  0  0  0  0  0  0  0
  -36.3849   -1.1394   27.4559 C   0  0  0  0  0  0  0  0  0  0  0  0
  -35.0324   -1.3601   27.6662 C   0  0  0  0  0  0  0  0  0  0  0  0
  -34.0659   -0.5529   27.0237 C   0  0  0  0  0  0  0  0  0  0  0  0
  -32.7427   -1.0214   27.5023 C   0  0  0  0  0  0  0  0  0  0  0  0
  -31.6503   -0.5827   27.2134 O   0  0  0  0  0  0  0  0  0  0  0  0
  -32.9840   -2.1486   28.4225 C   0  0  0  0  0  0  0  0  0  0  0  0
  -32.0673   -2.9188   29.1093 C   0  0  0  0  0  0  0  0  0  0  0  0
  -32.5873   -3.9220   29.9165 C   0  0  0  0  0  0  0  0  0  0  0  0
  -31.7509   -4.7035   30.6115 F   0  0  0  0  0  0  0  0  0  0  0  0
  -33.9705   -4.1386   30.0255 C   0  0  0  0  0  0  0  0  0  0  0  0
  -34.8780   -3.3406   29.3161 C   0  0  0  0  0  0  0  0  0  0  0  0
  -34.3716   -2.3364   28.5071 C   0  0  0  0  0  0  0  0  0  0  0  0
  -31.7894    1.6300   23.6760 C   0  0  0  0  0  0  0  0  0  0  0  0
  -34.9484    4.9150   23.2629 C   0  0  0  0  0  0  0  0  0  0  0  0
  -33.7015    4.3952   22.5458 C   0  0  0  0  0  0  0  0  0  0  0  0
  -33.6202    2.9574   22.7500 N   0  0  0  0  0  0  0  0  0  0  0  0
  -32.3708    2.2778   22.4024 C   0  0  0  0  0  0  0  0  0  0  0  0
  -31.3497    3.1892   21.6856 C   0  0  0  0  0  0  0  0  0  0  0  0
  -31.7774    3.4448   20.3322 O   0  0  0  0  0  0  0  0  0  0  0  0
  -31.1412    4.5453   22.3814 C   0  0  0  0  0  0  0  0  0  0  0  0
  -30.0935    4.4697   23.3675 O   0  0  0  0  0  0  0  0  0  0  0  0
  -32.4209    5.1035   23.0481 C   0  0  0  0  0  0  0  0  0  0  0  0
  -32.3072    5.0112   24.4796 O   0  0  0  0  0  0  0  0  0  0  0  0
  -34.3612    2.5308   22.1938 H   0  0  0  0  0  0  0  0  0  0  0  0
  -32.6200    3.9252   20.3447 H   0  0  0  0  0  0  0  0  0  0  0  0
  -30.3552    3.8551   24.0709 H   0  0  0  0  0  0  0  0  0  0  0  0
  -32.2240    4.0800   24.7380 H   0  0  0  0  0  0  0  0  0  0  0  0
 22 21  1  0
 22 23  1  0
 23 24  1  0
 24 20  1  0
 20  1  1  0
  1  2  1  0
  2  3  2  0
  2  5  1  0
  5  6  2  0
  6  7  1  0
  7  8  2  0
  8  9  1  0
  9 10  2  0
 10 11  1  0
 11 12  2  0
 11 13  1  0
 13 14  2  0
 14 15  1  0
 15 16  1  0
 15 17  2  0
 17 18  1  0
 18 19  2  0
 24 25  1  0
 25 26  1  0
 25 27  1  0
 27 28  1  0
 27 29  1  0
 29 30  1  0
 29 22  1  0
 10  5  1  0
 19 13  1  0
 19  9  1  0
 23 31  1  0
  1  4  1  0
 26 32  1  0
 28 33  1  0
 30 34  1  0
M  END
> <minimizedAffinity>
-7.12148

> <CNNscore>
0.2739858627

> <CNNaffinity>
3.6634104252

> <CNN_VS>
1.0037226677

> <CNNaffinity_variance>
0.8498144150

$$$$



 34 37  0  0  0  0  0  0  0  0999 V2000
  -32.9713   -5.0136   30.2230 N   0  0  0  0  0  0  0  0  0  0  0  0
  -33.1701   -4.5693   28.9381 C   0  0  0  0  0  0  0  0  0  0  0  0
  -34.0288   -5.0247   28.1886 O   0  0  0  0  0  0  0  0  0  0  0  0
  -32.3521   -4.5253   30.8126 H   0  0  0  0  0  0  0  0  0  0  0  0
  -32.3496   -3.4281   28.4738 C   0  0  0  0  0  0  0  0  0  0  0  0
  -33.0181   -2.2170   28.2227 C   0  0  0  0  0  0  0  0  0  0  0  0
  -32.3244   -1.0757   27.7829 C   0  0  0  0  0  0  0  0  0  0  0  0
  -30.9447   -1.1177   27.5706 C   0  0  0  0  0  0  0  0  0  0  0  0
  -30.2791   -2.3127   27.7966 C   0  0  0  0  0  0  0  0  0  0  0  0
  -30.9851   -3.4532   28.2429 C   0  0  0  0  0  0  0  0  0  0  0  0
  -29.9935   -4.5523   28.3323 C   0  0  0  0  0  0  0  0  0  0  0  0
  -30.1884   -5.7043   28.6548 O   0  0  0  0  0  0  0  0  0  0  0  0
  -28.6839   -3.9926   27.9482 C   0  0  0  0  0  0  0  0  0  0  0  0
  -27.4564   -4.6209   27.8881 C   0  0  0  0  0  0  0  0  0  0  0  0
  -26.3826   -3.8379   27.4851 C   0  0  0  0  0  0  0  0  0  0  0  0
  -25.1644   -4.3879   27.4037 F   0  0  0  0  0  0  0  0  0  0  0  0
  -26.5405   -2.4814   27.1579 C   0  0  0  0  0  0  0  0  0  0  0  0
  -27.7993   -1.8699   27.2281 C   0  0  0  0  0  0  0  0  0  0  0  0
  -28.8786   -2.6405   27.6290 C   0  0  0  0  0  0  0  0  0  0  0  0
  -33.6602   -6.1947   30.7297 C   0  0  0  0  0  0  0  0  0  0  0  0
  -32.2450   -3.0053   33.6903 C   0  0  0  0  0  0  0  0  0  0  0  0
  -33.2638   -4.1419   33.5947 C   0  0  0  0  0  0  0  0  0  0  0  0
  -32.7120   -5.1827   32.7417 N   0  0  0  0  0  0  0  0  0  0  0  0
  -33.6083   -6.2403   32.2708 C   0  0  0  0  0  0  0  0  0  0  0  0
  -35.0141   -6.1895   32.9098 C   0  0  0  0  0  0  0  0  0  0  0  0
  -34.9515   -6.6288   34.2819 O   0  0  0  0  0  0  0  0  0  0  0  0
  -35.6489   -4.7883   32.8887 C   0  0  0  0  0  0  0  0  0  0  0  0
  -36.4006   -4.5744   31.6783 O   0  0  0  0  0  0  0  0  0  0  0  0
  -34.6245   -3.6408   33.0547 C   0  0  0  0  0  0  0  0  0  0  0  0
  -34.4602   -2.9466   31.8050 O   0  0  0  0  0  0  0  0  0  0  0  0
  -31.9601   -5.6336   33.2630 H   0  0  0  0  0  0  0  0  0  0  0  0
  -34.3915   -6.0218   34.7906 H   0  0  0  0  0  0  0  0  0  0  0  0
  -35.8005   -4.5984   30.9166 H   0  0  0  0  0  0  0  0  0  0  0  0
  -34.1101   -3.5585   31.1388 H   0  0  0  0  0  0  0  0  0  0  0  0
 22 21  1  0
 22 23  1  0
 23 24  1  0
 24 20  1  0
 20  1  1  0
  1  2  1  0
  2  3  2  0
  2  5  1  0
  5  6  2  0
  6  7  1  0
  7  8  2  0
  8  9  1  0
  9 10  2  0
 10 11  1  0
 11 12  2  0
 11 13  1  0
 13 14  2  0
 14 15  1  0
 15 16  1  0
 15 17  2  0
 17 18  1  0
 18 19  2  0
 24 25  1  0
 25 26  1  0
 25 27  1  0
 27 28  1  0
 27 29  1  0
 29 30  1  0
 29 22  1  0
 10  5  1  0
 19 13  1  0
 19  9  1  0
 23 31  1  0
  1  4  1  0
 26 32  1  0
 28 33  1  0
 30 34  1  0
M  END
> <minimizedAffinity>
-7.10084

> <CNNscore>
0.2643469870

> <CNNaffinity>
4.6413083076

> <CNN_VS>
1.2269158363

> <CNNaffinity_variance>
0.2646561265

$$$$



 34 37  0  0  0  0  0  0  0  0999 V2000
  -33.6285    1.5942   23.8243 N   0  0  0  0  0  0  0  0  0  0  0  0
  -33.5618    1.5996   25.1967 C   0  0  0  0  0  0  0  0  0  0  0  0
  -32.8244    2.3433   25.8368 O   0  0  0  0  0  0  0  0  0  0  0  0
  -34.3267    1.0638   23.3767 H   0  0  0  0  0  0  0  0  0  0  0  0
  -34.4906    0.7107   25.9305 C   0  0  0  0  0  0  0  0  0  0  0  0
  -35.8673    0.9281   25.7460 C   0  0  0  0  0  0  0  0  0  0  0  0
  -36.8274    0.1328   26.3965 C   0  0  0  0  0  0  0  0  0  0  0  0
  -36.4369   -0.8940   27.2588 C   0  0  0  0  0  0  0  0  0  0  0  0
  -35.0817   -1.1038   27.4626 C   0  0  0  0  0  0  0  0  0  0  0  0
  -34.1245   -0.3016   26.8004 C   0  0  0  0  0  0  0  0  0  0  0  0
  -32.7952   -0.7551   27.2766 C   0  0  0  0  0  0  0  0  0  0  0  0
  -31.7075   -0.3150   26.9729 O   0  0  0  0  0  0  0  0  0  0  0  0
  -33.0235   -1.8689   28.2164 C   0  0  0  0  0  0  0  0  0  0  0  0
  -32.0975   -2.6230   28.9085 C   0  0  0  0  0  0  0  0  0  0  0  0
  -32.6060   -3.6162   29.7352 C   0  0  0  0  0  0  0  0  0  0  0  0
  -31.7603   -4.3819   30.4365 F   0  0  0  0  0  0  0  0  0  0  0  0
  -33.9871   -3.8387   29.8578 C   0  0  0  0  0  0  0  0  0  0  0  0
  -34.9042   -3.0571   29.1425 C   0  0  0  0  0  0  0  0  0  0  0  0
  -34.4094   -2.0630   28.3140 C   0  0  0  0  0  0  0  0  0  0  0  0
  -32.6842    2.3594   23.0186 C   0  0  0  0  0  0  0  0  0  0  0  0
  -31.0165    0.7338   19.0793 C   0  0  0  0  0  0  0  0  0  0  0  0
  -30.5247    1.2598   20.4287 C   0  0  0  0  0  0  0  0  0  0  0  0
  -31.5060    0.9094   21.4434 N   0  0  0  0  0  0  0  0  0  0  0  0
  -31.4003    1.5448   22.7582 C   0  0  0  0  0  0  0  0  0  0  0  0
  -30.1194    2.3905   22.9352 C   0  0  0  0  0  0  0  0  0  0  0  0
  -28.9719    1.5288   23.0785 O   0  0  0  0  0  0  0  0  0  0  0  0
  -29.8490    3.3497   21.7632 C   0  0  0  0  0  0  0  0  0  0  0  0
  -30.4892    4.6231   21.9732 O   0  0  0  0  0  0  0  0  0  0  0  0
  -30.2842    2.7878   20.3889 C   0  0  0  0  0  0  0  0  0  0  0  0
  -31.4553    3.4831   19.9244 O   0  0  0  0  0  0  0  0  0  0  0  0
  -31.4439   -0.0982   21.5888 H   0  0  0  0  0  0  0  0  0  0  0  0
  -28.8540    1.0097   22.2676 H   0  0  0  0  0  0  0  0  0  0  0  0
  -31.4514    4.5020   21.9922 H   0  0  0  0  0  0  0  0  0  0  0  0
  -32.1857    3.3373   20.5458 H   0  0  0  0  0  0  0  0  0  0  0  0
 22 21  1  0
 22 23  1  0
 23 24  1  0
 24 20  1  0
 20  1  1  0
  1  2  1  0
  2  3  2  0
  2  5  1  0
  5  6  2  0
  6  7  1  0
  7  8  2  0
  8  9  1  0
  9 10  2  0
 10 11  1  0
 11 12  2  0
 11 13  1  0
 13 14  2  0
 14 15  1  0
 15 16  1  0
 15 17  2  0
 17 18  1  0
 18 19  2  0
 24 25  1  0
 25 26  1  0
 25 27  1  0
 27 28  1  0
 27 29  1  0
 29 30  1  0
 29 22  1  0
 10  5  1  0
 19 13  1  0
 19  9  1  0
 23 31  1  0
  1  4  1  0
 26 32  1  0
 28 33  1  0
 30 34  1  0
M  END
> <minimizedAffinity>
-7.03643

> <CNNscore>
0.2572675943

> <CNNaffinity>
3.7267215252

> <CNN_VS>
0.9587646723

> <CNNaffinity_variance>
0.6536990404

$$$$



 34 37  0  0  0  0  0  0  0  0999 V2000
  -29.6413    2.3187   27.1117 N   0  0  0  0  0  0  0  0  0  0  0  0
  -30.2056    2.2289   25.8621 C   0  0  0  0  0  0  0  0  0  0  0  0
  -29.5520    2.1957   24.8238 O   0  0  0  0  0  0  0  0  0  0  0  0
  -30.2114    2.2163   27.9077 H   0  0  0  0  0  0  0  0  0  0  0  0
  -31.6770    2.0874   25.7843 C   0  0  0  0  0  0  0  0  0  0  0  0
  -32.3887    3.1213   25.1507 C   0  0  0  0  0  0  0  0  0  0  0  0
  -33.7883    3.0753   25.0238 C   0  0  0  0  0  0  0  0  0  0  0  0
  -34.5159    1.9997   25.5378 C   0  0  0  0  0  0  0  0  0  0  0  0
  -33.8253    0.9845   26.1817 C   0  0  0  0  0  0  0  0  0  0  0  0
  -32.4177    1.0381   26.3001 C   0  0  0  0  0  0  0  0  0  0  0  0
  -32.0157   -0.1607   27.0750 C   0  0  0  0  0  0  0  0  0  0  0  0
  -30.8988   -0.4839   27.4175 O   0  0  0  0  0  0  0  0  0  0  0  0
  -33.2439   -0.9215   27.3728 C   0  0  0  0  0  0  0  0  0  0  0  0
  -33.3819   -2.1116   28.0583 C   0  0  0  0  0  0  0  0  0  0  0  0
  -34.6752   -2.5996   28.1911 C   0  0  0  0  0  0  0  0  0  0  0  0
  -34.8778   -3.7491   28.8476 F   0  0  0  0  0  0  0  0  0  0  0  0
  -35.7798   -1.9174   27.6558 C   0  0  0  0  0  0  0  0  0  0  0  0
  -35.6094   -0.7106   26.9644 C   0  0  0  0  0  0  0  0  0  0  0  0
  -34.3238   -0.2133   26.8249 C   0  0  0  0  0  0  0  0  0  0  0  0
  -28.2135    2.5627   27.2806 C   0  0  0  0  0  0  0  0  0  0  0  0
  -27.1274   -1.8663   26.9003 C   0  0  0  0  0  0  0  0  0  0  0  0
  -26.6700   -0.6099   27.6430 C   0  0  0  0  0  0  0  0  0  0  0  0
  -27.8337    0.2269   27.8897 N   0  0  0  0  0  0  0  0  0  0  0  0
  -27.6147    1.6054   28.3316 C   0  0  0  0  0  0  0  0  0  0  0  0
  -26.1367    1.9263   28.6472 C   0  0  0  0  0  0  0  0  0  0  0  0
  -25.7451    1.2953   29.8834 O   0  0  0  0  0  0  0  0  0  0  0  0
  -25.1602    1.4678   27.5504 C   0  0  0  0  0  0  0  0  0  0  0  0
  -24.9721    2.4944   26.5573 O   0  0  0  0  0  0  0  0  0  0  0  0
  -25.5888    0.1585   26.8463 C   0  0  0  0  0  0  0  0  0  0  0  0
  -26.0386    0.4460   25.5099 O   0  0  0  0  0  0  0  0  0  0  0  0
  -28.3918   -0.2355   28.6074 H   0  0  0  0  0  0  0  0  0  0  0  0
  -25.8077    0.3320   29.7888 H   0  0  0  0  0  0  0  0  0  0  0  0
  -25.8123    2.6622   26.1025 H   0  0  0  0  0  0  0  0  0  0  0  0
  -26.8147    1.0265   25.5478 H   0  0  0  0  0  0  0  0  0  0  0  0
 22 21  1  0
 22 23  1  0
 23 24  1  0
 24 20  1  0
 20  1  1  0
  1  2  1  0
  2  3  2  0
  2  5  1  0
  5  6  2  0
  6  7  1  0
  7  8  2  0
  8  9  1  0
  9 10  2  0
 10 11  1  0
 11 12  2  0
 11 13  1  0
 13 14  2  0
 14 15  1  0
 15 16  1  0
 15 17  2  0
 17 18  1  0
 18 19  2  0
 24 25  1  0
 25 26  1  0
 25 27  1  0
 27 28  1  0
 27 29  1  0
 29 30  1  0
 29 22  1  0
 10  5  1  0
 19 13  1  0
 19  9  1  0
 23 31  1  0
  1  4  1  0
 26 32  1  0
 28 33  1  0
 30 34  1  0
M  END
> <minimizedAffinity>
-8.93885

> <CNNscore>
0.2275386304

> <CNNaffinity>
5.0961375237

> <CNN_VS>
1.1595681906

> <CNNaffinity_variance>
0.1209863797

$$$$



 34 37  0  0  0  0  0  0  0  0999 V2000
  -32.6446    2.3618   25.8113 N   0  0  0  0  0  0  0  0  0  0  0  0
  -32.6802    1.0210   25.5129 C   0  0  0  0  0  0  0  0  0  0  0  0
  -33.2010    0.5656   24.4991 O   0  0  0  0  0  0  0  0  0  0  0  0
  -32.1059    2.6728   26.5744 H   0  0  0  0  0  0  0  0  0  0  0  0
  -31.9815    0.0963   26.4337 C   0  0  0  0  0  0  0  0  0  0  0  0
  -30.5759    0.1300   26.4328 C   0  0  0  0  0  0  0  0  0  0  0  0
  -29.8233   -0.7072   27.2754 C   0  0  0  0  0  0  0  0  0  0  0  0
  -30.4555   -1.6099   28.1332 C   0  0  0  0  0  0  0  0  0  0  0  0
  -31.8408   -1.6648   28.1274 C   0  0  0  0  0  0  0  0  0  0  0  0
  -32.5884   -0.8156   27.2798 C   0  0  0  0  0  0  0  0  0  0  0  0
  -34.0145   -1.1661   27.4864 C   0  0  0  0  0  0  0  0  0  0  0  0
  -34.9838   -0.6899   26.9361 O   0  0  0  0  0  0  0  0  0  0  0  0
  -34.0604   -2.2298   28.5073 C   0  0  0  0  0  0  0  0  0  0  0  0
  -35.1591   -2.8722   29.0414 C   0  0  0  0  0  0  0  0  0  0  0  0
  -34.8991   -3.8471   29.9955 C   0  0  0  0  0  0  0  0  0  0  0  0
  -35.9217   -4.5096   30.5512 F   0  0  0  0  0  0  0  0  0  0  0  0
  -33.5890   -4.1595   30.3932 C   0  0  0  0  0  0  0  0  0  0  0  0
  -32.4924   -3.4905   29.8334 C   0  0  0  0  0  0  0  0  0  0  0  0
  -32.7386   -2.5155   28.8805 C   0  0  0  0  0  0  0  0  0  0  0  0
  -33.3900    3.3327   25.0187 C   0  0  0  0  0  0  0  0  0  0  0  0
  -34.9924    3.1983   20.7344 C   0  0  0  0  0  0  0  0  0  0  0  0
  -33.9660    3.9588   21.5754 C   0  0  0  0  0  0  0  0  0  0  0  0
  -33.4460    3.0571   22.5912 N   0  0  0  0  0  0  0  0  0  0  0  0
  -32.6643    3.6278   23.6898 C   0  0  0  0  0  0  0  0  0  0  0  0
  -32.3505    5.1300   23.5103 C   0  0  0  0  0  0  0  0  0  0  0  0
  -31.3489    5.3088   22.4883 O   0  0  0  0  0  0  0  0  0  0  0  0
  -33.5782    5.9728   23.1241 C   0  0  0  0  0  0  0  0  0  0  0  0
  -34.2699    6.4527   24.2933 O   0  0  0  0  0  0  0  0  0  0  0  0
  -34.5831    5.2249   22.2160 C   0  0  0  0  0  0  0  0  0  0  0  0
  -35.7697    4.9001   22.9626 O   0  0  0  0  0  0  0  0  0  0  0  0
  -32.8501    2.3788   22.1168 H   0  0  0  0  0  0  0  0  0  0  0  0
  -31.6936    4.9921   21.6387 H   0  0  0  0  0  0  0  0  0  0  0  0
  -34.6200    5.6993   24.7939 H   0  0  0  0  0  0  0  0  0  0  0  0
  -35.5387    4.3077   23.6951 H   0  0  0  0  0  0  0  0  0  0  0  0
 22 21  1  0
 22 23  1  0
 23 24  1  0
 24 20  1  0
 20  1  1  0
  1  2  1  0
  2  3  2  0
  2  5  1  0
  5  6  2  0
  6  7  1  0
  7  8  2  0
  8  9  1  0
  9 10  2  0
 10 11  1  0
 11 12  2  0
 11 13  1  0
 13 14  2  0
 14 15  1  0
 15 16  1  0
 15 17  2  0
 17 18  1  0
 18 19  2  0
 24 25  1  0
 25 26  1  0
 25 27  1  0
 27 28  1  0
 27 29  1  0
 29 30  1  0
 29 22  1  0
 10  5  1  0
 19 13  1  0
 19  9  1  0
 23 31  1  0
  1  4  1  0
 26 32  1  0
 28 33  1  0
 30 34  1  0
M  END
> <minimizedAffinity>
-7.11528

> <CNNscore>
0.2178925723

> <CNNaffinity>
3.7059066296

> <CNN_VS>
0.8074895144

> <CNNaffinity_variance>
0.5129871368

$$$$



 34 37  0  0  0  0  0  0  0  0999 V2000
  -32.3609   -4.8764   30.9540 N   0  0  0  0  0  0  0  0  0  0  0  0
  -32.6830   -4.7033   29.6295 C   0  0  0  0  0  0  0  0  0  0  0  0
  -33.5163   -5.3847   29.0398 O   0  0  0  0  0  0  0  0  0  0  0  0
  -31.7776   -4.2199   31.3991 H   0  0  0  0  0  0  0  0  0  0  0  0
  -32.0393   -3.5815   28.9096 C   0  0  0  0  0  0  0  0  0  0  0  0
  -32.8467   -2.4753   28.5916 C   0  0  0  0  0  0  0  0  0  0  0  0
  -32.3252   -1.3596   27.9129 C   0  0  0  0  0  0  0  0  0  0  0  0
  -30.9846   -1.3248   27.5229 C   0  0  0  0  0  0  0  0  0  0  0  0
  -30.1848   -2.4190   27.8145 C   0  0  0  0  0  0  0  0  0  0  0  0
  -30.7177   -3.5338   28.5011 C   0  0  0  0  0  0  0  0  0  0  0  0
  -29.6218   -4.5280   28.6015 C   0  0  0  0  0  0  0  0  0  0  0  0
  -29.6641   -5.6326   29.0989 O   0  0  0  0  0  0  0  0  0  0  0  0
  -28.4294   -3.9302   27.9718 C   0  0  0  0  0  0  0  0  0  0  0  0
  -27.1641   -4.4634   27.8304 C   0  0  0  0  0  0  0  0  0  0  0  0
  -26.2284   -3.6663   27.1843 C   0  0  0  0  0  0  0  0  0  0  0  0
  -24.9825   -4.1262   27.0128 F   0  0  0  0  0  0  0  0  0  0  0  0
  -26.5548   -2.3881   26.7028 C   0  0  0  0  0  0  0  0  0  0  0  0
  -27.8481   -1.8725   26.8607 C   0  0  0  0  0  0  0  0  0  0  0  0
  -28.7908   -2.6580   27.5039 C   0  0  0  0  0  0  0  0  0  0  0  0
  -32.8669   -6.0143   31.7126 C   0  0  0  0  0  0  0  0  0  0  0  0
  -31.2278   -5.0341   35.8711 C   0  0  0  0  0  0  0  0  0  0  0  0
  -31.4354   -6.2373   34.9500 C   0  0  0  0  0  0  0  0  0  0  0  0
  -31.2982   -5.7903   33.5728 N   0  0  0  0  0  0  0  0  0  0  0  0
  -31.7308   -6.6935   32.5047 C   0  0  0  0  0  0  0  0  0  0  0  0
  -32.1216   -8.1017   33.0062 C   0  0  0  0  0  0  0  0  0  0  0  0
  -30.9406   -8.8419   33.3764 O   0  0  0  0  0  0  0  0  0  0  0  0
  -33.0685   -8.0819   34.2185 C   0  0  0  0  0  0  0  0  0  0  0  0
  -34.4477   -8.0561   33.8025 O   0  0  0  0  0  0  0  0  0  0  0  0
  -32.8123   -6.9024   35.1863 C   0  0  0  0  0  0  0  0  0  0  0  0
  -33.8764   -5.9398   35.0775 O   0  0  0  0  0  0  0  0  0  0  0  0
  -30.3103   -5.5895   33.4172 H   0  0  0  0  0  0  0  0  0  0  0  0
  -30.4974   -8.3955   34.1148 H   0  0  0  0  0  0  0  0  0  0  0  0
  -34.6250   -7.2325   33.3217 H   0  0  0  0  0  0  0  0  0  0  0  0
  -33.8970   -5.5810   34.1765 H   0  0  0  0  0  0  0  0  0  0  0  0
 22 21  1  0
 22 23  1  0
 23 24  1  0
 24 20  1  0
 20  1  1  0
  1  2  1  0
  2  3  2  0
  2  5  1  0
  5  6  2  0
  6  7  1  0
  7  8  2  0
  8  9  1  0
  9 10  2  0
 10 11  1  0
 11 12  2  0
 11 13  1  0
 13 14  2  0
 14 15  1  0
 15 16  1  0
 15 17  2  0
 17 18  1  0
 18 19  2  0
 24 25  1  0
 25 26  1  0
 25 27  1  0
 27 28  1  0
 27 29  1  0
 29 30  1  0
 29 22  1  0
 10  5  1  0
 19 13  1  0
 19  9  1  0
 23 31  1  0
  1  4  1  0
 26 32  1  0
 28 33  1  0
 30 34  1  0
M  END
> <minimizedAffinity>
-7.12399

> <CNNscore>
0.2065263689

> <CNNaffinity>
4.2378439903

> <CNN_VS>
0.8752265573

> <CNNaffinity_variance>
0.7328166962

$$$$



 34 37  0  0  0  0  0  0  0  0999 V2000
  -34.5223   -2.9228   29.1328 N   0  0  0  0  0  0  0  0  0  0  0  0
  -34.3455   -1.9694   28.1592 C   0  0  0  0  0  0  0  0  0  0  0  0
  -35.2729   -1.4058   27.5858 O   0  0  0  0  0  0  0  0  0  0  0  0
  -33.7427   -3.2459   29.6397 H   0  0  0  0  0  0  0  0  0  0  0  0
  -32.9583   -1.5548   27.8513 C   0  0  0  0  0  0  0  0  0  0  0  0
  -31.9206   -2.3433   28.3788 C   0  0  0  0  0  0  0  0  0  0  0  0
  -30.5705   -2.0327   28.1380 C   0  0  0  0  0  0  0  0  0  0  0  0
  -30.2209   -0.9178   27.3730 C   0  0  0  0  0  0  0  0  0  0  0  0
  -31.2364   -0.1225   26.8646 C   0  0  0  0  0  0  0  0  0  0  0  0
  -32.5907   -0.4461   27.1088 C   0  0  0  0  0  0  0  0  0  0  0  0
  -33.3987    0.6233   26.4741 C   0  0  0  0  0  0  0  0  0  0  0  0
  -34.6053    0.7382   26.4678 O   0  0  0  0  0  0  0  0  0  0  0  0
  -32.4577    1.5591   25.8301 C   0  0  0  0  0  0  0  0  0  0  0  0
  -32.7307    2.7022   25.1062 C   0  0  0  0  0  0  0  0  0  0  0  0
  -31.6333    3.3969   24.6147 C   0  0  0  0  0  0  0  0  0  0  0  0
  -31.8298    4.5159   23.9059 F   0  0  0  0  0  0  0  0  0  0  0  0
  -30.3192    2.9575   24.8432 C   0  0  0  0  0  0  0  0  0  0  0  0
  -30.0722    1.7928   25.5821 C   0  0  0  0  0  0  0  0  0  0  0  0
  -31.1588    1.0905   26.0777 C   0  0  0  0  0  0  0  0  0  0  0  0
  -35.8433   -3.4647   29.4291 C   0  0  0  0  0  0  0  0  0  0  0  0
  -32.1267   -5.5632   31.0796 C   0  0  0  0  0  0  0  0  0  0  0  0
  -33.6131   -5.3952   31.3986 C   0  0  0  0  0  0  0  0  0  0  0  0
  -34.3381   -5.2513   30.1460 N   0  0  0  0  0  0  0  0  0  0  0  0
  -35.7289   -4.7967   30.1987 C   0  0  0  0  0  0  0  0  0  0  0  0
  -36.2936   -4.6991   31.6335 C   0  0  0  0  0  0  0  0  0  0  0  0
  -36.5340   -6.0188   32.1629 O   0  0  0  0  0  0  0  0  0  0  0  0
  -35.3651   -3.9578   32.6108 C   0  0  0  0  0  0  0  0  0  0  0  0
  -35.6340   -2.5424   32.6135 O   0  0  0  0  0  0  0  0  0  0  0  0
  -33.8606   -4.1841   32.3291 C   0  0  0  0  0  0  0  0  0  0  0  0
  -33.2792   -2.9861   31.7835 O   0  0  0  0  0  0  0  0  0  0  0  0
  -34.3353   -6.1631   29.6887 H   0  0  0  0  0  0  0  0  0  0  0  0
  -35.6942   -6.5000   32.2255 H   0  0  0  0  0  0  0  0  0  0  0  0
  -35.4362   -2.1740   31.7383 H   0  0  0  0  0  0  0  0  0  0  0  0
  -33.7073   -2.7745   30.9392 H   0  0  0  0  0  0  0  0  0  0  0  0
 22 21  1  0
 22 23  1  0
 23 24  1  0
 24 20  1  0
 20  1  1  0
  1  2  1  0
  2  3  2  0
  2  5  1  0
  5  6  2  0
  6  7  1  0
  7  8  2  0
  8  9  1  0
  9 10  2  0
 10 11  1  0
 11 12  2  0
 11 13  1  0
 13 14  2  0
 14 15  1  0
 15 16  1  0
 15 17  2  0
 17 18  1  0
 18 19  2  0
 24 25  1  0
 25 26  1  0
 25 27  1  0
 27 28  1  0
 27 29  1  0
 29 30  1  0
 29 22  1  0
 10  5  1  0
 19 13  1  0
 19  9  1  0
 23 31  1  0
  1  4  1  0
 26 32  1  0
 28 33  1  0
 30 34  1  0
M  END
> <minimizedAffinity>
-7.32332

> <CNNscore>
0.2007550597

> <CNNaffinity>
3.6631958485

> <CNN_VS>
0.7354050875

> <CNNaffinity_variance>
0.7568077445

$$$$
