


 27 28  0  0  0  0  0  0  0  0999 V2000
   21.5682    0.0611   39.4212 C   0  0  0  0  0  0  0  0  0  0  0  0
   22.0049   -1.3954   39.3082 C   0  0  0  0  0  0  0  0  0  0  0  0
   22.7516   -1.8006   38.4202 O   0  0  0  0  0  0  0  0  0  0  0  0
   21.5454   -2.3060   40.4436 C   0  0  0  0  0  0  0  0  0  0  0  0
   22.0611   -3.6266   40.3400 O   0  0  0  0  0  0  0  0  0  0  0  0
   22.0975   -1.7086   41.7454 C   0  0  0  0  0  0  0  0  0  0  0  0
   21.5570   -2.3923   42.8718 O   0  0  0  0  0  0  0  0  0  0  0  0
   21.7655   -0.2244   41.8921 C   0  0  0  0  0  0  0  0  0  0  0  0
   22.2523    0.6282   40.7050 C   0  0  0  0  0  0  0  0  0  0  0  0
   21.7617    1.9653   40.9085 O   0  0  0  0  0  0  0  0  0  0  0  0
   23.0303   -3.5983   40.3674 H   0  0  0  0  0  0  0  0  0  0  0  0
   20.5942   -2.2753   42.8896 H   0  0  0  0  0  0  0  0  0  0  0  0
   22.1717    2.3429   41.7023 H   0  0  0  0  0  0  0  0  0  0  0  0
   21.8510    0.8693   38.1405 C   0  0  0  0  0  0  0  0  0  0  0  0
   18.2240    2.2668   36.2366 C   0  0  0  0  0  0  0  0  0  0  0  0
   19.1979    1.6031   35.4925 C   0  0  0  0  0  0  0  0  0  0  0  0
   20.3665    1.1441   36.1119 C   0  0  0  0  0  0  0  0  0  0  0  0
   20.5749    1.3417   37.4838 C   0  0  0  0  0  0  0  0  0  0  0  0
   19.5927    2.0062   38.2252 C   0  0  0  0  0  0  0  0  0  0  0  0
   18.4297    2.4648   37.6030 C   0  0  0  0  0  0  0  0  0  0  0  0
   15.8570    2.3880   36.4417 C   0  0  0  0  0  0  0  0  0  0  0  0
   17.0456    2.7671   35.7588 O   0  0  0  0  0  0  0  0  0  0  0  0
   23.8161    0.7024   40.5068 C   0  0  0  0  0  0  0  0  0  0  0  0
   24.7119    1.1140   41.7100 N   0  0  0  0  0  0  0  0  0  0  0  0
   24.0110    2.0649   42.6743 C   0  0  0  0  0  0  0  0  0  0  0  0
   25.9224    1.8693   41.1252 C   0  0  0  0  0  0  0  0  0  0  0  0
   25.2679   -0.0809   42.4747 C   0  0  0  0  0  0  0  0  0  0  0  0
 21 22  1  0
 22 15  1  0
 15 16  2  0
 16 17  1  0
 17 18  2  0
 18 14  1  0
  1 14  1  0
  1  2  1  0
  2  3  2  0
  2  4  1  0
  4  5  1  0
  4  6  1  0
  6  7  1  0
  6  8  1  0
  8  9  1  0
  9 10  1  0
  9 23  1  0
 23 24  1  0
 24 25  1  0
 24 26  1  0
 24 27  1  0
 18 19  1  0
 19 20  2  0
 20 15  1  0
  9  1  1  0
  5 11  1  0
  7 12  1  0
 10 13  1  0
M  CHG 1  24   1
M  END
> <minimizedAffinity>
-5.79782

> <CNNscore>
0.3477656841

> <CNNaffinity>
3.3140652180

> <CNN_VS>
1.1525181532

> <CNNaffinity_variance>
1.2301110029

$$$$



 27 28  0  0  0  0  0  0  0  0999 V2000
   20.7481    1.5544   40.7770 C   0  0  0  0  0  0  0  0  0  0  0  0
   21.8479    2.3938   41.4179 C   0  0  0  0  0  0  0  0  0  0  0  0
   21.6141    3.3342   42.1737 O   0  0  0  0  0  0  0  0  0  0  0  0
   23.2733    1.9178   41.1515 C   0  0  0  0  0  0  0  0  0  0  0  0
   24.2519    2.6753   41.8509 O   0  0  0  0  0  0  0  0  0  0  0  0
   23.3660    0.4759   41.6699 C   0  0  0  0  0  0  0  0  0  0  0  0
   24.6082   -0.1077   41.2895 O   0  0  0  0  0  0  0  0  0  0  0  0
   22.2448   -0.4106   41.1299 C   0  0  0  0  0  0  0  0  0  0  0  0
   20.8370    0.1387   41.4295 C   0  0  0  0  0  0  0  0  0  0  0  0
   19.8929   -0.7135   40.7571 O   0  0  0  0  0  0  0  0  0  0  0  0
   24.0968    2.6010   42.8055 H   0  0  0  0  0  0  0  0  0  0  0  0
   24.6637   -0.1480   40.3220 H   0  0  0  0  0  0  0  0  0  0  0  0
   19.9272   -1.6024   41.1438 H   0  0  0  0  0  0  0  0  0  0  0  0
   19.3596    2.2144   40.8771 C   0  0  0  0  0  0  0  0  0  0  0  0
   17.4751    2.5722   36.9973 C   0  0  0  0  0  0  0  0  0  0  0  0
   18.8105    2.1858   37.0974 C   0  0  0  0  0  0  0  0  0  0  0  0
   19.4158    2.0622   38.3536 C   0  0  0  0  0  0  0  0  0  0  0  0
   18.6925    2.3218   39.5258 C   0  0  0  0  0  0  0  0  0  0  0  0
   17.3522    2.7066   39.4186 C   0  0  0  0  0  0  0  0  0  0  0  0
   16.7529    2.8313   38.1634 C   0  0  0  0  0  0  0  0  0  0  0  0
   15.4437    2.2135   35.8121 C   0  0  0  0  0  0  0  0  0  0  0  0
   16.7669    2.7343   35.8399 O   0  0  0  0  0  0  0  0  0  0  0  0
   20.4367    0.2107   42.9542 C   0  0  0  0  0  0  0  0  0  0  0  0
   19.7163   -1.0048   43.6048 N   0  0  0  0  0  0  0  0  0  0  0  0
   18.2631   -1.1402   43.1627 C   0  0  0  0  0  0  0  0  0  0  0  0
   19.7079   -0.7545   45.1262 C   0  0  0  0  0  0  0  0  0  0  0  0
   20.4498   -2.3215   43.3806 C   0  0  0  0  0  0  0  0  0  0  0  0
 21 22  1  0
 22 15  1  0
 15 16  2  0
 16 17  1  0
 17 18  2  0
 18 14  1  0
  1 14  1  0
  1  2  1  0
  2  3  2  0
  2  4  1  0
  4  5  1  0
  4  6  1  0
  6  7  1  0
  6  8  1  0
  8  9  1  0
  9 10  1  0
  9 23  1  0
 23 24  1  0
 24 25  1  0
 24 26  1  0
 24 27  1  0
 18 19  1  0
 19 20  2  0
 20 15  1  0
  9  1  1  0
  5 11  1  0
  7 12  1  0
 10 13  1  0
M  CHG 1  24   1
M  END
> <minimizedAffinity>
-4.49142

> <CNNscore>
0.1666633189

> <CNNaffinity>
3.0437812805

> <CNN_VS>
0.5072866678

> <CNNaffinity_variance>
1.1749407053

$$$$



 27 28  0  0  0  0  0  0  0  0999 V2000
   16.2919    4.3976   44.6142 C   0  0  0  0  0  0  0  0  0  0  0  0
   16.4125    5.2541   43.3584 C   0  0  0  0  0  0  0  0  0  0  0  0
   16.9722    6.3482   43.3488 O   0  0  0  0  0  0  0  0  0  0  0  0
   15.8910    4.6117   42.0759 C   0  0  0  0  0  0  0  0  0  0  0  0
   16.1169    5.4111   40.9224 O   0  0  0  0  0  0  0  0  0  0  0  0
   16.6761    3.3073   41.8796 C   0  0  0  0  0  0  0  0  0  0  0  0
   16.1205    2.5521   40.8075 O   0  0  0  0  0  0  0  0  0  0  0  0
   16.6664    2.4278   43.1290 C   0  0  0  0  0  0  0  0  0  0  0  0
   17.1978    3.1470   44.3835 C   0  0  0  0  0  0  0  0  0  0  0  0
   17.0093    2.2580   45.4988 O   0  0  0  0  0  0  0  0  0  0  0  0
   17.0699    5.5514   40.8078 H   0  0  0  0  0  0  0  0  0  0  0  0
   15.2076    2.3061   41.0242 H   0  0  0  0  0  0  0  0  0  0  0  0
   17.5622    1.4698   45.3811 H   0  0  0  0  0  0  0  0  0  0  0  0
   16.6064    5.1813   45.9027 C   0  0  0  0  0  0  0  0  0  0  0  0
   13.5111    4.7290   48.8939 C   0  0  0  0  0  0  0  0  0  0  0  0
   13.2005    5.2298   47.6308 C   0  0  0  0  0  0  0  0  0  0  0  0
   14.2015    5.3672   46.6618 C   0  0  0  0  0  0  0  0  0  0  0  0
   15.5256    5.0037   46.9434 C   0  0  0  0  0  0  0  0  0  0  0  0
   15.8302    4.4995   48.2118 C   0  0  0  0  0  0  0  0  0  0  0  0
   14.8292    4.3667   49.1765 C   0  0  0  0  0  0  0  0  0  0  0  0
   11.4007    5.2503   49.8603 C   0  0  0  0  0  0  0  0  0  0  0  0
   12.6358    4.5485   49.9276 O   0  0  0  0  0  0  0  0  0  0  0  0
   18.7175    3.5699   44.3421 C   0  0  0  0  0  0  0  0  0  0  0  0
   19.7766    2.6504   45.0149 N   0  0  0  0  0  0  0  0  0  0  0  0
   21.2076    3.1222   44.7800 C   0  0  0  0  0  0  0  0  0  0  0  0
   19.6414    1.2619   44.3583 C   0  0  0  0  0  0  0  0  0  0  0  0
   19.5346    2.4559   46.5067 C   0  0  0  0  0  0  0  0  0  0  0  0
 21 22  1  0
 22 15  1  0
 15 16  2  0
 16 17  1  0
 17 18  2  0
 18 14  1  0
  1 14  1  0
  1  2  1  0
  2  3  2  0
  2  4  1  0
  4  5  1  0
  4  6  1  0
  6  7  1  0
  6  8  1  0
  8  9  1  0
  9 10  1  0
  9 23  1  0
 23 24  1  0
 24 25  1  0
 24 26  1  0
 24 27  1  0
 18 19  1  0
 19 20  2  0
 20 15  1  0
  9  1  1  0
  5 11  1  0
  7 12  1  0
 10 13  1  0
M  CHG 1  24   1
M  END
> <minimizedAffinity>
-4.83135

> <CNNscore>
0.1662902534

> <CNNaffinity>
3.0390479565

> <CNN_VS>
0.5053640604

> <CNNaffinity_variance>
0.9091679454

$$$$



 27 28  0  0  0  0  0  0  0  0999 V2000
   14.8342    4.2319   38.9521 C   0  0  0  0  0  0  0  0  0  0  0  0
   14.3316    2.8571   38.5250 C   0  0  0  0  0  0  0  0  0  0  0  0
   14.9175    2.1596   37.7001 O   0  0  0  0  0  0  0  0  0  0  0  0
   13.1058    2.3461   39.2772 C   0  0  0  0  0  0  0  0  0  0  0  0
   12.7399    1.0228   38.9092 O   0  0  0  0  0  0  0  0  0  0  0  0
   13.4786    2.3119   40.7660 C   0  0  0  0  0  0  0  0  0  0  0  0
   12.3295    2.0261   41.5573 O   0  0  0  0  0  0  0  0  0  0  0  0
   14.0656    3.6369   41.2502 C   0  0  0  0  0  0  0  0  0  0  0  0
   15.2931    4.0916   40.4379 C   0  0  0  0  0  0  0  0  0  0  0  0
   15.6573    5.4011   40.9093 O   0  0  0  0  0  0  0  0  0  0  0  0
   13.4721    0.4180   39.1067 H   0  0  0  0  0  0  0  0  0  0  0  0
   11.6744    2.7324   41.4430 H   0  0  0  0  0  0  0  0  0  0  0  0
   15.9474    5.3431   41.8331 H   0  0  0  0  0  0  0  0  0  0  0  0
   15.9113    4.7936   38.0045 C   0  0  0  0  0  0  0  0  0  0  0  0
   18.7262    1.7645   36.7263 C   0  0  0  0  0  0  0  0  0  0  0  0
   18.7992    2.2938   38.0136 C   0  0  0  0  0  0  0  0  0  0  0  0
   17.8824    3.2672   38.4281 C   0  0  0  0  0  0  0  0  0  0  0  0
   16.8797    3.7222   37.5607 C   0  0  0  0  0  0  0  0  0  0  0  0
   16.8103    3.1852   36.2713 C   0  0  0  0  0  0  0  0  0  0  0  0
   17.7286    2.2164   35.8608 C   0  0  0  0  0  0  0  0  0  0  0  0
   20.9340    0.8986   36.5376 C   0  0  0  0  0  0  0  0  0  0  0  0
   19.5559    0.8175   36.1953 O   0  0  0  0  0  0  0  0  0  0  0  0
   16.5647    3.1621   40.5345 C   0  0  0  0  0  0  0  0  0  0  0  0
   17.2301    2.9331   41.9217 N   0  0  0  0  0  0  0  0  0  0  0  0
   18.7530    2.8964   41.8511 C   0  0  0  0  0  0  0  0  0  0  0  0
   16.7637    1.5488   42.4154 C   0  0  0  0  0  0  0  0  0  0  0  0
   16.7852    3.9456   42.9699 C   0  0  0  0  0  0  0  0  0  0  0  0
 21 22  1  0
 22 15  1  0
 15 16  2  0
 16 17  1  0
 17 18  2  0
 18 14  1  0
  1 14  1  0
  1  2  1  0
  2  3  2  0
  2  4  1  0
  4  5  1  0
  4  6  1  0
  6  7  1  0
  6  8  1  0
  8  9  1  0
  9 10  1  0
  9 23  1  0
 23 24  1  0
 24 25  1  0
 24 26  1  0
 24 27  1  0
 18 19  1  0
 19 20  2  0
 20 15  1  0
  9  1  1  0
  5 11  1  0
  7 12  1  0
 10 13  1  0
M  CHG 1  24   1
M  END
> <minimizedAffinity>
-7.00688

> <CNNscore>
0.1642995477

> <CNNaffinity>
4.3912348747

> <CNN_VS>
0.7214779258

> <CNNaffinity_variance>
0.2416087389

$$$$



 27 28  0  0  0  0  0  0  0  0999 V2000
   19.4523    2.2259   41.9663 C   0  0  0  0  0  0  0  0  0  0  0  0
   18.4292    1.1063   42.1231 C   0  0  0  0  0  0  0  0  0  0  0  0
   18.7362   -0.0837   42.1127 O   0  0  0  0  0  0  0  0  0  0  0  0
   17.0011    1.5608   42.4115 C   0  0  0  0  0  0  0  0  0  0  0  0
   16.1100    0.4783   42.6456 O   0  0  0  0  0  0  0  0  0  0  0  0
   17.0494    2.3905   43.7021 C   0  0  0  0  0  0  0  0  0  0  0  0
   15.7892    3.0102   43.9393 O   0  0  0  0  0  0  0  0  0  0  0  0
   18.1110    3.4881   43.6497 C   0  0  0  0  0  0  0  0  0  0  0  0
   19.5237    2.9542   43.3456 C   0  0  0  0  0  0  0  0  0  0  0  0
   20.3889    4.0938   43.1948 O   0  0  0  0  0  0  0  0  0  0  0  0
   16.4122   -0.0286   43.4155 H   0  0  0  0  0  0  0  0  0  0  0  0
   15.5881    3.6220   43.2139 H   0  0  0  0  0  0  0  0  0  0  0  0
   20.4515    4.5662   44.0397 H   0  0  0  0  0  0  0  0  0  0  0  0
   20.8108    1.7230   41.4420 C   0  0  0  0  0  0  0  0  0  0  0  0
   20.7488    1.2904   37.1360 C   0  0  0  0  0  0  0  0  0  0  0  0
   20.4865    2.5273   37.7223 C   0  0  0  0  0  0  0  0  0  0  0  0
   20.5156    2.6672   39.1149 C   0  0  0  0  0  0  0  0  0  0  0  0
   20.8091    1.5719   39.9387 C   0  0  0  0  0  0  0  0  0  0  0  0
   21.0740    0.3341   39.3441 C   0  0  0  0  0  0  0  0  0  0  0  0
   21.0413    0.1982   37.9546 C   0  0  0  0  0  0  0  0  0  0  0  0
   19.4841    0.9299   35.1535 C   0  0  0  0  0  0  0  0  0  0  0  0
   20.7493    1.0160   35.7973 O   0  0  0  0  0  0  0  0  0  0  0  0
   20.1491    2.0021   44.4376 C   0  0  0  0  0  0  0  0  0  0  0  0
   20.6918    2.6200   45.7579 N   0  0  0  0  0  0  0  0  0  0  0  0
   20.8536    1.5916   46.8723 C   0  0  0  0  0  0  0  0  0  0  0  0
   19.6427    3.6451   46.2333 C   0  0  0  0  0  0  0  0  0  0  0  0
   21.9962    3.3838   45.5658 C   0  0  0  0  0  0  0  0  0  0  0  0
 21 22  1  0
 22 15  1  0
 15 16  2  0
 16 17  1  0
 17 18  2  0
 18 14  1  0
  1 14  1  0
  1  2  1  0
  2  3  2  0
  2  4  1  0
  4  5  1  0
  4  6  1  0
  6  7  1  0
  6  8  1  0
  8  9  1  0
  9 10  1  0
  9 23  1  0
 23 24  1  0
 24 25  1  0
 24 26  1  0
 24 27  1  0
 18 19  1  0
 19 20  2  0
 20 15  1  0
  9  1  1  0
  5 11  1  0
  7 12  1  0
 10 13  1  0
M  CHG 1  24   1
M  END
> <minimizedAffinity>
-4.84664

> <CNNscore>
0.1631252766

> <CNNaffinity>
2.5939316750

> <CNN_VS>
0.4231358171

> <CNNaffinity_variance>
1.9441308975

$$$$



 27 28  0  0  0  0  0  0  0  0999 V2000
   19.5687    1.1480   38.9719 C   0  0  0  0  0  0  0  0  0  0  0  0
   20.9686    0.8567   38.4425 C   0  0  0  0  0  0  0  0  0  0  0  0
   21.7344    1.7392   38.0614 O   0  0  0  0  0  0  0  0  0  0  0  0
   21.4078   -0.6028   38.5231 C   0  0  0  0  0  0  0  0  0  0  0  0
   22.7530   -0.8018   38.1090 O   0  0  0  0  0  0  0  0  0  0  0  0
   21.3270   -1.0117   40.0005 C   0  0  0  0  0  0  0  0  0  0  0  0
   21.5393   -2.4133   40.1382 O   0  0  0  0  0  0  0  0  0  0  0  0
   19.9729   -0.6774   40.6243 C   0  0  0  0  0  0  0  0  0  0  0  0
   19.5946    0.8105   40.4962 C   0  0  0  0  0  0  0  0  0  0  0  0
   18.2550    0.9566   40.9999 O   0  0  0  0  0  0  0  0  0  0  0  0
   23.3465   -0.2902   38.6809 H   0  0  0  0  0  0  0  0  0  0  0  0
   20.8387   -2.8939   39.6701 H   0  0  0  0  0  0  0  0  0  0  0  0
   18.2420    0.7521   41.9480 H   0  0  0  0  0  0  0  0  0  0  0  0
   19.0932    2.5765   38.6453 C   0  0  0  0  0  0  0  0  0  0  0  0
   15.1866    2.6316   36.7830 C   0  0  0  0  0  0  0  0  0  0  0  0
   16.3225    2.3498   36.0260 C   0  0  0  0  0  0  0  0  0  0  0  0
   17.5842    2.3239   36.6319 C   0  0  0  0  0  0  0  0  0  0  0  0
   17.7256    2.5778   38.0031 C   0  0  0  0  0  0  0  0  0  0  0  0
   16.5816    2.8572   38.7575 C   0  0  0  0  0  0  0  0  0  0  0  0
   15.3251    2.8848   38.1487 C   0  0  0  0  0  0  0  0  0  0  0  0
   12.8883    3.0174   37.2614 C   0  0  0  0  0  0  0  0  0  0  0  0
   13.9027    2.6923   36.3190 O   0  0  0  0  0  0  0  0  0  0  0  0
   20.5243    1.8256   41.2677 C   0  0  0  0  0  0  0  0  0  0  0  0
   20.5975    1.7541   42.8198 N   0  0  0  0  0  0  0  0  0  0  0  0
   20.3988    0.3416   43.3593 C   0  0  0  0  0  0  0  0  0  0  0  0
   19.4378    2.6150   43.3598 C   0  0  0  0  0  0  0  0  0  0  0  0
   21.8833    2.3466   43.3833 C   0  0  0  0  0  0  0  0  0  0  0  0
 21 22  1  0
 22 15  1  0
 15 16  2  0
 16 17  1  0
 17 18  2  0
 18 14  1  0
  1 14  1  0
  1  2  1  0
  2  3  2  0
  2  4  1  0
  4  5  1  0
  4  6  1  0
  6  7  1  0
  6  8  1  0
  8  9  1  0
  9 10  1  0
  9 23  1  0
 23 24  1  0
 24 25  1  0
 24 26  1  0
 24 27  1  0
 18 19  1  0
 19 20  2  0
 20 15  1  0
  9  1  1  0
  5 11  1  0
  7 12  1  0
 10 13  1  0
M  CHG 1  24   1
M  END
> <minimizedAffinity>
-6.28026

> <CNNscore>
0.1526425034

> <CNNaffinity>
3.5390040874

> <CNN_VS>
0.5402024388

> <CNNaffinity_variance>
0.7629970908

$$$$



 27 28  0  0  0  0  0  0  0  0999 V2000
   20.0469    0.1813   38.7669 C   0  0  0  0  0  0  0  0  0  0  0  0
   20.7854   -1.1409   38.9443 C   0  0  0  0  0  0  0  0  0  0  0  0
   21.9512   -1.3060   38.5921 O   0  0  0  0  0  0  0  0  0  0  0  0
   20.0172   -2.2232   39.6979 C   0  0  0  0  0  0  0  0  0  0  0  0
   20.7864   -3.3977   39.9204 O   0  0  0  0  0  0  0  0  0  0  0  0
   19.6700   -1.6452   41.0769 C   0  0  0  0  0  0  0  0  0  0  0  0
   18.7898   -2.5218   41.7734 O   0  0  0  0  0  0  0  0  0  0  0  0
   18.9947   -0.2779   40.9823 C   0  0  0  0  0  0  0  0  0  0  0  0
   19.8249    0.7581   40.2008 C   0  0  0  0  0  0  0  0  0  0  0  0
   19.0212    1.9447   40.0759 O   0  0  0  0  0  0  0  0  0  0  0  0
   21.5680   -3.1767   40.4507 H   0  0  0  0  0  0  0  0  0  0  0  0
   17.9583   -2.6038   41.2806 H   0  0  0  0  0  0  0  0  0  0  0  0
   18.8673    2.3250   40.9549 H   0  0  0  0  0  0  0  0  0  0  0  0
   20.7665    1.1409   37.8002 C   0  0  0  0  0  0  0  0  0  0  0  0
   24.2335    3.0084   39.5960 C   0  0  0  0  0  0  0  0  0  0  0  0
   23.0352    3.7113   39.4840 C   0  0  0  0  0  0  0  0  0  0  0  0
   21.9124    3.1026   38.9107 C   0  0  0  0  0  0  0  0  0  0  0  0
   21.9736    1.7824   38.4438 C   0  0  0  0  0  0  0  0  0  0  0  0
   23.1782    1.0818   38.5616 C   0  0  0  0  0  0  0  0  0  0  0  0
   24.2967    1.6936   39.1316 C   0  0  0  0  0  0  0  0  0  0  0  0
   26.2939    2.5250   40.6828 C   0  0  0  0  0  0  0  0  0  0  0  0
   25.3996    3.4819   40.1283 O   0  0  0  0  0  0  0  0  0  0  0  0
   21.2051    1.1640   40.8492 C   0  0  0  0  0  0  0  0  0  0  0  0
   21.2154    1.8021   42.2678 N   0  0  0  0  0  0  0  0  0  0  0  0
   20.6308    3.2104   42.2897 C   0  0  0  0  0  0  0  0  0  0  0  0
   22.6930    1.9158   42.6936 C   0  0  0  0  0  0  0  0  0  0  0  0
   20.5223    0.9382   43.3142 C   0  0  0  0  0  0  0  0  0  0  0  0
 21 22  1  0
 22 15  1  0
 15 16  2  0
 16 17  1  0
 17 18  2  0
 18 14  1  0
  1 14  1  0
  1  2  1  0
  2  3  2  0
  2  4  1  0
  4  5  1  0
  4  6  1  0
  6  7  1  0
  6  8  1  0
  8  9  1  0
  9 10  1  0
  9 23  1  0
 23 24  1  0
 24 25  1  0
 24 26  1  0
 24 27  1  0
 18 19  1  0
 19 20  2  0
 20 15  1  0
  9  1  1  0
  5 11  1  0
  7 12  1  0
 10 13  1  0
M  CHG 1  24   1
M  END
> <minimizedAffinity>
-4.63938

> <CNNscore>
0.1487258971

> <CNNaffinity>
2.9096012115

> <CNN_VS>
0.4327330589

> <CNNaffinity_variance>
1.3436988592

$$$$



 27 28  0  0  0  0  0  0  0  0999 V2000
   19.7730   -1.0904   40.4816 C   0  0  0  0  0  0  0  0  0  0  0  0
   20.4613   -2.3852   40.8995 C   0  0  0  0  0  0  0  0  0  0  0  0
   21.6746   -2.4681   41.0769 O   0  0  0  0  0  0  0  0  0  0  0  0
   19.5281   -3.5552   41.1984 C   0  0  0  0  0  0  0  0  0  0  0  0
   20.2138   -4.7047   41.6771 O   0  0  0  0  0  0  0  0  0  0  0  0
   18.5831   -3.0969   42.3180 C   0  0  0  0  0  0  0  0  0  0  0  0
   17.5579   -4.0632   42.5266 O   0  0  0  0  0  0  0  0  0  0  0  0
   17.9129   -1.7602   42.0040 C   0  0  0  0  0  0  0  0  0  0  0  0
   18.9175   -0.6314   41.7045 C   0  0  0  0  0  0  0  0  0  0  0  0
   18.1580    0.5214   41.2995 O   0  0  0  0  0  0  0  0  0  0  0  0
   20.6752   -4.4859   42.5018 H   0  0  0  0  0  0  0  0  0  0  0  0
   17.0252   -4.1487   41.7204 H   0  0  0  0  0  0  0  0  0  0  0  0
   17.6155    0.8286   42.0427 H   0  0  0  0  0  0  0  0  0  0  0  0
   20.7627   -0.0293   39.9640 C   0  0  0  0  0  0  0  0  0  0  0  0
   19.4396    1.8063   36.2745 C   0  0  0  0  0  0  0  0  0  0  0  0
   20.1967    0.6365   36.2458 C   0  0  0  0  0  0  0  0  0  0  0  0
   20.6163    0.0395   37.4405 C   0  0  0  0  0  0  0  0  0  0  0  0
   20.2825    0.6041   38.6792 C   0  0  0  0  0  0  0  0  0  0  0  0
   19.5204    1.7766   38.7011 C   0  0  0  0  0  0  0  0  0  0  0  0
   19.1061    2.3704   37.5070 C   0  0  0  0  0  0  0  0  0  0  0  0
   17.6162    2.9213   35.2296 C   0  0  0  0  0  0  0  0  0  0  0  0
   18.9711    2.4908   35.1886 O   0  0  0  0  0  0  0  0  0  0  0  0
   19.8540   -0.2083   42.9020 C   0  0  0  0  0  0  0  0  0  0  0  0
   19.2131    0.3794   44.1917 N   0  0  0  0  0  0  0  0  0  0  0  0
   18.1620    1.4450   43.9000 C   0  0  0  0  0  0  0  0  0  0  0  0
   20.3480    1.0633   44.9804 C   0  0  0  0  0  0  0  0  0  0  0  0
   18.6261   -0.6895   45.1053 C   0  0  0  0  0  0  0  0  0  0  0  0
 21 22  1  0
 22 15  1  0
 15 16  2  0
 16 17  1  0
 17 18  2  0
 18 14  1  0
  1 14  1  0
  1  2  1  0
  2  3  2  0
  2  4  1  0
  4  5  1  0
  4  6  1  0
  6  7  1  0
  6  8  1  0
  8  9  1  0
  9 10  1  0
  9 23  1  0
 23 24  1  0
 24 25  1  0
 24 26  1  0
 24 27  1  0
 18 19  1  0
 19 20  2  0
 20 15  1  0
  9  1  1  0
  5 11  1  0
  7 12  1  0
 10 13  1  0
M  CHG 1  24   1
M  END
> <minimizedAffinity>
-5.36322

> <CNNscore>
0.1470797658

> <CNNaffinity>
2.8478076458

> <CNN_VS>
0.4188548923

> <CNNaffinity_variance>
1.5997934341

$$$$



 27 28  0  0  0  0  0  0  0  0999 V2000
   19.6043    1.4966   38.7845 C   0  0  0  0  0  0  0  0  0  0  0  0
   20.4529    0.4117   38.1305 C   0  0  0  0  0  0  0  0  0  0  0  0
   21.0009    0.5603   37.0406 O   0  0  0  0  0  0  0  0  0  0  0  0
   20.6767   -0.8408   38.9735 C   0  0  0  0  0  0  0  0  0  0  0  0
   21.5531   -1.7755   38.3580 O   0  0  0  0  0  0  0  0  0  0  0  0
   21.3477   -0.3865   40.2773 C   0  0  0  0  0  0  0  0  0  0  0  0
   21.4199   -1.4692   41.1998 O   0  0  0  0  0  0  0  0  0  0  0  0
   20.5934    0.7576   40.9529 C   0  0  0  0  0  0  0  0  0  0  0  0
   20.3986    1.9818   40.0381 C   0  0  0  0  0  0  0  0  0  0  0  0
   19.5681    2.9184   40.7473 O   0  0  0  0  0  0  0  0  0  0  0  0
   22.4199   -1.3630   38.2189 H   0  0  0  0  0  0  0  0  0  0  0  0
   20.5231   -1.7610   41.4268 H   0  0  0  0  0  0  0  0  0  0  0  0
   20.0385    3.2370   41.5335 H   0  0  0  0  0  0  0  0  0  0  0  0
   19.2146    2.6200   37.8050 C   0  0  0  0  0  0  0  0  0  0  0  0
   14.9805    2.6385   36.9078 C   0  0  0  0  0  0  0  0  0  0  0  0
   15.9075    2.3148   35.9186 C   0  0  0  0  0  0  0  0  0  0  0  0
   17.2760    2.3009   36.2130 C   0  0  0  0  0  0  0  0  0  0  0  0
   17.7346    2.6089   37.5012 C   0  0  0  0  0  0  0  0  0  0  0  0
   16.7992    2.9303   38.4899 C   0  0  0  0  0  0  0  0  0  0  0  0
   15.4351    2.9457   38.1914 C   0  0  0  0  0  0  0  0  0  0  0  0
   12.8744    3.2622   37.8216 C   0  0  0  0  0  0  0  0  0  0  0  0
   13.6237    2.6933   36.7550 O   0  0  0  0  0  0  0  0  0  0  0  0
   21.7173    2.7282   39.5977 C   0  0  0  0  0  0  0  0  0  0  0  0
   22.7696    3.1056   40.6793 N   0  0  0  0  0  0  0  0  0  0  0  0
   22.1382    3.6287   41.9651 C   0  0  0  0  0  0  0  0  0  0  0  0
   23.6205    4.2495   40.0918 C   0  0  0  0  0  0  0  0  0  0  0  0
   23.7284    1.9657   41.0006 C   0  0  0  0  0  0  0  0  0  0  0  0
 21 22  1  0
 22 15  1  0
 15 16  2  0
 16 17  1  0
 17 18  2  0
 18 14  1  0
  1 14  1  0
  1  2  1  0
  2  3  2  0
  2  4  1  0
  4  5  1  0
  4  6  1  0
  6  7  1  0
  6  8  1  0
  8  9  1  0
  9 10  1  0
  9 23  1  0
 23 24  1  0
 24 25  1  0
 24 26  1  0
 24 27  1  0
 18 19  1  0
 19 20  2  0
 20 15  1  0
  9  1  1  0
  5 11  1  0
  7 12  1  0
 10 13  1  0
M  CHG 1  24   1
M  END
> <minimizedAffinity>
-6.92296

> <CNNscore>
0.1421887726

> <CNNaffinity>
3.5052251816

> <CNN_VS>
0.4984036684

> <CNNaffinity_variance>
0.9004853368

$$$$
