


 33 35  0  0  0  0  0  0  0  0999 V2000
   91.8480   93.8087  -43.5597 C   0  0  0  0  0  0  0  0  0  0  0  0
   91.8877   92.9203  -44.6392 C   0  0  0  0  0  0  0  0  0  0  0  0
   91.4013   93.3106  -45.8871 C   0  0  0  0  0  0  0  0  0  0  0  0
   90.8742   94.5916  -46.0596 C   0  0  0  0  0  0  0  0  0  0  0  0
   90.8284   95.5047  -44.9897 C   0  0  0  0  0  0  0  0  0  0  0  0
   91.3166   95.0971  -43.7387 C   0  0  0  0  0  0  0  0  0  0  0  0
   91.2571   95.9975  -42.7055 O   0  0  0  0  0  0  0  0  0  0  0  0
   90.8985   96.8513  -42.8481 H   0  0  0  0  0  0  0  0  0  0  0  0
   92.7830   92.9958  -41.2331 C   0  0  0  0  0  0  0  0  0  0  0  0
   92.3543   93.3643  -42.2927 C   0  0  0  0  0  0  0  0  0  0  0  0
   91.4462   92.3991  -46.9880 C   0  0  0  0  0  0  0  0  0  0  0  0
   91.4768   91.6272  -47.9080 C   0  0  0  0  0  0  0  0  0  0  0  0
   91.5132   90.6734  -49.0223 C   0  0  0  0  0  0  0  0  0  0  0  0
   90.2049   90.4417  -49.5521 O   0  0  0  0  0  0  0  0  0  0  0  0
   89.8703   91.0359  -50.7374 C   0  0  0  0  0  0  0  0  0  0  0  0
   90.4992   92.1416  -51.3115 C   0  0  0  0  0  0  0  0  0  0  0  0
   90.0557   92.6433  -52.5408 C   0  0  0  0  0  0  0  0  0  0  0  0
   88.9874   92.0352  -53.1968 C   0  0  0  0  0  0  0  0  0  0  0  0
   88.3919   92.7166  -54.8563 Br  0  0  0  0  0  0  0  0  0  0  0  0
   88.3594   90.9265  -52.6379 C   0  0  0  0  0  0  0  0  0  0  0  0
   88.8060   90.4283  -51.4117 C   0  0  0  0  0  0  0  0  0  0  0  0
   90.2383   96.8835  -45.2168 C   0  0  0  0  0  0  0  0  0  0  0  0
   91.1267   97.7689  -45.9977 N   0  0  0  0  0  0  0  0  0  0  0  0
   92.3562   98.1201  -45.2750 C   0  0  0  0  0  0  0  0  0  0  0  0
   92.1593   99.1080  -44.1206 C   0  0  0  0  0  0  0  0  0  0  0  0
   91.4545  100.4004  -44.5869 C   0  0  0  0  0  0  0  0  0  0  0  0
   90.1585   99.9967  -45.3251 C   0  0  0  0  0  0  0  0  0  0  0  0
   90.4326   98.9834  -46.4386 C   0  0  0  0  0  0  0  0  0  0  0  0
   91.1290  101.3694  -43.5002 N   0  0  0  0  0  0  0  0  0  0  0  0
   91.8454  101.0341  -42.2510 C   0  0  0  0  0  0  0  0  0  0  0  0
   91.8745  102.2388  -41.3186 C   0  0  0  0  0  0  0  0  0  0  0  0
   89.6832  101.5395  -43.2684 C   0  0  0  0  0  0  0  0  0  0  0  0
   89.0781  100.5170  -42.3063 C   0  0  0  0  0  0  0  0  0  0  0  0
  9 10  3  0
 10  1  1  0
  1  2  2  0
  2  3  1  0
  3 11  1  0
 11 12  3  0
 12 13  1  0
 13 14  1  0
 14 15  1  0
 15 16  2  0
 16 17  1  0
 17 18  2  0
 18 19  1  0
 18 20  1  0
 20 21  2  0
  3  4  2  0
  4  5  1  0
  5 22  1  0
 22 23  1  0
 23 24  1  0
 24 25  1  0
 25 26  1  0
 26 29  1  0
 29 30  1  0
 30 31  1  0
 29 32  1  0
 32 33  1  0
 26 27  1  0
 27 28  1  0
  5  6  2  0
  6  7  1  0
  6  1  1  0
 21 15  1  0
 28 23  1  0
  7  8  1  0
M  END
> <minimizedAffinity>
-6.74486

> <CNNscore>
0.8704878688

> <CNNaffinity>
5.4470829964

> <CNN_VS>
4.7416195869

> <CNNaffinity_variance>
1.1485458612

$$$$



 33 35  0  0  0  0  0  0  0  0999 V2000
   91.9198   93.7435  -43.5706 C   0  0  0  0  0  0  0  0  0  0  0  0
   91.9783   92.8435  -44.6394 C   0  0  0  0  0  0  0  0  0  0  0  0
   91.4679   93.2022  -45.8873 C   0  0  0  0  0  0  0  0  0  0  0  0
   90.8979   94.4632  -46.0703 C   0  0  0  0  0  0  0  0  0  0  0  0
   90.8325   95.3877  -45.0113 C   0  0  0  0  0  0  0  0  0  0  0  0
   91.3452   95.0118  -43.7601 C   0  0  0  0  0  0  0  0  0  0  0  0
   91.2661   95.9226  -42.7374 O   0  0  0  0  0  0  0  0  0  0  0  0
   90.8786   96.7625  -42.8870 H   0  0  0  0  0  0  0  0  0  0  0  0
   92.9018   92.9912  -41.2430 C   0  0  0  0  0  0  0  0  0  0  0  0
   92.4520   93.3316  -42.3032 C   0  0  0  0  0  0  0  0  0  0  0  0
   91.5323   92.2790  -46.9773 C   0  0  0  0  0  0  0  0  0  0  0  0
   91.5760   91.5011  -47.8919 C   0  0  0  0  0  0  0  0  0  0  0  0
   91.6205   90.5424  -49.0016 C   0  0  0  0  0  0  0  0  0  0  0  0
   90.8475   90.9988  -50.1152 O   0  0  0  0  0  0  0  0  0  0  0  0
   89.6351   90.4106  -50.3480 C   0  0  0  0  0  0  0  0  0  0  0  0
   88.5503   90.9909  -51.0069 C   0  0  0  0  0  0  0  0  0  0  0  0
   87.3655   90.2667  -51.1838 C   0  0  0  0  0  0  0  0  0  0  0  0
   87.2692   88.9612  -50.7065 C   0  0  0  0  0  0  0  0  0  0  0  0
   85.6672   87.9874  -50.9476 Br  0  0  0  0  0  0  0  0  0  0  0  0
   88.3481   88.3697  -50.0567 C   0  0  0  0  0  0  0  0  0  0  0  0
   89.5288   89.0955  -49.8833 C   0  0  0  0  0  0  0  0  0  0  0  0
   90.1958   96.7437  -45.2494 C   0  0  0  0  0  0  0  0  0  0  0  0
   91.0769   97.6721  -45.9874 N   0  0  0  0  0  0  0  0  0  0  0  0
   92.3006   98.0038  -45.2460 C   0  0  0  0  0  0  0  0  0  0  0  0
   92.0901   98.9372  -44.0494 C   0  0  0  0  0  0  0  0  0  0  0  0
   91.3729  100.2416  -44.4601 C   0  0  0  0  0  0  0  0  0  0  0  0
   90.0833   99.8576  -45.2196 C   0  0  0  0  0  0  0  0  0  0  0  0
   90.3710   98.8977  -46.3761 C   0  0  0  0  0  0  0  0  0  0  0  0
   91.0342  101.1579  -43.3324 N   0  0  0  0  0  0  0  0  0  0  0  0
   92.2396  101.5225  -42.5576 C   0  0  0  0  0  0  0  0  0  0  0  0
   92.0120  101.2645  -41.0733 C   0  0  0  0  0  0  0  0  0  0  0  0
   89.9589  100.6540  -42.4591 C   0  0  0  0  0  0  0  0  0  0  0  0
   89.5801   99.1942  -42.7099 C   0  0  0  0  0  0  0  0  0  0  0  0
  9 10  3  0
 10  1  1  0
  1  2  2  0
  2  3  1  0
  3 11  1  0
 11 12  3  0
 12 13  1  0
 13 14  1  0
 14 15  1  0
 15 16  2  0
 16 17  1  0
 17 18  2  0
 18 19  1  0
 18 20  1  0
 20 21  2  0
  3  4  2  0
  4  5  1  0
  5 22  1  0
 22 23  1  0
 23 24  1  0
 24 25  1  0
 25 26  1  0
 26 29  1  0
 29 30  1  0
 30 31  1  0
 29 32  1  0
 32 33  1  0
 26 27  1  0
 27 28  1  0
  5  6  2  0
  6  7  1  0
  6  1  1  0
 21 15  1  0
 28 23  1  0
  7  8  1  0
M  END
> <minimizedAffinity>
-7.08862

> <CNNscore>
0.8654127121

> <CNNaffinity>
5.8213667870

> <CNN_VS>
5.0378847122

> <CNNaffinity_variance>
0.6421296000

$$$$



 33 35  0  0  0  0  0  0  0  0999 V2000
   91.8463   93.7772  -43.4832 C   0  0  0  0  0  0  0  0  0  0  0  0
   91.8900   92.8427  -44.5227 C   0  0  0  0  0  0  0  0  0  0  0  0
   91.5055   93.2096  -45.8126 C   0  0  0  0  0  0  0  0  0  0  0  0
   91.0767   94.5135  -46.0670 C   0  0  0  0  0  0  0  0  0  0  0  0
   91.0292   95.4727  -45.0384 C   0  0  0  0  0  0  0  0  0  0  0  0
   91.4141   95.0885  -43.7447 C   0  0  0  0  0  0  0  0  0  0  0  0
   91.3543   96.0343  -42.7529 O   0  0  0  0  0  0  0  0  0  0  0  0
   91.0629   96.9026  -42.9506 H   0  0  0  0  0  0  0  0  0  0  0  0
   92.5861   93.0034  -41.0744 C   0  0  0  0  0  0  0  0  0  0  0  0
   92.2458   93.3558  -42.1710 C   0  0  0  0  0  0  0  0  0  0  0  0
   91.5542   92.2508  -46.8722 C   0  0  0  0  0  0  0  0  0  0  0  0
   91.5864   91.4404  -47.7586 C   0  0  0  0  0  0  0  0  0  0  0  0
   91.6216   90.4405  -48.8318 C   0  0  0  0  0  0  0  0  0  0  0  0
   90.3186   90.2164  -49.3775 O   0  0  0  0  0  0  0  0  0  0  0  0
   89.9589   90.9060  -50.5022 C   0  0  0  0  0  0  0  0  0  0  0  0
   90.6741   91.9480  -51.0943 C   0  0  0  0  0  0  0  0  0  0  0  0
   90.1906   92.5621  -52.2555 C   0  0  0  0  0  0  0  0  0  0  0  0
   88.9953   92.1297  -52.8261 C   0  0  0  0  0  0  0  0  0  0  0  0
   88.3462   92.9625  -54.3940 Br  0  0  0  0  0  0  0  0  0  0  0  0
   88.2791   91.0854  -52.2494 C   0  0  0  0  0  0  0  0  0  0  0  0
   88.7659   90.4746  -51.0914 C   0  0  0  0  0  0  0  0  0  0  0  0
   90.5475   96.8757  -45.3551 C   0  0  0  0  0  0  0  0  0  0  0  0
   91.1887   97.9083  -44.5150 N   0  0  0  0  0  0  0  0  0  0  0  0
   90.2800   99.0124  -44.1798 C   0  0  0  0  0  0  0  0  0  0  0  0
   89.9666   99.9584  -45.3436 C   0  0  0  0  0  0  0  0  0  0  0  0
   91.2526  100.5307  -45.9784 C   0  0  0  0  0  0  0  0  0  0  0  0
   92.1763   99.3447  -46.3356 C   0  0  0  0  0  0  0  0  0  0  0  0
   92.4129   98.4284  -45.1331 C   0  0  0  0  0  0  0  0  0  0  0  0
   91.0369  101.3774  -47.1878 N   0  0  0  0  0  0  0  0  0  0  0  0
   91.4714  100.6782  -48.4160 C   0  0  0  0  0  0  0  0  0  0  0  0
   90.3090  100.5548  -49.3933 C   0  0  0  0  0  0  0  0  0  0  0  0
   91.6347  102.7212  -47.0873 C   0  0  0  0  0  0  0  0  0  0  0  0
   92.1854  103.0601  -45.7019 C   0  0  0  0  0  0  0  0  0  0  0  0
  9 10  3  0
 10  1  1  0
  1  2  2  0
  2  3  1  0
  3 11  1  0
 11 12  3  0
 12 13  1  0
 13 14  1  0
 14 15  1  0
 15 16  2  0
 16 17  1  0
 17 18  2  0
 18 19  1  0
 18 20  1  0
 20 21  2  0
  3  4  2  0
  4  5  1  0
  5 22  1  0
 22 23  1  0
 23 24  1  0
 24 25  1  0
 25 26  1  0
 26 29  1  0
 29 30  1  0
 30 31  1  0
 29 32  1  0
 32 33  1  0
 26 27  1  0
 27 28  1  0
  5  6  2  0
  6  7  1  0
  6  1  1  0
 21 15  1  0
 28 23  1  0
  7  8  1  0
M  END
> <minimizedAffinity>
-6.43052

> <CNNscore>
0.8246724010

> <CNNaffinity>
5.0141277313

> <CNN_VS>
4.1350126266

> <CNNaffinity_variance>
1.2517101765

$$$$



 33 35  0  0  0  0  0  0  0  0999 V2000
   91.8161   93.7309  -43.6087 C   0  0  0  0  0  0  0  0  0  0  0  0
   91.8198   92.8395  -44.6864 C   0  0  0  0  0  0  0  0  0  0  0  0
   91.4131   93.2659  -45.9509 C   0  0  0  0  0  0  0  0  0  0  0  0
   91.0021   94.5863  -46.1418 C   0  0  0  0  0  0  0  0  0  0  0  0
   90.9949   95.5029  -45.0739 C   0  0  0  0  0  0  0  0  0  0  0  0
   91.4017   95.0590  -43.8063 C   0  0  0  0  0  0  0  0  0  0  0  0
   91.3810   95.9639  -42.7755 O   0  0  0  0  0  0  0  0  0  0  0  0
   91.1008   96.8445  -42.9307 H   0  0  0  0  0  0  0  0  0  0  0  0
   92.5957   92.8469  -41.2510 C   0  0  0  0  0  0  0  0  0  0  0  0
   92.2373   93.2489  -42.3245 C   0  0  0  0  0  0  0  0  0  0  0  0
   91.4208   92.3510  -47.0497 C   0  0  0  0  0  0  0  0  0  0  0  0
   91.4176   91.5790  -47.9703 C   0  0  0  0  0  0  0  0  0  0  0  0
   91.4068   90.6265  -49.0862 C   0  0  0  0  0  0  0  0  0  0  0  0
   90.0800   90.4145  -49.5769 O   0  0  0  0  0  0  0  0  0  0  0  0
   89.6677   89.1295  -49.7979 C   0  0  0  0  0  0  0  0  0  0  0  0
   90.3054   87.9710  -49.3519 C   0  0  0  0  0  0  0  0  0  0  0  0
   89.7649   86.7135  -49.6450 C   0  0  0  0  0  0  0  0  0  0  0  0
   88.5845   86.6165  -50.3789 C   0  0  0  0  0  0  0  0  0  0  0  0
   87.8588   84.9160  -50.7725 Br  0  0  0  0  0  0  0  0  0  0  0  0
   87.9355   87.7654  -50.8202 C   0  0  0  0  0  0  0  0  0  0  0  0
   88.4776   89.0183  -50.5245 C   0  0  0  0  0  0  0  0  0  0  0  0
   90.5313   96.9257  -45.3216 C   0  0  0  0  0  0  0  0  0  0  0  0
   91.2577   97.9189  -44.5037 N   0  0  0  0  0  0  0  0  0  0  0  0
   90.4016   99.0290  -44.0657 C   0  0  0  0  0  0  0  0  0  0  0  0
   90.0193  100.0170  -45.1725 C   0  0  0  0  0  0  0  0  0  0  0  0
   91.2643  100.5844  -45.8884 C   0  0  0  0  0  0  0  0  0  0  0  0
   92.1319   99.3929  -46.3520 C   0  0  0  0  0  0  0  0  0  0  0  0
   92.4413   98.4347  -45.1996 C   0  0  0  0  0  0  0  0  0  0  0  0
   90.9738  101.4728  -47.0514 N   0  0  0  0  0  0  0  0  0  0  0  0
   89.6138  101.2354  -47.5805 C   0  0  0  0  0  0  0  0  0  0  0  0
   89.6879  100.6340  -48.9785 C   0  0  0  0  0  0  0  0  0  0  0  0
   91.9903  101.4088  -48.1171 C   0  0  0  0  0  0  0  0  0  0  0  0
   92.9175  102.6231  -48.1727 C   0  0  0  0  0  0  0  0  0  0  0  0
  9 10  3  0
 10  1  1  0
  1  2  2  0
  2  3  1  0
  3 11  1  0
 11 12  3  0
 12 13  1  0
 13 14  1  0
 14 15  1  0
 15 16  2  0
 16 17  1  0
 17 18  2  0
 18 19  1  0
 18 20  1  0
 20 21  2  0
  3  4  2  0
  4  5  1  0
  5 22  1  0
 22 23  1  0
 23 24  1  0
 24 25  1  0
 25 26  1  0
 26 29  1  0
 29 30  1  0
 30 31  1  0
 29 32  1  0
 32 33  1  0
 26 27  1  0
 27 28  1  0
  5  6  2  0
  6  7  1  0
  6  1  1  0
 21 15  1  0
 28 23  1  0
  7  8  1  0
M  END
> <minimizedAffinity>
-6.49671

> <CNNscore>
0.8009027839

> <CNNaffinity>
5.0127029419

> <CNN_VS>
4.0146875381

> <CNNaffinity_variance>
1.3093304634

$$$$



 33 35  0  0  0  0  0  0  0  0999 V2000
   89.3512   86.9901  -50.2163 C   0  0  0  0  0  0  0  0  0  0  0  0
   90.0581   87.8834  -49.4050 C   0  0  0  0  0  0  0  0  0  0  0  0
   89.9582   89.2579  -49.6220 C   0  0  0  0  0  0  0  0  0  0  0  0
   89.1498   89.7435  -50.6511 C   0  0  0  0  0  0  0  0  0  0  0  0
   88.4248   88.8645  -51.4771 C   0  0  0  0  0  0  0  0  0  0  0  0
   88.5386   87.4842  -51.2508 C   0  0  0  0  0  0  0  0  0  0  0  0
   87.8309   86.6419  -52.0703 O   0  0  0  0  0  0  0  0  0  0  0  0
   87.2953   86.9939  -52.7538 H   0  0  0  0  0  0  0  0  0  0  0  0
   89.5992   84.4070  -49.7538 C   0  0  0  0  0  0  0  0  0  0  0  0
   89.4868   85.5845  -49.9613 C   0  0  0  0  0  0  0  0  0  0  0  0
   90.6814   90.1668  -48.7881 C   0  0  0  0  0  0  0  0  0  0  0  0
   91.2982   90.9276  -48.0922 C   0  0  0  0  0  0  0  0  0  0  0  0
   92.0620   91.8469  -47.2412 C   0  0  0  0  0  0  0  0  0  0  0  0
   91.3356   93.0545  -46.9963 O   0  0  0  0  0  0  0  0  0  0  0  0
   91.3903   93.6019  -45.7443 C   0  0  0  0  0  0  0  0  0  0  0  0
   91.1395   94.9349  -45.4158 C   0  0  0  0  0  0  0  0  0  0  0  0
   91.2237   95.3590  -44.0845 C   0  0  0  0  0  0  0  0  0  0  0  0
   91.5531   94.4482  -43.0828 C   0  0  0  0  0  0  0  0  0  0  0  0
   91.6658   95.0258  -41.2865 Br  0  0  0  0  0  0  0  0  0  0  0  0
   91.7957   93.1149  -43.3980 C   0  0  0  0  0  0  0  0  0  0  0  0
   91.7095   92.6957  -44.7277 C   0  0  0  0  0  0  0  0  0  0  0  0
   87.5659   89.4328  -52.5907 C   0  0  0  0  0  0  0  0  0  0  0  0
   86.1219   89.2018  -52.3795 N   0  0  0  0  0  0  0  0  0  0  0  0
   85.2855   89.8944  -53.3684 C   0  0  0  0  0  0  0  0  0  0  0  0
   85.2084   91.4139  -53.1887 C   0  0  0  0  0  0  0  0  0  0  0  0
   84.7436   91.7995  -51.7675 C   0  0  0  0  0  0  0  0  0  0  0  0
   85.6542   91.0706  -50.7541 C   0  0  0  0  0  0  0  0  0  0  0  0
   85.7067   89.5646  -51.0204 C   0  0  0  0  0  0  0  0  0  0  0  0
   84.7457   93.2631  -51.4779 N   0  0  0  0  0  0  0  0  0  0  0  0
   85.3950   94.0240  -52.5668 C   0  0  0  0  0  0  0  0  0  0  0  0
   86.0444   95.2870  -52.0149 C   0  0  0  0  0  0  0  0  0  0  0  0
   85.3122   93.6081  -50.1614 C   0  0  0  0  0  0  0  0  0  0  0  0
   84.2771   94.0679  -49.1346 C   0  0  0  0  0  0  0  0  0  0  0  0
  9 10  3  0
 10  1  1  0
  1  2  2  0
  2  3  1  0
  3 11  1  0
 11 12  3  0
 12 13  1  0
 13 14  1  0
 14 15  1  0
 15 16  2  0
 16 17  1  0
 17 18  2  0
 18 19  1  0
 18 20  1  0
 20 21  2  0
  3  4  2  0
  4  5  1  0
  5 22  1  0
 22 23  1  0
 23 24  1  0
 24 25  1  0
 25 26  1  0
 26 29  1  0
 29 30  1  0
 30 31  1  0
 29 32  1  0
 32 33  1  0
 26 27  1  0
 27 28  1  0
  5  6  2  0
  6  7  1  0
  6  1  1  0
 21 15  1  0
 28 23  1  0
  7  8  1  0
M  END
> <minimizedAffinity>
-5.50140

> <CNNscore>
0.6859280467

> <CNNaffinity>
4.8230080605

> <CNN_VS>
3.3082365990

> <CNNaffinity_variance>
1.3934329748

$$$$



 33 35  0  0  0  0  0  0  0  0999 V2000
   89.3139   87.1722  -50.2640 C   0  0  0  0  0  0  0  0  0  0  0  0
   90.0020   88.0581  -49.4286 C   0  0  0  0  0  0  0  0  0  0  0  0
   89.9831   89.4281  -49.6913 C   0  0  0  0  0  0  0  0  0  0  0  0
   89.2749   89.9167  -50.7905 C   0  0  0  0  0  0  0  0  0  0  0  0
   88.5706   89.0455  -51.6423 C   0  0  0  0  0  0  0  0  0  0  0  0
   88.6023   87.6693  -51.3690 C   0  0  0  0  0  0  0  0  0  0  0  0
   87.9166   86.8342  -52.2141 O   0  0  0  0  0  0  0  0  0  0  0  0
   87.4490   87.1881  -52.9448 H   0  0  0  0  0  0  0  0  0  0  0  0
   89.4115   84.5974  -49.7084 C   0  0  0  0  0  0  0  0  0  0  0  0
   89.3642   85.7708  -49.9598 C   0  0  0  0  0  0  0  0  0  0  0  0
   90.6864   90.3296  -48.8327 C   0  0  0  0  0  0  0  0  0  0  0  0
   91.2867   91.0832  -48.1149 C   0  0  0  0  0  0  0  0  0  0  0  0
   92.0294   91.9931  -47.2356 C   0  0  0  0  0  0  0  0  0  0  0  0
   91.2753   93.1753  -46.9534 O   0  0  0  0  0  0  0  0  0  0  0  0
   91.3393   93.6999  -45.6921 C   0  0  0  0  0  0  0  0  0  0  0  0
   91.0017   95.0028  -45.3232 C   0  0  0  0  0  0  0  0  0  0  0  0
   91.1077   95.4052  -43.9867 C   0  0  0  0  0  0  0  0  0  0  0  0
   91.5459   94.5025  -43.0201 C   0  0  0  0  0  0  0  0  0  0  0  0
   91.6877   95.0507  -41.2166 Br  0  0  0  0  0  0  0  0  0  0  0  0
   91.8760   93.1983  -43.3755 C   0  0  0  0  0  0  0  0  0  0  0  0
   91.7676   92.8006  -44.7101 C   0  0  0  0  0  0  0  0  0  0  0  0
   87.8221   89.6162  -52.8317 C   0  0  0  0  0  0  0  0  0  0  0  0
   87.4740   91.0421  -52.6630 N   0  0  0  0  0  0  0  0  0  0  0  0
   86.2949   91.4352  -53.4457 C   0  0  0  0  0  0  0  0  0  0  0  0
   86.5328   91.5304  -54.9562 C   0  0  0  0  0  0  0  0  0  0  0  0
   87.7067   92.4756  -55.2924 C   0  0  0  0  0  0  0  0  0  0  0  0
   88.9333   92.0237  -54.4686 C   0  0  0  0  0  0  0  0  0  0  0  0
   88.6070   91.9189  -52.9772 C   0  0  0  0  0  0  0  0  0  0  0  0
   88.0719   92.5394  -56.7376 N   0  0  0  0  0  0  0  0  0  0  0  0
   89.4248   91.9913  -56.9732 C   0  0  0  0  0  0  0  0  0  0  0  0
   89.3626   90.8391  -57.9681 C   0  0  0  0  0  0  0  0  0  0  0  0
   87.9179   93.8799  -57.3313 C   0  0  0  0  0  0  0  0  0  0  0  0
   86.8248   93.9718  -58.3962 C   0  0  0  0  0  0  0  0  0  0  0  0
  9 10  3  0
 10  1  1  0
  1  2  2  0
  2  3  1  0
  3 11  1  0
 11 12  3  0
 12 13  1  0
 13 14  1  0
 14 15  1  0
 15 16  2  0
 16 17  1  0
 17 18  2  0
 18 19  1  0
 18 20  1  0
 20 21  2  0
  3  4  2  0
  4  5  1  0
  5 22  1  0
 22 23  1  0
 23 24  1  0
 24 25  1  0
 25 26  1  0
 26 29  1  0
 29 30  1  0
 30 31  1  0
 29 32  1  0
 32 33  1  0
 26 27  1  0
 27 28  1  0
  5  6  2  0
  6  7  1  0
  6  1  1  0
 21 15  1  0
 28 23  1  0
  7  8  1  0
M  END
> <minimizedAffinity>
-5.31258

> <CNNscore>
0.6428109407

> <CNNaffinity>
4.8567824364

> <CNN_VS>
3.1219928265

> <CNNaffinity_variance>
1.1735628843

$$$$



 33 35  0  0  0  0  0  0  0  0999 V2000
   91.5069   94.3679  -43.4571 C   0  0  0  0  0  0  0  0  0  0  0  0
   91.6157   93.3314  -44.3898 C   0  0  0  0  0  0  0  0  0  0  0  0
   91.4061   93.5831  -45.7458 C   0  0  0  0  0  0  0  0  0  0  0  0
   91.0878   94.8732  -46.1736 C   0  0  0  0  0  0  0  0  0  0  0  0
   90.9780   95.9333  -45.2546 C   0  0  0  0  0  0  0  0  0  0  0  0
   91.1865   95.6647  -43.8930 C   0  0  0  0  0  0  0  0  0  0  0  0
   91.0680   96.7083  -43.0105 O   0  0  0  0  0  0  0  0  0  0  0  0
   90.8535   97.5649  -43.3240 H   0  0  0  0  0  0  0  0  0  0  0  0
   91.9049   93.8136  -40.9110 C   0  0  0  0  0  0  0  0  0  0  0  0
   91.7256   94.0636  -42.0719 C   0  0  0  0  0  0  0  0  0  0  0  0
   91.5206   92.5203  -46.6955 C   0  0  0  0  0  0  0  0  0  0  0  0
   91.6076   91.6301  -47.4977 C   0  0  0  0  0  0  0  0  0  0  0  0
   91.6995   90.5407  -48.4762 C   0  0  0  0  0  0  0  0  0  0  0  0
   90.4090   90.1807  -48.9772 O   0  0  0  0  0  0  0  0  0  0  0  0
   89.9872   90.7458  -50.1488 C   0  0  0  0  0  0  0  0  0  0  0  0
   90.5482   91.8592  -50.7758 C   0  0  0  0  0  0  0  0  0  0  0  0
   90.0178   92.3280  -51.9834 C   0  0  0  0  0  0  0  0  0  0  0  0
   88.9305   91.6793  -52.5651 C   0  0  0  0  0  0  0  0  0  0  0  0
   88.2175   92.3163  -54.1957 Br  0  0  0  0  0  0  0  0  0  0  0  0
   88.3696   90.5626  -51.9533 C   0  0  0  0  0  0  0  0  0  0  0  0
   88.9028   90.0974  -50.7490 C   0  0  0  0  0  0  0  0  0  0  0  0
   90.6203   97.3181  -45.7596 C   0  0  0  0  0  0  0  0  0  0  0  0
   89.3855   97.3342  -46.5709 N   0  0  0  0  0  0  0  0  0  0  0  0
   89.2128   98.5873  -47.3173 C   0  0  0  0  0  0  0  0  0  0  0  0
   88.8272   99.7955  -46.4577 C   0  0  0  0  0  0  0  0  0  0  0  0
   87.5590   99.5212  -45.6206 C   0  0  0  0  0  0  0  0  0  0  0  0
   87.7810   98.2092  -44.8352 C   0  0  0  0  0  0  0  0  0  0  0  0
   88.1967   97.0604  -45.7567 C   0  0  0  0  0  0  0  0  0  0  0  0
   87.1786  100.6109  -44.6751 N   0  0  0  0  0  0  0  0  0  0  0  0
   88.3719  101.3238  -44.1711 C   0  0  0  0  0  0  0  0  0  0  0  0
   88.7663  100.7905  -42.7994 C   0  0  0  0  0  0  0  0  0  0  0  0
   86.3067  100.1648  -43.5733 C   0  0  0  0  0  0  0  0  0  0  0  0
   85.3037  101.2181  -43.1021 C   0  0  0  0  0  0  0  0  0  0  0  0
  9 10  3  0
 10  1  1  0
  1  2  2  0
  2  3  1  0
  3 11  1  0
 11 12  3  0
 12 13  1  0
 13 14  1  0
 14 15  1  0
 15 16  2  0
 16 17  1  0
 17 18  2  0
 18 19  1  0
 18 20  1  0
 20 21  2  0
  3  4  2  0
  4  5  1  0
  5 22  1  0
 22 23  1  0
 23 24  1  0
 24 25  1  0
 25 26  1  0
 26 29  1  0
 29 30  1  0
 30 31  1  0
 29 32  1  0
 32 33  1  0
 26 27  1  0
 27 28  1  0
  5  6  2  0
  6  7  1  0
  6  1  1  0
 21 15  1  0
 28 23  1  0
  7  8  1  0
M  END
> <minimizedAffinity>
-6.43278

> <CNNscore>
0.6399021149

> <CNNaffinity>
5.2426123619

> <CNN_VS>
3.3547587395

> <CNNaffinity_variance>
0.8861333728

$$$$



 33 35  0  0  0  0  0  0  0  0999 V2000
   91.6836   94.1241  -43.5047 C   0  0  0  0  0  0  0  0  0  0  0  0
   91.7158   93.1832  -44.5389 C   0  0  0  0  0  0  0  0  0  0  0  0
   91.3580   93.5533  -45.8355 C   0  0  0  0  0  0  0  0  0  0  0  0
   90.9675   94.8668  -46.1021 C   0  0  0  0  0  0  0  0  0  0  0  0
   90.9323   95.8324  -45.0790 C   0  0  0  0  0  0  0  0  0  0  0  0
   91.2900   95.4449  -43.7784 C   0  0  0  0  0  0  0  0  0  0  0  0
   91.2425   96.3973  -42.7922 O   0  0  0  0  0  0  0  0  0  0  0  0
   90.9770   97.2720  -42.9980 H   0  0  0  0  0  0  0  0  0  0  0  0
   92.3711   93.3437  -41.0827 C   0  0  0  0  0  0  0  0  0  0  0  0
   92.0546   93.6991  -42.1853 C   0  0  0  0  0  0  0  0  0  0  0  0
   91.3948   92.5879  -46.8897 C   0  0  0  0  0  0  0  0  0  0  0  0
   91.4338   91.7718  -47.7705 C   0  0  0  0  0  0  0  0  0  0  0  0
   91.4958   90.7749  -48.8452 C   0  0  0  0  0  0  0  0  0  0  0  0
   90.4014   90.9211  -49.7546 O   0  0  0  0  0  0  0  0  0  0  0  0
   89.7504   89.7936  -50.1728 C   0  0  0  0  0  0  0  0  0  0  0  0
   88.8599   89.7052  -51.2437 C   0  0  0  0  0  0  0  0  0  0  0  0
   88.2692   88.4782  -51.5678 C   0  0  0  0  0  0  0  0  0  0  0  0
   88.5741   87.3402  -50.8239 C   0  0  0  0  0  0  0  0  0  0  0  0
   87.7736   85.6857  -51.2652 Br  0  0  0  0  0  0  0  0  0  0  0  0
   89.4679   87.4152  -49.7601 C   0  0  0  0  0  0  0  0  0  0  0  0
   90.0560   88.6413  -49.4409 C   0  0  0  0  0  0  0  0  0  0  0  0
   90.4923   97.2461  -45.4088 C   0  0  0  0  0  0  0  0  0  0  0  0
   89.5457   97.3051  -46.5417 N   0  0  0  0  0  0  0  0  0  0  0  0
   89.4311   98.6520  -47.1163 C   0  0  0  0  0  0  0  0  0  0  0  0
   88.6664   99.6552  -46.2468 C   0  0  0  0  0  0  0  0  0  0  0  0
   87.2596   99.1368  -45.8771 C   0  0  0  0  0  0  0  0  0  0  0  0
   87.4175   97.7293  -45.2595 C   0  0  0  0  0  0  0  0  0  0  0  0
   88.2208   96.7977  -46.1698 C   0  0  0  0  0  0  0  0  0  0  0  0
   86.4908  100.0089  -44.9421 N   0  0  0  0  0  0  0  0  0  0  0  0
   87.3766  100.9790  -44.2636 C   0  0  0  0  0  0  0  0  0  0  0  0
   87.6150  100.5568  -42.8191 C   0  0  0  0  0  0  0  0  0  0  0  0
   85.6627   99.2624  -43.9777 C   0  0  0  0  0  0  0  0  0  0  0  0
   84.1611   99.3296  -44.2570 C   0  0  0  0  0  0  0  0  0  0  0  0
  9 10  3  0
 10  1  1  0
  1  2  2  0
  2  3  1  0
  3 11  1  0
 11 12  3  0
 12 13  1  0
 13 14  1  0
 14 15  1  0
 15 16  2  0
 16 17  1  0
 17 18  2  0
 18 19  1  0
 18 20  1  0
 20 21  2  0
  3  4  2  0
  4  5  1  0
  5 22  1  0
 22 23  1  0
 23 24  1  0
 24 25  1  0
 25 26  1  0
 26 29  1  0
 29 30  1  0
 30 31  1  0
 29 32  1  0
 32 33  1  0
 26 27  1  0
 27 28  1  0
  5  6  2  0
  6  7  1  0
  6  1  1  0
 21 15  1  0
 28 23  1  0
  7  8  1  0
M  END
> <minimizedAffinity>
-6.74319

> <CNNscore>
0.6199858189

> <CNNaffinity>
5.1128897667

> <CNN_VS>
3.1699192524

> <CNNaffinity_variance>
1.2040128708

$$$$



 33 35  0  0  0  0  0  0  0  0999 V2000
   88.4260   88.8257  -50.4208 C   0  0  0  0  0  0  0  0  0  0  0  0
   89.2290   89.8168  -50.9943 C   0  0  0  0  0  0  0  0  0  0  0  0
   88.7251   91.1033  -51.1873 C   0  0  0  0  0  0  0  0  0  0  0  0
   87.4161   91.4029  -50.8061 C   0  0  0  0  0  0  0  0  0  0  0  0
   86.5909   90.4238  -50.2222 C   0  0  0  0  0  0  0  0  0  0  0  0
   87.1091   89.1326  -50.0386 C   0  0  0  0  0  0  0  0  0  0  0  0
   86.2883   88.1889  -49.4751 O   0  0  0  0  0  0  0  0  0  0  0  0
   85.4135   88.4163  -49.2280 H   0  0  0  0  0  0  0  0  0  0  0  0
   89.4538   86.4195  -50.1015 C   0  0  0  0  0  0  0  0  0  0  0  0
   88.9828   87.5148  -50.2453 C   0  0  0  0  0  0  0  0  0  0  0  0
   89.5510   92.1135  -51.7721 C   0  0  0  0  0  0  0  0  0  0  0  0
   90.2508   92.9627  -52.2544 C   0  0  0  0  0  0  0  0  0  0  0  0
   91.1058   94.0065  -52.8307 C   0  0  0  0  0  0  0  0  0  0  0  0
   92.3046   93.4527  -53.3804 O   0  0  0  0  0  0  0  0  0  0  0  0
   93.4439   94.2083  -53.3449 C   0  0  0  0  0  0  0  0  0  0  0  0
   94.7479   93.7421  -53.5180 C   0  0  0  0  0  0  0  0  0  0  0  0
   95.8261   94.6332  -53.4653 C   0  0  0  0  0  0  0  0  0  0  0  0
   95.5984   95.9900  -53.2451 C   0  0  0  0  0  0  0  0  0  0  0  0
   97.0578   97.1893  -53.1744 Br  0  0  0  0  0  0  0  0  0  0  0  0
   94.3016   96.4669  -53.0808 C   0  0  0  0  0  0  0  0  0  0  0  0
   93.2284   95.5744  -53.1353 C   0  0  0  0  0  0  0  0  0  0  0  0
   85.1712   90.7879  -49.8316 C   0  0  0  0  0  0  0  0  0  0  0  0
   84.7504   92.1051  -50.3522 N   0  0  0  0  0  0  0  0  0  0  0  0
   84.9315   93.1863  -49.3747 C   0  0  0  0  0  0  0  0  0  0  0  0
   83.9321   93.1726  -48.2135 C   0  0  0  0  0  0  0  0  0  0  0  0
   82.4717   93.1776  -48.7151 C   0  0  0  0  0  0  0  0  0  0  0  0
   82.3106   92.0192  -49.7249 C   0  0  0  0  0  0  0  0  0  0  0  0
   83.3647   92.0821  -50.8325 C   0  0  0  0  0  0  0  0  0  0  0  0
   81.4369   93.0566  -47.6472 N   0  0  0  0  0  0  0  0  0  0  0  0
   81.6521   94.0537  -46.5769 C   0  0  0  0  0  0  0  0  0  0  0  0
   81.1105   93.5322  -45.2517 C   0  0  0  0  0  0  0  0  0  0  0  0
   81.3024   91.6939  -47.1011 C   0  0  0  0  0  0  0  0  0  0  0  0
   79.9454   91.0425  -47.3687 C   0  0  0  0  0  0  0  0  0  0  0  0
  9 10  3  0
 10  1  1  0
  1  2  2  0
  2  3  1  0
  3 11  1  0
 11 12  3  0
 12 13  1  0
 13 14  1  0
 14 15  1  0
 15 16  2  0
 16 17  1  0
 17 18  2  0
 18 19  1  0
 18 20  1  0
 20 21  2  0
  3  4  2  0
  4  5  1  0
  5 22  1  0
 22 23  1  0
 23 24  1  0
 24 25  1  0
 25 26  1  0
 26 29  1  0
 29 30  1  0
 30 31  1  0
 29 32  1  0
 32 33  1  0
 26 27  1  0
 27 28  1  0
  5  6  2  0
  6  7  1  0
  6  1  1  0
 21 15  1  0
 28 23  1  0
  7  8  1  0
M  END
> <minimizedAffinity>
-4.36868

> <CNNscore>
0.3781726658

> <CNNaffinity>
4.9300084114

> <CNN_VS>
1.8643944263

> <CNNaffinity_variance>
0.2054819018

$$$$
