


 31 32  0  0  0  0  0  0  0  0999 V2000
   13.2753    3.4554   39.2502 C   0  0  0  0  0  0  0  0  0  0  0  0
   11.8194    3.7125   39.6328 C   0  0  0  0  0  0  0  0  0  0  0  0
   11.1808    4.6206   39.0995 O   0  0  0  0  0  0  0  0  0  0  0  0
   11.1872    2.8309   40.7051 C   0  0  0  0  0  0  0  0  0  0  0  0
    9.8100    2.5991   40.4370 O   0  0  0  0  0  0  0  0  0  0  0  0
   11.8928    1.4761   40.7473 C   0  0  0  0  0  0  0  0  0  0  0  0
   11.3665    0.6797   41.8143 O   0  0  0  0  0  0  0  0  0  0  0  0
   13.4076    1.5774   40.9647 C   0  0  0  0  0  0  0  0  0  0  0  0
   14.0510    2.8953   40.4737 C   0  0  0  0  0  0  0  0  0  0  0  0
   13.9521    3.8309   41.5592 O   0  0  0  0  0  0  0  0  0  0  0  0
    9.7191    2.1363   39.5894 H   0  0  0  0  0  0  0  0  0  0  0  0
   11.5474    1.1148   42.6621 H   0  0  0  0  0  0  0  0  0  0  0  0
   14.4347    3.4873   42.3273 H   0  0  0  0  0  0  0  0  0  0  0  0
   13.3134    2.5619   37.9923 C   0  0  0  0  0  0  0  0  0  0  0  0
   17.0995    2.9374   35.9335 C   0  0  0  0  0  0  0  0  0  0  0  0
   16.0963    2.1072   35.4233 C   0  0  0  0  0  0  0  0  0  0  0  0
   14.8643    1.9816   36.0759 C   0  0  0  0  0  0  0  0  0  0  0  0
   14.6274    2.6858   37.2616 C   0  0  0  0  0  0  0  0  0  0  0  0
   15.6339    3.5257   37.7667 C   0  0  0  0  0  0  0  0  0  0  0  0
   16.8630    3.6474   37.1086 C   0  0  0  0  0  0  0  0  0  0  0  0
   19.2905    2.0815   35.5888 C   0  0  0  0  0  0  0  0  0  0  0  0
   18.2438    2.9633   35.1893 O   0  0  0  0  0  0  0  0  0  0  0  0
   15.5800    2.7121   40.1288 C   0  0  0  0  0  0  0  0  0  0  0  0
   16.6553    2.9388   41.3104 N   0  0  0  0  0  0  0  0  0  0  0  0
   16.4843    4.4032   41.6951 C   0  0  0  0  0  0  0  0  0  0  0  0
   16.2289    2.0802   42.5098 C   0  0  0  0  0  0  0  0  0  0  0  0
   18.0363    2.5837   40.8024 C   0  0  0  0  0  0  0  0  0  0  0  0
   19.2486    2.5518   41.7132 N   0  0  0  0  0  0  0  0  0  0  0  0
   19.4485    1.0382   42.0650 C   0  0  0  0  0  0  0  0  0  0  0  0
   19.0922    3.2622   43.0455 C   0  0  0  0  0  0  0  0  0  0  0  0
   20.5524    2.9817   41.0387 C   0  0  0  0  0  0  0  0  0  0  0  0
 21 22  1  0
 22 15  1  0
 15 16  2  0
 16 17  1  0
 17 18  2  0
 18 14  1  0
  1 14  1  0
  1  2  1  0
  2  3  2  0
  2  4  1  0
  4  5  1  0
  4  6  1  0
  6  7  1  0
  6  8  1  0
  8  9  1  0
  9 10  1  0
  9 23  1  0
 23 24  1  0
 24 25  1  0
 24 26  1  0
 24 27  1  0
 27 28  1  0
 28 29  1  0
 28 30  1  0
 28 31  1  0
 18 19  1  0
 19 20  2  0
 20 15  1  0
  9  1  1  0
  5 11  1  0
  7 12  1  0
 10 13  1  0
M  CHG 1  24   1
M  CHG 1  28   1
M  END
> <minimizedAffinity>
-7.15837

> <CNNscore>
0.2656453848

> <CNNaffinity>
4.9801888466

> <CNN_VS>
1.3229641914

> <CNNaffinity_variance>
0.4229950011

$$$$



 31 32  0  0  0  0  0  0  0  0999 V2000
   13.2655    3.4153   39.3781 C   0  0  0  0  0  0  0  0  0  0  0  0
   11.7954    3.7308   39.6451 C   0  0  0  0  0  0  0  0  0  0  0  0
   11.2099    4.5953   38.9918 O   0  0  0  0  0  0  0  0  0  0  0  0
   11.0810    2.9640   40.7534 C   0  0  0  0  0  0  0  0  0  0  0  0
    9.7176    2.7305   40.4236 O   0  0  0  0  0  0  0  0  0  0  0  0
   11.7529    1.6077   40.9640 C   0  0  0  0  0  0  0  0  0  0  0  0
   11.1465    0.9234   42.0656 O   0  0  0  0  0  0  0  0  0  0  0  0
   13.2539    1.7042   41.2638 C   0  0  0  0  0  0  0  0  0  0  0  0
   13.9543    2.9597   40.6936 C   0  0  0  0  0  0  0  0  0  0  0  0
   13.8113    3.9943   41.6798 O   0  0  0  0  0  0  0  0  0  0  0  0
    9.6673    2.1919   39.6185 H   0  0  0  0  0  0  0  0  0  0  0  0
   11.2859    1.4330   42.8791 H   0  0  0  0  0  0  0  0  0  0  0  0
   14.2395    3.7163   42.5045 H   0  0  0  0  0  0  0  0  0  0  0  0
   13.3591    2.4074   38.2130 C   0  0  0  0  0  0  0  0  0  0  0  0
   17.0115    2.8726   35.9421 C   0  0  0  0  0  0  0  0  0  0  0  0
   16.8877    3.4522   37.2089 C   0  0  0  0  0  0  0  0  0  0  0  0
   15.7139    3.3040   37.9571 C   0  0  0  0  0  0  0  0  0  0  0  0
   14.6401    2.5750   37.4341 C   0  0  0  0  0  0  0  0  0  0  0  0
   14.7710    1.9866   36.1651 C   0  0  0  0  0  0  0  0  0  0  0  0
   15.9478    2.1380   35.4229 C   0  0  0  0  0  0  0  0  0  0  0  0
   19.2182    2.1020   35.5077 C   0  0  0  0  0  0  0  0  0  0  0  0
   18.2126    3.0975   35.3332 O   0  0  0  0  0  0  0  0  0  0  0  0
   15.4967    2.7200   40.4618 C   0  0  0  0  0  0  0  0  0  0  0  0
   16.4940    2.9440   41.7105 N   0  0  0  0  0  0  0  0  0  0  0  0
   16.5503    1.5825   42.3924 C   0  0  0  0  0  0  0  0  0  0  0  0
   17.8903    3.2529   41.1517 C   0  0  0  0  0  0  0  0  0  0  0  0
   15.9573    4.0581   42.5835 C   0  0  0  0  0  0  0  0  0  0  0  0
   16.5713    4.3981   43.9279 N   0  0  0  0  0  0  0  0  0  0  0  0
   15.4356    4.1213   44.9711 C   0  0  0  0  0  0  0  0  0  0  0  0
   16.9612    5.8516   44.1268 C   0  0  0  0  0  0  0  0  0  0  0  0
   17.7257    3.4835   44.3406 C   0  0  0  0  0  0  0  0  0  0  0  0
 21 22  1  0
 22 15  1  0
 15 16  2  0
 16 17  1  0
 17 18  2  0
 18 14  1  0
  1 14  1  0
  1  2  1  0
  2  3  2  0
  2  4  1  0
  4  5  1  0
  4  6  1  0
  6  7  1  0
  6  8  1  0
  8  9  1  0
  9 10  1  0
  9 23  1  0
 23 24  1  0
 24 25  1  0
 24 26  1  0
 24 27  1  0
 27 28  1  0
 28 29  1  0
 28 30  1  0
 28 31  1  0
 18 19  1  0
 19 20  2  0
 20 15  1  0
  9  1  1  0
  5 11  1  0
  7 12  1  0
 10 13  1  0
M  CHG 1  24   1
M  CHG 1  28   1
M  END
> <minimizedAffinity>
-6.91586

> <CNNscore>
0.1985197961

> <CNNaffinity>
4.9238200188

> <CNN_VS>
0.9774757624

> <CNNaffinity_variance>
0.2510931492

$$$$



 31 32  0  0  0  0  0  0  0  0999 V2000
   17.8411    3.7249   42.5290 C   0  0  0  0  0  0  0  0  0  0  0  0
   16.5271    4.2756   43.0790 C   0  0  0  0  0  0  0  0  0  0  0  0
   15.7625    4.9152   42.3557 O   0  0  0  0  0  0  0  0  0  0  0  0
   16.1995    4.0311   44.5486 C   0  0  0  0  0  0  0  0  0  0  0  0
   14.8025    3.8501   44.7429 O   0  0  0  0  0  0  0  0  0  0  0  0
   16.9098    2.7693   45.0370 C   0  0  0  0  0  0  0  0  0  0  0  0
   16.6821    2.5873   46.4386 O   0  0  0  0  0  0  0  0  0  0  0  0
   18.4286    2.7972   44.8264 C   0  0  0  0  0  0  0  0  0  0  0  0
   18.9094    3.6864   43.6558 C   0  0  0  0  0  0  0  0  0  0  0  0
   19.0778    5.0104   44.1870 O   0  0  0  0  0  0  0  0  0  0  0  0
   14.5050    3.0723   44.2454 H   0  0  0  0  0  0  0  0  0  0  0  0
   17.0671    3.3311   46.9280 H   0  0  0  0  0  0  0  0  0  0  0  0
   19.7441    4.9937   44.8917 H   0  0  0  0  0  0  0  0  0  0  0  0
   17.5695    2.3685   41.8446 C   0  0  0  0  0  0  0  0  0  0  0  0
   17.4981    2.7270   37.5341 C   0  0  0  0  0  0  0  0  0  0  0  0
   16.3526    3.0067   38.2861 C   0  0  0  0  0  0  0  0  0  0  0  0
   16.3638    2.9011   39.6819 C   0  0  0  0  0  0  0  0  0  0  0  0
   17.5309    2.5014   40.3424 C   0  0  0  0  0  0  0  0  0  0  0  0
   18.6823    2.2297   39.5847 C   0  0  0  0  0  0  0  0  0  0  0  0
   18.6643    2.3383   38.1895 C   0  0  0  0  0  0  0  0  0  0  0  0
   16.2107    2.2357   35.5968 C   0  0  0  0  0  0  0  0  0  0  0  0
   17.3394    2.8768   36.1864 O   0  0  0  0  0  0  0  0  0  0  0  0
   20.3026    3.2106   43.0878 C   0  0  0  0  0  0  0  0  0  0  0  0
   21.6386    3.7086   43.8435 N   0  0  0  0  0  0  0  0  0  0  0  0
   22.7658    2.9633   43.1394 C   0  0  0  0  0  0  0  0  0  0  0  0
   21.8116    5.2078   43.5605 C   0  0  0  0  0  0  0  0  0  0  0  0
   21.5174    3.4058   45.3217 C   0  0  0  0  0  0  0  0  0  0  0  0
   22.6893    3.5469   46.2740 N   0  0  0  0  0  0  0  0  0  0  0  0
   23.2123    2.0856   46.4883 C   0  0  0  0  0  0  0  0  0  0  0  0
   22.3544    4.0668   47.6602 C   0  0  0  0  0  0  0  0  0  0  0  0
   23.8782    4.3172   45.6972 C   0  0  0  0  0  0  0  0  0  0  0  0
 21 22  1  0
 22 15  1  0
 15 16  2  0
 16 17  1  0
 17 18  2  0
 18 14  1  0
  1 14  1  0
  1  2  1  0
  2  3  2  0
  2  4  1  0
  4  5  1  0
  4  6  1  0
  6  7  1  0
  6  8  1  0
  8  9  1  0
  9 10  1  0
  9 23  1  0
 23 24  1  0
 24 25  1  0
 24 26  1  0
 24 27  1  0
 27 28  1  0
 28 29  1  0
 28 30  1  0
 28 31  1  0
 18 19  1  0
 19 20  2  0
 20 15  1  0
  9  1  1  0
  5 11  1  0
  7 12  1  0
 10 13  1  0
M  CHG 1  24   1
M  CHG 1  28   1
M  END
> <minimizedAffinity>
-4.67304

> <CNNscore>
0.1576775312

> <CNNaffinity>
3.0592012405

> <CNN_VS>
0.4823673069

> <CNNaffinity_variance>
1.5274699926

$$$$



 31 32  0  0  0  0  0  0  0  0999 V2000
   20.0640    1.1321   38.4325 C   0  0  0  0  0  0  0  0  0  0  0  0
   21.3779    1.0738   37.6563 C   0  0  0  0  0  0  0  0  0  0  0  0
   21.3797    0.9027   36.4366 O   0  0  0  0  0  0  0  0  0  0  0  0
   22.6833    1.2109   38.4333 C   0  0  0  0  0  0  0  0  0  0  0  0
   23.6670    1.9006   37.6725 O   0  0  0  0  0  0  0  0  0  0  0  0
   22.4430    2.0017   39.7187 C   0  0  0  0  0  0  0  0  0  0  0  0
   23.6434    2.0525   40.4973 O   0  0  0  0  0  0  0  0  0  0  0  0
   21.3497    1.4049   40.6134 C   0  0  0  0  0  0  0  0  0  0  0  0
   20.2749    0.5791   39.8685 C   0  0  0  0  0  0  0  0  0  0  0  0
   20.7742   -0.7652   39.7840 O   0  0  0  0  0  0  0  0  0  0  0  0
   23.3521    2.7960   37.4727 H   0  0  0  0  0  0  0  0  0  0  0  0
   23.8933    1.1544   40.7651 H   0  0  0  0  0  0  0  0  0  0  0  0
   20.9083   -1.1170   40.6780 H   0  0  0  0  0  0  0  0  0  0  0  0
   19.5047    2.5690   38.3653 C   0  0  0  0  0  0  0  0  0  0  0  0
   15.4416    2.6075   36.8809 C   0  0  0  0  0  0  0  0  0  0  0  0
   15.7052    2.8783   38.2275 C   0  0  0  0  0  0  0  0  0  0  0  0
   17.0157    2.8756   38.7195 C   0  0  0  0  0  0  0  0  0  0  0  0
   18.0831    2.5896   37.8610 C   0  0  0  0  0  0  0  0  0  0  0  0
   17.8156    2.3267   36.5071 C   0  0  0  0  0  0  0  0  0  0  0  0
   16.5030    2.3320   36.0217 C   0  0  0  0  0  0  0  0  0  0  0  0
   13.2646    3.4148   37.3917 C   0  0  0  0  0  0  0  0  0  0  0  0
   14.1190    2.6497   36.5448 O   0  0  0  0  0  0  0  0  0  0  0  0
   18.9091    0.5408   40.6579 C   0  0  0  0  0  0  0  0  0  0  0  0
   18.8064   -0.4239   41.9474 N   0  0  0  0  0  0  0  0  0  0  0  0
   20.1097   -0.1829   42.6989 C   0  0  0  0  0  0  0  0  0  0  0  0
   17.6521    0.0805   42.8253 C   0  0  0  0  0  0  0  0  0  0  0  0
   18.6058   -1.8518   41.4868 C   0  0  0  0  0  0  0  0  0  0  0  0
   18.8411   -3.0370   42.4035 N   0  0  0  0  0  0  0  0  0  0  0  0
   20.2021   -3.6504   41.9277 C   0  0  0  0  0  0  0  0  0  0  0  0
   17.8286   -4.1631   42.2994 C   0  0  0  0  0  0  0  0  0  0  0  0
   19.0614   -2.6627   43.8700 C   0  0  0  0  0  0  0  0  0  0  0  0
 21 22  1  0
 22 15  1  0
 15 16  2  0
 16 17  1  0
 17 18  2  0
 18 14  1  0
  1 14  1  0
  1  2  1  0
  2  3  2  0
  2  4  1  0
  4  5  1  0
  4  6  1  0
  6  7  1  0
  6  8  1  0
  8  9  1  0
  9 10  1  0
  9 23  1  0
 23 24  1  0
 24 25  1  0
 24 26  1  0
 24 27  1  0
 27 28  1  0
 28 29  1  0
 28 30  1  0
 28 31  1  0
 18 19  1  0
 19 20  2  0
 20 15  1  0
  9  1  1  0
  5 11  1  0
  7 12  1  0
 10 13  1  0
M  CHG 1  24   1
M  CHG 1  28   1
M  END
> <minimizedAffinity>
-6.92147

> <CNNscore>
0.1297272444

> <CNNaffinity>
4.1141057014

> <CNN_VS>
0.5337116122

> <CNNaffinity_variance>
0.4177377224

$$$$



 31 32  0  0  0  0  0  0  0  0999 V2000
   14.8515    3.6121   38.7833 C   0  0  0  0  0  0  0  0  0  0  0  0
   13.4439    4.1495   38.5344 C   0  0  0  0  0  0  0  0  0  0  0  0
   13.2355    4.9770   37.6463 O   0  0  0  0  0  0  0  0  0  0  0  0
   12.3115    3.6515   39.4269 C   0  0  0  0  0  0  0  0  0  0  0  0
   11.0912    3.5493   38.7040 O   0  0  0  0  0  0  0  0  0  0  0  0
   12.6516    2.2657   39.9740 C   0  0  0  0  0  0  0  0  0  0  0  0
   11.6364    1.8338   40.8865 O   0  0  0  0  0  0  0  0  0  0  0  0
   13.9870    2.2115   40.7261 C   0  0  0  0  0  0  0  0  0  0  0  0
   15.0266    3.2694   40.2880 C   0  0  0  0  0  0  0  0  0  0  0  0
   14.7698    4.4471   41.0695 O   0  0  0  0  0  0  0  0  0  0  0  0
   11.1955    2.9096   37.9823 H   0  0  0  0  0  0  0  0  0  0  0  0
   11.6085    2.4349   41.6473 H   0  0  0  0  0  0  0  0  0  0  0  0
   14.8774    4.2401   42.0111 H   0  0  0  0  0  0  0  0  0  0  0  0
   15.1201    2.4409   37.8147 C   0  0  0  0  0  0  0  0  0  0  0  0
   19.2622    2.2874   36.5762 C   0  0  0  0  0  0  0  0  0  0  0  0
   18.9328    2.4089   37.9300 C   0  0  0  0  0  0  0  0  0  0  0  0
   17.5966    2.4531   38.3450 C   0  0  0  0  0  0  0  0  0  0  0  0
   16.5689    2.3849   37.3979 C   0  0  0  0  0  0  0  0  0  0  0  0
   16.9030    2.2541   36.0396 C   0  0  0  0  0  0  0  0  0  0  0  0
   18.2410    2.2095   35.6318 C   0  0  0  0  0  0  0  0  0  0  0  0
   21.2383    0.9784   36.3927 C   0  0  0  0  0  0  0  0  0  0  0  0
   20.6032    2.2529   36.3221 O   0  0  0  0  0  0  0  0  0  0  0  0
   16.5043    2.8023   40.5856 C   0  0  0  0  0  0  0  0  0  0  0  0
   17.1088    3.0913   42.0536 N   0  0  0  0  0  0  0  0  0  0  0  0
   16.6326    1.9119   42.8925 C   0  0  0  0  0  0  0  0  0  0  0  0
   18.6395    3.0183   41.9580 C   0  0  0  0  0  0  0  0  0  0  0  0
   16.6199    4.4397   42.5374 C   0  0  0  0  0  0  0  0  0  0  0  0
   16.6686    4.8398   43.9995 N   0  0  0  0  0  0  0  0  0  0  0  0
   18.0769    4.3686   44.4993 C   0  0  0  0  0  0  0  0  0  0  0  0
   15.6640    4.1519   44.9059 C   0  0  0  0  0  0  0  0  0  0  0  0
   16.6436    6.3503   44.2386 C   0  0  0  0  0  0  0  0  0  0  0  0
 21 22  1  0
 22 15  1  0
 15 16  2  0
 16 17  1  0
 17 18  2  0
 18 14  1  0
  1 14  1  0
  1  2  1  0
  2  3  2  0
  2  4  1  0
  4  5  1  0
  4  6  1  0
  6  7  1  0
  6  8  1  0
  8  9  1  0
  9 10  1  0
  9 23  1  0
 23 24  1  0
 24 25  1  0
 24 26  1  0
 24 27  1  0
 27 28  1  0
 28 29  1  0
 28 30  1  0
 28 31  1  0
 18 19  1  0
 19 20  2  0
 20 15  1  0
  9  1  1  0
  5 11  1  0
  7 12  1  0
 10 13  1  0
M  CHG 1  24   1
M  CHG 1  28   1
M  END
> <minimizedAffinity>
-6.43525

> <CNNscore>
0.1154088080

> <CNNaffinity>
4.7021098137

> <CNN_VS>
0.5426648855

> <CNNaffinity_variance>
0.1830164194

$$$$



 31 32  0  0  0  0  0  0  0  0999 V2000
   19.4644    2.1347   41.9726 C   0  0  0  0  0  0  0  0  0  0  0  0
   19.8381    3.1993   43.0017 C   0  0  0  0  0  0  0  0  0  0  0  0
   20.6622    4.0734   42.7302 O   0  0  0  0  0  0  0  0  0  0  0  0
   19.1814    3.1375   44.3771 C   0  0  0  0  0  0  0  0  0  0  0  0
   18.9575    4.4402   44.9014 O   0  0  0  0  0  0  0  0  0  0  0  0
   17.8296    2.4319   44.2768 C   0  0  0  0  0  0  0  0  0  0  0  0
   17.2518    2.2872   45.5787 O   0  0  0  0  0  0  0  0  0  0  0  0
   17.9111    1.0298   43.6609 C   0  0  0  0  0  0  0  0  0  0  0  0
   19.0983    0.8091   42.6945 C   0  0  0  0  0  0  0  0  0  0  0  0
   20.2121    0.3912   43.4997 O   0  0  0  0  0  0  0  0  0  0  0  0
   18.3574    4.9262   44.3143 H   0  0  0  0  0  0  0  0  0  0  0  0
   17.8213    1.7224   46.1242 H   0  0  0  0  0  0  0  0  0  0  0  0
   19.9902   -0.4368   43.9537 H   0  0  0  0  0  0  0  0  0  0  0  0
   18.3642    2.6957   41.0470 C   0  0  0  0  0  0  0  0  0  0  0  0
   19.4261    2.1830   36.8848 C   0  0  0  0  0  0  0  0  0  0  0  0
   18.0979    2.4225   37.2516 C   0  0  0  0  0  0  0  0  0  0  0  0
   17.7416    2.5967   38.5940 C   0  0  0  0  0  0  0  0  0  0  0  0
   18.7203    2.5225   39.5913 C   0  0  0  0  0  0  0  0  0  0  0  0
   20.0549    2.2906   39.2189 C   0  0  0  0  0  0  0  0  0  0  0  0
   20.4043    2.1183   37.8747 C   0  0  0  0  0  0  0  0  0  0  0  0
   19.4417    0.7306   35.0028 C   0  0  0  0  0  0  0  0  0  0  0  0
   19.6238    2.0379   35.5418 O   0  0  0  0  0  0  0  0  0  0  0  0
   18.8011   -0.3331   41.6470 C   0  0  0  0  0  0  0  0  0  0  0  0
   18.9706   -1.8642   42.1275 N   0  0  0  0  0  0  0  0  0  0  0  0
   18.2145   -2.6706   41.0788 C   0  0  0  0  0  0  0  0  0  0  0  0
   20.4583   -2.2304   42.0257 C   0  0  0  0  0  0  0  0  0  0  0  0
   18.4312   -2.0077   43.5345 C   0  0  0  0  0  0  0  0  0  0  0  0
   18.9206   -3.0868   44.4812 N   0  0  0  0  0  0  0  0  0  0  0  0
   17.8555   -3.1285   45.6295 C   0  0  0  0  0  0  0  0  0  0  0  0
   20.2470   -2.8119   45.1662 C   0  0  0  0  0  0  0  0  0  0  0  0
   18.9201   -4.4945   43.8832 C   0  0  0  0  0  0  0  0  0  0  0  0
 21 22  1  0
 22 15  1  0
 15 16  2  0
 16 17  1  0
 17 18  2  0
 18 14  1  0
  1 14  1  0
  1  2  1  0
  2  3  2  0
  2  4  1  0
  4  5  1  0
  4  6  1  0
  6  7  1  0
  6  8  1  0
  8  9  1  0
  9 10  1  0
  9 23  1  0
 23 24  1  0
 24 25  1  0
 24 26  1  0
 24 27  1  0
 27 28  1  0
 28 29  1  0
 28 30  1  0
 28 31  1  0
 18 19  1  0
 19 20  2  0
 20 15  1  0
  9  1  1  0
  5 11  1  0
  7 12  1  0
 10 13  1  0
M  CHG 1  24   1
M  CHG 1  28   1
M  END
> <minimizedAffinity>
-4.73979

> <CNNscore>
0.1040454283

> <CNNaffinity>
2.8548355103

> <CNN_VS>
0.2970325947

> <CNNaffinity_variance>
1.9660153389

$$$$



 31 32  0  0  0  0  0  0  0  0999 V2000
   20.1202    1.0723   38.4620 C   0  0  0  0  0  0  0  0  0  0  0  0
   21.4076    1.0729   37.6406 C   0  0  0  0  0  0  0  0  0  0  0  0
   21.3698    0.9736   36.4136 O   0  0  0  0  0  0  0  0  0  0  0  0
   22.7374    1.1777   38.3807 C   0  0  0  0  0  0  0  0  0  0  0  0
   23.6891    1.9207   37.6295 O   0  0  0  0  0  0  0  0  0  0  0  0
   22.5339    1.8894   39.7176 C   0  0  0  0  0  0  0  0  0  0  0  0
   23.7593    1.9068   40.4577 O   0  0  0  0  0  0  0  0  0  0  0  0
   21.4763    1.2301   40.6113 C   0  0  0  0  0  0  0  0  0  0  0  0
   20.3839    0.4383   39.8552 C   0  0  0  0  0  0  0  0  0  0  0  0
   20.8912   -0.8935   39.6753 O   0  0  0  0  0  0  0  0  0  0  0  0
   23.3603    2.8231   37.4934 H   0  0  0  0  0  0  0  0  0  0  0  0
   24.0256    0.9971   40.6637 H   0  0  0  0  0  0  0  0  0  0  0  0
   21.0582   -1.2957   40.5420 H   0  0  0  0  0  0  0  0  0  0  0  0
   19.5471    2.5048   38.4980 C   0  0  0  0  0  0  0  0  0  0  0  0
   15.5247    2.6275   36.9107 C   0  0  0  0  0  0  0  0  0  0  0  0
   15.7568    2.8685   38.2687 C   0  0  0  0  0  0  0  0  0  0  0  0
   17.0540    2.8383   38.7941 C   0  0  0  0  0  0  0  0  0  0  0  0
   18.1394    2.5545   37.9578 C   0  0  0  0  0  0  0  0  0  0  0  0
   17.9038    2.3217   36.5926 C   0  0  0  0  0  0  0  0  0  0  0  0
   16.6044    2.3543   36.0738 C   0  0  0  0  0  0  0  0  0  0  0  0
   13.3377    3.4182   37.4042 C   0  0  0  0  0  0  0  0  0  0  0  0
   14.2120    2.6942   36.5416 O   0  0  0  0  0  0  0  0  0  0  0  0
   19.0458    0.3399   40.6858 C   0  0  0  0  0  0  0  0  0  0  0  0
   18.9221   -0.8338   41.7862 N   0  0  0  0  0  0  0  0  0  0  0  0
   17.7630   -0.3944   42.6723 C   0  0  0  0  0  0  0  0  0  0  0  0
   18.5034   -2.1207   41.0608 C   0  0  0  0  0  0  0  0  0  0  0  0
   20.2428   -0.9784   42.5115 C   0  0  0  0  0  0  0  0  0  0  0  0
   20.3799   -0.7197   43.9995 N   0  0  0  0  0  0  0  0  0  0  0  0
   20.1936    0.8279   44.1583 C   0  0  0  0  0  0  0  0  0  0  0  0
   21.7387   -1.0298   44.6010 C   0  0  0  0  0  0  0  0  0  0  0  0
   19.2737   -1.3456   44.8504 C   0  0  0  0  0  0  0  0  0  0  0  0
 21 22  1  0
 22 15  1  0
 15 16  2  0
 16 17  1  0
 17 18  2  0
 18 14  1  0
  1 14  1  0
  1  2  1  0
  2  3  2  0
  2  4  1  0
  4  5  1  0
  4  6  1  0
  6  7  1  0
  6  8  1  0
  8  9  1  0
  9 10  1  0
  9 23  1  0
 23 24  1  0
 24 25  1  0
 24 26  1  0
 24 27  1  0
 27 28  1  0
 28 29  1  0
 28 30  1  0
 28 31  1  0
 18 19  1  0
 19 20  2  0
 20 15  1  0
  9  1  1  0
  5 11  1  0
  7 12  1  0
 10 13  1  0
M  CHG 1  24   1
M  CHG 1  28   1
M  END
> <minimizedAffinity>
-6.69032

> <CNNscore>
0.1035276353

> <CNNaffinity>
3.8649568558

> <CNN_VS>
0.4001298547

> <CNNaffinity_variance>
0.5979923606

$$$$



 31 32  0  0  0  0  0  0  0  0999 V2000
   20.2627    0.2782   39.7044 C   0  0  0  0  0  0  0  0  0  0  0  0
   21.0163   -0.8013   38.9305 C   0  0  0  0  0  0  0  0  0  0  0  0
   20.4686   -1.4149   38.0137 O   0  0  0  0  0  0  0  0  0  0  0  0
   22.4533   -1.1123   39.3370 C   0  0  0  0  0  0  0  0  0  0  0  0
   23.2463   -1.4562   38.2078 O   0  0  0  0  0  0  0  0  0  0  0  0
   23.0833    0.1125   39.9989 C   0  0  0  0  0  0  0  0  0  0  0  0
   24.3990   -0.2029   40.4669 O   0  0  0  0  0  0  0  0  0  0  0  0
   22.2905    0.6384   41.2017 C   0  0  0  0  0  0  0  0  0  0  0  0
   20.7750    0.3313   41.1696 C   0  0  0  0  0  0  0  0  0  0  0  0
   20.6042   -0.9612   41.7726 O   0  0  0  0  0  0  0  0  0  0  0  0
   23.2740   -0.7073   37.5920 H   0  0  0  0  0  0  0  0  0  0  0  0
   24.3435   -0.8906   41.1487 H   0  0  0  0  0  0  0  0  0  0  0  0
   20.9224   -0.9353   42.6886 H   0  0  0  0  0  0  0  0  0  0  0  0
   20.3622    1.6111   38.9326 C   0  0  0  0  0  0  0  0  0  0  0  0
   16.5206    2.8554   37.3809 C   0  0  0  0  0  0  0  0  0  0  0  0
   16.7449    2.8096   38.7606 C   0  0  0  0  0  0  0  0  0  0  0  0
   17.9852    2.4151   39.2759 C   0  0  0  0  0  0  0  0  0  0  0  0
   19.0186    2.0505   38.4058 C   0  0  0  0  0  0  0  0  0  0  0  0
   18.7929    2.1061   37.0203 C   0  0  0  0  0  0  0  0  0  0  0  0
   17.5507    2.5024   36.5119 C   0  0  0  0  0  0  0  0  0  0  0  0
   14.4442    3.7904   38.0636 C   0  0  0  0  0  0  0  0  0  0  0  0
   15.2667    3.2622   37.0258 O   0  0  0  0  0  0  0  0  0  0  0  0
   19.9443    1.3742   42.0138 C   0  0  0  0  0  0  0  0  0  0  0  0
   18.8153    0.8080   43.0181 N   0  0  0  0  0  0  0  0  0  0  0  0
   17.9354    2.0170   43.3108 C   0  0  0  0  0  0  0  0  0  0  0  0
   17.9706   -0.2189   42.2502 C   0  0  0  0  0  0  0  0  0  0  0  0
   19.4861    0.2137   44.2380 C   0  0  0  0  0  0  0  0  0  0  0  0
   19.6377    0.9870   45.5338 N   0  0  0  0  0  0  0  0  0  0  0  0
   20.4821    0.0514   46.4648 C   0  0  0  0  0  0  0  0  0  0  0  0
   18.3520    1.2628   46.2921 C   0  0  0  0  0  0  0  0  0  0  0  0
   20.4582    2.2715   45.4065 C   0  0  0  0  0  0  0  0  0  0  0  0
 21 22  1  0
 22 15  1  0
 15 16  2  0
 16 17  1  0
 17 18  2  0
 18 14  1  0
  1 14  1  0
  1  2  1  0
  2  3  2  0
  2  4  1  0
  4  5  1  0
  4  6  1  0
  6  7  1  0
  6  8  1  0
  8  9  1  0
  9 10  1  0
  9 23  1  0
 23 24  1  0
 24 25  1  0
 24 26  1  0
 24 27  1  0
 27 28  1  0
 28 29  1  0
 28 30  1  0
 28 31  1  0
 18 19  1  0
 19 20  2  0
 20 15  1  0
  9  1  1  0
  5 11  1  0
  7 12  1  0
 10 13  1  0
M  CHG 1  24   1
M  CHG 1  28   1
M  END
> <minimizedAffinity>
-5.57650

> <CNNscore>
0.1024391204

> <CNNaffinity>
3.1480057240

> <CNN_VS>
0.3224789500

> <CNNaffinity_variance>
1.3722314835

$$$$



 31 32  0  0  0  0  0  0  0  0999 V2000
   21.3312    0.5817   39.2908 C   0  0  0  0  0  0  0  0  0  0  0  0
   22.4008    0.9475   38.2640 C   0  0  0  0  0  0  0  0  0  0  0  0
   22.0877    1.2546   37.1132 O   0  0  0  0  0  0  0  0  0  0  0  0
   23.8631    0.9011   38.6955 C   0  0  0  0  0  0  0  0  0  0  0  0
   24.6230    1.9180   38.0547 O   0  0  0  0  0  0  0  0  0  0  0  0
   23.9672    1.1166   40.2048 C   0  0  0  0  0  0  0  0  0  0  0  0
   25.3278    0.9803   40.6291 O   0  0  0  0  0  0  0  0  0  0  0  0
   23.1365    0.1239   41.0272 C   0  0  0  0  0  0  0  0  0  0  0  0
   21.9003   -0.4536   40.2990 C   0  0  0  0  0  0  0  0  0  0  0  0
   22.3512   -1.6110   39.5775 O   0  0  0  0  0  0  0  0  0  0  0  0
   24.2739    2.7880   38.3037 H   0  0  0  0  0  0  0  0  0  0  0  0
   25.6316    0.0757   40.4550 H   0  0  0  0  0  0  0  0  0  0  0  0
   22.7082   -2.2623   40.2014 H   0  0  0  0  0  0  0  0  0  0  0  0
   20.7839    1.8764   39.9284 C   0  0  0  0  0  0  0  0  0  0  0  0
   16.7771    2.7875   38.5760 C   0  0  0  0  0  0  0  0  0  0  0  0
   17.8114    2.6070   37.6522 C   0  0  0  0  0  0  0  0  0  0  0  0
   19.1110    2.3054   38.0759 C   0  0  0  0  0  0  0  0  0  0  0  0
   19.3908    2.1901   39.4420 C   0  0  0  0  0  0  0  0  0  0  0  0
   18.3477    2.3632   40.3671 C   0  0  0  0  0  0  0  0  0  0  0  0
   17.0504    2.6637   39.9365 C   0  0  0  0  0  0  0  0  0  0  0  0
   14.9880    4.3354   38.3413 C   0  0  0  0  0  0  0  0  0  0  0  0
   15.5642    3.0722   38.0175 O   0  0  0  0  0  0  0  0  0  0  0  0
   20.7832   -0.9182   41.3121 C   0  0  0  0  0  0  0  0  0  0  0  0
   21.0922   -2.1975   42.2460 N   0  0  0  0  0  0  0  0  0  0  0  0
   21.3890   -3.3184   41.2575 C   0  0  0  0  0  0  0  0  0  0  0  0
   22.3772   -1.9081   43.0351 C   0  0  0  0  0  0  0  0  0  0  0  0
   19.9029   -2.4568   43.1457 C   0  0  0  0  0  0  0  0  0  0  0  0
   18.8007   -3.4276   42.7682 N   0  0  0  0  0  0  0  0  0  0  0  0
   17.7779   -3.3565   43.9530 C   0  0  0  0  0  0  0  0  0  0  0  0
   19.2103   -4.8860   42.6711 C   0  0  0  0  0  0  0  0  0  0  0  0
   18.0044   -3.0220   41.5269 C   0  0  0  0  0  0  0  0  0  0  0  0
 21 22  1  0
 22 15  1  0
 15 16  2  0
 16 17  1  0
 17 18  2  0
 18 14  1  0
  1 14  1  0
  1  2  1  0
  2  3  2  0
  2  4  1  0
  4  5  1  0
  4  6  1  0
  6  7  1  0
  6  8  1  0
  8  9  1  0
  9 10  1  0
  9 23  1  0
 23 24  1  0
 24 25  1  0
 24 26  1  0
 24 27  1  0
 27 28  1  0
 28 29  1  0
 28 30  1  0
 28 31  1  0
 18 19  1  0
 19 20  2  0
 20 15  1  0
  9  1  1  0
  5 11  1  0
  7 12  1  0
 10 13  1  0
M  CHG 1  24   1
M  CHG 1  28   1
M  END
> <minimizedAffinity>
-5.28308

> <CNNscore>
0.0961393490

> <CNNaffinity>
3.0000984669

> <CNN_VS>
0.2884275019

> <CNNaffinity_variance>
1.6394177675

$$$$
