


 19 19  0  0  0  0  0  0  0  0999 V2000
   10.8169   -9.0668   16.8019 C   0  0  0  0  0  0  0  0  0  0  0  0
   10.2042  -10.3188   16.1636 C   0  0  0  0  0  0  0  0  0  0  0  0
    8.8192  -10.3311   16.6777 N   0  0  0  0  0  0  0  0  0  0  0  0
    8.3599   -8.9247   16.5885 C   0  0  0  0  0  0  0  0  0  0  0  0
    9.6480   -8.0594   16.6858 C   0  0  0  0  0  0  0  0  0  0  0  0
    8.7996  -10.6533   17.6453 H   0  0  0  0  0  0  0  0  0  0  0  0
   12.6325   -8.9982   18.6131 C   0  0  0  0  0  0  0  0  0  0  0  0
   11.4231   -9.3794   18.1680 C   0  0  0  0  0  0  0  0  0  0  0  0
   10.5228  -10.1904   19.0721 C   0  0  0  0  0  0  0  0  0  0  0  0
    7.2109   -8.5644   17.5695 C   0  0  0  0  0  0  0  0  0  0  0  0
    5.9624   -7.9010   16.9242 N   0  0  0  0  0  0  0  0  0  0  0  0
    5.6573   -6.5546   17.5698 C   0  0  0  0  0  0  0  0  0  0  0  0
    4.7706   -8.8314   17.1607 C   0  0  0  0  0  0  0  0  0  0  0  0
    6.1173   -7.7015   15.4195 C   0  0  0  0  0  0  0  0  0  0  0  0
    9.6419   -6.8668   17.6457 C   0  0  0  0  0  0  0  0  0  0  0  0
   10.4443   -5.6858   17.1644 C   0  0  0  0  0  0  0  0  0  0  0  0
   10.1835   -4.5172   17.3903 O   0  0  0  0  0  0  0  0  0  0  0  0
   11.4671   -6.0270   16.3628 O   0  0  0  0  0  0  0  0  0  0  0  0
   11.6535   -6.9307   16.2001 H   0  0  0  0  0  0  0  0  0  0  0  0
  7  8  2  0
  8  9  1  0
  1  8  1  0
  1  2  1  0
  2  3  1  0
  3  4  1  0
  4 10  1  0
 10 11  1  0
 11 12  1  0
 11 13  1  0
 11 14  1  0
  4  5  1  0
  5 15  1  0
 15 16  1  0
 16 17  2  0
 16 18  1  0
  5  1  1  0
  3  6  1  0
 18 19  1  0
M  CHG 1  11   1
M  END
> <minimizedAffinity>
-4.14590

> <CNNscore>
0.1786162108

> <CNNaffinity>
3.0247612000

> <CNN_VS>
0.5402714014

> <CNNaffinity_variance>
0.8884470463

$$$$



 19 19  0  0  0  0  0  0  0  0999 V2000
   16.0433    1.2986   15.8228 C   0  0  0  0  0  0  0  0  0  0  0  0
   15.7456    1.4158   14.3234 C   0  0  0  0  0  0  0  0  0  0  0  0
   16.2261    2.7692   13.9765 N   0  0  0  0  0  0  0  0  0  0  0  0
   17.5235    2.9120   14.6788 C   0  0  0  0  0  0  0  0  0  0  0  0
   17.4341    1.9710   15.9133 C   0  0  0  0  0  0  0  0  0  0  0  0
   15.5654    3.4768   14.2979 H   0  0  0  0  0  0  0  0  0  0  0  0
   14.3964    1.2802   17.7897 C   0  0  0  0  0  0  0  0  0  0  0  0
   14.8831    1.8273   16.6628 C   0  0  0  0  0  0  0  0  0  0  0  0
   14.2678    3.1025   16.1328 C   0  0  0  0  0  0  0  0  0  0  0  0
   17.9393    4.3818   14.9601 C   0  0  0  0  0  0  0  0  0  0  0  0
   19.3272    4.8039   14.4025 N   0  0  0  0  0  0  0  0  0  0  0  0
   19.3752    6.3001   14.1166 C   0  0  0  0  0  0  0  0  0  0  0  0
   19.5441    4.0533   13.0866 C   0  0  0  0  0  0  0  0  0  0  0  0
   20.4710    4.4462   15.3469 C   0  0  0  0  0  0  0  0  0  0  0  0
   17.8660    2.5264   17.2730 C   0  0  0  0  0  0  0  0  0  0  0  0
   19.1338    1.9162   17.8120 C   0  0  0  0  0  0  0  0  0  0  0  0
   19.2444    1.3565   18.8887 O   0  0  0  0  0  0  0  0  0  0  0  0
   20.2006    2.1161   17.0200 O   0  0  0  0  0  0  0  0  0  0  0  0
   20.0972    2.5483   16.1952 H   0  0  0  0  0  0  0  0  0  0  0  0
  7  8  2  0
  8  9  1  0
  1  8  1  0
  1  2  1  0
  2  3  1  0
  3  4  1  0
  4 10  1  0
 10 11  1  0
 11 12  1  0
 11 13  1  0
 11 14  1  0
  4  5  1  0
  5 15  1  0
 15 16  1  0
 16 17  2  0
 16 18  1  0
  5  1  1  0
  3  6  1  0
 18 19  1  0
M  CHG 1  11   1
M  END
> <minimizedAffinity>
-4.79375

> <CNNscore>
0.1666839719

> <CNNaffinity>
4.5086855888

> <CNN_VS>
0.7515256405

> <CNNaffinity_variance>
1.2258070707

$$$$



 19 19  0  0  0  0  0  0  0  0999 V2000
   12.9178   -9.4128   19.3856 C   0  0  0  0  0  0  0  0  0  0  0  0
   12.0320  -10.1372   18.3654 C   0  0  0  0  0  0  0  0  0  0  0  0
   10.7882   -9.3400   18.3541 N   0  0  0  0  0  0  0  0  0  0  0  0
   11.2336   -7.9263   18.3578 C   0  0  0  0  0  0  0  0  0  0  0  0
   12.6271   -7.9310   19.0474 C   0  0  0  0  0  0  0  0  0  0  0  0
   10.2271   -9.5405   19.1820 H   0  0  0  0  0  0  0  0  0  0  0  0
   13.5822  -10.0061   21.7914 C   0  0  0  0  0  0  0  0  0  0  0  0
   12.6775   -9.9349   20.8001 C   0  0  0  0  0  0  0  0  0  0  0  0
   11.2594  -10.3915   21.0573 C   0  0  0  0  0  0  0  0  0  0  0  0
   10.1869   -6.9281   18.9238 C   0  0  0  0  0  0  0  0  0  0  0  0
    9.3058   -6.2090   17.8645 N   0  0  0  0  0  0  0  0  0  0  0  0
    7.8323   -6.5523   18.0475 C   0  0  0  0  0  0  0  0  0  0  0  0
    9.7487   -6.7003   16.4846 C   0  0  0  0  0  0  0  0  0  0  0  0
    9.4661   -4.6920   17.9021 C   0  0  0  0  0  0  0  0  0  0  0  0
   12.8929   -6.8896   20.1378 C   0  0  0  0  0  0  0  0  0  0  0  0
   12.0426   -7.0588   21.3702 C   0  0  0  0  0  0  0  0  0  0  0  0
   12.4588   -7.0890   22.5150 O   0  0  0  0  0  0  0  0  0  0  0  0
   10.7435   -7.2664   21.0975 O   0  0  0  0  0  0  0  0  0  0  0  0
   10.4408   -7.2396   20.2112 H   0  0  0  0  0  0  0  0  0  0  0  0
  7  8  2  0
  8  9  1  0
  1  8  1  0
  1  2  1  0
  2  3  1  0
  3  4  1  0
  4 10  1  0
 10 11  1  0
 11 12  1  0
 11 13  1  0
 11 14  1  0
  4  5  1  0
  5 15  1  0
 15 16  1  0
 16 17  2  0
 16 18  1  0
  5  1  1  0
  3  6  1  0
 18 19  1  0
M  CHG 1  11   1
M  END
> <minimizedAffinity>
-4.93815

> <CNNscore>
0.1630070359

> <CNNaffinity>
2.7987434864

> <CNN_VS>
0.4562148750

> <CNNaffinity_variance>
1.3698896170

$$$$



 19 19  0  0  0  0  0  0  0  0999 V2000
   22.3590    9.8629   14.9308 C   0  0  0  0  0  0  0  0  0  0  0  0
   20.9052    9.4407   14.6893 C   0  0  0  0  0  0  0  0  0  0  0  0
   20.4107   10.4327   13.7124 N   0  0  0  0  0  0  0  0  0  0  0  0
   21.5078   10.5875   12.7278 C   0  0  0  0  0  0  0  0  0  0  0  0
   22.8117   10.2383   13.4994 C   0  0  0  0  0  0  0  0  0  0  0  0
   20.2152   11.3216   14.1729 H   0  0  0  0  0  0  0  0  0  0  0  0
   22.4492   10.6318   17.3767 C   0  0  0  0  0  0  0  0  0  0  0  0
   22.4601   10.8884   16.0575 C   0  0  0  0  0  0  0  0  0  0  0  0
   22.5969   12.3170   15.5820 C   0  0  0  0  0  0  0  0  0  0  0  0
   21.4976   11.9418   11.9675 C   0  0  0  0  0  0  0  0  0  0  0  0
   20.3380   12.1300   10.9499 N   0  0  0  0  0  0  0  0  0  0  0  0
   20.8140   12.8607    9.7000 C   0  0  0  0  0  0  0  0  0  0  0  0
   19.2624   12.9819   11.6275 C   0  0  0  0  0  0  0  0  0  0  0  0
   19.7030   10.8063   10.5344 C   0  0  0  0  0  0  0  0  0  0  0  0
   24.0056   11.1864   13.3592 C   0  0  0  0  0  0  0  0  0  0  0  0
   24.9777   10.7952   12.2765 C   0  0  0  0  0  0  0  0  0  0  0  0
   25.5558    9.7252   12.2012 O   0  0  0  0  0  0  0  0  0  0  0  0
   25.2354   11.7868   11.4073 O   0  0  0  0  0  0  0  0  0  0  0  0
   24.7814   12.6032   11.4800 H   0  0  0  0  0  0  0  0  0  0  0  0
  7  8  2  0
  8  9  1  0
  1  8  1  0
  1  2  1  0
  2  3  1  0
  3  4  1  0
  4 10  1  0
 10 11  1  0
 11 12  1  0
 11 13  1  0
 11 14  1  0
  4  5  1  0
  5 15  1  0
 15 16  1  0
 16 17  2  0
 16 18  1  0
  5  1  1  0
  3  6  1  0
 18 19  1  0
M  CHG 1  11   1
M  END
> <minimizedAffinity>
-4.16825

> <CNNscore>
0.1545474529

> <CNNaffinity>
3.3151397705

> <CNN_VS>
0.5123463869

> <CNNaffinity_variance>
0.6954119802

$$$$



 19 19  0  0  0  0  0  0  0  0999 V2000
   18.0838   -4.8698   21.9479 C   0  0  0  0  0  0  0  0  0  0  0  0
   19.3690   -4.3358   21.3049 C   0  0  0  0  0  0  0  0  0  0  0  0
   20.4444   -4.9618   22.1014 N   0  0  0  0  0  0  0  0  0  0  0  0
   20.0174   -6.3683   22.2919 C   0  0  0  0  0  0  0  0  0  0  0  0
   18.4646   -6.3456   22.2159 C   0  0  0  0  0  0  0  0  0  0  0  0
   20.5424   -4.4925   23.0017 H   0  0  0  0  0  0  0  0  0  0  0  0
   17.9820   -4.0919   24.3904 C   0  0  0  0  0  0  0  0  0  0  0  0
   17.6262   -3.9778   23.0995 C   0  0  0  0  0  0  0  0  0  0  0  0
   16.6909   -2.8648   22.6846 C   0  0  0  0  0  0  0  0  0  0  0  0
   20.6373   -7.0613   23.5360 C   0  0  0  0  0  0  0  0  0  0  0  0
   21.4717   -8.3396   23.2446 N   0  0  0  0  0  0  0  0  0  0  0  0
   22.9655   -8.0382   23.2569 C   0  0  0  0  0  0  0  0  0  0  0  0
   21.0896   -8.8322   21.8471 C   0  0  0  0  0  0  0  0  0  0  0  0
   21.1880   -9.4629   24.2376 C   0  0  0  0  0  0  0  0  0  0  0  0
   17.6811   -7.0950   23.2968 C   0  0  0  0  0  0  0  0  0  0  0  0
   17.2493   -8.4812   22.8938 C   0  0  0  0  0  0  0  0  0  0  0  0
   17.8161   -9.5141   23.2044 O   0  0  0  0  0  0  0  0  0  0  0  0
   16.1947   -8.4905   22.0615 O   0  0  0  0  0  0  0  0  0  0  0  0
   15.7708   -7.6866   21.8334 H   0  0  0  0  0  0  0  0  0  0  0  0
  7  8  2  0
  8  9  1  0
  1  8  1  0
  1  2  1  0
  2  3  1  0
  3  4  1  0
  4 10  1  0
 10 11  1  0
 11 12  1  0
 11 13  1  0
 11 14  1  0
  4  5  1  0
  5 15  1  0
 15 16  1  0
 16 17  2  0
 16 18  1  0
  5  1  1  0
  3  6  1  0
 18 19  1  0
M  CHG 1  11   1
M  END
> <minimizedAffinity>
-4.61171

> <CNNscore>
0.1533274204

> <CNNaffinity>
2.6436202526

> <CNN_VS>
0.4053394794

> <CNNaffinity_variance>
1.6071735620

$$$$



 19 19  0  0  0  0  0  0  0  0999 V2000
   12.3587   -7.7883   17.8859 C   0  0  0  0  0  0  0  0  0  0  0  0
   12.0232   -9.2627   17.6332 C   0  0  0  0  0  0  0  0  0  0  0  0
   10.5504   -9.3095   17.7406 N   0  0  0  0  0  0  0  0  0  0  0  0
   10.0703   -8.1107   17.0129 C   0  0  0  0  0  0  0  0  0  0  0  0
   11.2287   -7.0776   17.1030 C   0  0  0  0  0  0  0  0  0  0  0  0
   10.2616   -9.2741   18.7182 H   0  0  0  0  0  0  0  0  0  0  0  0
   13.1395   -6.4306   19.9178 C   0  0  0  0  0  0  0  0  0  0  0  0
   12.5489   -7.5088   19.3749 C   0  0  0  0  0  0  0  0  0  0  0  0
   11.9857   -8.5799   20.2811 C   0  0  0  0  0  0  0  0  0  0  0  0
    8.6668   -7.6141   17.4557 C   0  0  0  0  0  0  0  0  0  0  0  0
    7.5615   -7.6697   16.3645 N   0  0  0  0  0  0  0  0  0  0  0  0
    6.3066   -8.3604   16.8850 C   0  0  0  0  0  0  0  0  0  0  0  0
    8.1106   -8.4850   15.1917 C   0  0  0  0  0  0  0  0  0  0  0  0
    7.1822   -6.2863   15.8444 C   0  0  0  0  0  0  0  0  0  0  0  0
   10.8816   -5.6419   17.5058 C   0  0  0  0  0  0  0  0  0  0  0  0
    9.8528   -5.5424   18.6021 C   0  0  0  0  0  0  0  0  0  0  0  0
    9.8133   -6.2441   19.5975 O   0  0  0  0  0  0  0  0  0  0  0  0
    8.8910   -4.6386   18.3505 O   0  0  0  0  0  0  0  0  0  0  0  0
    8.9374   -4.1073   17.5801 H   0  0  0  0  0  0  0  0  0  0  0  0
  7  8  2  0
  8  9  1  0
  1  8  1  0
  1  2  1  0
  2  3  1  0
  3  4  1  0
  4 10  1  0
 10 11  1  0
 11 12  1  0
 11 13  1  0
 11 14  1  0
  4  5  1  0
  5 15  1  0
 15 16  1  0
 16 17  2  0
 16 18  1  0
  5  1  1  0
  3  6  1  0
 18 19  1  0
M  CHG 1  11   1
M  END
> <minimizedAffinity>
-4.71220

> <CNNscore>
0.1523405164

> <CNNaffinity>
3.0470879078

> <CNN_VS>
0.4641949534

> <CNNaffinity_variance>
1.0706676245

$$$$



 19 19  0  0  0  0  0  0  0  0999 V2000
   18.4932   -6.9032   24.1888 C   0  0  0  0  0  0  0  0  0  0  0  0
   17.9700   -6.4324   22.8269 C   0  0  0  0  0  0  0  0  0  0  0  0
   19.0749   -5.6092   22.2936 N   0  0  0  0  0  0  0  0  0  0  0  0
   20.3090   -6.3706   22.6007 C   0  0  0  0  0  0  0  0  0  0  0  0
   19.9706   -7.2223   23.8567 C   0  0  0  0  0  0  0  0  0  0  0  0
   19.0942   -4.6972   22.7500 H   0  0  0  0  0  0  0  0  0  0  0  0
   17.9333   -6.1797   26.5856 C   0  0  0  0  0  0  0  0  0  0  0  0
   18.1571   -5.9006   25.2902 C   0  0  0  0  0  0  0  0  0  0  0  0
   18.0962   -4.4648   24.8206 C   0  0  0  0  0  0  0  0  0  0  0  0
   21.5928   -5.5005   22.6824 C   0  0  0  0  0  0  0  0  0  0  0  0
   22.3286   -5.2636   21.3341 N   0  0  0  0  0  0  0  0  0  0  0  0
   22.1585   -6.4528   20.3963 C   0  0  0  0  0  0  0  0  0  0  0  0
   23.8186   -5.1011   21.6431 C   0  0  0  0  0  0  0  0  0  0  0  0
   21.8516   -4.0020   20.6207 C   0  0  0  0  0  0  0  0  0  0  0  0
   20.9726   -7.2255   25.0142 C   0  0  0  0  0  0  0  0  0  0  0  0
   20.7992   -8.3734   25.9746 C   0  0  0  0  0  0  0  0  0  0  0  0
   20.4820   -9.5087   25.6662 O   0  0  0  0  0  0  0  0  0  0  0  0
   20.9453   -8.0183   27.2621 O   0  0  0  0  0  0  0  0  0  0  0  0
   21.1898   -7.1407   27.4812 H   0  0  0  0  0  0  0  0  0  0  0  0
  7  8  2  0
  8  9  1  0
  1  8  1  0
  1  2  1  0
  2  3  1  0
  3  4  1  0
  4 10  1  0
 10 11  1  0
 11 12  1  0
 11 13  1  0
 11 14  1  0
  4  5  1  0
  5 15  1  0
 15 16  1  0
 16 17  2  0
 16 18  1  0
  5  1  1  0
  3  6  1  0
 18 19  1  0
M  CHG 1  11   1
M  END
> <minimizedAffinity>
-4.36839

> <CNNscore>
0.1515462548

> <CNNaffinity>
2.6898441315

> <CNN_VS>
0.4076358080

> <CNNaffinity_variance>
1.4218789339

$$$$



 19 19  0  0  0  0  0  0  0  0999 V2000
   12.1124   -8.2215   17.7878 C   0  0  0  0  0  0  0  0  0  0  0  0
   12.8128   -9.3683   18.5258 C   0  0  0  0  0  0  0  0  0  0  0  0
   11.7437   -9.9490   19.3640 N   0  0  0  0  0  0  0  0  0  0  0  0
   10.5495  -10.0020   18.4876 C   0  0  0  0  0  0  0  0  0  0  0  0
   10.7470   -8.8646   17.4461 C   0  0  0  0  0  0  0  0  0  0  0  0
   11.5655   -9.3586   20.1765 H   0  0  0  0  0  0  0  0  0  0  0  0
   11.5990   -5.7535   18.2646 C   0  0  0  0  0  0  0  0  0  0  0  0
   12.1662   -6.9264   18.5947 C   0  0  0  0  0  0  0  0  0  0  0  0
   12.9369   -7.0377   19.8906 C   0  0  0  0  0  0  0  0  0  0  0  0
    9.1969  -10.0113   19.2509 C   0  0  0  0  0  0  0  0  0  0  0  0
    9.2752   -9.6377   20.7575 N   0  0  0  0  0  0  0  0  0  0  0  0
    7.9502   -9.9044   21.4617 C   0  0  0  0  0  0  0  0  0  0  0  0
    9.5772   -8.1402   20.8471 C   0  0  0  0  0  0  0  0  0  0  0  0
   10.3822  -10.3897   21.4904 C   0  0  0  0  0  0  0  0  0  0  0  0
    9.5688   -7.9253   17.1755 C   0  0  0  0  0  0  0  0  0  0  0  0
    9.5044   -7.4113   15.7605 C   0  0  0  0  0  0  0  0  0  0  0  0
   10.3372   -6.6959   15.2319 O   0  0  0  0  0  0  0  0  0  0  0  0
    8.3704   -7.7462   15.1225 O   0  0  0  0  0  0  0  0  0  0  0  0
    7.7409   -8.2974   15.5442 H   0  0  0  0  0  0  0  0  0  0  0  0
  7  8  2  0
  8  9  1  0
  1  8  1  0
  1  2  1  0
  2  3  1  0
  3  4  1  0
  4 10  1  0
 10 11  1  0
 11 12  1  0
 11 13  1  0
 11 14  1  0
  4  5  1  0
  5 15  1  0
 15 16  1  0
 16 17  2  0
 16 18  1  0
  5  1  1  0
  3  6  1  0
 18 19  1  0
M  CHG 1  11   1
M  END
> <minimizedAffinity>
-4.53558

> <CNNscore>
0.1493455768

> <CNNaffinity>
3.1781857014

> <CNN_VS>
0.4746479690

> <CNNaffinity_variance>
0.7634239197

$$$$



 19 19  0  0  0  0  0  0  0  0999 V2000
   16.5608    2.2027   16.3272 C   0  0  0  0  0  0  0  0  0  0  0  0
   15.8190    3.5443   16.3426 C   0  0  0  0  0  0  0  0  0  0  0  0
   16.1938    4.1657   15.0556 N   0  0  0  0  0  0  0  0  0  0  0  0
   16.1124    3.0718   14.0586 C   0  0  0  0  0  0  0  0  0  0  0  0
   16.3680    1.7620   14.8563 C   0  0  0  0  0  0  0  0  0  0  0  0
   17.1420    4.5386   15.1010 H   0  0  0  0  0  0  0  0  0  0  0  0
   18.3977    1.8570   18.0844 C   0  0  0  0  0  0  0  0  0  0  0  0
   17.9672    2.3385   16.9058 C   0  0  0  0  0  0  0  0  0  0  0  0
   18.9319    3.0877   16.0148 C   0  0  0  0  0  0  0  0  0  0  0  0
   16.9885    3.2924   12.7953 C   0  0  0  0  0  0  0  0  0  0  0  0
   16.3259    2.9038   11.4442 N   0  0  0  0  0  0  0  0  0  0  0  0
   16.9053    3.7155   10.2918 C   0  0  0  0  0  0  0  0  0  0  0  0
   14.8324    3.2192   11.5545 C   0  0  0  0  0  0  0  0  0  0  0  0
   16.4750    1.4193   11.1246 C   0  0  0  0  0  0  0  0  0  0  0  0
   17.3665    0.7537   14.2817 C   0  0  0  0  0  0  0  0  0  0  0  0
   16.8479   -0.6597   14.2219 C   0  0  0  0  0  0  0  0  0  0  0  0
   17.5048   -1.6392   13.9157 O   0  0  0  0  0  0  0  0  0  0  0  0
   15.5292   -0.7545   14.4610 O   0  0  0  0  0  0  0  0  0  0  0  0
   15.0395    0.0092   14.6954 H   0  0  0  0  0  0  0  0  0  0  0  0
  7  8  2  0
  8  9  1  0
  1  8  1  0
  1  2  1  0
  2  3  1  0
  3  4  1  0
  4 10  1  0
 10 11  1  0
 11 12  1  0
 11 13  1  0
 11 14  1  0
  4  5  1  0
  5 15  1  0
 15 16  1  0
 16 17  2  0
 16 18  1  0
  5  1  1  0
  3  6  1  0
 18 19  1  0
M  CHG 1  11   1
M  END
> <minimizedAffinity>
-6.06907

> <CNNscore>
0.1404691339

> <CNNaffinity>
4.3920149803

> <CNN_VS>
0.6169425249

> <CNNaffinity_variance>
0.6987907290

$$$$
